
     RDKit          3D

 27 29  0  0  0  0  0  0  0  0999 V2000
  -12.1422   29.1070    9.9203 C   0  0  0  0  0  0  0  0  0  0  0  0
  -14.7825   29.5269    9.2290 C   0  0  0  0  0  0  0  0  0  0  0  0
  -14.4120   28.8824   10.3391 C   0  0  0  0  0  0  0  0  0  0  0  0
  -13.1219   28.6056   10.7814 C   0  0  0  0  0  0  0  0  0  0  0  0
   -9.7284   32.9278    4.1880 C   0  0  0  0  0  0  0  0  0  0  0  0
  -15.4138   28.7511   11.3760 C   0  0  0  0  0  0  0  0  0  0  0  0
  -10.6656   29.1329   10.2950 C   0  0  0  0  0  0  0  0  0  0  0  0
  -12.4359   29.7801    8.7853 C   0  0  0  0  0  0  0  0  0  0  0  0
  -13.6949   29.9944    8.4361 N   0  0  0  0  0  0  0  0  0  0  0  0
  -11.3746   30.1203    7.8708 N   0  0  0  0  0  0  0  0  0  0  0  0
  -16.0335   29.6773    8.6356 N   0  0  0  0  0  0  0  0  0  0  0  0
  -11.7031   30.9964    6.7428 C   0  0  0  0  0  0  0  0  0  0  0  0
  -10.6208   31.5165    6.0738 C   0  0  0  0  0  0  0  0  0  0  0  0
  -10.8617   32.3573    4.9607 C   0  0  0  0  0  0  0  0  0  0  0  0
  -12.1396   32.5807    4.6478 C   0  0  0  0  0  0  0  0  0  0  0  0
  -13.2861   32.0656    5.3033 C   0  0  0  0  0  0  0  0  0  0  0  0
  -12.9636   31.2438    6.3961 C   0  0  0  0  0  0  0  0  0  0  0  0
  -16.6715   30.2076    7.5121 C   0  0  2  0  0  0  0  0  0  0  0  0
  -18.2246   30.1331    7.9359 C   0  0  0  0  0  0  0  0  0  0  0  0
  -18.6432   28.7108    8.0404 C   0  0  0  0  0  0  0  0  0  0  0  0
  -18.1084   27.7120    7.0954 C   0  0  0  0  0  0  0  0  0  0  0  0
  -16.7397   28.0255    6.5012 C   0  0  0  0  0  0  0  0  0  0  0  0
  -16.7469   29.5030    6.2187 C   0  0  2  0  0  0  0  0  0  0  0  0
  -15.9848   29.9718    5.1211 N   0  0  0  0  0  4  0  0  0  0  0  0
  -16.2372   28.6435   12.2583 N   0  0  0  0  0  0  0  0  0  0  0  0
   -9.9034   29.7362    9.6573 O   0  0  0  0  0  0  0  0  0  0  0  0
  -10.3924   28.3511   11.4661 N   0  0  0  0  0  0  0  0  0  0  0  0
  1  4  2  0
  1  7  1  0
  8  1  1  0
  2  3  2  0
  9  2  1  0
  2 11  1  0
  4  3  1  0
  3  6  1  0
 14  5  1  0
  6 25  3  0
  7 26  2  0
  7 27  1  0
  8  9  2  0
 10  8  1  0
 12 10  1  0
 18 11  1  1
 13 12  2  0
 12 17  1  0
 13 14  1  0
 14 15  2  0
 15 16  1  0
 16 17  2  0
 18 19  1  0
 18 23  1  0
 19 20  1  0
 20 21  1  0
 21 22  1  0
 22 23  1  0
 23 24  1  6
M  CHG  1  24   1
M  END
$$$$
