
     RDKit          3D

 27 29  0  0  0  0  0  0  0  0999 V2000
  -11.6660   29.0325    9.8090 C   0  0  0  0  0  0  0  0  0  0  0  0
  -14.3477   29.4414    9.2925 C   0  0  0  0  0  0  0  0  0  0  0  0
  -13.9030   28.7853   10.3680 C   0  0  0  0  0  0  0  0  0  0  0  0
  -12.5856   28.5124   10.7237 C   0  0  0  0  0  0  0  0  0  0  0  0
  -14.8042   31.9071    5.1558 C   0  0  0  0  0  0  0  0  0  0  0  0
  -14.8359   28.6328   11.4645 C   0  0  0  0  0  0  0  0  0  0  0  0
  -10.1688   29.0646   10.0895 C   0  0  0  0  0  0  0  0  0  0  0  0
  -12.0359   29.7182    8.7042 C   0  0  0  0  0  0  0  0  0  0  0  0
  -13.3159   29.9274    8.4385 N   0  0  0  0  0  0  0  0  0  0  0  0
  -11.0372   30.0783    7.7288 N   0  0  0  0  0  0  0  0  0  0  0  0
  -15.6349   29.5901    8.7819 N   0  0  0  0  0  0  0  0  0  0  0  0
  -11.4825   30.8005    6.5338 C   0  0  0  0  0  0  0  0  0  0  0  0
  -12.8425   30.9700    6.4279 C   0  0  0  0  0  0  0  0  0  0  0  0
  -13.3447   31.6753    5.3078 C   0  0  0  0  0  0  0  0  0  0  0  0
  -12.4429   32.1238    4.4324 C   0  0  0  0  0  0  0  0  0  0  0  0
  -11.0345   31.9771    4.5002 C   0  0  0  0  0  0  0  0  0  0  0  0
  -10.6166   31.2658    5.6373 C   0  0  0  0  0  0  0  0  0  0  0  0
  -16.3461   30.1253    7.7056 C   0  0  2  0  0  0  0  0  0  0  0  0
  -17.8481   30.1860    8.2867 C   0  0  0  0  0  0  0  0  0  0  0  0
  -18.3554   28.8049    8.4969 C   0  0  0  0  0  0  0  0  0  0  0  0
  -17.9954   27.7333    7.5489 C   0  0  0  0  0  0  0  0  0  0  0  0
  -16.6767   27.9185    6.8062 C   0  0  0  0  0  0  0  0  0  0  0  0
  -16.6062   29.3805    6.4595 C   0  0  2  0  0  0  0  0  0  0  0  0
  -15.9302   29.7480    5.2706 N   0  0  0  0  0  4  0  0  0  0  0  0
  -15.6143   28.4842   12.3812 N   0  0  0  0  0  0  0  0  0  0  0  0
   -9.4343   29.5492    9.3297 O   0  0  0  0  0  0  0  0  0  0  0  0
   -9.8410   28.4457   11.3412 N   0  0  0  0  0  0  0  0  0  0  0  0
  1  4  2  0
  1  7  1  0
  8  1  1  0
  2  3  2  0
  9  2  1  0
  2 11  1  0
  4  3  1  0
  3  6  1  0
 14  5  1  0
  6 25  3  0
  7 26  2  0
  7 27  1  0
  8  9  2  0
 10  8  1  0
 12 10  1  0
 18 11  1  1
 13 12  2  0
 12 17  1  0
 13 14  1  0
 14 15  2  0
 15 16  1  0
 16 17  2  0
 18 19  1  0
 18 23  1  0
 19 20  1  0
 20 21  1  0
 21 22  1  0
 22 23  1  0
 23 24  1  6
M  CHG  1  24   1
M  END
$$$$
