
     RDKit          3D

 27 29  0  0  0  0  0  0  0  0999 V2000
  -12.1895   29.1775    9.8975 C   0  0  0  0  0  0  0  0  0  0  0  0
  -14.8336   29.5988    9.2220 C   0  0  0  0  0  0  0  0  0  0  0  0
  -14.4565   28.9781   10.3434 C   0  0  0  0  0  0  0  0  0  0  0  0
  -13.1639   28.7031   10.7796 C   0  0  0  0  0  0  0  0  0  0  0  0
   -9.8072   33.1141    4.2618 C   0  0  0  0  0  0  0  0  0  0  0  0
  -15.4489   28.8779   11.3926 C   0  0  0  0  0  0  0  0  0  0  0  0
  -10.7092   29.2023   10.2572 C   0  0  0  0  0  0  0  0  0  0  0  0
  -12.4900   29.8257    8.7499 C   0  0  0  0  0  0  0  0  0  0  0  0
  -13.7509   30.0401    8.4078 N   0  0  0  0  0  0  0  0  0  0  0  0
  -11.4355   30.1371    7.8173 N   0  0  0  0  0  0  0  0  0  0  0  0
  -16.0894   29.7436    8.6373 N   0  0  0  0  0  0  0  0  0  0  0  0
  -11.7666   30.9979    6.6784 C   0  0  0  0  0  0  0  0  0  0  0  0
  -10.6923   31.6120    6.0797 C   0  0  0  0  0  0  0  0  0  0  0  0
  -10.9343   32.4445    4.9606 C   0  0  0  0  0  0  0  0  0  0  0  0
  -12.2053   32.5680    4.5732 C   0  0  0  0  0  0  0  0  0  0  0  0
  -13.3430   31.9541    5.1547 C   0  0  0  0  0  0  0  0  0  0  0  0
  -13.0202   31.1473    6.2585 C   0  0  0  0  0  0  0  0  0  0  0  0
  -16.7353   30.2541    7.5091 C   0  0  2  0  0  0  0  0  0  0  0  0
  -18.2723   30.3054    7.9911 C   0  0  0  0  0  0  0  0  0  0  0  0
  -18.7769   28.9216    8.1896 C   0  0  0  0  0  0  0  0  0  0  0  0
  -18.3446   27.8405    7.2836 C   0  0  0  0  0  0  0  0  0  0  0  0
  -16.9827   28.0304    6.6248 C   0  0  0  0  0  0  0  0  0  0  0  0
  -16.9060   29.4880    6.2606 C   0  0  2  0  0  0  0  0  0  0  0  0
  -16.1587   29.8459    5.1123 N   0  0  0  0  0  4  0  0  0  0  0  0
  -16.2727   28.7746   12.2751 N   0  0  0  0  0  0  0  0  0  0  0  0
   -9.9462   29.7674    9.5863 O   0  0  0  0  0  0  0  0  0  0  0  0
  -10.4338   28.4702   11.4595 N   0  0  0  0  0  0  0  0  0  0  0  0
  1  4  2  0
  1  7  1  0
  8  1  1  0
  2  3  2  0
  9  2  1  0
  2 11  1  0
  4  3  1  0
  3  6  1  0
 14  5  1  0
  6 25  3  0
  7 26  2  0
  7 27  1  0
  8  9  2  0
 10  8  1  0
 12 10  1  0
 18 11  1  1
 13 12  2  0
 12 17  1  0
 13 14  1  0
 14 15  2  0
 15 16  1  0
 16 17  2  0
 18 19  1  0
 18 23  1  0
 19 20  1  0
 20 21  1  0
 21 22  1  0
 22 23  1  0
 23 24  1  6
M  CHG  1  24   1
M  END
$$$$
