
     RDKit          3D

 27 29  0  0  0  0  0  0  0  0999 V2000
  -11.9305   29.3981    9.8913 C   0  0  0  0  0  0  0  0  0  0  0  0
  -14.6322   29.6529    9.3802 C   0  0  0  0  0  0  0  0  0  0  0  0
  -14.1467   28.9528   10.4093 C   0  0  0  0  0  0  0  0  0  0  0  0
  -12.8147   28.7485   10.7568 C   0  0  0  0  0  0  0  0  0  0  0  0
  -10.3079   33.5046    4.0521 C   0  0  0  0  0  0  0  0  0  0  0  0
  -15.0711   28.6547   11.4828 C   0  0  0  0  0  0  0  0  0  0  0  0
  -10.4407   29.5155   10.1877 C   0  0  0  0  0  0  0  0  0  0  0  0
  -12.3435   30.1350    8.8359 C   0  0  0  0  0  0  0  0  0  0  0  0
  -13.6340   30.2720    8.5738 N   0  0  0  0  0  0  0  0  0  0  0  0
  -11.3687   30.6355    7.8989 N   0  0  0  0  0  0  0  0  0  0  0  0
  -15.9245   29.7471    8.8694 N   0  0  0  0  0  0  0  0  0  0  0  0
  -11.8628   31.3628    6.7264 C   0  0  0  0  0  0  0  0  0  0  0  0
  -10.9049   32.0513    6.0208 C   0  0  0  0  0  0  0  0  0  0  0  0
  -11.3061   32.7626    4.8645 C   0  0  0  0  0  0  0  0  0  0  0  0
  -12.6017   32.7067    4.5498 C   0  0  0  0  0  0  0  0  0  0  0  0
  -13.6235   32.0095    5.2423 C   0  0  0  0  0  0  0  0  0  0  0  0
  -13.1461   31.3321    6.3766 C   0  0  0  0  0  0  0  0  0  0  0  0
  -16.9694   28.9812    8.3476 C   0  0  2  0  0  0  0  0  0  0  0  0
  -16.2324   28.1510    7.1794 C   0  0  0  0  0  0  0  0  0  0  0  0
  -15.8001   29.0826    6.1050 C   0  0  0  0  0  0  0  0  0  0  0  0
  -16.6463   30.2352    5.7419 C   0  0  0  0  0  0  0  0  0  0  0  0
  -17.5514   30.7692    6.8467 C   0  0  0  0  0  0  0  0  0  0  0  0
  -18.0783   29.5561    7.5635 C   0  0  2  0  0  0  0  0  0  0  0  0
  -19.3722   29.6331    8.1338 N   0  0  0  0  0  4  0  0  0  0  0  0
  -15.8492   28.3867   12.3721 N   0  0  0  0  0  0  0  0  0  0  0  0
   -9.7211   30.0084    9.4191 O   0  0  0  0  0  0  0  0  0  0  0  0
  -10.0993   28.9596   11.4652 N   0  0  0  0  0  0  0  0  0  0  0  0
  1  4  2  0
  1  7  1  0
  8  1  1  0
  2  3  2  0
  9  2  1  0
  2 11  1  0
  4  3  1  0
  3  6  1  0
 14  5  1  0
  6 25  3  0
  7 26  2  0
  7 27  1  0
  8  9  2  0
 10  8  1  0
 12 10  1  0
 18 11  1  6
 13 12  2  0
 12 17  1  0
 13 14  1  0
 14 15  2  0
 15 16  1  0
 16 17  2  0
 18 19  1  0
 18 23  1  0
 19 20  1  0
 20 21  1  0
 21 22  1  0
 22 23  1  0
 23 24  1  1
M  CHG  1  24   1
M  END
$$$$
