
     RDKit          3D

 27 29  0  0  0  0  0  0  0  0999 V2000
  -11.8834   29.0231    9.9454 C   0  0  0  0  0  0  0  0  0  0  0  0
  -14.5323   29.5287    9.3511 C   0  0  0  0  0  0  0  0  0  0  0  0
  -14.1359   28.9603   10.4933 C   0  0  0  0  0  0  0  0  0  0  0  0
  -12.8396   28.6507   10.8939 C   0  0  0  0  0  0  0  0  0  0  0  0
  -14.5308   31.6810    4.7098 C   0  0  0  0  0  0  0  0  0  0  0  0
  -15.0858   28.9721   11.5857 C   0  0  0  0  0  0  0  0  0  0  0  0
  -10.3894   28.9988   10.2433 C   0  0  0  0  0  0  0  0  0  0  0  0
  -12.2032   29.6137    8.7722 C   0  0  0  0  0  0  0  0  0  0  0  0
  -13.4666   29.8671    8.4680 N   0  0  0  0  0  0  0  0  0  0  0  0
  -11.1767   29.8167    7.7804 N   0  0  0  0  0  0  0  0  0  0  0  0
  -15.8041   29.6976    8.8092 N   0  0  0  0  0  0  0  0  0  0  0  0
  -11.4666   30.7405    6.6802 C   0  0  0  0  0  0  0  0  0  0  0  0
  -12.7715   30.7414    6.2480 C   0  0  0  0  0  0  0  0  0  0  0  0
  -13.1296   31.6229    5.1998 C   0  0  0  0  0  0  0  0  0  0  0  0
  -12.1558   32.3919    4.7086 C   0  0  0  0  0  0  0  0  0  0  0  0
  -10.8005   32.4289    5.1225 C   0  0  0  0  0  0  0  0  0  0  0  0
  -10.5255   31.5259    6.1629 C   0  0  0  0  0  0  0  0  0  0  0  0
  -16.4731   30.1506    7.6699 C   0  0  2  0  0  0  0  0  0  0  0  0
  -17.9161   30.5569    8.2616 C   0  0  0  0  0  0  0  0  0  0  0  0
  -18.6255   29.3350    8.7229 C   0  0  0  0  0  0  0  0  0  0  0  0
  -18.4872   28.0726    7.9722 C   0  0  0  0  0  0  0  0  0  0  0  0
  -17.1938   27.9078    7.1818 C   0  0  0  0  0  0  0  0  0  0  0  0
  -16.9089   29.2570    6.5807 C   0  0  2  0  0  0  0  0  0  0  0  0
  -16.2421   29.2990    5.3321 N   0  0  0  0  0  4  0  0  0  0  0  0
  -15.8881   28.9632   12.4938 N   0  0  0  0  0  0  0  0  0  0  0  0
   -9.6319   29.4927    9.5126 O   0  0  0  0  0  0  0  0  0  0  0  0
  -10.0952   28.3184   11.4712 N   0  0  0  0  0  0  0  0  0  0  0  0
  1  4  2  0
  1  7  1  0
  8  1  1  0
  2  3  2  0
  9  2  1  0
  2 11  1  0
  4  3  1  0
  3  6  1  0
 14  5  1  0
  6 25  3  0
  7 26  2  0
  7 27  1  0
  8  9  2  0
 10  8  1  0
 12 10  1  0
 18 11  1  1
 13 12  2  0
 12 17  1  0
 13 14  1  0
 14 15  2  0
 15 16  1  0
 16 17  2  0
 18 19  1  0
 18 23  1  0
 19 20  1  0
 20 21  1  0
 21 22  1  0
 22 23  1  0
 23 24  1  6
M  CHG  1  24   1
M  END
$$$$
