
     RDKit          3D

 27 29  0  0  0  0  0  0  0  0999 V2000
  -12.0009   29.0239    9.8712 C   0  0  0  0  0  0  0  0  0  0  0  0
  -14.6410   29.4475    9.1817 C   0  0  0  0  0  0  0  0  0  0  0  0
  -14.2706   28.8088   10.2952 C   0  0  0  0  0  0  0  0  0  0  0  0
  -12.9806   28.5308   10.7370 C   0  0  0  0  0  0  0  0  0  0  0  0
   -9.6451   33.1884    4.4074 C   0  0  0  0  0  0  0  0  0  0  0  0
  -15.2710   28.6870   11.3345 C   0  0  0  0  0  0  0  0  0  0  0  0
  -10.5236   29.0477   10.2433 C   0  0  0  0  0  0  0  0  0  0  0  0
  -12.2945   29.6908    8.7326 C   0  0  0  0  0  0  0  0  0  0  0  0
  -13.5534   29.9067    8.3841 N   0  0  0  0  0  0  0  0  0  0  0  0
  -11.2337   30.0221    7.8142 N   0  0  0  0  0  0  0  0  0  0  0  0
  -15.8926   29.5980    8.5895 N   0  0  0  0  0  0  0  0  0  0  0  0
  -11.5659   30.8762    6.6704 C   0  0  0  0  0  0  0  0  0  0  0  0
  -10.5113   31.5852    6.1464 C   0  0  0  0  0  0  0  0  0  0  0  0
  -10.7536   32.4178    5.0274 C   0  0  0  0  0  0  0  0  0  0  0  0
  -12.0056   32.4476    4.5665 C   0  0  0  0  0  0  0  0  0  0  0  0
  -13.1223   31.7339    5.0696 C   0  0  0  0  0  0  0  0  0  0  0  0
  -12.8007   30.9337    6.1786 C   0  0  0  0  0  0  0  0  0  0  0  0
  -16.5337   30.1426    7.4746 C   0  0  2  0  0  0  0  0  0  0  0  0
  -18.0368   30.3543    8.0161 C   0  0  0  0  0  0  0  0  0  0  0  0
  -18.6633   29.0311    8.2723 C   0  0  0  0  0  0  0  0  0  0  0  0
  -18.3759   27.8924    7.3795 C   0  0  0  0  0  0  0  0  0  0  0  0
  -17.0313   27.9336    6.6618 C   0  0  0  0  0  0  0  0  0  0  0  0
  -16.8303   29.3679    6.2553 C   0  0  2  0  0  0  0  0  0  0  0  0
  -16.1014   29.6246    5.0686 N   0  0  0  0  0  4  0  0  0  0  0  0
  -16.1232   28.5832   12.1896 N   0  0  0  0  0  0  0  0  0  0  0  0
   -9.7473   29.5690    9.5525 O   0  0  0  0  0  0  0  0  0  0  0  0
  -10.2685   28.3727   11.4830 N   0  0  0  0  0  0  0  0  0  0  0  0
  1  4  2  0
  1  7  1  0
  8  1  1  0
  2  3  2  0
  9  2  1  0
  2 11  1  0
  4  3  1  0
  3  6  1  0
 14  5  1  0
  6 25  3  0
  7 26  2  0
  7 27  1  0
  8  9  2  0
 10  8  1  0
 12 10  1  0
 18 11  1  1
 13 12  2  0
 12 17  1  0
 13 14  1  0
 14 15  2  0
 15 16  1  0
 16 17  2  0
 18 19  1  0
 18 23  1  0
 19 20  1  0
 20 21  1  0
 21 22  1  0
 22 23  1  0
 23 24  1  6
M  CHG  1  24   1
M  END
$$$$
