
     RDKit          3D

 27 29  0  0  0  0  0  0  0  0999 V2000
  -11.8938   29.1367    9.6644 C   0  0  0  0  0  0  0  0  0  0  0  0
  -14.5993   29.3710    9.1641 C   0  0  0  0  0  0  0  0  0  0  0  0
  -14.1065   28.7399   10.2336 C   0  0  0  0  0  0  0  0  0  0  0  0
  -12.7721   28.5525   10.5809 C   0  0  0  0  0  0  0  0  0  0  0  0
  -10.3261   32.9829    3.6436 C   0  0  0  0  0  0  0  0  0  0  0  0
  -15.0213   28.5207   11.3341 C   0  0  0  0  0  0  0  0  0  0  0  0
  -10.4004   29.2658    9.9373 C   0  0  0  0  0  0  0  0  0  0  0  0
  -12.3140   29.8023    8.5654 C   0  0  0  0  0  0  0  0  0  0  0  0
  -13.6065   29.9283    8.3075 N   0  0  0  0  0  0  0  0  0  0  0  0
  -11.3466   30.2325    7.5868 N   0  0  0  0  0  0  0  0  0  0  0  0
  -15.8963   29.4374    8.6610 N   0  0  0  0  0  0  0  0  0  0  0  0
  -11.8480   30.8981    6.3813 C   0  0  0  0  0  0  0  0  0  0  0  0
  -10.9028   31.5886    5.6605 C   0  0  0  0  0  0  0  0  0  0  0  0
  -11.3111   32.2418    4.4728 C   0  0  0  0  0  0  0  0  0  0  0  0
  -12.6003   32.1331    4.1456 C   0  0  0  0  0  0  0  0  0  0  0  0
  -13.6087   31.4314    4.8529 C   0  0  0  0  0  0  0  0  0  0  0  0
  -13.1251   30.8136    6.0181 C   0  0  0  0  0  0  0  0  0  0  0  0
  -16.6316   29.8192    7.5366 C   0  0  2  0  0  0  0  0  0  0  0  0
  -17.8871   30.5856    8.1951 C   0  0  0  0  0  0  0  0  0  0  0  0
  -18.7221   29.6141    8.9489 C   0  0  0  0  0  0  0  0  0  0  0  0
  -18.9070   28.2438    8.4347 C   0  0  0  0  0  0  0  0  0  0  0  0
  -17.7842   27.7075    7.5535 C   0  0  0  0  0  0  0  0  0  0  0  0
  -17.3613   28.8610    6.6855 C   0  0  2  0  0  0  0  0  0  0  0  0
  -16.8788   28.5708    5.3861 N   0  0  0  0  0  4  0  0  0  0  0  0
  -15.7705   28.3358   12.2682 N   0  0  0  0  0  0  0  0  0  0  0  0
   -9.9857   29.1696   11.0192 O   0  0  0  0  0  0  0  0  0  0  0  0
   -9.6519   29.5096    8.7383 N   0  0  0  0  0  0  0  0  0  0  0  0
  1  4  2  0
  1  7  1  0
  8  1  1  0
  2  3  2  0
  9  2  1  0
  2 11  1  0
  4  3  1  0
  3  6  1  0
 14  5  1  0
  6 25  3  0
  7 26  2  0
  7 27  1  0
  8  9  2  0
 10  8  1  0
 12 10  1  0
 18 11  1  1
 13 12  2  0
 12 17  1  0
 13 14  1  0
 14 15  2  0
 15 16  1  0
 16 17  2  0
 18 19  1  0
 18 23  1  0
 19 20  1  0
 20 21  1  0
 21 22  1  0
 22 23  1  0
 23 24  1  6
M  CHG  1  24   1
M  END
$$$$
