
     RDKit          3D

 27 29  0  0  0  0  0  0  0  0999 V2000
  -11.9563   29.2695   10.0565 C   0  0  0  0  0  0  0  0  0  0  0  0
  -14.6196   29.6492    9.4338 C   0  0  0  0  0  0  0  0  0  0  0  0
  -14.2090   28.8814   10.4471 C   0  0  0  0  0  0  0  0  0  0  0  0
  -12.9033   28.6109   10.8453 C   0  0  0  0  0  0  0  0  0  0  0  0
  -14.8828   32.1363    5.2281 C   0  0  0  0  0  0  0  0  0  0  0  0
  -15.1941   28.5647   11.4596 C   0  0  0  0  0  0  0  0  0  0  0  0
  -10.4794   29.3167   10.4277 C   0  0  0  0  0  0  0  0  0  0  0  0
  -12.2919   30.0727    9.0222 C   0  0  0  0  0  0  0  0  0  0  0  0
  -13.5627   30.2703    8.7077 N   0  0  0  0  0  0  0  0  0  0  0  0
  -11.2561   30.5826    8.1587 N   0  0  0  0  0  0  0  0  0  0  0  0
  -15.8816   29.8165    8.8688 N   0  0  0  0  0  0  0  0  0  0  0  0
  -11.6523   31.0664    6.8332 C   0  0  0  0  0  0  0  0  0  0  0  0
  -12.9937   31.3274    6.6847 C   0  0  0  0  0  0  0  0  0  0  0  0
  -13.4471   31.8160    5.4357 C   0  0  0  0  0  0  0  0  0  0  0  0
  -12.5210   31.9846    4.4898 C   0  0  0  0  0  0  0  0  0  0  0  0
  -11.1300   31.7334    4.5965 C   0  0  0  0  0  0  0  0  0  0  0  0
  -10.7608   31.2501    5.8628 C   0  0  0  0  0  0  0  0  0  0  0  0
  -16.5324   30.2999    7.7315 C   0  0  2  0  0  0  0  0  0  0  0  0
  -18.0308   30.5409    8.2735 C   0  0  0  0  0  0  0  0  0  0  0  0
  -18.6547   29.2336    8.6063 C   0  0  0  0  0  0  0  0  0  0  0  0
  -18.3745   28.0481    7.7742 C   0  0  0  0  0  0  0  0  0  0  0  0
  -17.0360   28.0501    7.0440 C   0  0  0  0  0  0  0  0  0  0  0  0
  -16.8389   29.4602    6.5586 C   0  0  2  0  0  0  0  0  0  0  0  0
  -16.1202   29.6521    5.3536 N   0  0  0  0  0  4  0  0  0  0  0  0
  -16.0275   28.2859   12.2938 N   0  0  0  0  0  0  0  0  0  0  0  0
   -9.7058   29.8146    9.7168 O   0  0  0  0  0  0  0  0  0  0  0  0
  -10.2210   28.6933   11.6934 N   0  0  0  0  0  0  0  0  0  0  0  0
  1  4  2  0
  1  7  1  0
  8  1  1  0
  2  3  2  0
  9  2  1  0
  2 11  1  0
  4  3  1  0
  3  6  1  0
 14  5  1  0
  6 25  3  0
  7 26  2  0
  7 27  1  0
  8  9  2  0
 10  8  1  0
 12 10  1  0
 18 11  1  1
 13 12  2  0
 12 17  1  0
 13 14  1  0
 14 15  2  0
 15 16  1  0
 16 17  2  0
 18 19  1  0
 18 23  1  0
 19 20  1  0
 20 21  1  0
 21 22  1  0
 22 23  1  0
 23 24  1  6
M  CHG  1  24   1
M  END
$$$$
