
     RDKit          3D

 27 29  0  0  0  0  0  0  0  0999 V2000
  -12.1751   28.9212    9.8309 C   0  0  0  0  0  0  0  0  0  0  0  0
  -14.8230   29.4075    9.2165 C   0  0  0  0  0  0  0  0  0  0  0  0
  -14.4348   28.7884   10.3349 C   0  0  0  0  0  0  0  0  0  0  0  0
  -13.1396   28.4826   10.7420 C   0  0  0  0  0  0  0  0  0  0  0  0
   -9.8614   33.0283    4.3366 C   0  0  0  0  0  0  0  0  0  0  0  0
  -15.4029   28.7262   11.4095 C   0  0  0  0  0  0  0  0  0  0  0  0
  -10.6861   28.9092   10.1535 C   0  0  0  0  0  0  0  0  0  0  0  0
  -12.4866   29.5655    8.6840 C   0  0  0  0  0  0  0  0  0  0  0  0
  -13.7494   29.8107    8.3709 N   0  0  0  0  0  0  0  0  0  0  0  0
  -11.4477   29.8383    7.7223 N   0  0  0  0  0  0  0  0  0  0  0  0
  -16.0886   29.5805    8.6615 N   0  0  0  0  0  0  0  0  0  0  0  0
  -11.7814   30.7034    6.5873 C   0  0  0  0  0  0  0  0  0  0  0  0
  -10.7264   31.4132    6.0652 C   0  0  0  0  0  0  0  0  0  0  0  0
  -10.9702   32.2563    4.9543 C   0  0  0  0  0  0  0  0  0  0  0  0
  -12.2238   32.2945    4.4987 C   0  0  0  0  0  0  0  0  0  0  0  0
  -13.3411   31.5804    5.0001 C   0  0  0  0  0  0  0  0  0  0  0  0
  -13.0180   30.7695    6.1009 C   0  0  0  0  0  0  0  0  0  0  0  0
  -16.7498   30.1102    7.5511 C   0  0  2  0  0  0  0  0  0  0  0  0
  -18.2494   30.3043    8.1086 C   0  0  0  0  0  0  0  0  0  0  0  0
  -18.8547   28.9741    8.3790 C   0  0  0  0  0  0  0  0  0  0  0  0
  -18.5618   27.8344    7.4891 C   0  0  0  0  0  0  0  0  0  0  0  0
  -17.2261   27.8901    6.7559 C   0  0  0  0  0  0  0  0  0  0  0  0
  -17.0494   29.3247    6.3394 C   0  0  2  0  0  0  0  0  0  0  0  0
  -16.3376   29.5849    5.1432 N   0  0  0  0  0  4  0  0  0  0  0  0
  -16.2124   28.6950   12.3106 N   0  0  0  0  0  0  0  0  0  0  0  0
   -9.9263   29.4551    9.4633 O   0  0  0  0  0  0  0  0  0  0  0  0
  -10.3990   28.1706   11.3491 N   0  0  0  0  0  0  0  0  0  0  0  0
  1  4  2  0
  1  7  1  0
  8  1  1  0
  2  3  2  0
  9  2  1  0
  2 11  1  0
  4  3  1  0
  3  6  1  0
 14  5  1  0
  6 25  3  0
  7 26  2  0
  7 27  1  0
  8  9  2  0
 10  8  1  0
 12 10  1  0
 18 11  1  1
 13 12  2  0
 12 17  1  0
 13 14  1  0
 14 15  2  0
 15 16  1  0
 16 17  2  0
 18 19  1  0
 18 23  1  0
 19 20  1  0
 20 21  1  0
 21 22  1  0
 22 23  1  0
 23 24  1  6
M  CHG  1  24   1
M  END
$$$$
