
     RDKit          3D

 27 29  0  0  0  0  0  0  0  0999 V2000
  -11.9672   29.1590    9.7092 C   0  0  0  0  0  0  0  0  0  0  0  0
  -14.6310   29.4809    9.0567 C   0  0  0  0  0  0  0  0  0  0  0  0
  -14.2214   28.9373   10.2064 C   0  0  0  0  0  0  0  0  0  0  0  0
  -12.9159   28.7174   10.6353 C   0  0  0  0  0  0  0  0  0  0  0  0
   -9.6944   33.1812    4.1559 C   0  0  0  0  0  0  0  0  0  0  0  0
  -15.1939   28.8788   11.2772 C   0  0  0  0  0  0  0  0  0  0  0  0
  -10.4821   29.2378   10.0406 C   0  0  0  0  0  0  0  0  0  0  0  0
  -12.3012   29.7302    8.5304 C   0  0  0  0  0  0  0  0  0  0  0  0
  -13.5721   29.8960    8.1985 N   0  0  0  0  0  0  0  0  0  0  0  0
  -11.2695   30.0079    7.5624 N   0  0  0  0  0  0  0  0  0  0  0  0
  -15.8992   29.5627    8.4868 N   0  0  0  0  0  0  0  0  0  0  0  0
  -11.6102   30.8824    6.4368 C   0  0  0  0  0  0  0  0  0  0  0  0
  -10.5534   31.5756    5.8962 C   0  0  0  0  0  0  0  0  0  0  0  0
  -10.8042   32.4265    4.7929 C   0  0  0  0  0  0  0  0  0  0  0  0
  -12.0657   32.4880    4.3621 C   0  0  0  0  0  0  0  0  0  0  0  0
  -13.1851   31.7916    4.8832 C   0  0  0  0  0  0  0  0  0  0  0  0
  -12.8547   30.9716    5.9749 C   0  0  0  0  0  0  0  0  0  0  0  0
  -16.5799   30.0228    7.3574 C   0  0  2  0  0  0  0  0  0  0  0  0
  -18.0352   30.3714    7.9557 C   0  0  0  0  0  0  0  0  0  0  0  0
  -18.7083   29.1181    8.3862 C   0  0  0  0  0  0  0  0  0  0  0  0
  -18.5313   27.8788    7.6057 C   0  0  0  0  0  0  0  0  0  0  0  0
  -17.2325   27.7718    6.8142 C   0  0  0  0  0  0  0  0  0  0  0  0
  -16.9874   29.1430    6.2462 C   0  0  2  0  0  0  0  0  0  0  0  0
  -16.3206   29.2349    5.0003 N   0  0  0  0  0  4  0  0  0  0  0  0
  -16.0105   28.8093   12.1697 N   0  0  0  0  0  0  0  0  0  0  0  0
   -9.7506   29.8166    9.3467 O   0  0  0  0  0  0  0  0  0  0  0  0
  -10.1608   28.5345   11.2487 N   0  0  0  0  0  0  0  0  0  0  0  0
  1  4  2  0
  1  7  1  0
  8  1  1  0
  2  3  2  0
  9  2  1  0
  2 11  1  0
  4  3  1  0
  3  6  1  0
 14  5  1  0
  6 25  3  0
  7 26  2  0
  7 27  1  0
  8  9  2  0
 10  8  1  0
 12 10  1  0
 18 11  1  1
 13 12  2  0
 12 17  1  0
 13 14  1  0
 14 15  2  0
 15 16  1  0
 16 17  2  0
 18 19  1  0
 18 23  1  0
 19 20  1  0
 20 21  1  0
 21 22  1  0
 22 23  1  0
 23 24  1  6
M  CHG  1  24   1
M  END
$$$$
