
     RDKit          3D

 27 29  0  0  0  0  0  0  0  0999 V2000
  -11.8069   29.0643    9.9053 C   0  0  0  0  0  0  0  0  0  0  0  0
  -14.4771   29.4391    9.3096 C   0  0  0  0  0  0  0  0  0  0  0  0
  -14.0562   28.7615   10.3813 C   0  0  0  0  0  0  0  0  0  0  0  0
  -12.7464   28.5026   10.7739 C   0  0  0  0  0  0  0  0  0  0  0  0
  -14.8197   32.1895    5.3295 C   0  0  0  0  0  0  0  0  0  0  0  0
  -15.0221   28.5618   11.4411 C   0  0  0  0  0  0  0  0  0  0  0  0
  -10.3207   29.1156   10.2371 C   0  0  0  0  0  0  0  0  0  0  0  0
  -12.1525   29.7736    8.8076 C   0  0  0  0  0  0  0  0  0  0  0  0
  -13.4268   29.9671    8.5045 N   0  0  0  0  0  0  0  0  0  0  0  0
  -11.1289   30.1786    7.8767 N   0  0  0  0  0  0  0  0  0  0  0  0
  -15.7491   29.5787    8.7598 N   0  0  0  0  0  0  0  0  0  0  0  0
  -11.5518   30.8909    6.6678 C   0  0  0  0  0  0  0  0  0  0  0  0
  -12.8983   31.1553    6.5877 C   0  0  0  0  0  0  0  0  0  0  0  0
  -13.3772   31.8575    5.4556 C   0  0  0  0  0  0  0  0  0  0  0  0
  -12.4684   32.2098    4.5442 C   0  0  0  0  0  0  0  0  0  0  0  0
  -11.0730   31.9635    4.5842 C   0  0  0  0  0  0  0  0  0  0  0  0
  -10.6781   31.2620    5.7356 C   0  0  0  0  0  0  0  0  0  0  0  0
  -16.4277   30.0839    7.6486 C   0  0  2  0  0  0  0  0  0  0  0  0
  -17.9451   30.1665    8.1851 C   0  0  0  0  0  0  0  0  0  0  0  0
  -18.4636   28.7938    8.4217 C   0  0  0  0  0  0  0  0  0  0  0  0
  -18.0815   27.6935    7.5163 C   0  0  0  0  0  0  0  0  0  0  0  0
  -16.7417   27.8525    6.8059 C   0  0  0  0  0  0  0  0  0  0  0  0
  -16.6557   29.3034    6.4182 C   0  0  2  0  0  0  0  0  0  0  0  0
  -15.9452   29.6333    5.2386 N   0  0  0  0  0  4  0  0  0  0  0  0
  -15.8461   28.3989   12.3144 N   0  0  0  0  0  0  0  0  0  0  0  0
   -9.5725   29.6459    9.5226 O   0  0  0  0  0  0  0  0  0  0  0  0
  -10.0207   28.4525   11.4731 N   0  0  0  0  0  0  0  0  0  0  0  0
  1  4  2  0
  1  7  1  0
  8  1  1  0
  2  3  2  0
  9  2  1  0
  2 11  1  0
  4  3  1  0
  3  6  1  0
 14  5  1  0
  6 25  3  0
  7 26  2  0
  7 27  1  0
  8  9  2  0
 10  8  1  0
 12 10  1  0
 18 11  1  1
 13 12  2  0
 12 17  1  0
 13 14  1  0
 14 15  2  0
 15 16  1  0
 16 17  2  0
 18 19  1  0
 18 23  1  0
 19 20  1  0
 20 21  1  0
 21 22  1  0
 22 23  1  0
 23 24  1  6
M  CHG  1  24   1
M  END
$$$$
