
     RDKit          3D

 27 29  0  0  0  0  0  0  0  0999 V2000
  -12.0617   29.1160    9.6639 C   0  0  0  0  0  0  0  0  0  0  0  0
  -14.7096   29.4622    8.9609 C   0  0  0  0  0  0  0  0  0  0  0  0
  -14.3220   28.7270   10.0069 C   0  0  0  0  0  0  0  0  0  0  0  0
  -13.0259   28.4758   10.4470 C   0  0  0  0  0  0  0  0  0  0  0  0
   -9.8594   32.5745    3.6002 C   0  0  0  0  0  0  0  0  0  0  0  0
  -15.3319   28.4349   11.0023 C   0  0  0  0  0  0  0  0  0  0  0  0
  -10.5953   29.1826   10.0721 C   0  0  0  0  0  0  0  0  0  0  0  0
  -12.3739   29.8864    8.5979 C   0  0  0  0  0  0  0  0  0  0  0  0
  -13.6369   30.0674    8.2445 N   0  0  0  0  0  0  0  0  0  0  0  0
  -11.3183   30.3764    7.7469 N   0  0  0  0  0  0  0  0  0  0  0  0
  -15.9571   29.6056    8.3584 N   0  0  0  0  0  0  0  0  0  0  0  0
  -11.6991   30.9581    6.4568 C   0  0  0  0  0  0  0  0  0  0  0  0
  -10.6587   31.4682    5.7172 C   0  0  0  0  0  0  0  0  0  0  0  0
  -10.9490   32.0299    4.4506 C   0  0  0  0  0  0  0  0  0  0  0  0
  -12.2289   32.0194    4.0730 C   0  0  0  0  0  0  0  0  0  0  0  0
  -13.3328   31.5033    4.7971 C   0  0  0  0  0  0  0  0  0  0  0  0
  -12.9631   30.9664    6.0415 C   0  0  0  0  0  0  0  0  0  0  0  0
  -16.5753   29.9851    7.1649 C   0  0  2  0  0  0  0  0  0  0  0  0
  -17.8226   30.8595    7.6909 C   0  0  0  0  0  0  0  0  0  0  0  0
  -18.7779   29.9783    8.4120 C   0  0  0  0  0  0  0  0  0  0  0  0
  -19.0157   28.6018    7.9374 C   0  0  0  0  0  0  0  0  0  0  0  0
  -17.8673   27.9557    7.1703 C   0  0  0  0  0  0  0  0  0  0  0  0
  -17.3007   29.0403    6.2954 C   0  0  2  0  0  0  0  0  0  0  0  0
  -16.7401   28.6630    5.0509 N   0  0  0  0  0  4  0  0  0  0  0  0
  -16.1895   28.2050   11.8268 N   0  0  0  0  0  0  0  0  0  0  0  0
   -9.8123   29.6987    9.3849 O   0  0  0  0  0  0  0  0  0  0  0  0
  -10.3585   28.5518   11.3383 N   0  0  0  0  0  0  0  0  0  0  0  0
  1  4  2  0
  1  7  1  0
  8  1  1  0
  2  3  2  0
  9  2  1  0
  2 11  1  0
  4  3  1  0
  3  6  1  0
 14  5  1  0
  6 25  3  0
  7 26  2  0
  7 27  1  0
  8  9  2  0
 10  8  1  0
 12 10  1  0
 18 11  1  1
 13 12  2  0
 12 17  1  0
 13 14  1  0
 14 15  2  0
 15 16  1  0
 16 17  2  0
 18 19  1  0
 18 23  1  0
 19 20  1  0
 20 21  1  0
 21 22  1  0
 22 23  1  0
 23 24  1  6
M  CHG  1  24   1
M  END
$$$$
