
     RDKit          3D

 27 29  0  0  0  0  0  0  0  0999 V2000
  -11.8007   29.0745    9.8445 C   0  0  0  0  0  0  0  0  0  0  0  0
  -14.3946   29.3405    8.9356 C   0  0  0  0  0  0  0  0  0  0  0  0
  -14.0810   28.7233   10.0782 C   0  0  0  0  0  0  0  0  0  0  0  0
  -12.8181   28.5222   10.6272 C   0  0  0  0  0  0  0  0  0  0  0  0
  -14.2655   32.4276    5.0853 C   0  0  0  0  0  0  0  0  0  0  0  0
  -15.1557   28.5401   11.0308 C   0  0  0  0  0  0  0  0  0  0  0  0
  -10.3637   29.1859   10.3386 C   0  0  0  0  0  0  0  0  0  0  0  0
  -12.0374   29.7245    8.6831 C   0  0  0  0  0  0  0  0  0  0  0  0
  -13.2735   29.8653    8.2300 N   0  0  0  0  0  0  0  0  0  0  0  0
  -10.9253   30.1201    7.8554 N   0  0  0  0  0  0  0  0  0  0  0  0
  -15.5990   29.4169    8.2404 N   0  0  0  0  0  0  0  0  0  0  0  0
  -11.2251   30.8042    6.5944 C   0  0  0  0  0  0  0  0  0  0  0  0
  -12.5235   31.2346    6.4589 C   0  0  0  0  0  0  0  0  0  0  0  0
  -12.8818   31.9207    5.2735 C   0  0  0  0  0  0  0  0  0  0  0  0
  -11.9151   32.0951    4.3703 C   0  0  0  0  0  0  0  0  0  0  0  0
  -10.5650   31.6738    4.4663 C   0  0  0  0  0  0  0  0  0  0  0  0
  -10.2903   31.0005    5.6683 C   0  0  0  0  0  0  0  0  0  0  0  0
  -16.3574   30.2598    7.4250 C   0  0  2  0  0  0  0  0  0  0  0  0
  -17.8287   30.1218    8.0679 C   0  0  0  0  0  0  0  0  0  0  0  0
  -18.3364   28.7413    7.8544 C   0  0  0  0  0  0  0  0  0  0  0  0
  -18.0318   28.0280    6.5995 C   0  0  0  0  0  0  0  0  0  0  0  0
  -16.7493   28.4489    5.8903 C   0  0  0  0  0  0  0  0  0  0  0  0
  -16.6839   29.9461    6.0215 C   0  0  2  0  0  0  0  0  0  0  0  0
  -16.0637   30.6763    4.9787 N   0  0  0  0  0  4  0  0  0  0  0  0
  -16.0568   28.4077   11.8299 N   0  0  0  0  0  0  0  0  0  0  0  0
   -9.5692   29.7693    9.7221 O   0  0  0  0  0  0  0  0  0  0  0  0
  -10.1676   28.5049   11.5856 N   0  0  0  0  0  0  0  0  0  0  0  0
  1  4  2  0
  1  7  1  0
  8  1  1  0
  2  3  2  0
  9  2  1  0
  2 11  1  0
  4  3  1  0
  3  6  1  0
 14  5  1  0
  6 25  3  0
  7 26  2  0
  7 27  1  0
  8  9  2  0
 10  8  1  0
 12 10  1  0
 18 11  1  1
 13 12  2  0
 12 17  1  0
 13 14  1  0
 14 15  2  0
 15 16  1  0
 16 17  2  0
 18 19  1  0
 18 23  1  0
 19 20  1  0
 20 21  1  0
 21 22  1  0
 22 23  1  0
 23 24  1  6
M  CHG  1  24   1
M  END
$$$$
