
     RDKit          3D

 27 29  0  0  0  0  0  0  0  0999 V2000
  -12.0624   28.9240    9.8915 C   0  0  0  0  0  0  0  0  0  0  0  0
  -14.6934   29.4373    9.2285 C   0  0  0  0  0  0  0  0  0  0  0  0
  -14.3298   28.8496   10.3719 C   0  0  0  0  0  0  0  0  0  0  0  0
  -13.0454   28.5343   10.8049 C   0  0  0  0  0  0  0  0  0  0  0  0
   -9.5705   33.2209    4.7326 C   0  0  0  0  0  0  0  0  0  0  0  0
  -15.3114   28.8415   11.4359 C   0  0  0  0  0  0  0  0  0  0  0  0
  -10.5777   28.8959   10.2327 C   0  0  0  0  0  0  0  0  0  0  0  0
  -12.3484   29.5346    8.7198 C   0  0  0  0  0  0  0  0  0  0  0  0
  -13.6027   29.7920    8.3831 N   0  0  0  0  0  0  0  0  0  0  0  0
  -11.2935   29.7557    7.7622 N   0  0  0  0  0  0  0  0  0  0  0  0
  -15.9490   29.6144    8.6525 N   0  0  0  0  0  0  0  0  0  0  0  0
  -11.5648   30.6708    6.6501 C   0  0  0  0  0  0  0  0  0  0  0  0
  -10.5057   31.4625    6.2747 C   0  0  0  0  0  0  0  0  0  0  0  0
  -10.6888   32.3587    5.1942 C   0  0  0  0  0  0  0  0  0  0  0  0
  -11.8936   32.3625    4.6205 C   0  0  0  0  0  0  0  0  0  0  0  0
  -13.0124   31.5647    4.9690 C   0  0  0  0  0  0  0  0  0  0  0  0
  -12.7513   30.7052    6.0491 C   0  0  0  0  0  0  0  0  0  0  0  0
  -16.5894   30.1420    7.5290 C   0  0  2  0  0  0  0  0  0  0  0  0
  -18.0898   30.3733    8.0699 C   0  0  0  0  0  0  0  0  0  0  0  0
  -18.7239   29.0590    8.3522 C   0  0  0  0  0  0  0  0  0  0  0  0
  -18.4457   27.9019    7.4803 C   0  0  0  0  0  0  0  0  0  0  0  0
  -17.1025   27.9213    6.7590 C   0  0  0  0  0  0  0  0  0  0  0  0
  -16.8936   29.3464    6.3251 C   0  0  2  0  0  0  0  0  0  0  0  0
  -16.1660   29.5763    5.1322 N   0  0  0  0  0  4  0  0  0  0  0  0
  -16.1183   28.8415   12.3399 N   0  0  0  0  0  0  0  0  0  0  0  0
   -9.8039   29.4366    9.5540 O   0  0  0  0  0  0  0  0  0  0  0  0
  -10.3131   28.1502   11.4290 N   0  0  0  0  0  0  0  0  0  0  0  0
  1  4  2  0
  1  7  1  0
  8  1  1  0
  2  3  2  0
  9  2  1  0
  2 11  1  0
  4  3  1  0
  3  6  1  0
 14  5  1  0
  6 25  3  0
  7 26  2  0
  7 27  1  0
  8  9  2  0
 10  8  1  0
 12 10  1  0
 18 11  1  1
 13 12  2  0
 12 17  1  0
 13 14  1  0
 14 15  2  0
 15 16  1  0
 16 17  2  0
 18 19  1  0
 18 23  1  0
 19 20  1  0
 20 21  1  0
 21 22  1  0
 22 23  1  0
 23 24  1  6
M  CHG  1  24   1
M  END
$$$$
