
     RDKit          3D

 27 29  0  0  0  0  0  0  0  0999 V2000
  -12.0252   29.4315   10.2636 C   0  0  0  0  0  0  0  0  0  0  0  0
  -14.6802   29.7597    9.5789 C   0  0  0  0  0  0  0  0  0  0  0  0
  -14.2832   29.0806   10.6587 C   0  0  0  0  0  0  0  0  0  0  0  0
  -12.9829   28.8436   11.0942 C   0  0  0  0  0  0  0  0  0  0  0  0
  -14.9371   32.4734    5.5619 C   0  0  0  0  0  0  0  0  0  0  0  0
  -15.2810   28.8525   11.6826 C   0  0  0  0  0  0  0  0  0  0  0  0
  -10.5527   29.5086   10.6471 C   0  0  0  0  0  0  0  0  0  0  0  0
  -12.3468   30.1440    9.1607 C   0  0  0  0  0  0  0  0  0  0  0  0
  -13.6133   30.3154    8.8152 N   0  0  0  0  0  0  0  0  0  0  0  0
  -11.2998   30.5773    8.2693 N   0  0  0  0  0  0  0  0  0  0  0  0
  -15.9350   29.8796    8.9866 N   0  0  0  0  0  0  0  0  0  0  0  0
  -11.6974   31.2377    7.0228 C   0  0  0  0  0  0  0  0  0  0  0  0
  -13.0421   31.4961    6.9030 C   0  0  0  0  0  0  0  0  0  0  0  0
  -13.4973   32.1495    5.7325 C   0  0  0  0  0  0  0  0  0  0  0  0
  -12.5695   32.4648    4.8267 C   0  0  0  0  0  0  0  0  0  0  0  0
  -11.1751   32.2228    4.9068 C   0  0  0  0  0  0  0  0  0  0  0  0
  -10.8043   31.5709    6.0947 C   0  0  0  0  0  0  0  0  0  0  0  0
  -16.5957   30.4426    7.8924 C   0  0  2  0  0  0  0  0  0  0  0  0
  -18.0790   30.6803    8.4761 C   0  0  0  0  0  0  0  0  0  0  0  0
  -18.7238   29.3680    8.7428 C   0  0  0  0  0  0  0  0  0  0  0  0
  -18.4831   28.2289    7.8368 C   0  0  0  0  0  0  0  0  0  0  0  0
  -17.1581   28.2481    7.0826 C   0  0  0  0  0  0  0  0  0  0  0  0
  -16.9405   29.6805    6.6779 C   0  0  2  0  0  0  0  0  0  0  0  0
  -16.2395   29.9296    5.4729 N   0  0  0  0  0  4  0  0  0  0  0  0
  -16.1061   28.6753   12.5521 N   0  0  0  0  0  0  0  0  0  0  0  0
   -9.7900   30.0556    9.9610 O   0  0  0  0  0  0  0  0  0  0  0  0
  -10.2836   28.8460   11.8905 N   0  0  0  0  0  0  0  0  0  0  0  0
  1  4  2  0
  1  7  1  0
  8  1  1  0
  2  3  2  0
  9  2  1  0
  2 11  1  0
  4  3  1  0
  3  6  1  0
 14  5  1  0
  6 25  3  0
  7 26  2  0
  7 27  1  0
  8  9  2  0
 10  8  1  0
 12 10  1  0
 18 11  1  1
 13 12  2  0
 12 17  1  0
 13 14  1  0
 14 15  2  0
 15 16  1  0
 16 17  2  0
 18 19  1  0
 18 23  1  0
 19 20  1  0
 20 21  1  0
 21 22  1  0
 22 23  1  0
 23 24  1  6
M  CHG  1  24   1
M  END
$$$$
