
     RDKit          3D

 27 29  0  0  0  0  0  0  0  0999 V2000
  -12.1465   29.2603    9.9510 C   0  0  0  0  0  0  0  0  0  0  0  0
  -14.7727   29.6180    9.1762 C   0  0  0  0  0  0  0  0  0  0  0  0
  -14.4171   28.8830   10.2336 C   0  0  0  0  0  0  0  0  0  0  0  0
  -13.1346   28.6263   10.7090 C   0  0  0  0  0  0  0  0  0  0  0  0
  -14.6134   33.0399    5.3894 C   0  0  0  0  0  0  0  0  0  0  0  0
  -15.4548   28.5978   11.2019 C   0  0  0  0  0  0  0  0  0  0  0  0
  -10.6913   29.3205   10.3985 C   0  0  0  0  0  0  0  0  0  0  0  0
  -12.4260   30.0301    8.8755 C   0  0  0  0  0  0  0  0  0  0  0  0
  -13.6781   30.2166    8.4879 N   0  0  0  0  0  0  0  0  0  0  0  0
  -11.3454   30.5133    8.0524 N   0  0  0  0  0  0  0  0  0  0  0  0
  -16.0028   29.7663    8.5400 N   0  0  0  0  0  0  0  0  0  0  0  0
  -11.6895   31.1069    6.7574 C   0  0  0  0  0  0  0  0  0  0  0  0
  -12.9161   31.7254    6.7068 C   0  0  0  0  0  0  0  0  0  0  0  0
  -13.3082   32.3379    5.4922 C   0  0  0  0  0  0  0  0  0  0  0  0
  -12.4421   32.2626    4.4798 C   0  0  0  0  0  0  0  0  0  0  0  0
  -11.1682   31.6408    4.4850 C   0  0  0  0  0  0  0  0  0  0  0  0
  -10.8542   31.0560    5.7231 C   0  0  0  0  0  0  0  0  0  0  0  0
  -16.6145   30.3581    7.4326 C   0  0  2  0  0  0  0  0  0  0  0  0
  -18.1602   30.4110    7.8855 C   0  0  0  0  0  0  0  0  0  0  0  0
  -18.6952   29.0281    7.9880 C   0  0  0  0  0  0  0  0  0  0  0  0
  -18.2641   27.9960    7.0260 C   0  0  0  0  0  0  0  0  0  0  0  0
  -16.8850   28.1983    6.4079 C   0  0  0  0  0  0  0  0  0  0  0  0
  -16.7728   29.6736    6.1360 C   0  0  2  0  0  0  0  0  0  0  0  0
  -15.9943   30.0859    5.0274 N   0  0  0  0  0  4  0  0  0  0  0  0
  -16.3305   28.3787   12.0102 N   0  0  0  0  0  0  0  0  0  0  0  0
   -9.9131   29.9431    9.7998 O   0  0  0  0  0  0  0  0  0  0  0  0
  -10.4578   28.5430   11.5810 N   0  0  0  0  0  0  0  0  0  0  0  0
  1  4  2  0
  1  7  1  0
  8  1  1  0
  2  3  2  0
  9  2  1  0
  2 11  1  0
  4  3  1  0
  3  6  1  0
 14  5  1  0
  6 25  3  0
  7 26  2  0
  7 27  1  0
  8  9  2  0
 10  8  1  0
 12 10  1  0
 18 11  1  1
 13 12  2  0
 12 17  1  0
 13 14  1  0
 14 15  2  0
 15 16  1  0
 16 17  2  0
 18 19  1  0
 18 23  1  0
 19 20  1  0
 20 21  1  0
 21 22  1  0
 22 23  1  0
 23 24  1  6
M  CHG  1  24   1
M  END
$$$$
