
     RDKit          3D

 27 29  0  0  0  0  0  0  0  0999 V2000
  -11.9508   29.0740   10.1234 C   0  0  0  0  0  0  0  0  0  0  0  0
  -14.6017   29.4282    9.4362 C   0  0  0  0  0  0  0  0  0  0  0  0
  -14.2076   28.6522   10.4498 C   0  0  0  0  0  0  0  0  0  0  0  0
  -12.9093   28.3931   10.8785 C   0  0  0  0  0  0  0  0  0  0  0  0
  -14.6964   32.2734    5.3241 C   0  0  0  0  0  0  0  0  0  0  0  0
  -15.2145   28.3096   11.4320 C   0  0  0  0  0  0  0  0  0  0  0  0
  -10.4848   29.1351   10.5338 C   0  0  0  0  0  0  0  0  0  0  0  0
  -12.2698   29.8867    9.0913 C   0  0  0  0  0  0  0  0  0  0  0  0
  -13.5345   30.0722    8.7462 N   0  0  0  0  0  0  0  0  0  0  0  0
  -11.2187   30.4212    8.2618 N   0  0  0  0  0  0  0  0  0  0  0  0
  -15.8507   29.5870    8.8406 N   0  0  0  0  0  0  0  0  0  0  0  0
  -11.5823   30.8941    6.9231 C   0  0  0  0  0  0  0  0  0  0  0  0
  -12.8863   31.3062    6.7845 C   0  0  0  0  0  0  0  0  0  0  0  0
  -13.3045   31.7937    5.5229 C   0  0  0  0  0  0  0  0  0  0  0  0
  -12.3847   31.8125    4.5563 C   0  0  0  0  0  0  0  0  0  0  0  0
  -11.0311   31.4025    4.6519 C   0  0  0  0  0  0  0  0  0  0  0  0
  -10.6955   30.9309    5.9319 C   0  0  0  0  0  0  0  0  0  0  0  0
  -16.4877   30.1522    7.7336 C   0  0  2  0  0  0  0  0  0  0  0  0
  -18.0240   30.2087    8.2172 C   0  0  0  0  0  0  0  0  0  0  0  0
  -18.5506   28.8262    8.3606 C   0  0  0  0  0  0  0  0  0  0  0  0
  -18.1350   27.7753    7.4124 C   0  0  0  0  0  0  0  0  0  0  0  0
  -16.7698   27.9695    6.7617 C   0  0  0  0  0  0  0  0  0  0  0  0
  -16.6698   29.4390    6.4557 C   0  0  2  0  0  0  0  0  0  0  0  0
  -15.9161   29.8303    5.3225 N   0  0  0  0  0  4  0  0  0  0  0  0
  -16.0431   28.0256   12.2693 N   0  0  0  0  0  0  0  0  0  0  0  0
   -9.7120   29.7133    9.8855 O   0  0  0  0  0  0  0  0  0  0  0  0
  -10.2346   28.4172   11.7501 N   0  0  0  0  0  0  0  0  0  0  0  0
  1  4  2  0
  1  7  1  0
  8  1  1  0
  2  3  2  0
  9  2  1  0
  2 11  1  0
  4  3  1  0
  3  6  1  0
 14  5  1  0
  6 25  3  0
  7 26  2  0
  7 27  1  0
  8  9  2  0
 10  8  1  0
 12 10  1  0
 18 11  1  1
 13 12  2  0
 12 17  1  0
 13 14  1  0
 14 15  2  0
 15 16  1  0
 16 17  2  0
 18 19  1  0
 18 23  1  0
 19 20  1  0
 20 21  1  0
 21 22  1  0
 22 23  1  0
 23 24  1  6
M  CHG  1  24   1
M  END
$$$$
