
     RDKit          3D

 27 29  0  0  0  0  0  0  0  0999 V2000
  -12.1922   29.0898   10.0798 C   0  0  0  0  0  0  0  0  0  0  0  0
  -14.8180   29.6648    9.4476 C   0  0  0  0  0  0  0  0  0  0  0  0
  -14.4479   29.1331   10.6161 C   0  0  0  0  0  0  0  0  0  0  0  0
  -13.1657   28.7944   11.0378 C   0  0  0  0  0  0  0  0  0  0  0  0
  -14.3951   31.8250    4.5394 C   0  0  0  0  0  0  0  0  0  0  0  0
  -15.4018   29.2275   11.7010 C   0  0  0  0  0  0  0  0  0  0  0  0
  -10.7014   29.0241   10.3878 C   0  0  0  0  0  0  0  0  0  0  0  0
  -12.4847   29.6394    8.8800 C   0  0  0  0  0  0  0  0  0  0  0  0
  -13.7366   29.9250    8.5572 N   0  0  0  0  0  0  0  0  0  0  0  0
  -11.4469   29.7611    7.8866 N   0  0  0  0  0  0  0  0  0  0  0  0
  -16.0803   29.8559    8.8910 N   0  0  0  0  0  0  0  0  0  0  0  0
  -11.6140   30.7832    6.8496 C   0  0  0  0  0  0  0  0  0  0  0  0
  -12.8398   30.7879    6.2276 C   0  0  0  0  0  0  0  0  0  0  0  0
  -13.0799   31.7605    5.2273 C   0  0  0  0  0  0  0  0  0  0  0  0
  -12.0808   32.6054    4.9652 C   0  0  0  0  0  0  0  0  0  0  0  0
  -10.8043   32.6418    5.5806 C   0  0  0  0  0  0  0  0  0  0  0  0
  -10.6441   31.6461    6.5585 C   0  0  0  0  0  0  0  0  0  0  0  0
  -16.7276   30.3109    7.7401 C   0  0  2  0  0  0  0  0  0  0  0  0
  -18.2607   30.4070    8.2274 C   0  0  0  0  0  0  0  0  0  0  0  0
  -18.7799   29.0423    8.5052 C   0  0  0  0  0  0  0  0  0  0  0  0
  -18.3660   27.9078    7.6579 C   0  0  0  0  0  0  0  0  0  0  0  0
  -17.0063   28.0448    6.9817 C   0  0  0  0  0  0  0  0  0  0  0  0
  -16.9152   29.4790    6.5369 C   0  0  2  0  0  0  0  0  0  0  0  0
  -16.1712   29.7640    5.3662 N   0  0  0  0  0  4  0  0  0  0  0  0
  -16.1848   29.3134   12.6217 N   0  0  0  0  0  0  0  0  0  0  0  0
   -9.9273   29.5186    9.6751 O   0  0  0  0  0  0  0  0  0  0  0  0
  -10.4320   28.3071   11.6004 N   0  0  0  0  0  0  0  0  0  0  0  0
  1  4  2  0
  1  7  1  0
  8  1  1  0
  2  3  2  0
  9  2  1  0
  2 11  1  0
  4  3  1  0
  3  6  1  0
 14  5  1  0
  6 25  3  0
  7 26  2  0
  7 27  1  0
  8  9  2  0
 10  8  1  0
 12 10  1  0
 18 11  1  1
 13 12  2  0
 12 17  1  0
 13 14  1  0
 14 15  2  0
 15 16  1  0
 16 17  2  0
 18 19  1  0
 18 23  1  0
 19 20  1  0
 20 21  1  0
 21 22  1  0
 22 23  1  0
 23 24  1  6
M  CHG  1  24   1
M  END
$$$$
