
     RDKit          3D

 27 29  0  0  0  0  0  0  0  0999 V2000
  -11.9698   29.3153    9.8607 C   0  0  0  0  0  0  0  0  0  0  0  0
  -14.6081   29.7992    9.2049 C   0  0  0  0  0  0  0  0  0  0  0  0
  -14.2407   29.0189   10.2252 C   0  0  0  0  0  0  0  0  0  0  0  0
  -12.9517   28.6977   10.6399 C   0  0  0  0  0  0  0  0  0  0  0  0
  -10.7325   32.2438    3.3617 C   0  0  0  0  0  0  0  0  0  0  0  0
  -15.2498   28.7451   11.2266 C   0  0  0  0  0  0  0  0  0  0  0  0
  -10.4967   29.3046   10.2497 C   0  0  0  0  0  0  0  0  0  0  0  0
  -12.2605   30.1279    8.8203 C   0  0  0  0  0  0  0  0  0  0  0  0
  -13.5185   30.3752    8.4900 N   0  0  0  0  0  0  0  0  0  0  0  0
  -11.1949   30.5932    7.9679 N   0  0  0  0  0  0  0  0  0  0  0  0
  -15.8555   30.0151    8.6243 N   0  0  0  0  0  0  0  0  0  0  0  0
  -11.5116   31.6407    6.9930 C   0  0  0  0  0  0  0  0  0  0  0  0
  -10.9815   31.4500    5.7392 C   0  0  0  0  0  0  0  0  0  0  0  0
  -11.2612   32.4127    4.7398 C   0  0  0  0  0  0  0  0  0  0  0  0
  -12.0275   33.4433    5.1025 C   0  0  0  0  0  0  0  0  0  0  0  0
  -12.5984   33.6807    6.3781 C   0  0  0  0  0  0  0  0  0  0  0  0
  -12.2733   32.6836    7.3128 C   0  0  0  0  0  0  0  0  0  0  0  0
  -16.4964   30.7195    7.6027 C   0  0  2  0  0  0  0  0  0  0  0  0
  -18.0356   30.6845    8.0790 C   0  0  0  0  0  0  0  0  0  0  0  0
  -18.5407   29.2878    8.0245 C   0  0  0  0  0  0  0  0  0  0  0  0
  -18.1039   28.3859    6.9417 C   0  0  0  0  0  0  0  0  0  0  0  0
  -16.7390   28.6899    6.3338 C   0  0  0  0  0  0  0  0  0  0  0  0
  -16.6611   30.1890    6.2365 C   0  0  2  0  0  0  0  0  0  0  0  0
  -15.9086   30.7462    5.1742 N   0  0  0  0  0  4  0  0  0  0  0  0
  -16.0804   28.5209   12.0798 N   0  0  0  0  0  0  0  0  0  0  0  0
   -9.7022   29.8186    9.5742 O   0  0  0  0  0  0  0  0  0  0  0  0
  -10.2694   28.6094   11.4835 N   0  0  0  0  0  0  0  0  0  0  0  0
  1  4  2  0
  1  7  1  0
  8  1  1  0
  2  3  2  0
  9  2  1  0
  2 11  1  0
  4  3  1  0
  3  6  1  0
 14  5  1  0
  6 25  3  0
  7 26  2  0
  7 27  1  0
  8  9  2  0
 10  8  1  0
 12 10  1  0
 18 11  1  1
 13 12  2  0
 12 17  1  0
 13 14  1  0
 14 15  2  0
 15 16  1  0
 16 17  2  0
 18 19  1  0
 18 23  1  0
 19 20  1  0
 20 21  1  0
 21 22  1  0
 22 23  1  0
 23 24  1  6
M  CHG  1  24   1
M  END
$$$$
