
     RDKit          3D

 26 29  0  0  0  0  0  0  0  0999 V2000
   41.8413   18.1962    9.4694 C   0  0  0  0  0  0  0  0  0  0  0  0
   39.8463   18.4997   11.7164 C   0  0  0  0  0  0  0  0  0  0  0  0
   41.1789   17.2258   13.2577 C   0  0  0  0  0  0  0  0  0  0  0  0
   40.1186   17.1798   14.1381 C   0  0  0  0  0  0  0  0  0  0  0  0
   38.9183   17.7840   13.8319 C   0  0  0  0  0  0  0  0  0  0  0  0
   38.7983   18.4475   12.6025 C   0  0  0  0  0  0  0  0  0  0  0  0
   40.7032   15.9445    5.1015 C   0  0  0  0  0  0  0  0  0  0  0  0
   41.1044   15.9210    6.5377 C   0  0  0  0  0  0  0  0  0  0  0  0
   41.3512   14.8131    7.0206 O   0  0  0  0  0  0  0  0  0  0  0  0
   41.2060   17.0965    7.3284 N   0  0  0  0  0  0  0  0  0  0  0  0
   42.0441   17.0615    8.5104 C   0  0  1  0  0  0  0  0  0  0  0  0
   40.5615   18.8564    9.3694 N   0  0  0  0  0  0  0  0  0  0  0  0
   39.6878   19.1904   10.4529 C   0  0  0  0  0  0  0  0  0  0  0  0
   41.0515   17.8789   12.0553 C   0  0  0  0  0  0  0  0  0  0  0  0
   37.5274   19.0813   12.3281 C   0  0  0  0  0  0  0  0  0  0  0  0
   37.2180   19.7180   11.1509 O   0  0  0  0  0  0  0  0  0  0  0  0
   36.5912   19.0811   13.2020 O   0  0  0  0  0  0  0  0  0  0  0  0
   40.1569   19.1749    8.0161 C   0  0  0  0  0  0  0  0  0  0  0  0
   39.4429   20.3546    7.7983 C   0  0  0  0  0  0  0  0  0  0  0  0
   39.0686   20.6130    6.4931 C   0  0  0  0  0  0  0  0  0  0  0  0
   39.4047   19.7258    5.4937 C   0  0  0  0  0  0  0  0  0  0  0  0
   40.1166   18.5528    5.7269 C   0  0  0  0  0  0  0  0  0  0  0  0
   40.4905   18.2852    7.0160 C   0  0  0  0  0  0  0  0  0  0  0  0
   43.4815   17.0283    8.0191 C   0  0  2  0  0  0  0  0  0  0  0  0
   44.5588   16.7220    8.9465 C   0  0  0  0  0  0  0  0  0  0  0  0
   44.4266   18.0443    8.5084 C   0  0  0  0  0  0  0  0  0  0  0  0
 11  1  1  1
 12  1  1  0
  2  6  1  0
 13  2  1  0
  2 14  2  0
  3  4  2  0
 14  3  1  0
  5  4  1  0
  6  5  2  0
  6 15  1  0
  8  7  1  0
  8  9  2  0
 10  8  1  0
 11 10  1  0
 10 23  1  0
 11 24  1  0
 12 13  1  0
 12 18  1  0
 15 16  1  0
 15 17  2  0
 18 19  2  0
 18 23  1  0
 19 20  1  0
 20 21  2  0
 21 22  1  0
 22 23  2  0
 24 25  1  1
 24 26  1  0
 25 26  2  0
M  END
$$$$
