
     RDKit          3D

 26 29  0  0  0  0  0  0  0  0999 V2000
   40.3956   18.0267    8.6233 C   0  0  0  0  0  0  0  0  0  0  0  0
   40.0089   19.1111   11.4952 C   0  0  0  0  0  0  0  0  0  0  0  0
   39.2369   17.5451   13.2027 C   0  0  0  0  0  0  0  0  0  0  0  0
   37.9847   18.1245   13.2051 C   0  0  0  0  0  0  0  0  0  0  0  0
   37.7781   19.1783   12.3581 C   0  0  0  0  0  0  0  0  0  0  0  0
   38.7710   19.6965   11.4914 C   0  0  0  0  0  0  0  0  0  0  0  0
   41.3634   14.9471    6.4960 C   0  0  0  0  0  0  0  0  0  0  0  0
   42.0115   16.2580    6.2685 C   0  0  0  0  0  0  0  0  0  0  0  0
   42.6075   16.3526    5.1396 O   0  0  0  0  0  0  0  0  0  0  0  0
   42.0280   17.3507    7.1206 N   0  0  0  0  0  0  0  0  0  0  0  0
   40.9560   18.3533    7.2045 C   0  0  1  0  0  0  0  0  0  0  0  0
   41.3763   18.5623    9.5169 N   0  0  0  0  0  0  0  0  0  0  0  0
   41.1195   19.4706   10.5833 C   0  0  0  0  0  0  0  0  0  0  0  0
   40.2123   18.0247   12.3750 C   0  0  0  0  0  0  0  0  0  0  0  0
   38.4679   20.8666   10.7115 C   0  0  0  0  0  0  0  0  0  0  0  0
   37.2234   21.4988   10.9338 O   0  0  0  0  0  0  0  0  0  0  0  0
   39.1738   21.3907    9.8606 O   0  0  0  0  0  0  0  0  0  0  0  0
   42.7582   18.1442    9.2897 C   0  0  0  0  0  0  0  0  0  0  0  0
   43.7226   18.3474   10.2615 C   0  0  0  0  0  0  0  0  0  0  0  0
   45.0049   17.9288    9.9737 C   0  0  0  0  0  0  0  0  0  0  0  0
   45.3398   17.3332    8.7827 C   0  0  0  0  0  0  0  0  0  0  0  0
   44.3636   17.1387    7.8282 C   0  0  0  0  0  0  0  0  0  0  0  0
   43.0554   17.5471    8.0869 C   0  0  0  0  0  0  0  0  0  0  0  0
   39.9294   18.2815    6.1528 C   0  0  2  0  0  0  0  0  0  0  0  0
   38.6557   17.6017    6.5307 C   0  0  0  0  0  0  0  0  0  0  0  0
   39.5280   16.9823    5.6603 C   0  0  0  0  0  0  0  0  0  0  0  0
  1 11  1  0
  1 12  1  6
  2  6  1  0
 13  2  1  0
  2 14  2  0
  3  4  2  0
 14  3  1  0
  5  4  1  0
  6  5  2  0
  6 15  1  0
  7  8  1  6
  8  9  2  0
 10  8  1  0
 11 10  1  6
 10 23  1  0
 11 24  1  0
 13 12  1  6
 12 18  1  0
 15 16  1  0
 15 17  2  0
 18 19  2  0
 18 23  1  0
 19 20  1  0
 20 21  2  0
 21 22  1  0
 22 23  2  0
 24 25  1  1
 24 26  1  0
 25 26  2  0
M  END
$$$$
