
     RDKit          3D

 26 29  0  0  0  0  0  0  0  0999 V2000
   42.6663   17.9694    8.5726 C   0  0  0  0  0  0  0  0  0  0  0  0
   40.4614   18.8183   11.5063 C   0  0  0  0  0  0  0  0  0  0  0  0
   38.9412   17.1383   12.4176 C   0  0  0  0  0  0  0  0  0  0  0  0
   38.1776   18.1176   13.0190 C   0  0  0  0  0  0  0  0  0  0  0  0
   38.5746   19.4156   12.8512 C   0  0  0  0  0  0  0  0  0  0  0  0
   39.7133   19.7987   12.1017 C   0  0  0  0  0  0  0  0  0  0  0  0
   40.5161   16.6749    4.7086 C   0  0  0  0  0  0  0  0  0  0  0  0
   41.4649   16.4583    5.8234 C   0  0  0  0  0  0  0  0  0  0  0  0
   42.5773   15.9370    5.4635 O   0  0  0  0  0  0  0  0  0  0  0  0
   41.2769   16.7604    7.1627 N   0  0  0  0  0  0  0  0  0  0  0  0
   42.2677   16.5035    8.2181 C   0  0  1  0  0  0  0  0  0  0  0  0
   41.5516   18.4617    9.3226 N   0  0  0  0  0  0  0  0  0  0  0  0
   41.6187   19.0591   10.6136 C   0  0  0  0  0  0  0  0  0  0  0  0
   40.0440   17.4810   11.6875 C   0  0  0  0  0  0  0  0  0  0  0  0
   40.0873   21.1875   12.0701 C   0  0  0  0  0  0  0  0  0  0  0  0
   40.1696   21.8727   13.3036 O   0  0  0  0  0  0  0  0  0  0  0  0
   40.3479   21.8604   11.0821 O   0  0  0  0  0  0  0  0  0  0  0  0
   40.2364   18.3143    8.7024 C   0  0  0  0  0  0  0  0  0  0  0  0
   39.1483   19.0197    9.1865 C   0  0  0  0  0  0  0  0  0  0  0  0
   37.9393   18.8265    8.5514 C   0  0  0  0  0  0  0  0  0  0  0  0
   37.7914   17.9772    7.4827 C   0  0  0  0  0  0  0  0  0  0  0  0
   38.8886   17.2847    7.0150 C   0  0  0  0  0  0  0  0  0  0  0  0
   40.1274   17.4582    7.6316 C   0  0  0  0  0  0  0  0  0  0  0  0
   43.4194   15.6757    7.8261 C   0  0  2  0  0  0  0  0  0  0  0  0
   44.7637   16.2249    8.1699 C   0  0  0  0  0  0  0  0  0  0  0  0
   44.3531   16.1989    6.8536 C   0  0  0  0  0  0  0  0  0  0  0  0
  1 11  1  0
  1 12  1  6
  2  6  1  0
 13  2  1  0
  2 14  2  0
  3  4  2  0
 14  3  1  0
  5  4  1  0
  6  5  2  0
  6 15  1  0
  7  8  1  6
  8  9  2  0
 10  8  1  0
 11 10  1  6
 10 23  1  0
 11 24  1  0
 13 12  1  6
 12 18  1  0
 15 16  1  0
 15 17  2  0
 18 19  2  0
 18 23  1  0
 19 20  1  0
 20 21  2  0
 21 22  1  0
 22 23  2  0
 24 25  1  1
 24 26  1  0
 25 26  2  0
M  END
$$$$
