
     RDKit          3D

 26 29  0  0  0  0  0  0  0  0999 V2000
   41.7918   17.9548    8.9854 C   0  0  0  0  0  0  0  0  0  0  0  0
   40.1606   18.3035   11.4758 C   0  0  0  0  0  0  0  0  0  0  0  0
   40.7970   16.5376   12.9762 C   0  0  0  0  0  0  0  0  0  0  0  0
   41.0954   17.4693   13.9480 C   0  0  0  0  0  0  0  0  0  0  0  0
   40.9362   18.8172   13.7082 C   0  0  0  0  0  0  0  0  0  0  0  0
   40.4625   19.2213   12.4518 C   0  0  0  0  0  0  0  0  0  0  0  0
   39.9538   15.3431    5.1037 C   0  0  0  0  0  0  0  0  0  0  0  0
   40.9705   15.5612    6.1728 C   0  0  0  0  0  0  0  0  0  0  0  0
   41.7669   14.6400    6.3690 O   0  0  0  0  0  0  0  0  0  0  0  0
   41.0404   16.7564    6.9369 N   0  0  0  0  0  0  0  0  0  0  0  0
   42.0007   16.8264    8.0203 C   0  0  1  0  0  0  0  0  0  0  0  0
   40.4498   18.4855    9.0202 N   0  0  0  0  0  0  0  0  0  0  0  0
   39.6696   18.7544   10.1897 C   0  0  0  0  0  0  0  0  0  0  0  0
   40.3336   16.9437   11.7479 C   0  0  0  0  0  0  0  0  0  0  0  0
   40.3254   20.6450   12.2369 C   0  0  0  0  0  0  0  0  0  0  0  0
   41.0158   21.6037   12.9378 O   0  0  0  0  0  0  0  0  0  0  0  0
   39.5229   21.1010   11.3491 O   0  0  0  0  0  0  0  0  0  0  0  0
   39.8719   18.7363    7.7164 C   0  0  0  0  0  0  0  0  0  0  0  0
   39.0257   19.8366    7.5674 C   0  0  0  0  0  0  0  0  0  0  0  0
   38.4889   20.0317    6.3087 C   0  0  0  0  0  0  0  0  0  0  0  0
   38.8010   19.1617    5.2867 C   0  0  0  0  0  0  0  0  0  0  0  0
   39.6461   18.0681    5.4511 C   0  0  0  0  0  0  0  0  0  0  0  0
   40.1817   17.8636    6.6939 C   0  0  0  0  0  0  0  0  0  0  0  0
   43.3729   16.9231    7.3750 C   0  0  2  0  0  0  0  0  0  0  0  0
   44.5690   16.8598    8.1994 C   0  0  0  0  0  0  0  0  0  0  0  0
   44.2122   18.0986    7.6555 C   0  0  0  0  0  0  0  0  0  0  0  0
 11  1  1  6
 12  1  1  0
  2  6  1  0
 13  2  1  0
  2 14  2  0
  3  4  2  0
 14  3  1  0
  5  4  1  0
  6  5  2  0
  6 15  1  0
  8  7  1  0
  8  9  2  0
 10  8  1  0
 11 10  1  0
 10 23  1  0
 11 24  1  0
 12 13  1  0
 12 18  1  0
 15 16  1  0
 15 17  2  0
 18 19  2  0
 18 23  1  0
 19 20  1  0
 20 21  2  0
 21 22  1  0
 22 23  2  0
 24 25  1  1
 24 26  1  0
 25 26  2  0
M  END
$$$$
