
     RDKit          3D

 26 29  0  0  0  0  0  0  0  0999 V2000
   39.8892   18.4449    7.4800 C   0  0  0  0  0  0  0  0  0  0  0  0
   38.7656   21.0211    8.2614 C   0  0  0  0  0  0  0  0  0  0  0  0
   38.8281   22.1036    6.0732 C   0  0  0  0  0  0  0  0  0  0  0  0
   37.5827   22.6590    6.2833 C   0  0  0  0  0  0  0  0  0  0  0  0
   36.9627   22.3811    7.4703 C   0  0  0  0  0  0  0  0  0  0  0  0
   37.5275   21.5639    8.4796 C   0  0  0  0  0  0  0  0  0  0  0  0
   40.7984   14.8938    6.5237 C   0  0  0  0  0  0  0  0  0  0  0  0
   41.8078   15.6972    7.2488 C   0  0  0  0  0  0  0  0  0  0  0  0
   42.9412   15.1154    7.3736 O   0  0  0  0  0  0  0  0  0  0  0  0
   41.6538   16.9692    7.7768 N   0  0  0  0  0  0  0  0  0  0  0  0
   41.3405   18.1651    6.9811 C   0  0  1  0  0  0  0  0  0  0  0  0
   40.0706   18.9954    8.7883 N   0  0  0  0  0  0  0  0  0  0  0  0
   39.5306   20.2288    9.2520 C   0  0  0  0  0  0  0  0  0  0  0  0
   39.3963   21.3127    7.0315 C   0  0  0  0  0  0  0  0  0  0  0  0
   36.7444   21.2660    9.6490 C   0  0  0  0  0  0  0  0  0  0  0  0
   35.3800   21.6352    9.6363 O   0  0  0  0  0  0  0  0  0  0  0  0
   37.1266   20.7199   10.6749 O   0  0  0  0  0  0  0  0  0  0  0  0
   40.8993   18.2199    9.7092 C   0  0  0  0  0  0  0  0  0  0  0  0
   40.8865   18.4933   11.0660 C   0  0  0  0  0  0  0  0  0  0  0  0
   41.6969   17.7212   11.8718 C   0  0  0  0  0  0  0  0  0  0  0  0
   42.4930   16.7177   11.3773 C   0  0  0  0  0  0  0  0  0  0  0  0
   42.4901   16.4605   10.0223 C   0  0  0  0  0  0  0  0  0  0  0  0
   41.6802   17.2200    9.1783 C   0  0  0  0  0  0  0  0  0  0  0  0
   41.4226   18.0015    5.5211 C   0  0  2  0  0  0  0  0  0  0  0  0
   42.7986   17.9836    4.9437 C   0  0  0  0  0  0  0  0  0  0  0  0
   41.9833   19.0755    4.7314 C   0  0  0  0  0  0  0  0  0  0  0  0
  1 11  1  0
  1 12  1  6
  2  6  1  0
 13  2  1  0
  2 14  2  0
  3  4  2  0
 14  3  1  0
  5  4  1  0
  6  5  2  0
  6 15  1  0
  7  8  1  6
  8  9  2  0
 10  8  1  0
 11 10  1  1
 10 23  1  0
 11 24  1  0
 13 12  1  6
 12 18  1  0
 15 16  1  0
 15 17  2  0
 18 19  2  0
 18 23  1  0
 19 20  1  0
 20 21  2  0
 21 22  1  0
 22 23  2  0
 24 25  1  1
 24 26  1  0
 25 26  2  0
M  END
$$$$
