
     RDKit          3D

 26 29  0  0  0  0  0  0  0  0999 V2000
   42.3574   18.1814    8.9040 C   0  0  0  0  0  0  0  0  0  0  0  0
   40.2655   18.9894   11.4507 C   0  0  0  0  0  0  0  0  0  0  0  0
   40.2771   16.9352   12.7713 C   0  0  0  0  0  0  0  0  0  0  0  0
   39.2363   17.3986   13.5495 C   0  0  0  0  0  0  0  0  0  0  0  0
   38.7404   18.6402   13.2612 C   0  0  0  0  0  0  0  0  0  0  0  0
   39.2347   19.4614   12.2188 C   0  0  0  0  0  0  0  0  0  0  0  0
   42.6387   14.9451    6.0623 C   0  0  0  0  0  0  0  0  0  0  0  0
   41.9638   16.2570    6.1788 C   0  0  0  0  0  0  0  0  0  0  0  0
   41.9299   16.9215    5.0852 O   0  0  0  0  0  0  0  0  0  0  0  0
   41.3816   16.8094    7.3086 N   0  0  0  0  0  0  0  0  0  0  0  0
   41.9358   16.6985    8.6658 C   0  0  1  0  0  0  0  0  0  0  0  0
   41.1209   18.8614    9.1407 N   0  0  0  0  0  0  0  0  0  0  0  0
   40.8270   19.6813   10.2674 C   0  0  0  0  0  0  0  0  0  0  0  0
   40.7716   17.7068   11.7581 C   0  0  0  0  0  0  0  0  0  0  0  0
   38.6970   20.7870   12.0665 C   0  0  0  0  0  0  0  0  0  0  0  0
   38.6966   21.6289   13.2019 O   0  0  0  0  0  0  0  0  0  0  0  0
   38.2300   21.2828   11.0502 O   0  0  0  0  0  0  0  0  0  0  0  0
   40.0744   18.6724    8.1381 C   0  0  0  0  0  0  0  0  0  0  0  0
   38.9739   19.5113    8.1045 C   0  0  0  0  0  0  0  0  0  0  0  0
   38.0267   19.2691    7.1315 C   0  0  0  0  0  0  0  0  0  0  0  0
   38.1438   18.2471    6.2221 C   0  0  0  0  0  0  0  0  0  0  0  0
   39.2488   17.4234    6.2720 C   0  0  0  0  0  0  0  0  0  0  0  0
   40.2278   17.6413    7.2410 C   0  0  0  0  0  0  0  0  0  0  0  0
   43.0519   15.7530    8.8256 C   0  0  2  0  0  0  0  0  0  0  0  0
   43.9142   15.9595   10.0260 C   0  0  0  0  0  0  0  0  0  0  0  0
   44.4055   16.2596    8.7728 C   0  0  0  0  0  0  0  0  0  0  0  0
  1 11  1  0
  1 12  1  6
  2  6  1  0
 13  2  1  0
  2 14  2  0
  3  4  2  0
 14  3  1  0
  5  4  1  0
  6  5  2  0
  6 15  1  0
  7  8  1  6
  8  9  2  0
 10  8  1  0
 11 10  1  6
 10 23  1  0
 11 24  1  0
 13 12  1  6
 12 18  1  0
 15 16  1  0
 15 17  2  0
 18 19  2  0
 18 23  1  0
 19 20  1  0
 20 21  2  0
 21 22  1  0
 22 23  2  0
 24 25  1  1
 24 26  1  0
 25 26  2  0
M  END
$$$$
