
     RDKit          3D

 26 29  0  0  0  0  0  0  0  0999 V2000
   41.4397   17.5228    9.5386 C   0  0  0  0  0  0  0  0  0  0  0  0
   39.4993   19.6251   10.4204 C   0  0  0  0  0  0  0  0  0  0  0  0
   38.9777   18.9388   12.6636 C   0  0  0  0  0  0  0  0  0  0  0  0
   37.6346   19.1175   12.4071 C   0  0  0  0  0  0  0  0  0  0  0  0
   37.2016   19.5479   11.1714 C   0  0  0  0  0  0  0  0  0  0  0  0
   38.1588   19.8001   10.1783 C   0  0  0  0  0  0  0  0  0  0  0  0
   40.1736   15.7309    5.5042 C   0  0  0  0  0  0  0  0  0  0  0  0
   41.5079   15.8098    6.1658 C   0  0  0  0  0  0  0  0  0  0  0  0
   42.3680   15.0231    5.7624 O   0  0  0  0  0  0  0  0  0  0  0  0
   41.7988   16.7329    7.2053 N   0  0  0  0  0  0  0  0  0  0  0  0
   41.4196   16.3863    8.5606 C   0  0  1  0  0  0  0  0  0  0  0  0
   41.3315   18.8357    8.9485 N   0  0  0  0  0  0  0  0  0  0  0  0
   40.4618   19.8911    9.3710 C   0  0  0  0  0  0  0  0  0  0  0  0
   39.9081   19.1890   11.6836 C   0  0  0  0  0  0  0  0  0  0  0  0
   37.6627   20.2654    8.9017 C   0  0  0  0  0  0  0  0  0  0  0  0
   38.4580   20.5432    7.8167 O   0  0  0  0  0  0  0  0  0  0  0  0
   36.4096   20.4490    8.7115 O   0  0  0  0  0  0  0  0  0  0  0  0
   42.1954   19.0512    7.8066 C   0  0  0  0  0  0  0  0  0  0  0  0
   42.7477   20.3202    7.6238 C   0  0  0  0  0  0  0  0  0  0  0  0
   43.5575   20.4830    6.5156 C   0  0  0  0  0  0  0  0  0  0  0  0
   43.7797   19.4215    5.6654 C   0  0  0  0  0  0  0  0  0  0  0  0
   43.2211   18.1618    5.8608 C   0  0  0  0  0  0  0  0  0  0  0  0
   42.4154   17.9895    6.9537 C   0  0  0  0  0  0  0  0  0  0  0  0
   42.3656   15.2833    9.0046 C   0  0  2  0  0  0  0  0  0  0  0  0
   42.3224   14.7975   10.3745 C   0  0  0  0  0  0  0  0  0  0  0  0
   43.4088   15.5934    9.9947 C   0  0  0  0  0  0  0  0  0  0  0  0
 11  1  1  1
 12  1  1  0
  2  6  1  0
 13  2  1  0
  2 14  2  0
  3  4  2  0
 14  3  1  0
  5  4  1  0
  6  5  2  0
  6 15  1  0
  8  7  1  0
  8  9  2  0
 10  8  1  0
 11 10  1  0
 10 23  1  0
 11 24  1  0
 12 13  1  0
 12 18  1  0
 15 16  1  0
 15 17  2  0
 18 19  2  0
 18 23  1  0
 19 20  1  0
 20 21  2  0
 21 22  1  0
 22 23  2  0
 24 25  1  1
 24 26  1  0
 25 26  2  0
M  END
$$$$
