
     RDKit          3D

 26 29  0  0  0  0  0  0  0  0999 V2000
   39.9232   18.4263    7.3831 C   0  0  0  0  0  0  0  0  0  0  0  0
   38.6455   21.2251    9.0494 C   0  0  0  0  0  0  0  0  0  0  0  0
   37.3014   22.4059   10.6537 C   0  0  0  0  0  0  0  0  0  0  0  0
   36.2001   22.2656    9.8359 C   0  0  0  0  0  0  0  0  0  0  0  0
   36.2962   21.6130    8.6257 C   0  0  0  0  0  0  0  0  0  0  0  0
   37.5412   21.0931    8.2437 C   0  0  0  0  0  0  0  0  0  0  0  0
   43.3812   15.2110    9.0498 C   0  0  0  0  0  0  0  0  0  0  0  0
   43.0000   16.3894    8.2189 C   0  0  0  0  0  0  0  0  0  0  0  0
   43.8219   16.7547    7.3748 O   0  0  0  0  0  0  0  0  0  0  0  0
   41.7631   17.0707    8.3702 N   0  0  0  0  0  0  0  0  0  0  0  0
   41.0225   17.4277    7.1765 C   0  0  1  0  0  0  0  0  0  0  0  0
   40.0628   19.2506    8.5598 N   0  0  0  0  0  0  0  0  0  0  0  0
   39.9162   20.6729    8.6264 C   0  0  0  0  0  0  0  0  0  0  0  0
   38.5174   21.8931   10.2701 C   0  0  0  0  0  0  0  0  0  0  0  0
   37.6015   20.4301    6.9596 C   0  0  0  0  0  0  0  0  0  0  0  0
   36.6324   20.5292    5.9910 O   0  0  0  0  0  0  0  0  0  0  0  0
   38.5988   19.6892    6.6491 O   0  0  0  0  0  0  0  0  0  0  0  0
   40.4043   18.5218    9.7635 C   0  0  0  0  0  0  0  0  0  0  0  0
   39.8707   18.9597   10.9770 C   0  0  0  0  0  0  0  0  0  0  0  0
   40.2314   18.2406   12.1009 C   0  0  0  0  0  0  0  0  0  0  0  0
   41.0742   17.1569   11.9816 C   0  0  0  0  0  0  0  0  0  0  0  0
   41.5990   16.7328   10.7642 C   0  0  0  0  0  0  0  0  0  0  0  0
   41.2505   17.4389    9.6447 C   0  0  0  0  0  0  0  0  0  0  0  0
   40.4670   16.1319    6.6099 C   0  0  2  0  0  0  0  0  0  0  0  0
   40.6708   15.8064    5.2074 C   0  0  0  0  0  0  0  0  0  0  0  0
   39.3884   16.1942    5.6111 C   0  0  0  0  0  0  0  0  0  0  0  0
 11  1  1  1
 12  1  1  0
  2  6  1  0
 13  2  1  0
  2 14  2  0
  3  4  2  0
 14  3  1  0
  5  4  1  0
  6  5  2  0
  6 15  1  0
  8  7  1  0
  8  9  2  0
 10  8  1  0
 11 10  1  0
 10 23  1  0
 11 24  1  0
 12 13  1  0
 12 18  1  0
 15 16  1  0
 15 17  2  0
 18 19  2  0
 18 23  1  0
 19 20  1  0
 20 21  2  0
 21 22  1  0
 22 23  2  0
 24 25  1  6
 24 26  1  0
 25 26  2  0
M  END
$$$$
