
     RDKit          3D

 26 29  0  0  0  0  0  0  0  0999 V2000
   41.2801   18.9251    7.3510 C   0  0  0  0  0  0  0  0  0  0  0  0
   41.2241   19.2312   11.1667 C   0  0  0  0  0  0  0  0  0  0  0  0
   41.9151   17.8839   13.0327 C   0  0  0  0  0  0  0  0  0  0  0  0
   40.8667   18.3784   13.7794 C   0  0  0  0  0  0  0  0  0  0  0  0
   39.9885   19.2963   13.2447 C   0  0  0  0  0  0  0  0  0  0  0  0
   40.1846   19.7168   11.9215 C   0  0  0  0  0  0  0  0  0  0  0  0
   41.2395   13.9958    7.9895 C   0  0  0  0  0  0  0  0  0  0  0  0
   41.3844   15.1542    7.0614 C   0  0  0  0  0  0  0  0  0  0  0  0
   41.9265   14.9246    5.9775 O   0  0  0  0  0  0  0  0  0  0  0  0
   40.9299   16.4607    7.3834 N   0  0  0  0  0  0  0  0  0  0  0  0
   41.5586   17.5901    6.7276 C   0  0  1  0  0  0  0  0  0  0  0  0
   40.8795   18.8781    8.7370 N   0  0  0  0  0  0  0  0  0  0  0  0
   41.3961   19.6838    9.8014 C   0  0  0  0  0  0  0  0  0  0  0  0
   42.0990   18.3026   11.7367 C   0  0  0  0  0  0  0  0  0  0  0  0
   39.2500   20.6926   11.4051 C   0  0  0  0  0  0  0  0  0  0  0  0
   37.8840   20.5791   11.4947 O   0  0  0  0  0  0  0  0  0  0  0  0
   39.6645   21.7515   10.8160 O   0  0  0  0  0  0  0  0  0  0  0  0
   39.8650   17.8883    9.0331 C   0  0  0  0  0  0  0  0  0  0  0  0
   38.9081   18.1902   10.0036 C   0  0  0  0  0  0  0  0  0  0  0  0
   37.9655   17.2125   10.2609 C   0  0  0  0  0  0  0  0  0  0  0  0
   38.0073   16.0200    9.5716 C   0  0  0  0  0  0  0  0  0  0  0  0
   38.9687   15.7333    8.6069 C   0  0  0  0  0  0  0  0  0  0  0  0
   39.9087   16.6932    8.3455 C   0  0  0  0  0  0  0  0  0  0  0  0
   41.0880   17.5670    5.2831 C   0  0  2  0  0  0  0  0  0  0  0  0
   41.0496   18.7993    4.5122 C   0  0  0  0  0  0  0  0  0  0  0  0
   39.8329   18.2491    4.9304 C   0  0  0  0  0  0  0  0  0  0  0  0
 11  1  1  1
 12  1  1  0
  2  6  1  0
 13  2  1  0
  2 14  2  0
  3  4  2  0
 14  3  1  0
  5  4  1  0
  6  5  2  0
  6 15  1  0
  8  7  1  0
  8  9  2  0
 10  8  1  0
 11 10  1  0
 10 23  1  0
 11 24  1  0
 12 13  1  0
 12 18  1  0
 15 16  1  0
 15 17  2  0
 18 19  2  0
 18 23  1  0
 19 20  1  0
 20 21  2  0
 21 22  1  0
 22 23  2  0
 24 25  1  6
 24 26  1  0
 25 26  2  0
M  END
$$$$
