
     RDKit          3D

 26 29  0  0  0  0  0  0  0  0999 V2000
   42.7857   18.1306    9.0232 C   0  0  0  0  0  0  0  0  0  0  0  0
   40.5553   18.2027   11.5091 C   0  0  0  0  0  0  0  0  0  0  0  0
   40.8891   16.1986   12.7923 C   0  0  0  0  0  0  0  0  0  0  0  0
   39.6163   16.3162   13.3093 C   0  0  0  0  0  0  0  0  0  0  0  0
   38.7984   17.3638   12.9439 C   0  0  0  0  0  0  0  0  0  0  0  0
   39.2900   18.3091   12.0323 C   0  0  0  0  0  0  0  0  0  0  0  0
   41.0247   15.3778    5.2686 C   0  0  0  0  0  0  0  0  0  0  0  0
   41.2348   15.5470    6.7354 C   0  0  0  0  0  0  0  0  0  0  0  0
   41.1367   14.5290    7.4249 O   0  0  0  0  0  0  0  0  0  0  0  0
   41.5345   16.8011    7.3309 N   0  0  0  0  0  0  0  0  0  0  0  0
   42.7157   16.9033    8.1646 C   0  0  1  0  0  0  0  0  0  0  0  0
   41.5143   18.7592    9.2915 N   0  0  0  0  0  0  0  0  0  0  0  0
   41.0310   19.1946   10.5665 C   0  0  0  0  0  0  0  0  0  0  0  0
   41.3618   17.1304   11.8996 C   0  0  0  0  0  0  0  0  0  0  0  0
   38.4052   19.4004   11.6884 C   0  0  0  0  0  0  0  0  0  0  0  0
   37.1619   19.5922   12.2400 O   0  0  0  0  0  0  0  0  0  0  0  0
   38.7493   20.2760   10.8194 O   0  0  0  0  0  0  0  0  0  0  0  0
   40.6719   18.9265    8.1257 C   0  0  0  0  0  0  0  0  0  0  0  0
   39.8703   20.0667    8.0457 C   0  0  0  0  0  0  0  0  0  0  0  0
   39.0753   20.1799    6.9207 C   0  0  0  0  0  0  0  0  0  0  0  0
   39.1058   19.1961    5.9564 C   0  0  0  0  0  0  0  0  0  0  0  0
   39.9102   18.0642    6.0508 C   0  0  0  0  0  0  0  0  0  0  0  0
   40.7000   17.9401    7.1617 C   0  0  0  0  0  0  0  0  0  0  0  0
   43.9111   16.8374    7.2291 C   0  0  2  0  0  0  0  0  0  0  0  0
   45.2143   16.4470    7.7426 C   0  0  0  0  0  0  0  0  0  0  0  0
   45.0152   17.7924    7.4134 C   0  0  0  0  0  0  0  0  0  0  0  0
 11  1  1  6
 12  1  1  0
  2  6  1  0
 13  2  1  0
  2 14  2  0
  3  4  2  0
 14  3  1  0
  5  4  1  0
  6  5  2  0
  6 15  1  0
  8  7  1  0
  8  9  2  0
 10  8  1  0
 11 10  1  0
 10 23  1  0
 11 24  1  0
 12 13  1  0
 12 18  1  0
 15 16  1  0
 15 17  2  0
 18 19  2  0
 18 23  1  0
 19 20  1  0
 20 21  2  0
 21 22  1  0
 22 23  2  0
 24 25  1  1
 24 26  1  0
 25 26  2  0
M  END
$$$$
