
     RDKit          3D

 26 29  0  0  0  0  0  0  0  0999 V2000
   42.2961   18.1464    8.8814 C   0  0  0  0  0  0  0  0  0  0  0  0
   40.3547   18.9929   11.5176 C   0  0  0  0  0  0  0  0  0  0  0  0
   38.8384   17.3131   12.4357 C   0  0  0  0  0  0  0  0  0  0  0  0
   39.1781   17.6726   13.7237 C   0  0  0  0  0  0  0  0  0  0  0  0
   40.0944   18.6766   13.8751 C   0  0  0  0  0  0  0  0  0  0  0  0
   40.7024   19.3558   12.7914 C   0  0  0  0  0  0  0  0  0  0  0  0
   41.8483   16.7567    4.8598 C   0  0  0  0  0  0  0  0  0  0  0  0
   41.7836   16.1674    6.2158 C   0  0  0  0  0  0  0  0  0  0  0  0
   42.2950   14.9967    6.2972 O   0  0  0  0  0  0  0  0  0  0  0  0
   41.2526   16.7400    7.3606 N   0  0  0  0  0  0  0  0  0  0  0  0
   41.8701   16.6577    8.6923 C   0  0  1  0  0  0  0  0  0  0  0  0
   41.0691   18.8268    9.1625 N   0  0  0  0  0  0  0  0  0  0  0  0
   40.8247   19.6677   10.2855 C   0  0  0  0  0  0  0  0  0  0  0  0
   39.4091   17.9535   11.3723 C   0  0  0  0  0  0  0  0  0  0  0  0
   41.7212   20.3327   13.0695 C   0  0  0  0  0  0  0  0  0  0  0  0
   42.0281   20.5926   14.4245 O   0  0  0  0  0  0  0  0  0  0  0  0
   42.3670   20.9790   12.2559 O   0  0  0  0  0  0  0  0  0  0  0  0
   39.9776   18.6146    8.2139 C   0  0  0  0  0  0  0  0  0  0  0  0
   38.8732   19.4490    8.2155 C   0  0  0  0  0  0  0  0  0  0  0  0
   37.8826   19.1845    7.2929 C   0  0  0  0  0  0  0  0  0  0  0  0
   37.9614   18.1452    6.3991 C   0  0  0  0  0  0  0  0  0  0  0  0
   39.0710   17.3263    6.4132 C   0  0  0  0  0  0  0  0  0  0  0  0
   40.0933   17.5666    7.3309 C   0  0  0  0  0  0  0  0  0  0  0  0
   42.9965   15.7193    8.8180 C   0  0  2  0  0  0  0  0  0  0  0  0
   44.3372   16.3364    9.0394 C   0  0  0  0  0  0  0  0  0  0  0  0
   44.0457   15.7548    7.8233 C   0  0  0  0  0  0  0  0  0  0  0  0
  1 11  1  0
  1 12  1  6
  2  6  1  0
 13  2  1  0
  2 14  2  0
  3  4  2  0
 14  3  1  0
  5  4  1  0
  6  5  2  0
  6 15  1  0
  7  8  1  6
  8  9  2  0
 10  8  1  0
 11 10  1  6
 10 23  1  0
 11 24  1  0
 13 12  1  6
 12 18  1  0
 15 16  1  0
 15 17  2  0
 18 19  2  0
 18 23  1  0
 19 20  1  0
 20 21  2  0
 21 22  1  0
 22 23  2  0
 24 25  1  1
 24 26  1  0
 25 26  2  0
M  END
$$$$
