
     RDKit          3D

 26 29  0  0  0  0  0  0  0  0999 V2000
   41.7834   18.1709    9.5072 C   0  0  0  0  0  0  0  0  0  0  0  0
   39.9019   18.4039   11.8212 C   0  0  0  0  0  0  0  0  0  0  0  0
   40.3935   16.9801   13.6935 C   0  0  0  0  0  0  0  0  0  0  0  0
   40.7900   18.0788   14.4263 C   0  0  0  0  0  0  0  0  0  0  0  0
   40.7524   19.3439   13.8808 C   0  0  0  0  0  0  0  0  0  0  0  0
   40.3006   19.4898   12.5614 C   0  0  0  0  0  0  0  0  0  0  0  0
   42.7730   15.5932    5.6137 C   0  0  0  0  0  0  0  0  0  0  0  0
   41.6916   15.7112    6.6339 C   0  0  0  0  0  0  0  0  0  0  0  0
   40.9776   14.7183    6.7942 O   0  0  0  0  0  0  0  0  0  0  0  0
   41.4754   16.8912    7.3942 N   0  0  0  0  0  0  0  0  0  0  0  0
   42.2839   17.1059    8.5779 C   0  0  1  0  0  0  0  0  0  0  0  0
   40.3763   18.4702    9.3885 N   0  0  0  0  0  0  0  0  0  0  0  0
   39.4369   18.5900   10.4619 C   0  0  0  0  0  0  0  0  0  0  0  0
   39.9525   17.1335   12.4009 C   0  0  0  0  0  0  0  0  0  0  0  0
   40.2925   20.8322   12.0227 C   0  0  0  0  0  0  0  0  0  0  0  0
   39.5551   21.2241   10.9320 O   0  0  0  0  0  0  0  0  0  0  0  0
   40.9992   21.7579   12.5553 O   0  0  0  0  0  0  0  0  0  0  0  0
   39.9132   18.6384    8.0269 C   0  0  0  0  0  0  0  0  0  0  0  0
   38.9171   19.5842    7.7779 C   0  0  0  0  0  0  0  0  0  0  0  0
   38.4987   19.7036    6.4660 C   0  0  0  0  0  0  0  0  0  0  0  0
   39.0634   18.9113    5.4902 C   0  0  0  0  0  0  0  0  0  0  0  0
   40.0557   17.9717    5.7544 C   0  0  0  0  0  0  0  0  0  0  0  0
   40.4763   17.8430    7.0505 C   0  0  0  0  0  0  0  0  0  0  0  0
   43.6838   17.4383    8.0897 C   0  0  2  0  0  0  0  0  0  0  0  0
   44.8234   17.2578    8.9746 C   0  0  0  0  0  0  0  0  0  0  0  0
   44.4047   18.5650    8.7027 C   0  0  0  0  0  0  0  0  0  0  0  0
 11  1  1  6
 12  1  1  0
  2  6  1  0
 13  2  1  0
  2 14  2  0
  3  4  2  0
 14  3  1  0
  5  4  1  0
  6  5  2  0
  6 15  1  0
  8  7  1  0
  8  9  2  0
 10  8  1  0
 11 10  1  0
 10 23  1  0
 11 24  1  0
 12 13  1  0
 12 18  1  0
 15 16  1  0
 15 17  2  0
 18 19  2  0
 18 23  1  0
 19 20  1  0
 20 21  2  0
 21 22  1  0
 22 23  2  0
 24 25  1  1
 24 26  1  0
 25 26  2  0
M  END
$$$$
