
     RDKit          3D

 26 29  0  0  0  0  0  0  0  0999 V2000
   42.2683   17.7105    8.7598 C   0  0  0  0  0  0  0  0  0  0  0  0
   41.1085   18.6600   11.4882 C   0  0  0  0  0  0  0  0  0  0  0  0
   40.0209   17.0387   12.9553 C   0  0  0  0  0  0  0  0  0  0  0  0
   40.9547   17.2682   13.9447 C   0  0  0  0  0  0  0  0  0  0  0  0
   41.9379   18.1818   13.6812 C   0  0  0  0  0  0  0  0  0  0  0  0
   42.0431   18.8935   12.4615 C   0  0  0  0  0  0  0  0  0  0  0  0
   40.8367   15.3395    4.8682 C   0  0  0  0  0  0  0  0  0  0  0  0
   41.5894   16.0970    5.8927 C   0  0  0  0  0  0  0  0  0  0  0  0
   42.8385   16.2133    5.6379 O   0  0  0  0  0  0  0  0  0  0  0  0
   41.0919   16.6760    7.0494 N   0  0  0  0  0  0  0  0  0  0  0  0
   41.5678   16.3627    8.4047 C   0  0  1  0  0  0  0  0  0  0  0  0
   41.1849   18.6073    9.0234 N   0  0  0  0  0  0  0  0  0  0  0  0
   41.0232   19.3899   10.2021 C   0  0  0  0  0  0  0  0  0  0  0  0
   40.0986   17.7132   11.7697 C   0  0  0  0  0  0  0  0  0  0  0  0
   43.1724   19.7619   12.2610 C   0  0  0  0  0  0  0  0  0  0  0  0
   43.7937   20.3052   13.4084 O   0  0  0  0  0  0  0  0  0  0  0  0
   43.6693   20.0934   11.1933 O   0  0  0  0  0  0  0  0  0  0  0  0
   40.1554   18.7022    7.9903 C   0  0  0  0  0  0  0  0  0  0  0  0
   39.2458   19.7455    7.9986 C   0  0  0  0  0  0  0  0  0  0  0  0
   38.3020   19.7663    6.9930 C   0  0  0  0  0  0  0  0  0  0  0  0
   38.2430   18.8067    6.0126 C   0  0  0  0  0  0  0  0  0  0  0  0
   39.1595   17.7763    6.0218 C   0  0  0  0  0  0  0  0  0  0  0  0
   40.1298   17.7256    7.0223 C   0  0  0  0  0  0  0  0  0  0  0  0
   42.4673   15.2034    8.5145 C   0  0  2  0  0  0  0  0  0  0  0  0
   42.0810   14.1719    9.5215 C   0  0  0  0  0  0  0  0  0  0  0  0
   43.1701   14.9839    9.7593 C   0  0  0  0  0  0  0  0  0  0  0  0
  1 11  1  0
  1 12  1  6
  2  6  1  0
 13  2  1  0
  2 14  2  0
  3  4  2  0
 14  3  1  0
  5  4  1  0
  6  5  2  0
  6 15  1  0
  7  8  1  6
  8  9  2  0
 10  8  1  0
 11 10  1  6
 10 23  1  0
 11 24  1  0
 13 12  1  6
 12 18  1  0
 15 16  1  0
 15 17  2  0
 18 19  2  0
 18 23  1  0
 19 20  1  0
 20 21  2  0
 21 22  1  0
 22 23  2  0
 24 25  1  1
 24 26  1  0
 25 26  2  0
M  END
$$$$
