
     RDKit          3D

 26 29  0  0  0  0  0  0  0  0999 V2000
   42.1757   18.1374    9.0873 C   0  0  0  0  0  0  0  0  0  0  0  0
   40.1084   18.9280   11.4393 C   0  0  0  0  0  0  0  0  0  0  0  0
   39.8177   16.8092   12.6183 C   0  0  0  0  0  0  0  0  0  0  0  0
   39.4959   17.4724   13.7847 C   0  0  0  0  0  0  0  0  0  0  0  0
   39.4905   18.8396   13.7493 C   0  0  0  0  0  0  0  0  0  0  0  0
   39.7940   19.5971   12.5920 C   0  0  0  0  0  0  0  0  0  0  0  0
   43.7650   16.3350    6.1686 C   0  0  0  0  0  0  0  0  0  0  0  0
   42.3358   16.0689    6.4453 C   0  0  0  0  0  0  0  0  0  0  0  0
   41.8036   15.2179    5.6507 O   0  0  0  0  0  0  0  0  0  0  0  0
   41.5523   16.6225    7.4453 N   0  0  0  0  0  0  0  0  0  0  0  0
   41.9031   16.6165    8.8730 C   0  0  1  0  0  0  0  0  0  0  0  0
   40.8717   18.7263    9.1025 N   0  0  0  0  0  0  0  0  0  0  0  0
   40.3534   19.5692   10.1267 C   0  0  0  0  0  0  0  0  0  0  0  0
   40.1130   17.5161   11.4871 C   0  0  0  0  0  0  0  0  0  0  0  0
   39.8468   21.0309   12.6963 C   0  0  0  0  0  0  0  0  0  0  0  0
   40.0140   21.5891   13.9840 O   0  0  0  0  0  0  0  0  0  0  0  0
   39.7623   21.8418   11.7840 O   0  0  0  0  0  0  0  0  0  0  0  0
   40.0039   18.4100    7.9697 C   0  0  0  0  0  0  0  0  0  0  0  0
   38.8630   19.1560    7.7289 C   0  0  0  0  0  0  0  0  0  0  0  0
   38.0926   18.7960    6.6430 C   0  0  0  0  0  0  0  0  0  0  0  0
   38.4185   17.7472    5.8188 C   0  0  0  0  0  0  0  0  0  0  0  0
   39.5602   17.0175    6.0755 C   0  0  0  0  0  0  0  0  0  0  0  0
   40.3644   17.3557    7.1636 C   0  0  0  0  0  0  0  0  0  0  0  0
   43.0482   15.7713    9.2466 C   0  0  2  0  0  0  0  0  0  0  0  0
   44.3947   16.3996    9.1079 C   0  0  0  0  0  0  0  0  0  0  0  0
   44.0086   15.4110    8.2271 C   0  0  0  0  0  0  0  0  0  0  0  0
  1 11  1  0
  1 12  1  6
  2  6  1  0
 13  2  1  0
  2 14  2  0
  3  4  2  0
 14  3  1  0
  5  4  1  0
  6  5  2  0
  6 15  1  0
  7  8  1  6
  8  9  2  0
 10  8  1  0
 11 10  1  6
 10 23  1  0
 11 24  1  0
 13 12  1  6
 12 18  1  0
 15 16  1  0
 15 17  2  0
 18 19  2  0
 18 23  1  0
 19 20  1  0
 20 21  2  0
 21 22  1  0
 22 23  2  0
 24 25  1  1
 24 26  1  0
 25 26  2  0
M  END
$$$$
