
     RDKit          3D

 26 29  0  0  0  0  0  0  0  0999 V2000
   41.6991   18.1173    9.3075 C   0  0  0  0  0  0  0  0  0  0  0  0
   40.1778   18.5356   11.8515 C   0  0  0  0  0  0  0  0  0  0  0  0
   40.8469   17.0535   13.6207 C   0  0  0  0  0  0  0  0  0  0  0  0
   41.3668   18.1218   14.3206 C   0  0  0  0  0  0  0  0  0  0  0  0
   41.3051   19.4001   13.8087 C   0  0  0  0  0  0  0  0  0  0  0  0
   40.7003   19.5909   12.5581 C   0  0  0  0  0  0  0  0  0  0  0  0
   39.7121   15.4644    5.6177 C   0  0  0  0  0  0  0  0  0  0  0  0
   40.9443   15.9009    6.3355 C   0  0  0  0  0  0  0  0  0  0  0  0
   41.9542   15.2150    6.1594 O   0  0  0  0  0  0  0  0  0  0  0  0
   40.9800   17.0419    7.1806 N   0  0  0  0  0  0  0  0  0  0  0  0
   41.9398   17.0652    8.2665 C   0  0  1  0  0  0  0  0  0  0  0  0
   40.3420   18.6041    9.3786 N   0  0  0  0  0  0  0  0  0  0  0  0
   39.5563   18.7680   10.5637 C   0  0  0  0  0  0  0  0  0  0  0  0
   40.2564   17.2509   12.3956 C   0  0  0  0  0  0  0  0  0  0  0  0
   40.6713   20.9452   12.0510 C   0  0  0  0  0  0  0  0  0  0  0  0
   41.5887   21.9140   12.3778 O   0  0  0  0  0  0  0  0  0  0  0  0
   39.7541   21.3239   11.2414 O   0  0  0  0  0  0  0  0  0  0  0  0
   39.7545   18.9273    8.0952 C   0  0  0  0  0  0  0  0  0  0  0  0
   38.8756   20.0095    8.0226 C   0  0  0  0  0  0  0  0  0  0  0  0
   38.3310   20.2752    6.7803 C   0  0  0  0  0  0  0  0  0  0  0  0
   38.6669   19.4878    5.7005 C   0  0  0  0  0  0  0  0  0  0  0  0
   39.5446   18.4112    5.7890 C   0  0  0  0  0  0  0  0  0  0  0  0
   40.0882   18.1372    7.0148 C   0  0  0  0  0  0  0  0  0  0  0  0
   43.3073   17.2473    7.6298 C   0  0  2  0  0  0  0  0  0  0  0  0
   44.4946   16.7481    8.3045 C   0  0  0  0  0  0  0  0  0  0  0  0
   44.2861   18.1316    8.2817 C   0  0  0  0  0  0  0  0  0  0  0  0
 11  1  1  1
 12  1  1  0
  2  6  1  0
 13  2  1  0
  2 14  2  0
  3  4  2  0
 14  3  1  0
  5  4  1  0
  6  5  2  0
  6 15  1  0
  8  7  1  0
  8  9  2  0
 10  8  1  0
 11 10  1  0
 10 23  1  0
 11 24  1  0
 12 13  1  0
 12 18  1  0
 15 16  1  0
 15 17  2  0
 18 19  2  0
 18 23  1  0
 19 20  1  0
 20 21  2  0
 21 22  1  0
 22 23  2  0
 24 25  1  1
 24 26  1  0
 25 26  2  0
M  END
$$$$
