
     RDKit          3D

 26 29  0  0  0  0  0  0  0  0999 V2000
   42.4053   18.4945    8.7263 C   0  0  0  0  0  0  0  0  0  0  0  0
   39.3932   19.4384   10.8931 C   0  0  0  0  0  0  0  0  0  0  0  0
   37.6137   18.1717   11.9851 C   0  0  0  0  0  0  0  0  0  0  0  0
   36.6877   19.1410   11.6587 C   0  0  0  0  0  0  0  0  0  0  0  0
   37.1361   20.2297   10.9630 C   0  0  0  0  0  0  0  0  0  0  0  0
   38.4838   20.4087   10.5666 C   0  0  0  0  0  0  0  0  0  0  0  0
   43.1392   17.2720    5.2216 C   0  0  0  0  0  0  0  0  0  0  0  0
   42.0469   16.6098    5.9688 C   0  0  0  0  0  0  0  0  0  0  0  0
   41.5150   15.6259    5.3460 O   0  0  0  0  0  0  0  0  0  0  0  0
   41.5693   16.9330    7.2289 N   0  0  0  0  0  0  0  0  0  0  0  0
   42.3930   16.9599    8.4464 C   0  0  1  0  0  0  0  0  0  0  0  0
   41.0988   18.7648    9.2434 N   0  0  0  0  0  0  0  0  0  0  0  0
   40.8127   19.4298   10.4698 C   0  0  0  0  0  0  0  0  0  0  0  0
   38.9201   18.3190   11.6134 C   0  0  0  0  0  0  0  0  0  0  0  0
   38.8584   21.6374    9.9189 C   0  0  0  0  0  0  0  0  0  0  0  0
   40.0080   22.3067   10.3968 O   0  0  0  0  0  0  0  0  0  0  0  0
   38.2884   22.1836    8.9842 O   0  0  0  0  0  0  0  0  0  0  0  0
   39.9727   18.2949    8.4388 C   0  0  0  0  0  0  0  0  0  0  0  0
   38.6930   18.7644    8.6794 C   0  0  0  0  0  0  0  0  0  0  0  0
   37.6813   18.2729    7.8811 C   0  0  0  0  0  0  0  0  0  0  0  0
   37.9043   17.3566    6.8831 C   0  0  0  0  0  0  0  0  0  0  0  0
   39.1871   16.9025    6.6589 C   0  0  0  0  0  0  0  0  0  0  0  0
   40.2348   17.3806    7.4455 C   0  0  0  0  0  0  0  0  0  0  0  0
   43.7436   16.3904    8.3175 C   0  0  2  0  0  0  0  0  0  0  0  0
   44.6440   16.5759    9.4931 C   0  0  0  0  0  0  0  0  0  0  0  0
   44.8800   17.2847    8.3338 C   0  0  0  0  0  0  0  0  0  0  0  0
  1 11  1  0
  1 12  1  6
  2  6  1  0
 13  2  1  0
  2 14  2  0
  3  4  2  0
 14  3  1  0
  5  4  1  0
  6  5  2  0
  6 15  1  0
  7  8  1  6
  8  9  2  0
 10  8  1  0
 11 10  1  6
 10 23  1  0
 11 24  1  0
 13 12  1  6
 12 18  1  0
 15 16  1  0
 15 17  2  0
 18 19  2  0
 18 23  1  0
 19 20  1  0
 20 21  2  0
 21 22  1  0
 22 23  2  0
 24 25  1  1
 24 26  1  0
 25 26  2  0
M  END
$$$$
