
     RDKit          3D

 26 29  0  0  0  0  0  0  0  0999 V2000
   41.1324   18.0594    9.6053 C   0  0  0  0  0  0  0  0  0  0  0  0
   38.6119   20.1551   10.4204 C   0  0  0  0  0  0  0  0  0  0  0  0
   39.1060   21.2470   12.5032 C   0  0  0  0  0  0  0  0  0  0  0  0
   38.3070   22.3095   12.1370 C   0  0  0  0  0  0  0  0  0  0  0  0
   37.6541   22.3181   10.9232 C   0  0  0  0  0  0  0  0  0  0  0  0
   37.8199   21.2200   10.0671 C   0  0  0  0  0  0  0  0  0  0  0  0
   42.9094   16.1140    5.3911 C   0  0  0  0  0  0  0  0  0  0  0  0
   41.9207   16.0389    6.5051 C   0  0  0  0  0  0  0  0  0  0  0  0
   41.3674   14.9498    6.6755 O   0  0  0  0  0  0  0  0  0  0  0  0
   41.6158   17.1465    7.3403 N   0  0  0  0  0  0  0  0  0  0  0  0
   41.7846   16.9969    8.7721 C   0  0  1  0  0  0  0  0  0  0  0  0
   40.0493   18.7609    8.9585 N   0  0  0  0  0  0  0  0  0  0  0  0
   38.7588   19.0345    9.5141 C   0  0  0  0  0  0  0  0  0  0  0  0
   39.2624   20.1755   11.6570 C   0  0  0  0  0  0  0  0  0  0  0  0
   37.1301   21.2770    8.7971 C   0  0  0  0  0  0  0  0  0  0  0  0
   36.9987   22.4142    8.0379 O   0  0  0  0  0  0  0  0  0  0  0  0
   36.5862   20.2307    8.2975 O   0  0  0  0  0  0  0  0  0  0  0  0
   40.3395   19.1942    7.6077 C   0  0  0  0  0  0  0  0  0  0  0  0
   39.8028   20.4067    7.1711 C   0  0  0  0  0  0  0  0  0  0  0  0
   40.0973   20.7756    5.8720 C   0  0  0  0  0  0  0  0  0  0  0  0
   40.8827   19.9592    5.0875 C   0  0  0  0  0  0  0  0  0  0  0  0
   41.4101   18.7521    5.5370 C   0  0  0  0  0  0  0  0  0  0  0  0
   41.1231   18.3754    6.8211 C   0  0  0  0  0  0  0  0  0  0  0  0
   43.2817   16.9614    9.0286 C   0  0  2  0  0  0  0  0  0  0  0  0
   43.7850   16.5837   10.3395 C   0  0  0  0  0  0  0  0  0  0  0  0
   43.8681   17.9302    9.9680 C   0  0  0  0  0  0  0  0  0  0  0  0
 11  1  1  1
 12  1  1  0
  2  6  1  0
 13  2  1  0
  2 14  2  0
  3  4  2  0
 14  3  1  0
  5  4  1  0
  6  5  2  0
  6 15  1  0
  8  7  1  0
  8  9  2  0
 10  8  1  0
 11 10  1  0
 10 23  1  0
 11 24  1  0
 12 13  1  0
 12 18  1  0
 15 16  1  0
 15 17  2  0
 18 19  2  0
 18 23  1  0
 19 20  1  0
 20 21  2  0
 21 22  1  0
 22 23  2  0
 24 25  1  1
 24 26  1  0
 25 26  2  0
M  END
$$$$
