
     RDKit          3D

 26 29  0  0  0  0  0  0  0  0999 V2000
   41.3111   18.7451    8.3172 C   0  0  0  0  0  0  0  0  0  0  0  0
   40.0563   20.8827    9.9778 C   0  0  0  0  0  0  0  0  0  0  0  0
   41.4034   22.8077   10.6437 C   0  0  0  0  0  0  0  0  0  0  0  0
   40.6653   23.6397    9.8272 C   0  0  0  0  0  0  0  0  0  0  0  0
   39.6479   23.0745    9.1089 C   0  0  0  0  0  0  0  0  0  0  0  0
   39.3191   21.6981    9.1612 C   0  0  0  0  0  0  0  0  0  0  0  0
   40.9373   15.9667    5.2350 C   0  0  0  0  0  0  0  0  0  0  0  0
   41.6956   15.9425    6.5056 C   0  0  0  0  0  0  0  0  0  0  0  0
   42.8161   15.3281    6.4290 O   0  0  0  0  0  0  0  0  0  0  0  0
   41.3292   16.5045    7.7182 N   0  0  0  0  0  0  0  0  0  0  0  0
   42.1609   17.4472    8.4805 C   0  0  1  0  0  0  0  0  0  0  0  0
   40.2003   18.5473    9.1973 N   0  0  0  0  0  0  0  0  0  0  0  0
   39.7787   19.4475   10.2171 C   0  0  0  0  0  0  0  0  0  0  0  0
   41.1060   21.4761   10.7138 C   0  0  0  0  0  0  0  0  0  0  0  0
   38.2875   21.1985    8.2918 C   0  0  0  0  0  0  0  0  0  0  0  0
   36.9554   21.5837    8.5657 O   0  0  0  0  0  0  0  0  0  0  0  0
   38.4287   20.4642    7.3234 O   0  0  0  0  0  0  0  0  0  0  0  0
   39.4566   17.2999    9.0329 C   0  0  0  0  0  0  0  0  0  0  0  0
   38.2054   17.1473    9.6047 C   0  0  0  0  0  0  0  0  0  0  0  0
   37.5659   15.9411    9.4085 C   0  0  0  0  0  0  0  0  0  0  0  0
   38.1224   14.9175    8.6819 C   0  0  0  0  0  0  0  0  0  0  0  0
   39.3696   15.0904    8.1193 C   0  0  0  0  0  0  0  0  0  0  0  0
   40.0436   16.2986    8.2952 C   0  0  0  0  0  0  0  0  0  0  0  0
   43.5452   17.6057    8.0076 C   0  0  2  0  0  0  0  0  0  0  0  0
   44.2802   18.7948    8.5301 C   0  0  0  0  0  0  0  0  0  0  0  0
   43.8794   18.7654    7.2108 C   0  0  0  0  0  0  0  0  0  0  0  0
  1 11  1  0
  1 12  1  6
  2  6  1  0
 13  2  1  0
  2 14  2  0
  3  4  2  0
 14  3  1  0
  5  4  1  0
  6  5  2  0
  6 15  1  0
  7  8  1  6
  8  9  2  0
 10  8  1  0
 11 10  1  6
 10 23  1  0
 11 24  1  0
 13 12  1  6
 12 18  1  0
 15 16  1  0
 15 17  2  0
 18 19  2  0
 18 23  1  0
 19 20  1  0
 20 21  2  0
 21 22  1  0
 22 23  2  0
 24 25  1  1
 24 26  1  0
 25 26  2  0
M  END
$$$$
