
     RDKit          3D

 26 29  0  0  0  0  0  0  0  0999 V2000
   39.9076   18.8079    7.5349 C   0  0  0  0  0  0  0  0  0  0  0  0
   38.3213   20.7644    9.5929 C   0  0  0  0  0  0  0  0  0  0  0  0
   36.4670   20.3725   11.1330 C   0  0  0  0  0  0  0  0  0  0  0  0
   35.5639   20.8610   10.2114 C   0  0  0  0  0  0  0  0  0  0  0  0
   36.0602   21.2883    9.0107 C   0  0  0  0  0  0  0  0  0  0  0  0
   37.4347   21.2546    8.6715 C   0  0  0  0  0  0  0  0  0  0  0  0
   40.4961   14.7961    7.3958 C   0  0  0  0  0  0  0  0  0  0  0  0
   41.4995   15.8678    7.2095 C   0  0  0  0  0  0  0  0  0  0  0  0
   42.4598   15.5482    6.4256 O   0  0  0  0  0  0  0  0  0  0  0  0
   41.4960   17.1344    7.7716 N   0  0  0  0  0  0  0  0  0  0  0  0
   41.3129   18.3790    7.0108 C   0  0  1  0  0  0  0  0  0  0  0  0
   40.1629   19.2990    8.8544 N   0  0  0  0  0  0  0  0  0  0  0  0
   39.7709   20.5728    9.3562 C   0  0  0  0  0  0  0  0  0  0  0  0
   37.7986   20.3275   10.8304 C   0  0  0  0  0  0  0  0  0  0  0  0
   37.8524   21.8161    7.4146 C   0  0  0  0  0  0  0  0  0  0  0  0
   37.7472   23.2165    7.2546 O   0  0  0  0  0  0  0  0  0  0  0  0
   38.2969   21.2132    6.4472 O   0  0  0  0  0  0  0  0  0  0  0  0
   40.9070   18.4103    9.7447 C   0  0  0  0  0  0  0  0  0  0  0  0
   40.9385   18.6470   11.1081 C   0  0  0  0  0  0  0  0  0  0  0  0
   41.6637   17.7667   11.8837 C   0  0  0  0  0  0  0  0  0  0  0  0
   42.3359   16.6931   11.3536 C   0  0  0  0  0  0  0  0  0  0  0  0
   42.2907   16.4743    9.9927 C   0  0  0  0  0  0  0  0  0  0  0  0
   41.5643   17.3430    9.1787 C   0  0  0  0  0  0  0  0  0  0  0  0
   41.3618   18.2464    5.5462 C   0  0  2  0  0  0  0  0  0  0  0  0
   40.3214   17.3673    4.9363 C   0  0  0  0  0  0  0  0  0  0  0  0
   41.6341   16.9462    4.9743 C   0  0  0  0  0  0  0  0  0  0  0  0
  1 11  1  0
  1 12  1  6
  2  6  1  0
 13  2  1  0
  2 14  2  0
  3  4  2  0
 14  3  1  0
  5  4  1  0
  6  5  2  0
  6 15  1  0
  7  8  1  6
  8  9  2  0
 10  8  1  0
 11 10  1  1
 10 23  1  0
 11 24  1  0
 13 12  1  6
 12 18  1  0
 15 16  1  0
 15 17  2  0
 18 19  2  0
 18 23  1  0
 19 20  1  0
 20 21  2  0
 21 22  1  0
 22 23  2  0
 24 25  1  6
 24 26  1  0
 25 26  2  0
M  END
$$$$
