
     RDKit          3D

 26 29  0  0  0  0  0  0  0  0999 V2000
   42.5531   18.2337    8.9116 C   0  0  0  0  0  0  0  0  0  0  0  0
   40.3271   19.0667   11.5192 C   0  0  0  0  0  0  0  0  0  0  0  0
   40.1629   17.2050   13.0911 C   0  0  0  0  0  0  0  0  0  0  0  0
   38.9045   17.6128   13.4832 C   0  0  0  0  0  0  0  0  0  0  0  0
   38.3928   18.7327   12.8877 C   0  0  0  0  0  0  0  0  0  0  0  0
   39.0802   19.4831   11.9030 C   0  0  0  0  0  0  0  0  0  0  0  0
   41.6407   16.8077    4.8248 C   0  0  0  0  0  0  0  0  0  0  0  0
   41.9402   16.3487    6.1994 C   0  0  0  0  0  0  0  0  0  0  0  0
   42.7492   15.3579    6.2504 O   0  0  0  0  0  0  0  0  0  0  0  0
   41.4563   16.8713    7.3882 N   0  0  0  0  0  0  0  0  0  0  0  0
   42.1357   16.7476    8.6861 C   0  0  1  0  0  0  0  0  0  0  0  0
   41.3328   18.8870    9.2741 N   0  0  0  0  0  0  0  0  0  0  0  0
   41.1311   19.6823   10.4381 C   0  0  0  0  0  0  0  0  0  0  0  0
   40.8471   17.9102   12.1418 C   0  0  0  0  0  0  0  0  0  0  0  0
   38.4820   20.6962   11.4131 C   0  0  0  0  0  0  0  0  0  0  0  0
   39.3471   21.7491   11.0378 O   0  0  0  0  0  0  0  0  0  0  0  0
   37.2885   20.9302   11.2799 O   0  0  0  0  0  0  0  0  0  0  0  0
   40.2010   18.6960    8.3692 C   0  0  0  0  0  0  0  0  0  0  0  0
   39.0885   19.5152    8.4529 C   0  0  0  0  0  0  0  0  0  0  0  0
   38.0593   19.2723    7.5674 C   0  0  0  0  0  0  0  0  0  0  0  0
   38.1083   18.2680    6.6323 C   0  0  0  0  0  0  0  0  0  0  0  0
   39.2267   17.4638    6.5646 C   0  0  0  0  0  0  0  0  0  0  0  0
   40.2876   17.6832    7.4429 C   0  0  0  0  0  0  0  0  0  0  0  0
   43.2773   15.8200    8.7245 C   0  0  2  0  0  0  0  0  0  0  0  0
   44.6264   16.4506    8.8224 C   0  0  0  0  0  0  0  0  0  0  0  0
   44.2364   15.8523    7.6425 C   0  0  0  0  0  0  0  0  0  0  0  0
  1 11  1  0
  1 12  1  6
  2  6  1  0
 13  2  1  0
  2 14  2  0
  3  4  2  0
 14  3  1  0
  5  4  1  0
  6  5  2  0
  6 15  1  0
  7  8  1  6
  8  9  2  0
 10  8  1  0
 11 10  1  6
 10 23  1  0
 11 24  1  0
 13 12  1  6
 12 18  1  0
 15 16  1  0
 15 17  2  0
 18 19  2  0
 18 23  1  0
 19 20  1  0
 20 21  2  0
 21 22  1  0
 22 23  2  0
 24 25  1  1
 24 26  1  0
 25 26  2  0
M  END
$$$$
