
     RDKit          3D

 26 29  0  0  0  0  0  0  0  0999 V2000
   42.3501   18.3150    8.1806 C   0  0  0  0  0  0  0  0  0  0  0  0
   40.3643   18.9729   10.9883 C   0  0  0  0  0  0  0  0  0  0  0  0
   40.5087   17.0362   12.4688 C   0  0  0  0  0  0  0  0  0  0  0  0
   39.3180   17.3786   13.0760 C   0  0  0  0  0  0  0  0  0  0  0  0
   38.6849   18.5050   12.6274 C   0  0  0  0  0  0  0  0  0  0  0  0
   39.1834   19.3248   11.5858 C   0  0  0  0  0  0  0  0  0  0  0  0
   41.1899   16.8341    4.1657 C   0  0  0  0  0  0  0  0  0  0  0  0
   41.6429   16.4065    5.5081 C   0  0  0  0  0  0  0  0  0  0  0  0
   42.5305   15.4844    5.4864 O   0  0  0  0  0  0  0  0  0  0  0  0
   41.2227   16.8935    6.7356 N   0  0  0  0  0  0  0  0  0  0  0  0
   42.0083   16.8069    7.9753 C   0  0  1  0  0  0  0  0  0  0  0  0
   41.1243   18.8902    8.6432 N   0  0  0  0  0  0  0  0  0  0  0  0
   40.9663   19.6668    9.8263 C   0  0  0  0  0  0  0  0  0  0  0  0
   41.0109   17.8091   11.4604 C   0  0  0  0  0  0  0  0  0  0  0  0
   38.4791   20.5360   11.2598 C   0  0  0  0  0  0  0  0  0  0  0  0
   37.0821   20.5601   11.4732 O   0  0  0  0  0  0  0  0  0  0  0  0
   38.9552   21.5695   10.8102 O   0  0  0  0  0  0  0  0  0  0  0  0
   39.9388   18.6331    7.8278 C   0  0  0  0  0  0  0  0  0  0  0  0
   38.7881   19.3816    8.0055 C   0  0  0  0  0  0  0  0  0  0  0  0
   37.7094   19.0790    7.2011 C   0  0  0  0  0  0  0  0  0  0  0  0
   37.7463   18.0834    6.2562 C   0  0  0  0  0  0  0  0  0  0  0  0
   38.9031   17.3502    6.0942 C   0  0  0  0  0  0  0  0  0  0  0  0
   40.0143   17.6312    6.8887 C   0  0  0  0  0  0  0  0  0  0  0  0
   43.2042   15.9516    7.9162 C   0  0  2  0  0  0  0  0  0  0  0  0
   43.4749   15.1250    9.1289 C   0  0  0  0  0  0  0  0  0  0  0  0
   44.2858   16.2032    8.8427 C   0  0  0  0  0  0  0  0  0  0  0  0
  1 11  1  0
  1 12  1  6
  2  6  1  0
 13  2  1  0
  2 14  2  0
  3  4  2  0
 14  3  1  0
  5  4  1  0
  6  5  2  0
  6 15  1  0
  7  8  1  6
  8  9  2  0
 10  8  1  0
 11 10  1  6
 10 23  1  0
 11 24  1  0
 13 12  1  6
 12 18  1  0
 15 16  1  0
 15 17  2  0
 18 19  2  0
 18 23  1  0
 19 20  1  0
 20 21  2  0
 21 22  1  0
 22 23  2  0
 24 25  1  1
 24 26  1  0
 25 26  2  0
M  END
$$$$
