
     RDKit          3D

 26 29  0  0  0  0  0  0  0  0999 V2000
   42.4213   17.8736    8.8633 C   0  0  0  0  0  0  0  0  0  0  0  0
   40.2424   18.0074   11.5223 C   0  0  0  0  0  0  0  0  0  0  0  0
   40.1341   15.8603   12.5960 C   0  0  0  0  0  0  0  0  0  0  0  0
   38.9689   16.2353   13.2309 C   0  0  0  0  0  0  0  0  0  0  0  0
   38.4242   17.4852   13.0291 C   0  0  0  0  0  0  0  0  0  0  0  0
   39.0820   18.3689   12.1616 C   0  0  0  0  0  0  0  0  0  0  0  0
   39.3630   15.2395    5.8372 C   0  0  0  0  0  0  0  0  0  0  0  0
   40.5418   15.3674    6.7419 C   0  0  0  0  0  0  0  0  0  0  0  0
   41.1703   14.3318    6.9741 O   0  0  0  0  0  0  0  0  0  0  0  0
   40.9410   16.6032    7.3167 N   0  0  0  0  0  0  0  0  0  0  0  0
   42.2180   16.6649    7.9996 C   0  0  1  0  0  0  0  0  0  0  0  0
   41.2073   18.5228    9.2974 N   0  0  0  0  0  0  0  0  0  0  0  0
   40.8949   18.9432   10.6295 C   0  0  0  0  0  0  0  0  0  0  0  0
   40.7715   16.7338   11.7479 C   0  0  0  0  0  0  0  0  0  0  0  0
   38.4853   19.6754   11.9908 C   0  0  0  0  0  0  0  0  0  0  0  0
   37.5365   20.2087   12.8289 O   0  0  0  0  0  0  0  0  0  0  0  0
   38.8240   20.4294   11.0126 O   0  0  0  0  0  0  0  0  0  0  0  0
   40.2316   18.7300    8.2477 C   0  0  0  0  0  0  0  0  0  0  0  0
   39.4525   19.8877    8.2865 C   0  0  0  0  0  0  0  0  0  0  0  0
   38.5276   20.0391    7.2706 C   0  0  0  0  0  0  0  0  0  0  0  0
   38.4166   19.0739    6.2934 C   0  0  0  0  0  0  0  0  0  0  0  0
   39.2005   17.9240    6.2687 C   0  0  0  0  0  0  0  0  0  0  0  0
   40.1182   17.7622    7.2712 C   0  0  0  0  0  0  0  0  0  0  0  0
   43.2872   16.5927    6.9225 C   0  0  2  0  0  0  0  0  0  0  0  0
   44.6884   16.7476    7.2788 C   0  0  0  0  0  0  0  0  0  0  0  0
   44.0627   17.8019    6.6043 C   0  0  0  0  0  0  0  0  0  0  0  0
 11  1  1  6
 12  1  1  0
  2  6  1  0
 13  2  1  0
  2 14  2  0
  3  4  2  0
 14  3  1  0
  5  4  1  0
  6  5  2  0
  6 15  1  0
  8  7  1  0
  8  9  2  0
 10  8  1  0
 11 10  1  0
 10 23  1  0
 11 24  1  0
 12 13  1  0
 12 18  1  0
 15 16  1  0
 15 17  2  0
 18 19  2  0
 18 23  1  0
 19 20  1  0
 20 21  2  0
 21 22  1  0
 22 23  2  0
 24 25  1  1
 24 26  1  0
 25 26  2  0
M  END
$$$$
