
     RDKit          3D

 26 29  0  0  0  0  0  0  0  0999 V2000
   42.1033   18.2153    9.0058 C   0  0  0  0  0  0  0  0  0  0  0  0
   40.3237   18.4408   11.6099 C   0  0  0  0  0  0  0  0  0  0  0  0
   41.4289   16.8555   13.0380 C   0  0  0  0  0  0  0  0  0  0  0  0
   40.2689   16.7023   13.7676 C   0  0  0  0  0  0  0  0  0  0  0  0
   39.1292   17.4047   13.4399 C   0  0  0  0  0  0  0  0  0  0  0  0
   39.1751   18.2800   12.3454 C   0  0  0  0  0  0  0  0  0  0  0  0
   39.7567   15.5460    5.4281 C   0  0  0  0  0  0  0  0  0  0  0  0
   40.5422   15.6625    6.6905 C   0  0  0  0  0  0  0  0  0  0  0  0
   40.9102   14.6049    7.2076 O   0  0  0  0  0  0  0  0  0  0  0  0
   40.8638   16.9117    7.2850 N   0  0  0  0  0  0  0  0  0  0  0  0
   42.0204   16.9829    8.1557 C   0  0  1  0  0  0  0  0  0  0  0  0
   40.8454   18.8876    9.2276 N   0  0  0  0  0  0  0  0  0  0  0  0
   40.3360   19.3506   10.4826 C   0  0  0  0  0  0  0  0  0  0  0  0
   41.4638   17.7161   11.9672 C   0  0  0  0  0  0  0  0  0  0  0  0
   37.9622   19.0091   12.0460 C   0  0  0  0  0  0  0  0  0  0  0  0
   37.9280   20.2295   11.4164 O   0  0  0  0  0  0  0  0  0  0  0  0
   36.8157   18.5358   12.3651 O   0  0  0  0  0  0  0  0  0  0  0  0
   40.0468   19.0716    8.0338 C   0  0  0  0  0  0  0  0  0  0  0  0
   39.2863   20.2366    7.9184 C   0  0  0  0  0  0  0  0  0  0  0  0
   38.5321   20.3652    6.7673 C   0  0  0  0  0  0  0  0  0  0  0  0
   38.5610   19.3720    5.8126 C   0  0  0  0  0  0  0  0  0  0  0  0
   39.3241   18.2152    5.9425 C   0  0  0  0  0  0  0  0  0  0  0  0
   40.0733   18.0758    7.0794 C   0  0  0  0  0  0  0  0  0  0  0  0
   43.2424   16.8691    7.2600 C   0  0  2  0  0  0  0  0  0  0  0  0
   44.5484   16.6077    7.8435 C   0  0  0  0  0  0  0  0  0  0  0  0
   44.2942   17.8937    7.3541 C   0  0  0  0  0  0  0  0  0  0  0  0
 11  1  1  6
 12  1  1  0
  2  6  1  0
 13  2  1  0
  2 14  2  0
  3  4  2  0
 14  3  1  0
  5  4  1  0
  6  5  2  0
  6 15  1  0
  8  7  1  0
  8  9  2  0
 10  8  1  0
 11 10  1  0
 10 23  1  0
 11 24  1  0
 12 13  1  0
 12 18  1  0
 15 16  1  0
 15 17  2  0
 18 19  2  0
 18 23  1  0
 19 20  1  0
 20 21  2  0
 21 22  1  0
 22 23  2  0
 24 25  1  1
 24 26  1  0
 25 26  2  0
M  END
$$$$
