
     RDKit          3D

 26 29  0  0  0  0  0  0  0  0999 V2000
   40.8548   18.5380    7.5409 C   0  0  0  0  0  0  0  0  0  0  0  0
   38.5363   20.6395    8.6937 C   0  0  0  0  0  0  0  0  0  0  0  0
   36.8570   20.4054    6.9361 C   0  0  0  0  0  0  0  0  0  0  0  0
   36.1873   21.5226    7.3910 C   0  0  0  0  0  0  0  0  0  0  0  0
   36.7054   22.1654    8.4814 C   0  0  0  0  0  0  0  0  0  0  0  0
   37.8780   21.7475    9.1565 C   0  0  0  0  0  0  0  0  0  0  0  0
   42.9388   14.5328    7.3396 C   0  0  0  0  0  0  0  0  0  0  0  0
   41.6842   15.2829    7.5707 C   0  0  0  0  0  0  0  0  0  0  0  0
   40.6555   14.7538    7.0225 O   0  0  0  0  0  0  0  0  0  0  0  0
   41.5205   16.4499    8.3000 N   0  0  0  0  0  0  0  0  0  0  0  0
   42.1317   17.7401    7.9488 C   0  0  1  0  0  0  0  0  0  0  0  0
   40.2186   18.8380    8.7870 N   0  0  0  0  0  0  0  0  0  0  0  0
   39.8227   20.1335    9.2261 C   0  0  0  0  0  0  0  0  0  0  0  0
   37.9917   19.9818    7.5683 C   0  0  0  0  0  0  0  0  0  0  0  0
   38.2784   22.4471   10.3480 C   0  0  0  0  0  0  0  0  0  0  0  0
   38.5033   23.8389   10.2471 O   0  0  0  0  0  0  0  0  0  0  0  0
   38.4512   21.9710   11.4617 O   0  0  0  0  0  0  0  0  0  0  0  0
   39.9783   17.7073    9.6814 C   0  0  0  0  0  0  0  0  0  0  0  0
   39.1088   17.8303   10.7513 C   0  0  0  0  0  0  0  0  0  0  0  0
   38.9351   16.7211   11.5525 C   0  0  0  0  0  0  0  0  0  0  0  0
   39.5838   15.5329   11.3232 C   0  0  0  0  0  0  0  0  0  0  0  0
   40.4451   15.4309   10.2509 C   0  0  0  0  0  0  0  0  0  0  0  0
   40.6421   16.5320    9.4179 C   0  0  0  0  0  0  0  0  0  0  0  0
   43.1457   17.6984    6.8834 C   0  0  2  0  0  0  0  0  0  0  0  0
   42.6692   18.0587    5.5157 C   0  0  0  0  0  0  0  0  0  0  0  0
   42.9837   16.7476    5.8058 C   0  0  0  0  0  0  0  0  0  0  0  0
  1 11  1  0
  1 12  1  6
  2  6  1  0
 13  2  1  0
  2 14  2  0
  3  4  2  0
 14  3  1  0
  5  4  1  0
  6  5  2  0
  6 15  1  0
  7  8  1  6
  8  9  2  0
 10  8  1  0
 11 10  1  6
 10 23  1  0
 11 24  1  0
 13 12  1  6
 12 18  1  0
 15 16  1  0
 15 17  2  0
 18 19  2  0
 18 23  1  0
 19 20  1  0
 20 21  2  0
 21 22  1  0
 22 23  2  0
 24 25  1  6
 24 26  1  0
 25 26  2  0
M  END
$$$$
