
     RDKit          3D

 26 29  0  0  0  0  0  0  0  0999 V2000
   40.1562   18.3680    8.3269 C   0  0  0  0  0  0  0  0  0  0  0  0
   39.8520   19.1943   11.4408 C   0  0  0  0  0  0  0  0  0  0  0  0
   39.4159   18.0830   13.5712 C   0  0  0  0  0  0  0  0  0  0  0  0
   38.0554   18.2407   13.4049 C   0  0  0  0  0  0  0  0  0  0  0  0
   37.6300   18.8699   12.2674 C   0  0  0  0  0  0  0  0  0  0  0  0
   38.5039   19.3598   11.2666 C   0  0  0  0  0  0  0  0  0  0  0  0
   40.7116   15.1866    6.1969 C   0  0  0  0  0  0  0  0  0  0  0  0
   41.6616   16.3194    6.1310 C   0  0  0  0  0  0  0  0  0  0  0  0
   42.4198   16.3008    5.0997 O   0  0  0  0  0  0  0  0  0  0  0  0
   41.7985   17.3601    7.0358 N   0  0  0  0  0  0  0  0  0  0  0  0
   40.9837   18.5838    7.0222 C   0  0  1  0  0  0  0  0  0  0  0  0
   41.0872   18.6406    9.3788 N   0  0  0  0  0  0  0  0  0  0  0  0
   40.8868   19.5614   10.4465 C   0  0  0  0  0  0  0  0  0  0  0  0
   40.2808   18.5451   12.6199 C   0  0  0  0  0  0  0  0  0  0  0  0
   37.9481   20.0867   10.1565 C   0  0  0  0  0  0  0  0  0  0  0  0
   36.8148   20.8947   10.4031 O   0  0  0  0  0  0  0  0  0  0  0  0
   38.3477   20.0889    9.0001 O   0  0  0  0  0  0  0  0  0  0  0  0
   42.3551   17.9154    9.3270 C   0  0  0  0  0  0  0  0  0  0  0  0
   43.1826   17.8672   10.4355 C   0  0  0  0  0  0  0  0  0  0  0  0
   44.3638   17.1662   10.3097 C   0  0  0  0  0  0  0  0  0  0  0  0
   44.7294   16.5336    9.1472 C   0  0  0  0  0  0  0  0  0  0  0  0
   43.8899   16.5928    8.0546 C   0  0  0  0  0  0  0  0  0  0  0  0
   42.6859   17.2905    8.1474 C   0  0  0  0  0  0  0  0  0  0  0  0
   40.1384   18.7760    5.8332 C   0  0  2  0  0  0  0  0  0  0  0  0
   38.8910   17.9584    5.7813 C   0  0  0  0  0  0  0  0  0  0  0  0
   39.9380   17.6607    4.9346 C   0  0  0  0  0  0  0  0  0  0  0  0
  1 11  1  0
  1 12  1  6
  2  6  1  0
 13  2  1  0
  2 14  2  0
  3  4  2  0
 14  3  1  0
  5  4  1  0
  6  5  2  0
  6 15  1  0
  7  8  1  6
  8  9  2  0
 10  8  1  0
 11 10  1  6
 10 23  1  0
 11 24  1  0
 13 12  1  6
 12 18  1  0
 15 16  1  0
 15 17  2  0
 18 19  2  0
 18 23  1  0
 19 20  1  0
 20 21  2  0
 21 22  1  0
 22 23  2  0
 24 25  1  1
 24 26  1  0
 25 26  2  0
M  END
$$$$
