
     RDKit          3D

 26 29  0  0  0  0  0  0  0  0999 V2000
   42.1776   18.2150    8.9784 C   0  0  0  0  0  0  0  0  0  0  0  0
   40.1784   18.9754   11.5494 C   0  0  0  0  0  0  0  0  0  0  0  0
   38.6993   17.3620   12.6324 C   0  0  0  0  0  0  0  0  0  0  0  0
   39.2152   17.6814   13.8716 C   0  0  0  0  0  0  0  0  0  0  0  0
   40.1961   18.6334   13.9177 C   0  0  0  0  0  0  0  0  0  0  0  0
   40.7006   19.2981   12.7735 C   0  0  0  0  0  0  0  0  0  0  0  0
   43.3915   15.9950    6.1161 C   0  0  0  0  0  0  0  0  0  0  0  0
   41.9386   16.1059    6.3747 C   0  0  0  0  0  0  0  0  0  0  0  0
   41.2078   15.6059    5.4502 O   0  0  0  0  0  0  0  0  0  0  0  0
   41.3183   16.6679    7.4792 N   0  0  0  0  0  0  0  0  0  0  0  0
   41.8929   16.6883    8.8323 C   0  0  1  0  0  0  0  0  0  0  0  0
   40.8857   18.7913    9.1936 N   0  0  0  0  0  0  0  0  0  0  0  0
   40.5276   19.6455   10.2754 C   0  0  0  0  0  0  0  0  0  0  0  0
   39.1673   17.9895   11.5128 C   0  0  0  0  0  0  0  0  0  0  0  0
   41.7973   20.2154   12.9323 C   0  0  0  0  0  0  0  0  0  0  0  0
   41.9336   20.8651   14.1802 O   0  0  0  0  0  0  0  0  0  0  0  0
   42.6438   20.5066   12.0983 O   0  0  0  0  0  0  0  0  0  0  0  0
   39.8519   18.4484    8.2190 C   0  0  0  0  0  0  0  0  0  0  0  0
   38.6783   19.1792    8.1532 C   0  0  0  0  0  0  0  0  0  0  0  0
   37.7486   18.7943    7.2098 C   0  0  0  0  0  0  0  0  0  0  0  0
   37.9513   17.7356    6.3592 C   0  0  0  0  0  0  0  0  0  0  0  0
   39.1283   17.0213    6.4402 C   0  0  0  0  0  0  0  0  0  0  0  0
   40.0918   17.3849    7.3807 C   0  0  0  0  0  0  0  0  0  0  0  0
   43.0932   15.8604    9.0299 C   0  0  2  0  0  0  0  0  0  0  0  0
   43.8057   16.0449   10.3281 C   0  0  0  0  0  0  0  0  0  0  0  0
   44.3756   16.5154    9.1637 C   0  0  0  0  0  0  0  0  0  0  0  0
  1 11  1  0
  1 12  1  6
  2  6  1  0
 13  2  1  0
  2 14  2  0
  3  4  2  0
 14  3  1  0
  5  4  1  0
  6  5  2  0
  6 15  1  0
  7  8  1  6
  8  9  2  0
 10  8  1  0
 11 10  1  6
 10 23  1  0
 11 24  1  0
 13 12  1  6
 12 18  1  0
 15 16  1  0
 15 17  2  0
 18 19  2  0
 18 23  1  0
 19 20  1  0
 20 21  2  0
 21 22  1  0
 22 23  2  0
 24 25  1  1
 24 26  1  0
 25 26  2  0
M  END
$$$$
