
     RDKit          3D

 26 29  0  0  0  0  0  0  0  0999 V2000
   39.2540   18.3087    8.1130 C   0  0  0  0  0  0  0  0  0  0  0  0
   38.8682   21.0138    9.4778 C   0  0  0  0  0  0  0  0  0  0  0  0
   39.9692   23.0465    8.8218 C   0  0  0  0  0  0  0  0  0  0  0  0
   38.8557   23.4175    8.0980 C   0  0  0  0  0  0  0  0  0  0  0  0
   37.7420   22.6069    8.0484 C   0  0  0  0  0  0  0  0  0  0  0  0
   37.7660   21.3943    8.7523 C   0  0  0  0  0  0  0  0  0  0  0  0
   43.6437   18.0301    7.4483 C   0  0  0  0  0  0  0  0  0  0  0  0
   42.7846   16.9521    8.0176 C   0  0  0  0  0  0  0  0  0  0  0  0
   43.2969   15.8340    8.1116 O   0  0  0  0  0  0  0  0  0  0  0  0
   41.4464   17.1751    8.4379 N   0  0  0  0  0  0  0  0  0  0  0  0
   40.5262   17.7966    7.5064 C   0  0  1  0  0  0  0  0  0  0  0  0
   39.3199   18.5766    9.5298 N   0  0  0  0  0  0  0  0  0  0  0  0
   38.8586   19.7562   10.1966 C   0  0  0  0  0  0  0  0  0  0  0  0
   39.9829   21.8559    9.5080 C   0  0  0  0  0  0  0  0  0  0  0  0
   36.5831   20.5670    8.6603 C   0  0  0  0  0  0  0  0  0  0  0  0
   35.2984   21.0362    8.7876 O   0  0  0  0  0  0  0  0  0  0  0  0
   36.6774   19.3076    8.4477 O   0  0  0  0  0  0  0  0  0  0  0  0
   39.9400   17.5254   10.3091 C   0  0  0  0  0  0  0  0  0  0  0  0
   39.4466   17.2713   11.5900 C   0  0  0  0  0  0  0  0  0  0  0  0
   40.0751   16.2665   12.3013 C   0  0  0  0  0  0  0  0  0  0  0  0
   41.1273   15.5796   11.7358 C   0  0  0  0  0  0  0  0  0  0  0  0
   41.6087   15.8453   10.4572 C   0  0  0  0  0  0  0  0  0  0  0  0
   40.9955   16.8398    9.7443 C   0  0  0  0  0  0  0  0  0  0  0  0
   40.2279   16.7590    6.4373 C   0  0  2  0  0  0  0  0  0  0  0  0
   39.6574   17.1710    5.1648 C   0  0  0  0  0  0  0  0  0  0  0  0
   38.8280   16.4969    6.0680 C   0  0  0  0  0  0  0  0  0  0  0  0
 11  1  1  1
 12  1  1  0
  2  6  1  0
 13  2  1  0
  2 14  2  0
  3  4  2  0
 14  3  1  0
  5  4  1  0
  6  5  2  0
  6 15  1  0
  8  7  1  0
  8  9  2  0
 10  8  1  0
 11 10  1  0
 10 23  1  0
 11 24  1  0
 12 13  1  0
 12 18  1  0
 15 16  1  0
 15 17  2  0
 18 19  2  0
 18 23  1  0
 19 20  1  0
 20 21  2  0
 21 22  1  0
 22 23  2  0
 24 25  1  6
 24 26  1  0
 25 26  2  0
M  END
$$$$
