
     RDKit          3D

 26 29  0  0  0  0  0  0  0  0999 V2000
   42.5393   18.0849    8.8099 C   0  0  0  0  0  0  0  0  0  0  0  0
   40.4358   18.8516   11.3746 C   0  0  0  0  0  0  0  0  0  0  0  0
   39.1844   16.9261   12.2052 C   0  0  0  0  0  0  0  0  0  0  0  0
   39.1974   17.4373   13.4866 C   0  0  0  0  0  0  0  0  0  0  0  0
   39.8278   18.6357   13.6788 C   0  0  0  0  0  0  0  0  0  0  0  0
   40.4583   19.3672   12.6430 C   0  0  0  0  0  0  0  0  0  0  0  0
   43.5996   15.6632    5.9689 C   0  0  0  0  0  0  0  0  0  0  0  0
   42.1875   16.0690    6.1458 C   0  0  0  0  0  0  0  0  0  0  0  0
   41.4560   15.8632    5.1156 O   0  0  0  0  0  0  0  0  0  0  0  0
   41.6026   16.6199    7.2749 N   0  0  0  0  0  0  0  0  0  0  0  0
   42.1932   16.5756    8.6205 C   0  0  1  0  0  0  0  0  0  0  0  0
   41.2736   18.7038    9.0593 N   0  0  0  0  0  0  0  0  0  0  0  0
   40.9619   19.5370   10.1714 C   0  0  0  0  0  0  0  0  0  0  0  0
   39.7839   17.6125   11.1873 C   0  0  0  0  0  0  0  0  0  0  0  0
   41.1700   20.5714   12.9791 C   0  0  0  0  0  0  0  0  0  0  0  0
   41.0267   21.0730   14.2928 O   0  0  0  0  0  0  0  0  0  0  0  0
   41.8997   21.2270   12.2479 O   0  0  0  0  0  0  0  0  0  0  0  0
   40.2159   18.4320    8.0879 C   0  0  0  0  0  0  0  0  0  0  0  0
   39.0711   19.2096    8.0598 C   0  0  0  0  0  0  0  0  0  0  0  0
   38.1162   18.8908    7.1170 C   0  0  0  0  0  0  0  0  0  0  0  0
   38.2673   17.8522    6.2316 C   0  0  0  0  0  0  0  0  0  0  0  0
   39.4162   17.0905    6.2755 C   0  0  0  0  0  0  0  0  0  0  0  0
   40.4041   17.3867    7.2143 C   0  0  0  0  0  0  0  0  0  0  0  0
   43.3624   15.6959    8.7771 C   0  0  2  0  0  0  0  0  0  0  0  0
   43.9500   15.6308   10.1474 C   0  0  0  0  0  0  0  0  0  0  0  0
   44.6317   16.2847    9.1426 C   0  0  0  0  0  0  0  0  0  0  0  0
  1 11  1  0
  1 12  1  6
  2  6  1  0
 13  2  1  0
  2 14  2  0
  3  4  2  0
 14  3  1  0
  5  4  1  0
  6  5  2  0
  6 15  1  0
  7  8  1  6
  8  9  2  0
 10  8  1  0
 11 10  1  6
 10 23  1  0
 11 24  1  0
 13 12  1  6
 12 18  1  0
 15 16  1  0
 15 17  2  0
 18 19  2  0
 18 23  1  0
 19 20  1  0
 20 21  2  0
 21 22  1  0
 22 23  2  0
 24 25  1  1
 24 26  1  0
 25 26  2  0
M  END
$$$$
