
     RDKit          3D

 26 29  0  0  0  0  0  0  0  0999 V2000
   39.4647   17.8896    7.9023 C   0  0  0  0  0  0  0  0  0  0  0  0
   38.4836   20.7646    8.7721 C   0  0  0  0  0  0  0  0  0  0  0  0
   39.7668   22.4999    7.6292 C   0  0  0  0  0  0  0  0  0  0  0  0
   38.6112   23.1876    7.3204 C   0  0  0  0  0  0  0  0  0  0  0  0
   37.4271   22.6481    7.7416 C   0  0  0  0  0  0  0  0  0  0  0  0
   37.3297   21.4366    8.4683 C   0  0  0  0  0  0  0  0  0  0  0  0
   41.6422   14.5911    7.7738 C   0  0  0  0  0  0  0  0  0  0  0  0
   42.2064   15.9579    7.7127 C   0  0  0  0  0  0  0  0  0  0  0  0
   43.3496   16.0217    7.1401 O   0  0  0  0  0  0  0  0  0  0  0  0
   41.6369   17.1283    8.1883 N   0  0  0  0  0  0  0  0  0  0  0  0
   40.9103   18.0960    7.3534 C   0  0  1  0  0  0  0  0  0  0  0  0
   39.4786   18.5438    9.1748 N   0  0  0  0  0  0  0  0  0  0  0  0
   38.5585   19.5420    9.6050 C   0  0  0  0  0  0  0  0  0  0  0  0
   39.7009   21.3294    8.3308 C   0  0  0  0  0  0  0  0  0  0  0  0
   36.0244   20.9177    8.7789 C   0  0  0  0  0  0  0  0  0  0  0  0
   34.9801   21.1781    7.8627 O   0  0  0  0  0  0  0  0  0  0  0  0
   35.7038   20.2643    9.7623 O   0  0  0  0  0  0  0  0  0  0  0  0
   40.5471   18.1543   10.0929 C   0  0  0  0  0  0  0  0  0  0  0  0
   40.4755   18.4850   11.4350 C   0  0  0  0  0  0  0  0  0  0  0  0
   41.5228   18.0856   12.2389 C   0  0  0  0  0  0  0  0  0  0  0  0
   42.6031   17.3890   11.7561 C   0  0  0  0  0  0  0  0  0  0  0  0
   42.6544   17.0684   10.4158 C   0  0  0  0  0  0  0  0  0  0  0  0
   41.6110   17.4538    9.5744 C   0  0  0  0  0  0  0  0  0  0  0  0
   41.0064   17.8861    5.9002 C   0  0  2  0  0  0  0  0  0  0  0  0
   39.8686   18.4104    5.0893 C   0  0  0  0  0  0  0  0  0  0  0  0
   40.0212   17.0494    5.2516 C   0  0  0  0  0  0  0  0  0  0  0  0
  1 11  1  0
  1 12  1  6
  2  6  1  0
 13  2  1  0
  2 14  2  0
  3  4  2  0
 14  3  1  0
  5  4  1  0
  6  5  2  0
  6 15  1  0
  7  8  1  6
  8  9  2  0
 10  8  1  0
 11 10  1  1
 10 23  1  0
 11 24  1  0
 13 12  1  6
 12 18  1  0
 15 16  1  0
 15 17  2  0
 18 19  2  0
 18 23  1  0
 19 20  1  0
 20 21  2  0
 21 22  1  0
 22 23  2  0
 24 25  1  6
 24 26  1  0
 25 26  2  0
M  END
$$$$
