
     RDKit          3D

 26 29  0  0  0  0  0  0  0  0999 V2000
   41.4282   17.6424    9.6310 C   0  0  0  0  0  0  0  0  0  0  0  0
   39.8862   18.3741   12.1389 C   0  0  0  0  0  0  0  0  0  0  0  0
   40.6057   17.2377   14.1303 C   0  0  0  0  0  0  0  0  0  0  0  0
   41.0590   18.4320   14.6494 C   0  0  0  0  0  0  0  0  0  0  0  0
   40.9384   19.6048   13.9353 C   0  0  0  0  0  0  0  0  0  0  0  0
   40.3428   19.5568   12.6668 C   0  0  0  0  0  0  0  0  0  0  0  0
   39.4122   15.3582    5.7600 C   0  0  0  0  0  0  0  0  0  0  0  0
   40.6795   15.7456    6.4441 C   0  0  0  0  0  0  0  0  0  0  0  0
   41.6836   15.0920    6.1507 O   0  0  0  0  0  0  0  0  0  0  0  0
   40.7535   16.8068    7.3852 N   0  0  0  0  0  0  0  0  0  0  0  0
   41.6475   16.6630    8.5169 C   0  0  1  0  0  0  0  0  0  0  0  0
   40.1106   18.2305    9.6740 N   0  0  0  0  0  0  0  0  0  0  0  0
   39.2723   18.3601   10.8269 C   0  0  0  0  0  0  0  0  0  0  0  0
   40.0236   17.2011   12.8859 C   0  0  0  0  0  0  0  0  0  0  0  0
   40.2507   20.8070   11.9452 C   0  0  0  0  0  0  0  0  0  0  0  0
   41.2902   21.6924   11.7948 O   0  0  0  0  0  0  0  0  0  0  0  0
   39.1540   21.1653   11.3893 O   0  0  0  0  0  0  0  0  0  0  0  0
   39.6251   18.7044    8.3948 C   0  0  0  0  0  0  0  0  0  0  0  0
   38.8376   19.8568    8.3707 C   0  0  0  0  0  0  0  0  0  0  0  0
   38.3880   20.2668    7.1296 C   0  0  0  0  0  0  0  0  0  0  0  0
   38.7247   19.5457    6.0046 C   0  0  0  0  0  0  0  0  0  0  0  0
   39.5106   18.3977    6.0449 C   0  0  0  0  0  0  0  0  0  0  0  0
   39.9595   17.9809    7.2688 C   0  0  0  0  0  0  0  0  0  0  0  0
   43.0596   16.7849    7.9695 C   0  0  2  0  0  0  0  0  0  0  0  0
   44.1789   16.9615    8.8807 C   0  0  0  0  0  0  0  0  0  0  0  0
   43.7747   18.0622    8.1172 C   0  0  0  0  0  0  0  0  0  0  0  0
 11  1  1  1
 12  1  1  0
  2  6  1  0
 13  2  1  0
  2 14  2  0
  3  4  2  0
 14  3  1  0
  5  4  1  0
  6  5  2  0
  6 15  1  0
  8  7  1  0
  8  9  2  0
 10  8  1  0
 11 10  1  0
 10 23  1  0
 11 24  1  0
 12 13  1  0
 12 18  1  0
 15 16  1  0
 15 17  2  0
 18 19  2  0
 18 23  1  0
 19 20  1  0
 20 21  2  0
 21 22  1  0
 22 23  2  0
 24 25  1  1
 24 26  1  0
 25 26  2  0
M  END
$$$$
