
     RDKit          3D

 26 29  0  0  0  0  0  0  0  0999 V2000
   41.1183   17.6115    9.6637 C   0  0  0  0  0  0  0  0  0  0  0  0
   38.2558   19.2332    9.4493 C   0  0  0  0  0  0  0  0  0  0  0  0
   36.5534   17.5444    9.6049 C   0  0  0  0  0  0  0  0  0  0  0  0
   35.6604   18.3849    8.9745 C   0  0  0  0  0  0  0  0  0  0  0  0
   36.0395   19.6483    8.5748 C   0  0  0  0  0  0  0  0  0  0  0  0
   37.3564   20.0610    8.8233 C   0  0  0  0  0  0  0  0  0  0  0  0
   40.7980   16.5939    4.9193 C   0  0  0  0  0  0  0  0  0  0  0  0
   41.5580   16.2584    6.1579 C   0  0  0  0  0  0  0  0  0  0  0  0
   42.1329   15.1672    6.1705 O   0  0  0  0  0  0  0  0  0  0  0  0
   41.6328   17.1313    7.2758 N   0  0  0  0  0  0  0  0  0  0  0  0
   41.3574   16.5903    8.5920 C   0  0  1  0  0  0  0  0  0  0  0  0
   40.6996   18.9079    9.1866 N   0  0  0  0  0  0  0  0  0  0  0  0
   39.6099   19.6894    9.6875 C   0  0  0  0  0  0  0  0  0  0  0  0
   37.8418   17.9583    9.8442 C   0  0  0  0  0  0  0  0  0  0  0  0
   37.7076   21.3995    8.4022 C   0  0  0  0  0  0  0  0  0  0  0  0
   36.9518   22.1658    7.5488 O   0  0  0  0  0  0  0  0  0  0  0  0
   38.7815   21.9587    8.8194 O   0  0  0  0  0  0  0  0  0  0  0  0
   41.4788   19.4175    8.0776 C   0  0  0  0  0  0  0  0  0  0  0  0
   41.7158   20.7916    8.0104 C   0  0  0  0  0  0  0  0  0  0  0  0
   42.4551   21.2345    6.9298 C   0  0  0  0  0  0  0  0  0  0  0  0
   42.9131   20.3318    5.9948 C   0  0  0  0  0  0  0  0  0  0  0  0
   42.6678   18.9641    6.0751 C   0  0  0  0  0  0  0  0  0  0  0  0
   41.9346   18.5143    7.1397 C   0  0  0  0  0  0  0  0  0  0  0  0
   42.5398   15.7064    8.9512 C   0  0  2  0  0  0  0  0  0  0  0  0
   42.7608   15.3161   10.3344 C   0  0  0  0  0  0  0  0  0  0  0  0
   43.6240   16.2645    9.7746 C   0  0  0  0  0  0  0  0  0  0  0  0
 11  1  1  1
 12  1  1  0
  2  6  1  0
 13  2  1  0
  2 14  2  0
  3  4  2  0
 14  3  1  0
  5  4  1  0
  6  5  2  0
  6 15  1  0
  8  7  1  0
  8  9  2  0
 10  8  1  0
 11 10  1  0
 10 23  1  0
 11 24  1  0
 12 13  1  0
 12 18  1  0
 15 16  1  0
 15 17  2  0
 18 19  2  0
 18 23  1  0
 19 20  1  0
 20 21  2  0
 21 22  1  0
 22 23  2  0
 24 25  1  1
 24 26  1  0
 25 26  2  0
M  END
$$$$
