
     RDKit          3D

 26 29  0  0  0  0  0  0  0  0999 V2000
   42.2838   18.3581    8.7562 C   0  0  0  0  0  0  0  0  0  0  0  0
   39.9739   19.0101   11.2570 C   0  0  0  0  0  0  0  0  0  0  0  0
   39.6958   16.9105   12.4728 C   0  0  0  0  0  0  0  0  0  0  0  0
   38.9179   17.5352   13.4259 C   0  0  0  0  0  0  0  0  0  0  0  0
   38.6906   18.8750   13.2721 C   0  0  0  0  0  0  0  0  0  0  0  0
   39.2061   19.6416   12.1988 C   0  0  0  0  0  0  0  0  0  0  0  0
   43.5592   16.3947    5.7872 C   0  0  0  0  0  0  0  0  0  0  0  0
   42.2377   16.0241    6.3407 C   0  0  0  0  0  0  0  0  0  0  0  0
   41.6635   15.0665    5.7145 O   0  0  0  0  0  0  0  0  0  0  0  0
   41.5920   16.5845    7.4312 N   0  0  0  0  0  0  0  0  0  0  0  0
   42.2167   16.7996    8.7446 C   0  0  1  0  0  0  0  0  0  0  0  0
   40.9329   18.7632    8.9979 N   0  0  0  0  0  0  0  0  0  0  0  0
   40.5031   19.6468   10.0287 C   0  0  0  0  0  0  0  0  0  0  0  0
   40.2042   17.6267   11.4263 C   0  0  0  0  0  0  0  0  0  0  0  0
   38.9782   21.0620   12.1893 C   0  0  0  0  0  0  0  0  0  0  0  0
   38.5199   21.6607   13.3848 O   0  0  0  0  0  0  0  0  0  0  0  0
   39.1369   21.8296   11.2499 O   0  0  0  0  0  0  0  0  0  0  0  0
   39.9176   18.1974    8.1117 C   0  0  0  0  0  0  0  0  0  0  0  0
   38.6489   18.7478    8.0552 C   0  0  0  0  0  0  0  0  0  0  0  0
   37.7440   18.1578    7.1976 C   0  0  0  0  0  0  0  0  0  0  0  0
   38.0599   17.0702    6.4213 C   0  0  0  0  0  0  0  0  0  0  0  0
   39.3302   16.5378    6.4917 C   0  0  0  0  0  0  0  0  0  0  0  0
   40.2716   17.1112    7.3461 C   0  0  0  0  0  0  0  0  0  0  0  0
   43.5316   16.1683    8.9384 C   0  0  2  0  0  0  0  0  0  0  0  0
   44.0014   16.0614   10.3509 C   0  0  0  0  0  0  0  0  0  0  0  0
   44.6070   16.9583    9.4959 C   0  0  0  0  0  0  0  0  0  0  0  0
  1 11  1  0
  1 12  1  6
  2  6  1  0
 13  2  1  0
  2 14  2  0
  3  4  2  0
 14  3  1  0
  5  4  1  0
  6  5  2  0
  6 15  1  0
  7  8  1  6
  8  9  2  0
 10  8  1  0
 11 10  1  6
 10 23  1  0
 11 24  1  0
 13 12  1  6
 12 18  1  0
 15 16  1  0
 15 17  2  0
 18 19  2  0
 18 23  1  0
 19 20  1  0
 20 21  2  0
 21 22  1  0
 22 23  2  0
 24 25  1  1
 24 26  1  0
 25 26  2  0
M  END
$$$$
