
     RDKit          3D

 26 29  0  0  0  0  0  0  0  0999 V2000
   42.2262   18.3045    8.9170 C   0  0  0  0  0  0  0  0  0  0  0  0
   40.1001   18.5701   11.6040 C   0  0  0  0  0  0  0  0  0  0  0  0
   40.1145   16.5469   12.9005 C   0  0  0  0  0  0  0  0  0  0  0  0
   38.8890   16.8808   13.4372 C   0  0  0  0  0  0  0  0  0  0  0  0
   38.2528   18.0487   13.0753 C   0  0  0  0  0  0  0  0  0  0  0  0
   38.8802   18.8915   12.1467 C   0  0  0  0  0  0  0  0  0  0  0  0
   38.9299   15.3501    6.5891 C   0  0  0  0  0  0  0  0  0  0  0  0
   40.3356   15.6640    6.9759 C   0  0  0  0  0  0  0  0  0  0  0  0
   41.1577   14.7541    6.8429 O   0  0  0  0  0  0  0  0  0  0  0  0
   40.7327   16.9343    7.4716 N   0  0  0  0  0  0  0  0  0  0  0  0
   42.0201   17.0462    8.1280 C   0  0  1  0  0  0  0  0  0  0  0  0
   41.0134   18.9673    9.3335 N   0  0  0  0  0  0  0  0  0  0  0  0
   40.7191   19.4614   10.6443 C   0  0  0  0  0  0  0  0  0  0  0  0
   40.7214   17.3799   11.9914 C   0  0  0  0  0  0  0  0  0  0  0  0
   38.1858   20.1141   11.8070 C   0  0  0  0  0  0  0  0  0  0  0  0
   38.8084   21.3079   11.5345 O   0  0  0  0  0  0  0  0  0  0  0  0
   36.9073   20.1466   11.7408 O   0  0  0  0  0  0  0  0  0  0  0  0
   40.0187   19.1053    8.2904 C   0  0  0  0  0  0  0  0  0  0  0  0
   39.2294   20.2567    8.2757 C   0  0  0  0  0  0  0  0  0  0  0  0
   38.2865   20.3413    7.2685 C   0  0  0  0  0  0  0  0  0  0  0  0
   38.1686   19.3203    6.3507 C   0  0  0  0  0  0  0  0  0  0  0  0
   38.9627   18.1776    6.3790 C   0  0  0  0  0  0  0  0  0  0  0  0
   39.8983   18.0818    7.3733 C   0  0  0  0  0  0  0  0  0  0  0  0
   43.0720   16.9209    7.0388 C   0  0  2  0  0  0  0  0  0  0  0  0
   44.4659   16.7115    7.3961 C   0  0  0  0  0  0  0  0  0  0  0  0
   44.0952   17.9704    6.9105 C   0  0  0  0  0  0  0  0  0  0  0  0
 11  1  1  6
 12  1  1  0
  2  6  1  0
 13  2  1  0
  2 14  2  0
  3  4  2  0
 14  3  1  0
  5  4  1  0
  6  5  2  0
  6 15  1  0
  8  7  1  0
  8  9  2  0
 10  8  1  0
 11 10  1  0
 10 23  1  0
 11 24  1  0
 12 13  1  0
 12 18  1  0
 15 16  1  0
 15 17  2  0
 18 19  2  0
 18 23  1  0
 19 20  1  0
 20 21  2  0
 21 22  1  0
 22 23  2  0
 24 25  1  1
 24 26  1  0
 25 26  2  0
M  END
$$$$
