
     RDKit          3D

 24 27  0  0  0  0  0  0  0  0999 V2000
  -23.4118  -17.6415   12.1872 C   0  0  0  0  0  0  0  0  0  0  0  0
  -22.9390  -21.8042   10.9004 C   0  0  0  0  0  0  0  0  0  0  0  0
  -23.1570  -21.7358    8.4965 C   0  0  0  0  0  0  0  0  0  0  0  0
  -23.3079  -23.1476   10.8262 C   0  0  0  0  0  0  0  0  0  0  0  0
  -23.0891  -26.0331    8.9587 C   0  0  0  0  0  0  0  0  0  0  0  0
  -24.6921  -18.1529   11.9824 C   0  0  0  0  0  0  0  0  0  0  0  0
  -15.7475  -17.6419   13.4817 N   0  0  0  0  0  0  0  0  0  0  0  0
  -17.0348  -17.0919   13.2130 C   0  0  0  0  0  0  0  0  0  0  0  0
  -17.3507  -15.7798   13.0346 N   0  0  0  0  0  0  0  0  0  0  0  0
  -18.6504  -15.6540   12.8042 N   0  0  0  0  0  0  0  0  0  0  0  0
  -19.2472  -16.8520   12.8184 C   0  0  0  0  0  0  0  0  0  0  0  0
  -18.2405  -17.7570   13.0740 C   0  0  0  0  0  0  0  0  0  0  0  0
  -20.6704  -17.1033   12.6034 C   0  0  0  0  0  0  0  0  0  0  0  0
  -21.5922  -16.0839   12.5006 C   0  0  0  0  0  0  0  0  0  0  0  0
  -22.9466  -16.3475   12.2950 C   0  0  0  0  0  0  0  0  0  0  0  0
  -22.4968  -18.6798   12.2889 C   0  0  0  0  0  0  0  0  0  0  0  0
  -21.1555  -18.3923   12.4929 C   0  0  0  0  0  0  0  0  0  0  0  0
  -23.2047  -19.8130   12.1487 N   0  0  0  0  0  0  0  0  0  0  0  0
  -22.6405  -21.1557   12.1984 C   0  0  0  0  0  0  0  0  0  0  0  0
  -22.8773  -21.1371    9.7023 C   0  0  0  0  0  0  0  0  0  0  0  0
  -23.5149  -23.0576    8.4740 C   0  0  0  0  0  0  0  0  0  0  0  0
  -23.5962  -23.7863    9.6423 C   0  0  0  0  0  0  0  0  0  0  0  0
  -23.9627  -25.1276    9.5875 O   0  0  0  0  0  0  0  0  0  0  0  0
  -24.5238  -19.5135   11.9638 C   0  0  0  0  0  0  0  0  0  0  0  0
  6  1  1  0
  1 15  2  0
 16  1  1  0
  4  2  2  0
  2 19  1  0
  2 20  1  0
  3 20  2  0
 21  3  1  0
 22  4  1  0
 23  5  1  0
 24  6  2  0
  8  7  1  0
  8  9  2  0
 12  8  1  0
 10  9  1  0
 11 10  1  0
 11 12  2  0
 13 11  1  0
 13 14  2  0
 17 13  1  0
 15 14  1  0
 16 17  2  0
 18 16  1  0
 19 18  1  0
 18 24  1  0
 22 21  2  0
 22 23  1  0
M  END
$$$$
