
     RDKit          3D

 24 27  0  0  0  0  0  0  0  0999 V2000
  -22.8820  -18.5609   13.7154 C   0  0  0  0  0  0  0  0  0  0  0  0
  -23.3119  -20.7266   10.0153 C   0  0  0  0  0  0  0  0  0  0  0  0
  -23.7869  -23.0047   10.6595 C   0  0  0  0  0  0  0  0  0  0  0  0
  -22.6015  -21.2531    8.9362 C   0  0  0  0  0  0  0  0  0  0  0  0
  -21.2784  -22.2070    6.6578 C   0  0  0  0  0  0  0  0  0  0  0  0
  -24.2268  -18.9241   13.7651 C   0  0  0  0  0  0  0  0  0  0  0  0
  -15.9258  -17.0010   10.6180 N   0  0  0  0  0  0  0  0  0  0  0  0
  -16.8978  -17.1720   11.6465 C   0  0  0  0  0  0  0  0  0  0  0  0
  -16.7161  -17.0207   12.9872 N   0  0  0  0  0  0  0  0  0  0  0  0
  -17.8508  -17.2638   13.6285 N   0  0  0  0  0  0  0  0  0  0  0  0
  -18.8203  -17.5818   12.7619 C   0  0  0  0  0  0  0  0  0  0  0  0
  -18.2296  -17.5260   11.5187 C   0  0  0  0  0  0  0  0  0  0  0  0
  -20.2018  -17.9120   13.1046 C   0  0  0  0  0  0  0  0  0  0  0  0
  -20.6785  -17.8421   14.3958 C   0  0  0  0  0  0  0  0  0  0  0  0
  -22.0019  -18.1621   14.6996 C   0  0  0  0  0  0  0  0  0  0  0  0
  -22.4180  -18.6369   12.4098 C   0  0  0  0  0  0  0  0  0  0  0  0
  -21.0981  -18.3134   12.1328 C   0  0  0  0  0  0  0  0  0  0  0  0
  -23.4625  -19.0414   11.6679 N   0  0  0  0  0  0  0  0  0  0  0  0
  -23.4214  -19.2647   10.2285 C   0  0  0  0  0  0  0  0  0  0  0  0
  -23.8897  -21.6473   10.8534 C   0  0  0  0  0  0  0  0  0  0  0  0
  -23.0788  -23.4745    9.5855 C   0  0  0  0  0  0  0  0  0  0  0  0
  -22.4731  -22.6031    8.7043 C   0  0  0  0  0  0  0  0  0  0  0  0
  -21.7603  -23.1104    7.6222 O   0  0  0  0  0  0  0  0  0  0  0  0
  -24.5555  -19.2178   12.4668 C   0  0  0  0  0  0  0  0  0  0  0  0
  6  1  1  0
  1 15  2  0
 16  1  1  0
  4  2  2  0
  2 19  1  0
  2 20  1  0
  3 20  2  0
 21  3  1  0
 22  4  1  0
 23  5  1  0
 24  6  2  0
  8  7  1  0
  8  9  2  0
 12  8  1  0
 10  9  1  0
 11 10  1  0
 11 12  2  0
 13 11  1  0
 13 14  2  0
 17 13  1  0
 15 14  1  0
 16 17  2  0
 18 16  1  0
 19 18  1  0
 18 24  1  0
 22 21  2  0
 22 23  1  0
M  END
$$$$
