
     RDKit          3D

 24 27  0  0  0  0  0  0  0  0999 V2000
  -23.4603  -18.2565   12.1855 C   0  0  0  0  0  0  0  0  0  0  0  0
  -22.6349  -21.7856    9.8437 C   0  0  0  0  0  0  0  0  0  0  0  0
  -23.7037  -21.4871    7.6990 C   0  0  0  0  0  0  0  0  0  0  0  0
  -21.5751  -22.3767    9.1554 C   0  0  0  0  0  0  0  0  0  0  0  0
  -19.5410  -23.8365    7.8731 C   0  0  0  0  0  0  0  0  0  0  0  0
  -24.7442  -18.7706   12.0119 C   0  0  0  0  0  0  0  0  0  0  0  0
  -15.6916  -18.1358   12.4034 N   0  0  0  0  0  0  0  0  0  0  0  0
  -17.0174  -17.6247   12.5164 C   0  0  0  0  0  0  0  0  0  0  0  0
  -17.3882  -16.3619   12.8644 N   0  0  0  0  0  0  0  0  0  0  0  0
  -18.7103  -16.2609   12.8616 N   0  0  0  0  0  0  0  0  0  0  0  0
  -19.2689  -17.4279   12.5185 C   0  0  0  0  0  0  0  0  0  0  0  0
  -18.2137  -18.2863   12.3010 C   0  0  0  0  0  0  0  0  0  0  0  0
  -20.7017  -17.6932   12.4095 C   0  0  0  0  0  0  0  0  0  0  0  0
  -21.6514  -16.7218   12.6411 C   0  0  0  0  0  0  0  0  0  0  0  0
  -23.0144  -16.9979   12.5310 C   0  0  0  0  0  0  0  0  0  0  0  0
  -22.5170  -19.2464   11.9491 C   0  0  0  0  0  0  0  0  0  0  0  0
  -21.1676  -18.9473   12.0646 C   0  0  0  0  0  0  0  0  0  0  0  0
  -23.2112  -20.3530   11.6351 N   0  0  0  0  0  0  0  0  0  0  0  0
  -22.6155  -21.6446   11.3182 C   0  0  0  0  0  0  0  0  0  0  0  0
  -23.6817  -21.3544    9.0675 C   0  0  0  0  0  0  0  0  0  0  0  0
  -22.6397  -22.0743    7.0676 C   0  0  0  0  0  0  0  0  0  0  0  0
  -21.5554  -22.5297    7.7883 C   0  0  0  0  0  0  0  0  0  0  0  0
  -20.4891  -23.1221    7.1186 O   0  0  0  0  0  0  0  0  0  0  0  0
  -24.5491  -20.0836   11.6683 C   0  0  0  0  0  0  0  0  0  0  0  0
  6  1  1  0
  1 15  2  0
 16  1  1  0
  4  2  2  0
  2 19  1  0
  2 20  1  0
  3 20  2  0
 21  3  1  0
 22  4  1  0
 23  5  1  0
 24  6  2  0
  8  7  1  0
  8  9  2  0
 12  8  1  0
 10  9  1  0
 11 10  1  0
 11 12  2  0
 13 11  1  0
 13 14  2  0
 17 13  1  0
 15 14  1  0
 16 17  2  0
 18 16  1  0
 19 18  1  0
 18 24  1  0
 22 21  2  0
 22 23  1  0
M  END
$$$$
