
     RDKit          3D

 24 27  0  0  0  0  0  0  0  0999 V2000
  -24.1800  -18.7930   11.8830 C   0  0  0  0  0  0  0  0  0  0  0  0
  -22.6134  -22.1805    9.7852 C   0  0  0  0  0  0  0  0  0  0  0  0
  -22.8578  -23.8994   11.4634 C   0  0  0  0  0  0  0  0  0  0  0  0
  -21.6248  -22.9796    9.2103 C   0  0  0  0  0  0  0  0  0  0  0  0
  -20.4702  -26.3706    9.0509 C   0  0  0  0  0  0  0  0  0  0  0  0
  -25.3816  -19.3954   11.5138 C   0  0  0  0  0  0  0  0  0  0  0  0
  -16.5257  -17.4758   12.2058 N   0  0  0  0  0  0  0  0  0  0  0  0
  -17.9137  -17.2133   12.3961 C   0  0  0  0  0  0  0  0  0  0  0  0
  -18.4750  -16.1085   12.9598 N   0  0  0  0  0  0  0  0  0  0  0  0
  -19.7959  -16.2230   12.9633 N   0  0  0  0  0  0  0  0  0  0  0  0
  -20.1672  -17.3855   12.4133 C   0  0  0  0  0  0  0  0  0  0  0  0
  -18.9927  -18.0104   12.0560 C   0  0  0  0  0  0  0  0  0  0  0  0
  -21.5408  -17.8547   12.2463 C   0  0  0  0  0  0  0  0  0  0  0  0
  -22.5755  -17.4048   13.0377 C   0  0  0  0  0  0  0  0  0  0  0  0
  -23.8797  -17.8669   12.8600 C   0  0  0  0  0  0  0  0  0  0  0  0
  -23.1496  -19.2567   11.0775 C   0  0  0  0  0  0  0  0  0  0  0  0
  -21.8613  -18.7820   11.2735 C   0  0  0  0  0  0  0  0  0  0  0  0
  -23.7098  -20.1317   10.2257 N   0  0  0  0  0  0  0  0  0  0  0  0
  -22.9856  -20.8715    9.2002 C   0  0  0  0  0  0  0  0  0  0  0  0
  -23.2038  -22.6862   10.9166 C   0  0  0  0  0  0  0  0  0  0  0  0
  -21.8811  -24.6487   10.8631 C   0  0  0  0  0  0  0  0  0  0  0  0
  -21.2474  -24.1990    9.7236 C   0  0  0  0  0  0  0  0  0  0  0  0
  -20.2588  -24.9826    9.1363 O   0  0  0  0  0  0  0  0  0  0  0  0
  -25.0488  -20.2258   10.4747 C   0  0  0  0  0  0  0  0  0  0  0  0
  6  1  1  0
  1 15  2  0
 16  1  1  0
  4  2  2  0
  2 19  1  0
  2 20  1  0
  3 20  2  0
 21  3  1  0
 22  4  1  0
 23  5  1  0
 24  6  2  0
  8  7  1  0
  8  9  2  0
 12  8  1  0
 10  9  1  0
 11 10  1  0
 11 12  2  0
 13 11  1  0
 13 14  2  0
 17 13  1  0
 15 14  1  0
 16 17  2  0
 18 16  1  0
 19 18  1  0
 18 24  1  0
 22 21  2  0
 22 23  1  0
M  END
$$$$
