
     RDKit          3D

 24 27  0  0  0  0  0  0  0  0999 V2000
  -23.4166  -17.6153   12.1277 C   0  0  0  0  0  0  0  0  0  0  0  0
  -23.2307  -21.7556   10.5743 C   0  0  0  0  0  0  0  0  0  0  0  0
  -25.1542  -22.5032    9.3206 C   0  0  0  0  0  0  0  0  0  0  0  0
  -22.4450  -22.2709    9.5430 C   0  0  0  0  0  0  0  0  0  0  0  0
  -20.7745  -23.2762    7.5358 C   0  0  0  0  0  0  0  0  0  0  0  0
  -24.6960  -18.1124   11.8854 C   0  0  0  0  0  0  0  0  0  0  0  0
  -15.7196  -17.6856   13.2076 N   0  0  0  0  0  0  0  0  0  0  0  0
  -17.0231  -17.1239   13.0774 C   0  0  0  0  0  0  0  0  0  0  0  0
  -17.3665  -15.8088   13.1540 N   0  0  0  0  0  0  0  0  0  0  0  0
  -18.6741  -15.6712   12.9829 N   0  0  0  0  0  0  0  0  0  0  0  0
  -19.2496  -16.8640   12.7885 C   0  0  0  0  0  0  0  0  0  0  0  0
  -18.2206  -17.7781   12.8466 C   0  0  0  0  0  0  0  0  0  0  0  0
  -20.6737  -17.1024   12.5653 C   0  0  0  0  0  0  0  0  0  0  0  0
  -21.6035  -16.0852   12.5820 C   0  0  0  0  0  0  0  0  0  0  0  0
  -22.9586  -16.3363   12.3661 C   0  0  0  0  0  0  0  0  0  0  0  0
  -22.4935  -18.6512   12.1079 C   0  0  0  0  0  0  0  0  0  0  0  0
  -21.1516  -18.3763   12.3250 C   0  0  0  0  0  0  0  0  0  0  0  0
  -23.1957  -19.7689   11.8572 N   0  0  0  0  0  0  0  0  0  0  0  0
  -22.6220  -21.1048   11.7577 C   0  0  0  0  0  0  0  0  0  0  0  0
  -24.5869  -21.8967   10.4165 C   0  0  0  0  0  0  0  0  0  0  0  0
  -24.3417  -22.9939    8.3333 C   0  0  0  0  0  0  0  0  0  0  0  0
  -22.9701  -22.8850    8.4295 C   0  0  0  0  0  0  0  0  0  0  0  0
  -22.1706  -23.3933    7.4103 O   0  0  0  0  0  0  0  0  0  0  0  0
  -24.5189  -19.4621   11.7210 C   0  0  0  0  0  0  0  0  0  0  0  0
  6  1  1  0
  1 15  2  0
 16  1  1  0
  4  2  2  0
  2 19  1  0
  2 20  1  0
  3 20  2  0
 21  3  1  0
 22  4  1  0
 23  5  1  0
 24  6  2  0
  8  7  1  0
  8  9  2  0
 12  8  1  0
 10  9  1  0
 11 10  1  0
 11 12  2  0
 13 11  1  0
 13 14  2  0
 17 13  1  0
 15 14  1  0
 16 17  2  0
 18 16  1  0
 19 18  1  0
 18 24  1  0
 22 21  2  0
 22 23  1  0
M  END
$$$$
