
     RDKit          3D

 24 27  0  0  0  0  0  0  0  0999 V2000
  -23.5174  -17.9869   12.0477 C   0  0  0  0  0  0  0  0  0  0  0  0
  -22.8685  -21.9516   10.2810 C   0  0  0  0  0  0  0  0  0  0  0  0
  -23.7474  -23.6464    8.8025 C   0  0  0  0  0  0  0  0  0  0  0  0
  -22.5356  -21.2251    9.1375 C   0  0  0  0  0  0  0  0  0  0  0  0
  -22.5372  -21.5565    5.4739 C   0  0  0  0  0  0  0  0  0  0  0  0
  -24.7691  -18.5298   11.7623 C   0  0  0  0  0  0  0  0  0  0  0  0
  -15.8486  -17.7667   13.2947 N   0  0  0  0  0  0  0  0  0  0  0  0
  -17.1732  -17.2576   13.1605 C   0  0  0  0  0  0  0  0  0  0  0  0
  -17.5770  -15.9638   13.2881 N   0  0  0  0  0  0  0  0  0  0  0  0
  -18.8857  -15.8763   13.0940 N   0  0  0  0  0  0  0  0  0  0  0  0
  -19.4027  -17.0833   12.8335 C   0  0  0  0  0  0  0  0  0  0  0  0
  -18.3350  -17.9528   12.8738 C   0  0  0  0  0  0  0  0  0  0  0  0
  -20.8098  -17.3738   12.5679 C   0  0  0  0  0  0  0  0  0  0  0  0
  -21.7798  -16.3948   12.5776 C   0  0  0  0  0  0  0  0  0  0  0  0
  -23.1177  -16.6955   12.3209 C   0  0  0  0  0  0  0  0  0  0  0  0
  -22.5533  -18.9848   12.0344 C   0  0  0  0  0  0  0  0  0  0  0  0
  -21.2297  -18.6609   12.2924 C   0  0  0  0  0  0  0  0  0  0  0  0
  -23.2032  -20.1246   11.7452 N   0  0  0  0  0  0  0  0  0  0  0  0
  -22.5739  -21.4346   11.6376 C   0  0  0  0  0  0  0  0  0  0  0  0
  -23.4759  -23.1627   10.0607 C   0  0  0  0  0  0  0  0  0  0  0  0
  -23.4019  -22.8968    7.7096 C   0  0  0  0  0  0  0  0  0  0  0  0
  -22.7886  -21.6706    7.8606 C   0  0  0  0  0  0  0  0  0  0  0  0
  -22.4494  -20.9319    6.7312 O   0  0  0  0  0  0  0  0  0  0  0  0
  -24.5337  -19.8681   11.5789 C   0  0  0  0  0  0  0  0  0  0  0  0
  6  1  1  0
  1 15  2  0
 16  1  1  0
  4  2  2  0
  2 19  1  0
  2 20  1  0
  3 20  2  0
 21  3  1  0
 22  4  1  0
 23  5  1  0
 24  6  2  0
  8  7  1  0
  8  9  2  0
 12  8  1  0
 10  9  1  0
 11 10  1  0
 11 12  2  0
 13 11  1  0
 13 14  2  0
 17 13  1  0
 15 14  1  0
 16 17  2  0
 18 16  1  0
 19 18  1  0
 18 24  1  0
 22 21  2  0
 22 23  1  0
M  END
$$$$
