
     RDKit          3D

 24 27  0  0  0  0  0  0  0  0999 V2000
  -23.4227  -20.8514   12.0506 C   0  0  0  0  0  0  0  0  0  0  0  0
  -23.8217  -20.1361    7.8215 C   0  0  0  0  0  0  0  0  0  0  0  0
  -23.4564  -20.5338    5.4680 C   0  0  0  0  0  0  0  0  0  0  0  0
  -22.9677  -21.2121    8.0650 C   0  0  0  0  0  0  0  0  0  0  0  0
  -20.4156  -23.2119    6.4747 C   0  0  0  0  0  0  0  0  0  0  0  0
  -24.4625  -21.7207   11.7250 C   0  0  0  0  0  0  0  0  0  0  0  0
  -17.3256  -16.1961   13.4130 N   0  0  0  0  0  0  0  0  0  0  0  0
  -18.5768  -16.6093   12.8694 C   0  0  0  0  0  0  0  0  0  0  0  0
  -19.3869  -15.9034   12.0335 N   0  0  0  0  0  0  0  0  0  0  0  0
  -20.4666  -16.6152   11.7408 N   0  0  0  0  0  0  0  0  0  0  0  0
  -20.4258  -17.8034   12.3559 C   0  0  0  0  0  0  0  0  0  0  0  0
  -19.2444  -17.8059   13.0644 C   0  0  0  0  0  0  0  0  0  0  0  0
  -21.4419  -18.8497   12.2676 C   0  0  0  0  0  0  0  0  0  0  0  0
  -21.5871  -19.8205   13.2349 C   0  0  0  0  0  0  0  0  0  0  0  0
  -22.5648  -20.8100   13.1297 C   0  0  0  0  0  0  0  0  0  0  0  0
  -23.2897  -19.8814   11.0672 C   0  0  0  0  0  0  0  0  0  0  0  0
  -22.3102  -18.9078   11.1945 C   0  0  0  0  0  0  0  0  0  0  0  0
  -24.2341  -20.1508   10.1504 N   0  0  0  0  0  0  0  0  0  0  0  0
  -24.4504  -19.3825    8.9312 C   0  0  0  0  0  0  0  0  0  0  0  0
  -24.0362  -19.8339    6.4998 C   0  0  0  0  0  0  0  0  0  0  0  0
  -22.6247  -21.5829    5.7566 C   0  0  0  0  0  0  0  0  0  0  0  0
  -22.3666  -21.9395    7.0638 C   0  0  0  0  0  0  0  0  0  0  0  0
  -21.5172  -23.0102    7.3257 O   0  0  0  0  0  0  0  0  0  0  0  0
  -24.9463  -21.2516   10.5309 C   0  0  0  0  0  0  0  0  0  0  0  0
  6  1  1  0
  1 15  2  0
 16  1  1  0
  4  2  2  0
  2 19  1  0
  2 20  1  0
  3 20  2  0
 21  3  1  0
 22  4  1  0
 23  5  1  0
 24  6  2  0
  8  7  1  0
  8  9  2  0
 12  8  1  0
 10  9  1  0
 11 10  1  0
 11 12  2  0
 13 11  1  0
 13 14  2  0
 17 13  1  0
 15 14  1  0
 16 17  2  0
 18 16  1  0
 19 18  1  0
 18 24  1  0
 22 21  2  0
 22 23  1  0
M  END
$$$$
