
     RDKit          3D

 24 27  0  0  0  0  0  0  0  0999 V2000
  -22.6815  -17.0901   12.7874 C   0  0  0  0  0  0  0  0  0  0  0  0
  -22.9022  -21.0256   10.8083 C   0  0  0  0  0  0  0  0  0  0  0  0
  -24.9314  -21.1872    9.5095 C   0  0  0  0  0  0  0  0  0  0  0  0
  -22.2851  -21.7791    9.8095 C   0  0  0  0  0  0  0  0  0  0  0  0
  -22.4799  -22.5978    6.3619 C   0  0  0  0  0  0  0  0  0  0  0  0
  -24.0084  -17.5150   12.7445 C   0  0  0  0  0  0  0  0  0  0  0  0
  -14.9308  -17.5456   12.4213 N   0  0  0  0  0  0  0  0  0  0  0  0
  -16.2046  -16.9264   12.5821 C   0  0  0  0  0  0  0  0  0  0  0  0
  -16.4578  -15.6126   12.8335 N   0  0  0  0  0  0  0  0  0  0  0  0
  -17.7656  -15.4114   12.9185 N   0  0  0  0  0  0  0  0  0  0  0  0
  -18.4296  -16.5585   12.7315 C   0  0  0  0  0  0  0  0  0  0  0  0
  -17.4573  -17.5114   12.5203 C   0  0  0  0  0  0  0  0  0  0  0  0
  -19.8813  -16.7222   12.7547 C   0  0  0  0  0  0  0  0  0  0  0  0
  -20.7374  -15.6760   13.0232 C   0  0  0  0  0  0  0  0  0  0  0  0
  -22.1208  -15.8556   13.0398 C   0  0  0  0  0  0  0  0  0  0  0  0
  -21.8336  -18.1544   12.5156 C   0  0  0  0  0  0  0  0  0  0  0  0
  -20.4618  -17.9507   12.5045 C   0  0  0  0  0  0  0  0  0  0  0  0
  -22.6279  -19.2181   12.3089 N   0  0  0  0  0  0  0  0  0  0  0  0
  -22.1534  -20.5606   11.9989 C   0  0  0  0  0  0  0  0  0  0  0  0
  -24.2333  -20.7540   10.6121 C   0  0  0  0  0  0  0  0  0  0  0  0
  -24.2824  -21.9243    8.5550 C   0  0  0  0  0  0  0  0  0  0  0  0
  -22.9448  -22.2327    8.6906 C   0  0  0  0  0  0  0  0  0  0  0  0
  -22.3127  -22.9835    7.7042 O   0  0  0  0  0  0  0  0  0  0  0  0
  -23.9358  -18.8505   12.4425 C   0  0  0  0  0  0  0  0  0  0  0  0
  6  1  1  0
  1 15  2  0
 16  1  1  0
  4  2  2  0
  2 19  1  0
  2 20  1  0
  3 20  2  0
 21  3  1  0
 22  4  1  0
 23  5  1  0
 24  6  2  0
  8  7  1  0
  8  9  2  0
 12  8  1  0
 10  9  1  0
 11 10  1  0
 11 12  2  0
 13 11  1  0
 13 14  2  0
 17 13  1  0
 15 14  1  0
 16 17  2  0
 18 16  1  0
 19 18  1  0
 18 24  1  0
 22 21  2  0
 22 23  1  0
M  END
$$$$
