
     RDKit          3D

 24 27  0  0  0  0  0  0  0  0999 V2000
  -23.0932  -18.4675   13.3966 C   0  0  0  0  0  0  0  0  0  0  0  0
  -23.4033  -21.3778   10.2007 C   0  0  0  0  0  0  0  0  0  0  0  0
  -24.5204  -23.4793    9.7929 C   0  0  0  0  0  0  0  0  0  0  0  0
  -22.3900  -22.1149   10.8140 C   0  0  0  0  0  0  0  0  0  0  0  0
  -21.3848  -25.6038   11.3975 C   0  0  0  0  0  0  0  0  0  0  0  0
  -24.4444  -18.8100   13.3997 C   0  0  0  0  0  0  0  0  0  0  0  0
  -15.8383  -17.6973   10.7157 N   0  0  0  0  0  0  0  0  0  0  0  0
  -16.9122  -17.5979   11.6476 C   0  0  0  0  0  0  0  0  0  0  0  0
  -16.8669  -17.0840   12.9074 N   0  0  0  0  0  0  0  0  0  0  0  0
  -18.0640  -17.1623   13.4720 N   0  0  0  0  0  0  0  0  0  0  0  0
  -18.9434  -17.7204   12.6313 C   0  0  0  0  0  0  0  0  0  0  0  0
  -18.2280  -17.9956   11.4866 C   0  0  0  0  0  0  0  0  0  0  0  0
  -20.3564  -17.9679   12.9088 C   0  0  0  0  0  0  0  0  0  0  0  0
  -20.9444  -17.6225   14.1064 C   0  0  0  0  0  0  0  0  0  0  0  0
  -22.2960  -17.8683   14.3494 C   0  0  0  0  0  0  0  0  0  0  0  0
  -22.5167  -18.8220   12.1852 C   0  0  0  0  0  0  0  0  0  0  0  0
  -21.1710  -18.5669   11.9672 C   0  0  0  0  0  0  0  0  0  0  0  0
  -23.4993  -19.3746   11.4544 N   0  0  0  0  0  0  0  0  0  0  0  0
  -23.3350  -19.9011   10.1056 C   0  0  0  0  0  0  0  0  0  0  0  0
  -24.4531  -22.1089    9.7031 C   0  0  0  0  0  0  0  0  0  0  0  0
  -23.5011  -24.1597   10.4042 C   0  0  0  0  0  0  0  0  0  0  0  0
  -22.4165  -23.4859   10.9259 C   0  0  0  0  0  0  0  0  0  0  0  0
  -21.3962  -24.2047   11.5413 O   0  0  0  0  0  0  0  0  0  0  0  0
  -24.6623  -19.3745   12.1693 C   0  0  0  0  0  0  0  0  0  0  0  0
  6  1  1  0
  1 15  2  0
 16  1  1  0
  4  2  2  0
  2 19  1  0
  2 20  1  0
  3 20  2  0
 21  3  1  0
 22  4  1  0
 23  5  1  0
 24  6  2  0
  8  7  1  0
  8  9  2  0
 12  8  1  0
 10  9  1  0
 11 10  1  0
 11 12  2  0
 13 11  1  0
 13 14  2  0
 17 13  1  0
 15 14  1  0
 16 17  2  0
 18 16  1  0
 19 18  1  0
 18 24  1  0
 22 21  2  0
 22 23  1  0
M  END
$$$$
