
     RDKit          3D

 24 27  0  0  0  0  0  0  0  0999 V2000
  -23.6269  -19.2630   12.3221 C   0  0  0  0  0  0  0  0  0  0  0  0
  -23.3695  -20.1620    7.9428 C   0  0  0  0  0  0  0  0  0  0  0  0
  -24.4863  -21.7305    6.4856 C   0  0  0  0  0  0  0  0  0  0  0  0
  -24.1602  -19.1685    7.3648 C   0  0  0  0  0  0  0  0  0  0  0  0
  -25.6738  -17.0937    6.2534 C   0  0  0  0  0  0  0  0  0  0  0  0
  -24.7530  -19.8635   11.7616 C   0  0  0  0  0  0  0  0  0  0  0  0
  -16.5456  -16.0772   12.6764 N   0  0  0  0  0  0  0  0  0  0  0  0
  -17.7755  -16.6044   13.1675 C   0  0  0  0  0  0  0  0  0  0  0  0
  -18.1627  -16.7216   14.4674 N   0  0  0  0  0  0  0  0  0  0  0  0
  -19.3733  -17.2584   14.5329 N   0  0  0  0  0  0  0  0  0  0  0  0
  -19.8382  -17.5180   13.3048 C   0  0  0  0  0  0  0  0  0  0  0  0
  -18.8419  -17.1106   12.4451 C   0  0  0  0  0  0  0  0  0  0  0  0
  -21.1357  -18.1098   12.9867 C   0  0  0  0  0  0  0  0  0  0  0  0
  -22.1512  -18.2028   13.9138 C   0  0  0  0  0  0  0  0  0  0  0  0
  -23.3824  -18.7720   13.5876 C   0  0  0  0  0  0  0  0  0  0  0  0
  -22.6147  -19.1775   11.3767 C   0  0  0  0  0  0  0  0  0  0  0  0
  -21.3995  -18.6071   11.7250 C   0  0  0  0  0  0  0  0  0  0  0  0
  -23.1116  -19.7179   10.2515 N   0  0  0  0  0  0  0  0  0  0  0  0
  -22.3794  -19.8448    8.9980 C   0  0  0  0  0  0  0  0  0  0  0  0
  -23.5703  -21.4339    7.4672 C   0  0  0  0  0  0  0  0  0  0  0  0
  -25.2400  -20.7212    5.9481 C   0  0  0  0  0  0  0  0  0  0  0  0
  -25.0881  -19.4203    6.3808 C   0  0  0  0  0  0  0  0  0  0  0  0
  -25.8683  -18.4161    5.8156 O   0  0  0  0  0  0  0  0  0  0  0  0
  -24.3939  -20.1341   10.4663 C   0  0  0  0  0  0  0  0  0  0  0  0
  6  1  1  0
  1 15  2  0
 16  1  1  0
  4  2  2  0
  2 19  1  0
  2 20  1  0
  3 20  2  0
 21  3  1  0
 22  4  1  0
 23  5  1  0
 24  6  2  0
  8  7  1  0
  8  9  2  0
 12  8  1  0
 10  9  1  0
 11 10  1  0
 11 12  2  0
 13 11  1  0
 13 14  2  0
 17 13  1  0
 15 14  1  0
 16 17  2  0
 18 16  1  0
 19 18  1  0
 18 24  1  0
 22 21  2  0
 22 23  1  0
M  END
$$$$
