
     RDKit          3D

 24 27  0  0  0  0  0  0  0  0999 V2000
  -23.5933  -21.1838   12.1308 C   0  0  0  0  0  0  0  0  0  0  0  0
  -25.3387  -18.6887    9.1059 C   0  0  0  0  0  0  0  0  0  0  0  0
  -26.6394  -16.8374    8.2624 C   0  0  0  0  0  0  0  0  0  0  0  0
  -25.7571  -18.3110   10.3821 C   0  0  0  0  0  0  0  0  0  0  0  0
  -27.7894  -15.7263   12.0449 C   0  0  0  0  0  0  0  0  0  0  0  0
  -24.7547  -21.9139   11.8842 C   0  0  0  0  0  0  0  0  0  0  0  0
  -18.2272  -15.6022   11.4313 N   0  0  0  0  0  0  0  0  0  0  0  0
  -18.7770  -16.8542   11.8337 C   0  0  0  0  0  0  0  0  0  0  0  0
  -18.1551  -17.8414   12.5352 N   0  0  0  0  0  0  0  0  0  0  0  0
  -18.9864  -18.8574   12.7216 N   0  0  0  0  0  0  0  0  0  0  0  0
  -20.1756  -18.5986   12.1642 C   0  0  0  0  0  0  0  0  0  0  0  0
  -20.0508  -17.3452   11.6064 C   0  0  0  0  0  0  0  0  0  0  0  0
  -21.3360  -19.4865   12.1692 C   0  0  0  0  0  0  0  0  0  0  0  0
  -21.6077  -20.3394   13.2170 C   0  0  0  0  0  0  0  0  0  0  0  0
  -22.7221  -21.1785   13.2001 C   0  0  0  0  0  0  0  0  0  0  0  0
  -23.3340  -20.3312   11.0672 C   0  0  0  0  0  0  0  0  0  0  0  0
  -22.2198  -19.5062   11.1074 C   0  0  0  0  0  0  0  0  0  0  0  0
  -24.3217  -20.5345   10.1795 N   0  0  0  0  0  0  0  0  0  0  0  0
  -24.4413  -19.8490    8.8992 C   0  0  0  0  0  0  0  0  0  0  0  0
  -25.8090  -17.9168    8.0729 C   0  0  0  0  0  0  0  0  0  0  0  0
  -27.0234  -16.5050    9.5343 C   0  0  0  0  0  0  0  0  0  0  0  0
  -26.5867  -17.2390   10.6174 C   0  0  0  0  0  0  0  0  0  0  0  0
  -26.9938  -16.8769   11.8978 O   0  0  0  0  0  0  0  0  0  0  0  0
  -25.1825  -21.4813   10.6554 C   0  0  0  0  0  0  0  0  0  0  0  0
  6  1  1  0
  1 15  2  0
 16  1  1  0
  4  2  2  0
  2 19  1  0
  2 20  1  0
  3 20  2  0
 21  3  1  0
 22  4  1  0
 23  5  1  0
 24  6  2  0
  8  7  1  0
  8  9  2  0
 12  8  1  0
 10  9  1  0
 11 10  1  0
 11 12  2  0
 13 11  1  0
 13 14  2  0
 17 13  1  0
 15 14  1  0
 16 17  2  0
 18 16  1  0
 19 18  1  0
 18 24  1  0
 22 21  2  0
 22 23  1  0
M  END
$$$$
