
     RDKit          3D

 24 27  0  0  0  0  0  0  0  0999 V2000
  -23.4022  -18.2198   12.5333 C   0  0  0  0  0  0  0  0  0  0  0  0
  -22.8214  -21.5440    9.8631 C   0  0  0  0  0  0  0  0  0  0  0  0
  -23.7360  -23.5713   10.8035 C   0  0  0  0  0  0  0  0  0  0  0  0
  -21.6616  -22.2725    9.5978 C   0  0  0  0  0  0  0  0  0  0  0  0
  -20.3668  -25.7103    9.8169 C   0  0  0  0  0  0  0  0  0  0  0  0
  -24.7220  -18.6029   12.3000 C   0  0  0  0  0  0  0  0  0  0  0  0
  -15.7439  -17.5917   11.3627 N   0  0  0  0  0  0  0  0  0  0  0  0
  -16.9923  -17.3997   12.0232 C   0  0  0  0  0  0  0  0  0  0  0  0
  -17.2182  -16.7160   13.1785 N   0  0  0  0  0  0  0  0  0  0  0  0
  -18.5080  -16.7544   13.4831 N   0  0  0  0  0  0  0  0  0  0  0  0
  -19.1864  -17.4512   12.5632 C   0  0  0  0  0  0  0  0  0  0  0  0
  -18.2425  -17.8581   11.6461 C   0  0  0  0  0  0  0  0  0  0  0  0
  -20.6256  -17.7036   12.5684 C   0  0  0  0  0  0  0  0  0  0  0  0
  -21.4571  -17.2126   13.5517 C   0  0  0  0  0  0  0  0  0  0  0  0
  -22.8288  -17.4663   13.5362 C   0  0  0  0  0  0  0  0  0  0  0  0
  -22.5790  -18.7221   11.5356 C   0  0  0  0  0  0  0  0  0  0  0  0
  -21.2184  -18.4560   11.5727 C   0  0  0  0  0  0  0  0  0  0  0  0
  -23.3812  -19.4043   10.7013 N   0  0  0  0  0  0  0  0  0  0  0  0
  -22.9308  -20.1098    9.5085 C   0  0  0  0  0  0  0  0  0  0  0  0
  -23.8361  -22.2410   10.4703 C   0  0  0  0  0  0  0  0  0  0  0  0
  -22.5770  -24.2449   10.5230 C   0  0  0  0  0  0  0  0  0  0  0  0
  -21.5184  -23.6039    9.9139 C   0  0  0  0  0  0  0  0  0  0  0  0
  -20.3535  -24.3148    9.6416 O   0  0  0  0  0  0  0  0  0  0  0  0
  -24.6703  -19.3420   11.1463 C   0  0  0  0  0  0  0  0  0  0  0  0
  6  1  1  0
  1 15  2  0
 16  1  1  0
  4  2  2  0
  2 19  1  0
  2 20  1  0
  3 20  2  0
 21  3  1  0
 22  4  1  0
 23  5  1  0
 24  6  2  0
  8  7  1  0
  8  9  2  0
 12  8  1  0
 10  9  1  0
 11 10  1  0
 11 12  2  0
 13 11  1  0
 13 14  2  0
 17 13  1  0
 15 14  1  0
 16 17  2  0
 18 16  1  0
 19 18  1  0
 18 24  1  0
 22 21  2  0
 22 23  1  0
M  END
$$$$
