
     RDKit          3D

 24 27  0  0  0  0  0  0  0  0999 V2000
  -22.3105  -19.0911   14.2423 C   0  0  0  0  0  0  0  0  0  0  0  0
  -23.5186  -20.3124   10.2956 C   0  0  0  0  0  0  0  0  0  0  0  0
  -23.8029  -22.7103   10.3034 C   0  0  0  0  0  0  0  0  0  0  0  0
  -22.8846  -20.4612    9.0618 C   0  0  0  0  0  0  0  0  0  0  0  0
  -21.6850  -20.6385    6.5381 C   0  0  0  0  0  0  0  0  0  0  0  0
  -23.5710  -19.6253   14.5045 C   0  0  0  0  0  0  0  0  0  0  0  0
  -16.5187  -15.8992   10.1580 N   0  0  0  0  0  0  0  0  0  0  0  0
  -17.1713  -16.4620   11.2933 C   0  0  0  0  0  0  0  0  0  0  0  0
  -16.6460  -16.6592   12.5337 N   0  0  0  0  0  0  0  0  0  0  0  0
  -17.5551  -17.2058   13.3291 N   0  0  0  0  0  0  0  0  0  0  0  0
  -18.7040  -17.3939   12.6684 C   0  0  0  0  0  0  0  0  0  0  0  0
  -18.4700  -16.9299   11.3926 C   0  0  0  0  0  0  0  0  0  0  0  0
  -19.9261  -17.9730   13.2216 C   0  0  0  0  0  0  0  0  0  0  0  0
  -20.0556  -18.2843   14.5579 C   0  0  0  0  0  0  0  0  0  0  0  0
  -21.2324  -18.8366   15.0641 C   0  0  0  0  0  0  0  0  0  0  0  0
  -22.1965  -18.7839   12.8939 C   0  0  0  0  0  0  0  0  0  0  0  0
  -21.0164  -18.2352   12.4145 C   0  0  0  0  0  0  0  0  0  0  0  0
  -23.3700  -19.1246   12.3354 N   0  0  0  0  0  0  0  0  0  0  0  0
  -23.6889  -18.9803   10.9208 C   0  0  0  0  0  0  0  0  0  0  0  0
  -23.9627  -21.4723   10.8801 C   0  0  0  0  0  0  0  0  0  0  0  0
  -23.1739  -22.8063    9.0906 C   0  0  0  0  0  0  0  0  0  0  0  0
  -22.7035  -21.6796    8.4490 C   0  0  0  0  0  0  0  0  0  0  0  0
  -22.0684  -21.8089    7.2175 O   0  0  0  0  0  0  0  0  0  0  0  0
  -24.2055  -19.6309   13.2890 C   0  0  0  0  0  0  0  0  0  0  0  0
  6  1  1  0
  1 15  2  0
 16  1  1  0
  4  2  2  0
  2 19  1  0
  2 20  1  0
  3 20  2  0
 21  3  1  0
 22  4  1  0
 23  5  1  0
 24  6  2  0
  8  7  1  0
  8  9  2  0
 12  8  1  0
 10  9  1  0
 11 10  1  0
 11 12  2  0
 13 11  1  0
 13 14  2  0
 17 13  1  0
 15 14  1  0
 16 17  2  0
 18 16  1  0
 19 18  1  0
 18 24  1  0
 22 21  2  0
 22 23  1  0
M  END
$$$$
