
     RDKit          3D

 24 27  0  0  0  0  0  0  0  0999 V2000
  -23.5774  -17.8991   12.0359 C   0  0  0  0  0  0  0  0  0  0  0  0
  -22.8673  -21.9350   10.6237 C   0  0  0  0  0  0  0  0  0  0  0  0
  -23.9754  -22.9415    8.7291 C   0  0  0  0  0  0  0  0  0  0  0  0
  -21.7119  -21.9023    9.8425 C   0  0  0  0  0  0  0  0  0  0  0  0
  -20.6212  -22.3799    6.3833 C   0  0  0  0  0  0  0  0  0  0  0  0
  -24.8671  -18.3841   11.8255 C   0  0  0  0  0  0  0  0  0  0  0  0
  -15.9075  -18.0614   13.2858 N   0  0  0  0  0  0  0  0  0  0  0  0
  -17.1883  -17.4825   13.0488 C   0  0  0  0  0  0  0  0  0  0  0  0
  -17.4870  -16.1595   12.9309 N   0  0  0  0  0  0  0  0  0  0  0  0
  -18.7858  -16.0059   12.7134 N   0  0  0  0  0  0  0  0  0  0  0  0
  -19.3991  -17.1952   12.6773 C   0  0  0  0  0  0  0  0  0  0  0  0
  -18.4037  -18.1242   12.8868 C   0  0  0  0  0  0  0  0  0  0  0  0
  -20.8267  -17.4172   12.4590 C   0  0  0  0  0  0  0  0  0  0  0  0
  -21.7287  -16.3795   12.3649 C   0  0  0  0  0  0  0  0  0  0  0  0
  -23.0877  -16.6153   12.1559 C   0  0  0  0  0  0  0  0  0  0  0  0
  -22.6825  -18.9556   12.1287 C   0  0  0  0  0  0  0  0  0  0  0  0
  -21.3361  -18.6956   12.3364 C   0  0  0  0  0  0  0  0  0  0  0  0
  -23.4118  -20.0738   11.9776 N   0  0  0  0  0  0  0  0  0  0  0  0
  -22.8734  -21.4273   12.0153 C   0  0  0  0  0  0  0  0  0  0  0  0
  -23.9793  -22.4667   10.0195 C   0  0  0  0  0  0  0  0  0  0  0  0
  -22.8167  -22.8883    8.0010 C   0  0  0  0  0  0  0  0  0  0  0  0
  -21.6632  -22.3662    8.5482 C   0  0  0  0  0  0  0  0  0  0  0  0
  -20.5012  -22.3256    7.7837 O   0  0  0  0  0  0  0  0  0  0  0  0
  -24.7247  -19.7475   11.7946 C   0  0  0  0  0  0  0  0  0  0  0  0
  6  1  1  0
  1 15  2  0
 16  1  1  0
  4  2  2  0
  2 19  1  0
  2 20  1  0
  3 20  2  0
 21  3  1  0
 22  4  1  0
 23  5  1  0
 24  6  2  0
  8  7  1  0
  8  9  2  0
 12  8  1  0
 10  9  1  0
 11 10  1  0
 11 12  2  0
 13 11  1  0
 13 14  2  0
 17 13  1  0
 15 14  1  0
 16 17  2  0
 18 16  1  0
 19 18  1  0
 18 24  1  0
 22 21  2  0
 22 23  1  0
M  END
$$$$
