
     RDKit          3D

 24 27  0  0  0  0  0  0  0  0999 V2000
  -23.4327  -17.6992   12.1853 C   0  0  0  0  0  0  0  0  0  0  0  0
  -23.3156  -21.8903   10.7911 C   0  0  0  0  0  0  0  0  0  0  0  0
  -25.2157  -22.6453    9.5064 C   0  0  0  0  0  0  0  0  0  0  0  0
  -22.5105  -22.4337    9.7896 C   0  0  0  0  0  0  0  0  0  0  0  0
  -20.8801  -23.9601    8.0316 C   0  0  0  0  0  0  0  0  0  0  0  0
  -24.7271  -18.1749   11.9822 C   0  0  0  0  0  0  0  0  0  0  0  0
  -15.7304  -17.9127   13.2072 N   0  0  0  0  0  0  0  0  0  0  0  0
  -17.0191  -17.3246   13.0489 C   0  0  0  0  0  0  0  0  0  0  0  0
  -17.3253  -15.9981   13.0373 N   0  0  0  0  0  0  0  0  0  0  0  0
  -18.6302  -15.8357   12.8675 N   0  0  0  0  0  0  0  0  0  0  0  0
  -19.2404  -17.0223   12.7605 C   0  0  0  0  0  0  0  0  0  0  0  0
  -18.2365  -17.9590   12.8733 C   0  0  0  0  0  0  0  0  0  0  0  0
  -20.6727  -17.2352   12.5657 C   0  0  0  0  0  0  0  0  0  0  0  0
  -21.5768  -16.1952   12.5439 C   0  0  0  0  0  0  0  0  0  0  0  0
  -22.9404  -16.4222   12.3561 C   0  0  0  0  0  0  0  0  0  0  0  0
  -22.5358  -18.7578   12.2050 C   0  0  0  0  0  0  0  0  0  0  0  0
  -21.1849  -18.5067   12.3929 C   0  0  0  0  0  0  0  0  0  0  0  0
  -23.2685  -19.8682   12.0169 N   0  0  0  0  0  0  0  0  0  0  0  0
  -22.7292  -21.2214   11.9756 C   0  0  0  0  0  0  0  0  0  0  0  0
  -24.6690  -22.0220   10.6033 C   0  0  0  0  0  0  0  0  0  0  0  0
  -24.3846  -23.1635    8.5491 C   0  0  0  0  0  0  0  0  0  0  0  0
  -23.0147  -23.0654    8.6763 C   0  0  0  0  0  0  0  0  0  0  0  0
  -22.1959  -23.6016    7.6871 O   0  0  0  0  0  0  0  0  0  0  0  0
  -24.5854  -19.5350   11.8813 C   0  0  0  0  0  0  0  0  0  0  0  0
  6  1  1  0
  1 15  2  0
 16  1  1  0
  4  2  2  0
  2 19  1  0
  2 20  1  0
  3 20  2  0
 21  3  1  0
 22  4  1  0
 23  5  1  0
 24  6  2  0
  8  7  1  0
  8  9  2  0
 12  8  1  0
 10  9  1  0
 11 10  1  0
 11 12  2  0
 13 11  1  0
 13 14  2  0
 17 13  1  0
 15 14  1  0
 16 17  2  0
 18 16  1  0
 19 18  1  0
 18 24  1  0
 22 21  2  0
 22 23  1  0
M  END
$$$$
