
     RDKit          3D

 24 27  0  0  0  0  0  0  0  0999 V2000
  -23.6458  -19.2871   11.4828 C   0  0  0  0  0  0  0  0  0  0  0  0
  -22.1744  -22.7924    9.3412 C   0  0  0  0  0  0  0  0  0  0  0  0
  -23.1695  -22.7406    7.1418 C   0  0  0  0  0  0  0  0  0  0  0  0
  -21.0626  -23.3913    8.7483 C   0  0  0  0  0  0  0  0  0  0  0  0
  -19.6632  -24.1129    5.4445 C   0  0  0  0  0  0  0  0  0  0  0  0
  -24.7863  -19.9424   11.0215 C   0  0  0  0  0  0  0  0  0  0  0  0
  -17.1645  -15.6840   13.8747 N   0  0  0  0  0  0  0  0  0  0  0  0
  -17.9987  -16.7590   13.4502 C   0  0  0  0  0  0  0  0  0  0  0  0
  -17.6460  -18.0643   13.2915 N   0  0  0  0  0  0  0  0  0  0  0  0
  -18.6917  -18.7697   12.8829 N   0  0  0  0  0  0  0  0  0  0  0  0
  -19.7666  -17.9825   12.7534 C   0  0  0  0  0  0  0  0  0  0  0  0
  -19.3390  -16.7218   13.1073 C   0  0  0  0  0  0  0  0  0  0  0  0
  -21.0959  -18.4108   12.3239 C   0  0  0  0  0  0  0  0  0  0  0  0
  -22.1855  -17.5673   12.3457 C   0  0  0  0  0  0  0  0  0  0  0  0
  -23.4458  -17.9980   11.9307 C   0  0  0  0  0  0  0  0  0  0  0  0
  -22.5592  -20.1496   11.4548 C   0  0  0  0  0  0  0  0  0  0  0  0
  -21.3161  -19.6978   11.8723 C   0  0  0  0  0  0  0  0  0  0  0  0
  -23.0252  -21.3182   10.9834 N   0  0  0  0  0  0  0  0  0  0  0  0
  -22.2198  -22.5181   10.7963 C   0  0  0  0  0  0  0  0  0  0  0  0
  -23.2079  -22.4841    8.4921 C   0  0  0  0  0  0  0  0  0  0  0  0
  -22.0560  -23.3303    6.6051 C   0  0  0  0  0  0  0  0  0  0  0  0
  -20.9818  -23.6659    7.4026 C   0  0  0  0  0  0  0  0  0  0  0  0
  -19.8643  -24.2641    6.8284 O   0  0  0  0  0  0  0  0  0  0  0  0
  -24.3600  -21.2098   10.7185 C   0  0  0  0  0  0  0  0  0  0  0  0
  6  1  1  0
  1 15  2  0
 16  1  1  0
  4  2  2  0
  2 19  1  0
  2 20  1  0
  3 20  2  0
 21  3  1  0
 22  4  1  0
 23  5  1  0
 24  6  2  0
  8  7  1  0
  8  9  2  0
 12  8  1  0
 10  9  1  0
 11 10  1  0
 11 12  2  0
 13 11  1  0
 13 14  2  0
 17 13  1  0
 15 14  1  0
 16 17  2  0
 18 16  1  0
 19 18  1  0
 18 24  1  0
 22 21  2  0
 22 23  1  0
M  END
$$$$
