
     RDKit          3D

 24 27  0  0  0  0  0  0  0  0999 V2000
  -14.3118  -10.9480   27.1991 C   0  0  0  0  0  0  0  0  0  0  0  0
  -11.8928   -7.8123   28.9216 C   0  0  0  0  0  0  0  0  0  0  0  0
  -12.9448   -6.2754   30.4584 C   0  0  0  0  0  0  0  0  0  0  0  0
  -11.6353   -6.7109   28.1050 C   0  0  0  0  0  0  0  0  0  0  0  0
  -12.0975   -3.0559   28.0536 C   0  0  0  0  0  0  0  0  0  0  0  0
  -14.5819  -11.0821   28.5600 C   0  0  0  0  0  0  0  0  0  0  0  0
  -10.4098   -9.0354   20.7545 N   0  0  0  0  0  0  0  0  0  0  0  0
  -11.5019   -9.5120   21.5367 C   0  0  0  0  0  0  0  0  0  0  0  0
  -12.7066   -9.9585   21.0865 N   0  0  0  0  0  0  0  0  0  0  0  0
  -13.4675  -10.3195   22.1106 N   0  0  0  0  0  0  0  0  0  0  0  0
  -12.8176  -10.1337   23.2660 C   0  0  0  0  0  0  0  0  0  0  0  0
  -11.5857   -9.6280   22.9132 C   0  0  0  0  0  0  0  0  0  0  0  0
  -13.3413  -10.4201   24.5997 C   0  0  0  0  0  0  0  0  0  0  0  0
  -14.5080  -11.1262   24.7981 C   0  0  0  0  0  0  0  0  0  0  0  0
  -14.9891  -11.3881   26.0811 C   0  0  0  0  0  0  0  0  0  0  0  0
  -13.1353  -10.2351   27.0169 C   0  0  0  0  0  0  0  0  0  0  0  0
  -12.6772   -9.9876   25.7315 C   0  0  0  0  0  0  0  0  0  0  0  0
  -12.6889   -9.9352   28.2481 N   0  0  0  0  0  0  0  0  0  0  0  0
  -11.4757   -9.1787   28.5298 C   0  0  0  0  0  0  0  0  0  0  0  0
  -12.5537   -7.5422   30.0940 C   0  0  0  0  0  0  0  0  0  0  0  0
  -12.6695   -5.2251   29.6237 C   0  0  0  0  0  0  0  0  0  0  0  0
  -12.0084   -5.4272   28.4301 C   0  0  0  0  0  0  0  0  0  0  0  0
  -11.7428   -4.3403   27.6028 O   0  0  0  0  0  0  0  0  0  0  0  0
  -13.5460  -10.4368   29.1849 C   0  0  0  0  0  0  0  0  0  0  0  0
  6  1  1  0
  1 15  2  0
 16  1  1  0
  4  2  2  0
  2 19  1  0
  2 20  1  0
  3 20  2  0
 21  3  1  0
 22  4  1  0
 23  5  1  0
 24  6  2  0
  8  7  1  0
  8  9  2  0
 12  8  1  0
 10  9  1  0
 11 10  1  0
 11 12  2  0
 13 11  1  0
 13 14  2  0
 17 13  1  0
 15 14  1  0
 16 17  2  0
 18 16  1  0
 19 18  1  0
 18 24  1  0
 22 21  2  0
 22 23  1  0
M  END
$$$$
