
     RDKit          3D

 27 29  0  0  0  0  0  0  0  0999 V2000
   28.2897    6.1354   20.2304 P   0  0  1  0  0  5  0  0  0  0  0  0
   29.9137    5.8714   20.6156 O   0  0  0  0  0  0  0  0  0  0  0  0
   27.4043    5.4951   21.2911 O   0  0  0  0  0  0  0  0  0  0  0  0
   27.9870    7.7942   20.2116 O   0  0  0  0  0  0  0  0  0  0  0  0
   28.3860    6.3490   17.4384 P   0  0  1  0  0  5  0  0  0  0  0  0
   27.0656    6.7515   16.4653 O   0  0  0  0  0  0  0  0  0  0  0  0
   28.9714    7.6596   17.9432 O   0  0  0  0  0  0  0  0  0  0  0  0
   27.9196    5.4193   18.7446 O   0  0  0  0  0  0  0  0  0  0  0  0
   29.5927    5.5636   16.5614 O   0  0  0  0  0  0  0  0  0  0  0  0
   30.8544    6.0160   16.9564 C   0  0  0  0  0  0  0  0  0  0  0  0
   31.9577    5.1885   16.3323 C   0  0  1  0  0  0  0  0  0  0  0  0
   31.6464    3.8650   16.5092 O   0  0  0  0  0  0  0  0  0  0  0  0
   31.9342    5.4749   14.8448 C   0  0  1  0  0  0  0  0  0  0  0  0
   33.2059    5.3862   14.2875 O   0  0  0  0  0  0  0  0  0  0  0  0
   31.1484    4.2753   14.3515 C   0  0  1  0  0  0  0  0  0  0  0  0
   31.5298    4.0302   13.0406 O   0  0  0  0  0  0  0  0  0  0  0  0
   31.7279    3.2170   15.2996 C   0  0  2  0  0  0  0  0  0  0  0  0
   30.9960    1.9932   15.2580 N   0  0  0  0  0  0  0  0  0  0  0  0
   29.9621    1.6620   16.0308 C   0  0  0  0  0  0  0  0  0  0  0  0
   29.5513    0.4340   15.6857 N   0  0  0  0  0  0  0  0  0  0  0  0
   30.3158   -0.0538   14.6784 C   0  0  0  0  0  0  0  0  0  0  0  0
   30.3274   -1.2191   13.9744 C   0  0  0  0  0  0  0  0  0  0  0  0
   29.3955   -2.2396   14.2414 N   0  0  0  0  0  0  0  0  0  0  0  0
   31.2415   -1.3943   13.0129 N   0  0  0  0  0  0  0  0  0  0  0  0
   32.1323   -0.4197   12.7570 C   0  0  0  0  0  0  0  0  0  0  0  0
   32.1252    0.7217   13.4426 N   0  0  0  0  0  0  0  0  0  0  0  0
   31.2355    0.9695   14.4245 C   0  0  0  0  0  0  0  0  0  0  0  0
  1  2  1  1
  1  3  2  0
  1  4  1  0
  8  1  1  0
  5  6  1  6
  5  7  2  0
  5  8  1  0
  5  9  1  0
  9 10  1  0
 11 10  1  1
 11 12  1  0
 11 13  1  0
 12 17  1  0
 13 14  1  6
 13 15  1  0
 15 16  1  6
 15 17  1  0
 17 18  1  1
 18 19  1  0
 18 27  1  0
 19 20  2  0
 20 21  1  0
 21 22  1  0
 21 27  2  0
 22 23  1  0
 22 24  2  0
 24 25  1  0
 25 26  2  0
 26 27  1  0
M  END
$$$$
