
     RDKit          3D

 27 29  0  0  0  0  0  0  0  0999 V2000
   12.9458    3.2421   35.5530 P   0  0  1  0  0  5  0  0  0  0  0  0
   14.3492    4.1658   35.3720 O   0  0  0  0  0  0  0  0  0  0  0  0
   11.7252    4.1135   35.2888 O   0  0  0  0  0  0  0  0  0  0  0  0
   12.9597    1.9862   34.4279 O   0  0  0  0  0  0  0  0  0  0  0  0
   11.3858    1.8842   37.4433 P   0  0  1  0  0  5  0  0  0  0  0  0
   10.1562    2.9903   37.7858 O   0  0  0  0  0  0  0  0  0  0  0  0
   10.9531    1.1226   36.1991 O   0  0  0  0  0  0  0  0  0  0  0  0
   12.8331    2.6578   37.1352 O   0  0  0  0  0  0  0  0  0  0  0  0
   11.5760    0.7571   38.6824 O   0  0  0  0  0  0  0  0  0  0  0  0
   12.9187    0.3904   38.8050 C   0  0  0  0  0  0  0  0  0  0  0  0
   13.1366   -0.5154   39.9982 C   0  0  1  0  0  0  0  0  0  0  0  0
   12.9492    0.2285   41.1346 O   0  0  0  0  0  0  0  0  0  0  0  0
   12.0517   -1.5718   39.9521 C   0  0  1  0  0  0  0  0  0  0  0  0
   12.4922   -2.7798   40.4837 O   0  0  0  0  0  0  0  0  0  0  0  0
   11.0624   -0.9859   40.9410 C   0  0  1  0  0  0  0  0  0  0  0  0
   10.3368   -2.0354   41.4852 O   0  0  0  0  0  0  0  0  0  0  0  0
   12.0632   -0.4233   41.9591 C   0  0  2  0  0  0  0  0  0  0  0  0
   11.4400    0.4319   42.9159 N   0  0  0  0  0  0  0  0  0  0  0  0
   10.8393    1.5949   42.6661 C   0  0  0  0  0  0  0  0  0  0  0  0
   10.3813    2.0925   43.8230 N   0  0  0  0  0  0  0  0  0  0  0  0
   10.6789    1.2562   44.8473 C   0  0  0  0  0  0  0  0  0  0  0  0
   10.4518    1.2809   46.1894 C   0  0  0  0  0  0  0  0  0  0  0  0
    9.7659    2.3525   46.7915 N   0  0  0  0  0  0  0  0  0  0  0  0
   10.8892    0.2679   46.9465 N   0  0  0  0  0  0  0  0  0  0  0  0
   11.5447   -0.7564   46.3721 C   0  0  0  0  0  0  0  0  0  0  0  0
   11.7694   -0.7854   45.0600 N   0  0  0  0  0  0  0  0  0  0  0  0
   11.3590    0.1981   44.2345 C   0  0  0  0  0  0  0  0  0  0  0  0
  1  2  1  1
  1  3  2  0
  1  4  1  0
  8  1  1  0
  5  6  1  1
  5  7  2  0
  5  8  1  0
  5  9  1  0
  9 10  1  0
 11 10  1  6
 11 12  1  0
 11 13  1  0
 12 17  1  0
 13 14  1  1
 13 15  1  0
 15 16  1  1
 15 17  1  0
 17 18  1  1
 18 19  1  0
 18 27  1  0
 19 20  2  0
 20 21  1  0
 21 22  1  0
 21 27  2  0
 22 23  1  0
 22 24  2  0
 24 25  1  0
 25 26  2  0
 26 27  1  0
M  END
$$$$
