
     RDKit          3D

 27 29  0  0  0  0  0  0  0  0999 V2000
   12.3477    3.4393   35.3850 P   0  0  1  0  0  5  0  0  0  0  0  0
   13.8307    4.2410   35.5014 O   0  0  0  0  0  0  0  0  0  0  0  0
   11.2428    4.3299   35.9372 O   0  0  0  0  0  0  0  0  0  0  0  0
   12.0162    3.1197   33.7628 O   0  0  0  0  0  0  0  0  0  0  0  0
   11.0949    1.9034   37.3653 P   0  0  1  0  0  5  0  0  0  0  0  0
   10.3064    3.3860   37.5457 O   0  0  0  0  0  0  0  0  0  0  0  0
   10.0700    0.9301   36.8017 O   0  0  0  0  0  0  0  0  0  0  0  0
   12.3786    2.0210   36.3040 O   0  0  0  0  0  0  0  0  0  0  0  0
   11.6134    1.2866   38.8460 O   0  0  0  0  0  0  0  0  0  0  0  0
   12.8244    0.6065   38.6929 C   0  0  0  0  0  0  0  0  0  0  0  0
   13.1195   -0.2714   39.8903 C   0  0  1  0  0  0  0  0  0  0  0  0
   12.7913    0.4306   41.0215 O   0  0  0  0  0  0  0  0  0  0  0  0
   12.1907   -1.4648   39.8001 C   0  0  1  0  0  0  0  0  0  0  0  0
   12.7715   -2.6063   40.3437 O   0  0  0  0  0  0  0  0  0  0  0  0
   11.0954   -1.0269   40.7532 C   0  0  1  0  0  0  0  0  0  0  0  0
   10.4997   -2.1697   41.2663 O   0  0  0  0  0  0  0  0  0  0  0  0
   11.9724   -0.3423   41.8100 C   0  0  2  0  0  0  0  0  0  0  0  0
   11.2042    0.4123   42.7457 N   0  0  0  0  0  0  0  0  0  0  0  0
   10.4781    1.4980   42.4815 C   0  0  0  0  0  0  0  0  0  0  0  0
    9.9078    1.9140   43.6206 N   0  0  0  0  0  0  0  0  0  0  0  0
   10.2565    1.1010   44.6474 C   0  0  0  0  0  0  0  0  0  0  0  0
    9.9643    1.0724   45.9768 C   0  0  0  0  0  0  0  0  0  0  0  0
    9.1243    2.0408   46.5579 N   0  0  0  0  0  0  0  0  0  0  0  0
   10.4860    0.1060   46.7415 N   0  0  0  0  0  0  0  0  0  0  0  0
   11.2887   -0.8198   46.1871 C   0  0  0  0  0  0  0  0  0  0  0  0
   11.5776   -0.7963   44.8875 N   0  0  0  0  0  0  0  0  0  0  0  0
   11.0897    0.1454   44.0555 C   0  0  0  0  0  0  0  0  0  0  0  0
  1  2  1  6
  1  3  2  0
  1  4  1  0
  8  1  1  0
  5  6  1  1
  5  7  2  0
  5  8  1  0
  5  9  1  0
  9 10  1  0
 11 10  1  6
 11 12  1  0
 11 13  1  0
 12 17  1  0
 13 14  1  1
 13 15  1  0
 15 16  1  1
 15 17  1  0
 17 18  1  1
 18 19  1  0
 18 27  1  0
 19 20  2  0
 20 21  1  0
 21 22  1  0
 21 27  2  0
 22 23  1  0
 22 24  2  0
 24 25  1  0
 25 26  2  0
 26 27  1  0
M  END
$$$$
