
     RDKit          3D

 27 29  0  0  0  0  0  0  0  0999 V2000
   25.2914    5.1679   21.1342 P   0  0  1  0  0  5  0  0  0  0  0  0
   25.4230    6.8030   21.5055 O   0  0  0  0  0  0  0  0  0  0  0  0
   24.6028    4.4426   22.2902 O   0  0  0  0  0  0  0  0  0  0  0  0
   24.3893    4.9682   19.7078 O   0  0  0  0  0  0  0  0  0  0  0  0
   27.9584    5.6210   20.4606 P   0  0  1  0  0  5  0  0  0  0  0  0
   27.2418    7.1428   20.6775 O   0  0  0  0  0  0  0  0  0  0  0  0
   29.1922    5.5903   21.3604 O   0  0  0  0  0  0  0  0  0  0  0  0
   26.8339    4.4673   20.9688 O   0  0  0  0  0  0  0  0  0  0  0  0
   28.4412    5.3839   18.8683 O   0  0  0  0  0  0  0  0  0  0  0  0
   27.5661    4.5952   18.1649 C   0  0  0  0  0  0  0  0  0  0  0  0
   28.2113    3.8913   16.9991 C   0  0  1  0  0  0  0  0  0  0  0  0
   28.9810    4.7516   16.2284 O   0  0  0  0  0  0  0  0  0  0  0  0
   29.2466    2.8841   17.4552 C   0  0  1  0  0  0  0  0  0  0  0  0
   28.6557    1.7162   17.9294 O   0  0  0  0  0  0  0  0  0  0  0  0
   29.9862    2.6533   16.1527 C   0  0  1  0  0  0  0  0  0  0  0  0
   29.2769    1.6731   15.4571 O   0  0  0  0  0  0  0  0  0  0  0  0
   29.7970    3.9744   15.4530 C   0  0  2  0  0  0  0  0  0  0  0  0
   31.1038    4.5515   15.2381 N   0  0  0  0  0  0  0  0  0  0  0  0
   31.7062    5.5767   15.8656 C   0  0  0  0  0  0  0  0  0  0  0  0
   32.9372    5.7814   15.3386 N   0  0  0  0  0  0  0  0  0  0  0  0
   33.1223    4.8861   14.3730 C   0  0  0  0  0  0  0  0  0  0  0  0
   34.1600    4.6362   13.5244 C   0  0  0  0  0  0  0  0  0  0  0  0
   35.3469    5.4203   13.5779 N   0  0  0  0  0  0  0  0  0  0  0  0
   34.0983    3.6321   12.5997 N   0  0  0  0  0  0  0  0  0  0  0  0
   32.9872    2.8839   12.5360 C   0  0  0  0  0  0  0  0  0  0  0  0
   31.9799    3.1390   13.3716 N   0  0  0  0  0  0  0  0  0  0  0  0
   31.9834    4.1197   14.3082 C   0  0  0  0  0  0  0  0  0  0  0  0
  1  2  1  1
  1  3  2  0
  1  4  1  0
  8  1  1  0
  5  6  1  6
  5  7  2  0
  5  8  1  0
  5  9  1  0
 10  9  1  1
 10 11  1  0
 11 12  1  6
 11 13  1  0
 12 17  1  0
 13 14  1  6
 13 15  1  0
 15 16  1  6
 15 17  1  0
 17 18  1  1
 18 19  1  0
 18 27  1  0
 19 20  2  0
 20 21  1  0
 21 22  1  0
 21 27  2  0
 22 23  1  0
 22 24  2  0
 24 25  1  0
 25 26  2  0
 26 27  1  0
M  END
$$$$
