
     RDKit          3D

 27 29  0  0  0  0  0  0  0  0999 V2000
   27.3264    5.4212   20.6580 P   0  0  1  0  0  5  0  0  0  0  0  0
   26.0930    5.6248   19.5327 O   0  0  0  0  0  0  0  0  0  0  0  0
   26.9367    6.1145   21.9634 O   0  0  0  0  0  0  0  0  0  0  0  0
   27.5875    3.7656   20.9388 O   0  0  0  0  0  0  0  0  0  0  0  0
   28.4948    6.9591   18.6475 P   0  0  1  0  0  5  0  0  0  0  0  0
   26.9235    7.5952   18.6987 O   0  0  0  0  0  0  0  0  0  0  0  0
   29.4408    8.1503   18.5107 O   0  0  0  0  0  0  0  0  0  0  0  0
   28.7570    6.1686   20.1173 O   0  0  0  0  0  0  0  0  0  0  0  0
   28.7092    5.9407   17.3278 O   0  0  0  0  0  0  0  0  0  0  0  0
   28.1907    4.6881   17.5398 C   0  0  0  0  0  0  0  0  0  0  0  0
   29.0002    3.5959   16.8897 C   0  0  1  0  0  0  0  0  0  0  0  0
   29.3148    3.8914   15.5705 O   0  0  0  0  0  0  0  0  0  0  0  0
   30.3768    3.4733   17.5097 C   0  0  1  0  0  0  0  0  0  0  0  0
   30.3333    2.8142   18.7352 O   0  0  0  0  0  0  0  0  0  0  0  0
   31.0744    2.6459   16.4488 C   0  0  1  0  0  0  0  0  0  0  0  0
   30.7834    1.3096   16.7268 O   0  0  0  0  0  0  0  0  0  0  0  0
   30.3311    3.0529   15.2029 C   0  0  2  0  0  0  0  0  0  0  0  0
   31.2808    3.6637   14.3017 N   0  0  0  0  0  0  0  0  0  0  0  0
   31.6276    4.9551   14.1620 C   0  0  0  0  0  0  0  0  0  0  0  0
   32.5627    5.0795   13.1899 N   0  0  0  0  0  0  0  0  0  0  0  0
   32.8142    3.8663   12.7073 C   0  0  0  0  0  0  0  0  0  0  0  0
   33.6532    3.4091   11.7343 C   0  0  0  0  0  0  0  0  0  0  0  0
   34.4845    4.3095   11.0102 N   0  0  0  0  0  0  0  0  0  0  0  0
   33.7253    2.0808   11.4221 N   0  0  0  0  0  0  0  0  0  0  0  0
   32.9488    1.2190   12.0948 C   0  0  0  0  0  0  0  0  0  0  0  0
   32.1329    1.6793   13.0438 N   0  0  0  0  0  0  0  0  0  0  0  0
   32.0182    2.9835   13.3970 C   0  0  0  0  0  0  0  0  0  0  0  0
  1  2  1  6
  1  3  2  0
  1  4  1  0
  8  1  1  0
  5  6  1  1
  5  7  2  0
  5  8  1  0
  5  9  1  0
 10  9  1  1
 10 11  1  0
 11 12  1  6
 11 13  1  0
 12 17  1  0
 13 14  1  1
 13 15  1  0
 15 16  1  1
 15 17  1  0
 17 18  1  6
 18 19  1  0
 18 27  1  0
 19 20  2  0
 20 21  1  0
 21 22  1  0
 21 27  2  0
 22 23  1  0
 22 24  2  0
 24 25  1  0
 25 26  2  0
 26 27  1  0
M  END
$$$$
