
     RDKit          3D

 27 29  0  0  0  0  0  0  0  0999 V2000
   12.8995    1.4280   34.2865 P   0  0  1  0  0  5  0  0  0  0  0  0
   12.4526    2.7773   33.3874 O   0  0  0  0  0  0  0  0  0  0  0  0
   13.0193    0.2204   33.3571 O   0  0  0  0  0  0  0  0  0  0  0  0
   14.3864    1.7124   35.0587 O   0  0  0  0  0  0  0  0  0  0  0  0
   11.7980    2.0761   36.7642 P   0  0  1  0  0  5  0  0  0  0  0  0
   12.4630    3.5369   36.2163 O   0  0  0  0  0  0  0  0  0  0  0  0
   10.4012    2.4046   37.2873 O   0  0  0  0  0  0  0  0  0  0  0  0
   11.6963    1.0466   35.4286 O   0  0  0  0  0  0  0  0  0  0  0  0
   12.7041    1.4123   38.0145 O   0  0  0  0  0  0  0  0  0  0  0  0
   12.6092    0.0444   38.0646 C   0  0  0  0  0  0  0  0  0  0  0  0
   12.4022   -0.4826   39.4610 C   0  0  1  0  0  0  0  0  0  0  0  0
   13.0153    0.3141   40.4180 O   0  0  0  0  0  0  0  0  0  0  0  0
   10.9496   -0.3994   39.8823 C   0  0  1  0  0  0  0  0  0  0  0  0
   10.1871   -1.4121   39.3069 O   0  0  0  0  0  0  0  0  0  0  0  0
   11.0950   -0.5844   41.3795 C   0  0  1  0  0  0  0  0  0  0  0  0
   11.1280   -1.9600   41.6122 O   0  0  0  0  0  0  0  0  0  0  0  0
   12.4699   -0.0196   41.6273 C   0  0  2  0  0  0  0  0  0  0  0  0
   12.3305    1.1050   42.5233 N   0  0  0  0  0  0  0  0  0  0  0  0
   12.6608    2.3958   42.3431 C   0  0  0  0  0  0  0  0  0  0  0  0
   12.3533    3.1102   43.4521 N   0  0  0  0  0  0  0  0  0  0  0  0
   11.8259    2.2755   44.3427 C   0  0  0  0  0  0  0  0  0  0  0  0
   11.3471    2.4479   45.6078 C   0  0  0  0  0  0  0  0  0  0  0  0
   11.3556    3.7336   46.2185 N   0  0  0  0  0  0  0  0  0  0  0  0
   10.8461    1.4009   46.3289 N   0  0  0  0  0  0  0  0  0  0  0  0
   10.8308    0.1828   45.7683 C   0  0  0  0  0  0  0  0  0  0  0  0
   11.3020    0.0281   44.5305 N   0  0  0  0  0  0  0  0  0  0  0  0
   11.8104    1.0274   43.7677 C   0  0  0  0  0  0  0  0  0  0  0  0
  1  2  1  6
  1  3  2  0
  1  4  1  0
  8  1  1  0
  5  6  1  6
  5  7  2  0
  5  8  1  0
  5  9  1  0
 10  9  1  1
 10 11  1  0
 11 12  1  1
 11 13  1  0
 12 17  1  0
 13 14  1  6
 13 15  1  0
 15 16  1  6
 15 17  1  0
 17 18  1  1
 18 19  1  0
 18 27  1  0
 19 20  2  0
 20 21  1  0
 21 22  1  0
 21 27  2  0
 22 23  1  0
 22 24  2  0
 24 25  1  0
 25 26  2  0
 26 27  1  0
M  END
$$$$
