
     RDKit          3D

 27 29  0  0  0  0  0  0  0  0999 V2000
   10.8148    2.7920   36.4059 P   0  0  1  0  0  5  0  0  0  0  0  0
   10.7818    2.7564   34.7167 O   0  0  0  0  0  0  0  0  0  0  0  0
    9.6954    3.6884   36.9182 O   0  0  0  0  0  0  0  0  0  0  0  0
   10.5647    1.2331   36.9982 O   0  0  0  0  0  0  0  0  0  0  0  0
   13.5735    2.4040   36.7043 P   0  0  1  0  0  5  0  0  0  0  0  0
   13.5561    1.7488   35.1478 O   0  0  0  0  0  0  0  0  0  0  0  0
   14.8695    3.1911   36.8318 O   0  0  0  0  0  0  0  0  0  0  0  0
   12.2820    3.4342   36.9464 O   0  0  0  0  0  0  0  0  0  0  0  0
   13.5954    1.2037   37.8878 O   0  0  0  0  0  0  0  0  0  0  0  0
   14.8608    0.6157   37.9616 C   0  0  0  0  0  0  0  0  0  0  0  0
   14.9650   -0.3230   39.1446 C   0  0  1  0  0  0  0  0  0  0  0  0
   14.3096    0.2535   40.2020 O   0  0  0  0  0  0  0  0  0  0  0  0
   14.2180   -1.5867   38.7703 C   0  0  1  0  0  0  0  0  0  0  0  0
   14.7783   -2.7087   39.3728 O   0  0  0  0  0  0  0  0  0  0  0  0
   12.8909   -1.3295   39.4578 C   0  0  1  0  0  0  0  0  0  0  0  0
   12.3211   -2.5597   39.7506 O   0  0  0  0  0  0  0  0  0  0  0  0
   13.4199   -0.6521   40.7291 C   0  0  2  0  0  0  0  0  0  0  0  0
   12.3786   -0.0487   41.4951 N   0  0  0  0  0  0  0  0  0  0  0  0
   11.8129    1.1362   41.2676 C   0  0  0  0  0  0  0  0  0  0  0  0
   10.8780    1.3463   42.2044 N   0  0  0  0  0  0  0  0  0  0  0  0
   10.8217    0.2959   43.0590 C   0  0  0  0  0  0  0  0  0  0  0  0
   10.0709    0.0045   44.1568 C   0  0  0  0  0  0  0  0  0  0  0  0
    9.0933    0.9008   44.6282 N   0  0  0  0  0  0  0  0  0  0  0  0
   10.2679   -1.1543   44.7963 N   0  0  0  0  0  0  0  0  0  0  0  0
   11.2017   -2.0114   44.3466 C   0  0  0  0  0  0  0  0  0  0  0  0
   11.9386   -1.7312   43.2735 N   0  0  0  0  0  0  0  0  0  0  0  0
   11.7969   -0.5849   42.5786 C   0  0  0  0  0  0  0  0  0  0  0  0
  1  2  1  6
  1  3  2  0
  1  4  1  0
  8  1  1  0
  5  6  1  6
  5  7  2  0
  5  8  1  0
  5  9  1  0
  9 10  1  0
 11 10  1  6
 11 12  1  0
 11 13  1  0
 12 17  1  0
 13 14  1  1
 13 15  1  0
 15 16  1  1
 15 17  1  0
 17 18  1  6
 18 19  1  0
 18 27  1  0
 19 20  2  0
 20 21  1  0
 21 22  1  0
 21 27  2  0
 22 23  1  0
 22 24  2  0
 24 25  1  0
 25 26  2  0
 26 27  1  0
M  END
$$$$
