
     RDKit          3D

 27 29  0  0  0  0  0  0  0  0999 V2000
   12.8091    2.3099   34.4114 P   0  0  1  0  0  5  0  0  0  0  0  0
   12.5561    1.4932   32.9538 O   0  0  0  0  0  0  0  0  0  0  0  0
   14.2510    2.7951   34.4795 O   0  0  0  0  0  0  0  0  0  0  0  0
   11.7899    3.6516   34.4792 O   0  0  0  0  0  0  0  0  0  0  0  0
   11.3455    1.7943   36.7443 P   0  0  1  0  0  5  0  0  0  0  0  0
   11.7820    3.2291   37.5209 O   0  0  0  0  0  0  0  0  0  0  0  0
   10.0961    2.1008   35.9317 O   0  0  0  0  0  0  0  0  0  0  0  0
   12.5508    1.2667   35.7161 O   0  0  0  0  0  0  0  0  0  0  0  0
   10.9443    0.5836   37.8467 O   0  0  0  0  0  0  0  0  0  0  0  0
   11.9686   -0.3636   37.9237 C   0  0  0  0  0  0  0  0  0  0  0  0
   12.1493   -0.8671   39.3398 C   0  0  1  0  0  0  0  0  0  0  0  0
   12.8478    0.0818   40.0410 O   0  0  0  0  0  0  0  0  0  0  0  0
   10.7664   -0.9690   39.9500 C   0  0  1  0  0  0  0  0  0  0  0  0
   10.6935   -2.0005   40.8808 O   0  0  0  0  0  0  0  0  0  0  0  0
   10.7170    0.3333   40.7255 C   0  0  1  0  0  0  0  0  0  0  0  0
    9.8477    0.1575   41.7920 O   0  0  0  0  0  0  0  0  0  0  0  0
   12.1744    0.3694   41.2044 C   0  0  2  0  0  0  0  0  0  0  0  0
   12.5277    1.6301   41.7708 N   0  0  0  0  0  0  0  0  0  0  0  0
   13.0779    2.6604   41.1292 C   0  0  0  0  0  0  0  0  0  0  0  0
   13.2565    3.6587   42.0052 N   0  0  0  0  0  0  0  0  0  0  0  0
   12.8230    3.2905   43.2354 C   0  0  0  0  0  0  0  0  0  0  0  0
   12.7741    3.9068   44.4484 C   0  0  0  0  0  0  0  0  0  0  0  0
   13.2436    5.2232   44.6148 N   0  0  0  0  0  0  0  0  0  0  0  0
   12.2706    3.2473   45.4983 N   0  0  0  0  0  0  0  0  0  0  0  0
   11.8218    1.9894   45.3402 C   0  0  0  0  0  0  0  0  0  0  0  0
   11.8673    1.3821   44.1561 N   0  0  0  0  0  0  0  0  0  0  0  0
   12.3602    1.9825   43.0544 C   0  0  0  0  0  0  0  0  0  0  0  0
  1  2  1  6
  1  3  2  0
  1  4  1  0
  8  1  1  0
  5  6  1  1
  5  7  2  0
  5  8  1  0
  5  9  1  0
  9 10  1  0
 11 10  1  6
 11 12  1  0
 11 13  1  0
 12 17  1  0
 13 14  1  1
 13 15  1  0
 15 16  1  1
 15 17  1  0
 17 18  1  6
 18 19  1  0
 18 27  1  0
 19 20  2  0
 20 21  1  0
 21 22  1  0
 21 27  2  0
 22 23  1  0
 22 24  2  0
 24 25  1  0
 25 26  2  0
 26 27  1  0
M  END
$$$$
