
     RDKit          3D

 27 29  0  0  0  0  0  0  0  0999 V2000
   13.7469    3.0905   34.8750 P   0  0  1  0  0  5  0  0  0  0  0  0
   12.9764    2.8747   33.3956 O   0  0  0  0  0  0  0  0  0  0  0  0
   15.2548    2.9255   34.6865 O   0  0  0  0  0  0  0  0  0  0  0  0
   13.4072    4.6400   35.4849 O   0  0  0  0  0  0  0  0  0  0  0  0
   11.6587    2.1413   36.4595 P   0  0  1  0  0  5  0  0  0  0  0  0
   11.3095    3.7795   36.1936 O   0  0  0  0  0  0  0  0  0  0  0  0
   10.7098    1.3449   35.5663 O   0  0  0  0  0  0  0  0  0  0  0  0
   13.2600    1.8926   35.9819 O   0  0  0  0  0  0  0  0  0  0  0  0
   11.3945    1.7026   38.0603 O   0  0  0  0  0  0  0  0  0  0  0  0
   12.0314    2.5347   38.9461 C   0  0  0  0  0  0  0  0  0  0  0  0
   12.5430    1.8164   40.1680 C   0  0  1  0  0  0  0  0  0  0  0  0
   11.5557    1.0583   40.7819 O   0  0  0  0  0  0  0  0  0  0  0  0
   13.5617    0.7546   39.8090 C   0  0  1  0  0  0  0  0  0  0  0  0
   14.8059    1.3097   39.5227 O   0  0  0  0  0  0  0  0  0  0  0  0
   13.5828   -0.0417   41.0983 C   0  0  1  0  0  0  0  0  0  0  0  0
   14.4855    0.5971   41.9495 O   0  0  0  0  0  0  0  0  0  0  0  0
   12.1867    0.1806   41.6201 C   0  0  2  0  0  0  0  0  0  0  0  0
   11.5347   -1.1061   41.6994 N   0  0  0  0  0  0  0  0  0  0  0  0
   11.0093   -1.8669   40.7233 C   0  0  0  0  0  0  0  0  0  0  0  0
   10.4954   -3.0041   41.2503 N   0  0  0  0  0  0  0  0  0  0  0  0
   10.6924   -2.9706   42.5649 C   0  0  0  0  0  0  0  0  0  0  0  0
   10.3843   -3.8359   43.5728 C   0  0  0  0  0  0  0  0  0  0  0  0
    9.7151   -5.0619   43.2982 N   0  0  0  0  0  0  0  0  0  0  0  0
   10.7045   -3.5594   44.8721 N   0  0  0  0  0  0  0  0  0  0  0  0
   11.3351   -2.4086   45.1481 C   0  0  0  0  0  0  0  0  0  0  0  0
   11.6305   -1.5713   44.1532 N   0  0  0  0  0  0  0  0  0  0  0  0
   11.3387   -1.7911   42.8472 C   0  0  0  0  0  0  0  0  0  0  0  0
  1  2  1  6
  1  3  2  0
  1  4  1  0
  8  1  1  0
  5  6  1  1
  5  7  2  0
  5  8  1  0
  5  9  1  0
 10  9  1  1
 10 11  1  0
 11 12  1  6
 11 13  1  0
 12 17  1  0
 13 14  1  1
 13 15  1  0
 15 16  1  1
 15 17  1  0
 17 18  1  6
 18 19  1  0
 18 27  1  0
 19 20  2  0
 20 21  1  0
 21 22  1  0
 21 27  2  0
 22 23  1  0
 22 24  2  0
 24 25  1  0
 25 26  2  0
 26 27  1  0
M  END
$$$$
