
     RDKit          3D

 27 29  0  0  0  0  0  0  0  0999 V2000
   11.3204    2.3329   35.3789 P   0  0  1  0  0  5  0  0  0  0  0  0
   12.5973    3.4055   35.1056 O   0  0  0  0  0  0  0  0  0  0  0  0
   10.0156    3.1111   35.4843 O   0  0  0  0  0  0  0  0  0  0  0  0
   11.2035    1.2671   34.0774 O   0  0  0  0  0  0  0  0  0  0  0  0
   12.6815    2.2420   37.8263 P   0  0  1  0  0  5  0  0  0  0  0  0
   13.9287    2.9406   36.9269 O   0  0  0  0  0  0  0  0  0  0  0  0
   12.0123    3.3720   38.5949 O   0  0  0  0  0  0  0  0  0  0  0  0
   11.5528    1.5101   36.8371 O   0  0  0  0  0  0  0  0  0  0  0  0
   13.2687    1.1411   38.9599 O   0  0  0  0  0  0  0  0  0  0  0  0
   12.9210   -0.1629   38.5976 C   0  0  0  0  0  0  0  0  0  0  0  0
   12.6597   -1.0229   39.8156 C   0  0  1  0  0  0  0  0  0  0  0  0
   12.9859   -0.2916   40.9286 O   0  0  0  0  0  0  0  0  0  0  0  0
   11.1684   -1.2868   39.8557 C   0  0  1  0  0  0  0  0  0  0  0  0
   10.8843   -2.5283   40.4160 O   0  0  0  0  0  0  0  0  0  0  0  0
   10.7354   -0.2366   40.8604 C   0  0  1  0  0  0  0  0  0  0  0  0
    9.5779   -0.6913   41.4748 O   0  0  0  0  0  0  0  0  0  0  0  0
   11.9346   -0.3244   41.8137 C   0  0  2  0  0  0  0  0  0  0  0  0
   11.9533    0.7423   42.7608 N   0  0  0  0  0  0  0  0  0  0  0  0
   12.4019    1.9796   42.5515 C   0  0  0  0  0  0  0  0  0  0  0  0
   12.2490    2.6827   43.6819 N   0  0  0  0  0  0  0  0  0  0  0  0
   11.6960    1.9093   44.6478 C   0  0  0  0  0  0  0  0  0  0  0  0
   11.3379    2.1209   45.9442 C   0  0  0  0  0  0  0  0  0  0  0  0
   11.5241    3.3754   46.5547 N   0  0  0  0  0  0  0  0  0  0  0  0
   10.8000    1.1175   46.6473 N   0  0  0  0  0  0  0  0  0  0  0  0
   10.6216   -0.0816   46.0647 C   0  0  0  0  0  0  0  0  0  0  0  0
   10.9701   -0.2938   44.7973 N   0  0  0  0  0  0  0  0  0  0  0  0
   11.5171    0.6681   44.0273 C   0  0  0  0  0  0  0  0  0  0  0  0
  1  2  1  6
  1  3  2  0
  1  4  1  0
  8  1  1  0
  5  6  1  6
  5  7  2  0
  5  8  1  0
  5  9  1  0
  9 10  1  0
 11 10  1  6
 11 12  1  0
 11 13  1  0
 12 17  1  0
 13 14  1  1
 13 15  1  0
 15 16  1  1
 15 17  1  0
 17 18  1  1
 18 19  1  0
 18 27  1  0
 19 20  2  0
 20 21  1  0
 21 22  1  0
 21 27  2  0
 22 23  1  0
 22 24  2  0
 24 25  1  0
 25 26  2  0
 26 27  1  0
M  END
$$$$
