
     RDKit          3D

 27 29  0  0  0  0  0  0  0  0999 V2000
   27.9417    6.4423   20.3322 P   0  0  1  0  0  5  0  0  0  0  0  0
   26.7185    7.2603   21.1468 O   0  0  0  0  0  0  0  0  0  0  0  0
   29.1287    7.3838   20.1289 O   0  0  0  0  0  0  0  0  0  0  0  0
   28.4288    5.0844   21.2305 O   0  0  0  0  0  0  0  0  0  0  0  0
   28.6641    6.1559   17.6548 P   0  0  1  0  0  5  0  0  0  0  0  0
   28.0159    5.7829   16.1327 O   0  0  0  0  0  0  0  0  0  0  0  0
   29.1129    7.6143   17.5897 O   0  0  0  0  0  0  0  0  0  0  0  0
   27.4179    5.9763   18.7812 O   0  0  0  0  0  0  0  0  0  0  0  0
   29.9942    5.1937   18.0155 O   0  0  0  0  0  0  0  0  0  0  0  0
   29.6701    3.8643   18.1166 C   0  0  0  0  0  0  0  0  0  0  0  0
   30.3443    3.0110   17.0735 C   0  0  1  0  0  0  0  0  0  0  0  0
   29.8311    3.2331   15.8032 O   0  0  0  0  0  0  0  0  0  0  0  0
   31.7968    3.3974   16.8859 C   0  0  1  0  0  0  0  0  0  0  0  0
   32.5979    2.9060   17.9130 O   0  0  0  0  0  0  0  0  0  0  0  0
   32.0873    2.7107   15.5665 C   0  0  1  0  0  0  0  0  0  0  0  0
   32.4326    1.3926   15.8680 O   0  0  0  0  0  0  0  0  0  0  0  0
   30.7304    2.7166   14.9111 C   0  0  2  0  0  0  0  0  0  0  0  0
   30.8325    3.4832   13.6909 N   0  0  0  0  0  0  0  0  0  0  0  0
   30.4324    4.7393   13.4271 C   0  0  0  0  0  0  0  0  0  0  0  0
   30.7283    5.0583   12.1442 N   0  0  0  0  0  0  0  0  0  0  0  0
   31.3182    4.0049   11.5869 C   0  0  0  0  0  0  0  0  0  0  0  0
   31.8164    3.7713   10.3393 C   0  0  0  0  0  0  0  0  0  0  0  0
   31.7560    4.7766    9.3333 N   0  0  0  0  0  0  0  0  0  0  0  0
   32.3869    2.5734   10.0126 N   0  0  0  0  0  0  0  0  0  0  0  0
   32.4518    1.6155   10.9488 C   0  0  0  0  0  0  0  0  0  0  0  0
   31.9608    1.8570   12.1648 N   0  0  0  0  0  0  0  0  0  0  0  0
   31.3843    3.0236   12.5467 C   0  0  0  0  0  0  0  0  0  0  0  0
  1  2  1  1
  1  3  2  0
  1  4  1  0
  8  1  1  0
  5  6  1  6
  5  7  2  0
  5  8  1  0
  5  9  1  0
 10  9  1  1
 10 11  1  0
 11 12  1  6
 11 13  1  0
 12 17  1  0
 13 14  1  1
 13 15  1  0
 15 16  1  1
 15 17  1  0
 17 18  1  6
 18 19  1  0
 18 27  1  0
 19 20  2  0
 20 21  1  0
 21 22  1  0
 21 27  2  0
 22 23  1  0
 22 24  2  0
 24 25  1  0
 25 26  2  0
 26 27  1  0
M  END
$$$$
