
     RDKit          3D

 27 29  0  0  0  0  0  0  0  0999 V2000
   28.0451    6.2426   20.1908 P   0  0  1  0  0  5  0  0  0  0  0  0
   26.6859    5.3561   19.7194 O   0  0  0  0  0  0  0  0  0  0  0  0
   27.8077    7.7219   19.9183 O   0  0  0  0  0  0  0  0  0  0  0  0
   28.2944    6.0372   21.8458 O   0  0  0  0  0  0  0  0  0  0  0  0
   29.3013    6.2008   17.6866 P   0  0  1  0  0  5  0  0  0  0  0  0
   27.7386    6.6881   17.2707 O   0  0  0  0  0  0  0  0  0  0  0  0
   30.2101    7.3969   17.4441 O   0  0  0  0  0  0  0  0  0  0  0  0
   29.3947    5.7602   19.2945 O   0  0  0  0  0  0  0  0  0  0  0  0
   29.8478    4.9459   16.7026 O   0  0  0  0  0  0  0  0  0  0  0  0
   30.1522    3.8205   17.4728 C   0  0  0  0  0  0  0  0  0  0  0  0
   31.0417    2.8577   16.7156 C   0  0  1  0  0  0  0  0  0  0  0  0
   30.5071    2.6808   15.4655 O   0  0  0  0  0  0  0  0  0  0  0  0
   32.3860    3.5369   16.5523 C   0  0  1  0  0  0  0  0  0  0  0  0
   33.4267    2.6134   16.5396 O   0  0  0  0  0  0  0  0  0  0  0  0
   32.2488    4.0709   15.1396 C   0  0  1  0  0  0  0  0  0  0  0  0
   33.5230    4.1740   14.6011 O   0  0  0  0  0  0  0  0  0  0  0  0
   31.4852    2.8914   14.5228 C   0  0  2  0  0  0  0  0  0  0  0  0
   30.9719    3.1961   13.2271 N   0  0  0  0  0  0  0  0  0  0  0  0
   29.8083    3.7856   12.9546 C   0  0  0  0  0  0  0  0  0  0  0  0
   29.6900    3.8952   11.6243 N   0  0  0  0  0  0  0  0  0  0  0  0
   30.7803    3.3760   11.0090 C   0  0  0  0  0  0  0  0  0  0  0  0
   31.1602    3.2364    9.7091 C   0  0  0  0  0  0  0  0  0  0  0  0
   30.3380    3.6857    8.6588 N   0  0  0  0  0  0  0  0  0  0  0  0
   32.3358    2.6621    9.4283 N   0  0  0  0  0  0  0  0  0  0  0  0
   33.1222    2.2325   10.4313 C   0  0  0  0  0  0  0  0  0  0  0  0
   32.7553    2.3666   11.7043 N   0  0  0  0  0  0  0  0  0  0  0  0
   31.5867    2.9345   12.0637 C   0  0  0  0  0  0  0  0  0  0  0  0
  1  2  1  6
  1  3  2  0
  1  4  1  0
  8  1  1  0
  5  6  1  6
  5  7  2  0
  5  8  1  0
  5  9  1  0
  9 10  1  0
 11 10  1  1
 11 12  1  0
 11 13  1  0
 12 17  1  0
 13 14  1  6
 13 15  1  0
 15 16  1  6
 15 17  1  0
 17 18  1  6
 18 19  1  0
 18 27  1  0
 19 20  2  0
 20 21  1  0
 21 22  1  0
 21 27  2  0
 22 23  1  0
 22 24  2  0
 24 25  1  0
 25 26  2  0
 26 27  1  0
M  END
$$$$
