
     RDKit          3D

 27 29  0  0  0  0  0  0  0  0999 V2000
   26.3417    5.0810   19.9424 P   0  0  1  0  0  5  0  0  0  0  0  0
   27.6128    3.9801   19.9766 O   0  0  0  0  0  0  0  0  0  0  0  0
   25.1043    4.4038   19.3537 O   0  0  0  0  0  0  0  0  0  0  0  0
   26.0068    5.6287   21.5160 O   0  0  0  0  0  0  0  0  0  0  0  0
   28.3860    6.5476   18.7415 P   0  0  1  0  0  5  0  0  0  0  0  0
   28.8107    8.0703   19.3558 O   0  0  0  0  0  0  0  0  0  0  0  0
   29.1101    5.5150   19.6030 O   0  0  0  0  0  0  0  0  0  0  0  0
   26.7135    6.3905   18.9204 O   0  0  0  0  0  0  0  0  0  0  0  0
   28.8773    6.3636   17.1448 O   0  0  0  0  0  0  0  0  0  0  0  0
   28.0057    5.5995   16.4106 C   0  0  0  0  0  0  0  0  0  0  0  0
   28.6801    4.4586   15.6935 C   0  0  1  0  0  0  0  0  0  0  0  0
   30.0024    4.7436   15.3825 O   0  0  0  0  0  0  0  0  0  0  0  0
   28.8333    3.2460   16.5882 C   0  0  1  0  0  0  0  0  0  0  0  0
   27.6349    2.5507   16.7238 O   0  0  0  0  0  0  0  0  0  0  0  0
   29.8564    2.4573   15.7957 C   0  0  1  0  0  0  0  0  0  0  0  0
   29.1468    1.7203   14.8464 O   0  0  0  0  0  0  0  0  0  0  0  0
   30.6111    3.5540   15.0899 C   0  0  2  0  0  0  0  0  0  0  0  0
   31.9878    3.4926   15.5236 N   0  0  0  0  0  0  0  0  0  0  0  0
   32.5752    4.0348   16.6046 C   0  0  0  0  0  0  0  0  0  0  0  0
   33.8931    3.7222   16.6195 N   0  0  0  0  0  0  0  0  0  0  0  0
   34.1489    2.9791   15.5469 C   0  0  0  0  0  0  0  0  0  0  0  0
   35.2862    2.3979   15.0692 C   0  0  0  0  0  0  0  0  0  0  0  0
   36.5204    2.5374   15.7646 N   0  0  0  0  0  0  0  0  0  0  0  0
   35.2820    1.6666   13.9150 N   0  0  0  0  0  0  0  0  0  0  0  0
   34.1276    1.5253   13.2474 C   0  0  0  0  0  0  0  0  0  0  0  0
   33.0228    2.0988   13.7256 N   0  0  0  0  0  0  0  0  0  0  0  0
   32.9656    2.8346   14.8633 C   0  0  0  0  0  0  0  0  0  0  0  0
  1  2  1  1
  1  3  2  0
  1  4  1  0
  8  1  1  0
  5  6  1  1
  5  7  2  0
  5  8  1  0
  5  9  1  0
 10  9  1  1
 10 11  1  0
 11 12  1  1
 11 13  1  0
 12 17  1  0
 13 14  1  6
 13 15  1  0
 15 16  1  6
 15 17  1  0
 17 18  1  1
 18 19  1  0
 18 27  1  0
 19 20  2  0
 20 21  1  0
 21 22  1  0
 21 27  2  0
 22 23  1  0
 22 24  2  0
 24 25  1  0
 25 26  2  0
 26 27  1  0
M  END
$$$$
