
     RDKit          3D

 27 29  0  0  0  0  0  0  0  0999 V2000
   27.0540    5.8705   19.6197 P   0  0  1  0  0  5  0  0  0  0  0  0
   25.8124    4.7480   19.7843 O   0  0  0  0  0  0  0  0  0  0  0  0
   26.5053    7.2717   19.8880 O   0  0  0  0  0  0  0  0  0  0  0  0
   28.3025    5.5190   20.7178 O   0  0  0  0  0  0  0  0  0  0  0  0
   29.1687    6.6046   17.9579 P   0  0  1  0  0  5  0  0  0  0  0  0
   28.9776    8.0835   17.1500 O   0  0  0  0  0  0  0  0  0  0  0  0
   29.6570    6.9394   19.3658 O   0  0  0  0  0  0  0  0  0  0  0  0
   27.6459    5.8761   18.0237 O   0  0  0  0  0  0  0  0  0  0  0  0
   30.3111    5.6291   17.2042 O   0  0  0  0  0  0  0  0  0  0  0  0
   30.2384    4.3213   17.6131 C   0  0  0  0  0  0  0  0  0  0  0  0
   30.9090    3.3662   16.6597 C   0  0  1  0  0  0  0  0  0  0  0  0
   30.2405    3.2815   15.4462 O   0  0  0  0  0  0  0  0  0  0  0  0
   32.2682    3.8718   16.2227 C   0  0  1  0  0  0  0  0  0  0  0  0
   33.2313    3.6801   17.2095 O   0  0  0  0  0  0  0  0  0  0  0  0
   32.5093    2.9828   15.0192 C   0  0  1  0  0  0  0  0  0  0  0  0
   33.0592    1.7945   15.5022 O   0  0  0  0  0  0  0  0  0  0  0  0
   31.1031    2.7092   14.5520 C   0  0  2  0  0  0  0  0  0  0  0  0
   30.9725    3.2347   13.2127 N   0  0  0  0  0  0  0  0  0  0  0  0
   30.2473    4.2732   12.7620 C   0  0  0  0  0  0  0  0  0  0  0  0
   30.4213    4.4126   11.4258 N   0  0  0  0  0  0  0  0  0  0  0  0
   31.2587    3.4621   11.0215 C   0  0  0  0  0  0  0  0  0  0  0  0
   31.7756    3.1364    9.8024 C   0  0  0  0  0  0  0  0  0  0  0  0
   31.4293    3.8862    8.6430 N   0  0  0  0  0  0  0  0  0  0  0  0
   32.6375    2.0870    9.6511 N   0  0  0  0  0  0  0  0  0  0  0  0
   32.9741    1.3701   10.7333 C   0  0  0  0  0  0  0  0  0  0  0  0
   32.4615    1.6993   11.9195 N   0  0  0  0  0  0  0  0  0  0  0  0
   31.6033    2.7279   12.1309 C   0  0  0  0  0  0  0  0  0  0  0  0
  1  2  1  6
  1  3  2  0
  1  4  1  0
  8  1  1  0
  5  6  1  6
  5  7  2  0
  5  8  1  0
  5  9  1  0
 10  9  1  1
 10 11  1  0
 11 12  1  6
 11 13  1  0
 12 17  1  0
 13 14  1  1
 13 15  1  0
 15 16  1  1
 15 17  1  0
 17 18  1  6
 18 19  1  0
 18 27  1  0
 19 20  2  0
 20 21  1  0
 21 22  1  0
 21 27  2  0
 22 23  1  0
 22 24  2  0
 24 25  1  0
 25 26  2  0
 26 27  1  0
M  END
$$$$
