
     RDKit          3D

 27 29  0  0  0  0  0  0  0  0999 V2000
   27.2901    6.6965   19.6067 P   0  0  1  0  0  5  0  0  0  0  0  0
   27.4629    5.2832   20.5020 O   0  0  0  0  0  0  0  0  0  0  0  0
   26.4862    6.3964   18.3417 O   0  0  0  0  0  0  0  0  0  0  0  0
   26.4903    7.8755   20.5332 O   0  0  0  0  0  0  0  0  0  0  0  0
   29.6967    6.0273   18.3688 P   0  0  1  0  0  5  0  0  0  0  0  0
   31.2275    6.6592   18.0031 O   0  0  0  0  0  0  0  0  0  0  0  0
   29.9233    4.8882   19.3606 O   0  0  0  0  0  0  0  0  0  0  0  0
   28.8094    7.2682   19.0946 O   0  0  0  0  0  0  0  0  0  0  0  0
   28.9359    5.4140   17.0014 O   0  0  0  0  0  0  0  0  0  0  0  0
   28.3392    4.1999   17.2311 C   0  0  0  0  0  0  0  0  0  0  0  0
   29.0009    3.0669   16.4899 C   0  0  1  0  0  0  0  0  0  0  0  0
   29.3872    3.4340   15.2084 O   0  0  0  0  0  0  0  0  0  0  0  0
   30.3299    2.6905   17.1114 C   0  0  1  0  0  0  0  0  0  0  0  0
   30.1623    1.9347   18.2685 O   0  0  0  0  0  0  0  0  0  0  0  0
   30.9289    1.8723   15.9852 C   0  0  1  0  0  0  0  0  0  0  0  0
   30.4436    0.5721   16.1321 O   0  0  0  0  0  0  0  0  0  0  0  0
   30.2826    2.4951   14.7748 C   0  0  2  0  0  0  0  0  0  0  0  0
   31.3319    3.0429   13.9465 N   0  0  0  0  0  0  0  0  0  0  0  0
   31.9001    4.2611   13.9700 C   0  0  0  0  0  0  0  0  0  0  0  0
   32.8507    4.3458   13.0087 N   0  0  0  0  0  0  0  0  0  0  0  0
   32.8905    3.1804   12.3696 C   0  0  0  0  0  0  0  0  0  0  0  0
   33.6448    2.7143   11.3336 C   0  0  0  0  0  0  0  0  0  0  0  0
   34.6267    3.5424   10.7201 N   0  0  0  0  0  0  0  0  0  0  0  0
   33.4864    1.4457   10.8512 N   0  0  0  0  0  0  0  0  0  0  0  0
   32.5657    0.6525   11.4180 C   0  0  0  0  0  0  0  0  0  0  0  0
   31.8348    1.1207   12.4303 N   0  0  0  0  0  0  0  0  0  0  0  0
   31.9468    2.3679   12.9508 C   0  0  0  0  0  0  0  0  0  0  0  0
  1  2  1  1
  1  3  2  0
  1  4  1  0
  8  1  1  0
  5  6  1  6
  5  7  2  0
  5  8  1  0
  5  9  1  0
 10  9  1  1
 10 11  1  0
 11 12  1  6
 11 13  1  0
 12 17  1  0
 13 14  1  1
 13 15  1  0
 15 16  1  1
 15 17  1  0
 17 18  1  6
 18 19  1  0
 18 27  1  0
 19 20  2  0
 20 21  1  0
 21 22  1  0
 21 27  2  0
 22 23  1  0
 22 24  2  0
 24 25  1  0
 25 26  2  0
 26 27  1  0
M  END
$$$$
