
     RDKit          3D

 27 29  0  0  0  0  0  0  0  0999 V2000
   27.8290    7.6061   18.8365 P   0  0  1  0  0  5  0  0  0  0  0  0
   26.7586    8.5971   17.9835 O   0  0  0  0  0  0  0  0  0  0  0  0
   28.6605    8.4554   19.7885 O   0  0  0  0  0  0  0  0  0  0  0  0
   26.9483    6.4914   19.7451 O   0  0  0  0  0  0  0  0  0  0  0  0
   29.3580    5.3226   18.2904 P   0  0  1  0  0  5  0  0  0  0  0  0
   31.0111    5.0724   18.0512 O   0  0  0  0  0  0  0  0  0  0  0  0
   29.1128    5.2145   19.7882 O   0  0  0  0  0  0  0  0  0  0  0  0
   28.8888    6.8373   17.7673 O   0  0  0  0  0  0  0  0  0  0  0  0
   28.4305    4.1307   17.5414 O   0  0  0  0  0  0  0  0  0  0  0  0
   28.8266    2.8623   17.9734 C   0  0  0  0  0  0  0  0  0  0  0  0
   29.2053    1.9753   16.8066 C   0  0  1  0  0  0  0  0  0  0  0  0
   29.3910    2.7755   15.7088 O   0  0  0  0  0  0  0  0  0  0  0  0
   30.5387    1.3432   17.1495 C   0  0  1  0  0  0  0  0  0  0  0  0
   30.6620    0.0754   16.5897 O   0  0  0  0  0  0  0  0  0  0  0  0
   31.4759    2.2589   16.3859 C   0  0  1  0  0  0  0  0  0  0  0  0
   32.6149    1.5319   16.0726 O   0  0  0  0  0  0  0  0  0  0  0  0
   30.6087    2.4860   15.1405 C   0  0  2  0  0  0  0  0  0  0  0  0
   31.1139    3.5314   14.3116 N   0  0  0  0  0  0  0  0  0  0  0  0
   30.9373    4.8400   14.4911 C   0  0  0  0  0  0  0  0  0  0  0  0
   31.5655    5.4919   13.5032 N   0  0  0  0  0  0  0  0  0  0  0  0
   32.1628    4.6126   12.6624 C   0  0  0  0  0  0  0  0  0  0  0  0
   32.9094    4.7385   11.5309 C   0  0  0  0  0  0  0  0  0  0  0  0
   33.2101    6.0049   10.9951 N   0  0  0  0  0  0  0  0  0  0  0  0
   33.3636    3.6380   10.9199 N   0  0  0  0  0  0  0  0  0  0  0  0
   33.0768    2.4275   11.4311 C   0  0  0  0  0  0  0  0  0  0  0  0
   32.3471    2.2988   12.5374 N   0  0  0  0  0  0  0  0  0  0  0  0
   31.8557    3.3608   13.2068 C   0  0  0  0  0  0  0  0  0  0  0  0
  1  2  1  6
  1  3  2  0
  1  4  1  0
  8  1  1  0
  5  6  1  1
  5  7  2  0
  5  8  1  0
  5  9  1  0
  9 10  1  0
 11 10  1  1
 11 12  1  0
 11 13  1  0
 12 17  1  0
 13 14  1  6
 13 15  1  0
 15 16  1  6
 15 17  1  0
 17 18  1  1
 18 19  1  0
 18 27  1  0
 19 20  2  0
 20 21  1  0
 21 22  1  0
 21 27  2  0
 22 23  1  0
 22 24  2  0
 24 25  1  0
 25 26  2  0
 26 27  1  0
M  END
$$$$
