
     RDKit          3D

 27 29  0  0  0  0  0  0  0  0999 V2000
   28.0907    5.9604   20.7410 P   0  0  1  0  0  5  0  0  0  0  0  0
   26.6761    5.2345   20.1925 O   0  0  0  0  0  0  0  0  0  0  0  0
   27.8465    7.4568   20.9349 O   0  0  0  0  0  0  0  0  0  0  0  0
   28.5698    5.2580   22.2125 O   0  0  0  0  0  0  0  0  0  0  0  0
   28.8566    6.5276   18.1211 P   0  0  1  0  0  5  0  0  0  0  0  0
   27.3903    7.3296   18.4094 O   0  0  0  0  0  0  0  0  0  0  0  0
   29.8631    7.5993   17.7076 O   0  0  0  0  0  0  0  0  0  0  0  0
   29.3259    5.8145   19.5789 O   0  0  0  0  0  0  0  0  0  0  0  0
   28.7160    5.4056   16.8777 O   0  0  0  0  0  0  0  0  0  0  0  0
   28.8470    4.1127   17.3181 C   0  0  0  0  0  0  0  0  0  0  0  0
   29.7942    3.2956   16.4779 C   0  0  1  0  0  0  0  0  0  0  0  0
   29.5888    3.4888   15.1189 O   0  0  0  0  0  0  0  0  0  0  0  0
   31.2274    3.7588   16.6372 C   0  0  1  0  0  0  0  0  0  0  0  0
   31.7839    3.3119   17.8324 O   0  0  0  0  0  0  0  0  0  0  0  0
   31.8600    3.0873   15.4348 C   0  0  1  0  0  0  0  0  0  0  0  0
   32.1908    1.7898   15.8280 O   0  0  0  0  0  0  0  0  0  0  0  0
   30.7007    3.0202   14.4744 C   0  0  2  0  0  0  0  0  0  0  0  0
   31.0520    3.7899   13.3035 N   0  0  0  0  0  0  0  0  0  0  0  0
   30.8101    5.0811   13.0173 C   0  0  0  0  0  0  0  0  0  0  0  0
   31.3212    5.3881   11.8010 N   0  0  0  0  0  0  0  0  0  0  0  0
   31.8906    4.2920   11.3087 C   0  0  0  0  0  0  0  0  0  0  0  0
   32.5463    4.0296   10.1421 C   0  0  0  0  0  0  0  0  0  0  0  0
   32.7270    5.0492    9.1655 N   0  0  0  0  0  0  0  0  0  0  0  0
   33.0493    2.7884    9.8711 N   0  0  0  0  0  0  0  0  0  0  0  0
   32.8876    1.8163   10.7806 C   0  0  0  0  0  0  0  0  0  0  0  0
   32.2446    2.0863   11.9172 N   0  0  0  0  0  0  0  0  0  0  0  0
   31.7247    3.2962   12.2411 C   0  0  0  0  0  0  0  0  0  0  0  0
  1  2  1  6
  1  3  2  0
  1  4  1  0
  8  1  1  0
  5  6  1  1
  5  7  2  0
  5  8  1  0
  5  9  1  0
 10  9  1  1
 10 11  1  0
 11 12  1  6
 11 13  1  0
 12 17  1  0
 13 14  1  1
 13 15  1  0
 15 16  1  1
 15 17  1  0
 17 18  1  6
 18 19  1  0
 18 27  1  0
 19 20  2  0
 20 21  1  0
 21 22  1  0
 21 27  2  0
 22 23  1  0
 22 24  2  0
 24 25  1  0
 25 26  2  0
 26 27  1  0
M  END
$$$$
