
     RDKit          3D

 27 29  0  0  0  0  0  0  0  0999 V2000
   25.5886    5.0484   20.6591 P   0  0  1  0  0  5  0  0  0  0  0  0
   24.7443    4.7501   22.0828 O   0  0  0  0  0  0  0  0  0  0  0  0
   25.4539    3.8413   19.7311 O   0  0  0  0  0  0  0  0  0  0  0  0
   24.9684    6.4350   19.8969 O   0  0  0  0  0  0  0  0  0  0  0  0
   28.0073    6.0667   19.7180 P   0  0  1  0  0  5  0  0  0  0  0  0
   26.7806    6.7320   18.7542 O   0  0  0  0  0  0  0  0  0  0  0  0
   28.8127    7.2422   20.2677 O   0  0  0  0  0  0  0  0  0  0  0  0
   27.2502    5.2348   20.9785 O   0  0  0  0  0  0  0  0  0  0  0  0
   29.0308    5.0775   18.8243 O   0  0  0  0  0  0  0  0  0  0  0  0
   28.3955    3.9605   18.3433 C   0  0  0  0  0  0  0  0  0  0  0  0
   29.1662    3.2677   17.2493 C   0  0  1  0  0  0  0  0  0  0  0  0
   29.2412    4.0345   16.0948 O   0  0  0  0  0  0  0  0  0  0  0  0
   30.6301    3.1126   17.6061 C   0  0  1  0  0  0  0  0  0  0  0  0
   30.8331    2.0732   18.5098 O   0  0  0  0  0  0  0  0  0  0  0  0
   31.2051    2.7932   16.2408 C   0  0  1  0  0  0  0  0  0  0  0  0
   31.0604    1.4175   16.0566 O   0  0  0  0  0  0  0  0  0  0  0  0
   30.2427    3.5068   15.3269 C   0  0  2  0  0  0  0  0  0  0  0  0
   30.9875    4.5031   14.5922 N   0  0  0  0  0  0  0  0  0  0  0  0
   31.0198    5.8387   14.7429 C   0  0  0  0  0  0  0  0  0  0  0  0
   31.8602    6.3858   13.8322 N   0  0  0  0  0  0  0  0  0  0  0  0
   32.3659    5.3990   13.0982 C   0  0  0  0  0  0  0  0  0  0  0  0
   33.2475    5.3725   12.0582 C   0  0  0  0  0  0  0  0  0  0  0  0
   33.8174    6.5774   11.5585 N   0  0  0  0  0  0  0  0  0  0  0  0
   33.6124    4.1978   11.4633 N   0  0  0  0  0  0  0  0  0  0  0  0
   33.0847    3.0535   11.9220 C   0  0  0  0  0  0  0  0  0  0  0  0
   32.2239    3.0936   12.9396 N   0  0  0  0  0  0  0  0  0  0  0  0
   31.8248    4.2267   13.5688 C   0  0  0  0  0  0  0  0  0  0  0  0
  1  2  1  1
  1  3  2  0
  1  4  1  0
  8  1  1  0
  5  6  1  6
  5  7  2  0
  5  8  1  0
  5  9  1  0
 10  9  1  1
 10 11  1  0
 11 12  1  6
 11 13  1  0
 12 17  1  0
 13 14  1  1
 13 15  1  0
 15 16  1  6
 15 17  1  0
 17 18  1  1
 18 19  1  0
 18 27  1  0
 19 20  2  0
 20 21  1  0
 21 22  1  0
 21 27  2  0
 22 23  1  0
 22 24  2  0
 24 25  1  0
 25 26  2  0
 26 27  1  0
M  END
$$$$
