
     RDKit          3D

 27 29  0  0  0  0  0  0  0  0999 V2000
   27.6634    5.6092   20.1467 P   0  0  1  0  0  5  0  0  0  0  0  0
   26.7500    5.9250   18.7605 O   0  0  0  0  0  0  0  0  0  0  0  0
   27.0897    6.3880   21.3228 O   0  0  0  0  0  0  0  0  0  0  0  0
   27.5789    3.9632   20.5032 O   0  0  0  0  0  0  0  0  0  0  0  0
   29.6472    6.3513   18.3125 P   0  0  1  0  0  5  0  0  0  0  0  0
   28.3332    6.9634   17.4458 O   0  0  0  0  0  0  0  0  0  0  0  0
   30.7559    7.3889   18.2144 O   0  0  0  0  0  0  0  0  0  0  0  0
   29.2604    6.1146   19.9195 O   0  0  0  0  0  0  0  0  0  0  0  0
   30.2330    4.9234   17.6344 O   0  0  0  0  0  0  0  0  0  0  0  0
   29.1892    4.0171   17.4308 C   0  0  0  0  0  0  0  0  0  0  0  0
   29.6356    2.8416   16.5880 C   0  0  1  0  0  0  0  0  0  0  0  0
   29.6863    3.2524   15.2809 O   0  0  0  0  0  0  0  0  0  0  0  0
   31.0467    2.5006   17.0213 C   0  0  1  0  0  0  0  0  0  0  0  0
   31.3059    1.1397   16.8921 O   0  0  0  0  0  0  0  0  0  0  0  0
   31.8396    3.2084   15.9395 C   0  0  1  0  0  0  0  0  0  0  0  0
   33.0482    2.5428   15.7973 O   0  0  0  0  0  0  0  0  0  0  0  0
   30.9113    2.9222   14.7516 C   0  0  2  0  0  0  0  0  0  0  0  0
   31.2577    3.6849   13.5969 N   0  0  0  0  0  0  0  0  0  0  0  0
   31.2226    5.0123   13.4847 C   0  0  0  0  0  0  0  0  0  0  0  0
   31.6201    5.3438   12.2486 N   0  0  0  0  0  0  0  0  0  0  0  0
   31.9211    4.2313   11.5353 C   0  0  0  0  0  0  0  0  0  0  0  0
   32.3602    4.0074   10.2662 C   0  0  0  0  0  0  0  0  0  0  0  0
   32.5995    5.0747    9.3804 N   0  0  0  0  0  0  0  0  0  0  0  0
   32.5669    2.7503    9.8568 N   0  0  0  0  0  0  0  0  0  0  0  0
   32.3385    1.7297   10.7025 C   0  0  0  0  0  0  0  0  0  0  0  0
   31.9090    1.9433   11.9447 N   0  0  0  0  0  0  0  0  0  0  0  0
   31.6788    3.1808   12.4271 C   0  0  0  0  0  0  0  0  0  0  0  0
  1  2  1  6
  1  3  2  0
  1  4  1  0
  8  1  1  0
  5  6  1  6
  5  7  2  0
  5  8  1  0
  5  9  1  0
  9 10  1  0
 11 10  1  1
 11 12  1  0
 11 13  1  0
 12 17  1  0
 13 14  1  6
 13 15  1  0
 15 16  1  6
 15 17  1  0
 17 18  1  6
 18 19  1  0
 18 27  1  0
 19 20  2  0
 20 21  1  0
 21 22  1  0
 21 27  2  0
 22 23  1  0
 22 24  2  0
 24 25  1  0
 25 26  2  0
 26 27  1  0
M  END
$$$$
