
     RDKit          3D

 27 29  0  0  0  0  0  0  0  0999 V2000
   27.4333    6.7878   19.1405 P   0  0  1  0  0  5  0  0  0  0  0  0
   27.3477    5.8302   20.5302 O   0  0  0  0  0  0  0  0  0  0  0  0
   26.6211    6.1416   18.0262 O   0  0  0  0  0  0  0  0  0  0  0  0
   26.7750    8.3047   19.4712 O   0  0  0  0  0  0  0  0  0  0  0  0
   29.9175    5.5167   18.8890 P   0  0  1  0  0  5  0  0  0  0  0  0
   31.4915    5.8743   19.3858 O   0  0  0  0  0  0  0  0  0  0  0  0
   29.2705    4.7321   20.0208 O   0  0  0  0  0  0  0  0  0  0  0  0
   29.0348    6.9069   18.6129 O   0  0  0  0  0  0  0  0  0  0  0  0
   29.9021    4.5316   17.5210 O   0  0  0  0  0  0  0  0  0  0  0  0
   28.6004    4.1081   17.2406 C   0  0  0  0  0  0  0  0  0  0  0  0
   28.5786    3.1049   16.1072 C   0  0  1  0  0  0  0  0  0  0  0  0
   29.3153    3.6194   15.0716 O   0  0  0  0  0  0  0  0  0  0  0  0
   29.2867    1.8621   16.6065 C   0  0  1  0  0  0  0  0  0  0  0  0
   28.7653    0.7096   16.0271 O   0  0  0  0  0  0  0  0  0  0  0  0
   30.6632    2.0768   16.0074 C   0  0  1  0  0  0  0  0  0  0  0  0
   31.2449    0.8305   15.8273 O   0  0  0  0  0  0  0  0  0  0  0  0
   30.2356    2.6831   14.6642 C   0  0  2  0  0  0  0  0  0  0  0  0
   31.3355    3.2398   13.9462 N   0  0  0  0  0  0  0  0  0  0  0  0
   32.0092    4.3454   14.2617 C   0  0  0  0  0  0  0  0  0  0  0  0
   32.9673    4.5344   13.3441 N   0  0  0  0  0  0  0  0  0  0  0  0
   32.9305    3.5496   12.4136 C   0  0  0  0  0  0  0  0  0  0  0  0
   33.6590    3.2702   11.2978 C   0  0  0  0  0  0  0  0  0  0  0  0
   34.7209    4.1019   10.8954 N   0  0  0  0  0  0  0  0  0  0  0  0
   33.3581    2.1859   10.5736 N   0  0  0  0  0  0  0  0  0  0  0  0
   32.3437    1.3907   10.9575 C   0  0  0  0  0  0  0  0  0  0  0  0
   31.6281    1.6594   12.0477 N   0  0  0  0  0  0  0  0  0  0  0  0
   31.8723    2.7325   12.8262 C   0  0  0  0  0  0  0  0  0  0  0  0
  1  2  1  1
  1  3  2  0
  1  4  1  0
  8  1  1  0
  5  6  1  1
  5  7  2  0
  5  8  1  0
  5  9  1  0
  9 10  1  0
 11 10  1  1
 11 12  1  0
 11 13  1  0
 12 17  1  0
 13 14  1  6
 13 15  1  0
 15 16  1  6
 15 17  1  0
 17 18  1  1
 18 19  1  0
 18 27  1  0
 19 20  2  0
 20 21  1  0
 21 22  1  0
 21 27  2  0
 22 23  1  0
 22 24  2  0
 24 25  1  0
 25 26  2  0
 26 27  1  0
M  END
$$$$
