
     RDKit          3D

 27 29  0  0  0  0  0  0  0  0999 V2000
   27.9752    5.6499   21.2297 P   0  0  1  0  0  5  0  0  0  0  0  0
   26.4028    5.6746   20.6111 O   0  0  0  0  0  0  0  0  0  0  0  0
   28.2986    7.0015   21.8524 O   0  0  0  0  0  0  0  0  0  0  0  0
   28.0804    4.4697   22.4294 O   0  0  0  0  0  0  0  0  0  0  0  0
   28.6810    6.1496   18.5646 P   0  0  1  0  0  5  0  0  0  0  0  0
   27.0571    6.6135   18.5567 O   0  0  0  0  0  0  0  0  0  0  0  0
   29.5000    7.4262   18.4436 O   0  0  0  0  0  0  0  0  0  0  0  0
   29.0861    5.3727   19.9861 O   0  0  0  0  0  0  0  0  0  0  0  0
   29.0609    5.1804   17.2386 O   0  0  0  0  0  0  0  0  0  0  0  0
   28.5871    3.8805   17.4339 C   0  0  0  0  0  0  0  0  0  0  0  0
   29.3225    2.8878   16.5592 C   0  0  1  0  0  0  0  0  0  0  0  0
   29.6163    3.5061   15.3712 O   0  0  0  0  0  0  0  0  0  0  0  0
   30.6317    2.5748   17.2544 C   0  0  1  0  0  0  0  0  0  0  0  0
   31.0481    1.2724   16.9968 O   0  0  0  0  0  0  0  0  0  0  0  0
   31.5668    3.4979   16.4972 C   0  0  1  0  0  0  0  0  0  0  0  0
   32.8378    2.9446   16.5455 O   0  0  0  0  0  0  0  0  0  0  0  0
   30.9541    3.3464   15.0984 C   0  0  2  0  0  0  0  0  0  0  0  0
   31.4663    4.3062   14.1756 N   0  0  0  0  0  0  0  0  0  0  0  0
   31.1276    5.5929   14.1014 C   0  0  0  0  0  0  0  0  0  0  0  0
   31.8262    6.1584   13.1075 N   0  0  0  0  0  0  0  0  0  0  0  0
   32.6334    5.2432   12.5177 C   0  0  0  0  0  0  0  0  0  0  0  0
   33.5256    5.2865   11.4901 C   0  0  0  0  0  0  0  0  0  0  0  0
   33.7690    6.4820   10.7882 N   0  0  0  0  0  0  0  0  0  0  0  0
   34.1806    4.1722   11.1440 N   0  0  0  0  0  0  0  0  0  0  0  0
   33.9486    3.0294   11.8142 C   0  0  0  0  0  0  0  0  0  0  0  0
   33.0772    2.9817   12.8198 N   0  0  0  0  0  0  0  0  0  0  0  0
   32.3809    4.0626   13.2247 C   0  0  0  0  0  0  0  0  0  0  0  0
  1  2  1  6
  1  3  2  0
  1  4  1  0
  8  1  1  0
  5  6  1  1
  5  7  2  0
  5  8  1  0
  5  9  1  0
  9 10  1  0
 11 10  1  1
 11 12  1  0
 11 13  1  0
 12 17  1  0
 13 14  1  6
 13 15  1  0
 15 16  1  6
 15 17  1  0
 17 18  1  6
 18 19  1  0
 18 27  1  0
 19 20  2  0
 20 21  1  0
 21 22  1  0
 21 27  2  0
 22 23  1  0
 22 24  2  0
 24 25  1  0
 25 26  2  0
 26 27  1  0
M  END
$$$$
