
     RDKit          3D

 27 29  0  0  0  0  0  0  0  0999 V2000
   26.9810    5.3207   21.4724 P   0  0  1  0  0  5  0  0  0  0  0  0
   25.9426    6.6344   21.6305 O   0  0  0  0  0  0  0  0  0  0  0  0
   28.4037    5.7585   21.8198 O   0  0  0  0  0  0  0  0  0  0  0  0
   26.4924    4.0674   22.5110 O   0  0  0  0  0  0  0  0  0  0  0  0
   27.7825    5.9152   18.8693 P   0  0  1  0  0  5  0  0  0  0  0  0
   26.9648    7.3865   19.0770 O   0  0  0  0  0  0  0  0  0  0  0  0
   29.2173    6.1463   19.3392 O   0  0  0  0  0  0  0  0  0  0  0  0
   27.0176    4.7797   19.8589 O   0  0  0  0  0  0  0  0  0  0  0  0
   27.8085    5.4422   17.2567 O   0  0  0  0  0  0  0  0  0  0  0  0
   27.3784    4.1513   17.0799 C   0  0  0  0  0  0  0  0  0  0  0  0
   28.4035    3.2738   16.4091 C   0  0  1  0  0  0  0  0  0  0  0  0
   29.1315    3.9599   15.4471 O   0  0  0  0  0  0  0  0  0  0  0  0
   29.4945    2.8502   17.3706 C   0  0  1  0  0  0  0  0  0  0  0  0
   29.0679    1.8315   18.2182 O   0  0  0  0  0  0  0  0  0  0  0  0
   30.5419    2.3650   16.3886 C   0  0  1  0  0  0  0  0  0  0  0  0
   30.2291    1.0377   16.0918 O   0  0  0  0  0  0  0  0  0  0  0  0
   30.2457    3.2131   15.1787 C   0  0  2  0  0  0  0  0  0  0  0  0
   31.4176    4.0109   14.9009 N   0  0  0  0  0  0  0  0  0  0  0  0
   31.7285    5.2546   15.3061 C   0  0  0  0  0  0  0  0  0  0  0  0
   32.9348    5.6150   14.8062 N   0  0  0  0  0  0  0  0  0  0  0  0
   33.3959    4.6007   14.0804 C   0  0  0  0  0  0  0  0  0  0  0  0
   34.5404    4.4171   13.3621 C   0  0  0  0  0  0  0  0  0  0  0  0
   35.5262    5.4415   13.2923 N   0  0  0  0  0  0  0  0  0  0  0  0
   34.7800    3.2523   12.6890 N   0  0  0  0  0  0  0  0  0  0  0  0
   33.8615    2.2769   12.7444 C   0  0  0  0  0  0  0  0  0  0  0  0
   32.7467    2.4695   13.4503 N   0  0  0  0  0  0  0  0  0  0  0  0
   32.4542    3.6015   14.1375 C   0  0  0  0  0  0  0  0  0  0  0  0
  1  2  1  6
  1  3  2  0
  1  4  1  0
  8  1  1  0
  5  6  1  6
  5  7  2  0
  5  8  1  0
  5  9  1  0
 10  9  1  1
 10 11  1  0
 11 12  1  6
 11 13  1  0
 12 17  1  0
 13 14  1  1
 13 15  1  0
 15 16  1  6
 15 17  1  0
 17 18  1  1
 18 19  1  0
 18 27  1  0
 19 20  2  0
 20 21  1  0
 21 22  1  0
 21 27  2  0
 22 23  1  0
 22 24  2  0
 24 25  1  0
 25 26  2  0
 26 27  1  0
M  END
$$$$
