
     RDKit          3D

 27 29  0  0  0  0  0  0  0  0999 V2000
   26.2523    6.3629   20.6473 P   0  0  1  0  0  5  0  0  0  0  0  0
   26.8278    4.8052   20.9140 O   0  0  0  0  0  0  0  0  0  0  0  0
   24.9920    6.2936   19.7851 O   0  0  0  0  0  0  0  0  0  0  0  0
   25.8966    7.1114   22.1310 O   0  0  0  0  0  0  0  0  0  0  0  0
   28.4253    6.2653   18.9035 P   0  0  1  0  0  5  0  0  0  0  0  0
   28.5986    6.9414   17.3578 O   0  0  0  0  0  0  0  0  0  0  0  0
   29.8165    6.2612   19.5337 O   0  0  0  0  0  0  0  0  0  0  0  0
   27.3909    7.2784   19.7739 O   0  0  0  0  0  0  0  0  0  0  0  0
   27.8578    4.6850   18.8294 O   0  0  0  0  0  0  0  0  0  0  0  0
   27.3728    4.3576   17.5883 C   0  0  0  0  0  0  0  0  0  0  0  0
   28.2847    3.4342   16.8225 C   0  0  1  0  0  0  0  0  0  0  0  0
   29.0391    4.1108   15.8740 O   0  0  0  0  0  0  0  0  0  0  0  0
   29.3650    2.8503   17.7092 C   0  0  1  0  0  0  0  0  0  0  0  0
   28.8747    1.8229   18.5106 O   0  0  0  0  0  0  0  0  0  0  0  0
   30.3250    2.3348   16.6560 C   0  0  1  0  0  0  0  0  0  0  0  0
   29.8769    1.0640   16.2926 O   0  0  0  0  0  0  0  0  0  0  0  0
   30.0667    3.2829   15.5136 C   0  0  2  0  0  0  0  0  0  0  0  0
   31.2982    3.9852   15.2354 N   0  0  0  0  0  0  0  0  0  0  0  0
   31.8923    4.9831   15.9127 C   0  0  0  0  0  0  0  0  0  0  0  0
   33.0405    5.3436   15.2908 N   0  0  0  0  0  0  0  0  0  0  0  0
   33.1808    4.5754   14.2146 C   0  0  0  0  0  0  0  0  0  0  0  0
   34.1339    4.5040   13.2420 C   0  0  0  0  0  0  0  0  0  0  0  0
   35.2614    5.3727   13.2650 N   0  0  0  0  0  0  0  0  0  0  0  0
   34.0417    3.6034   12.2186 N   0  0  0  0  0  0  0  0  0  0  0  0
   32.9857    2.7776   12.1820 C   0  0  0  0  0  0  0  0  0  0  0  0
   32.0609    2.8578   13.1392 N   0  0  0  0  0  0  0  0  0  0  0  0
   32.0984    3.7294   14.1775 C   0  0  0  0  0  0  0  0  0  0  0  0
  1  2  1  1
  1  3  2  0
  1  4  1  0
  8  1  1  0
  5  6  1  6
  5  7  2  0
  5  8  1  0
  5  9  1  0
 10  9  1  1
 10 11  1  0
 11 12  1  6
 11 13  1  0
 12 17  1  0
 13 14  1  6
 13 15  1  0
 15 16  1  6
 15 17  1  0
 17 18  1  1
 18 19  1  0
 18 27  1  0
 19 20  2  0
 20 21  1  0
 21 22  1  0
 21 27  2  0
 22 23  1  0
 22 24  2  0
 24 25  1  0
 25 26  2  0
 26 27  1  0
M  END
$$$$
