
     RDKit          3D

 27 29  0  0  0  0  0  0  0  0999 V2000
   11.4889    3.4717   36.1285 P   0  0  1  0  0  5  0  0  0  0  0  0
   12.4958    3.9301   34.8617 O   0  0  0  0  0  0  0  0  0  0  0  0
   11.4568    4.5854   37.1749 O   0  0  0  0  0  0  0  0  0  0  0  0
    9.9191    3.1815   35.5454 O   0  0  0  0  0  0  0  0  0  0  0  0
   13.7765    1.9870   36.7070 P   0  0  1  0  0  5  0  0  0  0  0  0
   14.1043    2.3384   35.0805 O   0  0  0  0  0  0  0  0  0  0  0  0
   14.4750    3.0651   37.5330 O   0  0  0  0  0  0  0  0  0  0  0  0
   12.1021    2.0881   36.9077 O   0  0  0  0  0  0  0  0  0  0  0  0
   14.3831    0.4839   37.1514 O   0  0  0  0  0  0  0  0  0  0  0  0
   15.2075    0.5517   38.2461 C   0  0  0  0  0  0  0  0  0  0  0  0
   14.7594   -0.3353   39.3789 C   0  0  1  0  0  0  0  0  0  0  0  0
   14.0879    0.3736   40.3653 O   0  0  0  0  0  0  0  0  0  0  0  0
   13.6962   -1.3184   38.9347 C   0  0  1  0  0  0  0  0  0  0  0  0
   14.2428   -2.3809   38.2201 O   0  0  0  0  0  0  0  0  0  0  0  0
   13.1620   -1.7607   40.2822 C   0  0  1  0  0  0  0  0  0  0  0  0
   13.9919   -2.7922   40.7236 O   0  0  0  0  0  0  0  0  0  0  0  0
   13.4158   -0.5406   41.1294 C   0  0  2  0  0  0  0  0  0  0  0  0
   12.1394   -0.0611   41.6069 N   0  0  0  0  0  0  0  0  0  0  0  0
   11.3232    0.8744   41.0910 C   0  0  0  0  0  0  0  0  0  0  0  0
   10.2226    1.0071   41.8695 N   0  0  0  0  0  0  0  0  0  0  0  0
   10.3351    0.1554   42.8845 C   0  0  0  0  0  0  0  0  0  0  0  0
    9.5341   -0.1305   43.9504 C   0  0  0  0  0  0  0  0  0  0  0  0
    8.2969    0.5496   44.1321 N   0  0  0  0  0  0  0  0  0  0  0  0
    9.8876   -1.0726   44.8748 N   0  0  0  0  0  0  0  0  0  0  0  0
   11.0500   -1.7226   44.7185 C   0  0  0  0  0  0  0  0  0  0  0  0
   11.8238   -1.4334   43.6717 N   0  0  0  0  0  0  0  0  0  0  0  0
   11.5265   -0.5105   42.7237 C   0  0  0  0  0  0  0  0  0  0  0  0
  1  2  1  6
  1  3  2  0
  1  4  1  0
  8  1  1  0
  5  6  1  6
  5  7  2  0
  5  8  1  0
  5  9  1  0
 10  9  1  1
 10 11  1  0
 11 12  1  1
 11 13  1  0
 12 17  1  0
 13 14  1  1
 13 15  1  0
 15 16  1  1
 15 17  1  0
 17 18  1  6
 18 19  1  0
 18 27  1  0
 19 20  2  0
 20 21  1  0
 21 22  1  0
 21 27  2  0
 22 23  1  0
 22 24  2  0
 24 25  1  0
 25 26  2  0
 26 27  1  0
M  END
$$$$
