
     RDKit          3D

 27 29  0  0  0  0  0  0  0  0999 V2000
   28.4376    6.1744   20.2566 P   0  0  1  0  0  5  0  0  0  0  0  0
   29.3480    7.4090   20.9654 O   0  0  0  0  0  0  0  0  0  0  0  0
   29.3520    5.0125   19.8921 O   0  0  0  0  0  0  0  0  0  0  0  0
   27.2909    5.6252   21.3643 O   0  0  0  0  0  0  0  0  0  0  0  0
   28.6043    6.3790   17.4672 P   0  0  1  0  0  5  0  0  0  0  0  0
   27.6607    5.6134   16.2942 O   0  0  0  0  0  0  0  0  0  0  0  0
   29.0993    7.6783   16.8489 O   0  0  0  0  0  0  0  0  0  0  0  0
   27.7118    6.7291   18.8343 O   0  0  0  0  0  0  0  0  0  0  0  0
   29.9619    5.4651   17.8719 O   0  0  0  0  0  0  0  0  0  0  0  0
   29.6632    4.1010   17.8214 C   0  0  0  0  0  0  0  0  0  0  0  0
   30.7836    3.3144   17.1752 C   0  0  1  0  0  0  0  0  0  0  0  0
   30.3072    2.7820   16.0049 O   0  0  0  0  0  0  0  0  0  0  0  0
   31.8718    4.3078   16.8228 C   0  0  1  0  0  0  0  0  0  0  0  0
   33.1348    3.7285   16.8944 O   0  0  0  0  0  0  0  0  0  0  0  0
   31.5682    4.5309   15.3538 C   0  0  1  0  0  0  0  0  0  0  0  0
   32.7511    4.8965   14.7285 O   0  0  0  0  0  0  0  0  0  0  0  0
   31.1706    3.0961   14.9823 C   0  0  2  0  0  0  0  0  0  0  0  0
   30.5749    3.0164   13.6886 N   0  0  0  0  0  0  0  0  0  0  0  0
   29.2708    3.0306   13.4148 C   0  0  0  0  0  0  0  0  0  0  0  0
   29.1153    2.9369   12.0871 N   0  0  0  0  0  0  0  0  0  0  0  0
   30.3220    2.8601   11.4748 C   0  0  0  0  0  0  0  0  0  0  0  0
   30.7236    2.7541   10.1782 C   0  0  0  0  0  0  0  0  0  0  0  0
   29.7870    2.7015    9.1288 N   0  0  0  0  0  0  0  0  0  0  0  0
   32.0313    2.6993    9.8999 N   0  0  0  0  0  0  0  0  0  0  0  0
   32.9269    2.7495   10.9020 C   0  0  0  0  0  0  0  0  0  0  0  0
   32.5395    2.8531   12.1717 N   0  0  0  0  0  0  0  0  0  0  0  0
   31.2410    2.9135   12.5285 C   0  0  0  0  0  0  0  0  0  0  0  0
  1  2  1  1
  1  3  2  0
  1  4  1  0
  8  1  1  0
  5  6  1  6
  5  7  2  0
  5  8  1  0
  5  9  1  0
  9 10  1  0
 11 10  1  6
 11 12  1  0
 11 13  1  0
 12 17  1  0
 13 14  1  6
 13 15  1  0
 15 16  1  6
 15 17  1  0
 17 18  1  6
 18 19  1  0
 18 27  1  0
 19 20  2  0
 20 21  1  0
 21 22  1  0
 21 27  2  0
 22 23  1  0
 22 24  2  0
 24 25  1  0
 25 26  2  0
 26 27  1  0
M  END
$$$$
