
     RDKit          3D

 27 29  0  0  0  0  0  0  0  0999 V2000
   11.6627    3.9890   35.9709 P   0  0  1  0  0  5  0  0  0  0  0  0
   11.5038    3.1118   34.5353 O   0  0  0  0  0  0  0  0  0  0  0  0
   13.1154    3.9603   36.4268 O   0  0  0  0  0  0  0  0  0  0  0  0
   11.2213    5.5925   35.6925 O   0  0  0  0  0  0  0  0  0  0  0  0
   11.0700    1.6731   37.4323 P   0  0  1  0  0  5  0  0  0  0  0  0
    9.6746    0.7888   37.7834 O   0  0  0  0  0  0  0  0  0  0  0  0
   11.6460    1.0884   36.1511 O   0  0  0  0  0  0  0  0  0  0  0  0
   10.7230    3.2881   37.1887 O   0  0  0  0  0  0  0  0  0  0  0  0
   12.2391    1.4999   38.6345 O   0  0  0  0  0  0  0  0  0  0  0  0
   13.2308    0.6053   38.2238 C   0  0  0  0  0  0  0  0  0  0  0  0
   13.7824   -0.1819   39.3933 C   0  0  1  0  0  0  0  0  0  0  0  0
   13.3697    0.4303   40.5486 O   0  0  0  0  0  0  0  0  0  0  0  0
   13.1411   -1.5535   39.3416 C   0  0  1  0  0  0  0  0  0  0  0  0
   13.9928   -2.5347   39.8394 O   0  0  0  0  0  0  0  0  0  0  0  0
   12.0312   -1.3710   40.3587 C   0  0  1  0  0  0  0  0  0  0  0  0
   11.7369   -2.6175   40.8914 O   0  0  0  0  0  0  0  0  0  0  0  0
   12.7908   -0.5053   41.3727 C   0  0  2  0  0  0  0  0  0  0  0  0
   11.9272    0.0593   42.3579 N   0  0  0  0  0  0  0  0  0  0  0  0
   11.1452    1.1277   42.2070 C   0  0  0  0  0  0  0  0  0  0  0  0
   10.4909    1.3399   43.3570 N   0  0  0  0  0  0  0  0  0  0  0  0
   10.8393    0.4079   44.2773 C   0  0  0  0  0  0  0  0  0  0  0  0
   10.4817    0.1693   45.5691 C   0  0  0  0  0  0  0  0  0  0  0  0
    9.5506    0.9924   46.2299 N   0  0  0  0  0  0  0  0  0  0  0  0
   11.0263   -0.8659   46.2190 N   0  0  0  0  0  0  0  0  0  0  0  0
   11.9161   -1.6530   45.5884 C   0  0  0  0  0  0  0  0  0  0  0  0
   12.2693   -1.4241   44.3251 N   0  0  0  0  0  0  0  0  0  0  0  0
   11.7634   -0.4014   43.6072 C   0  0  0  0  0  0  0  0  0  0  0  0
  1  2  1  6
  1  3  2  0
  1  4  1  0
  8  1  1  0
  5  6  1  1
  5  7  2  0
  5  8  1  0
  5  9  1  0
  9 10  1  0
 11 10  1  6
 11 12  1  0
 11 13  1  0
 12 17  1  0
 13 14  1  1
 13 15  1  0
 15 16  1  1
 15 17  1  0
 17 18  1  1
 18 19  1  0
 18 27  1  0
 19 20  2  0
 20 21  1  0
 21 22  1  0
 21 27  2  0
 22 23  1  0
 22 24  2  0
 24 25  1  0
 25 26  2  0
 26 27  1  0
M  END
$$$$
