
     RDKit          3D

 27 29  0  0  0  0  0  0  0  0999 V2000
   27.2599    5.3045   22.2126 P   0  0  1  0  0  5  0  0  0  0  0  0
   27.8382    5.4325   23.7868 O   0  0  0  0  0  0  0  0  0  0  0  0
   27.3997    3.8574   21.7406 O   0  0  0  0  0  0  0  0  0  0  0  0
   25.6282    5.7760   22.1543 O   0  0  0  0  0  0  0  0  0  0  0  0
   27.7572    5.9612   19.5491 P   0  0  1  0  0  5  0  0  0  0  0  0
   26.0657    5.8448   19.5085 O   0  0  0  0  0  0  0  0  0  0  0  0
   28.1311    7.1538   18.6714 O   0  0  0  0  0  0  0  0  0  0  0  0
   28.1948    6.2550   21.1542 O   0  0  0  0  0  0  0  0  0  0  0  0
   28.4891    4.5805   18.9304 O   0  0  0  0  0  0  0  0  0  0  0  0
   27.7165    3.9537   17.9855 C   0  0  0  0  0  0  0  0  0  0  0  0
   28.5254    3.3521   16.8654 C   0  0  1  0  0  0  0  0  0  0  0  0
   28.9277    4.3046   15.9395 O   0  0  0  0  0  0  0  0  0  0  0  0
   29.8576    2.8244   17.3564 C   0  0  1  0  0  0  0  0  0  0  0  0
   29.7189    1.6040   18.0117 O   0  0  0  0  0  0  0  0  0  0  0  0
   30.5884    2.6761   16.0370 C   0  0  1  0  0  0  0  0  0  0  0  0
   30.2358    1.4282   15.5213 O   0  0  0  0  0  0  0  0  0  0  0  0
   29.9349    3.7462   15.2012 C   0  0  2  0  0  0  0  0  0  0  0  0
   30.9568    4.6924   14.8172 N   0  0  0  0  0  0  0  0  0  0  0  0
   31.1728    5.9480   15.2464 C   0  0  0  0  0  0  0  0  0  0  0  0
   32.2493    6.4734   14.6139 N   0  0  0  0  0  0  0  0  0  0  0  0
   32.7223    5.5527   13.7791 C   0  0  0  0  0  0  0  0  0  0  0  0
   33.7717    5.5395   12.9084 C   0  0  0  0  0  0  0  0  0  0  0  0
   34.6124    6.6794   12.7672 N   0  0  0  0  0  0  0  0  0  0  0  0
   34.0515    4.4404   12.1464 N   0  0  0  0  0  0  0  0  0  0  0  0
   33.2692    3.3579   12.2673 C   0  0  0  0  0  0  0  0  0  0  0  0
   32.2463    3.3841   13.1224 N   0  0  0  0  0  0  0  0  0  0  0  0
   31.9202    4.4437   13.9034 C   0  0  0  0  0  0  0  0  0  0  0  0
  1  2  1  1
  1  3  2  0
  1  4  1  0
  8  1  1  0
  5  6  1  1
  5  7  2  0
  5  8  1  0
  5  9  1  0
 10  9  1  1
 10 11  1  0
 11 12  1  6
 11 13  1  0
 12 17  1  0
 13 14  1  6
 13 15  1  0
 15 16  1  6
 15 17  1  0
 17 18  1  1
 18 19  1  0
 18 27  1  0
 19 20  2  0
 20 21  1  0
 21 22  1  0
 21 27  2  0
 22 23  1  0
 22 24  2  0
 24 25  1  0
 25 26  2  0
 26 27  1  0
M  END
$$$$
