
     RDKit          3D

 27 29  0  0  0  0  0  0  0  0999 V2000
   12.6604    3.5538   35.1526 P   0  0  1  0  0  5  0  0  0  0  0  0
   14.0952    4.2248   34.5872 O   0  0  0  0  0  0  0  0  0  0  0  0
   11.8660    4.6222   35.9034 O   0  0  0  0  0  0  0  0  0  0  0  0
   11.7441    2.9620   33.8493 O   0  0  0  0  0  0  0  0  0  0  0  0
   11.5563    1.8014   37.0187 P   0  0  1  0  0  5  0  0  0  0  0  0
   11.1411    2.9886   38.1565 O   0  0  0  0  0  0  0  0  0  0  0  0
   10.4142    1.7531   36.0058 O   0  0  0  0  0  0  0  0  0  0  0  0
   12.9824    2.3106   36.2698 O   0  0  0  0  0  0  0  0  0  0  0  0
   11.7148    0.2876   37.7314 O   0  0  0  0  0  0  0  0  0  0  0  0
   13.0160   -0.0116   38.0478 C   0  0  0  0  0  0  0  0  0  0  0  0
   13.1668   -0.6112   39.4220 C   0  0  1  0  0  0  0  0  0  0  0  0
   13.0131    0.3346   40.4261 O   0  0  0  0  0  0  0  0  0  0  0  0
   12.0433   -1.5761   39.7394 C   0  0  1  0  0  0  0  0  0  0  0  0
   12.2212   -2.8018   39.1036 O   0  0  0  0  0  0  0  0  0  0  0  0
   12.2068   -1.6912   41.2417 C   0  0  1  0  0  0  0  0  0  0  0  0
   13.1716   -2.6743   41.4658 O   0  0  0  0  0  0  0  0  0  0  0  0
   12.7951   -0.3487   41.5910 C   0  0  2  0  0  0  0  0  0  0  0  0
   11.8751    0.3181   42.4832 N   0  0  0  0  0  0  0  0  0  0  0  0
   11.2110    1.4766   42.3270 C   0  0  0  0  0  0  0  0  0  0  0  0
   10.4515    1.7246   43.4210 N   0  0  0  0  0  0  0  0  0  0  0  0
   10.6302    0.7236   44.2778 C   0  0  0  0  0  0  0  0  0  0  0  0
   10.1235    0.4589   45.5159 C   0  0  0  0  0  0  0  0  0  0  0  0
    9.2059    1.3559   46.1319 N   0  0  0  0  0  0  0  0  0  0  0  0
   10.4758   -0.6678   46.2039 N   0  0  0  0  0  0  0  0  0  0  0  0
   11.3394   -1.5234   45.6378 C   0  0  0  0  0  0  0  0  0  0  0  0
   11.8273   -1.2526   44.4267 N   0  0  0  0  0  0  0  0  0  0  0  0
   11.5152   -0.1529   43.6971 C   0  0  0  0  0  0  0  0  0  0  0  0
  1  2  1  6
  1  3  2  0
  1  4  1  0
  8  1  1  0
  5  6  1  1
  5  7  2  0
  5  8  1  0
  5  9  1  0
 10  9  1  1
 10 11  1  0
 11 12  1  1
 11 13  1  0
 12 17  1  0
 13 14  1  6
 13 15  1  0
 15 16  1  6
 15 17  1  0
 17 18  1  1
 18 19  1  0
 18 27  1  0
 19 20  2  0
 20 21  1  0
 21 22  1  0
 21 27  2  0
 22 23  1  0
 22 24  2  0
 24 25  1  0
 25 26  2  0
 26 27  1  0
M  END
$$$$
