
     RDKit          3D

 27 29  0  0  0  0  0  0  0  0999 V2000
   12.9807    1.6414   34.3077 P   0  0  1  0  0  5  0  0  0  0  0  0
   13.6708    2.4666   33.0148 O   0  0  0  0  0  0  0  0  0  0  0  0
   11.4616    1.8027   34.2551 O   0  0  0  0  0  0  0  0  0  0  0  0
   13.3897   -0.0062   34.2284 O   0  0  0  0  0  0  0  0  0  0  0  0
   12.1648    2.6395   36.7796 P   0  0  1  0  0  5  0  0  0  0  0  0
   12.2912    4.2607   37.2614 O   0  0  0  0  0  0  0  0  0  0  0  0
   10.8661    2.5234   35.9843 O   0  0  0  0  0  0  0  0  0  0  0  0
   13.4915    2.3135   35.7858 O   0  0  0  0  0  0  0  0  0  0  0  0
   12.0872    1.6038   38.1010 O   0  0  0  0  0  0  0  0  0  0  0  0
   13.2542    1.5827   38.8224 C   0  0  0  0  0  0  0  0  0  0  0  0
   13.1909    0.6723   40.0215 C   0  0  1  0  0  0  0  0  0  0  0  0
   12.5011    1.2470   41.0800 O   0  0  0  0  0  0  0  0  0  0  0  0
   12.3536   -0.5597   39.7468 C   0  0  1  0  0  0  0  0  0  0  0  0
   13.0462   -1.4934   38.9810 O   0  0  0  0  0  0  0  0  0  0  0  0
   12.1264   -1.0491   41.1631 C   0  0  1  0  0  0  0  0  0  0  0  0
   13.2352   -1.8259   41.5016 O   0  0  0  0  0  0  0  0  0  0  0  0
   12.1810    0.2374   41.9457 C   0  0  2  0  0  0  0  0  0  0  0  0
   10.8999    0.4181   42.5886 N   0  0  0  0  0  0  0  0  0  0  0  0
    9.7478    0.9016   42.0922 C   0  0  0  0  0  0  0  0  0  0  0  0
    8.7919    0.8930   43.0519 N   0  0  0  0  0  0  0  0  0  0  0  0
    9.3331    0.4034   44.1634 C   0  0  0  0  0  0  0  0  0  0  0  0
    8.8398    0.1733   45.4136 C   0  0  0  0  0  0  0  0  0  0  0  0
    7.4841    0.4744   45.7261 N   0  0  0  0  0  0  0  0  0  0  0  0
    9.6229   -0.3504   46.4034 N   0  0  0  0  0  0  0  0  0  0  0  0
   10.9025   -0.6398   46.1257 C   0  0  0  0  0  0  0  0  0  0  0  0
   11.3723   -0.4099   44.8990 N   0  0  0  0  0  0  0  0  0  0  0  0
   10.6444    0.1070   43.8782 C   0  0  0  0  0  0  0  0  0  0  0  0
  1  2  1  6
  1  3  2  0
  1  4  1  0
  8  1  1  0
  5  6  1  1
  5  7  2  0
  5  8  1  0
  5  9  1  0
 10  9  1  1
 10 11  1  0
 11 12  1  1
 11 13  1  0
 12 17  1  0
 13 14  1  6
 13 15  1  0
 15 16  1  1
 15 17  1  0
 17 18  1  6
 18 19  1  0
 18 27  1  0
 19 20  2  0
 20 21  1  0
 21 22  1  0
 21 27  2  0
 22 23  1  0
 22 24  2  0
 24 25  1  0
 25 26  2  0
 26 27  1  0
M  END
$$$$
