
     RDKit          3D

 23 25  0  0  0  0  0  0  0  0999 V2000
    9.1773    1.7606   -5.6321 C   0  0  0  0  0  0  0  0  0  0  0  0
   13.2018    7.1671  -12.9157 O   0  0  0  0  0  0  0  0  0  0  0  0
   13.0561    3.0907  -15.5351 C   0  0  0  0  0  0  0  0  0  0  0  0
   12.2370    4.2683  -13.5806 C   0  0  0  0  0  0  0  0  0  0  0  0
   11.3271    3.9154   -9.0370 C   0  0  0  0  0  0  0  0  0  0  0  0
    9.8432    2.2949   -6.7116 C   0  0  0  0  0  0  0  0  0  0  0  0
    9.9099    5.7352   -6.1912 N   0  0  0  0  0  0  0  0  0  0  0  0
   10.6962    4.4310   -7.8227 C   0  0  0  0  0  0  0  0  0  0  0  0
   11.3586    2.6822   -9.2985 O   0  0  0  0  0  0  0  0  0  0  0  0
   10.5732    5.7226   -7.3653 C   0  0  0  0  0  0  0  0  0  0  0  0
    8.9168    3.9779   -4.7609 C   0  0  0  0  0  0  0  0  0  0  0  0
   13.4423    6.0528  -12.3996 C   0  0  0  0  0  0  0  0  0  0  0  0
   10.7313    3.3192  -15.2149 C   0  0  0  0  0  0  0  0  0  0  0  0
    8.7067    2.6146   -4.6416 C   0  0  0  0  0  0  0  0  0  0  0  0
   12.3792    5.0173  -12.3280 C   0  0  2  0  0  0  0  0  0  0  0  0
   13.2548    3.7870  -14.3605 C   0  0  0  0  0  0  0  0  0  0  0  0
   11.7741    2.8451  -15.9824 C   0  0  0  0  0  0  0  0  0  0  0  0
   10.9479    4.0134  -14.0435 C   0  0  0  0  0  0  0  0  0  0  0  0
   10.0765    3.6454   -6.8738 C   0  0  0  0  0  0  0  0  0  0  0  0
    9.5873    4.4762   -5.8544 C   0  0  0  0  0  0  0  0  0  0  0  0
   11.9422    4.7885   -9.9926 N   0  0  0  0  0  0  0  0  0  0  0  0
   12.4642    4.2315  -11.1445 N   0  0  0  0  0  4  0  0  0  0  0  0
   14.7538    5.8260  -11.8935 N   0  0  0  0  0  0  0  0  0  0  0  0
  6  1  2  0
  1 14  1  0
 12  2  2  0
 16  3  2  0
  3 17  1  0
 15  4  1  0
  4 16  1  0
  4 18  2  0
  5  8  1  0
  5  9  2  0
 21  5  1  0
 19  6  1  0
 10  7  1  0
 20  7  1  0
  8 10  2  0
  8 19  1  0
 11 14  2  0
 20 11  1  0
 15 12  1  6
 12 23  1  0
 13 17  2  0
 18 13  1  0
 22 15  1  0
 19 20  2  0
 22 21  1  6
M  CHG  1  22   1
M  END
$$$$
