
     RDKit          3D

 23 25  0  0  0  0  0  0  0  0999 V2000
   11.3812    2.6397   -4.3497 C   0  0  0  0  0  0  0  0  0  0  0  0
   14.6715    5.5108  -12.1562 O   0  0  0  0  0  0  0  0  0  0  0  0
   13.9832    2.8092  -15.7602 C   0  0  0  0  0  0  0  0  0  0  0  0
   13.5478    2.8425  -13.4122 C   0  0  0  0  0  0  0  0  0  0  0  0
   11.9421    3.1055   -8.8266 C   0  0  0  0  0  0  0  0  0  0  0  0
   11.6387    2.7546   -5.7121 C   0  0  0  0  0  0  0  0  0  0  0  0
    8.7287    3.9116   -7.2258 N   0  0  0  0  0  0  0  0  0  0  0  0
   10.7672    3.3720   -7.9969 C   0  0  0  0  0  0  0  0  0  0  0  0
   13.0369    2.8817   -8.2557 O   0  0  0  0  0  0  0  0  0  0  0  0
    9.5145    3.8255   -8.3397 C   0  0  0  0  0  0  0  0  0  0  0  0
    9.1531    3.4186   -4.8068 C   0  0  0  0  0  0  0  0  0  0  0  0
   14.5223    4.3396  -11.7045 C   0  0  0  0  0  0  0  0  0  0  0  0
   13.6129    0.7662  -14.6341 C   0  0  0  0  0  0  0  0  0  0  0  0
   10.1289    2.9788   -3.9271 C   0  0  0  0  0  0  0  0  0  0  0  0
   13.3622    3.5193  -12.0986 C   0  0  2  0  0  0  0  0  0  0  0  0
   13.8169    3.5110  -14.5758 C   0  0  0  0  0  0  0  0  0  0  0  0
   13.8862    1.4344  -15.8194 C   0  0  0  0  0  0  0  0  0  0  0  0
   13.4507    1.4740  -13.4644 C   0  0  0  0  0  0  0  0  0  0  0  0
   10.7073    3.1841   -6.6108 C   0  0  0  0  0  0  0  0  0  0  0  0
    9.4487    3.5209   -6.1546 C   0  0  0  0  0  0  0  0  0  0  0  0
   11.9128    3.0854  -10.2430 N   0  0  0  0  0  0  0  0  0  0  0  0
   12.9141    2.6508  -11.0825 N   0  0  0  0  0  4  0  0  0  0  0  0
   15.5105    3.8506  -10.8058 N   0  0  0  0  0  0  0  0  0  0  0  0
  6  1  2  0
  1 14  1  0
 12  2  2  0
 16  3  2  0
  3 17  1  0
 15  4  1  0
  4 16  1  0
  4 18  2  0
  5  8  1  0
  5  9  2  0
 21  5  1  0
 19  6  1  0
 10  7  1  0
 20  7  1  0
  8 10  2  0
  8 19  1  0
 11 14  2  0
 20 11  1  0
 15 12  1  0
 12 23  1  0
 13 17  2  0
 18 13  1  0
 15 22  1  1
 19 20  2  0
 21 22  1  0
M  CHG  1  22   1
M  END
$$$$
