
     RDKit          3D

 23 25  0  0  0  0  0  0  0  0999 V2000
    9.6113    5.1667   -4.3229 C   0  0  0  0  0  0  0  0  0  0  0  0
   13.7596    4.5204  -13.1845 O   0  0  0  0  0  0  0  0  0  0  0  0
   17.5425    2.8568  -11.5298 C   0  0  0  0  0  0  0  0  0  0  0  0
   15.1255    2.9943  -11.3996 C   0  0  0  0  0  0  0  0  0  0  0  0
   12.1039    4.0243   -7.9752 C   0  0  0  0  0  0  0  0  0  0  0  0
   10.4095    4.9415   -5.4212 C   0  0  0  0  0  0  0  0  0  0  0  0
    9.8262    1.6451   -6.3721 N   0  0  0  0  0  0  0  0  0  0  0  0
   11.1457    3.2497   -7.1878 C   0  0  0  0  0  0  0  0  0  0  0  0
   12.0575    5.2832   -8.0293 O   0  0  0  0  0  0  0  0  0  0  0  0
   10.7259    1.9473   -7.3301 C   0  0  0  0  0  0  0  0  0  0  0  0
    8.8250    2.9094   -4.4961 C   0  0  0  0  0  0  0  0  0  0  0  0
   13.3235    4.5467  -12.0119 C   0  0  0  0  0  0  0  0  0  0  0  0
   16.2338    1.1924  -12.5676 C   0  0  0  0  0  0  0  0  0  0  0  0
    8.8068    4.1352   -3.8528 C   0  0  0  0  0  0  0  0  0  0  0  0
   13.8520    3.5993  -10.9966 C   0  0  2  0  0  0  0  0  0  0  0  0
   16.3780    3.4714  -11.1174 C   0  0  0  0  0  0  0  0  0  0  0  0
   17.4834    1.6938  -12.2701 C   0  0  0  0  0  0  0  0  0  0  0  0
   15.0800    1.8196  -12.1474 C   0  0  0  0  0  0  0  0  0  0  0  0
   10.4613    3.7381   -6.0948 C   0  0  0  0  0  0  0  0  0  0  0  0
    9.6359    2.7210   -5.5918 C   0  0  0  0  0  0  0  0  0  0  0  0
   13.1464    3.3891   -8.7261 N   0  0  0  0  0  0  0  0  0  0  0  0
   13.8123    4.1360   -9.6792 N   0  0  0  0  0  4  0  0  0  0  0  0
   12.3180    5.5055  -11.7000 N   0  0  0  0  0  0  0  0  0  0  0  0
  6  1  2  0
  1 14  1  0
 12  2  2  0
 16  3  2  0
  3 17  1  0
 15  4  1  0
  4 16  1  0
  4 18  2  0
  5  8  1  0
  5  9  2  0
 21  5  1  0
 19  6  1  0
 10  7  1  0
 20  7  1  0
  8 10  2  0
  8 19  1  0
 11 14  2  0
 20 11  1  0
 15 12  1  6
 12 23  1  0
 13 17  2  0
 18 13  1  0
 22 15  1  0
 19 20  2  0
 22 21  1  6
M  CHG  1  22   1
M  END
$$$$
