
     RDKit          3D

 23 25  0  0  0  0  0  0  0  0999 V2000
    9.2566    1.7847   -4.7921 C   0  0  0  0  0  0  0  0  0  0  0  0
   14.0351    7.1570  -11.3371 O   0  0  0  0  0  0  0  0  0  0  0  0
   11.4682    3.8840  -14.7037 C   0  0  0  0  0  0  0  0  0  0  0  0
   12.6512    4.3524  -12.6825 C   0  0  0  0  0  0  0  0  0  0  0  0
   11.4470    3.8931   -8.1583 C   0  0  0  0  0  0  0  0  0  0  0  0
    9.9482    2.3499   -5.8589 C   0  0  0  0  0  0  0  0  0  0  0  0
    9.8280    5.8034   -5.4624 N   0  0  0  0  0  0  0  0  0  0  0  0
   10.7495    4.4514   -7.0001 C   0  0  0  0  0  0  0  0  0  0  0  0
   11.6296    2.6524   -8.2033 O   0  0  0  0  0  0  0  0  0  0  0  0
   10.5575    5.7584   -6.6164 C   0  0  0  0  0  0  0  0  0  0  0  0
    8.8413    4.0189   -4.0075 C   0  0  0  0  0  0  0  0  0  0  0  0
   14.0957    5.8961  -11.4029 C   0  0  0  0  0  0  0  0  0  0  0  0
   13.4345    2.6686  -14.2186 C   0  0  0  0  0  0  0  0  0  0  0  0
    8.7139    2.6450   -3.8827 C   0  0  0  0  0  0  0  0  0  0  0  0
   12.8682    5.0791  -11.4009 C   0  0  2  0  0  0  0  0  0  0  0  0
   11.5993    4.5991  -13.5229 C   0  0  0  0  0  0  0  0  0  0  0  0
   12.3718    2.9111  -15.0777 C   0  0  0  0  0  0  0  0  0  0  0  0
   13.5544    3.3856  -13.0495 C   0  0  0  0  0  0  0  0  0  0  0  0
   10.0974    3.6960   -6.0181 C   0  0  0  0  0  0  0  0  0  0  0  0
    9.5382    4.5424   -5.0819 C   0  0  0  0  0  0  0  0  0  0  0  0
   11.9289    4.6770   -9.2356 N   0  0  0  0  0  0  0  0  0  0  0  0
   12.7412    4.2547  -10.2643 N   0  0  0  0  0  4  0  0  0  0  0  0
   15.3863    5.3027  -11.4761 N   0  0  0  0  0  0  0  0  0  0  0  0
  6  1  2  0
  1 14  1  0
 12  2  2  0
 16  3  2  0
  3 17  1  0
 15  4  1  0
  4 16  1  0
  4 18  2  0
  5  8  1  0
  5  9  2  0
 21  5  1  0
 19  6  1  0
 10  7  1  0
 20  7  1  0
  8 10  2  0
  8 19  1  0
 11 14  2  0
 20 11  1  0
 15 12  1  0
 12 23  1  0
 13 17  2  0
 18 13  1  0
 15 22  1  1
 19 20  2  0
 21 22  1  0
M  CHG  1  22   1
M  END
$$$$
