
     RDKit          3D

 23 25  0  0  0  0  0  0  0  0999 V2000
   11.2399    6.2120  -14.9263 C   0  0  0  0  0  0  0  0  0  0  0  0
   14.1324    3.5706   -6.5178 O   0  0  0  0  0  0  0  0  0  0  0  0
    9.2365    2.1662   -5.2263 C   0  0  0  0  0  0  0  0  0  0  0  0
   11.0312    2.9398   -6.6610 C   0  0  0  0  0  0  0  0  0  0  0  0
   11.5602    4.0500  -10.9162 C   0  0  0  0  0  0  0  0  0  0  0  0
   11.3594    5.6748  -13.6648 C   0  0  0  0  0  0  0  0  0  0  0  0
   10.8547    2.2507  -14.0280 N   0  0  0  0  0  0  0  0  0  0  0  0
   11.2918    3.5418  -12.2608 C   0  0  0  0  0  0  0  0  0  0  0  0
   11.2512    5.2236  -10.5742 O   0  0  0  0  0  0  0  0  0  0  0  0
   11.0576    2.2575  -12.6949 C   0  0  0  0  0  0  0  0  0  0  0  0
   10.8225    4.0078  -15.7693 C   0  0  0  0  0  0  0  0  0  0  0  0
   13.4522    2.5787   -6.8630 C   0  0  0  0  0  0  0  0  0  0  0  0
    9.5883    4.4830   -5.4882 C   0  0  0  0  0  0  0  0  0  0  0  0
   10.9671    5.3661  -15.9950 C   0  0  0  0  0  0  0  0  0  0  0  0
   12.1632    2.7686   -7.5773 C   0  0  2  0  0  0  0  0  0  0  0  0
   10.2969    1.9403   -6.0799 C   0  0  0  0  0  0  0  0  0  0  0  0
    8.8646    3.4583   -4.9160 C   0  0  0  0  0  0  0  0  0  0  0  0
   10.6454    4.2393   -6.3393 C   0  0  0  0  0  0  0  0  0  0  0  0
   11.2238    4.3289  -13.3910 C   0  0  0  0  0  0  0  0  0  0  0  0
   10.9491    3.5063  -14.4941 C   0  0  0  0  0  0  0  0  0  0  0  0
   12.1893    3.2367   -9.9177 N   0  0  0  0  0  0  0  0  0  0  0  0
   12.2588    3.7250   -8.6268 N   0  0  0  0  0  4  0  0  0  0  0  0
   13.9577    1.2856   -6.5468 N   0  0  0  0  0  0  0  0  0  0  0  0
  6  1  2  0
  1 14  1  0
 12  2  2  0
 16  3  2  0
  3 17  1  0
 15  4  1  0
  4 16  1  0
  4 18  2  0
  5  8  1  0
  5  9  2  0
 21  5  1  0
 19  6  1  0
 10  7  1  0
 20  7  1  0
  8 10  2  0
  8 19  1  0
 11 14  2  0
 20 11  1  0
 15 12  1  1
 12 23  1  0
 13 17  2  0
 18 13  1  0
 22 15  1  0
 19 20  2  0
 22 21  1  6
M  CHG  1  22   1
M  END
$$$$
