
     RDKit          3D

 23 25  0  0  0  0  0  0  0  0999 V2000
    8.8581    2.1924   -5.3030 C   0  0  0  0  0  0  0  0  0  0  0  0
   14.1035    6.6345  -12.1966 O   0  0  0  0  0  0  0  0  0  0  0  0
   13.9967    1.7338  -14.1417 C   0  0  0  0  0  0  0  0  0  0  0  0
   13.3571    3.2602  -12.3701 C   0  0  0  0  0  0  0  0  0  0  0  0
   10.4288    3.4775   -9.3943 C   0  0  0  0  0  0  0  0  0  0  0  0
    9.2530    2.4921   -6.5869 C   0  0  0  0  0  0  0  0  0  0  0  0
   11.6229    5.0240   -6.2958 N   0  0  0  0  0  0  0  0  0  0  0  0
   10.7585    3.9479   -8.0496 C   0  0  0  0  0  0  0  0  0  0  0  0
    9.2674    3.0919   -9.6985 O   0  0  0  0  0  0  0  0  0  0  0  0
   11.6422    4.9195   -7.6401 C   0  0  0  0  0  0  0  0  0  0  0  0
   10.3726    3.8677   -4.5012 C   0  0  0  0  0  0  0  0  0  0  0  0
   14.1615    5.4842  -11.7075 C   0  0  0  0  0  0  0  0  0  0  0  0
   13.7140    0.9073  -11.9516 C   0  0  0  0  0  0  0  0  0  0  0  0
    9.4262    2.8906   -4.2438 C   0  0  0  0  0  0  0  0  0  0  0  0
   12.9966    4.5678  -11.8128 C   0  0  2  0  0  0  0  0  0  0  0  0
   13.6685    2.9907  -13.6763 C   0  0  0  0  0  0  0  0  0  0  0  0
   14.0237    0.6623  -13.2727 C   0  0  0  0  0  0  0  0  0  0  0  0
   13.3883    2.1699  -11.5034 C   0  0  0  0  0  0  0  0  0  0  0  0
   10.1918    3.4565   -6.8925 C   0  0  0  0  0  0  0  0  0  0  0  0
   10.7432    4.1400   -5.7982 C   0  0  0  0  0  0  0  0  0  0  0  0
   11.4120    3.4318  -10.4360 N   0  0  0  0  0  0  0  0  0  0  0  0
   12.2182    4.5387  -10.6219 N   0  0  0  0  0  4  0  0  0  0  0  0
   15.3690    5.1002  -11.0579 N   0  0  0  0  0  0  0  0  0  0  0  0
  6  1  2  0
  1 14  1  0
 12  2  2  0
 16  3  2  0
  3 17  1  0
 15  4  1  0
  4 16  1  0
  4 18  2  0
  5  8  1  0
  5  9  2  0
 21  5  1  0
 19  6  1  0
 10  7  1  0
 20  7  1  0
  8 10  2  0
  8 19  1  0
 11 14  2  0
 20 11  1  0
 15 12  1  1
 12 23  1  0
 13 17  2  0
 18 13  1  0
 22 15  1  0
 19 20  2  0
 22 21  1  6
M  CHG  1  22   1
M  END
$$$$
