
     RDKit          3D

 23 25  0  0  0  0  0  0  0  0999 V2000
    8.5531    6.2680  -14.5385 C   0  0  0  0  0  0  0  0  0  0  0  0
   13.1850    5.6162   -5.4363 O   0  0  0  0  0  0  0  0  0  0  0  0
    9.6186    2.1338   -5.8908 C   0  0  0  0  0  0  0  0  0  0  0  0
   10.5974    4.2340   -6.4694 C   0  0  0  0  0  0  0  0  0  0  0  0
   10.6216    5.0851  -10.6788 C   0  0  0  0  0  0  0  0  0  0  0  0
    9.2457    5.8565  -13.4041 C   0  0  0  0  0  0  0  0  0  0  0  0
    7.6634    7.2729  -10.6495 N   0  0  0  0  0  0  0  0  0  0  0  0
    9.4445    5.9273  -10.8909 C   0  0  0  0  0  0  0  0  0  0  0  0
   10.9154    4.2389  -11.5576 O   0  0  0  0  0  0  0  0  0  0  0  0
    8.6492    6.5960   -9.9894 C   0  0  0  0  0  0  0  0  0  0  0  0
    7.0862    7.4899  -13.0773 C   0  0  0  0  0  0  0  0  0  0  0  0
   12.2826    6.0246   -6.2218 C   0  0  0  0  0  0  0  0  0  0  0  0
    8.6533    4.1187   -5.0498 C   0  0  0  0  0  0  0  0  0  0  0  0
    7.4777    7.0848  -14.3430 C   0  0  0  0  0  0  0  0  0  0  0  0
   11.6071    5.0949   -7.1457 C   0  0  2  0  0  0  0  0  0  0  0  0
   10.5894    2.8681   -6.5551 C   0  0  0  0  0  0  0  0  0  0  0  0
    8.6364    2.7333   -5.1300 C   0  0  0  0  0  0  0  0  0  0  0  0
    9.6227    4.8367   -5.7131 C   0  0  0  0  0  0  0  0  0  0  0  0
    8.8929    6.2312  -12.1413 C   0  0  0  0  0  0  0  0  0  0  0  0
    7.8000    7.0577  -11.9737 C   0  0  0  0  0  0  0  0  0  0  0  0
   11.4512    5.1720   -9.5336 N   0  0  0  0  0  0  0  0  0  0  0  0
   11.1179    5.7157   -8.3131 N   0  0  0  0  0  4  0  0  0  0  0  0
   11.9501    7.4069   -6.1796 N   0  0  0  0  0  0  0  0  0  0  0  0
  6  1  2  0
  1 14  1  0
 12  2  2  0
 16  3  2  0
  3 17  1  0
 15  4  1  0
  4 16  1  0
  4 18  2  0
  5  8  1  0
  5  9  2  0
 21  5  1  0
 19  6  1  0
 10  7  1  0
 20  7  1  0
  8 10  2  0
  8 19  1  0
 11 14  2  0
 20 11  1  0
 15 12  1  0
 12 23  1  0
 13 17  2  0
 18 13  1  0
 15 22  1  6
 19 20  2  0
 21 22  1  0
M  CHG  1  22   1
M  END
$$$$
