
     RDKit          3D

 23 25  0  0  0  0  0  0  0  0999 V2000
    8.8369    1.3476   -5.6083 C   0  0  0  0  0  0  0  0  0  0  0  0
   14.0169    7.2481  -12.0759 O   0  0  0  0  0  0  0  0  0  0  0  0
   10.5702    4.9331  -14.8636 C   0  0  0  0  0  0  0  0  0  0  0  0
   12.1068    5.1308  -12.9988 C   0  0  0  0  0  0  0  0  0  0  0  0
   11.0030    3.9033   -8.7122 C   0  0  0  0  0  0  0  0  0  0  0  0
    9.5139    2.0093   -6.6073 C   0  0  0  0  0  0  0  0  0  0  0  0
    9.4296    5.3819   -5.7530 N   0  0  0  0  0  0  0  0  0  0  0  0
   10.3158    4.2738   -7.4758 C   0  0  0  0  0  0  0  0  0  0  0  0
   10.9141    2.7446   -9.2016 O   0  0  0  0  0  0  0  0  0  0  0  0
   10.1282    5.5088   -6.8994 C   0  0  0  0  0  0  0  0  0  0  0  0
    8.4632    3.4576   -4.5350 C   0  0  0  0  0  0  0  0  0  0  0  0
   13.8279    6.1255  -11.5564 C   0  0  0  0  0  0  0  0  0  0  0  0
   12.7992    4.2088  -15.1224 C   0  0  0  0  0  0  0  0  0  0  0  0
    8.3032    2.0825   -4.5560 C   0  0  0  0  0  0  0  0  0  0  0  0
   12.4893    5.4847  -11.6281 C   0  0  2  0  0  0  0  0  0  0  0  0
   10.8700    5.2907  -13.5651 C   0  0  0  0  0  0  0  0  0  0  0  0
   11.5449    4.3802  -15.6689 C   0  0  0  0  0  0  0  0  0  0  0  0
   13.0815    4.5718  -13.8225 C   0  0  0  0  0  0  0  0  0  0  0  0
    9.6988    3.3768   -6.6295 C   0  0  0  0  0  0  0  0  0  0  0  0
    9.1466    4.0850   -5.5514 C   0  0  0  0  0  0  0  0  0  0  0  0
   11.8135    4.8416   -9.4311 N   0  0  0  0  0  0  0  0  0  0  0  0
   12.3250    4.4582  -10.6562 N   0  0  0  0  0  4  0  0  0  0  0  0
   14.9305    5.5021  -10.9059 N   0  0  0  0  0  0  0  0  0  0  0  0
  6  1  2  0
  1 14  1  0
 12  2  2  0
 16  3  2  0
  3 17  1  0
 15  4  1  0
  4 16  1  0
  4 18  2  0
  5  8  1  0
  5  9  2  0
 21  5  1  0
 19  6  1  0
 10  7  1  0
 20  7  1  0
  8 10  2  0
  8 19  1  0
 11 14  2  0
 20 11  1  0
 15 12  1  6
 12 23  1  0
 13 17  2  0
 18 13  1  0
 22 15  1  0
 19 20  2  0
 22 21  1  6
M  CHG  1  22   1
M  END
$$$$
