
     RDKit          3D

 23 25  0  0  0  0  0  0  0  0999 V2000
    9.4624    1.4964   -5.5110 C   0  0  0  0  0  0  0  0  0  0  0  0
   13.0649    6.6831  -13.2027 O   0  0  0  0  0  0  0  0  0  0  0  0
   11.2592    2.2681  -14.9373 C   0  0  0  0  0  0  0  0  0  0  0  0
   12.4605    3.6585  -13.3556 C   0  0  0  0  0  0  0  0  0  0  0  0
   11.5975    3.6610   -8.9189 C   0  0  0  0  0  0  0  0  0  0  0  0
   10.1302    2.0334   -6.5880 C   0  0  0  0  0  0  0  0  0  0  0  0
   10.0324    5.4850   -6.1545 N   0  0  0  0  0  0  0  0  0  0  0  0
   10.9150    4.1776   -7.7333 C   0  0  0  0  0  0  0  0  0  0  0  0
   11.6511    2.4268   -9.1713 O   0  0  0  0  0  0  0  0  0  0  0  0
   10.7240    5.4732   -7.3120 C   0  0  0  0  0  0  0  0  0  0  0  0
    9.0831    3.7206   -4.7031 C   0  0  0  0  0  0  0  0  0  0  0  0
   13.4704    5.7285  -12.5028 C   0  0  0  0  0  0  0  0  0  0  0  0
   13.6098    2.3998  -15.0684 C   0  0  0  0  0  0  0  0  0  0  0  0
    8.9305    2.3527   -4.5539 C   0  0  0  0  0  0  0  0  0  0  0  0
   12.5752    4.5772  -12.2185 C   0  0  2  0  0  0  0  0  0  0  0  0
   11.3018    3.1340  -13.8638 C   0  0  0  0  0  0  0  0  0  0  0  0
   12.4291    1.8854  -15.5610 C   0  0  0  0  0  0  0  0  0  0  0  0
   13.6341    3.2642  -13.9945 C   0  0  0  0  0  0  0  0  0  0  0  0
   10.3076    3.3886   -6.7793 C   0  0  0  0  0  0  0  0  0  0  0  0
    9.7575    4.2214   -5.7931 C   0  0  0  0  0  0  0  0  0  0  0  0
   12.2407    4.5346   -9.8555 N   0  0  0  0  0  0  0  0  0  0  0  0
   12.8508    3.9718  -10.9604 N   0  0  0  0  0  4  0  0  0  0  0  0
   14.8013    5.7933  -12.0005 N   0  0  0  0  0  0  0  0  0  0  0  0
  6  1  2  0
  1 14  1  0
 12  2  2  0
 16  3  2  0
  3 17  1  0
 15  4  1  0
  4 16  1  0
  4 18  2  0
  5  8  1  0
  5  9  2  0
 21  5  1  0
 19  6  1  0
 10  7  1  0
 20  7  1  0
  8 10  2  0
  8 19  1  0
 11 14  2  0
 20 11  1  0
 15 12  1  6
 12 23  1  0
 13 17  2  0
 18 13  1  0
 22 15  1  0
 19 20  2  0
 22 21  1  6
M  CHG  1  22   1
M  END
$$$$
