
     RDKit          3D

 23 25  0  0  0  0  0  0  0  0999 V2000
   10.3016    4.7758   -4.4908 C   0  0  0  0  0  0  0  0  0  0  0  0
   12.7380    6.2238  -13.4698 O   0  0  0  0  0  0  0  0  0  0  0  0
   12.8350    1.2529  -14.4478 C   0  0  0  0  0  0  0  0  0  0  0  0
   13.2480    3.0553  -12.8799 C   0  0  0  0  0  0  0  0  0  0  0  0
   11.7211    4.0357   -8.7680 C   0  0  0  0  0  0  0  0  0  0  0  0
   10.8085    4.6524   -5.7643 C   0  0  0  0  0  0  0  0  0  0  0  0
    9.1514    1.9492   -7.1990 N   0  0  0  0  0  0  0  0  0  0  0  0
   10.7238    3.3410   -7.9549 C   0  0  0  0  0  0  0  0  0  0  0  0
   12.1845    5.1604   -8.4358 O   0  0  0  0  0  0  0  0  0  0  0  0
    9.9291    2.2593   -8.2561 C   0  0  0  0  0  0  0  0  0  0  0  0
    8.8809    2.8964   -4.9296 C   0  0  0  0  0  0  0  0  0  0  0  0
   13.4582    5.4988  -12.7477 C   0  0  0  0  0  0  0  0  0  0  0  0
   14.9097    1.3605  -13.3327 C   0  0  0  0  0  0  0  0  0  0  0  0
    9.3230    3.8845   -4.0665 C   0  0  0  0  0  0  0  0  0  0  0  0
   12.8995    4.2675  -12.1318 C   0  0  2  0  0  0  0  0  0  0  0  0
   12.4502    2.3954  -13.7764 C   0  0  0  0  0  0  0  0  0  0  0  0
   14.0868    0.7145  -14.2309 C   0  0  0  0  0  0  0  0  0  0  0  0
   14.5091    2.5014  -12.6702 C   0  0  0  0  0  0  0  0  0  0  0  0
   10.3994    3.6848   -6.6595 C   0  0  0  0  0  0  0  0  0  0  0  0
    9.4106    2.8036   -6.1962 C   0  0  0  0  0  0  0  0  0  0  0  0
   12.2226    3.4709   -9.9859 N   0  0  0  0  0  0  0  0  0  0  0  0
   13.1227    4.2124  -10.7274 N   0  0  0  0  0  4  0  0  0  0  0  0
   14.8100    5.8985  -12.5459 N   0  0  0  0  0  0  0  0  0  0  0  0
  6  1  2  0
  1 14  1  0
 12  2  2  0
 16  3  2  0
  3 17  1  0
 15  4  1  0
  4 16  1  0
  4 18  2  0
  5  8  1  0
  5  9  2  0
 21  5  1  0
 19  6  1  0
 10  7  1  0
 20  7  1  0
  8 10  2  0
  8 19  1  0
 11 14  2  0
 20 11  1  0
 15 12  1  6
 12 23  1  0
 13 17  2  0
 18 13  1  0
 22 15  1  0
 19 20  2  0
 22 21  1  6
M  CHG  1  22   1
M  END
$$$$
