
     RDKit          3D

 23 25  0  0  0  0  0  0  0  0999 V2000
    9.9472    4.6149   -4.3506 C   0  0  0  0  0  0  0  0  0  0  0  0
   13.3528    5.3623  -14.1013 O   0  0  0  0  0  0  0  0  0  0  0  0
   14.3021    0.8355  -12.2543 C   0  0  0  0  0  0  0  0  0  0  0  0
   13.9144    3.2099  -11.9541 C   0  0  0  0  0  0  0  0  0  0  0  0
   11.4784    4.6542   -8.6531 C   0  0  0  0  0  0  0  0  0  0  0  0
   10.4569    4.7428   -5.6226 C   0  0  0  0  0  0  0  0  0  0  0  0
    9.6095    1.8112   -7.2955 N   0  0  0  0  0  0  0  0  0  0  0  0
   10.7228    3.6442   -7.9133 C   0  0  0  0  0  0  0  0  0  0  0  0
   12.0543    5.6133   -8.0712 O   0  0  0  0  0  0  0  0  0  0  0  0
   10.2598    2.4118   -8.3127 C   0  0  0  0  0  0  0  0  0  0  0  0
    9.1053    2.4557   -4.9607 C   0  0  0  0  0  0  0  0  0  0  0  0
   13.5906    5.4628  -12.8769 C   0  0  0  0  0  0  0  0  0  0  0  0
   16.0990    2.2290  -11.6306 C   0  0  0  0  0  0  0  0  0  0  0  0
    9.2611    3.4538   -4.0141 C   0  0  0  0  0  0  0  0  0  0  0  0
   13.0973    4.4273  -11.9324 C   0  0  2  0  0  0  0  0  0  0  0  0
   13.4824    1.9456  -12.2552 C   0  0  0  0  0  0  0  0  0  0  0  0
   15.6388    0.9660  -11.9376 C   0  0  0  0  0  0  0  0  0  0  0  0
   15.2658    3.3276  -11.6363 C   0  0  0  0  0  0  0  0  0  0  0  0
   10.3268    3.7763   -6.5991 C   0  0  0  0  0  0  0  0  0  0  0  0
    9.6284    2.6189   -6.2230 C   0  0  0  0  0  0  0  0  0  0  0  0
   11.6024    4.6036  -10.0800 N   0  0  0  0  0  0  0  0  0  0  0  0
   12.8136    4.9582  -10.6429 N   0  0  0  0  0  4  0  0  0  0  0  0
   14.3397    6.5913  -12.4376 N   0  0  0  0  0  0  0  0  0  0  0  0
  6  1  2  0
  1 14  1  0
 12  2  2  0
 16  3  2  0
  3 17  1  0
 15  4  1  0
  4 16  1  0
  4 18  2  0
  5  8  1  0
  5  9  2  0
 21  5  1  0
 19  6  1  0
 10  7  1  0
 20  7  1  0
  8 10  2  0
  8 19  1  0
 11 14  2  0
 20 11  1  0
 15 12  1  6
 12 23  1  0
 13 17  2  0
 18 13  1  0
 22 15  1  0
 19 20  2  0
 22 21  1  6
M  CHG  1  22   1
M  END
$$$$
