
     RDKit          3D

 23 25  0  0  0  0  0  0  0  0999 V2000
    8.9859    1.8000   -5.4131 C   0  0  0  0  0  0  0  0  0  0  0  0
   14.4666    6.4871  -12.4287 O   0  0  0  0  0  0  0  0  0  0  0  0
   12.8998    2.2465  -14.5538 C   0  0  0  0  0  0  0  0  0  0  0  0
   12.7792    3.9208  -12.8550 C   0  0  0  0  0  0  0  0  0  0  0  0
   11.6244    3.5755   -8.6474 C   0  0  0  0  0  0  0  0  0  0  0  0
    9.8130    2.2602   -6.4328 C   0  0  0  0  0  0  0  0  0  0  0  0
    9.8723    5.7323   -6.2356 N   0  0  0  0  0  0  0  0  0  0  0  0
   10.8532    4.2408   -7.5974 C   0  0  0  0  0  0  0  0  0  0  0  0
   11.3075    2.4047   -8.9690 O   0  0  0  0  0  0  0  0  0  0  0  0
   10.7071    5.5771   -7.3055 C   0  0  0  0  0  0  0  0  0  0  0  0
    8.6371    4.0970   -4.7952 C   0  0  0  0  0  0  0  0  0  0  0  0
   14.4885    5.3774  -11.8236 C   0  0  0  0  0  0  0  0  0  0  0  0
   11.1476    3.8287  -14.6264 C   0  0  0  0  0  0  0  0  0  0  0  0
    8.4119    2.7425   -4.6107 C   0  0  0  0  0  0  0  0  0  0  0  0
   13.2502    4.6037  -11.6182 C   0  0  2  0  0  0  0  0  0  0  0  0
   13.4028    2.8321  -13.4019 C   0  0  0  0  0  0  0  0  0  0  0  0
   11.7723    2.7244  -15.1888 C   0  0  0  0  0  0  0  0  0  0  0  0
   11.6560    4.4008  -13.4820 C   0  0  0  0  0  0  0  0  0  0  0  0
   10.0616    3.5837   -6.6477 C   0  0  0  0  0  0  0  0  0  0  0  0
    9.4677    4.5149   -5.8198 C   0  0  0  0  0  0  0  0  0  0  0  0
   12.7121    4.1811   -9.3238 N   0  0  0  0  0  0  0  0  0  0  0  0
   13.2964    3.7529  -10.4950 N   0  0  0  0  0  4  0  0  0  0  0  0
   15.7464    4.9108  -11.3511 N   0  0  0  0  0  0  0  0  0  0  0  0
  6  1  2  0
  1 14  1  0
 12  2  2  0
 16  3  2  0
  3 17  1  0
 15  4  1  0
  4 16  1  0
  4 18  2  0
  5  8  1  0
  5  9  2  0
 21  5  1  0
 19  6  1  0
 10  7  1  0
 20  7  1  0
  8 10  2  0
  8 19  1  0
 11 14  2  0
 20 11  1  0
 15 12  1  0
 12 23  1  0
 13 17  2  0
 18 13  1  0
 15 22  1  1
 19 20  2  0
 21 22  1  0
M  CHG  1  22   1
M  END
$$$$
