
     RDKit          3D

 23 25  0  0  0  0  0  0  0  0999 V2000
   12.3560    0.8648  -13.8576 C   0  0  0  0  0  0  0  0  0  0  0  0
   11.6967    7.3487   -7.0011 O   0  0  0  0  0  0  0  0  0  0  0  0
   10.3424    2.1668   -4.6510 C   0  0  0  0  0  0  0  0  0  0  0  0
   10.6034    3.9550   -6.2124 C   0  0  0  0  0  0  0  0  0  0  0  0
   11.3434    2.8412   -9.9025 C   0  0  0  0  0  0  0  0  0  0  0  0
   12.0710    1.3946  -12.6031 C   0  0  0  0  0  0  0  0  0  0  0  0
   10.8627    4.6201  -13.0873 N   0  0  0  0  0  0  0  0  0  0  0  0
   11.2244    3.3581  -11.2657 C   0  0  0  0  0  0  0  0  0  0  0  0
   10.9492    1.6724   -9.6715 O   0  0  0  0  0  0  0  0  0  0  0  0
   10.7850    4.5784  -11.7242 C   0  0  0  0  0  0  0  0  0  0  0  0
   11.6198    2.9522  -14.7960 C   0  0  0  0  0  0  0  0  0  0  0  0
   11.0502    6.3627   -6.5453 C   0  0  0  0  0  0  0  0  0  0  0  0
    8.4497    2.9426   -5.8321 C   0  0  0  0  0  0  0  0  0  0  0  0
   12.1202    1.6679  -14.9352 C   0  0  0  0  0  0  0  0  0  0  0  0
   11.3937    4.9848   -6.9424 C   0  0  2  0  0  0  0  0  0  0  0  0
   11.1454    3.0959   -5.2952 C   0  0  0  0  0  0  0  0  0  0  0  0
    8.9893    2.0670   -4.9002 C   0  0  0  0  0  0  0  0  0  0  0  0
    9.2570    3.8611   -6.4644 C   0  0  0  0  0  0  0  0  0  0  0  0
   11.5767    2.6526  -12.4226 C   0  0  0  0  0  0  0  0  0  0  0  0
   11.3474    3.4425  -13.5312 C   0  0  0  0  0  0  0  0  0  0  0  0
   11.8807    3.5883   -8.8252 N   0  0  0  0  0  0  0  0  0  0  0  0
   11.4113    4.7878   -8.3383 N   0  0  0  0  0  4  0  0  0  0  0  0
    9.9851    6.6350   -5.6429 N   0  0  0  0  0  0  0  0  0  0  0  0
  6  1  2  0
  1 14  1  0
 12  2  2  0
 16  3  2  0
  3 17  1  0
 15  4  1  0
  4 16  1  0
  4 18  2  0
  5  8  1  0
  5  9  2  0
 21  5  1  0
 19  6  1  0
 10  7  1  0
 20  7  1  0
  8 10  2  0
  8 19  1  0
 11 14  2  0
 20 11  1  0
 15 12  1  0
 12 23  1  0
 13 17  2  0
 18 13  1  0
 15 22  1  6
 19 20  2  0
 21 22  1  0
M  CHG  1  22   1
M  END
$$$$
