
     RDKit          3D

 23 25  0  0  0  0  0  0  0  0999 V2000
   12.1427   12.6860   -7.2665 C   0  0  0  0  0  0  0  0  0  0  0  0
    9.4137    3.3769   -9.2027 O   0  0  0  0  0  0  0  0  0  0  0  0
   10.2161    2.1473   -5.2071 C   0  0  0  0  0  0  0  0  0  0  0  0
   10.0008    4.1209   -6.5346 C   0  0  0  0  0  0  0  0  0  0  0  0
   11.5269    8.1982   -7.0300 C   0  0  0  0  0  0  0  0  0  0  0  0
   12.0144   11.3006   -7.2607 C   0  0  0  0  0  0  0  0  0  0  0  0
    9.6594   10.4851   -4.8344 N   0  0  0  0  0  0  0  0  0  0  0  0
   10.8925    9.2725   -6.2663 C   0  0  0  0  0  0  0  0  0  0  0  0
   12.1724    8.5017   -8.0625 O   0  0  0  0  0  0  0  0  0  0  0  0
    9.9480    9.2222   -5.2674 C   0  0  0  0  0  0  0  0  0  0  0  0
   10.5021   12.7452   -5.5101 C   0  0  0  0  0  0  0  0  0  0  0  0
   10.2885    4.2631   -8.9849 C   0  0  0  0  0  0  0  0  0  0  0  0
    8.7284    3.8428   -4.5068 C   0  0  0  0  0  0  0  0  0  0  0  0
   11.3735   13.3811   -6.3794 C   0  0  0  0  0  0  0  0  0  0  0  0
   10.3279    4.9871   -7.7010 C   0  0  2  0  0  0  0  0  0  0  0  0
   10.5678    2.8935   -6.3217 C   0  0  0  0  0  0  0  0  0  0  0  0
    9.2975    2.5972   -4.2816 C   0  0  0  0  0  0  0  0  0  0  0  0
    9.0862    4.5747   -5.6166 C   0  0  0  0  0  0  0  0  0  0  0  0
   11.1683   10.6362   -6.4227 C   0  0  0  0  0  0  0  0  0  0  0  0
   10.4018   11.3655   -5.5361 C   0  0  0  0  0  0  0  0  0  0  0  0
   11.4535    6.8305   -6.6679 N   0  0  0  0  0  0  0  0  0  0  0  0
   11.5003    5.7485   -7.5185 N   0  0  0  0  0  4  0  0  0  0  0  0
   11.2241    4.5324  -10.0218 N   0  0  0  0  0  0  0  0  0  0  0  0
  6  1  2  0
  1 14  1  0
 12  2  2  0
 16  3  2  0
  3 17  1  0
 15  4  1  0
  4 16  1  0
  4 18  2  0
  5  8  1  0
  5  9  2  0
 21  5  1  0
 19  6  1  0
 10  7  1  0
 20  7  1  0
  8 10  2  0
  8 19  1  0
 11 14  2  0
 20 11  1  0
 15 12  1  0
 12 23  1  0
 13 17  2  0
 18 13  1  0
 15 22  1  1
 19 20  2  0
 21 22  1  0
M  CHG  1  22   1
M  END
$$$$
