
     RDKit          3D

 23 25  0  0  0  0  0  0  0  0999 V2000
    9.0538    1.5566   -5.8981 C   0  0  0  0  0  0  0  0  0  0  0  0
   13.5449    6.9545  -13.6021 O   0  0  0  0  0  0  0  0  0  0  0  0
    9.1289    5.2754  -13.5487 C   0  0  0  0  0  0  0  0  0  0  0  0
   11.3015    5.5221  -12.5880 C   0  0  0  0  0  0  0  0  0  0  0  0
   11.2258    4.4628   -8.6204 C   0  0  0  0  0  0  0  0  0  0  0  0
    9.7409    2.3778   -6.7864 C   0  0  0  0  0  0  0  0  0  0  0  0
    9.5727    5.6225   -5.5445 N   0  0  0  0  0  0  0  0  0  0  0  0
   10.5172    4.7069   -7.3641 C   0  0  0  0  0  0  0  0  0  0  0  0
   11.6598    3.3070   -8.8453 O   0  0  0  0  0  0  0  0  0  0  0  0
   10.3062    5.8750   -6.6688 C   0  0  0  0  0  0  0  0  0  0  0  0
    8.6057    3.5202   -4.5853 C   0  0  0  0  0  0  0  0  0  0  0  0
   13.5616    6.5074  -12.4198 C   0  0  0  0  0  0  0  0  0  0  0  0
   10.8298    3.7528  -14.1549 C   0  0  0  0  0  0  0  0  0  0  0  0
    8.4967    2.1569   -4.8068 C   0  0  0  0  0  0  0  0  0  0  0  0
   12.3066    6.1887  -11.7144 C   0  0  2  0  0  0  0  0  0  0  0  0
   10.0055    5.9456  -12.7089 C   0  0  0  0  0  0  0  0  0  0  0  0
    9.5139    4.1740  -14.2848 C   0  0  0  0  0  0  0  0  0  0  0  0
   11.6909    4.4268  -13.3185 C   0  0  0  0  0  0  0  0  0  0  0  0
    9.8724    3.7230   -6.6050 C   0  0  0  0  0  0  0  0  0  0  0  0
    9.2988    4.3031   -5.4914 C   0  0  0  0  0  0  0  0  0  0  0  0
   11.4498    5.4612   -9.6004 N   0  0  0  0  0  0  0  0  0  0  0  0
   12.5029    5.5268  -10.4852 N   0  0  0  0  0  4  0  0  0  0  0  0
   14.8303    6.3281  -11.8024 N   0  0  0  0  0  0  0  0  0  0  0  0
  6  1  2  0
  1 14  1  0
 12  2  2  0
 16  3  2  0
  3 17  1  0
 15  4  1  0
  4 16  1  0
  4 18  2  0
  5  8  1  0
  5  9  2  0
 21  5  1  0
 19  6  1  0
 10  7  1  0
 20  7  1  0
  8 10  2  0
  8 19  1  0
 11 14  2  0
 20 11  1  0
 15 12  1  0
 12 23  1  0
 13 17  2  0
 18 13  1  0
 15 22  1  1
 19 20  2  0
 21 22  1  0
M  CHG  1  22   1
M  END
$$$$
