
     RDKit          3D

 23 25  0  0  0  0  0  0  0  0999 V2000
   10.8364    3.9956   -4.2022 C   0  0  0  0  0  0  0  0  0  0  0  0
   14.5951    6.3917  -13.5702 O   0  0  0  0  0  0  0  0  0  0  0  0
   13.2263    2.1776  -14.4070 C   0  0  0  0  0  0  0  0  0  0  0  0
   13.5577    3.6490  -12.5553 C   0  0  0  0  0  0  0  0  0  0  0  0
   12.2356    4.2508   -8.5094 C   0  0  0  0  0  0  0  0  0  0  0  0
   11.3385    4.1187   -5.4939 C   0  0  0  0  0  0  0  0  0  0  0  0
    9.0593    2.6078   -7.6434 N   0  0  0  0  0  0  0  0  0  0  0  0
   11.0202    3.6567   -7.9528 C   0  0  0  0  0  0  0  0  0  0  0  0
   13.1640    4.5567   -7.7225 O   0  0  0  0  0  0  0  0  0  0  0  0
    9.9769    3.0087   -8.5724 C   0  0  0  0  0  0  0  0  0  0  0  0
    8.9538    2.8402   -5.1515 C   0  0  0  0  0  0  0  0  0  0  0  0
   14.6992    5.8378  -12.4387 C   0  0  0  0  0  0  0  0  0  0  0  0
   13.8031    1.2645  -12.3064 C   0  0  0  0  0  0  0  0  0  0  0  0
    9.6419    3.3510   -4.0629 C   0  0  0  0  0  0  0  0  0  0  0  0
   13.6152    4.9898  -11.9096 C   0  0  2  0  0  0  0  0  0  0  0  0
   13.2541    3.4584  -13.8762 C   0  0  0  0  0  0  0  0  0  0  0  0
   13.4967    1.0603  -13.6445 C   0  0  0  0  0  0  0  0  0  0  0  0
   13.8283    2.5409  -11.7912 C   0  0  0  0  0  0  0  0  0  0  0  0
   10.6928    3.6316   -6.5918 C   0  0  0  0  0  0  0  0  0  0  0  0
    9.4855    2.9844   -6.4207 C   0  0  0  0  0  0  0  0  0  0  0  0
   12.4238    4.5005   -9.8913 N   0  0  0  0  0  0  0  0  0  0  0  0
   13.5804    4.9322  -10.5014 N   0  0  0  0  0  4  0  0  0  0  0  0
   15.8944    6.0661  -11.7021 N   0  0  0  0  0  0  0  0  0  0  0  0
  6  1  2  0
  1 14  1  0
 12  2  2  0
 16  3  2  0
  3 17  1  0
 15  4  1  0
  4 16  1  0
  4 18  2  0
  5  8  1  0
  5  9  2  0
 21  5  1  0
 19  6  1  0
 10  7  1  0
 20  7  1  0
  8 10  2  0
  8 19  1  0
 11 14  2  0
 20 11  1  0
 15 12  1  0
 12 23  1  0
 13 17  2  0
 18 13  1  0
 15 22  1  1
 19 20  2  0
 21 22  1  0
M  CHG  1  22   1
M  END
$$$$
