
     RDKit          3D

 23 25  0  0  0  0  0  0  0  0999 V2000
   11.0948    4.3850   -4.8402 C   0  0  0  0  0  0  0  0  0  0  0  0
   13.4032    1.5732  -12.5125 O   0  0  0  0  0  0  0  0  0  0  0  0
   15.8978    5.3315  -12.3588 C   0  0  0  0  0  0  0  0  0  0  0  0
   13.8138    4.1746  -11.9155 C   0  0  0  0  0  0  0  0  0  0  0  0
    9.8554    3.7610   -9.1913 C   0  0  0  0  0  0  0  0  0  0  0  0
   10.8029    4.2909   -6.1818 C   0  0  0  0  0  0  0  0  0  0  0  0
    8.4347    1.7575   -6.4735 N   0  0  0  0  0  0  0  0  0  0  0  0
    9.4254    3.0888   -7.9659 C   0  0  0  0  0  0  0  0  0  0  0  0
    9.0302    4.1502  -10.0617 O   0  0  0  0  0  0  0  0  0  0  0  0
    8.5192    2.0701   -7.7825 C   0  0  0  0  0  0  0  0  0  0  0  0
    9.5340    2.6135   -4.4291 C   0  0  0  0  0  0  0  0  0  0  0  0
   12.6698    2.0237  -11.6044 C   0  0  0  0  0  0  0  0  0  0  0  0
   14.2459    5.2436  -14.0391 C   0  0  0  0  0  0  0  0  0  0  0  0
   10.4510    3.5335   -3.9500 C   0  0  0  0  0  0  0  0  0  0  0  0
   12.8738    3.4045  -11.0949 C   0  0  2  0  0  0  0  0  0  0  0  0
   15.0588    4.6041  -11.5396 C   0  0  0  0  0  0  0  0  0  0  0  0
   15.4956    5.6645  -13.6361 C   0  0  0  0  0  0  0  0  0  0  0  0
   13.4202    4.5173  -13.2073 C   0  0  0  0  0  0  0  0  0  0  0  0
    9.8972    3.3910   -6.7059 C   0  0  0  0  0  0  0  0  0  0  0  0
    9.2671    2.5484   -5.7775 C   0  0  0  0  0  0  0  0  0  0  0  0
   11.2399    4.0116   -9.4642 N   0  0  0  0  0  0  0  0  0  0  0  0
   11.6475    4.0561  -10.7839 N   0  0  0  0  0  4  0  0  0  0  0  0
   11.6515    1.1712  -11.0906 N   0  0  0  0  0  0  0  0  0  0  0  0
  6  1  2  0
  1 14  1  0
 12  2  2  0
 16  3  2  0
  3 17  1  0
 15  4  1  0
  4 16  1  0
  4 18  2  0
  5  8  1  0
  5  9  2  0
 21  5  1  0
 19  6  1  0
 10  7  1  0
 20  7  1  0
  8 10  2  0
  8 19  1  0
 11 14  2  0
 20 11  1  0
 15 12  1  6
 12 23  1  0
 13 17  2  0
 18 13  1  0
 22 15  1  0
 19 20  2  0
 22 21  1  6
M  CHG  1  22   1
M  END
$$$$
