
     RDKit          3D

 23 25  0  0  0  0  0  0  0  0999 V2000
    8.4735    3.1018   -6.2443 C   0  0  0  0  0  0  0  0  0  0  0  0
   16.3232    2.6732  -11.6899 O   0  0  0  0  0  0  0  0  0  0  0  0
   16.2390    7.4968  -13.1389 C   0  0  0  0  0  0  0  0  0  0  0  0
   15.0752    5.5757  -12.3273 C   0  0  0  0  0  0  0  0  0  0  0  0
   12.1356    3.9131   -8.7948 C   0  0  0  0  0  0  0  0  0  0  0  0
    9.5410    3.3722   -7.0946 C   0  0  0  0  0  0  0  0  0  0  0  0
   12.4671    2.7694   -5.3134 N   0  0  0  0  0  0  0  0  0  0  0  0
   12.0420    3.4525   -7.4096 C   0  0  0  0  0  0  0  0  0  0  0  0
   11.0756    4.2093   -9.3976 O   0  0  0  0  0  0  0  0  0  0  0  0
   13.0280    3.1480   -6.4999 C   0  0  0  0  0  0  0  0  0  0  0  0
   10.0904    2.5434   -4.5550 C   0  0  0  0  0  0  0  0  0  0  0  0
   15.1649    3.1512  -11.8571 C   0  0  0  0  0  0  0  0  0  0  0  0
   14.4655    6.6055  -14.4192 C   0  0  0  0  0  0  0  0  0  0  0  0
    8.7800    2.6894   -4.9803 C   0  0  0  0  0  0  0  0  0  0  0  0
   14.8175    4.4887  -11.3425 C   0  0  2  0  0  0  0  0  0  0  0  0
   16.0560    6.5179  -12.1739 C   0  0  0  0  0  0  0  0  0  0  0  0
   15.4572    7.5653  -14.2734 C   0  0  0  0  0  0  0  0  0  0  0  0
   14.2941    5.6382  -13.4547 C   0  0  0  0  0  0  0  0  0  0  0  0
   10.8444    3.2403   -6.7161 C   0  0  0  0  0  0  0  0  0  0  0  0
   11.1246    2.8206   -5.4312 C   0  0  0  0  0  0  0  0  0  0  0  0
   13.3598    4.0445   -9.4959 N   0  0  0  0  0  0  0  0  0  0  0  0
   13.5339    4.5542  -10.7632 N   0  0  0  0  0  4  0  0  0  0  0  0
   14.2178    2.3513  -12.5544 N   0  0  0  0  0  0  0  0  0  0  0  0
  6  1  2  0
  1 14  1  0
 12  2  2  0
 16  3  2  0
  3 17  1  0
 15  4  1  0
  4 16  1  0
  4 18  2  0
  5  8  1  0
  5  9  2  0
 21  5  1  0
 19  6  1  0
 10  7  1  0
 20  7  1  0
  8 10  2  0
  8 19  1  0
 11 14  2  0
 20 11  1  0
 15 12  1  0
 12 23  1  0
 13 17  2  0
 18 13  1  0
 15 22  1  6
 19 20  2  0
 21 22  1  0
M  CHG  1  22   1
M  END
$$$$
