
     RDKit          3D

 23 25  0  0  0  0  0  0  0  0999 V2000
    8.5926    1.7914   -5.7789 C   0  0  0  0  0  0  0  0  0  0  0  0
   13.5505    4.6665  -11.6823 O   0  0  0  0  0  0  0  0  0  0  0  0
   12.1077    3.2446  -15.4699 C   0  0  0  0  0  0  0  0  0  0  0  0
   11.4163    4.8480  -13.7880 C   0  0  0  0  0  0  0  0  0  0  0  0
   10.5137    4.0603   -9.2458 C   0  0  0  0  0  0  0  0  0  0  0  0
    9.1169    2.3898   -6.9020 C   0  0  0  0  0  0  0  0  0  0  0  0
   10.9689    5.1081   -5.7653 N   0  0  0  0  0  0  0  0  0  0  0  0
   10.5605    4.2948   -7.8032 C   0  0  0  0  0  0  0  0  0  0  0  0
    9.9965    3.0193   -9.7345 O   0  0  0  0  0  0  0  0  0  0  0  0
   11.2023    5.2755   -7.0829 C   0  0  0  0  0  0  0  0  0  0  0  0
    9.6763    3.4623   -4.4458 C   0  0  0  0  0  0  0  0  0  0  0  0
   12.8627    5.6684  -11.9805 C   0  0  0  0  0  0  0  0  0  0  0  0
   10.3656    4.7554  -15.9621 C   0  0  0  0  0  0  0  0  0  0  0  0
    8.8762    2.3357   -4.5318 C   0  0  0  0  0  0  0  0  0  0  0  0
   11.4719    5.4996  -12.4755 C   0  0  2  0  0  0  0  0  0  0  0  0
   12.2059    3.8144  -14.2170 C   0  0  0  0  0  0  0  0  0  0  0  0
   11.1734    3.7149  -16.3698 C   0  0  0  0  0  0  0  0  0  0  0  0
   10.4772    5.3132  -14.7061 C   0  0  0  0  0  0  0  0  0  0  0  0
    9.9188    3.5125   -6.8663 C   0  0  0  0  0  0  0  0  0  0  0  0
   10.1833    4.0333   -5.5906 C   0  0  0  0  0  0  0  0  0  0  0  0
   11.0547    5.0049  -10.1781 N   0  0  0  0  0  0  0  0  0  0  0  0
   10.6025    4.9660  -11.4833 N   0  0  0  0  0  4  0  0  0  0  0  0
   13.4602    6.9519  -11.8280 N   0  0  0  0  0  0  0  0  0  0  0  0
  6  1  2  0
  1 14  1  0
 12  2  2  0
 16  3  2  0
  3 17  1  0
 15  4  1  0
  4 16  1  0
  4 18  2  0
  5  8  1  0
  5  9  2  0
 21  5  1  0
 19  6  1  0
 10  7  1  0
 20  7  1  0
  8 10  2  0
  8 19  1  0
 11 14  2  0
 20 11  1  0
 15 12  1  1
 12 23  1  0
 13 17  2  0
 18 13  1  0
 22 15  1  0
 19 20  2  0
 22 21  1  6
M  CHG  1  22   1
M  END
$$$$
