
     RDKit          3D

 23 25  0  0  0  0  0  0  0  0999 V2000
   14.2644   11.5251   -4.7679 C   0  0  0  0  0  0  0  0  0  0  0  0
    9.4736    3.6474   -9.3185 O   0  0  0  0  0  0  0  0  0  0  0  0
    8.9322    3.3690   -4.4665 C   0  0  0  0  0  0  0  0  0  0  0  0
   10.2847    4.0805   -6.3485 C   0  0  0  0  0  0  0  0  0  0  0  0
   12.2077    7.8631   -6.5616 C   0  0  0  0  0  0  0  0  0  0  0  0
   13.7612   10.3791   -5.3401 C   0  0  0  0  0  0  0  0  0  0  0  0
   10.3052   10.5612   -4.9744 N   0  0  0  0  0  0  0  0  0  0  0  0
   11.6567    9.0405   -5.8919 C   0  0  0  0  0  0  0  0  0  0  0  0
   13.4023    7.4977   -6.3897 O   0  0  0  0  0  0  0  0  0  0  0  0
   10.3516    9.3742   -5.6125 C   0  0  0  0  0  0  0  0  0  0  0  0
   12.0216   12.1850   -4.2409 C   0  0  0  0  0  0  0  0  0  0  0  0
   10.5556    3.9842   -8.7877 C   0  0  0  0  0  0  0  0  0  0  0  0
   11.1117    2.5041   -4.7145 C   0  0  0  0  0  0  0  0  0  0  0  0
   13.3816   12.4422   -4.2096 C   0  0  0  0  0  0  0  0  0  0  0  0
   10.5576    4.8399   -7.5730 C   0  0  2  0  0  0  0  0  0  0  0  0
    9.1274    4.1060   -5.6166 C   0  0  0  0  0  0  0  0  0  0  0  0
    9.9361    2.5478   -3.9953 C   0  0  0  0  0  0  0  0  0  0  0  0
   11.2899    3.2474   -5.8620 C   0  0  0  0  0  0  0  0  0  0  0  0
   12.4151   10.0796   -5.3953 C   0  0  0  0  0  0  0  0  0  0  0  0
   11.5548   11.0283   -4.8221 C   0  0  0  0  0  0  0  0  0  0  0  0
   11.4150    7.0640   -7.4487 N   0  0  0  0  0  0  0  0  0  0  0  0
   11.6824    5.7102   -7.5226 N   0  0  0  0  0  4  0  0  0  0  0  0
   11.7609    3.5207   -9.3878 N   0  0  0  0  0  0  0  0  0  0  0  0
  6  1  2  0
  1 14  1  0
 12  2  2  0
 16  3  2  0
  3 17  1  0
 15  4  1  0
  4 16  1  0
  4 18  2  0
  5  8  1  0
  5  9  2  0
 21  5  1  0
 19  6  1  0
 10  7  1  0
 20  7  1  0
  8 10  2  0
  8 19  1  0
 11 14  2  0
 20 11  1  0
 15 12  1  6
 12 23  1  0
 13 17  2  0
 18 13  1  0
 22 15  1  0
 19 20  2  0
 22 21  1  6
M  CHG  1  22   1
M  END
$$$$
