
     RDKit          3D

 23 25  0  0  0  0  0  0  0  0999 V2000
   13.1079    8.6215  -11.7950 C   0  0  0  0  0  0  0  0  0  0  0  0
   12.9189    1.9660   -8.3764 O   0  0  0  0  0  0  0  0  0  0  0  0
   10.0585    2.2779   -4.7214 C   0  0  0  0  0  0  0  0  0  0  0  0
   10.8199    3.6031   -6.5566 C   0  0  0  0  0  0  0  0  0  0  0  0
   10.6693    7.3328   -8.1941 C   0  0  0  0  0  0  0  0  0  0  0  0
   12.3514    8.1447  -10.7292 C   0  0  0  0  0  0  0  0  0  0  0  0
   12.0075   10.7506   -8.4511 N   0  0  0  0  0  0  0  0  0  0  0  0
   11.2812    8.6265   -8.4968 C   0  0  0  0  0  0  0  0  0  0  0  0
    9.5771    7.3197   -7.5762 O   0  0  0  0  0  0  0  0  0  0  0  0
   11.2953    9.7991   -7.7778 C   0  0  0  0  0  0  0  0  0  0  0  0
   13.2178   10.7294  -10.6441 C   0  0  0  0  0  0  0  0  0  0  0  0
   12.9287    3.0450   -7.7180 C   0  0  0  0  0  0  0  0  0  0  0  0
    8.8822    4.2491   -5.2775 C   0  0  0  0  0  0  0  0  0  0  0  0
   13.5271    9.9180  -11.7237 C   0  0  0  0  0  0  0  0  0  0  0  0
   11.7421    3.9197   -7.6822 C   0  0  2  0  0  0  0  0  0  0  0  0
   10.9552    2.5018   -5.7552 C   0  0  0  0  0  0  0  0  0  0  0  0
    9.0106    3.1357   -4.4590 C   0  0  0  0  0  0  0  0  0  0  0  0
    9.7792    4.4611   -6.3001 C   0  0  0  0  0  0  0  0  0  0  0  0
   12.0243    8.9101   -9.6490 C   0  0  0  0  0  0  0  0  0  0  0  0
   12.4616   10.2187   -9.6042 C   0  0  0  0  0  0  0  0  0  0  0  0
   11.2422    6.0900   -8.5610 N   0  0  0  0  0  0  0  0  0  0  0  0
   12.0497    5.2919   -7.7817 N   0  0  0  0  0  4  0  0  0  0  0  0
   14.1225    3.3790   -7.0205 N   0  0  0  0  0  0  0  0  0  0  0  0
  6  1  2  0
  1 14  1  0
 12  2  2  0
 16  3  2  0
  3 17  1  0
 15  4  1  0
  4 16  1  0
  4 18  2  0
  5  8  1  0
  5  9  2  0
 21  5  1  0
 19  6  1  0
 10  7  1  0
 20  7  1  0
  8 10  2  0
  8 19  1  0
 11 14  2  0
 20 11  1  0
 15 12  1  0
 12 23  1  0
 13 17  2  0
 18 13  1  0
 15 22  1  1
 19 20  2  0
 21 22  1  0
M  CHG  1  22   1
M  END
$$$$
