
     RDKit          3D

 23 25  0  0  0  0  0  0  0  0999 V2000
   10.4202   12.2751   -7.5202 C   0  0  0  0  0  0  0  0  0  0  0  0
   13.5896    2.5161   -6.9145 O   0  0  0  0  0  0  0  0  0  0  0  0
    9.9883    3.3165   -4.0972 C   0  0  0  0  0  0  0  0  0  0  0  0
   11.0253    3.7662   -6.2010 C   0  0  0  0  0  0  0  0  0  0  0  0
   10.9656    7.7975   -7.9982 C   0  0  0  0  0  0  0  0  0  0  0  0
   10.5854   10.9140   -7.7565 C   0  0  0  0  0  0  0  0  0  0  0  0
   10.7594    9.3356   -4.6620 N   0  0  0  0  0  0  0  0  0  0  0  0
   10.8539    8.6033   -6.7824 C   0  0  0  0  0  0  0  0  0  0  0  0
   10.7458    8.3513   -9.1027 O   0  0  0  0  0  0  0  0  0  0  0  0
   10.8914    8.2334   -5.4579 C   0  0  0  0  0  0  0  0  0  0  0  0
   10.4734   11.7717   -5.1700 C   0  0  0  0  0  0  0  0  0  0  0  0
   13.4129    3.7655   -6.8386 C   0  0  0  0  0  0  0  0  0  0  0  0
    8.9851    2.4901   -6.0694 C   0  0  0  0  0  0  0  0  0  0  0  0
   10.3681   12.6737   -6.2163 C   0  0  0  0  0  0  0  0  0  0  0  0
   12.0816    4.3561   -7.0693 C   0  0  2  0  0  0  0  0  0  0  0  0
   11.0108    3.8898   -4.8380 C   0  0  0  0  0  0  0  0  0  0  0  0
    8.9609    2.6097   -4.6869 C   0  0  0  0  0  0  0  0  0  0  0  0
   10.0051    3.0643   -6.7940 C   0  0  0  0  0  0  0  0  0  0  0  0
   10.6920    9.9937   -6.7560 C   0  0  0  0  0  0  0  0  0  0  0  0
   10.6352   10.4257   -5.4461 C   0  0  0  0  0  0  0  0  0  0  0  0
   11.3094    6.4231   -7.9985 N   0  0  0  0  0  0  0  0  0  0  0  0
   12.0820    5.7659   -7.0671 N   0  0  0  0  0  4  0  0  0  0  0  0
   14.5424    4.5717   -6.5264 N   0  0  0  0  0  0  0  0  0  0  0  0
  6  1  2  0
  1 14  1  0
 12  2  2  0
 16  3  2  0
  3 17  1  0
 15  4  1  0
  4 16  1  0
  4 18  2  0
  5  8  1  0
  5  9  2  0
 21  5  1  0
 19  6  1  0
 10  7  1  0
 20  7  1  0
  8 10  2  0
  8 19  1  0
 11 14  2  0
 20 11  1  0
 15 12  1  0
 12 23  1  0
 13 17  2  0
 18 13  1  0
 15 22  1  1
 19 20  2  0
 21 22  1  0
M  CHG  1  22   1
M  END
$$$$
