
     RDKit          3D

 23 25  0  0  0  0  0  0  0  0999 V2000
   10.0890    4.9214   -4.6071 C   0  0  0  0  0  0  0  0  0  0  0  0
   14.7694    5.6357  -13.4239 O   0  0  0  0  0  0  0  0  0  0  0  0
   13.9048    1.0314  -12.7075 C   0  0  0  0  0  0  0  0  0  0  0  0
   13.2470    3.3187  -12.9057 C   0  0  0  0  0  0  0  0  0  0  0  0
   11.6225    4.4273   -8.8473 C   0  0  0  0  0  0  0  0  0  0  0  0
   10.5958    4.8525   -5.9010 C   0  0  0  0  0  0  0  0  0  0  0  0
    9.6444    1.7812   -7.2276 N   0  0  0  0  0  0  0  0  0  0  0  0
   10.8237    3.5162   -8.0278 C   0  0  0  0  0  0  0  0  0  0  0  0
   12.1113    5.4464   -8.3021 O   0  0  0  0  0  0  0  0  0  0  0  0
   10.3267    2.2644   -8.3078 C   0  0  0  0  0  0  0  0  0  0  0  0
    9.1669    2.7292   -4.9587 C   0  0  0  0  0  0  0  0  0  0  0  0
   13.5755    5.7649  -13.0290 C   0  0  0  0  0  0  0  0  0  0  0  0
   13.5794    1.9479  -14.8599 C   0  0  0  0  0  0  0  0  0  0  0  0
    9.3789    3.8439   -4.1639 C   0  0  0  0  0  0  0  0  0  0  0  0
   12.8766    4.6532  -12.3583 C   0  0  2  0  0  0  0  0  0  0  0  0
   13.5766    2.2454  -12.1231 C   0  0  0  0  0  0  0  0  0  0  0  0
   13.9149    0.8534  -14.0753 C   0  0  0  0  0  0  0  0  0  0  0  0
   13.2546    3.1477  -14.2680 C   0  0  0  0  0  0  0  0  0  0  0  0
   10.4092    3.7751   -6.7158 C   0  0  0  0  0  0  0  0  0  0  0  0
    9.6859    2.6994   -6.2408 C   0  0  0  0  0  0  0  0  0  0  0  0
   11.8762    4.2227  -10.2261 N   0  0  0  0  0  0  0  0  0  0  0  0
   12.9383    4.7151  -10.9512 N   0  0  0  0  0  4  0  0  0  0  0  0
   12.9387    7.0159  -13.2584 N   0  0  0  0  0  0  0  0  0  0  0  0
  6  1  2  0
  1 14  1  0
 12  2  2  0
 16  3  2  0
  3 17  1  0
 15  4  1  0
  4 16  1  0
  4 18  2  0
  5  8  1  0
  5  9  2  0
 21  5  1  0
 19  6  1  0
 10  7  1  0
 20  7  1  0
  8 10  2  0
  8 19  1  0
 11 14  2  0
 20 11  1  0
 15 12  1  0
 12 23  1  0
 13 17  2  0
 18 13  1  0
 15 22  1  1
 19 20  2  0
 21 22  1  0
M  CHG  1  22   1
M  END
$$$$
