
     RDKit          3D

 23 25  0  0  0  0  0  0  0  0999 V2000
   16.7209    6.9266  -12.9161 C   0  0  0  0  0  0  0  0  0  0  0  0
    9.0695    2.2829   -9.2488 O   0  0  0  0  0  0  0  0  0  0  0  0
   11.2044    3.6245   -4.5438 C   0  0  0  0  0  0  0  0  0  0  0  0
   10.5098    3.8865   -6.8517 C   0  0  0  0  0  0  0  0  0  0  0  0
   13.1609    5.2492  -10.5987 C   0  0  0  0  0  0  0  0  0  0  0  0
   15.7312    6.3876  -12.1262 C   0  0  0  0  0  0  0  0  0  0  0  0
   12.7573    6.8283  -13.8793 N   0  0  0  0  0  0  0  0  0  0  0  0
   13.2320    5.9091  -11.9017 C   0  0  0  0  0  0  0  0  0  0  0  0
   14.1756    5.1217   -9.8609 O   0  0  0  0  0  0  0  0  0  0  0  0
   12.2348    6.2117  -12.7998 C   0  0  0  0  0  0  0  0  0  0  0  0
   15.0482    7.4920  -14.5365 C   0  0  0  0  0  0  0  0  0  0  0  0
   10.2337    2.4417   -8.8185 C   0  0  0  0  0  0  0  0  0  0  0  0
    9.1094    4.5981   -5.0156 C   0  0  0  0  0  0  0  0  0  0  0  0
   16.3746    7.4876  -14.1398 C   0  0  0  0  0  0  0  0  0  0  0  0
   10.6663    3.7671   -8.3049 C   0  0  2  0  0  0  0  0  0  0  0  0
   11.4120    3.4885   -5.9012 C   0  0  0  0  0  0  0  0  0  0  0  0
   10.0344    4.1888   -4.0784 C   0  0  0  0  0  0  0  0  0  0  0  0
    9.3330    4.4547   -6.3685 C   0  0  0  0  0  0  0  0  0  0  0  0
   14.3970    6.3687  -12.4788 C   0  0  0  0  0  0  0  0  0  0  0  0
   14.0856    6.9434  -13.7204 C   0  0  0  0  0  0  0  0  0  0  0  0
   11.9310    4.7137  -10.0941 N   0  0  0  0  0  0  0  0  0  0  0  0
   11.9292    4.1663   -8.8253 N   0  0  0  0  0  4  0  0  0  0  0  0
   11.1085    1.3183   -8.8429 N   0  0  0  0  0  0  0  0  0  0  0  0
  6  1  2  0
  1 14  1  0
 12  2  2  0
 16  3  2  0
  3 17  1  0
 15  4  1  0
  4 16  1  0
  4 18  2  0
  5  8  1  0
  5  9  2  0
 21  5  1  0
 19  6  1  0
 10  7  1  0
 20  7  1  0
  8 10  2  0
  8 19  1  0
 11 14  2  0
 20 11  1  0
 15 12  1  1
 12 23  1  0
 13 17  2  0
 18 13  1  0
 22 15  1  0
 19 20  2  0
 22 21  1  6
M  CHG  1  22   1
M  END
$$$$
