
     RDKit          3D

 23 25  0  0  0  0  0  0  0  0999 V2000
    9.9606    4.2739   -4.5264 C   0  0  0  0  0  0  0  0  0  0  0  0
   14.2981    5.7834  -13.9148 O   0  0  0  0  0  0  0  0  0  0  0  0
   12.7191    1.5939  -12.1263 C   0  0  0  0  0  0  0  0  0  0  0  0
   13.2985    3.8813  -11.7579 C   0  0  0  0  0  0  0  0  0  0  0  0
   11.5513    5.2136   -8.6690 C   0  0  0  0  0  0  0  0  0  0  0  0
   10.4917    4.6331   -5.7611 C   0  0  0  0  0  0  0  0  0  0  0  0
    9.3163    2.3460   -8.1033 N   0  0  0  0  0  0  0  0  0  0  0  0
   10.6581    4.1419   -8.2293 C   0  0  0  0  0  0  0  0  0  0  0  0
   12.2677    5.7827   -7.8101 O   0  0  0  0  0  0  0  0  0  0  0  0
   10.0638    3.1250   -8.9401 C   0  0  0  0  0  0  0  0  0  0  0  0
    8.8648    2.4474   -5.6415 C   0  0  0  0  0  0  0  0  0  0  0  0
   14.1651    6.0052  -12.6774 C   0  0  0  0  0  0  0  0  0  0  0  0
   14.6545    2.0979  -10.8698 C   0  0  0  0  0  0  0  0  0  0  0  0
    9.1508    3.1760   -4.4983 C   0  0  0  0  0  0  0  0  0  0  0  0
   13.0955    5.3495  -11.9026 C   0  0  2  0  0  0  0  0  0  0  0  0
   12.4598    2.9451  -12.2994 C   0  0  0  0  0  0  0  0  0  0  0  0
   13.8105    1.1405  -11.4148 C   0  0  0  0  0  0  0  0  0  0  0  0
   14.3870    3.4364  -11.0491 C   0  0  0  0  0  0  0  0  0  0  0  0
   10.2346    3.9442   -6.9095 C   0  0  0  0  0  0  0  0  0  0  0  0
    9.4111    2.8378   -6.8512 C   0  0  0  0  0  0  0  0  0  0  0  0
   11.6536    5.6459  -10.0143 N   0  0  0  0  0  0  0  0  0  0  0  0
   12.8056    5.9950  -10.6832 N   0  0  0  0  0  4  0  0  0  0  0  0
   15.0807    6.9077  -12.0689 N   0  0  0  0  0  0  0  0  0  0  0  0
  6  1  2  0
  1 14  1  0
 12  2  2  0
 16  3  2  0
  3 17  1  0
 15  4  1  0
  4 16  1  0
  4 18  2  0
  5  8  1  0
  5  9  2  0
 21  5  1  0
 19  6  1  0
 10  7  1  0
 20  7  1  0
  8 10  2  0
  8 19  1  0
 11 14  2  0
 20 11  1  0
 15 12  1  0
 12 23  1  0
 13 17  2  0
 18 13  1  0
 15 22  1  1
 19 20  2  0
 21 22  1  0
M  CHG  1  22   1
M  END
$$$$
