
     RDKit          3D

 23 25  0  0  0  0  0  0  0  0999 V2000
   13.0312    4.8378  -15.2343 C   0  0  0  0  0  0  0  0  0  0  0  0
   13.6803    3.0970   -5.8356 O   0  0  0  0  0  0  0  0  0  0  0  0
    9.1096    4.2400   -4.9500 C   0  0  0  0  0  0  0  0  0  0  0  0
   10.7224    3.2246   -6.3893 C   0  0  0  0  0  0  0  0  0  0  0  0
   11.6682    3.6890  -11.0633 C   0  0  0  0  0  0  0  0  0  0  0  0
   12.6257    4.5717  -13.9303 C   0  0  0  0  0  0  0  0  0  0  0  0
   11.8657    1.1823  -13.7495 N   0  0  0  0  0  0  0  0  0  0  0  0
   11.8237    2.8613  -12.2593 C   0  0  0  0  0  0  0  0  0  0  0  0
   11.5170    4.9261  -11.2099 O   0  0  0  0  0  0  0  0  0  0  0  0
   11.5942    1.5189  -12.4538 C   0  0  0  0  0  0  0  0  0  0  0  0
   12.6667    2.5108  -15.7162 C   0  0  0  0  0  0  0  0  0  0  0  0
   13.1101    3.7415   -6.7616 C   0  0  0  0  0  0  0  0  0  0  0  0
    9.1549    1.8862   -5.1404 C   0  0  0  0  0  0  0  0  0  0  0  0
   13.0410    3.7870  -16.1046 C   0  0  0  0  0  0  0  0  0  0  0  0
   11.8528    3.2546   -7.3584 C   0  0  2  0  0  0  0  0  0  0  0  0
   10.1656    4.3489   -5.8421 C   0  0  0  0  0  0  0  0  0  0  0  0
    8.5831    3.0198   -4.5800 C   0  0  0  0  0  0  0  0  0  0  0  0
   10.2024    2.0071   -6.0255 C   0  0  0  0  0  0  0  0  0  0  0  0
   12.2508    3.3307  -13.5073 C   0  0  0  0  0  0  0  0  0  0  0  0
   12.2711    2.2862  -14.4096 C   0  0  0  0  0  0  0  0  0  0  0  0
   11.6785    3.1706   -9.7448 N   0  0  0  0  0  0  0  0  0  0  0  0
   11.5259    3.8839   -8.5768 N   0  0  0  0  0  4  0  0  0  0  0  0
   13.7276    4.9448   -7.2021 N   0  0  0  0  0  0  0  0  0  0  0  0
  6  1  2  0
  1 14  1  0
 12  2  2  0
 16  3  2  0
  3 17  1  0
 15  4  1  0
  4 16  1  0
  4 18  2  0
  5  8  1  0
  5  9  2  0
 21  5  1  0
 19  6  1  0
 10  7  1  0
 20  7  1  0
  8 10  2  0
  8 19  1  0
 11 14  2  0
 20 11  1  0
 15 12  1  0
 12 23  1  0
 13 17  2  0
 18 13  1  0
 15 22  1  6
 19 20  2  0
 21 22  1  0
M  CHG  1  22   1
M  END
$$$$
