
     RDKit          3D

 23 25  0  0  0  0  0  0  0  0999 V2000
    9.2112    4.9173   -4.6107 C   0  0  0  0  0  0  0  0  0  0  0  0
    8.8600    9.3623  -12.1439 O   0  0  0  0  0  0  0  0  0  0  0  0
   10.7528    7.0531  -15.4250 C   0  0  0  0  0  0  0  0  0  0  0  0
    9.4420    6.8408  -13.4399 C   0  0  0  0  0  0  0  0  0  0  0  0
   10.1158    5.6066   -9.0017 C   0  0  0  0  0  0  0  0  0  0  0  0
    9.4829    5.2177   -5.9417 C   0  0  0  0  0  0  0  0  0  0  0  0
    9.8821    2.2015   -7.6273 N   0  0  0  0  0  0  0  0  0  0  0  0
    9.9737    4.3539   -8.2598 C   0  0  0  0  0  0  0  0  0  0  0  0
    9.9968    6.6874   -8.3752 O   0  0  0  0  0  0  0  0  0  0  0  0
   10.0820    3.0485   -8.6801 C   0  0  0  0  0  0  0  0  0  0  0  0
    9.3774    2.5938   -5.2053 C   0  0  0  0  0  0  0  0  0  0  0  0
    8.4823    8.2583  -11.6575 C   0  0  0  0  0  0  0  0  0  0  0  0
    8.6222    6.0429  -15.5611 C   0  0  0  0  0  0  0  0  0  0  0  0
    9.1653    3.5962   -4.2727 C   0  0  0  0  0  0  0  0  0  0  0  0
    9.1924    7.0072  -11.9812 C   0  0  2  0  0  0  0  0  0  0  0  0
   10.5912    7.2485  -14.0617 C   0  0  0  0  0  0  0  0  0  0  0  0
    9.7835    6.4525  -16.2012 C   0  0  0  0  0  0  0  0  0  0  0  0
    8.4736    6.2416  -14.2069 C   0  0  0  0  0  0  0  0  0  0  0  0
    9.6965    4.2619   -6.8906 C   0  0  0  0  0  0  0  0  0  0  0  0
    9.6432    2.9332   -6.5199 C   0  0  0  0  0  0  0  0  0  0  0  0
   10.3814    5.6681  -10.3920 N   0  0  0  0  0  0  0  0  0  0  0  0
   10.3393    6.7889  -11.1910 N   0  0  0  0  0  4  0  0  0  0  0  0
    7.3521    8.2723  -10.7941 N   0  0  0  0  0  0  0  0  0  0  0  0
  6  1  2  0
  1 14  1  0
 12  2  2  0
 16  3  2  0
  3 17  1  0
 15  4  1  0
  4 16  1  0
  4 18  2  0
  5  8  1  0
  5  9  2  0
 21  5  1  0
 19  6  1  0
 10  7  1  0
 20  7  1  0
  8 10  2  0
  8 19  1  0
 11 14  2  0
 20 11  1  0
 15 12  1  0
 12 23  1  0
 13 17  2  0
 18 13  1  0
 15 22  1  1
 19 20  2  0
 21 22  1  0
M  CHG  1  22   1
M  END
$$$$
