
     RDKit          3D

 55 57  0  0  0  0  0  0  0  0999 V2000
   43.5310  -22.8622   28.3913 N   0  0  0  0  0  0  0  0  0  0  0  0
   43.3746  -24.0376   29.0691 C   0  0  0  0  0  0  0  0  0  0  0  0
   42.2485  -24.3448   29.7416 N   0  0  0  0  0  0  0  0  0  0  0  0
   41.2373  -23.4575   29.7451 C   0  0  0  0  0  0  0  0  0  0  0  0
   41.3908  -22.2670   29.0612 C   0  0  0  0  0  0  0  0  0  0  0  0
   42.5425  -21.9561   28.3746 C   0  0  0  0  0  0  0  0  0  0  0  0
   42.6889  -20.7373   27.6795 N   0  0  0  0  0  0  0  0  0  0  0  0
   40.2394  -21.5990   29.2419 N   0  0  0  0  0  0  0  0  0  0  0  0
   39.4219  -22.3726   30.0135 C   0  0  0  0  0  0  0  0  0  0  0  0
   40.0445  -23.5246   30.3234 N   0  0  0  0  0  0  0  0  0  0  0  0
   39.5047  -24.5719   31.1038 C   0  0  1  0  0  0  0  0  0  0  0  0
   39.0447  -24.2344   32.4796 C   0  0  2  0  0  0  0  0  0  0  0  0
   40.1459  -24.2772   33.3341 O   0  0  0  0  0  0  0  0  0  0  0  0
   38.0706  -25.3915   32.7750 C   0  0  2  0  0  0  0  0  0  0  0  0
   38.5615  -26.0384   33.8811 O   0  0  0  0  0  0  0  0  0  0  0  0
   38.1585  -26.1698   31.5029 C   0  0  2  0  0  0  0  0  0  0  0  0
   38.3328  -25.1369   30.5459 O   0  0  0  0  0  0  0  0  0  0  0  0
   36.9841  -27.0238   31.1787 C   0  0  0  0  0  0  0  0  0  0  0  0
   35.8281  -26.3092   30.9608 O   0  0  0  0  0  0  0  0  0  0  0  0
   37.5505  -24.4139   35.6494 O   0  0  0  0  0  0  0  0  0  0  0  0
   37.4794  -25.8406   35.1606 P   0  0  2  0  0  5  0  0  0  0  0  0
   37.8840  -26.9449   36.3718 O   0  0  0  0  0  0  0  0  0  0  0  0
   35.8968  -26.2248   34.6496 O   0  0  0  0  0  0  0  0  0  0  0  0
   34.6215  -27.2495   30.2324 P   0  0  2  0  0  5  0  0  0  0  0  0
   33.3143  -26.1799   29.9499 O   0  0  0  0  0  0  0  0  0  0  0  0
   34.1112  -28.3113   31.1653 O   0  0  0  0  0  0  0  0  0  0  0  0
   35.1441  -27.9930   28.8360 O   0  0  0  0  0  0  0  0  0  0  0  0
   34.6581  -29.5773   28.6761 P   0  0  2  0  0  5  0  0  0  0  0  0
   35.5092  -30.4344   29.5942 O   0  0  0  0  0  0  0  0  0  0  0  0
   34.9076  -30.1620   27.1035 O   0  0  0  0  0  0  0  0  0  0  0  0
   33.0448  -29.7849   29.1478 O   0  0  0  0  0  0  0  0  0  0  0  0
   32.6116  -31.0839   28.9104 C   0  0  0  0  0  0  0  0  0  0  0  0
   31.5000  -31.4174   29.8373 C   0  0  2  0  0  0  0  0  0  0  0  0
   30.4737  -32.3162   29.1728 C   0  0  0  0  0  0  0  0  0  0  0  0
   30.7958  -30.1478   30.2703 C   0  0  0  0  0  0  0  0  0  0  0  0
   31.9299  -32.1243   31.1078 C   0  0  1  0  0  0  0  0  0  0  0  0
   32.7589  -31.2070   31.7763 O   0  0  0  0  0  0  0  0  0  0  0  0
   30.7084  -32.3394   31.9381 C   0  0  0  0  0  0  0  0  0  0  0  0
   30.7888  -32.3375   33.1851 O   0  0  0  0  0  0  0  0  0  0  0  0
   29.4670  -32.5453   31.2973 N   0  0  0  0  0  0  0  0  0  0  0  0
   28.4907  -33.4442   31.8367 C   0  0  0  0  0  0  0  0  0  0  0  0
   27.4112  -32.6528   32.5312 C   0  0  0  0  0  0  0  0  0  0  0  0
   26.1000  -33.3761   32.4509 C   0  0  0  0  0  0  0  0  0  0  0  0
   26.1035  -34.5644   32.0437 O   0  0  0  0  0  0  0  0  0  0  0  0
   24.8574  -32.7910   32.8089 N   0  0  0  0  0  0  0  0  0  0  0  0
   23.6594  -33.6400   32.9587 C   0  0  0  0  0  0  0  0  0  0  0  0
   23.9600  -34.8083   33.8534 C   0  0  0  0  0  0  0  0  0  0  0  0
   22.8275  -35.0816   34.6822 N   0  0  0  0  0  0  0  0  0  0  0  0
   21.9783  -36.1693   34.4174 C   0  0  0  0  0  0  0  0  0  0  0  0
   22.3786  -37.1397   33.7470 O   0  0  0  0  0  0  0  0  0  0  0  0
   20.5778  -36.1570   34.9505 C   0  0  2  0  0  0  0  0  0  0  0  0
   20.4266  -34.9430   35.8582 C   0  0  0  0  0  0  0  0  0  0  0  0
   20.3339  -37.3732   35.6743 N   0  0  0  0  0  4  0  0  0  0  0  0
   20.2484  -37.3520   37.0373 O   0  0  0  0  0  1  0  0  0  0  0  0
   20.2009  -38.4409   35.0681 O   0  0  0  0  0  0  0  0  0  0  0  0
  1  2  2  0
  1  6  1  0
  2  3  1  0
  3  4  2  0
  4  5  1  0
  4 10  1  0
  5  6  2  0
  5  8  1  0
  6  7  1  0
  8  9  2  0
  9 10  1  0
 11 10  1  6
 11 12  1  0
 11 17  1  0
 12 13  1  1
 12 14  1  0
 14 15  1  1
 14 16  1  0
 15 21  1  0
 16 17  1  0
 16 18  1  6
 18 19  1  0
 19 24  1  0
 21 20  2  0
 21 22  1  1
 21 23  1  0
 24 25  1  6
 24 26  2  0
 24 27  1  0
 27 28  1  0
 28 29  2  0
 28 30  1  6
 28 31  1  0
 31 32  1  0
 32 33  1  0
 33 34  1  6
 33 35  1  0
 33 36  1  0
 36 37  1  1
 36 38  1  0
 38 39  2  0
 38 40  1  0
 40 41  1  0
 41 42  1  0
 42 43  1  0
 43 44  2  0
 43 45  1  0
 45 46  1  0
 46 47  1  0
 47 48  1  0
 48 49  1  0
 49 50  2  0
 49 51  1  0
 51 52  1  1
 51 53  1  0
 53 54  1  0
 53 55  2  0
M  CHG  2  53   1  54  -1
M  END
$$$$
