
     RDKit          3D

 55 57  0  0  0  0  0  0  0  0999 V2000
   22.4627   13.9614   11.9001 N   0  0  0  0  0  0  0  0  0  0  0  0
   21.2272   13.5861   12.3454 C   0  0  0  0  0  0  0  0  0  0  0  0
   20.6955   14.0517   13.4922 N   0  0  0  0  0  0  0  0  0  0  0  0
   21.4108   14.9214   14.2281 C   0  0  0  0  0  0  0  0  0  0  0  0
   22.6612   15.3038   13.7821 C   0  0  0  0  0  0  0  0  0  0  0  0
   23.2017   14.8267   12.6096 C   0  0  0  0  0  0  0  0  0  0  0  0
   24.4797   15.2236   12.1633 N   0  0  0  0  0  0  0  0  0  0  0  0
   23.1246   16.1611   14.7065 N   0  0  0  0  0  0  0  0  0  0  0  0
   22.1740   16.2856   15.6777 C   0  0  0  0  0  0  0  0  0  0  0  0
   21.1125   15.5153   15.3771 N   0  0  0  0  0  0  0  0  0  0  0  0
   19.9351   15.3927   16.1491 C   0  0  1  0  0  0  0  0  0  0  0  0
   20.0698   14.8238   17.5189 C   0  0  2  0  0  0  0  0  0  0  0  0
   20.0509   13.4329   17.4210 O   0  0  0  0  0  0  0  0  0  0  0  0
   18.7909   15.3474   18.2010 C   0  0  2  0  0  0  0  0  0  0  0  0
   18.0828   14.2410   18.5979 O   0  0  0  0  0  0  0  0  0  0  0  0
   18.1697   16.1224   17.0850 C   0  0  2  0  0  0  0  0  0  0  0  0
   19.3134   16.6352   16.4203 O   0  0  0  0  0  0  0  0  0  0  0  0
   17.2367   17.2095   17.4867 C   0  0  0  0  0  0  0  0  0  0  0  0
   17.7305   18.4726   17.2513 O   0  0  0  0  0  0  0  0  0  0  0  0
   17.7799   13.3114   21.0128 O   0  0  0  0  0  0  0  0  0  0  0  0
   17.4670   14.5073   20.1460 P   0  0  2  0  0  5  0  0  0  0  0  0
   15.8053   14.7764   20.0159 O   0  0  0  0  0  0  0  0  0  0  0  0
   18.1473   15.9261   20.8075 O   0  0  0  0  0  0  0  0  0  0  0  0
   17.7879   19.4108   18.6610 P   0  0  2  0  0  5  0  0  0  0  0  0
   16.7995   20.7733   18.3460 O   0  0  0  0  0  0  0  0  0  0  0  0
   19.1720   19.9368   18.9175 O   0  0  0  0  0  0  0  0  0  0  0  0
   17.2939   18.5692   20.0114 O   0  0  0  0  0  0  0  0  0  0  0  0
   18.2825   18.7546   21.3382 P   0  0  2  0  0  5  0  0  0  0  0  0
   18.3936   17.4161   22.0437 O   0  0  0  0  0  0  0  0  0  0  0  0
   17.6326   19.8412   22.4669 O   0  0  0  0  0  0  0  0  0  0  0  0
   19.8486   19.2171   20.8885 O   0  0  0  0  0  0  0  0  0  0  0  0
   20.7812   18.2461   21.2333 C   0  0  0  0  0  0  0  0  0  0  0  0
   22.1328   18.6705   20.7871 C   0  0  2  0  0  0  0  0  0  0  0  0
   23.0534   18.9221   21.9668 C   0  0  0  0  0  0  0  0  0  0  0  0
   22.0299   19.9575   19.9943 C   0  0  0  0  0  0  0  0  0  0  0  0
   22.8436   17.6722   19.8943 C   0  0  1  0  0  0  0  0  0  0  0  0
   22.0235   17.5445   18.7600 O   0  0  0  0  0  0  0  0  0  0  0  0
   24.1346   18.2888   19.4689 C   0  0  0  0  0  0  0  0  0  0  0  0
   25.1901   18.0210   20.0817 O   0  0  0  0  0  0  0  0  0  0  0  0
   24.1457   19.1758   18.3701 N   0  0  0  0  0  0  0  0  0  0  0  0
   24.8741   18.8714   17.1748 C   0  0  0  0  0  0  0  0  0  0  0  0
   24.6537   19.9663   16.1617 C   0  0  0  0  0  0  0  0  0  0  0  0
   25.0155   21.2990   16.7462 C   0  0  0  0  0  0  0  0  0  0  0  0
   25.3858   21.3383   17.9459 O   0  0  0  0  0  0  0  0  0  0  0  0
   24.9613   22.5163   16.0183 N   0  0  0  0  0  0  0  0  0  0  0  0
   25.3698   23.7793   16.6638 C   0  0  0  0  0  0  0  0  0  0  0  0
   25.1929   24.9286   15.7133 C   0  0  0  0  0  0  0  0  0  0  0  0
   23.9582   25.5942   15.9901 N   0  0  0  0  0  0  0  0  0  0  0  0
   23.5185   26.6693   15.1993 C   0  0  0  0  0  0  0  0  0  0  0  0
   24.1617   27.0229   14.1931 O   0  0  0  0  0  0  0  0  0  0  0  0
   22.2615   27.3937   15.5745 C   0  0  2  0  0  0  0  0  0  0  0  0
   21.4965   27.7099   14.2957 C   0  0  0  0  0  0  0  0  0  0  0  0
   22.5994   28.5970   16.2819 N   0  0  0  0  0  4  0  0  0  0  0  0
   21.6645   29.5794   16.4452 O   0  0  0  0  0  1  0  0  0  0  0  0
   23.7345   28.7479   16.7444 O   0  0  0  0  0  0  0  0  0  0  0  0
  1  2  2  0
  1  6  1  0
  2  3  1  0
  3  4  2  0
  4  5  1  0
  4 10  1  0
  5  6  2  0
  5  8  1  0
  6  7  1  0
  8  9  2  0
  9 10  1  0
 11 10  1  1
 11 12  1  0
 11 17  1  0
 12 13  1  6
 12 14  1  0
 14 15  1  6
 14 16  1  0
 15 21  1  0
 16 17  1  0
 16 18  1  1
 18 19  1  0
 19 24  1  0
 21 20  2  0
 21 22  1  6
 21 23  1  0
 24 25  1  6
 24 26  2  0
 24 27  1  0
 27 28  1  0
 28 29  2  0
 28 30  1  1
 28 31  1  0
 31 32  1  0
 32 33  1  0
 33 34  1  1
 33 35  1  0
 33 36  1  0
 36 37  1  6
 36 38  1  0
 38 39  2  0
 38 40  1  0
 40 41  1  0
 41 42  1  0
 42 43  1  0
 43 44  2  0
 43 45  1  0
 45 46  1  0
 46 47  1  0
 47 48  1  0
 48 49  1  0
 49 50  2  0
 49 51  1  0
 51 52  1  6
 51 53  1  0
 53 54  1  0
 53 55  2  0
M  CHG  2  53   1  54  -1
M  END
$$$$
