
     RDKit          3D

 55 57  0  0  0  0  0  0  0  0999 V2000
   20.0883   25.5345   26.2978 N   0  0  0  0  0  0  0  0  0  0  0  0
   19.7283   26.4107   25.3139 C   0  0  0  0  0  0  0  0  0  0  0  0
   19.8528   26.1236   24.0036 N   0  0  0  0  0  0  0  0  0  0  0  0
   20.3517   24.9252   23.6507 C   0  0  0  0  0  0  0  0  0  0  0  0
   20.7176   24.0355   24.6423 C   0  0  0  0  0  0  0  0  0  0  0  0
   20.5888   24.3315   25.9804 C   0  0  0  0  0  0  0  0  0  0  0  0
   20.9656   23.4157   26.9850 N   0  0  0  0  0  0  0  0  0  0  0  0
   21.1718   22.9479   23.9981 N   0  0  0  0  0  0  0  0  0  0  0  0
   21.0784   23.1845   22.6574 C   0  0  0  0  0  0  0  0  0  0  0  0
   20.5691   24.4119   22.4461 N   0  0  0  0  0  0  0  0  0  0  0  0
   20.3246   24.9994   21.1842 C   0  0  1  0  0  0  0  0  0  0  0  0
   21.2842   26.0367   20.7136 C   0  0  2  0  0  0  0  0  0  0  0  0
   20.9110   27.2626   21.2637 O   0  0  0  0  0  0  0  0  0  0  0  0
   21.0425   26.0173   19.1917 C   0  0  2  0  0  0  0  0  0  0  0  0
   20.6315   27.2808   18.8486 O   0  0  0  0  0  0  0  0  0  0  0  0
   19.9883   24.9641   19.0841 C   0  0  2  0  0  0  0  0  0  0  0  0
   20.3695   24.0699   20.1175 O   0  0  0  0  0  0  0  0  0  0  0  0
   19.8897   24.2725   17.7705 C   0  0  0  0  0  0  0  0  0  0  0  0
   21.0252   23.5723   17.4312 O   0  0  0  0  0  0  0  0  0  0  0  0
   19.1612   28.5736   17.1297 O   0  0  0  0  0  0  0  0  0  0  0  0
   19.5965   27.1816   17.5197 P   0  0  2  0  0  5  0  0  0  0  0  0
   18.2860   26.2040   17.9409 O   0  0  0  0  0  0  0  0  0  0  0  0
   20.3901   26.4113   16.2196 O   0  0  0  0  0  0  0  0  0  0  0  0
   20.8307   21.9011   17.6309 P   0  0  2  0  0  5  0  0  0  0  0  0
   19.5799   21.7195   18.7864 O   0  0  0  0  0  0  0  0  0  0  0  0
   22.0577   21.2702   18.2264 O   0  0  0  0  0  0  0  0  0  0  0  0
   20.4882   21.1202   16.1995 O   0  0  0  0  0  0  0  0  0  0  0  0
   21.7077   21.1897   15.0682 P   0  0  2  0  0  5  0  0  0  0  0  0
   22.0645   22.6461   14.8372 O   0  0  0  0  0  0  0  0  0  0  0  0
   21.2170   20.5703   13.5673 O   0  0  0  0  0  0  0  0  0  0  0  0
   23.1086   20.4095   15.6136 O   0  0  0  0  0  0  0  0  0  0  0  0
   23.4099   19.3035   14.8279 C   0  0  0  0  0  0  0  0  0  0  0  0
   24.5586   18.5695   15.4176 C   0  0  2  0  0  0  0  0  0  0  0  0
   25.4662   19.4976   16.2034 C   0  0  0  0  0  0  0  0  0  0  0  0
   25.3826   17.9366   14.3148 C   0  0  0  0  0  0  0  0  0  0  0  0
   24.1717   17.4480   16.3617 C   0  0  1  0  0  0  0  0  0  0  0  0
   23.4795   16.5194   15.5654 O   0  0  0  0  0  0  0  0  0  0  0  0
   25.4322   16.8057   16.8375 C   0  0  0  0  0  0  0  0  0  0  0  0
   25.9150   17.1165   17.9473 O   0  0  0  0  0  0  0  0  0  0  0  0
   26.0689   15.8472   16.0188 N   0  0  0  0  0  0  0  0  0  0  0  0
   25.8307   14.4452   16.1908 C   0  0  0  0  0  0  0  0  0  0  0  0
   26.2937   13.7043   14.9617 C   0  0  0  0  0  0  0  0  0  0  0  0
   27.7446   13.3454   15.0840 C   0  0  0  0  0  0  0  0  0  0  0  0
   28.2456   13.2896   16.2346 O   0  0  0  0  0  0  0  0  0  0  0  0
   28.5808   13.0666   13.9716 N   0  0  0  0  0  0  0  0  0  0  0  0
   29.9426   12.5398   14.1875 C   0  0  0  0  0  0  0  0  0  0  0  0
   30.9352   13.6663   14.2231 C   0  0  0  0  0  0  0  0  0  0  0  0
   32.1150   13.2445   14.9117 N   0  0  0  0  0  0  0  0  0  0  0  0
   32.9235   14.1649   15.5999 C   0  0  0  0  0  0  0  0  0  0  0  0
   32.5621   15.3486   15.7392 O   0  0  0  0  0  0  0  0  0  0  0  0
   34.2329   13.7119   16.1709 C   0  0  2  0  0  0  0  0  0  0  0  0
   33.9433   12.7767   17.3379 C   0  0  0  0  0  0  0  0  0  0  0  0
   34.9840   14.8568   16.6042 N   0  0  0  0  0  4  0  0  0  0  0  0
   34.6974   16.0933   16.0996 O   0  0  0  0  0  1  0  0  0  0  0  0
   35.8903   14.7279   17.4332 O   0  0  0  0  0  0  0  0  0  0  0  0
  1  2  2  0
  1  6  1  0
  2  3  1  0
  3  4  2  0
  4  5  1  0
  4 10  1  0
  5  6  2  0
  5  8  1  0
  6  7  1  0
  8  9  2  0
  9 10  1  0
 11 10  1  1
 11 12  1  0
 11 17  1  0
 12 13  1  1
 12 14  1  0
 14 15  1  1
 14 16  1  0
 15 21  1  0
 16 17  1  0
 16 18  1  6
 18 19  1  0
 19 24  1  0
 21 20  2  0
 21 22  1  1
 21 23  1  0
 24 25  1  1
 24 26  2  0
 24 27  1  0
 27 28  1  0
 28 29  2  0
 28 30  1  6
 28 31  1  0
 31 32  1  0
 32 33  1  0
 33 34  1  1
 33 35  1  0
 33 36  1  0
 36 37  1  6
 36 38  1  0
 38 39  2  0
 38 40  1  0
 40 41  1  0
 41 42  1  0
 42 43  1  0
 43 44  2  0
 43 45  1  0
 45 46  1  0
 46 47  1  0
 47 48  1  0
 48 49  1  0
 49 50  2  0
 49 51  1  0
 51 52  1  1
 51 53  1  0
 53 54  1  0
 53 55  2  0
M  CHG  2  53   1  54  -1
M  END
$$$$
