
     RDKit          3D

 55 57  0  0  0  0  0  0  0  0999 V2000
   26.2655   29.3951   15.6148 N   0  0  0  0  0  0  0  0  0  0  0  0
   25.0137   29.9117   15.7926 C   0  0  0  0  0  0  0  0  0  0  0  0
   23.9261   29.1369   15.9706 N   0  0  0  0  0  0  0  0  0  0  0  0
   24.0800   27.8005   15.9734 C   0  0  0  0  0  0  0  0  0  0  0  0
   25.3442   27.2732   15.7935 C   0  0  0  0  0  0  0  0  0  0  0  0
   26.4537   28.0673   15.6123 C   0  0  0  0  0  0  0  0  0  0  0  0
   27.7403   27.5186   15.4295 N   0  0  0  0  0  0  0  0  0  0  0  0
   25.1868   25.9401   15.8429 N   0  0  0  0  0  0  0  0  0  0  0  0
   23.8625   25.6811   16.0469 C   0  0  0  0  0  0  0  0  0  0  0  0
   23.1795   26.8376   16.1275 N   0  0  0  0  0  0  0  0  0  0  0  0
   21.7879   26.9627   16.3390 C   0  0  1  0  0  0  0  0  0  0  0  0
   20.9570   27.4104   15.1869 C   0  0  2  0  0  0  0  0  0  0  0  0
   20.9903   28.8036   15.1363 O   0  0  0  0  0  0  0  0  0  0  0  0
   19.5595   26.9054   15.5955 C   0  0  2  0  0  0  0  0  0  0  0  0
   18.7541   28.0138   15.6718 O   0  0  0  0  0  0  0  0  0  0  0  0
   19.8626   26.2590   16.9078 C   0  0  2  0  0  0  0  0  0  0  0  0
   21.1624   25.7388   16.6780 O   0  0  0  0  0  0  0  0  0  0  0  0
   18.9172   25.1966   17.3449 C   0  0  0  0  0  0  0  0  0  0  0  0
   18.9158   24.0908   16.5253 O   0  0  0  0  0  0  0  0  0  0  0  0
   17.0845   26.0137   15.6561 O   0  0  0  0  0  0  0  0  0  0  0  0
   17.1400   27.5223   15.6797 P   0  0  2  0  0  5  0  0  0  0  0  0
   16.3721   28.2043   14.3397 O   0  0  0  0  0  0  0  0  0  0  0  0
   16.3519   28.1330   17.0651 O   0  0  0  0  0  0  0  0  0  0  0  0
   19.4096   22.6894   17.3396 P   0  0  2  0  0  5  0  0  0  0  0  0
   20.8416   22.1806   16.5502 O   0  0  0  0  0  0  0  0  0  0  0  0
   18.4130   21.5766   17.1766 O   0  0  0  0  0  0  0  0  0  0  0  0
   19.6417   22.9436   18.9698 O   0  0  0  0  0  0  0  0  0  0  0  0
   20.8751   22.0467   19.6378 P   0  0  2  0  0  5  0  0  0  0  0  0
   20.2664   20.8641   20.3677 O   0  0  0  0  0  0  0  0  0  0  0  0
   21.7471   22.9293   20.7944 O   0  0  0  0  0  0  0  0  0  0  0  0
   21.9085   21.4253   18.4484 O   0  0  0  0  0  0  0  0  0  0  0  0
   23.2114   21.3137   18.9188 C   0  0  0  0  0  0  0  0  0  0  0  0
   23.6870   19.9172   18.7468 C   0  0  2  0  0  0  0  0  0  0  0  0
   25.1928   19.8197   18.9076 C   0  0  0  0  0  0  0  0  0  0  0  0
   23.3344   19.4233   17.3586 C   0  0  0  0  0  0  0  0  0  0  0  0
   23.0868   18.9228   19.7214 C   0  0  1  0  0  0  0  0  0  0  0  0
   21.7304   18.8315   19.3646 O   0  0  0  0  0  0  0  0  0  0  0  0
   23.7265   17.5990   19.4643 C   0  0  0  0  0  0  0  0  0  0  0  0
   23.1104   16.7172   18.8284 O   0  0  0  0  0  0  0  0  0  0  0  0
   25.0310   17.3582   19.9486 N   0  0  0  0  0  0  0  0  0  0  0  0
   25.6317   16.0611   19.8564 C   0  0  0  0  0  0  0  0  0  0  0  0
   25.7715   15.6762   18.4051 C   0  0  0  0  0  0  0  0  0  0  0  0
   27.1447   15.1360   18.1381 C   0  0  0  0  0  0  0  0  0  0  0  0
   28.0563   15.4040   18.9598 O   0  0  0  0  0  0  0  0  0  0  0  0
   27.4694   14.3403   17.0086 N   0  0  0  0  0  0  0  0  0  0  0  0
   28.8306   13.7883   16.8631 C   0  0  0  0  0  0  0  0  0  0  0  0
   29.8181   14.6396   17.6087 C   0  0  0  0  0  0  0  0  0  0  0  0
   31.1416   14.3510   17.1514 N   0  0  0  0  0  0  0  0  0  0  0  0
   31.4331   14.2588   15.7799 C   0  0  0  0  0  0  0  0  0  0  0  0
   30.5514   14.4738   14.9268 O   0  0  0  0  0  0  0  0  0  0  0  0
   32.8210   13.8984   15.3447 C   0  0  2  0  0  0  0  0  0  0  0  0
   33.4233   15.1039   14.6343 C   0  0  0  0  0  0  0  0  0  0  0  0
   32.7645   12.7614   14.4690 N   0  0  0  0  0  4  0  0  0  0  0  0
   31.7132   12.6120   13.6098 O   0  0  0  0  0  1  0  0  0  0  0  0
   33.6645   11.9160   14.4895 O   0  0  0  0  0  0  0  0  0  0  0  0
  1  2  2  0
  1  6  1  0
  2  3  1  0
  3  4  2  0
  4  5  1  0
  4 10  1  0
  5  6  2  0
  5  8  1  0
  6  7  1  0
  8  9  2  0
  9 10  1  0
 11 10  1  6
 11 12  1  0
 11 17  1  0
 12 13  1  1
 12 14  1  0
 14 15  1  1
 14 16  1  0
 15 21  1  0
 16 17  1  0
 16 18  1  6
 18 19  1  0
 19 24  1  0
 21 20  2  0
 21 22  1  6
 21 23  1  0
 24 25  1  6
 24 26  2  0
 24 27  1  0
 27 28  1  0
 28 29  2  0
 28 30  1  1
 28 31  1  0
 31 32  1  0
 32 33  1  0
 33 34  1  6
 33 35  1  0
 33 36  1  0
 36 37  1  6
 36 38  1  0
 38 39  2  0
 38 40  1  0
 40 41  1  0
 41 42  1  0
 42 43  1  0
 43 44  2  0
 43 45  1  0
 45 46  1  0
 46 47  1  0
 47 48  1  0
 48 49  1  0
 49 50  2  0
 49 51  1  0
 51 52  1  6
 51 53  1  0
 53 54  1  0
 53 55  2  0
M  CHG  2  53   1  54  -1
M  END
$$$$
