
     RDKit          3D

 55 57  0  0  0  0  0  0  0  0999 V2000
   21.2634   28.8523   22.0861 N   0  0  0  0  0  0  0  0  0  0  0  0
   20.8343   28.4476   20.8542 C   0  0  0  0  0  0  0  0  0  0  0  0
   20.5295   27.1653   20.5756 N   0  0  0  0  0  0  0  0  0  0  0  0
   20.6528   26.2468   21.5508 C   0  0  0  0  0  0  0  0  0  0  0  0
   21.0868   26.6512   22.7985 C   0  0  0  0  0  0  0  0  0  0  0  0
   21.3971   27.9622   23.0803 C   0  0  0  0  0  0  0  0  0  0  0  0
   21.8395   28.3645   24.3579 N   0  0  0  0  0  0  0  0  0  0  0  0
   21.1104   25.5368   23.5482 N   0  0  0  0  0  0  0  0  0  0  0  0
   20.7007   24.4961   22.7662 C   0  0  0  0  0  0  0  0  0  0  0  0
   20.4177   24.9406   21.5282 N   0  0  0  0  0  0  0  0  0  0  0  0
   19.9605   24.1494   20.4502 C   0  0  1  0  0  0  0  0  0  0  0  0
   20.9447   23.8060   19.3864 C   0  0  2  0  0  0  0  0  0  0  0  0
   20.9978   24.8635   18.4788 O   0  0  0  0  0  0  0  0  0  0  0  0
   20.2938   22.5629   18.7491 C   0  0  2  0  0  0  0  0  0  0  0  0
   20.0726   22.8741   17.4311 O   0  0  0  0  0  0  0  0  0  0  0  0
   19.0581   22.4317   19.5784 C   0  0  2  0  0  0  0  0  0  0  0  0
   19.5175   22.8653   20.8487 O   0  0  0  0  0  0  0  0  0  0  0  0
   18.4610   21.0707   19.6476 C   0  0  0  0  0  0  0  0  0  0  0  0
   18.9057   20.3290   20.7185 O   0  0  0  0  0  0  0  0  0  0  0  0
   18.4441   20.9754   16.7025 O   0  0  0  0  0  0  0  0  0  0  0  0
   18.4913   22.4500   17.0228 P   0  0  2  0  0  5  0  0  0  0  0  0
   18.0108   23.3978   15.7108 O   0  0  0  0  0  0  0  0  0  0  0  0
   17.4372   22.8209   18.3130 O   0  0  0  0  0  0  0  0  0  0  0  0
   19.7970   18.9727   20.2322 P   0  0  2  0  0  5  0  0  0  0  0  0
   19.1194   17.6495   21.0822 O   0  0  0  0  0  0  0  0  0  0  0  0
   21.2321   19.0707   20.6674 O   0  0  0  0  0  0  0  0  0  0  0  0
   19.7695   18.7457   18.5819 O   0  0  0  0  0  0  0  0  0  0  0  0
   21.2441   18.3533   17.9160 P   0  0  2  0  0  5  0  0  0  0  0  0
   21.0138   17.8556   16.5014 O   0  0  0  0  0  0  0  0  0  0  0  0
   22.0022   17.0882   18.7539 O   0  0  0  0  0  0  0  0  0  0  0  0
   22.2610   19.7038   17.8142 O   0  0  0  0  0  0  0  0  0  0  0  0
   23.3354   19.4650   16.9656 C   0  0  0  0  0  0  0  0  0  0  0  0
   24.1553   20.6969   16.8384 C   0  0  2  0  0  0  0  0  0  0  0  0
   23.4764   21.8858   17.4929 C   0  0  0  0  0  0  0  0  0  0  0  0
   24.3609   21.0265   15.3740 C   0  0  0  0  0  0  0  0  0  0  0  0
   25.5373   20.6000   17.4545 C   0  0  1  0  0  0  0  0  0  0  0  0
   25.3672   19.8328   18.6199 O   0  0  0  0  0  0  0  0  0  0  0  0
   26.3977   19.8284   16.5101 C   0  0  0  0  0  0  0  0  0  0  0  0
   27.4585   20.3271   16.0771 O   0  0  0  0  0  0  0  0  0  0  0  0
   25.9971   18.5335   16.1140 N   0  0  0  0  0  0  0  0  0  0  0  0
   26.7697   17.7676   15.1820 C   0  0  0  0  0  0  0  0  0  0  0  0
   28.2374   17.9732   15.4604 C   0  0  0  0  0  0  0  0  0  0  0  0
   28.8930   16.6672   15.7970 C   0  0  0  0  0  0  0  0  0  0  0  0
   28.2399   15.8341   16.4733 O   0  0  0  0  0  0  0  0  0  0  0  0
   30.2095   16.3227   15.3938 N   0  0  0  0  0  0  0  0  0  0  0  0
   30.5472   14.9149   15.1062 C   0  0  0  0  0  0  0  0  0  0  0  0
   31.9838   14.8019   14.6831 C   0  0  0  0  0  0  0  0  0  0  0  0
   32.5823   13.6679   15.3155 N   0  0  0  0  0  0  0  0  0  0  0  0
   32.1271   13.2060   16.5619 C   0  0  0  0  0  0  0  0  0  0  0  0
   31.4876   13.9564   17.3230 O   0  0  0  0  0  0  0  0  0  0  0  0
   32.4159   11.7946   16.9745 C   0  0  2  0  0  0  0  0  0  0  0  0
   32.5503   11.7620   18.4915 C   0  0  0  0  0  0  0  0  0  0  0  0
   33.6272   11.3528   16.3418 N   0  0  0  0  0  4  0  0  0  0  0  0
   34.8069   11.9893   16.6043 O   0  0  0  0  0  1  0  0  0  0  0  0
   33.6068   10.3975   15.5595 O   0  0  0  0  0  0  0  0  0  0  0  0
  1  2  2  0
  1  6  1  0
  2  3  1  0
  3  4  2  0
  4  5  1  0
  4 10  1  0
  5  6  2  0
  5  8  1  0
  6  7  1  0
  8  9  2  0
  9 10  1  0
 11 10  1  1
 11 12  1  0
 11 17  1  0
 12 13  1  6
 12 14  1  0
 14 15  1  6
 14 16  1  0
 15 21  1  0
 16 17  1  0
 16 18  1  1
 18 19  1  0
 19 24  1  0
 21 20  2  0
 21 22  1  6
 21 23  1  0
 24 25  1  1
 24 26  2  0
 24 27  1  0
 27 28  1  0
 28 29  2  0
 28 30  1  1
 28 31  1  0
 31 32  1  0
 32 33  1  0
 33 34  1  1
 33 35  1  0
 33 36  1  0
 36 37  1  1
 36 38  1  0
 38 39  2  0
 38 40  1  0
 40 41  1  0
 41 42  1  0
 42 43  1  0
 43 44  2  0
 43 45  1  0
 45 46  1  0
 46 47  1  0
 47 48  1  0
 48 49  1  0
 49 50  2  0
 49 51  1  0
 51 52  1  1
 51 53  1  0
 53 54  1  0
 53 55  2  0
M  CHG  2  53   1  54  -1
M  END
$$$$
