
     RDKit          3D

 55 57  0  0  0  0  0  0  0  0999 V2000
   17.4696   17.9529   23.7337 N   0  0  0  0  0  0  0  0  0  0  0  0
   18.5401   17.8201   22.8959 C   0  0  0  0  0  0  0  0  0  0  0  0
   18.4723   17.1469   21.7310 N   0  0  0  0  0  0  0  0  0  0  0  0
   17.3027   16.5829   21.3793 C   0  0  0  0  0  0  0  0  0  0  0  0
   16.2171   16.7142   22.2237 C   0  0  0  0  0  0  0  0  0  0  0  0
   16.2892   17.4031   23.4131 C   0  0  0  0  0  0  0  0  0  0  0  0
   15.1746   17.5310   24.2681 N   0  0  0  0  0  0  0  0  0  0  0  0
   15.2117   16.0601   21.6189 N   0  0  0  0  0  0  0  0  0  0  0  0
   15.6872   15.5528   20.4447 C   0  0  0  0  0  0  0  0  0  0  0  0
   16.9844   15.8794   20.2997 N   0  0  0  0  0  0  0  0  0  0  0  0
   17.8072   15.5311   19.2048 C   0  0  1  0  0  0  0  0  0  0  0  0
   17.3554   15.9481   17.8481 C   0  0  2  0  0  0  0  0  0  0  0  0
   16.4584   14.9930   17.3708 O   0  0  0  0  0  0  0  0  0  0  0  0
   18.6761   15.9111   17.0548 C   0  0  2  0  0  0  0  0  0  0  0  0
   18.4944   15.0033   16.0420 O   0  0  0  0  0  0  0  0  0  0  0  0
   19.6347   15.4817   18.1172 C   0  0  2  0  0  0  0  0  0  0  0  0
   19.0944   16.1170   19.2650 O   0  0  0  0  0  0  0  0  0  0  0  0
   21.0579   15.8585   17.9020 C   0  0  0  0  0  0  0  0  0  0  0  0
   21.2159   17.0273   17.1924 O   0  0  0  0  0  0  0  0  0  0  0  0
   16.6901   13.4637   17.1201 O   0  0  0  0  0  0  0  0  0  0  0  0
   18.1431   13.4946   16.7109 P   0  0  2  0  0  5  0  0  0  0  0  0
   19.1751   13.2440   18.0234 O   0  0  0  0  0  0  0  0  0  0  0  0
   18.4767   12.2629   15.5774 O   0  0  0  0  0  0  0  0  0  0  0  0
   22.4157   18.0223   17.8564 P   0  0  2  0  0  5  0  0  0  0  0  0
   22.5912   19.3248   16.7584 O   0  0  0  0  0  0  0  0  0  0  0  0
   23.7455   17.3242   17.9074 O   0  0  0  0  0  0  0  0  0  0  0  0
   22.0410   18.5384   19.3956 O   0  0  0  0  0  0  0  0  0  0  0  0
   23.0023   19.7748   19.9605 P   0  0  2  0  0  5  0  0  0  0  0  0
   23.4758   19.4143   21.3560 O   0  0  0  0  0  0  0  0  0  0  0  0
   22.1440   21.2308   20.1046 O   0  0  0  0  0  0  0  0  0  0  0  0
   24.3816   19.9806   18.9994 O   0  0  0  0  0  0  0  0  0  0  0  0
   25.0027   21.1963   19.2598 C   0  0  0  0  0  0  0  0  0  0  0  0
   25.5756   21.7441   18.0038 C   0  0  2  0  0  0  0  0  0  0  0  0
   26.6593   20.8395   17.4470 C   0  0  0  0  0  0  0  0  0  0  0  0
   26.1942   23.1008   18.2720 C   0  0  0  0  0  0  0  0  0  0  0  0
   24.5693   21.9444   16.8874 C   0  0  1  0  0  0  0  0  0  0  0  0
   23.7173   22.9667   17.3397 O   0  0  0  0  0  0  0  0  0  0  0  0
   25.3134   22.4507   15.6968 C   0  0  0  0  0  0  0  0  0  0  0  0
   26.0774   21.6906   15.0642 O   0  0  0  0  0  0  0  0  0  0  0  0
   25.1434   23.7947   15.2980 N   0  0  0  0  0  0  0  0  0  0  0  0
   26.1417   24.4748   14.5281 C   0  0  0  0  0  0  0  0  0  0  0  0
   25.6010   24.7631   13.1503 C   0  0  0  0  0  0  0  0  0  0  0  0
   26.4847   25.7424   12.4370 C   0  0  0  0  0  0  0  0  0  0  0  0
   27.5203   26.1424   13.0248 O   0  0  0  0  0  0  0  0  0  0  0  0
   26.2140   26.2413   11.1361 N   0  0  0  0  0  0  0  0  0  0  0  0
   24.8474   26.6722   10.7822 C   0  0  0  0  0  0  0  0  0  0  0  0
   24.2442   27.4618   11.9084 C   0  0  0  0  0  0  0  0  0  0  0  0
   23.5073   28.5666   11.3788 N   0  0  0  0  0  0  0  0  0  0  0  0
   22.1155   28.4936   11.2001 C   0  0  0  0  0  0  0  0  0  0  0  0
   21.3409   29.0234   12.0190 O   0  0  0  0  0  0  0  0  0  0  0  0
   21.5629   27.7704   10.0097 C   0  0  2  0  0  0  0  0  0  0  0  0
   21.0782   28.8092    9.0065 C   0  0  0  0  0  0  0  0  0  0  0  0
   20.4849   26.9190   10.4290 N   0  0  0  0  0  4  0  0  0  0  0  0
   19.2214   27.1330    9.9563 O   0  0  0  0  0  1  0  0  0  0  0  0
   20.6959   25.9918   11.2170 O   0  0  0  0  0  0  0  0  0  0  0  0
  1  2  2  0
  1  6  1  0
  2  3  1  0
  3  4  2  0
  4  5  1  0
  4 10  1  0
  5  6  2  0
  5  8  1  0
  6  7  1  0
  8  9  2  0
  9 10  1  0
 11 10  1  1
 11 12  1  0
 11 17  1  0
 12 13  1  6
 12 14  1  0
 14 15  1  6
 14 16  1  0
 15 21  1  0
 16 17  1  0
 16 18  1  6
 18 19  1  0
 19 24  1  0
 21 20  2  0
 21 22  1  1
 21 23  1  0
 24 25  1  6
 24 26  2  0
 24 27  1  0
 27 28  1  0
 28 29  2  0
 28 30  1  1
 28 31  1  0
 31 32  1  0
 32 33  1  0
 33 34  1  6
 33 35  1  0
 33 36  1  0
 36 37  1  1
 36 38  1  0
 38 39  2  0
 38 40  1  0
 40 41  1  0
 41 42  1  0
 42 43  1  0
 43 44  2  0
 43 45  1  0
 45 46  1  0
 46 47  1  0
 47 48  1  0
 48 49  1  0
 49 50  2  0
 49 51  1  0
 51 52  1  6
 51 53  1  0
 53 54  1  0
 53 55  2  0
M  CHG  2  53   1  54  -1
M  END
$$$$
