
     RDKit          3D

 55 57  0  0  0  0  0  0  0  0999 V2000
   31.8366   15.3288   14.9504 N   0  0  0  0  0  0  0  0  0  0  0  0
   31.2525   16.5623   14.8981 C   0  0  0  0  0  0  0  0  0  0  0  0
   30.0138   16.8007   15.3710 N   0  0  0  0  0  0  0  0  0  0  0  0
   29.3250   15.7822   15.9169 C   0  0  0  0  0  0  0  0  0  0  0  0
   29.9114   14.5326   15.9717 C   0  0  0  0  0  0  0  0  0  0  0  0
   31.1774   14.2921   15.4881 C   0  0  0  0  0  0  0  0  0  0  0  0
   31.7669   13.0120   15.5490 N   0  0  0  0  0  0  0  0  0  0  0  0
   29.0025   13.7357   16.5575 N   0  0  0  0  0  0  0  0  0  0  0  0
   27.9034   14.4922   16.8439 C   0  0  0  0  0  0  0  0  0  0  0  0
   28.1075   15.7609   16.4451 N   0  0  0  0  0  0  0  0  0  0  0  0
   27.1911   16.8280   16.5820 C   0  0  1  0  0  0  0  0  0  0  0  0
   27.1567   17.8457   15.4951 C   0  0  2  0  0  0  0  0  0  0  0  0
   28.1584   18.7844   15.7401 O   0  0  0  0  0  0  0  0  0  0  0  0
   25.7591   18.4646   15.6917 C   0  0  2  0  0  0  0  0  0  0  0  0
   25.9582   19.7988   15.9431 O   0  0  0  0  0  0  0  0  0  0  0  0
   25.2591   17.6747   16.8569 C   0  0  2  0  0  0  0  0  0  0  0  0
   25.8409   16.4039   16.6131 O   0  0  0  0  0  0  0  0  0  0  0  0
   23.7806   17.5823   16.9956 C   0  0  0  0  0  0  0  0  0  0  0  0
   23.1736   16.8984   15.9667 O   0  0  0  0  0  0  0  0  0  0  0  0
   24.9892   19.7903   13.5246 O   0  0  0  0  0  0  0  0  0  0  0  0
   25.7027   20.6714   14.5217 P   0  0  2  0  0  5  0  0  0  0  0  0
   27.2007   21.1945   13.9450 O   0  0  0  0  0  0  0  0  0  0  0  0
   24.7847   22.0713   14.8546 O   0  0  0  0  0  0  0  0  0  0  0  0
   21.7995   16.0524   16.4829 P   0  0  2  0  0  5  0  0  0  0  0  0
   21.6497   16.3963   18.1538 O   0  0  0  0  0  0  0  0  0  0  0  0
   21.9909   14.5663   16.3677 O   0  0  0  0  0  0  0  0  0  0  0  0
   20.4320   16.4674   15.6263 O   0  0  0  0  0  0  0  0  0  0  0  0
   20.0615   18.0901   15.6647 P   0  0  2  0  0  5  0  0  0  0  0  0
   18.5990   18.2564   15.2970 O   0  0  0  0  0  0  0  0  0  0  0  0
   20.9491   18.9710   14.5187 O   0  0  0  0  0  0  0  0  0  0  0  0
   20.2667   18.7396   17.2154 O   0  0  0  0  0  0  0  0  0  0  0  0
   20.1721   20.1261   17.1995 C   0  0  0  0  0  0  0  0  0  0  0  0
   20.3217   20.6531   18.5800 C   0  0  2  0  0  0  0  0  0  0  0  0
   18.9784   20.7798   19.2745 C   0  0  0  0  0  0  0  0  0  0  0  0
   20.9550   22.0288   18.5374 C   0  0  0  0  0  0  0  0  0  0  0  0
   21.1943   19.8069   19.4862 C   0  0  1  0  0  0  0  0  0  0  0  0
   22.5078   20.0164   19.0320 O   0  0  0  0  0  0  0  0  0  0  0  0
   21.0839   20.3649   20.8661 C   0  0  0  0  0  0  0  0  0  0  0  0
   21.8409   19.9544   21.7716 O   0  0  0  0  0  0  0  0  0  0  0  0
   20.1156   21.3577   21.1327 N   0  0  0  0  0  0  0  0  0  0  0  0
   20.0277   21.9862   22.4169 C   0  0  0  0  0  0  0  0  0  0  0  0
   19.6135   20.9654   23.4466 C   0  0  0  0  0  0  0  0  0  0  0  0
   19.3957   21.6238   24.7762 C   0  0  0  0  0  0  0  0  0  0  0  0
   20.2611   21.4522   25.6704 O   0  0  0  0  0  0  0  0  0  0  0  0
   18.2661   22.4282   25.0783 N   0  0  0  0  0  0  0  0  0  0  0  0
   18.3554   23.8969   24.9619 C   0  0  0  0  0  0  0  0  0  0  0  0
   19.5420   24.2798   24.1246 C   0  0  0  0  0  0  0  0  0  0  0  0
   19.7007   25.7006   24.1390 N   0  0  0  0  0  0  0  0  0  0  0  0
   18.6266   26.5491   24.4563 C   0  0  0  0  0  0  0  0  0  0  0  0
   18.1243   27.2898   23.5900 O   0  0  0  0  0  0  0  0  0  0  0  0
   18.0830   26.5582   25.8527 C   0  0  2  0  0  0  0  0  0  0  0  0
   18.6101   25.3249   26.5749 C   0  0  0  0  0  0  0  0  0  0  0  0
   16.6477   26.5510   25.8042 N   0  0  0  0  0  4  0  0  0  0  0  0
   15.9912   25.5531   25.1417 O   0  0  0  0  0  1  0  0  0  0  0  0
   16.0026   27.4454   26.3602 O   0  0  0  0  0  0  0  0  0  0  0  0
  1  2  2  0
  1  6  1  0
  2  3  1  0
  3  4  2  0
  4  5  1  0
  4 10  1  0
  5  6  2  0
  5  8  1  0
  6  7  1  0
  8  9  2  0
  9 10  1  0
 11 10  1  6
 11 12  1  0
 11 17  1  0
 12 13  1  1
 12 14  1  0
 14 15  1  1
 14 16  1  0
 15 21  1  0
 16 17  1  0
 16 18  1  6
 18 19  1  0
 19 24  1  0
 21 20  2  0
 21 22  1  6
 21 23  1  0
 24 25  1  1
 24 26  2  0
 24 27  1  0
 27 28  1  0
 28 29  2  0
 28 30  1  6
 28 31  1  0
 31 32  1  0
 32 33  1  0
 33 34  1  1
 33 35  1  0
 33 36  1  0
 36 37  1  6
 36 38  1  0
 38 39  2  0
 38 40  1  0
 40 41  1  0
 41 42  1  0
 42 43  1  0
 43 44  2  0
 43 45  1  0
 45 46  1  0
 46 47  1  0
 47 48  1  0
 48 49  1  0
 49 50  2  0
 49 51  1  0
 51 52  1  1
 51 53  1  0
 53 54  1  0
 53 55  2  0
M  CHG  2  53   1  54  -1
M  END
$$$$
