
     RDKit          3D

 55 57  0  0  0  0  0  0  0  0999 V2000
   24.7738  -24.2478   38.3453 N   0  0  0  0  0  0  0  0  0  0  0  0
   25.5947  -24.0307   37.2755 C   0  0  0  0  0  0  0  0  0  0  0  0
   26.7387  -24.7163   37.0862 N   0  0  0  0  0  0  0  0  0  0  0  0
   27.0860  -25.6525   37.9876 C   0  0  0  0  0  0  0  0  0  0  0  0
   26.2592  -25.8755   39.0716 C   0  0  0  0  0  0  0  0  0  0  0  0
   25.0905  -25.1737   39.2622 C   0  0  0  0  0  0  0  0  0  0  0  0
   24.2533  -25.4093   40.3728 N   0  0  0  0  0  0  0  0  0  0  0  0
   26.8547  -26.8471   39.7827 N   0  0  0  0  0  0  0  0  0  0  0  0
   28.0066  -27.1933   39.1379 C   0  0  0  0  0  0  0  0  0  0  0  0
   28.1463  -26.4502   38.0249 N   0  0  0  0  0  0  0  0  0  0  0  0
   29.2151  -26.5336   37.1042 C   0  0  1  0  0  0  0  0  0  0  0  0
   30.5898  -26.2981   37.6267 C   0  0  2  0  0  0  0  0  0  0  0  0
   30.8232  -24.9233   37.6459 O   0  0  0  0  0  0  0  0  0  0  0  0
   31.4536  -26.9905   36.5546 C   0  0  2  0  0  0  0  0  0  0  0  0
   32.2708  -26.0210   36.0301 O   0  0  0  0  0  0  0  0  0  0  0  0
   30.4007  -27.4948   35.6225 C   0  0  2  0  0  0  0  0  0  0  0  0
   29.3515  -27.8166   36.5217 O   0  0  0  0  0  0  0  0  0  0  0  0
   30.7791  -28.6631   34.7825 C   0  0  0  0  0  0  0  0  0  0  0  0
   31.4742  -29.6322   35.4697 O   0  0  0  0  0  0  0  0  0  0  0  0
   34.3663  -25.0002   37.1943 O   0  0  0  0  0  0  0  0  0  0  0  0
   33.8474  -26.2755   36.5747 P   0  0  2  0  0  5  0  0  0  0  0  0
   34.7879  -26.7690   35.2623 O   0  0  0  0  0  0  0  0  0  0  0  0
   33.8732  -27.5509   37.7088 O   0  0  0  0  0  0  0  0  0  0  0  0
   31.9036  -30.9371   34.4780 P   0  0  2  0  0  5  0  0  0  0  0  0
   32.3012  -32.2145   35.5469 O   0  0  0  0  0  0  0  0  0  0  0  0
   33.1451  -30.6417   33.6844 O   0  0  0  0  0  0  0  0  0  0  0  0
   30.6940  -31.3572   33.4120 O   0  0  0  0  0  0  0  0  0  0  0  0
   30.1301  -32.9136   33.5891 P   0  0  2  0  0  5  0  0  0  0  0  0
   28.9878  -32.8987   34.5874 O   0  0  0  0  0  0  0  0  0  0  0  0
   31.3132  -33.9485   34.2267 O   0  0  0  0  0  0  0  0  0  0  0  0
   29.5167  -33.5235   32.1329 O   0  0  0  0  0  0  0  0  0  0  0  0
   29.3488  -32.5141   31.1927 C   0  0  0  0  0  0  0  0  0  0  0  0
   30.1498  -32.8219   29.9803 C   0  0  2  0  0  0  0  0  0  0  0  0
   31.0791  -31.6766   29.6233 C   0  0  0  0  0  0  0  0  0  0  0  0
   29.2265  -33.0566   28.8023 C   0  0  0  0  0  0  0  0  0  0  0  0
   31.0193  -34.0585   30.0972 C   0  0  1  0  0  0  0  0  0  0  0  0
   30.7906  -34.7817   28.9139 O   0  0  0  0  0  0  0  0  0  0  0  0
   32.4425  -33.6089   30.1008 C   0  0  0  0  0  0  0  0  0  0  0  0
   33.2229  -34.0027   30.9937 O   0  0  0  0  0  0  0  0  0  0  0  0
   32.8920  -32.7355   29.0862 N   0  0  0  0  0  0  0  0  0  0  0  0
   34.2888  -32.5473   28.8307 C   0  0  0  0  0  0  0  0  0  0  0  0
   34.4631  -31.7609   27.5559 C   0  0  0  0  0  0  0  0  0  0  0  0
   35.9193  -31.5424   27.2722 C   0  0  0  0  0  0  0  0  0  0  0  0
   36.6878  -32.5347   27.3237 O   0  0  0  0  0  0  0  0  0  0  0  0
   36.4751  -30.2768   26.9498 N   0  0  0  0  0  0  0  0  0  0  0  0
   37.8438  -30.1908   26.4040 C   0  0  0  0  0  0  0  0  0  0  0  0
   38.6271  -31.4183   26.7719 C   0  0  0  0  0  0  0  0  0  0  0  0
   39.9356  -31.0399   27.2065 N   0  0  0  0  0  0  0  0  0  0  0  0
   41.0847  -31.6248   26.6482 C   0  0  0  0  0  0  0  0  0  0  0  0
   41.0477  -32.7790   26.1816 O   0  0  0  0  0  0  0  0  0  0  0  0
   42.3652  -30.8469   26.6156 C   0  0  2  0  0  0  0  0  0  0  0  0
   42.6594  -30.4783   25.1671 C   0  0  0  0  0  0  0  0  0  0  0  0
   43.4221  -31.6480   27.1667 N   0  0  0  0  0  4  0  0  0  0  0  0
   43.1521  -32.5472   28.1588 O   0  0  0  0  0  1  0  0  0  0  0  0
   44.5771  -31.5272   26.7464 O   0  0  0  0  0  0  0  0  0  0  0  0
  1  2  2  0
  1  6  1  0
  2  3  1  0
  3  4  2  0
  4  5  1  0
  4 10  1  0
  5  6  2  0
  5  8  1  0
  6  7  1  0
  8  9  2  0
  9 10  1  0
 11 10  1  1
 11 12  1  0
 11 17  1  0
 12 13  1  6
 12 14  1  0
 14 15  1  6
 14 16  1  0
 15 21  1  0
 16 17  1  0
 16 18  1  1
 18 19  1  0
 19 24  1  0
 21 20  2  0
 21 22  1  6
 21 23  1  0
 24 25  1  1
 24 26  2  0
 24 27  1  0
 27 28  1  0
 28 29  2  0
 28 30  1  1
 28 31  1  0
 31 32  1  0
 32 33  1  0
 33 34  1  6
 33 35  1  0
 33 36  1  0
 36 37  1  6
 36 38  1  0
 38 39  2  0
 38 40  1  0
 40 41  1  0
 41 42  1  0
 42 43  1  0
 43 44  2  0
 43 45  1  0
 45 46  1  0
 46 47  1  0
 47 48  1  0
 48 49  1  0
 49 50  2  0
 49 51  1  0
 51 52  1  6
 51 53  1  0
 53 54  1  0
 53 55  2  0
M  CHG  2  53   1  54  -1
M  END
$$$$
