
     RDKit          3D

 55 57  0  0  0  0  0  0  0  0999 V2000
   24.2253  -28.4251   32.4657 N   0  0  0  0  0  0  0  0  0  0  0  0
   24.6949  -29.7076   32.4538 C   0  0  0  0  0  0  0  0  0  0  0  0
   25.6746  -30.1305   33.2761 N   0  0  0  0  0  0  0  0  0  0  0  0
   26.2114  -29.2539   34.1438 C   0  0  0  0  0  0  0  0  0  0  0  0
   25.7399  -27.9554   34.1594 C   0  0  0  0  0  0  0  0  0  0  0  0
   24.7384  -27.5262   33.3183 C   0  0  0  0  0  0  0  0  0  0  0  0
   24.2643  -26.1978   33.3423 N   0  0  0  0  0  0  0  0  0  0  0  0
   26.4520  -27.3269   35.1093 N   0  0  0  0  0  0  0  0  0  0  0  0
   27.3248  -28.2288   35.6452 C   0  0  0  0  0  0  0  0  0  0  0  0
   27.1723  -29.4227   35.0438 N   0  0  0  0  0  0  0  0  0  0  0  0
   27.9013  -30.5966   35.3401 C   0  0  1  0  0  0  0  0  0  0  0  0
   27.1260  -31.8523   35.5414 C   0  0  2  0  0  0  0  0  0  0  0  0
   26.6873  -31.8906   36.8646 O   0  0  0  0  0  0  0  0  0  0  0  0
   28.2004  -32.9266   35.2840 C   0  0  2  0  0  0  0  0  0  0  0  0
   28.2990  -33.6605   36.4393 O   0  0  0  0  0  0  0  0  0  0  0  0
   29.3887  -32.0739   34.9794 C   0  0  2  0  0  0  0  0  0  0  0  0
   28.7903  -30.9776   34.3065 O   0  0  0  0  0  0  0  0  0  0  0  0
   30.4520  -32.7083   34.1544 C   0  0  0  0  0  0  0  0  0  0  0  0
   30.1887  -32.6822   32.8036 O   0  0  0  0  0  0  0  0  0  0  0  0
   26.2085  -35.1764   36.0932 O   0  0  0  0  0  0  0  0  0  0  0  0
   27.7165  -35.2182   36.1538 P   0  0  2  0  0  5  0  0  0  0  0  0
   28.2719  -36.2259   37.3893 O   0  0  0  0  0  0  0  0  0  0  0  0
   28.3623  -35.8232   34.6943 O   0  0  0  0  0  0  0  0  0  0  0  0
   30.8471  -34.0187   31.9968 P   0  0  2  0  0  5  0  0  0  0  0  0
   29.5246  -34.7866   31.2261 O   0  0  0  0  0  0  0  0  0  0  0  0
   31.4190  -35.0188   32.9617 O   0  0  0  0  0  0  0  0  0  0  0  0
   32.0454  -33.5915   30.9210 O   0  0  0  0  0  0  0  0  0  0  0  0
   31.6696  -32.2904   29.9527 P   0  0  2  0  0  5  0  0  0  0  0  0
   30.1595  -32.1561   29.8954 O   0  0  0  0  0  0  0  0  0  0  0  0
   32.1938  -32.5159   28.3553 O   0  0  0  0  0  0  0  0  0  0  0  0
   32.2789  -30.8437   30.5887 O   0  0  0  0  0  0  0  0  0  0  0  0
   33.5699  -31.0095   31.0758 C   0  0  0  0  0  0  0  0  0  0  0  0
   34.0568  -29.7280   31.6474 C   0  0  2  0  0  0  0  0  0  0  0  0
   33.1237  -29.2114   32.7267 C   0  0  0  0  0  0  0  0  0  0  0  0
   34.1349  -28.6780   30.5581 C   0  0  0  0  0  0  0  0  0  0  0  0
   35.4362  -29.8011   32.2726 C   0  0  1  0  0  0  0  0  0  0  0  0
   36.1198  -30.7871   31.5405 O   0  0  0  0  0  0  0  0  0  0  0  0
   36.1093  -28.4910   32.0313 C   0  0  0  0  0  0  0  0  0  0  0  0
   35.6828  -27.4549   32.5846 O   0  0  0  0  0  0  0  0  0  0  0  0
   37.2288  -28.4393   31.1721 N   0  0  0  0  0  0  0  0  0  0  0  0
   38.0920  -27.2965   31.1420 C   0  0  0  0  0  0  0  0  0  0  0  0
   39.4814  -27.7289   30.7466 C   0  0  0  0  0  0  0  0  0  0  0  0
   40.1348  -26.6770   29.9009 C   0  0  0  0  0  0  0  0  0  0  0  0
   40.1115  -26.8218   28.6533 O   0  0  0  0  0  0  0  0  0  0  0  0
   40.7776  -25.5290   30.4333 N   0  0  0  0  0  0  0  0  0  0  0  0
   41.4859  -24.5976   29.5336 C   0  0  0  0  0  0  0  0  0  0  0  0
   40.5016  -23.8568   28.6745 C   0  0  0  0  0  0  0  0  0  0  0  0
   40.9413  -22.5082   28.4952 N   0  0  0  0  0  0  0  0  0  0  0  0
   41.6174  -21.8217   29.5180 C   0  0  0  0  0  0  0  0  0  0  0  0
   41.9496  -22.4084   30.5652 O   0  0  0  0  0  0  0  0  0  0  0  0
   41.9403  -20.3691   29.3413 C   0  0  2  0  0  0  0  0  0  0  0  0
   43.2844  -20.2649   28.6319 C   0  0  0  0  0  0  0  0  0  0  0  0
   41.9877  -19.7327   30.6279 N   0  0  0  0  0  4  0  0  0  0  0  0
   40.8815  -19.0990   31.1181 O   0  0  0  0  0  1  0  0  0  0  0  0
   43.0269  -19.7561   31.2947 O   0  0  0  0  0  0  0  0  0  0  0  0
  1  2  2  0
  1  6  1  0
  2  3  1  0
  3  4  2  0
  4  5  1  0
  4 10  1  0
  5  6  2  0
  5  8  1  0
  6  7  1  0
  8  9  2  0
  9 10  1  0
 11 10  1  6
 11 12  1  0
 11 17  1  0
 12 13  1  1
 12 14  1  0
 14 15  1  1
 14 16  1  0
 15 21  1  0
 16 17  1  0
 16 18  1  6
 18 19  1  0
 19 24  1  0
 21 20  2  0
 21 22  1  1
 21 23  1  0
 24 25  1  6
 24 26  2  0
 24 27  1  0
 27 28  1  0
 28 29  2  0
 28 30  1  6
 28 31  1  0
 31 32  1  0
 32 33  1  0
 33 34  1  1
 33 35  1  0
 33 36  1  0
 36 37  1  6
 36 38  1  0
 38 39  2  0
 38 40  1  0
 40 41  1  0
 41 42  1  0
 42 43  1  0
 43 44  2  0
 43 45  1  0
 45 46  1  0
 46 47  1  0
 47 48  1  0
 48 49  1  0
 49 50  2  0
 49 51  1  0
 51 52  1  1
 51 53  1  0
 53 54  1  0
 53 55  2  0
M  CHG  2  53   1  54  -1
M  END
$$$$
