
     RDKit          3D

 41 44  0  0  0  0  0  0  0  0999 V2000
   70.8502   57.3581   14.8797 C   0  0  1  0  0  0  0  0  0  0  0  0
   70.9820   57.8778   16.2979 C   0  0  2  0  0  0  0  0  0  0  0  0
   72.5797   58.7293   17.9637 C   0  0  0  0  0  0  0  0  0  0  0  0
   74.5430   59.0831   19.4098 C   0  0  1  0  0  0  0  0  0  0  0  0
   75.9711   59.5114   19.2306 C   0  0  0  0  0  0  0  0  0  0  0  0
   74.8459   61.3172   19.9760 C   0  0  1  0  0  0  0  0  0  0  0  0
   72.6966   61.6577   19.4114 C   0  0  0  0  0  0  0  0  0  0  0  0
   70.1649   59.1618   16.3718 C   0  0  0  0  0  0  0  0  0  0  0  0
   66.7902   51.1417   13.9001 C   0  0  0  0  0  0  0  0  0  0  0  0
   68.0381   50.7034   14.3044 C   0  0  0  0  0  0  0  0  0  0  0  0
   68.8666   51.5796   14.9950 C   0  0  0  0  0  0  0  0  0  0  0  0
   68.4973   52.8592   15.2917 C   0  0  0  0  0  0  0  0  0  0  0  0
   67.2554   53.2933   14.8889 C   0  0  0  0  0  0  0  0  0  0  0  0
   66.3899   52.4409   14.1896 C   0  0  0  0  0  0  0  0  0  0  0  0
   71.2559   54.4098   14.1552 C   0  0  0  0  0  0  0  0  0  0  0  0
   69.8261   56.2193   14.8264 C   0  0  0  0  0  0  0  0  0  0  0  0
   74.1019   60.1064   20.4699 C   0  0  1  0  0  0  0  0  0  0  0  0
   72.6499   60.4345   20.3045 C   0  0  0  0  0  0  0  0  0  0  0  0
   69.7049   59.4383   17.7391 C   0  0  0  0  0  0  0  0  0  0  0  0
   69.8007   60.6797   18.3123 C   0  0  0  0  0  0  0  0  0  0  0  0
   69.3600   60.9235   19.6153 C   0  0  0  0  0  0  0  0  0  0  0  0
   68.8110   59.8974   20.3577 C   0  0  0  0  0  0  0  0  0  0  0  0
   68.7139   58.6513   19.7828 C   0  0  0  0  0  0  0  0  0  0  0  0
   69.1539   58.4196   18.4893 C   0  0  0  0  0  0  0  0  0  0  0  0
   65.6813   50.7876   11.7649 C   0  0  0  0  0  0  0  0  0  0  0  0
   73.1673   54.1188   11.8948 C   0  0  0  0  0  0  0  0  0  0  0  0
   72.7364   54.6087   14.2854 C   0  0  2  0  0  0  0  0  0  0  0  0
   73.4825   53.6780   13.2998 C   0  0  0  0  0  0  0  0  0  0  0  0
   73.1899   54.3357   15.6841 C   0  0  0  0  0  0  0  0  0  0  0  0
   65.8687   50.2137   13.1613 C   0  0  1  0  0  0  0  0  0  0  0  0
   70.4347   54.9655   15.1453 N   0  0  0  0  0  0  0  0  0  0  0  0
   72.3239   58.1695   16.6823 N   0  0  0  0  0  0  0  0  0  0  0  0
   68.5746   54.8745   16.9362 O   0  0  0  0  0  0  0  0  0  0  0  0
   70.2833   53.2168   17.1984 O   0  0  0  0  0  0  0  0  0  0  0  0
   70.2387   58.4030   14.1480 O   0  0  0  0  0  0  0  0  0  0  0  0
   71.7090   58.6326   18.8792 O   0  0  0  0  0  0  0  0  0  0  0  0
   73.7530   59.3853   18.2605 O   0  0  0  0  0  0  0  0  0  0  0  0
   76.0178   60.8853   19.3824 O   0  0  0  0  0  0  0  0  0  0  0  0
   74.0110   61.7845   18.9615 O   0  0  0  0  0  0  0  0  0  0  0  0
   66.4814   48.9571   12.9673 O   0  0  0  0  0  0  0  0  0  0  0  0
   69.5334   53.9673   16.1571 S   0  0  1  0  0  6  0  0  0  0  0  0
  1  2  1  0
 16  1  1  0
  1 35  1  6
  2  8  1  6
  2 32  1  0
 32  3  1  0
  3 36  2  0
  3 37  1  0
  4  5  1  0
  4 17  1  0
  4 37  1  6
  5 38  1  0
 17  6  1  0
  6 38  1  6
  6 39  1  0
 18  7  1  0
  7 39  1  0
  8 19  1  0
 10  9  2  0
 14  9  1  0
  9 30  1  0
 11 10  1  0
 12 11  2  0
 12 13  1  0
 41 12  1  0
 13 14  2  0
 15 27  1  0
 31 15  1  0
 31 16  1  0
 17 18  1  6
 19 20  2  0
 19 24  1  0
 20 21  1  0
 21 22  2  0
 23 22  1  0
 24 23  2  0
 30 25  1  6
 28 26  1  0
 27 28  1  0
 27 29  1  1
 30 40  1  0
 41 31  1  6
 41 33  2  0
 41 34  2  0
M  END
$$$$
