
     RDKit          3D

 41 44  0  0  0  0  0  0  0  0999 V2000
   70.5964   57.2102   15.0392 C   0  0  1  0  0  0  0  0  0  0  0  0
   70.2882   57.3673   16.5154 C   0  0  2  0  0  0  0  0  0  0  0  0
   72.1903   58.8676   16.9443 C   0  0  0  0  0  0  0  0  0  0  0  0
   73.6357   59.2070   18.9107 C   0  0  1  0  0  0  0  0  0  0  0  0
   75.0699   59.5653   18.6468 C   0  0  0  0  0  0  0  0  0  0  0  0
   74.1455   61.3361   19.6921 C   0  0  1  0  0  0  0  0  0  0  0  0
   71.9852   61.8714   19.3739 C   0  0  0  0  0  0  0  0  0  0  0  0
   69.2426   58.4698   16.6299 C   0  0  0  0  0  0  0  0  0  0  0  0
   67.1775   51.6185   13.0541 C   0  0  0  0  0  0  0  0  0  0  0  0
   67.1457   52.9348   12.6307 C   0  0  0  0  0  0  0  0  0  0  0  0
   67.7487   53.9084   13.4179 C   0  0  0  0  0  0  0  0  0  0  0  0
   68.3733   53.6172   14.5955 C   0  0  0  0  0  0  0  0  0  0  0  0
   68.4041   52.3071   15.0149 C   0  0  0  0  0  0  0  0  0  0  0  0
   67.8072   51.2953   14.2503 C   0  0  0  0  0  0  0  0  0  0  0  0
   71.5034   53.6049   15.4166 C   0  0  0  0  0  0  0  0  0  0  0  0
   71.3930   55.9234   14.7989 C   0  0  0  0  0  0  0  0  0  0  0  0
   73.3622   60.1232   20.1153 C   0  0  1  0  0  0  0  0  0  0  0  0
   71.9286   60.5566   20.1250 C   0  0  0  0  0  0  0  0  0  0  0  0
   68.9187   58.7717   18.0305 C   0  0  0  0  0  0  0  0  0  0  0  0
   68.7490   57.7934   18.9753 C   0  0  0  0  0  0  0  0  0  0  0  0
   68.4387   58.0994   20.3026 C   0  0  0  0  0  0  0  0  0  0  0  0
   68.2963   59.4172   20.6880 C   0  0  0  0  0  0  0  0  0  0  0  0
   68.4670   60.3998   19.7403 C   0  0  0  0  0  0  0  0  0  0  0  0
   68.7748   60.0859   18.4261 C   0  0  0  0  0  0  0  0  0  0  0  0
   65.3704   49.9916   13.0153 C   0  0  0  0  0  0  0  0  0  0  0  0
   73.6151   53.4614   12.9625 C   0  0  0  0  0  0  0  0  0  0  0  0
   73.0007   53.6579   15.3551 C   0  0  2  0  0  0  0  0  0  0  0  0
   73.5180   52.6982   14.2570 C   0  0  0  0  0  0  0  0  0  0  0  0
   73.6018   53.2912   16.6745 C   0  0  0  0  0  0  0  0  0  0  0  0
   66.5435   50.5430   12.2189 C   0  0  1  0  0  0  0  0  0  0  0  0
   70.8118   54.8207   15.4993 N   0  0  0  0  0  0  0  0  0  0  0  0
   71.4193   57.7290   17.3050 N   0  0  0  0  0  0  0  0  0  0  0  0
   68.6658   56.1708   15.0018 O   0  0  0  0  0  0  0  0  0  0  0  0
   68.5353   54.7877   16.9527 O   0  0  0  0  0  0  0  0  0  0  0  0
   69.3508   56.9634   14.4158 O   0  0  0  0  0  0  0  0  0  0  0  0
   72.3601   59.1525   15.7213 O   0  0  0  0  0  0  0  0  0  0  0  0
   72.7729   59.6902   17.8818 O   0  0  0  0  0  0  0  0  0  0  0  0
   75.2277   60.9064   18.9462 O   0  0  0  0  0  0  0  0  0  0  0  0
   73.2615   61.9698   18.8193 O   0  0  0  0  0  0  0  0  0  0  0  0
   65.9736   51.0934   11.0509 O   0  0  0  0  0  0  0  0  0  0  0  0
   69.1314   54.8350   15.5917 S   0  0  1  0  0  6  0  0  0  0  0  0
  1  2  1  0
 16  1  1  0
  1 35  1  6
  2  8  1  6
  2 32  1  0
 32  3  1  0
  3 36  2  0
  3 37  1  0
  4  5  1  0
  4 17  1  0
  4 37  1  6
  5 38  1  0
 17  6  1  0
  6 38  1  6
  6 39  1  0
 18  7  1  0
  7 39  1  0
  8 19  1  0
 10  9  2  0
 14  9  1  0
  9 30  1  0
 11 10  1  0
 12 11  2  0
 12 13  1  0
 41 12  1  0
 13 14  2  0
 15 27  1  0
 31 15  1  0
 31 16  1  0
 17 18  1  6
 19 20  2  0
 19 24  1  0
 20 21  1  0
 21 22  2  0
 23 22  1  0
 24 23  2  0
 30 25  1  1
 28 26  1  0
 27 28  1  0
 27 29  1  1
 30 40  1  0
 41 31  1  1
 41 33  2  0
 41 34  2  0
M  END
$$$$
