
     RDKit          3D

 41 44  0  0  0  0  0  0  0  0999 V2000
   70.9953   57.3150   15.5389 C   0  0  1  0  0  0  0  0  0  0  0  0
   70.8234   58.0578   16.8494 C   0  0  2  0  0  0  0  0  0  0  0  0
   72.6732   58.8061   18.2886 C   0  0  0  0  0  0  0  0  0  0  0  0
   74.6641   59.3268   19.6435 C   0  0  1  0  0  0  0  0  0  0  0  0
   76.0012   59.9915   19.4838 C   0  0  0  0  0  0  0  0  0  0  0  0
   74.5763   61.5783   20.2149 C   0  0  1  0  0  0  0  0  0  0  0  0
   72.4080   61.5509   19.6215 C   0  0  0  0  0  0  0  0  0  0  0  0
   69.5103   58.8244   16.7497 C   0  0  0  0  0  0  0  0  0  0  0  0
   67.4417   50.9507   13.1782 C   0  0  0  0  0  0  0  0  0  0  0  0
   67.0193   51.9197   14.0701 C   0  0  0  0  0  0  0  0  0  0  0  0
   67.6681   53.1485   14.0839 C   0  0  0  0  0  0  0  0  0  0  0  0
   68.7083   53.4389   13.2500 C   0  0  0  0  0  0  0  0  0  0  0  0
   69.1269   52.4737   12.3633 C   0  0  0  0  0  0  0  0  0  0  0  0
   68.4995   51.2211   12.3181 C   0  0  0  0  0  0  0  0  0  0  0  0
   72.0249   55.0852   14.2309 C   0  0  0  0  0  0  0  0  0  0  0  0
   70.2548   55.9743   15.5895 C   0  0  0  0  0  0  0  0  0  0  0  0
   74.0419   60.2574   20.6980 C   0  0  1  0  0  0  0  0  0  0  0  0
   72.5576   60.3350   20.5132 C   0  0  0  0  0  0  0  0  0  0  0  0
   69.0584   59.3063   18.0616 C   0  0  0  0  0  0  0  0  0  0  0  0
   68.5778   58.4644   19.0307 C   0  0  0  0  0  0  0  0  0  0  0  0
   68.1500   58.9411   20.2721 C   0  0  0  0  0  0  0  0  0  0  0  0
   68.2070   60.2930   20.5452 C   0  0  0  0  0  0  0  0  0  0  0  0
   68.6898   61.1386   19.5732 C   0  0  0  0  0  0  0  0  0  0  0  0
   69.1118   60.6558   18.3447 C   0  0  0  0  0  0  0  0  0  0  0  0
   65.7690   49.5820   14.2931 C   0  0  0  0  0  0  0  0  0  0  0  0
   75.0874   53.0110   15.1272 C   0  0  0  0  0  0  0  0  0  0  0  0
   72.8526   54.0684   14.9584 C   0  0  2  0  0  0  0  0  0  0  0  0
   74.2743   54.0124   14.3502 C   0  0  0  0  0  0  0  0  0  0  0  0
   72.2173   52.7163   14.8903 C   0  0  0  0  0  0  0  0  0  0  0  0
   66.7526   49.6168   13.1330 C   0  0  1  0  0  0  0  0  0  0  0  0
   70.6521   55.1266   14.5088 N   0  0  0  0  0  0  0  0  0  0  0  0
   71.8711   58.9841   17.1285 N   0  0  0  0  0  0  0  0  0  0  0  0
   70.3194   55.0148   11.9491 O   0  0  0  0  0  0  0  0  0  0  0  0
   68.5245   56.0668   13.1357 O   0  0  0  0  0  0  0  0  0  0  0  0
   70.2773   58.0668   14.5796 O   0  0  0  0  0  0  0  0  0  0  0  0
   72.3095   57.9904   19.1875 O   0  0  0  0  0  0  0  0  0  0  0  0
   73.8496   59.4938   18.4838 O   0  0  0  0  0  0  0  0  0  0  0  0
   75.8122   61.3531   19.6369 O   0  0  0  0  0  0  0  0  0  0  0  0
   73.6876   61.9000   19.1894 O   0  0  0  0  0  0  0  0  0  0  0  0
   65.9598   49.5073   11.9704 O   0  0  0  0  0  0  0  0  0  0  0  0
   69.5305   54.9797   13.2627 S   0  0  1  0  0  6  0  0  0  0  0  0
  1  2  1  0
 16  1  1  0
  1 35  1  6
  2  8  1  6
  2 32  1  0
 32  3  1  0
  3 36  2  0
  3 37  1  0
  4  5  1  0
  4 17  1  0
  4 37  1  6
  5 38  1  0
 17  6  1  0
  6 38  1  6
  6 39  1  0
 18  7  1  0
  7 39  1  0
  8 19  1  0
 10  9  2  0
 14  9  1  0
  9 30  1  0
 11 10  1  0
 12 11  2  0
 12 13  1  0
 41 12  1  0
 13 14  2  0
 15 27  1  0
 31 15  1  0
 31 16  1  0
 17 18  1  6
 19 20  2  0
 19 24  1  0
 20 21  1  0
 21 22  2  0
 23 22  1  0
 24 23  2  0
 30 25  1  1
 28 26  1  0
 27 28  1  0
 27 29  1  6
 30 40  1  0
 41 31  1  1
 41 33  2  0
 41 34  2  0
M  END
$$$$
