
     RDKit          3D

 41 44  0  0  0  0  0  0  0  0999 V2000
   71.0942   56.8509   16.1017 C   0  0  1  0  0  0  0  0  0  0  0  0
   70.6323   57.5508   17.3649 C   0  0  2  0  0  0  0  0  0  0  0  0
   72.9150   58.2293   17.9827 C   0  0  0  0  0  0  0  0  0  0  0  0
   74.5309   59.3606   19.4591 C   0  0  1  0  0  0  0  0  0  0  0  0
   75.6201   60.2941   19.0147 C   0  0  0  0  0  0  0  0  0  0  0  0
   74.1496   61.5336   20.1911 C   0  0  1  0  0  0  0  0  0  0  0  0
   71.9519   61.0608   20.1628 C   0  0  0  0  0  0  0  0  0  0  0  0
   70.1628   58.9397   16.9496 C   0  0  0  0  0  0  0  0  0  0  0  0
   67.0050   50.9131   13.2985 C   0  0  0  0  0  0  0  0  0  0  0  0
   67.7199   50.6996   14.4631 C   0  0  0  0  0  0  0  0  0  0  0  0
   68.2517   51.7937   15.1349 C   0  0  0  0  0  0  0  0  0  0  0  0
   68.0962   53.0745   14.6908 C   0  0  0  0  0  0  0  0  0  0  0  0
   67.3845   53.2848   13.5323 C   0  0  0  0  0  0  0  0  0  0  0  0
   66.8324   52.2082   12.8245 C   0  0  0  0  0  0  0  0  0  0  0  0
   70.9061   54.8504   13.9717 C   0  0  0  0  0  0  0  0  0  0  0  0
   71.1159   55.3336   16.3152 C   0  0  0  0  0  0  0  0  0  0  0  0
   74.0335   60.1222   20.6991 C   0  0  1  0  0  0  0  0  0  0  0  0
   72.5678   59.8890   20.9002 C   0  0  0  0  0  0  0  0  0  0  0  0
   69.4076   59.6036   18.0204 C   0  0  0  0  0  0  0  0  0  0  0  0
   69.1902   59.0189   19.2409 C   0  0  0  0  0  0  0  0  0  0  0  0
   68.4673   59.6646   20.2468 C   0  0  0  0  0  0  0  0  0  0  0  0
   67.9523   60.9252   20.0208 C   0  0  0  0  0  0  0  0  0  0  0  0
   68.1706   61.5130   18.7963 C   0  0  0  0  0  0  0  0  0  0  0  0
   68.8892   60.8641   17.8048 C   0  0  0  0  0  0  0  0  0  0  0  0
   65.1731   49.3140   13.3279 C   0  0  0  0  0  0  0  0  0  0  0  0
   73.9507   52.5844   13.7263 C   0  0  0  0  0  0  0  0  0  0  0  0
   72.3271   54.4563   13.6998 C   0  0  2  0  0  0  0  0  0  0  0  0
   72.4903   52.9261   13.8614 C   0  0  0  0  0  0  0  0  0  0  0  0
   73.2637   55.1675   14.6235 C   0  0  0  0  0  0  0  0  0  0  0  0
   66.4094   49.7508   12.5565 C   0  0  1  0  0  0  0  0  0  0  0  0
   70.4138   54.6573   15.2693 N   0  0  0  0  0  0  0  0  0  0  0  0
   71.6520   57.6912   18.3518 N   0  0  0  0  0  0  0  0  0  0  0  0
   68.0640   55.6677   14.9046 O   0  0  0  0  0  0  0  0  0  0  0  0
   68.3048   54.4317   16.9418 O   0  0  0  0  0  0  0  0  0  0  0  0
   70.0593   57.0492   15.1580 O   0  0  0  0  0  0  0  0  0  0  0  0
   73.6118   57.6514   17.0961 O   0  0  0  0  0  0  0  0  0  0  0  0
   73.4255   59.3716   18.5567 O   0  0  0  0  0  0  0  0  0  0  0  0
   75.2109   61.5827   19.3060 O   0  0  0  0  0  0  0  0  0  0  0  0
   72.9784   61.6782   19.4479 O   0  0  0  0  0  0  0  0  0  0  0  0
   65.9331   50.1609   11.2927 O   0  0  0  0  0  0  0  0  0  0  0  0
   68.7632   54.4545   15.5279 S   0  0  1  0  0  6  0  0  0  0  0  0
  1  2  1  0
 16  1  1  0
  1 35  1  6
  2  8  1  6
  2 32  1  0
 32  3  1  0
  3 36  2  0
  3 37  1  0
  4  5  1  0
  4 17  1  0
  4 37  1  6
  5 38  1  0
 17  6  1  0
  6 38  1  6
  6 39  1  0
 18  7  1  0
  7 39  1  0
  8 19  1  0
 10  9  2  0
 14  9  1  0
  9 30  1  0
 11 10  1  0
 12 11  2  0
 12 13  1  0
 41 12  1  0
 13 14  2  0
 15 27  1  0
 31 15  1  0
 31 16  1  0
 17 18  1  6
 19 20  2  0
 19 24  1  0
 20 21  1  0
 21 22  2  0
 23 22  1  0
 24 23  2  0
 30 25  1  1
 28 26  1  0
 27 28  1  0
 27 29  1  1
 30 40  1  0
 41 31  1  1
 41 33  2  0
 41 34  2  0
M  END
$$$$
