
     RDKit          3D

 41 44  0  0  0  0  0  0  0  0999 V2000
   70.7010   56.9765   15.2472 C   0  0  1  0  0  0  0  0  0  0  0  0
   70.8910   57.6867   16.5732 C   0  0  2  0  0  0  0  0  0  0  0  0
   72.5600   58.7283   18.0505 C   0  0  0  0  0  0  0  0  0  0  0  0
   74.4637   59.5595   19.3756 C   0  0  1  0  0  0  0  0  0  0  0  0
   75.7164   60.3647   19.1824 C   0  0  0  0  0  0  0  0  0  0  0  0
   74.1007   61.8201   19.7773 C   0  0  1  0  0  0  0  0  0  0  0  0
   71.9630   61.4931   19.1627 C   0  0  0  0  0  0  0  0  0  0  0  0
   69.9912   58.9161   16.5448 C   0  0  0  0  0  0  0  0  0  0  0  0
   67.0950   51.6635   13.4471 C   0  0  0  0  0  0  0  0  0  0  0  0
   68.0771   51.1311   14.2625 C   0  0  0  0  0  0  0  0  0  0  0  0
   68.9049   51.9952   14.9691 C   0  0  0  0  0  0  0  0  0  0  0  0
   68.7874   53.3523   14.8909 C   0  0  0  0  0  0  0  0  0  0  0  0
   67.8096   53.8801   14.0795 C   0  0  0  0  0  0  0  0  0  0  0  0
   66.9545   53.0429   13.3497 C   0  0  0  0  0  0  0  0  0  0  0  0
   71.7550   53.7771   14.0417 C   0  0  0  0  0  0  0  0  0  0  0  0
   71.8335   55.9698   15.0190 C   0  0  0  0  0  0  0  0  0  0  0  0
   73.7154   60.4837   20.3509 C   0  0  1  0  0  0  0  0  0  0  0  0
   72.2363   60.3712   20.1438 C   0  0  0  0  0  0  0  0  0  0  0  0
   69.4263   59.2099   17.8685 C   0  0  0  0  0  0  0  0  0  0  0  0
   69.2742   60.4887   18.3378 C   0  0  0  0  0  0  0  0  0  0  0  0
   68.7371   60.7490   19.6008 C   0  0  0  0  0  0  0  0  0  0  0  0
   68.3442   59.7012   20.4090 C   0  0  0  0  0  0  0  0  0  0  0  0
   68.4959   58.4174   19.9384 C   0  0  0  0  0  0  0  0  0  0  0  0
   69.0299   58.1696   18.6839 C   0  0  0  0  0  0  0  0  0  0  0  0
   64.8224   50.8015   13.3679 C   0  0  0  0  0  0  0  0  0  0  0  0
   73.0939   51.3734   14.1112 C   0  0  0  0  0  0  0  0  0  0  0  0
   73.2011   53.8051   13.6461 C   0  0  2  0  0  0  0  0  0  0  0  0
   73.6424   52.4040   13.1600 C   0  0  0  0  0  0  0  0  0  0  0  0
   74.0588   54.2387   14.7919 C   0  0  0  0  0  0  0  0  0  0  0  0
   66.1783   50.7542   12.6796 C   0  0  1  0  0  0  0  0  0  0  0  0
   71.3471   54.6266   15.0786 N   0  0  0  0  0  0  0  0  0  0  0  0
   72.2316   58.1094   16.8136 N   0  0  0  0  0  0  0  0  0  0  0  0
   69.1297   55.8078   15.6815 O   0  0  0  0  0  0  0  0  0  0  0  0
   69.7860   54.0909   17.2168 O   0  0  0  0  0  0  0  0  0  0  0  0
   69.5519   56.1680   15.4112 O   0  0  0  0  0  0  0  0  0  0  0  0
   71.8274   58.5353   19.0662 O   0  0  0  0  0  0  0  0  0  0  0  0
   73.6588   59.5445   18.1974 O   0  0  0  0  0  0  0  0  0  0  0  0
   75.3659   61.7018   19.2319 O   0  0  0  0  0  0  0  0  0  0  0  0
   73.2013   61.9593   18.7207 O   0  0  0  0  0  0  0  0  0  0  0  0
   65.9533   51.2582   11.3806 O   0  0  0  0  0  0  0  0  0  0  0  0
   69.8251   54.4451   15.7736 S   0  0  1  0  0  6  0  0  0  0  0  0
  1  2  1  0
 16  1  1  0
  1 35  1  1
  2  8  1  6
  2 32  1  0
 32  3  1  0
  3 36  2  0
  3 37  1  0
  4  5  1  0
  4 17  1  0
  4 37  1  6
  5 38  1  0
 17  6  1  0
  6 38  1  6
  6 39  1  0
 18  7  1  0
  7 39  1  0
  8 19  1  0
 10  9  2  0
 14  9  1  0
  9 30  1  0
 11 10  1  0
 12 11  2  0
 12 13  1  0
 41 12  1  0
 13 14  2  0
 15 27  1  0
 31 15  1  0
 31 16  1  0
 17 18  1  6
 19 20  2  0
 19 24  1  0
 20 21  1  0
 21 22  2  0
 23 22  1  0
 24 23  2  0
 30 25  1  1
 28 26  1  0
 27 28  1  0
 27 29  1  1
 30 40  1  0
 41 31  1  6
 41 33  2  0
 41 34  2  0
M  END
$$$$
