
     RDKit          3D

 41 44  0  0  0  0  0  0  0  0999 V2000
   71.3266   57.2831   14.9896 C   0  0  1  0  0  0  0  0  0  0  0  0
   70.9860   57.8264   16.3635 C   0  0  2  0  0  0  0  0  0  0  0  0
   72.7336   58.7301   17.8407 C   0  0  0  0  0  0  0  0  0  0  0  0
   74.5994   59.5119   19.2472 C   0  0  1  0  0  0  0  0  0  0  0  0
   75.9172   60.1661   18.9461 C   0  0  0  0  0  0  0  0  0  0  0  0
   74.5879   61.7656   19.8165 C   0  0  1  0  0  0  0  0  0  0  0  0
   72.3693   61.7527   19.4532 C   0  0  0  0  0  0  0  0  0  0  0  0
   69.5424   58.3097   16.2982 C   0  0  0  0  0  0  0  0  0  0  0  0
   67.3036   51.4588   13.5098 C   0  0  0  0  0  0  0  0  0  0  0  0
   68.2021   51.0356   14.4723 C   0  0  0  0  0  0  0  0  0  0  0  0
   68.7535   51.9747   15.3356 C   0  0  0  0  0  0  0  0  0  0  0  0
   68.4431   53.3019   15.2719 C   0  0  0  0  0  0  0  0  0  0  0  0
   67.5489   53.7208   14.3139 C   0  0  0  0  0  0  0  0  0  0  0  0
   66.9707   52.8055   13.4237 C   0  0  0  0  0  0  0  0  0  0  0  0
   71.7639   54.3110   15.8824 C   0  0  0  0  0  0  0  0  0  0  0  0
   70.5270   56.0055   14.7127 C   0  0  0  0  0  0  0  0  0  0  0  0
   74.0976   60.4502   20.3576 C   0  0  1  0  0  0  0  0  0  0  0  0
   72.6027   60.5383   20.3288 C   0  0  0  0  0  0  0  0  0  0  0  0
   69.1147   58.9243   17.5619 C   0  0  0  0  0  0  0  0  0  0  0  0
   69.1286   60.2799   17.7642 C   0  0  0  0  0  0  0  0  0  0  0  0
   68.7203   60.8467   18.9739 C   0  0  0  0  0  0  0  0  0  0  0  0
   68.2885   60.0331   20.0021 C   0  0  0  0  0  0  0  0  0  0  0  0
   68.2737   58.6724   19.7996 C   0  0  0  0  0  0  0  0  0  0  0  0
   68.6808   58.1199   18.5957 C   0  0  0  0  0  0  0  0  0  0  0  0
   65.4766   49.8703   13.2804 C   0  0  0  0  0  0  0  0  0  0  0  0
   74.0993   54.0142   12.9045 C   0  0  0  0  0  0  0  0  0  0  0  0
   72.9028   54.6665   14.9741 C   0  0  2  0  0  0  0  0  0  0  0  0
   72.8122   53.8433   13.6671 C   0  0  0  0  0  0  0  0  0  0  0  0
   74.2165   54.4150   15.6429 C   0  0  0  0  0  0  0  0  0  0  0  0
   66.6831   50.4651   12.5697 C   0  0  1  0  0  0  0  0  0  0  0  0
   70.6074   55.0995   15.8158 N   0  0  0  0  0  0  0  0  0  0  0  0
   71.8120   58.9140   16.7741 N   0  0  0  0  0  0  0  0  0  0  0  0
   68.1393   55.6551   16.3403 O   0  0  0  0  0  0  0  0  0  0  0  0
   69.0921   53.9620   17.7409 O   0  0  0  0  0  0  0  0  0  0  0  0
   70.8023   58.2213   14.0700 O   0  0  0  0  0  0  0  0  0  0  0  0
   72.7089   57.6593   18.5178 O   0  0  0  0  0  0  0  0  0  0  0  0
   73.6693   59.6816   18.1784 O   0  0  0  0  0  0  0  0  0  0  0  0
   75.7549   61.5295   19.1132 O   0  0  0  0  0  0  0  0  0  0  0  0
   73.5992   62.0911   18.8884 O   0  0  0  0  0  0  0  0  0  0  0  0
   66.1601   51.1176   11.4327 O   0  0  0  0  0  0  0  0  0  0  0  0
   69.1335   54.4886   16.3513 S   0  0  1  0  0  6  0  0  0  0  0  0
  1  2  1  0
 16  1  1  0
  1 35  1  6
  2  8  1  6
  2 32  1  0
 32  3  1  0
  3 36  2  0
  3 37  1  0
  4  5  1  0
  4 17  1  0
  4 37  1  6
  5 38  1  0
 17  6  1  0
  6 38  1  6
  6 39  1  0
 18  7  1  0
  7 39  1  0
  8 19  1  0
 10  9  2  0
 14  9  1  0
  9 30  1  0
 11 10  1  0
 12 11  2  0
 12 13  1  0
 41 12  1  0
 13 14  2  0
 15 27  1  0
 31 15  1  0
 31 16  1  0
 17 18  1  6
 19 20  2  0
 19 24  1  0
 20 21  1  0
 21 22  2  0
 23 22  1  0
 24 23  2  0
 30 25  1  1
 28 26  1  0
 27 28  1  0
 27 29  1  1
 30 40  1  0
 41 31  1  6
 41 33  2  0
 41 34  2  0
M  END
$$$$
