
     RDKit          3D

 41 44  0  0  0  0  0  0  0  0999 V2000
   71.3290   57.6355   14.2598 C   0  0  1  0  0  0  0  0  0  0  0  0
   71.4259   57.8926   15.7508 C   0  0  2  0  0  0  0  0  0  0  0  0
   72.9778   58.4451   17.5782 C   0  0  0  0  0  0  0  0  0  0  0  0
   74.7375   58.8546   19.2535 C   0  0  1  0  0  0  0  0  0  0  0  0
   76.1551   59.3498   19.2649 C   0  0  0  0  0  0  0  0  0  0  0  0
   74.8578   61.0968   19.8545 C   0  0  1  0  0  0  0  0  0  0  0  0
   72.7885   61.3405   19.0102 C   0  0  0  0  0  0  0  0  0  0  0  0
   70.5728   59.1217   16.0399 C   0  0  0  0  0  0  0  0  0  0  0  0
   72.9754   51.0060   13.6280 C   0  0  0  0  0  0  0  0  0  0  0  0
   72.9282   52.1175   12.8062 C   0  0  0  0  0  0  0  0  0  0  0  0
   72.5683   53.3429   13.3538 C   0  0  0  0  0  0  0  0  0  0  0  0
   72.2589   53.4946   14.6740 C   0  0  0  0  0  0  0  0  0  0  0  0
   72.3066   52.3878   15.4900 C   0  0  0  0  0  0  0  0  0  0  0  0
   72.6644   51.1336   14.9767 C   0  0  0  0  0  0  0  0  0  0  0  0
   69.2072   55.4922   15.8353 C   0  0  0  0  0  0  0  0  0  0  0  0
   70.2289   56.6088   13.9702 C   0  0  0  0  0  0  0  0  0  0  0  0
   74.1125   59.8498   20.2456 C   0  0  1  0  0  0  0  0  0  0  0  0
   72.6814   60.1110   19.8893 C   0  0  0  0  0  0  0  0  0  0  0  0
   70.1012   59.1440   17.4308 C   0  0  0  0  0  0  0  0  0  0  0  0
   69.2606   60.1155   17.9087 C   0  0  0  0  0  0  0  0  0  0  0  0
   68.8242   60.1221   19.2357 C   0  0  0  0  0  0  0  0  0  0  0  0
   69.2415   59.1304   20.1006 C   0  0  0  0  0  0  0  0  0  0  0  0
   70.0847   58.1546   19.6215 C   0  0  0  0  0  0  0  0  0  0  0  0
   70.5120   58.1570   18.3032 C   0  0  0  0  0  0  0  0  0  0  0  0
   72.9668   49.6639   11.6000 C   0  0  0  0  0  0  0  0  0  0  0  0
   67.4828   53.9167   17.2881 C   0  0  0  0  0  0  0  0  0  0  0  0
   67.8171   55.3469   15.2923 C   0  0  2  0  0  0  0  0  0  0  0  0
   66.8404   54.9777   16.4342 C   0  0  0  0  0  0  0  0  0  0  0  0
   67.7686   54.3011   14.2243 C   0  0  0  0  0  0  0  0  0  0  0  0
   73.3715   49.6703   13.0666 C   0  0  1  0  0  0  0  0  0  0  0  0
   70.2639   55.5373   14.9161 N   0  0  0  0  0  0  0  0  0  0  0  0
   72.7535   58.1425   16.2075 N   0  0  0  0  0  0  0  0  0  0  0  0
   71.7611   54.7803   16.8810 O   0  0  0  0  0  0  0  0  0  0  0  0
   72.9127   56.0001   15.1716 O   0  0  0  0  0  0  0  0  0  0  0  0
   70.8334   58.8359   13.6992 O   0  0  0  0  0  0  0  0  0  0  0  0
   72.1321   58.0840   18.4501 O   0  0  0  0  0  0  0  0  0  0  0  0
   74.0933   59.1267   18.0096 O   0  0  0  0  0  0  0  0  0  0  0  0
   76.1169   60.7235   19.4214 O   0  0  0  0  0  0  0  0  0  0  0  0
   74.1434   61.5310   18.7383 O   0  0  0  0  0  0  0  0  0  0  0  0
   74.7758   49.5297   13.0650 O   0  0  0  0  0  0  0  0  0  0  0  0
   71.8034   55.0305   15.3694 S   0  0  1  0  0  6  0  0  0  0  0  0
  1  2  1  0
 16  1  1  0
  1 35  1  6
  2  8  1  6
  2 32  1  0
 32  3  1  0
  3 36  2  0
  3 37  1  0
  4  5  1  0
  4 17  1  0
  4 37  1  6
  5 38  1  0
 17  6  1  0
  6 38  1  6
  6 39  1  0
 18  7  1  0
  7 39  1  0
  8 19  1  0
 10  9  2  0
 14  9  1  0
  9 30  1  0
 11 10  1  0
 12 11  2  0
 12 13  1  0
 41 12  1  0
 13 14  2  0
 15 27  1  0
 31 15  1  0
 31 16  1  0
 17 18  1  6
 19 20  2  0
 19 24  1  0
 20 21  1  0
 21 22  2  0
 23 22  1  0
 24 23  2  0
 30 25  1  6
 28 26  1  0
 27 28  1  0
 27 29  1  6
 30 40  1  0
 41 31  1  6
 41 33  2  0
 41 34  2  0
M  END
$$$$
