
     RDKit          3D

 41 44  0  0  0  0  0  0  0  0999 V2000
   70.6996   56.9164   15.2256 C   0  0  1  0  0  0  0  0  0  0  0  0
   70.8080   57.5568   16.5956 C   0  0  2  0  0  0  0  0  0  0  0  0
   72.4148   58.6681   18.0910 C   0  0  0  0  0  0  0  0  0  0  0  0
   74.5676   59.4213   19.0231 C   0  0  1  0  0  0  0  0  0  0  0  0
   75.7495   60.2499   18.6087 C   0  0  0  0  0  0  0  0  0  0  0  0
   74.3497   61.6309   19.7115 C   0  0  1  0  0  0  0  0  0  0  0  0
   72.1218   61.3492   19.6053 C   0  0  0  0  0  0  0  0  0  0  0  0
   70.1236   58.9149   16.4999 C   0  0  0  0  0  0  0  0  0  0  0  0
   66.7922   51.6428   13.3873 C   0  0  0  0  0  0  0  0  0  0  0  0
   67.8648   51.1228   14.0887 C   0  0  0  0  0  0  0  0  0  0  0  0
   68.7029   51.9923   14.7762 C   0  0  0  0  0  0  0  0  0  0  0  0
   68.5096   53.3430   14.7875 C   0  0  0  0  0  0  0  0  0  0  0  0
   67.4419   53.8584   14.0894 C   0  0  0  0  0  0  0  0  0  0  0  0
   66.5733   53.0154   13.3826 C   0  0  0  0  0  0  0  0  0  0  0  0
   71.4625   53.7243   13.9054 C   0  0  0  0  0  0  0  0  0  0  0  0
   71.7408   55.8017   15.0786 C   0  0  0  0  0  0  0  0  0  0  0  0
   74.0927   60.2433   20.2332 C   0  0  1  0  0  0  0  0  0  0  0  0
   72.6058   60.1408   20.3810 C   0  0  0  0  0  0  0  0  0  0  0  0
   69.4642   59.2839   17.7595 C   0  0  0  0  0  0  0  0  0  0  0  0
   69.3788   58.4267   18.8257 C   0  0  0  0  0  0  0  0  0  0  0  0
   68.7455   58.7942   20.0153 C   0  0  0  0  0  0  0  0  0  0  0  0
   68.1864   60.0506   20.1357 C   0  0  0  0  0  0  0  0  0  0  0  0
   68.2723   60.9118   19.0662 C   0  0  0  0  0  0  0  0  0  0  0  0
   68.9027   60.5376   17.8902 C   0  0  0  0  0  0  0  0  0  0  0  0
   64.8657   50.1833   13.6559 C   0  0  0  0  0  0  0  0  0  0  0  0
   73.0760   51.2912   13.3329 C   0  0  0  0  0  0  0  0  0  0  0  0
   72.8891   53.7597   13.4449 C   0  0  2  0  0  0  0  0  0  0  0  0
   73.1744   52.5539   12.5182 C   0  0  0  0  0  0  0  0  0  0  0  0
   73.8261   53.7377   14.6102 C   0  0  0  0  0  0  0  0  0  0  0  0
   65.8629   50.7266   12.6436 C   0  0  1  0  0  0  0  0  0  0  0  0
   71.1136   54.5189   15.0056 N   0  0  0  0  0  0  0  0  0  0  0  0
   72.1502   57.7536   17.0352 N   0  0  0  0  0  0  0  0  0  0  0  0
   68.9286   55.8252   15.4471 O   0  0  0  0  0  0  0  0  0  0  0  0
   69.4494   54.1775   17.1055 O   0  0  0  0  0  0  0  0  0  0  0  0
   69.4620   56.2315   15.2238 O   0  0  0  0  0  0  0  0  0  0  0  0
   71.6341   58.7237   19.0874 O   0  0  0  0  0  0  0  0  0  0  0  0
   73.5015   59.5131   18.0790 O   0  0  0  0  0  0  0  0  0  0  0  0
   75.4433   61.5737   18.8672 O   0  0  0  0  0  0  0  0  0  0  0  0
   73.2239   61.8638   18.9223 O   0  0  0  0  0  0  0  0  0  0  0  0
   65.0894   51.4533   11.7133 O   0  0  0  0  0  0  0  0  0  0  0  0
   69.5595   54.4427   15.6469 S   0  0  1  0  0  6  0  0  0  0  0  0
  1  2  1  0
 16  1  1  0
  1 35  1  1
  2  8  1  6
  2 32  1  0
 32  3  1  0
  3 36  2  0
  3 37  1  0
  4  5  1  0
  4 17  1  0
  4 37  1  6
  5 38  1  0
 17  6  1  0
  6 38  1  6
  6 39  1  0
 18  7  1  0
  7 39  1  0
  8 19  1  0
 10  9  2  0
 14  9  1  0
  9 30  1  0
 11 10  1  0
 12 11  2  0
 12 13  1  0
 41 12  1  0
 13 14  2  0
 15 27  1  0
 31 15  1  0
 31 16  1  0
 17 18  1  6
 19 20  2  0
 19 24  1  0
 20 21  1  0
 21 22  2  0
 23 22  1  0
 24 23  2  0
 30 25  1  1
 28 26  1  0
 27 28  1  0
 27 29  1  1
 30 40  1  0
 41 31  1  6
 41 33  2  0
 41 34  2  0
M  END
$$$$
