
     RDKit          3D

 41 44  0  0  0  0  0  0  0  0999 V2000
   70.8806   57.6223   14.7864 C   0  0  1  0  0  0  0  0  0  0  0  0
   71.0857   57.9394   16.2548 C   0  0  2  0  0  0  0  0  0  0  0  0
   72.9286   58.3683   17.8272 C   0  0  0  0  0  0  0  0  0  0  0  0
   74.7956   58.7087   19.3985 C   0  0  1  0  0  0  0  0  0  0  0  0
   76.2716   58.9161   19.2153 C   0  0  0  0  0  0  0  0  0  0  0  0
   75.4106   60.9110   19.8166 C   0  0  1  0  0  0  0  0  0  0  0  0
   73.3362   61.5132   19.1931 C   0  0  0  0  0  0  0  0  0  0  0  0
   69.9778   58.9068   16.6531 C   0  0  0  0  0  0  0  0  0  0  0  0
   69.5818   51.0997   13.6172 C   0  0  0  0  0  0  0  0  0  0  0  0
   70.5692   51.9665   13.1853 C   0  0  0  0  0  0  0  0  0  0  0  0
   70.7309   53.1809   13.8413 C   0  0  0  0  0  0  0  0  0  0  0  0
   69.9524   53.5539   14.8980 C   0  0  0  0  0  0  0  0  0  0  0  0
   68.9709   52.6901   15.3263 C   0  0  0  0  0  0  0  0  0  0  0  0
   68.7749   51.4559   14.6915 C   0  0  0  0  0  0  0  0  0  0  0  0
   67.9339   56.4970   16.2357 C   0  0  0  0  0  0  0  0  0  0  0  0
   69.4080   57.2964   14.5160 C   0  0  0  0  0  0  0  0  0  0  0  0
   74.4975   59.8557   20.3787 C   0  0  1  0  0  0  0  0  0  0  0  0
   73.1086   60.3743   20.1664 C   0  0  0  0  0  0  0  0  0  0  0  0
   69.9429   59.1291   18.1046 C   0  0  0  0  0  0  0  0  0  0  0  0
   69.5939   60.3338   18.6577 C   0  0  0  0  0  0  0  0  0  0  0  0
   69.5686   60.5276   20.0409 C   0  0  0  0  0  0  0  0  0  0  0  0
   69.9008   59.4879   20.8860 C   0  0  0  0  0  0  0  0  0  0  0  0
   70.2506   58.2783   20.3316 C   0  0  0  0  0  0  0  0  0  0  0  0
   70.2726   58.0961   18.9580 C   0  0  0  0  0  0  0  0  0  0  0  0
   70.6365   49.5184   12.1003 C   0  0  0  0  0  0  0  0  0  0  0  0
   65.8888   58.2675   17.1725 C   0  0  0  0  0  0  0  0  0  0  0  0
   68.2281   57.4673   17.3404 C   0  0  2  0  0  0  0  0  0  0  0  0
   66.9353   57.7705   18.1346 C   0  0  0  0  0  0  0  0  0  0  0  0
   68.7996   58.7376   16.7960 C   0  0  0  0  0  0  0  0  0  0  0  0
   69.3905   49.7755   12.9346 C   0  0  1  0  0  0  0  0  0  0  0  0
   68.9642   56.2086   15.3309 N   0  0  0  0  0  0  0  0  0  0  0  0
   72.3441   58.5448   16.5434 N   0  0  0  0  0  0  0  0  0  0  0  0
   69.9648   54.7460   17.2111 O   0  0  0  0  0  0  0  0  0  0  0  0
   71.5619   55.5200   15.6028 O   0  0  0  0  0  0  0  0  0  0  0  0
   71.0928   58.8418   14.1017 O   0  0  0  0  0  0  0  0  0  0  0  0
   72.3991   57.5701   18.6567 O   0  0  0  0  0  0  0  0  0  0  0  0
   74.0655   59.0391   18.2178 O   0  0  0  0  0  0  0  0  0  0  0  0
   76.5131   60.2767   19.2741 O   0  0  0  0  0  0  0  0  0  0  0  0
   74.6585   61.4203   18.7584 O   0  0  0  0  0  0  0  0  0  0  0  0
   69.3555   48.7298   13.8818 O   0  0  0  0  0  0  0  0  0  0  0  0
   70.1476   55.0791   15.7262 S   0  0  1  0  0  6  0  0  0  0  0  0
  1  2  1  0
 16  1  1  0
  1 35  1  6
  2  8  1  6
  2 32  1  0
 32  3  1  0
  3 36  2  0
  3 37  1  0
  4  5  1  0
  4 17  1  0
  4 37  1  6
  5 38  1  0
 17  6  1  0
  6 38  1  6
  6 39  1  0
 18  7  1  0
  7 39  1  0
  8 19  1  0
 10  9  2  0
 14  9  1  0
  9 30  1  0
 11 10  1  0
 12 11  2  0
 12 13  1  0
 41 12  1  0
 13 14  2  0
 15 27  1  0
 31 15  1  0
 31 16  1  0
 17 18  1  6
 19 20  2  0
 19 24  1  0
 20 21  1  0
 21 22  2  0
 23 22  1  0
 24 23  2  0
 30 25  1  6
 28 26  1  0
 27 28  1  0
 27 29  1  6
 30 40  1  0
 41 31  1  6
 41 33  2  0
 41 34  2  0
M  END
$$$$
