
     RDKit          3D

 41 44  0  0  0  0  0  0  0  0999 V2000
   71.4695   57.1852   15.3649 C   0  0  1  0  0  0  0  0  0  0  0  0
   71.1013   57.8731   16.6649 C   0  0  2  0  0  0  0  0  0  0  0  0
   72.9288   58.7582   18.0541 C   0  0  0  0  0  0  0  0  0  0  0  0
   74.8070   59.5834   19.4186 C   0  0  1  0  0  0  0  0  0  0  0  0
   76.0107   60.4690   19.2702 C   0  0  0  0  0  0  0  0  0  0  0  0
   74.3429   61.7734   20.0445 C   0  0  1  0  0  0  0  0  0  0  0  0
   72.2062   61.3922   19.4583 C   0  0  0  0  0  0  0  0  0  0  0  0
   69.6953   58.4313   16.4825 C   0  0  0  0  0  0  0  0  0  0  0  0
   67.1118   51.3179   13.4175 C   0  0  0  0  0  0  0  0  0  0  0  0
   68.0683   50.8850   14.3178 C   0  0  0  0  0  0  0  0  0  0  0  0
   68.6581   51.8119   15.1688 C   0  0  0  0  0  0  0  0  0  0  0  0
   68.3304   53.1363   15.1522 C   0  0  0  0  0  0  0  0  0  0  0  0
   67.3785   53.5650   14.2560 C   0  0  0  0  0  0  0  0  0  0  0  0
   66.7602   52.6621   13.3802 C   0  0  0  0  0  0  0  0  0  0  0  0
   71.5035   54.1141   15.1191 C   0  0  0  0  0  0  0  0  0  0  0  0
   70.3577   56.2180   14.9446 C   0  0  0  0  0  0  0  0  0  0  0  0
   74.0440   60.3702   20.4975 C   0  0  1  0  0  0  0  0  0  0  0  0
   72.5667   60.1989   20.3199 C   0  0  0  0  0  0  0  0  0  0  0  0
   69.1475   58.9534   17.7414 C   0  0  0  0  0  0  0  0  0  0  0  0
   69.1100   60.2930   18.0296 C   0  0  0  0  0  0  0  0  0  0  0  0
   68.5874   60.7713   19.2335 C   0  0  0  0  0  0  0  0  0  0  0  0
   68.0916   59.8839   20.1675 C   0  0  0  0  0  0  0  0  0  0  0  0
   68.1283   58.5393   19.8786 C   0  0  0  0  0  0  0  0  0  0  0  0
   68.6489   58.0747   18.6813 C   0  0  0  0  0  0  0  0  0  0  0  0
   65.1742   49.8681   13.1771 C   0  0  0  0  0  0  0  0  0  0  0  0
   73.6075   52.4748   14.1324 C   0  0  0  0  0  0  0  0  0  0  0  0
   72.6951   54.7537   14.4714 C   0  0  2  0  0  0  0  0  0  0  0  0
   73.3212   53.7824   13.4425 C   0  0  0  0  0  0  0  0  0  0  0  0
   73.7161   55.1372   15.4946 C   0  0  0  0  0  0  0  0  0  0  0  0
   66.4493   50.3372   12.4926 C   0  0  1  0  0  0  0  0  0  0  0  0
   70.4958   54.9576   15.6054 N   0  0  0  0  0  0  0  0  0  0  0  0
   71.9741   58.9443   17.0173 N   0  0  0  0  0  0  0  0  0  0  0  0
   68.0572   55.4566   16.2982 O   0  0  0  0  0  0  0  0  0  0  0  0
   69.1236   53.7462   17.5918 O   0  0  0  0  0  0  0  0  0  0  0  0
   71.4346   58.1971   14.3771 O   0  0  0  0  0  0  0  0  0  0  0  0
   72.8379   57.7544   18.8221 O   0  0  0  0  0  0  0  0  0  0  0  0
   73.9672   59.6366   18.2661 O   0  0  0  0  0  0  0  0  0  0  0  0
   75.5947   61.7748   19.4568 O   0  0  0  0  0  0  0  0  0  0  0  0
   73.4048   61.9634   19.0303 O   0  0  0  0  0  0  0  0  0  0  0  0
   66.0217   50.9806   11.3114 O   0  0  0  0  0  0  0  0  0  0  0  0
   69.0686   54.3079   16.2165 S   0  0  1  0  0  6  0  0  0  0  0  0
  1  2  1  0
 16  1  1  0
  1 35  1  6
  2  8  1  6
  2 32  1  0
 32  3  1  0
  3 36  2  0
  3 37  1  0
  4  5  1  0
  4 17  1  0
  4 37  1  6
  5 38  1  0
 17  6  1  0
  6 38  1  6
  6 39  1  0
 18  7  1  0
  7 39  1  0
  8 19  1  0
 10  9  2  0
 14  9  1  0
  9 30  1  0
 11 10  1  0
 12 11  2  0
 12 13  1  0
 41 12  1  0
 13 14  2  0
 15 27  1  0
 31 15  1  0
 31 16  1  0
 17 18  1  6
 19 20  2  0
 19 24  1  0
 20 21  1  0
 21 22  2  0
 23 22  1  0
 24 23  2  0
 30 25  1  1
 28 26  1  0
 27 28  1  0
 27 29  1  1
 30 40  1  0
 41 31  1  6
 41 33  2  0
 41 34  2  0
M  END
$$$$
