
     RDKit          3D

 41 44  0  0  0  0  0  0  0  0999 V2000
   71.0711   57.1946   14.8797 C   0  0  1  0  0  0  0  0  0  0  0  0
   70.8352   57.7446   16.2728 C   0  0  2  0  0  0  0  0  0  0  0  0
   71.9234   59.0774   18.0313 C   0  0  0  0  0  0  0  0  0  0  0  0
   74.3214   59.1916   18.5855 C   0  0  1  0  0  0  0  0  0  0  0  0
   74.6797   60.2939   17.6307 C   0  0  0  0  0  0  0  0  0  0  0  0
   74.8275   61.1650   19.7049 C   0  0  1  0  0  0  0  0  0  0  0  0
   73.4613   60.4747   21.3516 C   0  0  0  0  0  0  0  0  0  0  0  0
   69.8895   58.9297   16.1217 C   0  0  0  0  0  0  0  0  0  0  0  0
   66.8261   51.2421   12.9023 C   0  0  0  0  0  0  0  0  0  0  0  0
   67.7862   50.7428   13.7635 C   0  0  0  0  0  0  0  0  0  0  0  0
   68.4441   51.6200   14.6173 C   0  0  0  0  0  0  0  0  0  0  0  0
   68.1800   52.9585   14.6406 C   0  0  0  0  0  0  0  0  0  0  0  0
   67.2243   53.4532   13.7834 C   0  0  0  0  0  0  0  0  0  0  0  0
   66.5384   52.6019   12.9061 C   0  0  0  0  0  0  0  0  0  0  0  0
   71.2285   54.1827   14.2229 C   0  0  0  0  0  0  0  0  0  0  0  0
   69.9627   56.2042   14.5071 C   0  0  0  0  0  0  0  0  0  0  0  0
   75.0681   59.6856   19.8360 C   0  0  1  0  0  0  0  0  0  0  0  0
   74.3384   59.2702   21.0762 C   0  0  0  0  0  0  0  0  0  0  0  0
   69.1479   59.1979   17.3610 C   0  0  0  0  0  0  0  0  0  0  0  0
   68.3519   60.3024   17.5194 C   0  0  0  0  0  0  0  0  0  0  0  0
   67.6557   60.5425   18.7065 C   0  0  0  0  0  0  0  0  0  0  0  0
   67.7620   59.6528   19.7566 C   0  0  0  0  0  0  0  0  0  0  0  0
   68.5603   58.5436   19.5981 C   0  0  0  0  0  0  0  0  0  0  0  0
   69.2469   58.3145   18.4164 C   0  0  0  0  0  0  0  0  0  0  0  0
   64.9603   49.6875   12.7759 C   0  0  0  0  0  0  0  0  0  0  0  0
   73.6404   53.5713   12.4754 C   0  0  0  0  0  0  0  0  0  0  0  0
   72.6659   54.3150   14.6289 C   0  0  2  0  0  0  0  0  0  0  0  0
   73.5131   53.2222   13.9347 C   0  0  0  0  0  0  0  0  0  0  0  0
   72.8127   54.2053   16.1132 C   0  0  0  0  0  0  0  0  0  0  0  0
   66.0909   50.3165   11.9755 C   0  0  1  0  0  0  0  0  0  0  0  0
   70.2738   54.8871   14.9684 N   0  0  0  0  0  0  0  0  0  0  0  0
   72.0225   58.1900   16.9252 N   0  0  0  0  0  0  0  0  0  0  0  0
   67.9495   55.1190   16.0726 O   0  0  0  0  0  0  0  0  0  0  0  0
   69.3100   53.3728   16.9867 O   0  0  0  0  0  0  0  0  0  0  0  0
   70.8659   58.2845   14.0017 O   0  0  0  0  0  0  0  0  0  0  0  0
   70.8691   59.7599   18.1995 O   0  0  0  0  0  0  0  0  0  0  0  0
   72.9411   59.2326   18.9451 O   0  0  0  0  0  0  0  0  0  0  0  0
   74.7564   61.4682   18.3576 O   0  0  0  0  0  0  0  0  0  0  0  0
   73.5443   61.3042   20.2331 O   0  0  0  0  0  0  0  0  0  0  0  0
   65.4569   51.0454   10.9466 O   0  0  0  0  0  0  0  0  0  0  0  0
   69.0038   54.0677   15.7088 S   0  0  1  0  0  6  0  0  0  0  0  0
  1  2  1  0
 16  1  1  0
  1 35  1  6
  2  8  1  6
  2 32  1  0
 32  3  1  0
  3 36  2  0
  3 37  1  0
  4  5  1  0
  4 17  1  0
  4 37  1  1
  5 38  1  0
 17  6  1  0
  6 38  1  6
  6 39  1  0
 18  7  1  0
  7 39  1  0
  8 19  1  0
 10  9  2  0
 14  9  1  0
  9 30  1  0
 11 10  1  0
 12 11  2  0
 12 13  1  0
 41 12  1  0
 13 14  2  0
 15 27  1  0
 31 15  1  0
 31 16  1  0
 17 18  1  1
 19 20  2  0
 19 24  1  0
 20 21  1  0
 21 22  2  0
 23 22  1  0
 24 23  2  0
 30 25  1  1
 28 26  1  0
 27 28  1  0
 27 29  1  1
 30 40  1  0
 41 31  1  6
 41 33  2  0
 41 34  2  0
M  END
$$$$
