
     RDKit          3D

 41 44  0  0  0  0  0  0  0  0999 V2000
   71.2033   57.2272   15.1060 C   0  0  1  0  0  0  0  0  0  0  0  0
   70.8410   57.8024   16.4613 C   0  0  2  0  0  0  0  0  0  0  0  0
   72.5078   58.8629   17.9275 C   0  0  0  0  0  0  0  0  0  0  0  0
   74.5090   59.6206   19.1488 C   0  0  1  0  0  0  0  0  0  0  0  0
   75.7452   60.4321   18.8873 C   0  0  0  0  0  0  0  0  0  0  0  0
   74.2320   61.8370   19.7925 C   0  0  1  0  0  0  0  0  0  0  0  0
   72.0333   61.5815   19.3993 C   0  0  0  0  0  0  0  0  0  0  0  0
   69.3742   58.2085   16.3871 C   0  0  0  0  0  0  0  0  0  0  0  0
   66.6521   51.2994   13.5646 C   0  0  0  0  0  0  0  0  0  0  0  0
   67.5794   50.8401   14.4822 C   0  0  0  0  0  0  0  0  0  0  0  0
   68.3046   51.7644   15.2244 C   0  0  0  0  0  0  0  0  0  0  0  0
   68.1379   53.1115   15.0843 C   0  0  0  0  0  0  0  0  0  0  0  0
   67.2148   53.5664   14.1712 C   0  0  0  0  0  0  0  0  0  0  0  0
   66.4633   52.6669   13.4025 C   0  0  0  0  0  0  0  0  0  0  0  0
   71.1936   54.1164   14.4192 C   0  0  0  0  0  0  0  0  0  0  0  0
   70.1175   56.2527   14.6373 C   0  0  0  0  0  0  0  0  0  0  0  0
   73.8917   60.4560   20.2830 C   0  0  1  0  0  0  0  0  0  0  0  0
   72.3970   60.3725   20.2371 C   0  0  0  0  0  0  0  0  0  0  0  0
   68.9281   58.8710   17.6198 C   0  0  0  0  0  0  0  0  0  0  0  0
   68.8594   60.2347   17.7404 C   0  0  0  0  0  0  0  0  0  0  0  0
   68.4349   60.8475   18.9218 C   0  0  0  0  0  0  0  0  0  0  0  0
   68.0714   60.0727   20.0049 C   0  0  0  0  0  0  0  0  0  0  0  0
   68.1395   58.7039   19.8844 C   0  0  0  0  0  0  0  0  0  0  0  0
   68.5620   58.1056   18.7080 C   0  0  0  0  0  0  0  0  0  0  0  0
   64.3905   50.5010   13.1622 C   0  0  0  0  0  0  0  0  0  0  0  0
   73.4802   52.2111   13.9882 C   0  0  0  0  0  0  0  0  0  0  0  0
   72.6346   54.5176   14.3132 C   0  0  2  0  0  0  0  0  0  0  0  0
   73.3767   53.5679   13.3430 C   0  0  0  0  0  0  0  0  0  0  0  0
   73.2953   54.4913   15.6546 C   0  0  0  0  0  0  0  0  0  0  0  0
   65.8458   50.3239   12.7557 C   0  0  1  0  0  0  0  0  0  0  0  0
   70.3409   54.9423   15.1637 N   0  0  0  0  0  0  0  0  0  0  0  0
   71.6117   58.9451   16.8271 N   0  0  0  0  0  0  0  0  0  0  0  0
   68.0605   55.4216   16.2797 O   0  0  0  0  0  0  0  0  0  0  0  0
   69.3462   53.7082   17.3508 O   0  0  0  0  0  0  0  0  0  0  0  0
   71.1090   58.3076   14.1979 O   0  0  0  0  0  0  0  0  0  0  0  0
   72.3343   57.9772   18.8170 O   0  0  0  0  0  0  0  0  0  0  0  0
   73.5757   59.7191   18.0739 O   0  0  0  0  0  0  0  0  0  0  0  0
   75.4251   61.7611   19.0975 O   0  0  0  0  0  0  0  0  0  0  0  0
   73.2212   62.0784   18.8627 O   0  0  0  0  0  0  0  0  0  0  0  0
   65.8920   50.6584   11.3853 O   0  0  0  0  0  0  0  0  0  0  0  0
   69.0469   54.2795   16.0114 S   0  0  1  0  0  6  0  0  0  0  0  0
  1  2  1  0
 16  1  1  0
  1 35  1  6
  2  8  1  6
  2 32  1  0
 32  3  1  0
  3 36  2  0
  3 37  1  0
  4  5  1  0
  4 17  1  0
  4 37  1  6
  5 38  1  0
 17  6  1  0
  6 38  1  6
  6 39  1  0
 18  7  1  0
  7 39  1  0
  8 19  1  0
 10  9  2  0
 14  9  1  0
  9 30  1  0
 11 10  1  0
 12 11  2  0
 12 13  1  0
 41 12  1  0
 13 14  2  0
 15 27  1  0
 31 15  1  0
 31 16  1  0
 17 18  1  6
 19 20  2  0
 19 24  1  0
 20 21  1  0
 21 22  2  0
 23 22  1  0
 24 23  2  0
 30 25  1  1
 28 26  1  0
 27 28  1  0
 27 29  1  1
 30 40  1  0
 41 31  1  6
 41 33  2  0
 41 34  2  0
M  END
$$$$
