
     RDKit          3D

 41 44  0  0  0  0  0  0  0  0999 V2000
   71.3184   57.6533   15.2889 C   0  0  1  0  0  0  0  0  0  0  0  0
   70.8585   57.7857   16.7275 C   0  0  2  0  0  0  0  0  0  0  0  0
   73.0231   57.5183   17.8657 C   0  0  0  0  0  0  0  0  0  0  0  0
   74.6120   59.1219   18.8530 C   0  0  1  0  0  0  0  0  0  0  0  0
   75.2660   60.2261   18.0730 C   0  0  0  0  0  0  0  0  0  0  0  0
   73.9154   61.2162   19.5824 C   0  0  1  0  0  0  0  0  0  0  0  0
   71.9869   60.2524   20.2198 C   0  0  0  0  0  0  0  0  0  0  0  0
   70.8885   59.2719   17.0622 C   0  0  0  0  0  0  0  0  0  0  0  0
   67.0429   51.7308   13.1373 C   0  0  0  0  0  0  0  0  0  0  0  0
   66.8648   53.0979   13.0267 C   0  0  0  0  0  0  0  0  0  0  0  0
   67.6178   53.9409   13.8351 C   0  0  0  0  0  0  0  0  0  0  0  0
   68.5291   53.4729   14.7364 C   0  0  0  0  0  0  0  0  0  0  0  0
   68.7049   52.1126   14.8447 C   0  0  0  0  0  0  0  0  0  0  0  0
   67.9648   51.2283   14.0480 C   0  0  0  0  0  0  0  0  0  0  0  0
   71.5735   54.5907   14.0922 C   0  0  0  0  0  0  0  0  0  0  0  0
   70.4298   56.6552   14.5389 C   0  0  0  0  0  0  0  0  0  0  0  0
   74.3017   59.8796   20.1549 C   0  0  1  0  0  0  0  0  0  0  0  0
   73.0557   59.3401   20.7869 C   0  0  0  0  0  0  0  0  0  0  0  0
   69.9219   59.6144   18.1139 C   0  0  0  0  0  0  0  0  0  0  0  0
   70.0912   59.2390   19.4213 C   0  0  0  0  0  0  0  0  0  0  0  0
   69.1598   59.5718   20.4079 C   0  0  0  0  0  0  0  0  0  0  0  0
   68.0345   60.2977   20.0728 C   0  0  0  0  0  0  0  0  0  0  0  0
   67.8643   60.6754   18.7609 C   0  0  0  0  0  0  0  0  0  0  0  0
   68.7941   60.3403   17.7895 C   0  0  0  0  0  0  0  0  0  0  0  0
   67.1666   49.6344   11.9111 C   0  0  0  0  0  0  0  0  0  0  0  0
   72.5431   52.3358   13.3281 C   0  0  0  0  0  0  0  0  0  0  0  0
   73.0118   54.4693   14.4983 C   0  0  2  0  0  0  0  0  0  0  0  0
   73.6482   53.2314   13.8224 C   0  0  0  0  0  0  0  0  0  0  0  0
   73.1386   54.3580   15.9843 C   0  0  0  0  0  0  0  0  0  0  0  0
   66.2509   50.7954   12.2690 C   0  0  1  0  0  0  0  0  0  0  0  0
   70.7176   55.3119   14.9353 N   0  0  0  0  0  0  0  0  0  0  0  0
   71.6824   57.0920   17.6621 N   0  0  0  0  0  0  0  0  0  0  0  0
   68.4978   55.6079   16.2238 O   0  0  0  0  0  0  0  0  0  0  0  0
   69.8546   53.7905   16.9936 O   0  0  0  0  0  0  0  0  0  0  0  0
   71.0255   58.8965   14.6810 O   0  0  0  0  0  0  0  0  0  0  0  0
   73.9805   56.7220   17.6309 O   0  0  0  0  0  0  0  0  0  0  0  0
   73.3345   58.7813   18.3160 O   0  0  0  0  0  0  0  0  0  0  0  0
   74.6436   61.4106   18.4230 O   0  0  0  0  0  0  0  0  0  0  0  0
   72.5874   61.0070   19.2118 O   0  0  0  0  0  0  0  0  0  0  0  0
   65.1894   50.2196   12.9997 O   0  0  0  0  0  0  0  0  0  0  0  0
   69.4776   54.5254   15.7576 S   0  0  1  0  0  6  0  0  0  0  0  0
  1  2  1  0
 16  1  1  0
  1 35  1  6
  2  8  1  1
  2 32  1  0
 32  3  1  0
  3 36  2  0
  3 37  1  0
  4  5  1  0
  4 17  1  0
  4 37  1  6
  5 38  1  0
 17  6  1  0
  6 38  1  6
  6 39  1  0
 18  7  1  0
  7 39  1  0
  8 19  1  0
 10  9  2  0
 14  9  1  0
  9 30  1  0
 11 10  1  0
 12 11  2  0
 12 13  1  0
 41 12  1  0
 13 14  2  0
 15 27  1  0
 31 15  1  0
 31 16  1  0
 17 18  1  6
 19 20  2  0
 19 24  1  0
 20 21  1  0
 21 22  2  0
 23 22  1  0
 24 23  2  0
 30 25  1  1
 28 26  1  0
 27 28  1  0
 27 29  1  1
 30 40  1  0
 41 31  1  6
 41 33  2  0
 41 34  2  0
M  END
$$$$
