
     RDKit          3D

 41 44  0  0  0  0  0  0  0  0999 V2000
   71.1923   56.9509   14.9762 C   0  0  1  0  0  0  0  0  0  0  0  0
   71.2505   57.4752   16.3976 C   0  0  2  0  0  0  0  0  0  0  0  0
   72.7765   58.1377   18.2102 C   0  0  0  0  0  0  0  0  0  0  0  0
   74.4768   59.1826   19.6552 C   0  0  1  0  0  0  0  0  0  0  0  0
   75.7013   60.0104   19.3901 C   0  0  0  0  0  0  0  0  0  0  0  0
   74.1303   61.4197   20.1828 C   0  0  1  0  0  0  0  0  0  0  0  0
   71.9506   61.0927   19.7400 C   0  0  0  0  0  0  0  0  0  0  0  0
   70.4593   58.7773   16.4172 C   0  0  0  0  0  0  0  0  0  0  0  0
   66.7403   51.1458   13.4110 C   0  0  0  0  0  0  0  0  0  0  0  0
   67.7499   50.6086   14.1889 C   0  0  0  0  0  0  0  0  0  0  0  0
   68.4785   51.4514   15.0196 C   0  0  0  0  0  0  0  0  0  0  0  0
   68.2372   52.7920   15.0993 C   0  0  0  0  0  0  0  0  0  0  0  0
   67.2323   53.3244   14.3249 C   0  0  0  0  0  0  0  0  0  0  0  0
   66.4745   52.5087   13.4735 C   0  0  0  0  0  0  0  0  0  0  0  0
   71.3432   53.9597   14.6060 C   0  0  0  0  0  0  0  0  0  0  0  0
   70.0327   55.9608   14.8244 C   0  0  0  0  0  0  0  0  0  0  0  0
   73.8072   60.0559   20.7297 C   0  0  1  0  0  0  0  0  0  0  0  0
   72.3168   59.9341   20.6453 C   0  0  0  0  0  0  0  0  0  0  0  0
   69.6963   58.9340   17.6625 C   0  0  0  0  0  0  0  0  0  0  0  0
   68.9973   60.0748   17.9602 C   0  0  0  0  0  0  0  0  0  0  0  0
   68.2790   60.2069   19.1511 C   0  0  0  0  0  0  0  0  0  0  0  0
   68.2630   59.1697   20.0618 C   0  0  0  0  0  0  0  0  0  0  0  0
   68.9639   58.0241   19.7634 C   0  0  0  0  0  0  0  0  0  0  0  0
   69.6734   57.9028   18.5792 C   0  0  0  0  0  0  0  0  0  0  0  0
   66.1670   50.7288   11.0848 C   0  0  0  0  0  0  0  0  0  0  0  0
   73.8755   52.5777   13.8486 C   0  0  0  0  0  0  0  0  0  0  0  0
   72.6088   54.6724   14.2336 C   0  0  2  0  0  0  0  0  0  0  0  0
   73.3937   53.8430   13.1895 C   0  0  0  0  0  0  0  0  0  0  0  0
   73.4615   54.9097   15.4391 C   0  0  0  0  0  0  0  0  0  0  0  0
   65.9288   50.2578   12.5116 C   0  0  1  0  0  0  0  0  0  0  0  0
   70.3850   54.6738   15.3379 N   0  0  0  0  0  0  0  0  0  0  0  0
   72.5731   57.7393   16.8608 N   0  0  0  0  0  0  0  0  0  0  0  0
   68.1419   54.9183   16.5964 O   0  0  0  0  0  0  0  0  0  0  0  0
   69.5243   53.1248   17.3765 O   0  0  0  0  0  0  0  0  0  0  0  0
   70.8066   58.0548   14.1801 O   0  0  0  0  0  0  0  0  0  0  0  0
   72.2121   57.4992   19.1480 O   0  0  0  0  0  0  0  0  0  0  0  0
   73.5736   59.2071   18.5507 O   0  0  0  0  0  0  0  0  0  0  0  0
   75.3449   61.3398   19.5266 O   0  0  0  0  0  0  0  0  0  0  0  0
   73.1422   61.5921   19.2140 O   0  0  0  0  0  0  0  0  0  0  0  0
   66.4155   48.9336   12.5517 O   0  0  0  0  0  0  0  0  0  0  0  0
   69.1498   53.8582   16.1388 S   0  0  1  0  0  6  0  0  0  0  0  0
  1  2  1  0
 16  1  1  0
  1 35  1  6
  2  8  1  6
  2 32  1  0
 32  3  1  0
  3 36  2  0
  3 37  1  0
  4  5  1  0
  4 17  1  0
  4 37  1  6
  5 38  1  0
 17  6  1  0
  6 38  1  6
  6 39  1  0
 18  7  1  0
  7 39  1  0
  8 19  1  0
 10  9  2  0
 14  9  1  0
  9 30  1  0
 11 10  1  0
 12 11  2  0
 12 13  1  0
 41 12  1  0
 13 14  2  0
 15 27  1  0
 31 15  1  0
 31 16  1  0
 17 18  1  6
 19 20  2  0
 19 24  1  0
 20 21  1  0
 21 22  2  0
 23 22  1  0
 24 23  2  0
 30 25  1  6
 28 26  1  0
 27 28  1  0
 27 29  1  1
 30 40  1  0
 41 31  1  6
 41 33  2  0
 41 34  2  0
M  END
$$$$
