
     RDKit          3D

 41 44  0  0  0  0  0  0  0  0999 V2000
   71.4048   57.3245   15.2816 C   0  0  1  0  0  0  0  0  0  0  0  0
   71.1244   57.7508   16.7093 C   0  0  2  0  0  0  0  0  0  0  0  0
   72.8703   58.5583   18.2431 C   0  0  0  0  0  0  0  0  0  0  0  0
   74.7566   59.2316   19.6781 C   0  0  1  0  0  0  0  0  0  0  0  0
   76.0462   59.9608   19.4322 C   0  0  0  0  0  0  0  0  0  0  0  0
   74.6821   61.4056   20.4974 C   0  0  1  0  0  0  0  0  0  0  0  0
   72.4586   61.3564   20.1693 C   0  0  0  0  0  0  0  0  0  0  0  0
   69.6794   58.2331   16.7469 C   0  0  0  0  0  0  0  0  0  0  0  0
   70.6969   49.5933   15.5953 C   0  0  0  0  0  0  0  0  0  0  0  0
   69.5764   50.3474   15.2975 C   0  0  0  0  0  0  0  0  0  0  0  0
   69.6245   51.7239   15.4824 C   0  0  0  0  0  0  0  0  0  0  0  0
   70.7364   52.3638   15.9471 C   0  0  0  0  0  0  0  0  0  0  0  0
   71.8502   51.6119   16.2424 C   0  0  0  0  0  0  0  0  0  0  0  0
   71.8425   50.2209   16.0704 C   0  0  0  0  0  0  0  0  0  0  0  0
   70.8874   54.9634   13.6535 C   0  0  0  0  0  0  0  0  0  0  0  0
   72.2821   56.0682   15.2671 C   0  0  0  0  0  0  0  0  0  0  0  0
   74.2457   60.0217   20.8947 C   0  0  1  0  0  0  0  0  0  0  0  0
   72.7485   60.0604   20.8990 C   0  0  0  0  0  0  0  0  0  0  0  0
   69.2913   58.6907   18.0876 C   0  0  0  0  0  0  0  0  0  0  0  0
   68.9297   57.8243   19.0864 C   0  0  0  0  0  0  0  0  0  0  0  0
   68.5611   58.2780   20.3551 C   0  0  0  0  0  0  0  0  0  0  0  0
   68.5561   59.6317   20.6255 C   0  0  0  0  0  0  0  0  0  0  0  0
   68.9193   60.5018   19.6237 C   0  0  0  0  0  0  0  0  0  0  0  0
   69.2835   60.0417   18.3683 C   0  0  0  0  0  0  0  0  0  0  0  0
   70.0829   47.4920   16.6542 C   0  0  0  0  0  0  0  0  0  0  0  0
   71.0043   53.3236   11.7215 C   0  0  0  0  0  0  0  0  0  0  0  0
   71.6397   55.5837   12.5144 C   0  0  2  0  0  0  0  0  0  0  0  0
   71.6994   54.5986   11.3227 C   0  0  0  0  0  0  0  0  0  0  0  0
   73.0255   55.9597   12.9326 C   0  0  0  0  0  0  0  0  0  0  0  0
   70.6780   48.1047   15.3954 C   0  0  1  0  0  0  0  0  0  0  0  0
   71.5212   54.9140   14.9022 N   0  0  0  0  0  0  0  0  0  0  0  0
   71.9676   58.8034   17.1726 N   0  0  0  0  0  0  0  0  0  0  0  0
   69.3392   54.5402   16.2344 O   0  0  0  0  0  0  0  0  0  0  0  0
   71.3385   54.3748   17.5427 O   0  0  0  0  0  0  0  0  0  0  0  0
   70.1637   56.8814   14.7673 O   0  0  0  0  0  0  0  0  0  0  0  0
   72.8325   57.4515   18.8589 O   0  0  0  0  0  0  0  0  0  0  0  0
   73.8010   59.4875   18.6497 O   0  0  0  0  0  0  0  0  0  0  0  0
   75.8425   61.2904   19.7542 O   0  0  0  0  0  0  0  0  0  0  0  0
   73.6656   61.7984   19.6273 O   0  0  0  0  0  0  0  0  0  0  0  0
   69.7893   47.7552   14.3561 O   0  0  0  0  0  0  0  0  0  0  0  0
   70.8043   54.0927   16.1844 S   0  0  1  0  0  6  0  0  0  0  0  0
  1  2  1  0
 16  1  1  0
  1 35  1  1
  2  8  1  6
  2 32  1  0
 32  3  1  0
  3 36  2  0
  3 37  1  0
  4  5  1  0
  4 17  1  0
  4 37  1  6
  5 38  1  0
 17  6  1  0
  6 38  1  6
  6 39  1  0
 18  7  1  0
  7 39  1  0
  8 19  1  0
 10  9  2  0
 14  9  1  0
  9 30  1  0
 11 10  1  0
 12 11  2  0
 12 13  1  0
 41 12  1  0
 13 14  2  0
 15 27  1  0
 31 15  1  0
 31 16  1  0
 17 18  1  6
 19 20  2  0
 19 24  1  0
 20 21  1  0
 21 22  2  0
 23 22  1  0
 24 23  2  0
 30 25  1  1
 28 26  1  0
 27 28  1  0
 27 29  1  1
 30 40  1  0
 41 31  1  6
 41 33  2  0
 41 34  2  0
M  END
$$$$
