
     RDKit          3D

 69 71  0  0  0  0  0  0  0  0999 V2000
   15.6160    5.2921    8.7323 N   0  0  0  0  0  4  0  0  0  0  0  0
   14.4339    5.8867    8.1015 C   0  0  2  0  0  0  0  0  0  0  0  0
   13.5207    4.8420    7.6024 C   0  0  0  0  0  0  0  0  0  0  0  0
   14.0001    3.7937    7.0592 O   0  0  0  0  0  0  0  0  0  0  0  0
   14.8415    6.8041    6.9682 C   0  0  2  0  0  0  0  0  0  0  0  0
   15.7533    6.1629    6.1102 O   0  0  0  0  0  0  0  0  0  0  0  0
   15.4811    8.0437    7.5632 C   0  0  0  0  0  0  0  0  0  0  0  0
   12.1131    4.9107    7.6796 N   0  0  0  0  0  0  0  0  0  0  0  0
   11.2747    3.8384    7.1278 C   0  0  2  0  0  0  0  0  0  0  0  0
   11.3414    3.9271    5.6191 C   0  0  0  0  0  0  0  0  0  0  0  0
   12.1763    4.6511    5.0702 O   0  0  0  0  0  0  0  0  0  0  0  0
    9.8717    4.1241    7.5556 C   0  0  0  0  0  0  0  0  0  0  0  0
    8.8633    3.1634    7.1276 C   0  0  0  0  0  0  0  0  0  0  0  0
    9.0399    1.8321    7.5414 O   0  0  0  0  0  0  0  0  0  0  0  0
    7.8857    3.4626    6.4354 O   0  0  0  0  0  0  0  0  0  0  0  0
   10.4363    3.1718    4.8285 N   0  0  0  0  0  0  0  0  0  0  0  0
   10.3753    3.2398    3.3575 C   0  0  2  0  0  0  0  0  0  0  0  0
    9.0019    3.4010    2.8657 C   0  0  0  0  0  0  0  0  0  0  0  0
    8.2666    2.3721    2.7849 O   0  0  0  0  0  0  0  0  0  0  0  0
   11.0749    1.9919    2.8455 C   0  0  0  0  0  0  0  0  0  0  0  0
   10.9925    2.0248    1.3299 C   0  0  1  0  0  0  0  0  0  0  0  0
   12.1697    1.1929    0.8342 C   0  0  0  0  0  0  0  0  0  0  0  0
    9.7172    1.4115    0.8440 C   0  0  0  0  0  0  0  0  0  0  0  0
    8.4631    4.6357    2.4834 N   0  0  0  0  0  0  0  0  0  0  0  0
    7.2097    5.2178    2.8171 C   0  0  2  0  0  0  0  0  0  0  0  0
    6.1767    4.9872    1.7861 C   0  0  0  0  0  0  0  0  0  0  0  0
    5.3059    4.0589    1.9651 O   0  0  0  0  0  0  0  0  0  0  0  0
    7.4844    6.7228    2.9515 C   0  0  0  0  0  0  0  0  0  0  0  0
    8.5680    6.9478    1.9134 C   0  0  0  0  0  0  0  0  0  0  0  0
    9.1901    5.6134    1.6447 C   0  0  0  0  0  0  0  0  0  0  0  0
    6.0225    5.6972    0.5695 N   0  0  0  0  0  0  0  0  0  0  0  0
    4.7850    5.6962   -0.1568 C   0  0  1  0  0  0  0  0  0  0  0  0
    4.6264    4.2753   -0.7787 C   0  0  0  0  0  0  0  0  0  0  0  0
    5.8708    3.9305   -1.2787 O   0  0  0  0  0  0  0  0  0  0  0  0
    3.5719    5.8677    0.6619 C   0  0  0  0  0  0  0  0  0  0  0  0
    3.2236    6.9915    1.0396 O   0  0  0  0  0  0  0  0  0  0  0  0
    6.1231    4.6089   -2.7927 P   0  0  1  0  0  5  0  0  0  0  0  0
    7.4908    5.2834   -2.7746 O   0  0  0  0  0  0  0  0  0  0  0  0
    6.0755    3.4620   -4.0389 O   0  0  0  0  0  0  0  0  0  0  0  0
    4.9360    5.7887   -3.0901 O   0  0  0  0  0  0  0  0  0  0  0  0
    2.7710    4.7367    1.0389 N   0  0  0  0  0  0  0  0  0  0  0  0
    1.3439    4.7761    1.2176 C   0  0  2  0  0  0  0  0  0  0  0  0
    0.8913    3.4012    1.5098 C   0  0  0  0  0  0  0  0  0  0  0  0
    0.8620    2.5903    0.5141 O   0  0  0  0  0  0  0  0  0  0  0  0
    0.6321    5.3721    0.0252 C   0  0  0  0  0  0  0  0  0  0  0  0
   -0.8001    5.4811    0.3169 C   0  0  0  0  0  0  0  0  0  0  0  0
   -1.4055    6.7569    0.2960 O   0  0  0  0  0  0  0  0  0  0  0  0
   -1.5743    4.5361    0.5911 O   0  0  0  0  0  0  0  0  0  0  0  0
    0.4926    2.9063    2.7719 N   0  0  0  0  0  0  0  0  0  0  0  0
    0.0661    1.5573    3.0247 C   0  0  2  0  0  0  0  0  0  0  0  0
   -1.4075    1.4493    2.9944 C   0  0  0  0  0  0  0  0  0  0  0  0
   -2.0885    2.4935    3.1164 O   0  0  0  0  0  0  0  0  0  0  0  0
    0.6645    1.2743    4.3871 C   0  0  0  0  0  0  0  0  0  0  0  0
    0.6049    2.6122    5.0745 C   0  0  0  0  0  0  0  0  0  0  0  0
    0.4519    3.6479    3.9879 C   0  0  0  0  0  0  0  0  0  0  0  0
   -2.0795    0.2088    2.8323 N   0  0  0  0  0  0  0  0  0  0  0  0
   -3.4553    0.0101    2.4790 C   0  0  2  0  0  0  0  0  0  0  0  0
   -4.3406   -0.0183    3.6768 C   0  0  0  0  0  0  0  0  0  0  0  0
   -4.4222   -1.0450    4.3485 O   0  0  0  0  0  0  0  0  0  0  0  0
   -3.5205   -1.2634    1.6980 C   0  0  0  0  0  0  0  0  0  0  0  0
   -2.1293   -1.8430    1.7744 C   0  0  0  0  0  0  0  0  0  0  0  0
   -1.5078   -1.1352    2.9970 C   0  0  0  0  0  0  0  0  0  0  0  0
   -5.0819    1.1408    4.0300 N   0  0  0  0  0  0  0  0  0  0  0  0
   -6.1426    1.1409    5.0143 C   0  0  2  0  0  0  0  0  0  0  0  0
   -7.1739    0.1716    4.5870 C   0  0  0  0  0  0  0  0  0  0  0  0
   -8.2055    0.0040    5.2756 O   0  0  0  0  0  0  0  0  0  0  0  0
   -6.8027    2.5243    4.9681 C   0  0  0  0  0  0  0  0  0  0  0  0
   -7.8989    2.5825    5.7964 O   0  0  0  0  0  0  0  0  0  0  0  0
   -7.0387   -0.5858    3.4131 O   0  0  0  0  0  0  0  0  0  0  0  0
  2  1  1  6
  2  3  1  0
  2  5  1  0
  3  4  2  0
  3  8  1  0
  5  6  1  0
  5  7  1  1
  8  9  1  0
  9 10  1  0
  9 12  1  1
 10 11  2  0
 10 16  1  0
 12 13  1  0
 13 14  1  0
 13 15  2  0
 16 17  1  0
 17 18  1  0
 17 20  1  6
 18 19  2  0
 18 24  1  0
 20 21  1  0
 21 22  1  6
 21 23  1  0
 24 25  1  0
 24 30  1  0
 25 26  1  6
 25 28  1  0
 26 27  2  0
 26 31  1  0
 28 29  1  0
 29 30  1  0
 31 32  1  0
 32 33  1  1
 32 35  1  0
 33 34  1  0
 34 37  1  0
 35 36  2  0
 35 41  1  0
 37 38  2  0
 37 39  1  6
 37 40  1  0
 41 42  1  0
 42 43  1  0
 42 45  1  6
 43 44  2  0
 43 49  1  0
 45 46  1  0
 46 47  1  0
 46 48  2  0
 49 50  1  0
 49 55  1  0
 50 51  1  1
 50 53  1  0
 51 52  2  0
 51 56  1  0
 53 54  1  0
 54 55  1  0
 56 57  1  0
 56 62  1  0
 57 58  1  1
 57 60  1  0
 58 59  2  0
 58 63  1  0
 60 61  1  0
 61 62  1  0
 63 64  1  0
 64 65  1  0
 64 67  1  6
 65 66  2  0
 65 69  1  0
 67 68  1  0
M  CHG  1   1   1
M  END
$$$$
