
     RDKit          3D

 69 71  0  0  0  0  0  0  0  0999 V2000
   -6.6839    3.8583   13.0007 N   0  0  0  0  0  4  0  0  0  0  0  0
   -5.3101    3.5084   13.3739 C   0  0  2  0  0  0  0  0  0  0  0  0
   -4.6929    2.6375   12.3566 C   0  0  0  0  0  0  0  0  0  0  0  0
   -5.3608    1.6684   11.8682 O   0  0  0  0  0  0  0  0  0  0  0  0
   -5.2842    2.8265   14.7254 C   0  0  2  0  0  0  0  0  0  0  0  0
   -6.0825    1.6684   14.7156 O   0  0  0  0  0  0  0  0  0  0  0  0
   -5.8068    3.8015   15.7627 C   0  0  0  0  0  0  0  0  0  0  0  0
   -3.3796    2.7946   11.8639 N   0  0  0  0  0  0  0  0  0  0  0  0
   -2.8609    1.9163   10.8071 C   0  0  2  0  0  0  0  0  0  0  0  0
   -1.4117    2.2805   10.5710 C   0  0  0  0  0  0  0  0  0  0  0  0
   -1.0362    3.4520   10.6670 O   0  0  0  0  0  0  0  0  0  0  0  0
   -3.6340    2.2296    9.5673 C   0  0  0  0  0  0  0  0  0  0  0  0
   -3.1947    1.5575    8.3514 C   0  0  0  0  0  0  0  0  0  0  0  0
   -2.8893    0.1900    8.4580 O   0  0  0  0  0  0  0  0  0  0  0  0
   -3.0833    2.1243    7.2603 O   0  0  0  0  0  0  0  0  0  0  0  0
   -0.4762    1.2668   10.2362 N   0  0  0  0  0  0  0  0  0  0  0  0
    0.9847    1.4288   10.3425 C   0  0  2  0  0  0  0  0  0  0  0  0
    1.6286    1.5362    9.0280 C   0  0  0  0  0  0  0  0  0  0  0  0
    1.8685    0.4702    8.3861 O   0  0  0  0  0  0  0  0  0  0  0  0
    1.4808    0.2639   11.1828 C   0  0  0  0  0  0  0  0  0  0  0  0
    2.9248    0.5598   11.5466 C   0  0  1  0  0  0  0  0  0  0  0  0
    3.4155    1.5614   10.5075 C   0  0  0  0  0  0  0  0  0  0  0  0
    3.0250    1.1736   12.9074 C   0  0  0  0  0  0  0  0  0  0  0  0
    1.9890    2.7583    8.4471 N   0  0  0  0  0  0  0  0  0  0  0  0
    1.1736    3.7296    7.8044 C   0  0  2  0  0  0  0  0  0  0  0  0
    1.1545    3.5814    6.3344 C   0  0  0  0  0  0  0  0  0  0  0  0
    0.0514    3.7583    5.6988 O   0  0  0  0  0  0  0  0  0  0  0  0
    1.7846    5.0867    8.1830 C   0  0  0  0  0  0  0  0  0  0  0  0
    3.2649    4.7635    8.2650 C   0  0  0  0  0  0  0  0  0  0  0  0
    3.3721    3.2825    8.4523 C   0  0  0  0  0  0  0  0  0  0  0  0
    2.2541    3.2534    5.5028 N   0  0  0  0  0  0  0  0  0  0  0  0
    2.0958    3.0127    4.0972 C   0  0  1  0  0  0  0  0  0  0  0  0
    2.3232    4.3763    3.3762 C   0  0  0  0  0  0  0  0  0  0  0  0
    2.8715    5.2271    4.3210 O   0  0  0  0  0  0  0  0  0  0  0  0
    3.0967    2.1155    3.4932 C   0  0  0  0  0  0  0  0  0  0  0  0
    2.8121    0.9409    3.2359 O   0  0  0  0  0  0  0  0  0  0  0  0
    2.6820    6.8327    3.8712 P   0  0  1  0  0  5  0  0  0  0  0  0
    3.0675    7.6962    5.0677 O   0  0  0  0  0  0  0  0  0  0  0  0
    3.6387    7.2552    2.5382 O   0  0  0  0  0  0  0  0  0  0  0  0
    1.0518    7.1255    3.4887 O   0  0  0  0  0  0  0  0  0  0  0  0
    4.4207    2.5840    3.1927 N   0  0  0  0  0  0  0  0  0  0  0  0
    5.3198    1.9406    2.2719 C   0  0  2  0  0  0  0  0  0  0  0  0
    5.5699    2.8801    1.1604 C   0  0  0  0  0  0  0  0  0  0  0  0
    4.5397    3.2502    0.4883 O   0  0  0  0  0  0  0  0  0  0  0  0
    4.7919    0.6096    1.7891 C   0  0  0  0  0  0  0  0  0  0  0  0
    5.4718    0.2379    0.5450 C   0  0  0  0  0  0  0  0  0  0  0  0
    6.4929    1.0776    0.0481 O   0  0  0  0  0  0  0  0  0  0  0  0
    5.2412   -0.7774   -0.1505 O   0  0  0  0  0  0  0  0  0  0  0  0
    6.8264    3.4002    0.7763 N   0  0  0  0  0  0  0  0  0  0  0  0
    7.0148    4.4999   -0.1296 C   0  0  2  0  0  0  0  0  0  0  0  0
    7.2727    4.0208   -1.5037 C   0  0  0  0  0  0  0  0  0  0  0  0
    7.3751    2.7880   -1.7002 O   0  0  0  0  0  0  0  0  0  0  0  0
    8.1892    5.2331    0.4848 C   0  0  0  0  0  0  0  0  0  0  0  0
    9.0134    4.1243    1.0825 C   0  0  0  0  0  0  0  0  0  0  0  0
    8.0974    2.9330    1.2193 C   0  0  0  0  0  0  0  0  0  0  0  0
    7.4084    4.9036   -2.6078 N   0  0  0  0  0  0  0  0  0  0  0  0
    7.3600    4.5614   -3.9999 C   0  0  2  0  0  0  0  0  0  0  0  0
    8.7011    4.1868   -4.5294 C   0  0  0  0  0  0  0  0  0  0  0  0
    9.5815    5.0409   -4.6150 O   0  0  0  0  0  0  0  0  0  0  0  0
    6.7799    5.7402   -4.7139 C   0  0  0  0  0  0  0  0  0  0  0  0
    6.6576    6.8156   -3.6623 C   0  0  0  0  0  0  0  0  0  0  0  0
    7.6320    6.3554   -2.5574 C   0  0  0  0  0  0  0  0  0  0  0  0
    8.9487    2.8468   -4.9306 N   0  0  0  0  0  0  0  0  0  0  0  0
   10.2454    2.2116   -4.8356 C   0  0  2  0  0  0  0  0  0  0  0  0
   10.0929    0.7862   -5.1967 C   0  0  0  0  0  0  0  0  0  0  0  0
   11.0069    0.1896   -5.8093 O   0  0  0  0  0  0  0  0  0  0  0  0
   10.6573    2.2426   -3.3587 C   0  0  0  0  0  0  0  0  0  0  0  0
   11.8733    2.8629   -3.1924 O   0  0  0  0  0  0  0  0  0  0  0  0
    8.9370    0.0586   -4.8729 O   0  0  0  0  0  0  0  0  0  0  0  0
  2  1  1  6
  2  3  1  0
  2  5  1  0
  3  4  2  0
  3  8  1  0
  5  6  1  0
  5  7  1  1
  8  9  1  0
  9 10  1  0
  9 12  1  6
 10 11  2  0
 10 16  1  0
 12 13  1  0
 13 14  1  0
 13 15  2  0
 16 17  1  0
 17 18  1  0
 17 20  1  6
 18 19  2  0
 18 24  1  0
 20 21  1  0
 21 22  1  6
 21 23  1  0
 24 25  1  0
 24 30  1  0
 25 26  1  6
 25 28  1  0
 26 27  2  0
 26 31  1  0
 28 29  1  0
 29 30  1  0
 31 32  1  0
 32 33  1  6
 32 35  1  0
 33 34  1  0
 34 37  1  0
 35 36  2  0
 35 41  1  0
 37 38  2  0
 37 39  1  6
 37 40  1  0
 41 42  1  0
 42 43  1  0
 42 45  1  6
 43 44  2  0
 43 49  1  0
 45 46  1  0
 46 47  1  0
 46 48  2  0
 49 50  1  0
 49 55  1  0
 50 51  1  6
 50 53  1  0
 51 52  2  0
 51 56  1  0
 53 54  1  0
 54 55  1  0
 56 57  1  0
 56 62  1  0
 57 58  1  6
 57 60  1  0
 58 59  2  0
 58 63  1  0
 60 61  1  0
 61 62  1  0
 63 64  1  0
 64 65  1  0
 64 67  1  1
 65 66  2  0
 65 69  1  0
 67 68  1  0
M  CHG  1   1   1
M  END
$$$$
