
     RDKit          3D

 69 71  0  0  0  0  0  0  0  0999 V2000
   -1.0407    2.8048   15.5500 N   0  0  0  0  0  4  0  0  0  0  0  0
   -0.3599    1.8019   14.7256 C   0  0  2  0  0  0  0  0  0  0  0  0
   -0.3130    2.2237   13.3134 C   0  0  0  0  0  0  0  0  0  0  0  0
   -1.2171    2.9970   12.8569 O   0  0  0  0  0  0  0  0  0  0  0  0
   -1.0505    0.4598   14.8436 C   0  0  2  0  0  0  0  0  0  0  0  0
   -2.3637    0.5285   14.3443 O   0  0  0  0  0  0  0  0  0  0  0  0
   -1.0777    0.0634   16.3071 C   0  0  0  0  0  0  0  0  0  0  0  0
    0.6838    1.8276   12.3961 N   0  0  0  0  0  0  0  0  0  0  0  0
    0.7145    2.3747   11.0334 C   0  0  2  0  0  0  0  0  0  0  0  0
    1.8931    1.7585   10.3126 C   0  0  0  0  0  0  0  0  0  0  0  0
    2.5546    0.8628   10.8445 O   0  0  0  0  0  0  0  0  0  0  0  0
    0.9566    3.8435   11.1634 C   0  0  0  0  0  0  0  0  0  0  0  0
    2.2364    4.2333   11.7405 C   0  0  0  0  0  0  0  0  0  0  0  0
    3.3059    4.4143   10.8471 O   0  0  0  0  0  0  0  0  0  0  0  0
    2.4154    4.4073   12.9497 O   0  0  0  0  0  0  0  0  0  0  0  0
    2.2413    2.2141    9.0141 N   0  0  0  0  0  0  0  0  0  0  0  0
    1.8801    1.5093    7.7712 C   0  0  2  0  0  0  0  0  0  0  0  0
    2.0783    2.3453    6.5813 C   0  0  0  0  0  0  0  0  0  0  0  0
    1.2133    3.2334    6.3185 O   0  0  0  0  0  0  0  0  0  0  0  0
    0.4521    1.0247    7.9579 C   0  0  0  0  0  0  0  0  0  0  0  0
    0.1348    0.1114    6.7872 C   0  0  1  0  0  0  0  0  0  0  0  0
   -0.4427    1.0146    5.7036 C   0  0  0  0  0  0  0  0  0  0  0  0
    1.3713   -0.5517    6.2678 C   0  0  0  0  0  0  0  0  0  0  0  0
    3.1769    2.2117    5.7233 N   0  0  0  0  0  0  0  0  0  0  0  0
    4.2468    3.1148    5.4765 C   0  0  2  0  0  0  0  0  0  0  0  0
    4.0235    3.9572    4.2833 C   0  0  0  0  0  0  0  0  0  0  0  0
    4.7129    3.7378    3.2208 O   0  0  0  0  0  0  0  0  0  0  0  0
    5.4840    2.2298    5.2650 C   0  0  0  0  0  0  0  0  0  0  0  0
    4.8936    1.0035    4.5942 C   0  0  0  0  0  0  0  0  0  0  0  0
    3.4316    1.0001    4.9139 C   0  0  0  0  0  0  0  0  0  0  0  0
    3.1002    5.0253    4.1626 N   0  0  0  0  0  0  0  0  0  0  0  0
    3.4702    6.2851    3.5838 C   0  0  1  0  0  0  0  0  0  0  0  0
    4.2935    7.0539    4.6618 C   0  0  0  0  0  0  0  0  0  0  0  0
    3.5347    7.0280    5.8197 O   0  0  0  0  0  0  0  0  0  0  0  0
    4.3789    6.2060    2.4264 C   0  0  0  0  0  0  0  0  0  0  0  0
    5.0388    7.1911    2.0784 O   0  0  0  0  0  0  0  0  0  0  0  0
    2.6857    8.4618    6.0185 P   0  0  1  0  0  5  0  0  0  0  0  0
    2.7353    9.2155    4.6936 O   0  0  0  0  0  0  0  0  0  0  0  0
    1.0708    8.2088    6.4642 O   0  0  0  0  0  0  0  0  0  0  0  0
    3.4408    9.4065    7.2131 O   0  0  0  0  0  0  0  0  0  0  0  0
    4.5163    4.9874    1.6789 N   0  0  0  0  0  0  0  0  0  0  0  0
    5.5319    4.7538    0.6869 C   0  0  2  0  0  0  0  0  0  0  0  0
    4.8809    4.1272   -0.4811 C   0  0  0  0  0  0  0  0  0  0  0  0
    4.2687    3.0195   -0.2625 O   0  0  0  0  0  0  0  0  0  0  0  0
    6.6750    3.9217    1.2202 C   0  0  0  0  0  0  0  0  0  0  0  0
    7.8849    4.1990    0.4408 C   0  0  0  0  0  0  0  0  0  0  0  0
    8.6356    3.1141   -0.0631 O   0  0  0  0  0  0  0  0  0  0  0  0
    8.3428    5.3302    0.1609 O   0  0  0  0  0  0  0  0  0  0  0  0
    4.8730    4.6328   -1.8007 N   0  0  0  0  0  0  0  0  0  0  0  0
    4.0165    4.1597   -2.8534 C   0  0  2  0  0  0  0  0  0  0  0  0
    4.7085    3.1623   -3.6963 C   0  0  0  0  0  0  0  0  0  0  0  0
    5.8659    2.8057   -3.3765 O   0  0  0  0  0  0  0  0  0  0  0  0
    3.6680    5.4360   -3.5908 C   0  0  0  0  0  0  0  0  0  0  0  0
    4.9170    6.2650   -3.4544 C   0  0  0  0  0  0  0  0  0  0  0  0
    5.6959    5.6831   -2.3004 C   0  0  0  0  0  0  0  0  0  0  0  0
    4.1120    2.5938   -4.8529 N   0  0  0  0  0  0  0  0  0  0  0  0
    4.4314    1.3344   -5.4606 C   0  0  2  0  0  0  0  0  0  0  0  0
    5.5255    1.4603   -6.4637 C   0  0  0  0  0  0  0  0  0  0  0  0
    6.6972    1.4439   -6.0909 O   0  0  0  0  0  0  0  0  0  0  0  0
    3.1668    0.8148   -6.0662 C   0  0  0  0  0  0  0  0  0  0  0  0
    2.1640    1.9301   -5.8999 C   0  0  0  0  0  0  0  0  0  0  0  0
    3.0434    3.1784   -5.6754 C   0  0  0  0  0  0  0  0  0  0  0  0
    5.2040    1.5988   -7.8404 N   0  0  0  0  0  0  0  0  0  0  0  0
    6.1988    1.7156   -8.8848 C   0  0  2  0  0  0  0  0  0  0  0  0
    5.5022    1.9600  -10.1656 C   0  0  0  0  0  0  0  0  0  0  0  0
    5.4305    1.0549  -11.0271 O   0  0  0  0  0  0  0  0  0  0  0  0
    6.8796    0.3478   -9.0161 C   0  0  0  0  0  0  0  0  0  0  0  0
    7.8024    0.3451  -10.0358 O   0  0  0  0  0  0  0  0  0  0  0  0
    4.9047    3.1953  -10.4609 O   0  0  0  0  0  0  0  0  0  0  0  0
  2  1  1  1
  2  3  1  0
  2  5  1  0
  3  4  2  0
  3  8  1  0
  5  6  1  0
  5  7  1  1
  8  9  1  0
  9 10  1  0
  9 12  1  1
 10 11  2  0
 10 16  1  0
 12 13  1  0
 13 14  1  0
 13 15  2  0
 16 17  1  0
 17 18  1  0
 17 20  1  1
 18 19  2  0
 18 24  1  0
 20 21  1  0
 21 22  1  6
 21 23  1  0
 24 25  1  0
 24 30  1  0
 25 26  1  6
 25 28  1  0
 26 27  2  0
 26 31  1  0
 28 29  1  0
 29 30  1  0
 31 32  1  0
 32 33  1  1
 32 35  1  0
 33 34  1  0
 34 37  1  0
 35 36  2  0
 35 41  1  0
 37 38  2  0
 37 39  1  1
 37 40  1  0
 41 42  1  0
 42 43  1  0
 42 45  1  1
 43 44  2  0
 43 49  1  0
 45 46  1  0
 46 47  1  0
 46 48  2  0
 49 50  1  0
 49 55  1  0
 50 51  1  6
 50 53  1  0
 51 52  2  0
 51 56  1  0
 53 54  1  0
 54 55  1  0
 56 57  1  0
 56 62  1  0
 57 58  1  6
 57 60  1  0
 58 59  2  0
 58 63  1  0
 60 61  1  0
 61 62  1  0
 63 64  1  0
 64 65  1  0
 64 67  1  6
 65 66  2  0
 65 69  1  0
 67 68  1  0
M  CHG  1   1   1
M  END
$$$$
