
     RDKit          3D

 69 71  0  0  0  0  0  0  0  0999 V2000
   -4.5093    2.8499   12.2371 N   0  0  0  0  0  4  0  0  0  0  0  0
   -3.1779    2.2372   12.2682 C   0  0  2  0  0  0  0  0  0  0  0  0
   -2.5327    2.3104   10.9443 C   0  0  0  0  0  0  0  0  0  0  0  0
   -2.6131    3.3843   10.2632 O   0  0  0  0  0  0  0  0  0  0  0  0
   -3.2671    0.7959   12.7230 C   0  0  2  0  0  0  0  0  0  0  0  0
   -4.5169    0.2436   12.3891 O   0  0  0  0  0  0  0  0  0  0  0  0
   -3.0733    0.7563   14.2265 C   0  0  0  0  0  0  0  0  0  0  0  0
   -1.8098    1.2535   10.3506 N   0  0  0  0  0  0  0  0  0  0  0  0
   -1.1715    1.4205    9.0384 C   0  0  2  0  0  0  0  0  0  0  0  0
    0.2016    2.0145    9.2627 C   0  0  0  0  0  0  0  0  0  0  0  0
    0.3824    2.8603   10.1428 O   0  0  0  0  0  0  0  0  0  0  0  0
   -1.9955    2.4103    8.2805 C   0  0  0  0  0  0  0  0  0  0  0  0
   -1.6268    2.6166    6.8861 C   0  0  0  0  0  0  0  0  0  0  0  0
   -1.1405    1.4988    6.1869 O   0  0  0  0  0  0  0  0  0  0  0  0
   -1.7220    3.7036    6.3084 O   0  0  0  0  0  0  0  0  0  0  0  0
    1.2907    1.5959    8.4544 N   0  0  0  0  0  0  0  0  0  0  0  0
    2.6491    2.1595    8.5493 C   0  0  2  0  0  0  0  0  0  0  0  0
    2.7799    3.4207    7.8103 C   0  0  0  0  0  0  0  0  0  0  0  0
    1.9089    3.6973    6.9324 O   0  0  0  0  0  0  0  0  0  0  0  0
    3.5957    1.0663    8.0826 C   0  0  0  0  0  0  0  0  0  0  0  0
    3.6661    0.0335    9.1932 C   0  0  1  0  0  0  0  0  0  0  0  0
    4.5945   -1.0615    8.6807 C   0  0  0  0  0  0  0  0  0  0  0  0
    4.2413    0.6214   10.4430 C   0  0  0  0  0  0  0  0  0  0  0  0
    3.8181    4.3347    8.0288 N   0  0  0  0  0  0  0  0  0  0  0  0
    3.9771    5.6580    7.5342 C   0  0  2  0  0  0  0  0  0  0  0  0
    4.8189    5.7205    6.3215 C   0  0  0  0  0  0  0  0  0  0  0  0
    4.2638    5.9275    5.1808 O   0  0  0  0  0  0  0  0  0  0  0  0
    4.6473    6.4393    8.6740 C   0  0  0  0  0  0  0  0  0  0  0  0
    5.5291    5.3837    9.3149 C   0  0  0  0  0  0  0  0  0  0  0  0
    4.9737    4.0547    8.9086 C   0  0  0  0  0  0  0  0  0  0  0  0
    6.2270    5.5736    6.2606 N   0  0  0  0  0  0  0  0  0  0  0  0
    6.9381    5.5970    5.0145 C   0  0  1  0  0  0  0  0  0  0  0  0
    8.4455    5.3820    5.3497 C   0  0  0  0  0  0  0  0  0  0  0  0
    9.0637    5.0488    4.1564 O   0  0  0  0  0  0  0  0  0  0  0  0
    6.6170    4.5011    4.0833 C   0  0  0  0  0  0  0  0  0  0  0  0
    6.6768    3.3241    4.4551 O   0  0  0  0  0  0  0  0  0  0  0  0
   10.7106    4.8113    4.3743 P   0  0  1  0  0  5  0  0  0  0  0  0
   11.3475    4.6964    2.9935 O   0  0  0  0  0  0  0  0  0  0  0  0
   11.4452    6.0745    5.2318 O   0  0  0  0  0  0  0  0  0  0  0  0
   10.9668    3.3573    5.2169 O   0  0  0  0  0  0  0  0  0  0  0  0
    6.2304    4.7750    2.7275 N   0  0  0  0  0  0  0  0  0  0  0  0
    5.7669    3.7789    1.7985 C   0  0  2  0  0  0  0  0  0  0  0  0
    6.5634    3.9147    0.5624 C   0  0  0  0  0  0  0  0  0  0  0  0
    6.7602    5.1128    0.1436 O   0  0  0  0  0  0  0  0  0  0  0  0
    4.2823    3.8835    1.5375 C   0  0  0  0  0  0  0  0  0  0  0  0
    3.8929    2.8907    0.5321 C   0  0  0  0  0  0  0  0  0  0  0  0
    2.8192    2.0179    0.8149 O   0  0  0  0  0  0  0  0  0  0  0  0
    4.4237    2.7249   -0.5897 O   0  0  0  0  0  0  0  0  0  0  0  0
    7.1202    2.8560   -0.1900 N   0  0  0  0  0  0  0  0  0  0  0  0
    7.8935    3.0229   -1.3899 C   0  0  2  0  0  0  0  0  0  0  0  0
    7.0507    2.8661   -2.5938 C   0  0  0  0  0  0  0  0  0  0  0  0
    6.0173    2.1626   -2.5154 O   0  0  0  0  0  0  0  0  0  0  0  0
    8.9520    1.9487   -1.2495 C   0  0  0  0  0  0  0  0  0  0  0  0
    8.2266    0.8413   -0.5330 C   0  0  0  0  0  0  0  0  0  0  0  0
    7.0147    1.4676    0.1120 C   0  0  0  0  0  0  0  0  0  0  0  0
    7.3675    3.4817   -3.8336 N   0  0  0  0  0  0  0  0  0  0  0  0
    6.4632    4.1522   -4.7224 C   0  0  2  0  0  0  0  0  0  0  0  0
    5.8417    3.2141   -5.6986 C   0  0  0  0  0  0  0  0  0  0  0  0
    5.0239    2.3832   -5.3075 O   0  0  0  0  0  0  0  0  0  0  0  0
    7.2444    5.2340   -5.3972 C   0  0  0  0  0  0  0  0  0  0  0  0
    8.6712    5.0242   -4.9528 C   0  0  0  0  0  0  0  0  0  0  0  0
    8.6895    3.5580   -4.4713 C   0  0  0  0  0  0  0  0  0  0  0  0
    6.2009    3.2886   -7.0709 N   0  0  0  0  0  0  0  0  0  0  0  0
    5.3765    2.7699   -8.1411 C   0  0  2  0  0  0  0  0  0  0  0  0
    6.0485    3.0561   -9.4265 C   0  0  0  0  0  0  0  0  0  0  0  0
    5.8525    2.3184  -10.4184 O   0  0  0  0  0  0  0  0  0  0  0  0
    4.0747    3.5804   -8.1430 C   0  0  0  0  0  0  0  0  0  0  0  0
    3.3177    3.3067   -9.2580 O   0  0  0  0  0  0  0  0  0  0  0  0
    6.9178    4.1471   -9.5821 O   0  0  0  0  0  0  0  0  0  0  0  0
  2  1  1  6
  2  3  1  0
  2  5  1  0
  3  4  2  0
  3  8  1  0
  5  6  1  0
  5  7  1  1
  8  9  1  0
  9 10  1  0
  9 12  1  6
 10 11  2  0
 10 16  1  0
 12 13  1  0
 13 14  1  0
 13 15  2  0
 16 17  1  0
 17 18  1  0
 17 20  1  6
 18 19  2  0
 18 24  1  0
 20 21  1  0
 21 22  1  6
 21 23  1  0
 24 25  1  0
 24 30  1  0
 25 26  1  6
 25 28  1  0
 26 27  2  0
 26 31  1  0
 28 29  1  0
 29 30  1  0
 31 32  1  0
 32 33  1  1
 32 35  1  0
 33 34  1  0
 34 37  1  0
 35 36  2  0
 35 41  1  0
 37 38  2  0
 37 39  1  1
 37 40  1  0
 41 42  1  0
 42 43  1  0
 42 45  1  6
 43 44  2  0
 43 49  1  0
 45 46  1  0
 46 47  1  0
 46 48  2  0
 49 50  1  0
 49 55  1  0
 50 51  1  6
 50 53  1  0
 51 52  2  0
 51 56  1  0
 53 54  1  0
 54 55  1  0
 56 57  1  0
 56 62  1  0
 57 58  1  6
 57 60  1  0
 58 59  2  0
 58 63  1  0
 60 61  1  0
 61 62  1  0
 63 64  1  0
 64 65  1  0
 64 67  1  6
 65 66  2  0
 65 69  1  0
 67 68  1  0
M  CHG  1   1   1
M  END
$$$$
