
     RDKit          3D

 69 71  0  0  0  0  0  0  0  0999 V2000
    8.3387    4.3083   15.5371 N   0  0  0  0  0  4  0  0  0  0  0  0
    7.8620    3.3671   14.5193 C   0  0  2  0  0  0  0  0  0  0  0  0
    8.4945    3.6361   13.2147 C   0  0  0  0  0  0  0  0  0  0  0  0
    9.1980    4.6874   13.0608 O   0  0  0  0  0  0  0  0  0  0  0  0
    6.3554    3.4419   14.3908 C   0  0  2  0  0  0  0  0  0  0  0  0
    5.9103    4.7716   14.5023 O   0  0  0  0  0  0  0  0  0  0  0  0
    5.7394    2.6002   15.4917 C   0  0  0  0  0  0  0  0  0  0  0  0
    8.3802    2.7970   12.0856 N   0  0  0  0  0  0  0  0  0  0  0  0
    9.0667    3.1259   10.8295 C   0  0  2  0  0  0  0  0  0  0  0  0
    8.0293    3.1598    9.7290 C   0  0  0  0  0  0  0  0  0  0  0  0
    7.4627    2.1241    9.3696 O   0  0  0  0  0  0  0  0  0  0  0  0
   10.0149    2.0053   10.5495 C   0  0  0  0  0  0  0  0  0  0  0  0
   10.7638    2.0962    9.3030 C   0  0  0  0  0  0  0  0  0  0  0  0
   10.5430    3.2368    8.5125 O   0  0  0  0  0  0  0  0  0  0  0  0
   11.5637    1.2359    8.9230 O   0  0  0  0  0  0  0  0  0  0  0  0
    7.7050    4.3924    9.1043 N   0  0  0  0  0  0  0  0  0  0  0  0
    6.7287    4.5270    8.0085 C   0  0  2  0  0  0  0  0  0  0  0  0
    6.3689    3.2301    7.4231 C   0  0  0  0  0  0  0  0  0  0  0  0
    7.2210    2.6421    6.6923 O   0  0  0  0  0  0  0  0  0  0  0  0
    7.3345    5.5076    7.0184 C   0  0  0  0  0  0  0  0  0  0  0  0
    6.2859    5.7696    5.9523 C   0  0  1  0  0  0  0  0  0  0  0  0
    6.3629    4.5842    4.9970 C   0  0  0  0  0  0  0  0  0  0  0  0
    4.9144    5.8342    6.5468 C   0  0  0  0  0  0  0  0  0  0  0  0
    5.1316    2.6091    7.6340 N   0  0  0  0  0  0  0  0  0  0  0  0
    4.6758    1.3324    7.2059 C   0  0  2  0  0  0  0  0  0  0  0  0
    3.8941    1.3921    5.9534 C   0  0  0  0  0  0  0  0  0  0  0  0
    4.3049    0.7408    4.9242 O   0  0  0  0  0  0  0  0  0  0  0  0
    3.7900    0.8139    8.3483 C   0  0  0  0  0  0  0  0  0  0  0  0
    3.1661    2.0912    8.8791 C   0  0  0  0  0  0  0  0  0  0  0  0
    4.0440    3.2173    8.4310 C   0  0  0  0  0  0  0  0  0  0  0  0
    2.6925    2.1121    5.7397 N   0  0  0  0  0  0  0  0  0  0  0  0
    2.0179    2.1018    4.4733 C   0  0  1  0  0  0  0  0  0  0  0  0
    0.5469    2.5443    4.7405 C   0  0  0  0  0  0  0  0  0  0  0  0
   -0.1260    2.3965    3.5394 O   0  0  0  0  0  0  0  0  0  0  0  0
    2.5130    3.0771    3.4858 C   0  0  0  0  0  0  0  0  0  0  0  0
    3.1649    4.0620    3.8492 O   0  0  0  0  0  0  0  0  0  0  0  0
   -1.7803    2.2605    3.7861 P   0  0  1  0  0  5  0  0  0  0  0  0
   -2.1926    3.3536    4.7664 O   0  0  0  0  0  0  0  0  0  0  0  0
   -2.6702    2.4218    2.3534 O   0  0  0  0  0  0  0  0  0  0  0  0
   -2.1276    0.7471    4.4778 O   0  0  0  0  0  0  0  0  0  0  0  0
    2.2486    2.9064    2.0845 N   0  0  0  0  0  0  0  0  0  0  0  0
    2.7972    3.7396    1.0476 C   0  0  2  0  0  0  0  0  0  0  0  0
    1.9181    3.6219   -0.1330 C   0  0  0  0  0  0  0  0  0  0  0  0
    1.3862    2.4697   -0.3313 O   0  0  0  0  0  0  0  0  0  0  0  0
    4.2327    3.3907    0.7299 C   0  0  0  0  0  0  0  0  0  0  0  0
    5.0582    4.5988    0.8149 C   0  0  0  0  0  0  0  0  0  0  0  0
    4.5337    5.7397    1.4610 O   0  0  0  0  0  0  0  0  0  0  0  0
    6.2180    4.7367    0.3637 O   0  0  0  0  0  0  0  0  0  0  0  0
    1.6152    4.6520   -1.0517 N   0  0  0  0  0  0  0  0  0  0  0  0
    0.7025    4.5231   -2.1544 C   0  0  2  0  0  0  0  0  0  0  0  0
    1.4202    4.2029   -3.4061 C   0  0  0  0  0  0  0  0  0  0  0  0
    2.6516    4.4243   -3.4653 O   0  0  0  0  0  0  0  0  0  0  0  0
    0.0229    5.8765   -2.1772 C   0  0  0  0  0  0  0  0  0  0  0  0
    1.1111    6.8164   -1.7318 C   0  0  0  0  0  0  0  0  0  0  0  0
    2.1509    5.9722   -1.0368 C   0  0  0  0  0  0  0  0  0  0  0  0
    0.7677    3.6546   -4.5420 N   0  0  0  0  0  0  0  0  0  0  0  0
    1.3720    2.9210   -5.6163 C   0  0  2  0  0  0  0  0  0  0  0  0
    1.8478    3.8180   -6.7063 C   0  0  0  0  0  0  0  0  0  0  0  0
    1.4062    4.9627   -6.7882 O   0  0  0  0  0  0  0  0  0  0  0  0
    0.3506    1.9404   -6.0970 C   0  0  0  0  0  0  0  0  0  0  0  0
   -0.9081    2.2792   -5.3367 C   0  0  0  0  0  0  0  0  0  0  0  0
   -0.6655    3.7269   -4.8598 C   0  0  0  0  0  0  0  0  0  0  0  0
    2.8062    3.3414   -7.6403 N   0  0  0  0  0  0  0  0  0  0  0  0
    3.4320    4.1797   -8.6401 C   0  0  2  0  0  0  0  0  0  0  0  0
    2.4174    4.5266   -9.6577 C   0  0  0  0  0  0  0  0  0  0  0  0
    2.7477    5.1539  -10.6892 O   0  0  0  0  0  0  0  0  0  0  0  0
    4.4856    3.3235   -9.3532 C   0  0  0  0  0  0  0  0  0  0  0  0
    5.1150    4.0330  -10.3490 O   0  0  0  0  0  0  0  0  0  0  0  0
    1.0672    4.1728   -9.5095 O   0  0  0  0  0  0  0  0  0  0  0  0
  2  1  1  1
  2  3  1  0
  2  5  1  0
  3  4  2  0
  3  8  1  0
  5  6  1  0
  5  7  1  1
  8  9  1  0
  9 10  1  0
  9 12  1  6
 10 11  2  0
 10 16  1  0
 12 13  1  0
 13 14  1  0
 13 15  2  0
 16 17  1  0
 17 18  1  0
 17 20  1  6
 18 19  2  0
 18 24  1  0
 20 21  1  0
 21 22  1  6
 21 23  1  0
 24 25  1  0
 24 30  1  0
 25 26  1  6
 25 28  1  0
 26 27  2  0
 26 31  1  0
 28 29  1  0
 29 30  1  0
 31 32  1  0
 32 33  1  1
 32 35  1  0
 33 34  1  0
 34 37  1  0
 35 36  2  0
 35 41  1  0
 37 38  2  0
 37 39  1  6
 37 40  1  0
 41 42  1  0
 42 43  1  0
 42 45  1  6
 43 44  2  0
 43 49  1  0
 45 46  1  0
 46 47  1  0
 46 48  2  0
 49 50  1  0
 49 55  1  0
 50 51  1  6
 50 53  1  0
 51 52  2  0
 51 56  1  0
 53 54  1  0
 54 55  1  0
 56 57  1  0
 56 62  1  0
 57 58  1  6
 57 60  1  0
 58 59  2  0
 58 63  1  0
 60 61  1  0
 61 62  1  0
 63 64  1  0
 64 65  1  0
 64 67  1  6
 65 66  2  0
 65 69  1  0
 67 68  1  0
M  CHG  1   1   1
M  END
$$$$
