
     RDKit          3D

 69 71  0  0  0  0  0  0  0  0999 V2000
   -0.0692    0.2722    9.0627 N   0  0  0  0  0  4  0  0  0  0  0  0
    1.3596    0.4534    8.7893 C   0  0  2  0  0  0  0  0  0  0  0  0
    1.5655    1.2616    7.5732 C   0  0  0  0  0  0  0  0  0  0  0  0
    0.7608    1.1400    6.5927 O   0  0  0  0  0  0  0  0  0  0  0  0
    2.0467   -0.8877    8.6434 C   0  0  2  0  0  0  0  0  0  0  0  0
    1.3677   -1.6981    7.7154 O   0  0  0  0  0  0  0  0  0  0  0  0
    2.0651   -1.5654    9.9999 C   0  0  0  0  0  0  0  0  0  0  0  0
    2.6154    2.1890    7.4011 N   0  0  0  0  0  0  0  0  0  0  0  0
    2.7955    2.8956    6.1262 C   0  0  2  0  0  0  0  0  0  0  0  0
    3.3307    1.9034    5.1174 C   0  0  0  0  0  0  0  0  0  0  0  0
    4.3084    1.2007    5.3874 O   0  0  0  0  0  0  0  0  0  0  0  0
    3.8368    3.9425    6.3562 C   0  0  0  0  0  0  0  0  0  0  0  0
    3.3471    5.3004    6.5540 C   0  0  0  0  0  0  0  0  0  0  0  0
    2.5774    5.8541    5.5169 O   0  0  0  0  0  0  0  0  0  0  0  0
    3.5738    5.9669    7.5683 O   0  0  0  0  0  0  0  0  0  0  0  0
    2.7036    1.7797    3.8500 N   0  0  0  0  0  0  0  0  0  0  0  0
    3.2357    0.9613    2.7459 C   0  0  2  0  0  0  0  0  0  0  0  0
    4.1815    1.7074    1.9076 C   0  0  0  0  0  0  0  0  0  0  0  0
    4.1296    2.9735    1.9216 O   0  0  0  0  0  0  0  0  0  0  0  0
    2.0284    0.4267    1.9938 C   0  0  0  0  0  0  0  0  0  0  0  0
    2.5523   -0.4973    0.9091 C   0  0  1  0  0  0  0  0  0  0  0  0
    1.3228   -1.1729    0.3127 C   0  0  0  0  0  0  0  0  0  0  0  0
    3.2592    0.2720   -0.1620 C   0  0  0  0  0  0  0  0  0  0  0  0
    5.1400    1.0896    1.0947 N   0  0  0  0  0  0  0  0  0  0  0  0
    6.4315    1.5452    0.7131 C   0  0  2  0  0  0  0  0  0  0  0  0
    6.4386    2.2127   -0.6051 C   0  0  0  0  0  0  0  0  0  0  0  0
    5.9900    1.5822   -1.6315 O   0  0  0  0  0  0  0  0  0  0  0  0
    7.3079    0.2851    0.6635 C   0  0  0  0  0  0  0  0  0  0  0  0
    6.3257   -0.7739    0.1985 C   0  0  0  0  0  0  0  0  0  0  0  0
    4.9558   -0.2518    0.4993 C   0  0  0  0  0  0  0  0  0  0  0  0
    6.9005    3.5221   -0.8878 N   0  0  0  0  0  0  0  0  0  0  0  0
    6.0361    4.5293   -1.4332 C   0  0  1  0  0  0  0  0  0  0  0  0
    4.7453    3.8026   -1.9198 C   0  0  0  0  0  0  0  0  0  0  0  0
    5.0137    3.3540   -3.2019 O   0  0  0  0  0  0  0  0  0  0  0  0
    5.5440    5.5291   -0.4690 C   0  0  0  0  0  0  0  0  0  0  0  0
    5.2985    6.6841   -0.8332 O   0  0  0  0  0  0  0  0  0  0  0  0
    3.5952    3.0758   -4.0543 P   0  0  1  0  0  5  0  0  0  0  0  0
    2.9659    1.8017   -3.5009 O   0  0  0  0  0  0  0  0  0  0  0  0
    2.4916    4.3545   -3.9217 O   0  0  0  0  0  0  0  0  0  0  0  0
    3.9591    2.8363   -5.6974 O   0  0  0  0  0  0  0  0  0  0  0  0
    5.3409    5.1852    0.9106 N   0  0  0  0  0  0  0  0  0  0  0  0
    5.2625    6.1418    1.9825 C   0  0  2  0  0  0  0  0  0  0  0  0
    6.4523    5.9549    2.8369 C   0  0  0  0  0  0  0  0  0  0  0  0
    6.9392    4.7671    2.8790 O   0  0  0  0  0  0  0  0  0  0  0  0
    3.9735    6.0261    2.7624 C   0  0  0  0  0  0  0  0  0  0  0  0
    2.8717    6.5760    1.9674 C   0  0  0  0  0  0  0  0  0  0  0  0
    2.8138    7.9709    1.7543 O   0  0  0  0  0  0  0  0  0  0  0  0
    1.9440    5.9241    1.4363 O   0  0  0  0  0  0  0  0  0  0  0  0
    7.0933    6.9550    3.6023 N   0  0  0  0  0  0  0  0  0  0  0  0
    8.3110    6.7652    4.3418 C   0  0  2  0  0  0  0  0  0  0  0  0
    8.0315    6.4610    5.7608 C   0  0  0  0  0  0  0  0  0  0  0  0
    6.8847    6.6907    6.2092 O   0  0  0  0  0  0  0  0  0  0  0  0
    9.0278    8.0837    4.1367 C   0  0  0  0  0  0  0  0  0  0  0  0
    7.9027    9.0818    4.0744 C   0  0  0  0  0  0  0  0  0  0  0  0
    6.6503    8.2996    3.7632 C   0  0  0  0  0  0  0  0  0  0  0  0
    9.0119    5.9190    6.6335 N   0  0  0  0  0  0  0  0  0  0  0  0
    8.7829    5.1128    7.7975 C   0  0  2  0  0  0  0  0  0  0  0  0
    8.5955    5.9406    9.0217 C   0  0  0  0  0  0  0  0  0  0  0  0
    9.5162    6.6500    9.4230 O   0  0  0  0  0  0  0  0  0  0  0  0
    9.9497    4.1851    7.9159 C   0  0  0  0  0  0  0  0  0  0  0  0
   10.9157    4.6298    6.8453 C   0  0  0  0  0  0  0  0  0  0  0  0
   10.4699    6.0736    6.5311 C   0  0  0  0  0  0  0  0  0  0  0  0
    7.3552    5.9015    9.7131 N   0  0  0  0  0  0  0  0  0  0  0  0
    6.8792    6.9738   10.5602 C   0  0  2  0  0  0  0  0  0  0  0  0
    7.3334    6.7114   11.9423 C   0  0  0  0  0  0  0  0  0  0  0  0
    7.5340    7.6622   12.7312 O   0  0  0  0  0  0  0  0  0  0  0  0
    5.3483    6.8865   10.5833 C   0  0  0  0  0  0  0  0  0  0  0  0
    4.8225    7.6126   11.6262 O   0  0  0  0  0  0  0  0  0  0  0  0
    7.5540    5.4087   12.4158 O   0  0  0  0  0  0  0  0  0  0  0  0
  2  1  1  6
  2  3  1  0
  2  5  1  0
  3  4  2  0
  3  8  1  0
  5  6  1  0
  5  7  1  1
  8  9  1  0
  9 10  1  0
  9 12  1  1
 10 11  2  0
 10 16  1  0
 12 13  1  0
 13 14  1  0
 13 15  2  0
 16 17  1  0
 17 18  1  0
 17 20  1  6
 18 19  2  0
 18 24  1  0
 20 21  1  0
 21 22  1  6
 21 23  1  0
 24 25  1  0
 24 30  1  0
 25 26  1  6
 25 28  1  0
 26 27  2  0
 26 31  1  0
 28 29  1  0
 29 30  1  0
 31 32  1  0
 32 33  1  1
 32 35  1  0
 33 34  1  0
 34 37  1  0
 35 36  2  0
 35 41  1  0
 37 38  2  0
 37 39  1  6
 37 40  1  0
 41 42  1  0
 42 43  1  0
 42 45  1  1
 43 44  2  0
 43 49  1  0
 45 46  1  0
 46 47  1  0
 46 48  2  0
 49 50  1  0
 49 55  1  0
 50 51  1  1
 50 53  1  0
 51 52  2  0
 51 56  1  0
 53 54  1  0
 54 55  1  0
 56 57  1  0
 56 62  1  0
 57 58  1  1
 57 60  1  0
 58 59  2  0
 58 63  1  0
 60 61  1  0
 61 62  1  0
 63 64  1  0
 64 65  1  0
 64 67  1  1
 65 66  2  0
 65 69  1  0
 67 68  1  0
M  CHG  1   1   1
M  END
$$$$
