
     RDKit          3D

 69 71  0  0  0  0  0  0  0  0999 V2000
   -1.4524    2.4745   11.5751 N   0  0  0  0  0  4  0  0  0  0  0  0
   -1.0737    1.5012   10.5464 C   0  0  2  0  0  0  0  0  0  0  0  0
    0.1414    1.9345    9.8322 C   0  0  0  0  0  0  0  0  0  0  0  0
    0.2552    3.1487    9.4625 O   0  0  0  0  0  0  0  0  0  0  0  0
   -2.2080    1.2977    9.5645 C   0  0  2  0  0  0  0  0  0  0  0  0
   -3.3571    0.8212   10.2211 O   0  0  0  0  0  0  0  0  0  0  0  0
   -1.7608    0.2945    8.5189 C   0  0  0  0  0  0  0  0  0  0  0  0
    1.2238    1.0865    9.5139 N   0  0  0  0  0  0  0  0  0  0  0  0
    2.4116    1.6069    8.8244 C   0  0  2  0  0  0  0  0  0  0  0  0
    2.0199    1.9191    7.3970 C   0  0  0  0  0  0  0  0  0  0  0  0
    0.9651    1.4841    6.9270 O   0  0  0  0  0  0  0  0  0  0  0  0
    3.4186    0.5029    8.8064 C   0  0  0  0  0  0  0  0  0  0  0  0
    4.0526    0.1934   10.0812 C   0  0  0  0  0  0  0  0  0  0  0  0
    3.8119    1.0835   11.1416 O   0  0  0  0  0  0  0  0  0  0  0  0
    4.7729   -0.7926   10.2639 O   0  0  0  0  0  0  0  0  0  0  0  0
    2.8723    2.7186    6.5914 N   0  0  0  0  0  0  0  0  0  0  0  0
    2.4767    3.2910    5.2923 C   0  0  2  0  0  0  0  0  0  0  0  0
    2.7556    2.3798    4.1760 C   0  0  0  0  0  0  0  0  0  0  0  0
    3.9243    1.9024    4.0661 O   0  0  0  0  0  0  0  0  0  0  0  0
    3.1809    4.6335    5.1878 C   0  0  0  0  0  0  0  0  0  0  0  0
    2.8800    5.1884    3.8070 C   0  0  1  0  0  0  0  0  0  0  0  0
    1.9995    6.4114    4.0363 C   0  0  0  0  0  0  0  0  0  0  0  0
    4.1341    5.6090    3.1079 C   0  0  0  0  0  0  0  0  0  0  0  0
    1.7938    2.0101    3.2278 N   0  0  0  0  0  0  0  0  0  0  0  0
    1.6773    0.8070    2.4794 C   0  0  2  0  0  0  0  0  0  0  0  0
    2.2743    0.9090    1.1317 C   0  0  0  0  0  0  0  0  0  0  0  0
    3.4794    0.5026    0.9454 O   0  0  0  0  0  0  0  0  0  0  0  0
    0.1683    0.5468    2.3621 C   0  0  0  0  0  0  0  0  0  0  0  0
   -0.3980    1.9528    2.2925 C   0  0  0  0  0  0  0  0  0  0  0  0
    0.6419    2.8642    2.8651 C   0  0  0  0  0  0  0  0  0  0  0  0
    1.6515    1.4232   -0.0327 N   0  0  0  0  0  0  0  0  0  0  0  0
    1.9304    2.7433   -0.5211 C   0  0  1  0  0  0  0  0  0  0  0  0
    1.1462    3.7374    0.3887 C   0  0  0  0  0  0  0  0  0  0  0  0
   -0.0293    4.0307   -0.2816 O   0  0  0  0  0  0  0  0  0  0  0  0
    3.3335    3.1775   -0.4022 C   0  0  0  0  0  0  0  0  0  0  0  0
    3.6565    4.3381   -0.6770 O   0  0  0  0  0  0  0  0  0  0  0  0
   -0.7918    5.3658    0.3909 P   0  0  1  0  0  5  0  0  0  0  0  0
   -1.7645    5.9141   -0.6478 O   0  0  0  0  0  0  0  0  0  0  0  0
   -1.6351    4.9900    1.8115 O   0  0  0  0  0  0  0  0  0  0  0  0
    0.3643    6.5616    0.7417 O   0  0  0  0  0  0  0  0  0  0  0  0
    4.3534    2.2646    0.0328 N   0  0  0  0  0  0  0  0  0  0  0  0
    5.7633    2.4646   -0.1731 C   0  0  2  0  0  0  0  0  0  0  0  0
    6.3057    3.1094    1.0396 C   0  0  0  0  0  0  0  0  0  0  0  0
    5.9264    4.3170    1.2575 O   0  0  0  0  0  0  0  0  0  0  0  0
    6.0537    3.2613   -1.4239 C   0  0  0  0  0  0  0  0  0  0  0  0
    7.5019    3.4376   -1.5643 C   0  0  0  0  0  0  0  0  0  0  0  0
    8.1746    2.7578   -2.6034 O   0  0  0  0  0  0  0  0  0  0  0  0
    8.2350    4.1497   -0.8410 O   0  0  0  0  0  0  0  0  0  0  0  0
    7.1938    2.5221    1.9687 N   0  0  0  0  0  0  0  0  0  0  0  0
    7.4309    3.0141    3.2981 C   0  0  2  0  0  0  0  0  0  0  0  0
    8.6320    3.8742    3.3422 C   0  0  0  0  0  0  0  0  0  0  0  0
    9.5472    3.6699    2.5118 O   0  0  0  0  0  0  0  0  0  0  0  0
    7.5728    1.7369    4.0997 C   0  0  0  0  0  0  0  0  0  0  0  0
    8.2224    0.7895    3.1268 C   0  0  0  0  0  0  0  0  0  0  0  0
    7.9872    1.3591    1.7494 C   0  0  0  0  0  0  0  0  0  0  0  0
    8.7874    4.9214    4.2886 N   0  0  0  0  0  0  0  0  0  0  0  0
    9.4608    6.1725    4.0914 C   0  0  2  0  0  0  0  0  0  0  0  0
   10.9123    6.0819    4.4139 C   0  0  0  0  0  0  0  0  0  0  0  0
   11.3940    5.0021    4.7516 O   0  0  0  0  0  0  0  0  0  0  0  0
    8.7552    7.1806    4.9410 C   0  0  0  0  0  0  0  0  0  0  0  0
    7.7533    6.3866    5.7430 C   0  0  0  0  0  0  0  0  0  0  0  0
    8.2947    4.9431    5.6732 C   0  0  0  0  0  0  0  0  0  0  0  0
   11.7248    7.2440    4.3285 N   0  0  0  0  0  0  0  0  0  0  0  0
   13.1603    7.2032    4.1502 C   0  0  2  0  0  0  0  0  0  0  0  0
   13.6421    8.5845    3.9377 C   0  0  0  0  0  0  0  0  0  0  0  0
   13.9156    8.9865    2.7843 O   0  0  0  0  0  0  0  0  0  0  0  0
   13.4328    6.4438    2.8461 C   0  0  0  0  0  0  0  0  0  0  0  0
   13.2216    7.2449    1.7484 O   0  0  0  0  0  0  0  0  0  0  0  0
   13.8094    9.4837    5.0024 O   0  0  0  0  0  0  0  0  0  0  0  0
  2  1  1  1
  2  3  1  0
  2  5  1  0
  3  4  2  0
  3  8  1  0
  5  6  1  0
  5  7  1  6
  8  9  1  0
  9 10  1  0
  9 12  1  6
 10 11  2  0
 10 16  1  0
 12 13  1  0
 13 14  1  0
 13 15  2  0
 16 17  1  0
 17 18  1  0
 17 20  1  6
 18 19  2  0
 18 24  1  0
 20 21  1  0
 21 22  1  1
 21 23  1  0
 24 25  1  0
 24 30  1  0
 25 26  1  6
 25 28  1  0
 26 27  2  0
 26 31  1  0
 28 29  1  0
 29 30  1  0
 31 32  1  0
 32 33  1  1
 32 35  1  0
 33 34  1  0
 34 37  1  0
 35 36  2  0
 35 41  1  0
 37 38  2  0
 37 39  1  1
 37 40  1  0
 41 42  1  0
 42 43  1  0
 42 45  1  6
 43 44  2  0
 43 49  1  0
 45 46  1  0
 46 47  1  0
 46 48  2  0
 49 50  1  0
 49 55  1  0
 50 51  1  6
 50 53  1  0
 51 52  2  0
 51 56  1  0
 53 54  1  0
 54 55  1  0
 56 57  1  0
 56 62  1  0
 57 58  1  1
 57 60  1  0
 58 59  2  0
 58 63  1  0
 60 61  1  0
 61 62  1  0
 63 64  1  0
 64 65  1  0
 64 67  1  6
 65 66  2  0
 65 69  1  0
 67 68  1  0
M  CHG  1   1   1
M  END
$$$$
