
     RDKit          3D

 69 71  0  0  0  0  0  0  0  0999 V2000
   -4.9633    6.9086   -4.0823 N   0  0  0  0  0  4  0  0  0  0  0  0
   -3.6223    6.8047   -4.6651 C   0  0  2  0  0  0  0  0  0  0  0  0
   -2.6375    6.3852   -3.6509 C   0  0  0  0  0  0  0  0  0  0  0  0
   -3.0411    5.9550   -2.5214 O   0  0  0  0  0  0  0  0  0  0  0  0
   -3.2058    8.1250   -5.2778 C   0  0  2  0  0  0  0  0  0  0  0  0
   -3.3916    9.1794   -4.3654 O   0  0  0  0  0  0  0  0  0  0  0  0
   -4.0472    8.3636   -6.5166 C   0  0  0  0  0  0  0  0  0  0  0  0
   -1.2387    6.4226   -3.8352 N   0  0  0  0  0  0  0  0  0  0  0  0
   -0.3238    6.1577   -2.7171 C   0  0  2  0  0  0  0  0  0  0  0  0
    1.0827    6.4553   -3.1881 C   0  0  0  0  0  0  0  0  0  0  0  0
    1.2813    6.9229   -4.3126 O   0  0  0  0  0  0  0  0  0  0  0  0
   -0.4214    4.6973   -2.4162 C   0  0  0  0  0  0  0  0  0  0  0  0
    0.4964    4.1888   -1.4052 C   0  0  0  0  0  0  0  0  0  0  0  0
    0.4273    4.7792   -0.1319 O   0  0  0  0  0  0  0  0  0  0  0  0
    1.3101    3.2843   -1.6149 O   0  0  0  0  0  0  0  0  0  0  0  0
    2.1829    6.1945   -2.3300 N   0  0  0  0  0  0  0  0  0  0  0  0
    3.3214    7.1129   -2.1507 C   0  0  2  0  0  0  0  0  0  0  0  0
    4.2653    6.6352   -1.1334 C   0  0  0  0  0  0  0  0  0  0  0  0
    4.0923    7.0009    0.0676 O   0  0  0  0  0  0  0  0  0  0  0  0
    2.7232    8.4769   -1.8499 C   0  0  0  0  0  0  0  0  0  0  0  0
    3.8804    9.4200   -1.5733 C   0  0  1  0  0  0  0  0  0  0  0  0
    5.1350    8.5548   -1.6055 C   0  0  0  0  0  0  0  0  0  0  0  0
    3.9828   10.4749   -2.6294 C   0  0  0  0  0  0  0  0  0  0  0  0
    5.3461    5.7934   -1.4235 N   0  0  0  0  0  0  0  0  0  0  0  0
    5.6082    4.4703   -0.9741 C   0  0  2  0  0  0  0  0  0  0  0  0
    6.5072    4.4295    0.1978 C   0  0  0  0  0  0  0  0  0  0  0  0
    7.7733    4.5667    0.0241 O   0  0  0  0  0  0  0  0  0  0  0  0
    6.2715    3.7616   -2.1641 C   0  0  0  0  0  0  0  0  0  0  0  0
    7.0568    4.8859   -2.8135 C   0  0  0  0  0  0  0  0  0  0  0  0
    6.4407    6.1671   -2.3456 C   0  0  0  0  0  0  0  0  0  0  0  0
    6.1258    4.2495    1.5507 N   0  0  0  0  0  0  0  0  0  0  0  0
    6.7237    5.0057    2.6135 C   0  0  1  0  0  0  0  0  0  0  0  0
    5.6308    5.9832    3.1437 C   0  0  0  0  0  0  0  0  0  0  0  0
    4.6034    5.1902    3.6262 O   0  0  0  0  0  0  0  0  0  0  0  0
    7.1152    4.2260    3.8009 C   0  0  0  0  0  0  0  0  0  0  0  0
    8.0097    4.6315    4.5509 O   0  0  0  0  0  0  0  0  0  0  0  0
    3.3334    6.1270    4.1965 P   0  0  1  0  0  5  0  0  0  0  0  0
    2.9739    7.1310    3.1063 O   0  0  0  0  0  0  0  0  0  0  0  0
    1.9665    5.2059    4.5889 O   0  0  0  0  0  0  0  0  0  0  0  0
    3.8340    6.9787    5.5799 O   0  0  0  0  0  0  0  0  0  0  0  0
    6.4695    2.9812    4.1113 N   0  0  0  0  0  0  0  0  0  0  0  0
    7.1114    1.8768    4.7735 C   0  0  2  0  0  0  0  0  0  0  0  0
    8.1427    1.3454    3.8599 C   0  0  0  0  0  0  0  0  0  0  0  0
    7.8694    1.3953    2.6059 O   0  0  0  0  0  0  0  0  0  0  0  0
    6.1266    0.8151    5.2050 C   0  0  0  0  0  0  0  0  0  0  0  0
    5.1471    1.4031    6.1233 C   0  0  0  0  0  0  0  0  0  0  0  0
    5.6108    2.1136    7.2523 O   0  0  0  0  0  0  0  0  0  0  0  0
    3.9012    1.3449    6.0141 O   0  0  0  0  0  0  0  0  0  0  0  0
    9.3871    0.7939    4.2395 N   0  0  0  0  0  0  0  0  0  0  0  0
   10.3639    0.2706    3.3243 C   0  0  2  0  0  0  0  0  0  0  0  0
   10.2387   -1.1960    3.1915 C   0  0  0  0  0  0  0  0  0  0  0  0
    9.4685   -1.8054    3.9690 O   0  0  0  0  0  0  0  0  0  0  0  0
   11.6701    0.7108    3.9521 C   0  0  0  0  0  0  0  0  0  0  0  0
   11.3794    0.6549    5.4280 C   0  0  0  0  0  0  0  0  0  0  0  0
    9.8774    0.6703    5.5716 C   0  0  0  0  0  0  0  0  0  0  0  0
   10.9570   -1.9391    2.2176 N   0  0  0  0  0  0  0  0  0  0  0  0
   10.8268   -3.3378    1.9276 C   0  0  2  0  0  0  0  0  0  0  0  0
   11.7245   -4.1697    2.7769 C   0  0  0  0  0  0  0  0  0  0  0  0
   12.6993   -3.6527    3.3197 O   0  0  0  0  0  0  0  0  0  0  0  0
   11.1141   -3.5045    0.4697 C   0  0  0  0  0  0  0  0  0  0  0  0
   11.5674   -2.1438    0.0002 C   0  0  0  0  0  0  0  0  0  0  0  0
   11.9900   -1.4326    1.3030 C   0  0  0  0  0  0  0  0  0  0  0  0
   11.4455   -5.5517    2.9503 N   0  0  0  0  0  0  0  0  0  0  0  0
   11.9149   -6.3254    4.0795 C   0  0  2  0  0  0  0  0  0  0  0  0
   11.5633   -7.7430    3.8506 C   0  0  0  0  0  0  0  0  0  0  0  0
   12.3622   -8.6507    4.1735 O   0  0  0  0  0  0  0  0  0  0  0  0
   11.1110   -5.8720    5.3041 C   0  0  0  0  0  0  0  0  0  0  0  0
   11.2297   -6.7692    6.3396 O   0  0  0  0  0  0  0  0  0  0  0  0
   10.3414   -8.1199    3.2719 O   0  0  0  0  0  0  0  0  0  0  0  0
  2  1  1  1
  2  3  1  0
  2  5  1  0
  3  4  2  0
  3  8  1  0
  5  6  1  0
  5  7  1  6
  8  9  1  0
  9 10  1  0
  9 12  1  6
 10 11  2  0
 10 16  1  0
 12 13  1  0
 13 14  1  0
 13 15  2  0
 16 17  1  0
 17 18  1  0
 17 20  1  1
 18 19  2  0
 18 24  1  0
 20 21  1  0
 21 22  1  6
 21 23  1  0
 24 25  1  0
 24 30  1  0
 25 26  1  1
 25 28  1  0
 26 27  2  0
 26 31  1  0
 28 29  1  0
 29 30  1  0
 31 32  1  0
 32 33  1  1
 32 35  1  0
 33 34  1  0
 34 37  1  0
 35 36  2  0
 35 41  1  0
 37 38  2  0
 37 39  1  1
 37 40  1  0
 41 42  1  0
 42 43  1  0
 42 45  1  6
 43 44  2  0
 43 49  1  0
 45 46  1  0
 46 47  1  0
 46 48  2  0
 49 50  1  0
 49 55  1  0
 50 51  1  1
 50 53  1  0
 51 52  2  0
 51 56  1  0
 53 54  1  0
 54 55  1  0
 56 57  1  0
 56 62  1  0
 57 58  1  1
 57 60  1  0
 58 59  2  0
 58 63  1  0
 60 61  1  0
 61 62  1  0
 63 64  1  0
 64 65  1  0
 64 67  1  1
 65 66  2  0
 65 69  1  0
 67 68  1  0
M  CHG  1   1   1
M  END
$$$$
