
     RDKit          3D

 69 71  0  0  0  0  0  0  0  0999 V2000
   -1.1843    5.6206   16.5148 N   0  0  0  0  0  4  0  0  0  0  0  0
   -2.2106    4.5779   16.4230 C   0  0  2  0  0  0  0  0  0  0  0  0
   -1.9419    3.6717   15.2913 C   0  0  0  0  0  0  0  0  0  0  0  0
   -1.4793    4.1444   14.2022 O   0  0  0  0  0  0  0  0  0  0  0  0
   -3.5847    5.1965   16.2774 C   0  0  2  0  0  0  0  0  0  0  0  0
   -3.6650    5.9630   15.1007 O   0  0  0  0  0  0  0  0  0  0  0  0
   -3.8418    6.0790   17.4836 C   0  0  0  0  0  0  0  0  0  0  0  0
   -2.1628    2.2779   15.3167 N   0  0  0  0  0  0  0  0  0  0  0  0
   -1.9285    1.4556   14.1224 C   0  0  2  0  0  0  0  0  0  0  0  0
   -0.9068    2.1668   13.2627 C   0  0  0  0  0  0  0  0  0  0  0  0
   -0.6268    3.3503   13.4717 O   0  0  0  0  0  0  0  0  0  0  0  0
   -3.2207    1.4037   13.3738 C   0  0  0  0  0  0  0  0  0  0  0  0
   -3.2062    0.6587   12.1217 C   0  0  0  0  0  0  0  0  0  0  0  0
   -3.2144    1.4122   10.9355 O   0  0  0  0  0  0  0  0  0  0  0  0
   -3.1868   -0.5743   12.0611 O   0  0  0  0  0  0  0  0  0  0  0  0
   -0.2653    1.4676   12.2071 N   0  0  0  0  0  0  0  0  0  0  0  0
    0.9370    1.9562   11.5088 C   0  0  2  0  0  0  0  0  0  0  0  0
    1.0961    1.3454   10.1837 C   0  0  0  0  0  0  0  0  0  0  0  0
    1.6663    0.2164   10.1056 O   0  0  0  0  0  0  0  0  0  0  0  0
    2.1042    1.7090   12.4498 C   0  0  0  0  0  0  0  0  0  0  0  0
    3.3592    2.1795   11.7364 C   0  0  1  0  0  0  0  0  0  0  0  0
    2.9622    2.3558   10.2753 C   0  0  0  0  0  0  0  0  0  0  0  0
    3.8308    3.4912   12.2800 C   0  0  0  0  0  0  0  0  0  0  0  0
    0.6470    1.9474    9.0018 N   0  0  0  0  0  0  0  0  0  0  0  0
    0.5937    1.4209    7.6823 C   0  0  2  0  0  0  0  0  0  0  0  0
    1.7658    1.7984    6.8657 C   0  0  0  0  0  0  0  0  0  0  0  0
    2.8931    2.0127    7.4450 O   0  0  0  0  0  0  0  0  0  0  0  0
   -0.6832    2.0075    7.0628 C   0  0  0  0  0  0  0  0  0  0  0  0
   -0.7581    3.3770    7.7119 C   0  0  0  0  0  0  0  0  0  0  0  0
    0.0774    3.3116    8.9518 C   0  0  0  0  0  0  0  0  0  0  0  0
    1.7996    1.9598    5.4583 N   0  0  0  0  0  0  0  0  0  0  0  0
    2.2921    0.9299    4.5890 C   0  0  1  0  0  0  0  0  0  0  0  0
    1.0667    0.0550    4.1844 C   0  0  0  0  0  0  0  0  0  0  0  0
    0.2677    0.8543    3.3844 O   0  0  0  0  0  0  0  0  0  0  0  0
    2.8405    1.3969    3.3035 C   0  0  0  0  0  0  0  0  0  0  0  0
    2.6694    0.7383    2.2721 O   0  0  0  0  0  0  0  0  0  0  0  0
   -1.1226    0.0409    2.9137 P   0  0  1  0  0  5  0  0  0  0  0  0
   -2.0323   -0.0630    4.1333 O   0  0  0  0  0  0  0  0  0  0  0  0
   -1.9469    0.8271    1.6595 O   0  0  0  0  0  0  0  0  0  0  0  0
   -0.7152   -1.5278    2.4009 O   0  0  0  0  0  0  0  0  0  0  0  0
    3.5845    2.6227    3.2211 N   0  0  0  0  0  0  0  0  0  0  0  0
    3.3546    3.6472    2.2374 C   0  0  2  0  0  0  0  0  0  0  0  0
    4.4033    3.5201    1.2055 C   0  0  0  0  0  0  0  0  0  0  0  0
    5.6082    3.3989    1.6336 O   0  0  0  0  0  0  0  0  0  0  0  0
    3.3148    5.0295    2.8464 C   0  0  0  0  0  0  0  0  0  0  0  0
    2.0800    5.7061    2.4393 C   0  0  0  0  0  0  0  0  0  0  0  0
    2.0239    6.3165    1.1671 O   0  0  0  0  0  0  0  0  0  0  0  0
    1.0320    5.8059    3.1171 O   0  0  0  0  0  0  0  0  0  0  0  0
    4.2000    3.5206   -0.1929 N   0  0  0  0  0  0  0  0  0  0  0  0
    5.0139    2.8074   -1.1386 C   0  0  2  0  0  0  0  0  0  0  0  0
    6.0503    3.6862   -1.7200 C   0  0  0  0  0  0  0  0  0  0  0  0
    6.7047    3.2724   -2.7046 O   0  0  0  0  0  0  0  0  0  0  0  0
    3.9948    2.3247   -2.1498 C   0  0  0  0  0  0  0  0  0  0  0  0
    2.9736    3.4306   -2.1650 C   0  0  0  0  0  0  0  0  0  0  0  0
    3.1674    4.2128   -0.8892 C   0  0  0  0  0  0  0  0  0  0  0  0
    6.3316    4.9796   -1.2057 N   0  0  0  0  0  0  0  0  0  0  0  0
    7.1136    6.0074   -1.8298 C   0  0  2  0  0  0  0  0  0  0  0  0
    8.5591    5.8940   -1.4878 C   0  0  0  0  0  0  0  0  0  0  0  0
    8.9936    6.4616   -0.4873 O   0  0  0  0  0  0  0  0  0  0  0  0
    6.5315    7.3150   -1.3972 C   0  0  0  0  0  0  0  0  0  0  0  0
    5.4834    6.9586   -0.3715 C   0  0  0  0  0  0  0  0  0  0  0  0
    5.8842    5.5377    0.0783 C   0  0  0  0  0  0  0  0  0  0  0  0
    9.4205    5.1321   -2.3216 N   0  0  0  0  0  0  0  0  0  0  0  0
   10.7523    5.5578   -2.6946 C   0  0  2  0  0  0  0  0  0  0  0  0
   10.7224    7.0146   -2.9439 C   0  0  0  0  0  0  0  0  0  0  0  0
    9.9555    7.4902   -3.8112 O   0  0  0  0  0  0  0  0  0  0  0  0
   11.0794    4.8950   -4.0383 C   0  0  0  0  0  0  0  0  0  0  0  0
   12.3759    5.1509   -4.4188 O   0  0  0  0  0  0  0  0  0  0  0  0
   11.5388    7.9060   -2.2305 O   0  0  0  0  0  0  0  0  0  0  0  0
  2  1  1  6
  2  3  1  0
  2  5  1  0
  3  4  2  0
  3  8  1  0
  5  6  1  0
  5  7  1  1
  8  9  1  0
  9 10  1  0
  9 12  1  6
 10 11  2  0
 10 16  1  0
 12 13  1  0
 13 14  1  0
 13 15  2  0
 16 17  1  0
 17 18  1  0
 17 20  1  1
 18 19  2  0
 18 24  1  0
 20 21  1  0
 21 22  1  6
 21 23  1  0
 24 25  1  0
 24 30  1  0
 25 26  1  6
 25 28  1  0
 26 27  2  0
 26 31  1  0
 28 29  1  0
 29 30  1  0
 31 32  1  0
 32 33  1  6
 32 35  1  0
 33 34  1  0
 34 37  1  0
 35 36  2  0
 35 41  1  0
 37 38  2  0
 37 39  1  6
 37 40  1  0
 41 42  1  0
 42 43  1  0
 42 45  1  1
 43 44  2  0
 43 49  1  0
 45 46  1  0
 46 47  1  0
 46 48  2  0
 49 50  1  0
 49 55  1  0
 50 51  1  6
 50 53  1  0
 51 52  2  0
 51 56  1  0
 53 54  1  0
 54 55  1  0
 56 57  1  0
 56 62  1  0
 57 58  1  1
 57 60  1  0
 58 59  2  0
 58 63  1  0
 60 61  1  0
 61 62  1  0
 63 64  1  0
 64 65  1  0
 64 67  1  6
 65 66  2  0
 65 69  1  0
 67 68  1  0
M  CHG  1   1   1
M  END
$$$$
