
     RDKit          3D

 69 71  0  0  0  0  0  0  0  0999 V2000
   -6.2976    6.2295   -0.2015 N   0  0  0  0  0  4  0  0  0  0  0  0
   -6.1007    4.8092    0.1029 C   0  0  2  0  0  0  0  0  0  0  0  0
   -5.0186    4.6261    1.0878 C   0  0  0  0  0  0  0  0  0  0  0  0
   -3.9550    5.3211    0.9912 O   0  0  0  0  0  0  0  0  0  0  0  0
   -5.7899    4.0335   -1.1595 C   0  0  2  0  0  0  0  0  0  0  0  0
   -4.9019    4.7516   -1.9808 O   0  0  0  0  0  0  0  0  0  0  0  0
   -7.0896    3.7869   -1.9011 C   0  0  0  0  0  0  0  0  0  0  0  0
   -5.0663    3.7137    2.1637 N   0  0  0  0  0  0  0  0  0  0  0  0
   -3.9414    3.5933    3.1003 C   0  0  2  0  0  0  0  0  0  0  0  0
   -2.7947    2.9343    2.3659 C   0  0  0  0  0  0  0  0  0  0  0  0
   -2.8370    1.7330    2.0869 O   0  0  0  0  0  0  0  0  0  0  0  0
   -4.3874    2.6797    4.1954 C   0  0  0  0  0  0  0  0  0  0  0  0
   -3.4684    2.5258    5.3155 C   0  0  0  0  0  0  0  0  0  0  0  0
   -2.4586    3.4945    5.4447 O   0  0  0  0  0  0  0  0  0  0  0  0
   -3.5385    1.6047    6.1346 O   0  0  0  0  0  0  0  0  0  0  0  0
   -1.6609    3.7034    1.9949 N   0  0  0  0  0  0  0  0  0  0  0  0
   -0.3573    3.1220    1.6283 C   0  0  2  0  0  0  0  0  0  0  0  0
    0.3390    2.5464    2.7850 C   0  0  0  0  0  0  0  0  0  0  0  0
   -0.1474    2.7413    3.9388 O   0  0  0  0  0  0  0  0  0  0  0  0
    0.4162    4.2244    0.9244 C   0  0  0  0  0  0  0  0  0  0  0  0
    0.9980    3.6220   -0.3420 C   0  0  1  0  0  0  0  0  0  0  0  0
    1.7115    2.3483    0.0966 C   0  0  0  0  0  0  0  0  0  0  0  0
   -0.0797    3.2709   -1.3186 C   0  0  0  0  0  0  0  0  0  0  0  0
    1.5129    1.7906    2.6766 N   0  0  0  0  0  0  0  0  0  0  0  0
    2.3086    1.2042    3.6985 C   0  0  2  0  0  0  0  0  0  0  0  0
    3.4561    2.0493    4.0888 C   0  0  0  0  0  0  0  0  0  0  0  0
    3.8072    3.0236    3.3274 O   0  0  0  0  0  0  0  0  0  0  0  0
    2.8143   -0.1205    3.1088 C   0  0  0  0  0  0  0  0  0  0  0  0
    2.9754    0.2202    1.6389 C   0  0  0  0  0  0  0  0  0  0  0  0
    2.1256    1.4248    1.3810 C   0  0  0  0  0  0  0  0  0  0  0  0
    4.2520    1.9100    5.2529 N   0  0  0  0  0  0  0  0  0  0  0  0
    5.1717    2.9299    5.6685 C   0  0  1  0  0  0  0  0  0  0  0  0
    5.5385    2.6304    7.1540 C   0  0  0  0  0  0  0  0  0  0  0  0
    4.4002    2.8985    7.8954 O   0  0  0  0  0  0  0  0  0  0  0  0
    6.4699    2.9322    4.9712 C   0  0  0  0  0  0  0  0  0  0  0  0
    6.8149    1.9644    4.2846 O   0  0  0  0  0  0  0  0  0  0  0  0
    3.8198    1.5089    8.6357 P   0  0  1  0  0  5  0  0  0  0  0  0
    4.9013    0.4395    8.5237 O   0  0  0  0  0  0  0  0  0  0  0  0
    3.4316    1.7509   10.2671 O   0  0  0  0  0  0  0  0  0  0  0  0
    2.4309    0.9689    7.8178 O   0  0  0  0  0  0  0  0  0  0  0  0
    7.3604    4.0542    5.0746 N   0  0  0  0  0  0  0  0  0  0  0  0
    8.5081    4.2600    4.2317 C   0  0  2  0  0  0  0  0  0  0  0  0
    9.6716    3.6453    4.9018 C   0  0  0  0  0  0  0  0  0  0  0  0
    9.6974    3.7292    6.1832 O   0  0  0  0  0  0  0  0  0  0  0  0
    8.7345    5.7204    3.9164 C   0  0  0  0  0  0  0  0  0  0  0  0
    9.4055    5.8406    2.6188 C   0  0  0  0  0  0  0  0  0  0  0  0
   10.6885    5.2724    2.4588 O   0  0  0  0  0  0  0  0  0  0  0  0
    8.9518    6.4098    1.6001 O   0  0  0  0  0  0  0  0  0  0  0  0
   10.7447    2.9819    4.2652 N   0  0  0  0  0  0  0  0  0  0  0  0
   11.7792    2.2555    4.9490 C   0  0  2  0  0  0  0  0  0  0  0  0
   12.9784    3.0957    5.1485 C   0  0  0  0  0  0  0  0  0  0  0  0
   13.3448    3.8494    4.2175 O   0  0  0  0  0  0  0  0  0  0  0  0
   12.0145    1.0758    4.0285 C   0  0  0  0  0  0  0  0  0  0  0  0
   11.7729    1.6533    2.6595 C   0  0  0  0  0  0  0  0  0  0  0  0
   10.9753    2.9183    2.8606 C   0  0  0  0  0  0  0  0  0  0  0  0
   13.7298    3.0812    6.3534 N   0  0  0  0  0  0  0  0  0  0  0  0
   14.4447    4.1775    6.9403 C   0  0  2  0  0  0  0  0  0  0  0  0
   15.8420    4.2686    6.4319 C   0  0  0  0  0  0  0  0  0  0  0  0
   16.7808    4.2434    7.2256 O   0  0  0  0  0  0  0  0  0  0  0  0
   14.3942    3.9817    8.4218 C   0  0  0  0  0  0  0  0  0  0  0  0
   13.7494    2.6314    8.6182 C   0  0  0  0  0  0  0  0  0  0  0  0
   13.9378    1.9373    7.2526 C   0  0  0  0  0  0  0  0  0  0  0  0
   16.0753    4.3843    5.0354 N   0  0  0  0  0  0  0  0  0  0  0  0
   17.3307    4.8295    4.4700 C   0  0  2  0  0  0  0  0  0  0  0  0
   17.7285    6.0815    5.1482 C   0  0  0  0  0  0  0  0  0  0  0  0
   18.7159    6.0957    5.9172 O   0  0  0  0  0  0  0  0  0  0  0  0
   17.0624    5.1966    3.0055 C   0  0  0  0  0  0  0  0  0  0  0  0
   16.8957    4.0723    2.2313 O   0  0  0  0  0  0  0  0  0  0  0  0
   17.0265    7.2823    4.9600 O   0  0  0  0  0  0  0  0  0  0  0  0
  2  1  1  6
  2  3  1  0
  2  5  1  0
  3  4  2  0
  3  8  1  0
  5  6  1  0
  5  7  1  6
  8  9  1  0
  9 10  1  0
  9 12  1  1
 10 11  2  0
 10 16  1  0
 12 13  1  0
 13 14  1  0
 13 15  2  0
 16 17  1  0
 17 18  1  0
 17 20  1  1
 18 19  2  0
 18 24  1  0
 20 21  1  0
 21 22  1  1
 21 23  1  0
 24 25  1  0
 24 30  1  0
 25 26  1  6
 25 28  1  0
 26 27  2  0
 26 31  1  0
 28 29  1  0
 29 30  1  0
 31 32  1  0
 32 33  1  1
 32 35  1  0
 33 34  1  0
 34 37  1  0
 35 36  2  0
 35 41  1  0
 37 38  2  0
 37 39  1  1
 37 40  1  0
 41 42  1  0
 42 43  1  0
 42 45  1  1
 43 44  2  0
 43 49  1  0
 45 46  1  0
 46 47  1  0
 46 48  2  0
 49 50  1  0
 49 55  1  0
 50 51  1  6
 50 53  1  0
 51 52  2  0
 51 56  1  0
 53 54  1  0
 54 55  1  0
 56 57  1  0
 56 62  1  0
 57 58  1  6
 57 60  1  0
 58 59  2  0
 58 63  1  0
 60 61  1  0
 61 62  1  0
 63 64  1  0
 64 65  1  0
 64 67  1  6
 65 66  2  0
 65 69  1  0
 67 68  1  0
M  CHG  1   1   1
M  END
$$$$
