
     RDKit          3D

 69 71  0  0  0  0  0  0  0  0999 V2000
    4.6571    3.7589   -8.2245 N   0  0  0  0  0  4  0  0  0  0  0  0
    4.0580    4.6271   -7.2065 C   0  0  2  0  0  0  0  0  0  0  0  0
    4.8611    4.6217   -5.9698 C   0  0  0  0  0  0  0  0  0  0  0  0
    5.9380    5.3006   -5.9154 O   0  0  0  0  0  0  0  0  0  0  0  0
    2.6393    4.1923   -6.9058 C   0  0  2  0  0  0  0  0  0  0  0  0
    2.6122    2.8657   -6.4388 O   0  0  0  0  0  0  0  0  0  0  0  0
    1.8247    4.3048   -8.1800 C   0  0  0  0  0  0  0  0  0  0  0  0
    4.5233    3.9022   -4.8035 N   0  0  0  0  0  0  0  0  0  0  0  0
    5.3852    3.9454   -3.6150 C   0  0  2  0  0  0  0  0  0  0  0  0
    4.7837    3.0295   -2.5721 C   0  0  0  0  0  0  0  0  0  0  0  0
    3.9821    2.1497   -2.8980 O   0  0  0  0  0  0  0  0  0  0  0  0
    5.3363    5.3463   -3.0971 C   0  0  0  0  0  0  0  0  0  0  0  0
    6.3824    6.2420   -3.5728 C   0  0  0  0  0  0  0  0  0  0  0  0
    7.6961    5.7430   -3.5651 O   0  0  0  0  0  0  0  0  0  0  0  0
    6.1683    7.3904   -3.9724 O   0  0  0  0  0  0  0  0  0  0  0  0
    5.1436    3.1832   -1.2077 N   0  0  0  0  0  0  0  0  0  0  0  0
    4.6807    2.2911   -0.1298 C   0  0  2  0  0  0  0  0  0  0  0  0
    5.1452    2.7295    1.1916 C   0  0  0  0  0  0  0  0  0  0  0  0
    6.3898    2.7097    1.4294 O   0  0  0  0  0  0  0  0  0  0  0  0
    5.1328    0.8920   -0.5134 C   0  0  0  0  0  0  0  0  0  0  0  0
    4.7457   -0.0303    0.6288 C   0  0  1  0  0  0  0  0  0  0  0  0
    5.6615    0.3423    1.7890 C   0  0  0  0  0  0  0  0  0  0  0  0
    3.3222    0.1828    1.0375 C   0  0  0  0  0  0  0  0  0  0  0  0
    4.2815    3.1706    2.2017 N   0  0  0  0  0  0  0  0  0  0  0  0
    4.4939    4.1512    3.2089 C   0  0  2  0  0  0  0  0  0  0  0  0
    4.9294    3.5686    4.4950 C   0  0  0  0  0  0  0  0  0  0  0  0
    4.2342    3.7901    5.5532 O   0  0  0  0  0  0  0  0  0  0  0  0
    3.1382    4.8505    3.3865 C   0  0  0  0  0  0  0  0  0  0  0  0
    2.1563    3.7225    3.1295 C   0  0  0  0  0  0  0  0  0  0  0  0
    2.8969    2.6747    2.3591 C   0  0  0  0  0  0  0  0  0  0  0  0
    6.0716    2.7587    4.7132 N   0  0  0  0  0  0  0  0  0  0  0  0
    7.0582    3.0904    5.7009 C   0  0  1  0  0  0  0  0  0  0  0  0
    7.7936    4.3685    5.1943 C   0  0  0  0  0  0  0  0  0  0  0  0
    9.0750    3.9688    4.8544 O   0  0  0  0  0  0  0  0  0  0  0  0
    6.5267    3.4801    7.0188 C   0  0  0  0  0  0  0  0  0  0  0  0
    7.2603    3.4903    8.0131 O   0  0  0  0  0  0  0  0  0  0  0  0
    9.4911    4.5117    3.3220 P   0  0  1  0  0  5  0  0  0  0  0  0
    8.4340    4.0016    2.3483 O   0  0  0  0  0  0  0  0  0  0  0  0
    9.5770    6.2011    3.2282 O   0  0  0  0  0  0  0  0  0  0  0  0
   10.9989    3.8624    2.8809 O   0  0  0  0  0  0  0  0  0  0  0  0
    5.1490    3.8539    7.1769 N   0  0  0  0  0  0  0  0  0  0  0  0
    4.5303    4.1583    8.4398 C   0  0  2  0  0  0  0  0  0  0  0  0
    3.4907    3.1388    8.6861 C   0  0  0  0  0  0  0  0  0  0  0  0
    2.7294    2.8537    7.6917 O   0  0  0  0  0  0  0  0  0  0  0  0
    3.9764    5.5634    8.4840 C   0  0  0  0  0  0  0  0  0  0  0  0
    2.6944    5.6046    7.7746 C   0  0  0  0  0  0  0  0  0  0  0  0
    1.4983    5.5835    8.5250 O   0  0  0  0  0  0  0  0  0  0  0  0
    2.5358    5.6595    6.5338 O   0  0  0  0  0  0  0  0  0  0  0  0
    3.2631    2.4588    9.9038 N   0  0  0  0  0  0  0  0  0  0  0  0
    2.3573    1.3552   10.0680 C   0  0  2  0  0  0  0  0  0  0  0  0
    1.0457    1.8123   10.5731 C   0  0  0  0  0  0  0  0  0  0  0  0
    1.0045    2.8321   11.2992 O   0  0  0  0  0  0  0  0  0  0  0  0
    3.1010    0.4628   11.0400 C   0  0  0  0  0  0  0  0  0  0  0  0
    3.8379    1.4427   11.9133 C   0  0  0  0  0  0  0  0  0  0  0  0
    3.8870    2.7449   11.1524 C   0  0  0  0  0  0  0  0  0  0  0  0
   -0.1673    1.1405   10.2667 N   0  0  0  0  0  0  0  0  0  0  0  0
   -1.4572    1.7339   10.0634 C   0  0  2  0  0  0  0  0  0  0  0  0
   -2.2151    1.8720   11.3385 C   0  0  0  0  0  0  0  0  0  0  0  0
   -2.7042    0.8749   11.8663 O   0  0  0  0  0  0  0  0  0  0  0  0
   -2.1745    0.8770    9.0699 C   0  0  0  0  0  0  0  0  0  0  0  0
   -1.2724   -0.3134    8.8537 C   0  0  0  0  0  0  0  0  0  0  0  0
   -0.3586   -0.3069   10.0974 C   0  0  0  0  0  0  0  0  0  0  0  0
   -2.3656    3.1543   11.9309 N   0  0  0  0  0  0  0  0  0  0  0  0
   -3.5019    3.5294   12.7446 C   0  0  2  0  0  0  0  0  0  0  0  0
   -3.6296    2.5503   13.8449 C   0  0  0  0  0  0  0  0  0  0  0  0
   -4.7599    2.1532   14.2075 O   0  0  0  0  0  0  0  0  0  0  0  0
   -4.7543    3.3689   11.8744 C   0  0  0  0  0  0  0  0  0  0  0  0
   -5.7688    2.7520   12.5682 O   0  0  0  0  0  0  0  0  0  0  0  0
   -2.5081    2.0370   14.5148 O   0  0  0  0  0  0  0  0  0  0  0  0
  2  1  1  6
  2  3  1  0
  2  5  1  0
  3  4  2  0
  3  8  1  0
  5  6  1  0
  5  7  1  6
  8  9  1  0
  9 10  1  0
  9 12  1  1
 10 11  2  0
 10 16  1  0
 12 13  1  0
 13 14  1  0
 13 15  2  0
 16 17  1  0
 17 18  1  0
 17 20  1  6
 18 19  2  0
 18 24  1  0
 20 21  1  0
 21 22  1  1
 21 23  1  0
 24 25  1  0
 24 30  1  0
 25 26  1  1
 25 28  1  0
 26 27  2  0
 26 31  1  0
 28 29  1  0
 29 30  1  0
 31 32  1  0
 32 33  1  6
 32 35  1  0
 33 34  1  0
 34 37  1  0
 35 36  2  0
 35 41  1  0
 37 38  2  0
 37 39  1  1
 37 40  1  0
 41 42  1  0
 42 43  1  0
 42 45  1  6
 43 44  2  0
 43 49  1  0
 45 46  1  0
 46 47  1  0
 46 48  2  0
 49 50  1  0
 49 55  1  0
 50 51  1  1
 50 53  1  0
 51 52  2  0
 51 56  1  0
 53 54  1  0
 54 55  1  0
 56 57  1  0
 56 62  1  0
 57 58  1  1
 57 60  1  0
 58 59  2  0
 58 63  1  0
 60 61  1  0
 61 62  1  0
 63 64  1  0
 64 65  1  0
 64 67  1  6
 65 66  2  0
 65 69  1  0
 67 68  1  0
M  CHG  1   1   1
M  END
$$$$
