
     RDKit          3D

 69 71  0  0  0  0  0  0  0  0999 V2000
    0.4812   -0.4285   10.3475 N   0  0  0  0  0  4  0  0  0  0  0  0
    1.1851   -0.7679    9.1072 C   0  0  2  0  0  0  0  0  0  0  0  0
    1.7435    0.4393    8.4705 C   0  0  0  0  0  0  0  0  0  0  0  0
    2.2334    1.3648    9.1966 O   0  0  0  0  0  0  0  0  0  0  0  0
    0.2556   -1.4784    8.1464 C   0  0  2  0  0  0  0  0  0  0  0  0
   -0.8574   -0.6740    7.8416 O   0  0  0  0  0  0  0  0  0  0  0  0
   -0.2060   -2.7694    8.7945 C   0  0  0  0  0  0  0  0  0  0  0  0
    1.7807    0.6605    7.0771 N   0  0  0  0  0  0  0  0  0  0  0  0
    2.4374    1.8504    6.5200 C   0  0  2  0  0  0  0  0  0  0  0  0
    2.2619    1.8165    5.0178 C   0  0  0  0  0  0  0  0  0  0  0  0
    2.7041    0.8734    4.3563 O   0  0  0  0  0  0  0  0  0  0  0  0
    3.8941    1.7232    6.8277 C   0  0  0  0  0  0  0  0  0  0  0  0
    4.7318    2.8502    6.4388 C   0  0  0  0  0  0  0  0  0  0  0  0
    4.0843    3.9445    5.8403 O   0  0  0  0  0  0  0  0  0  0  0  0
    5.9541    2.8831    6.6092 O   0  0  0  0  0  0  0  0  0  0  0  0
    1.5836    2.8781    4.3638 N   0  0  0  0  0  0  0  0  0  0  0  0
    1.3026    2.9065    2.9173 C   0  0  2  0  0  0  0  0  0  0  0  0
    2.5281    2.8436    2.1123 C   0  0  0  0  0  0  0  0  0  0  0  0
    3.6154    3.2248    2.6400 O   0  0  0  0  0  0  0  0  0  0  0  0
    0.4628    4.1490    2.6725 C   0  0  0  0  0  0  0  0  0  0  0  0
   -0.7755    4.0287    3.5426 C   0  0  1  0  0  0  0  0  0  0  0  0
   -1.5471    5.3283    3.3448 C   0  0  0  0  0  0  0  0  0  0  0  0
   -1.6299    2.8786    3.1115 C   0  0  0  0  0  0  0  0  0  0  0  0
    2.5559    2.3812    0.7908 N   0  0  0  0  0  0  0  0  0  0  0  0
    3.6589    2.2398   -0.0949 C   0  0  2  0  0  0  0  0  0  0  0  0
    3.8205    3.3963   -1.0002 C   0  0  0  0  0  0  0  0  0  0  0  0
    4.3091    3.2120   -2.1747 O   0  0  0  0  0  0  0  0  0  0  0  0
    3.3620    0.9750   -0.9138 C   0  0  0  0  0  0  0  0  0  0  0  0
    1.8492    1.0106   -1.0269 C   0  0  0  0  0  0  0  0  0  0  0  0
    1.3560    1.8931    0.0766 C   0  0  0  0  0  0  0  0  0  0  0  0
    3.4869    4.7444   -0.7183 N   0  0  0  0  0  0  0  0  0  0  0  0
    4.4924    5.7518   -0.5367 C   0  0  1  0  0  0  0  0  0  0  0  0
    4.0565    6.6104    0.6895 C   0  0  0  0  0  0  0  0  0  0  0  0
    3.5509    7.7921    0.1746 O   0  0  0  0  0  0  0  0  0  0  0  0
    5.8286    5.2515   -0.1684 C   0  0  0  0  0  0  0  0  0  0  0  0
    6.0499    4.0371   -0.1107 O   0  0  0  0  0  0  0  0  0  0  0  0
    3.6945    9.0446    1.2822 P   0  0  1  0  0  5  0  0  0  0  0  0
    2.6325    8.8353    2.3564 O   0  0  0  0  0  0  0  0  0  0  0  0
    5.2254    9.1049    2.0057 O   0  0  0  0  0  0  0  0  0  0  0  0
    3.3993   10.5264    0.5034 O   0  0  0  0  0  0  0  0  0  0  0  0
    6.8992    6.1605    0.1320 N   0  0  0  0  0  0  0  0  0  0  0  0
    8.2753    5.7706    0.2882 C   0  0  2  0  0  0  0  0  0  0  0  0
    8.3585    4.8848    1.4667 C   0  0  0  0  0  0  0  0  0  0  0  0
    7.6092    5.1946    2.4629 O   0  0  0  0  0  0  0  0  0  0  0  0
    9.2001    6.9604    0.3996 C   0  0  0  0  0  0  0  0  0  0  0  0
   10.2968    6.6411    1.3181 C   0  0  0  0  0  0  0  0  0  0  0  0
   11.2922    7.6140    1.5568 O   0  0  0  0  0  0  0  0  0  0  0  0
   10.4546    5.5645    1.9375 O   0  0  0  0  0  0  0  0  0  0  0  0
    9.1796    3.7416    1.5929 N   0  0  0  0  0  0  0  0  0  0  0  0
    9.2451    2.9056    2.7601 C   0  0  2  0  0  0  0  0  0  0  0  0
   10.3788    3.2885    3.6275 C   0  0  0  0  0  0  0  0  0  0  0  0
   11.4580    3.6277    3.0898 O   0  0  0  0  0  0  0  0  0  0  0  0
    9.3820    1.5201    2.1636 C   0  0  0  0  0  0  0  0  0  0  0  0
   10.1878    1.7604    0.9150 C   0  0  0  0  0  0  0  0  0  0  0  0
   10.0628    3.2305    0.5985 C   0  0  0  0  0  0  0  0  0  0  0  0
   10.2910    3.2864    5.0449 N   0  0  0  0  0  0  0  0  0  0  0  0
   11.3150    3.6645    5.9754 C   0  0  2  0  0  0  0  0  0  0  0  0
   12.1933    2.5164    6.3357 C   0  0  0  0  0  0  0  0  0  0  0  0
   11.6887    1.4540    6.6945 O   0  0  0  0  0  0  0  0  0  0  0  0
   10.6222    4.2419    7.1681 C   0  0  0  0  0  0  0  0  0  0  0  0
    9.1515    4.0165    6.9158 C   0  0  0  0  0  0  0  0  0  0  0  0
    9.1328    2.8918    5.8591 C   0  0  0  0  0  0  0  0  0  0  0  0
   13.6044    2.6611    6.2616 N   0  0  0  0  0  0  0  0  0  0  0  0
   14.5340    1.6033    6.5945 C   0  0  2  0  0  0  0  0  0  0  0  0
   14.9530    1.7779    8.0015 C   0  0  0  0  0  0  0  0  0  0  0  0
   15.1905    0.7789    8.7172 O   0  0  0  0  0  0  0  0  0  0  0  0
   15.7886    1.8176    5.7392 C   0  0  0  0  0  0  0  0  0  0  0  0
   16.9132    1.3467    6.3754 O   0  0  0  0  0  0  0  0  0  0  0  0
   15.0979    3.0485    8.5799 O   0  0  0  0  0  0  0  0  0  0  0  0
  2  1  1  1
  2  3  1  0
  2  5  1  0
  3  4  2  0
  3  8  1  0
  5  6  1  0
  5  7  1  1
  8  9  1  0
  9 10  1  0
  9 12  1  6
 10 11  2  0
 10 16  1  0
 12 13  1  0
 13 14  1  0
 13 15  2  0
 16 17  1  0
 17 18  1  0
 17 20  1  1
 18 19  2  0
 18 24  1  0
 20 21  1  0
 21 22  1  6
 21 23  1  0
 24 25  1  0
 24 30  1  0
 25 26  1  6
 25 28  1  0
 26 27  2  0
 26 31  1  0
 28 29  1  0
 29 30  1  0
 31 32  1  0
 32 33  1  1
 32 35  1  0
 33 34  1  0
 34 37  1  0
 35 36  2  0
 35 41  1  0
 37 38  2  0
 37 39  1  1
 37 40  1  0
 41 42  1  0
 42 43  1  0
 42 45  1  1
 43 44  2  0
 43 49  1  0
 45 46  1  0
 46 47  1  0
 46 48  2  0
 49 50  1  0
 49 55  1  0
 50 51  1  1
 50 53  1  0
 51 52  2  0
 51 56  1  0
 53 54  1  0
 54 55  1  0
 56 57  1  0
 56 62  1  0
 57 58  1  1
 57 60  1  0
 58 59  2  0
 58 63  1  0
 60 61  1  0
 61 62  1  0
 63 64  1  0
 64 65  1  0
 64 67  1  6
 65 66  2  0
 65 69  1  0
 67 68  1  0
M  CHG  1   1   1
M  END
$$$$
