
     RDKit          3D

 69 71  0  0  0  0  0  0  0  0999 V2000
    6.2976    8.7191   -3.7998 N   0  0  0  0  0  4  0  0  0  0  0  0
    6.0514    7.3348   -3.3853 C   0  0  2  0  0  0  0  0  0  0  0  0
    6.8451    6.9929   -2.1905 C   0  0  0  0  0  0  0  0  0  0  0  0
    8.0897    7.2648   -2.1624 O   0  0  0  0  0  0  0  0  0  0  0  0
    6.3730    6.3775   -4.5133 C   0  0  2  0  0  0  0  0  0  0  0  0
    7.6451    6.6473   -5.0496 O   0  0  0  0  0  0  0  0  0  0  0  0
    5.3174    6.5361   -5.5904 C   0  0  0  0  0  0  0  0  0  0  0  0
    6.3217    6.3685   -1.0381 N   0  0  0  0  0  0  0  0  0  0  0  0
    7.1816    6.0728    0.1154 C   0  0  2  0  0  0  0  0  0  0  0  0
    6.8667    4.6683    0.5809 C   0  0  0  0  0  0  0  0  0  0  0  0
    5.7002    4.3240    0.7896 O   0  0  0  0  0  0  0  0  0  0  0  0
    6.7941    7.0267    1.1984 C   0  0  0  0  0  0  0  0  0  0  0  0
    7.1452    6.6314    2.5561 C   0  0  0  0  0  0  0  0  0  0  0  0
    8.4956    6.7577    2.9240 O   0  0  0  0  0  0  0  0  0  0  0  0
    6.3273    6.2021    3.3753 O   0  0  0  0  0  0  0  0  0  0  0  0
    7.9210    3.7390    0.7795 N   0  0  0  0  0  0  0  0  0  0  0  0
    7.7450    2.2762    0.7450 C   0  0  2  0  0  0  0  0  0  0  0  0
    8.5484    1.5960    1.7677 C   0  0  0  0  0  0  0  0  0  0  0  0
    8.3907    0.3487    1.9262 O   0  0  0  0  0  0  0  0  0  0  0  0
    8.0579    1.8445   -0.6779 C   0  0  0  0  0  0  0  0  0  0  0  0
    8.0321    0.3267   -0.6991 C   0  0  1  0  0  0  0  0  0  0  0  0
    6.5805   -0.0653   -0.4484 C   0  0  0  0  0  0  0  0  0  0  0  0
    8.4620   -0.2032   -2.0306 C   0  0  0  0  0  0  0  0  0  0  0  0
    9.4823    2.2567    2.5755 N   0  0  0  0  0  0  0  0  0  0  0  0
    9.5599    2.3309    3.9931 C   0  0  2  0  0  0  0  0  0  0  0  0
    8.9357    3.5538    4.5391 C   0  0  0  0  0  0  0  0  0  0  0  0
    8.7736    3.6636    5.8095 O   0  0  0  0  0  0  0  0  0  0  0  0
   11.0608    2.3227    4.3181 C   0  0  0  0  0  0  0  0  0  0  0  0
   11.6517    3.0693    3.1367 C   0  0  0  0  0  0  0  0  0  0  0  0
   10.6419    2.9987    2.0344 C   0  0  0  0  0  0  0  0  0  0  0  0
    8.4736    4.6704    3.7991 N   0  0  0  0  0  0  0  0  0  0  0  0
    8.0384    5.8775    4.4413 C   0  0  1  0  0  0  0  0  0  0  0  0
    8.1269    7.0135    3.3771 C   0  0  0  0  0  0  0  0  0  0  0  0
    8.2681    6.3854    2.1512 O   0  0  0  0  0  0  0  0  0  0  0  0
    6.6279    5.8933    4.8675 C   0  0  0  0  0  0  0  0  0  0  0  0
    6.2540    6.6482    5.7715 O   0  0  0  0  0  0  0  0  0  0  0  0
    8.3209    7.5039    0.9013 P   0  0  1  0  0  5  0  0  0  0  0  0
    6.8910    7.7267    0.4201 O   0  0  0  0  0  0  0  0  0  0  0  0
    8.9938    8.9843    1.3770 O   0  0  0  0  0  0  0  0  0  0  0  0
    9.2381    6.8746   -0.3840 O   0  0  0  0  0  0  0  0  0  0  0  0
    5.6601    5.0338    4.2450 N   0  0  0  0  0  0  0  0  0  0  0  0
    4.3392    4.7911    4.7611 C   0  0  2  0  0  0  0  0  0  0  0  0
    4.4858    4.1244    6.0706 C   0  0  0  0  0  0  0  0  0  0  0  0
    5.5816    3.4816    6.2600 O   0  0  0  0  0  0  0  0  0  0  0  0
    3.4866    3.9914    3.8037 C   0  0  0  0  0  0  0  0  0  0  0  0
    3.1539    4.8181    2.6400 C   0  0  0  0  0  0  0  0  0  0  0  0
    3.2147    6.2238    2.7619 O   0  0  0  0  0  0  0  0  0  0  0  0
    2.8110    4.4027    1.5098 O   0  0  0  0  0  0  0  0  0  0  0  0
    3.5387    4.1315    7.1194 N   0  0  0  0  0  0  0  0  0  0  0  0
    3.6533    3.3669    8.3309 C   0  0  2  0  0  0  0  0  0  0  0  0
    2.9008    2.0986    8.2344 C   0  0  0  0  0  0  0  0  0  0  0  0
    2.4953    1.7254    7.1096 O   0  0  0  0  0  0  0  0  0  0  0  0
    3.1020    4.3185    9.3723 C   0  0  0  0  0  0  0  0  0  0  0  0
    2.0348    5.0699    8.6222 C   0  0  0  0  0  0  0  0  0  0  0  0
    2.3327    4.8893    7.1540 C   0  0  0  0  0  0  0  0  0  0  0  0
    2.6207    1.2884    9.3666 N   0  0  0  0  0  0  0  0  0  0  0  0
    2.1605   -0.0702    9.3654 C   0  0  2  0  0  0  0  0  0  0  0  0
    0.6739   -0.1558    9.3214 C   0  0  0  0  0  0  0  0  0  0  0  0
    0.0169    0.1606   10.3115 O   0  0  0  0  0  0  0  0  0  0  0  0
    2.7278   -0.7187   10.5875 C   0  0  0  0  0  0  0  0  0  0  0  0
    3.3968    0.3981   11.3507 C   0  0  0  0  0  0  0  0  0  0  0  0
    2.7388    1.6724   10.7804 C   0  0  0  0  0  0  0  0  0  0  0  0
    0.0308   -0.6027    8.1362 N   0  0  0  0  0  0  0  0  0  0  0  0
   -1.3156   -1.1324    8.1097 C   0  0  2  0  0  0  0  0  0  0  0  0
   -1.3544   -2.3468    8.9519 C   0  0  0  0  0  0  0  0  0  0  0  0
   -1.6293   -2.2608   10.1699 O   0  0  0  0  0  0  0  0  0  0  0  0
   -1.5926   -1.5923    6.6732 C   0  0  0  0  0  0  0  0  0  0  0  0
   -2.8645   -2.1000    6.5480 O   0  0  0  0  0  0  0  0  0  0  0  0
   -1.0889   -3.6215    8.4278 O   0  0  0  0  0  0  0  0  0  0  0  0
  2  1  1  6
  2  3  1  0
  2  5  1  0
  3  4  2  0
  3  8  1  0
  5  6  1  0
  5  7  1  6
  8  9  1  0
  9 10  1  0
  9 12  1  1
 10 11  2  0
 10 16  1  0
 12 13  1  0
 13 14  1  0
 13 15  2  0
 16 17  1  0
 17 18  1  0
 17 20  1  6
 18 19  2  0
 18 24  1  0
 20 21  1  0
 21 22  1  6
 21 23  1  0
 24 25  1  0
 24 30  1  0
 25 26  1  6
 25 28  1  0
 26 27  2  0
 26 31  1  0
 28 29  1  0
 29 30  1  0
 31 32  1  0
 32 33  1  6
 32 35  1  0
 33 34  1  0
 34 37  1  0
 35 36  2  0
 35 41  1  0
 37 38  2  0
 37 39  1  1
 37 40  1  0
 41 42  1  0
 42 43  1  0
 42 45  1  6
 43 44  2  0
 43 49  1  0
 45 46  1  0
 46 47  1  0
 46 48  2  0
 49 50  1  0
 49 55  1  0
 50 51  1  6
 50 53  1  0
 51 52  2  0
 51 56  1  0
 53 54  1  0
 54 55  1  0
 56 57  1  0
 56 62  1  0
 57 58  1  1
 57 60  1  0
 58 59  2  0
 58 63  1  0
 60 61  1  0
 61 62  1  0
 63 64  1  0
 64 65  1  0
 64 67  1  6
 65 66  2  0
 65 69  1  0
 67 68  1  0
M  CHG  1   1   1
M  END
$$$$
