
     RDKit          3D

 69 71  0  0  0  0  0  0  0  0999 V2000
   -5.3740    2.7599    7.6390 N   0  0  0  0  0  4  0  0  0  0  0  0
   -4.2086    3.0254    6.7903 C   0  0  2  0  0  0  0  0  0  0  0  0
   -3.1233    2.0671    7.0698 C   0  0  0  0  0  0  0  0  0  0  0  0
   -2.9817    1.6022    8.2477 O   0  0  0  0  0  0  0  0  0  0  0  0
   -3.7150    4.4421    6.9939 C   0  0  2  0  0  0  0  0  0  0  0  0
   -3.3563    4.6576    8.3368 O   0  0  0  0  0  0  0  0  0  0  0  0
   -4.8257    5.3965    6.5997 C   0  0  0  0  0  0  0  0  0  0  0  0
   -2.1982    1.6081    6.1077 N   0  0  0  0  0  0  0  0  0  0  0  0
   -1.1410    0.6560    6.4727 C   0  0  2  0  0  0  0  0  0  0  0  0
    0.0352    1.4483    6.9992 C   0  0  0  0  0  0  0  0  0  0  0  0
    0.1850    2.6319    6.6842 O   0  0  0  0  0  0  0  0  0  0  0  0
   -0.7224   -0.0284    5.2120 C   0  0  0  0  0  0  0  0  0  0  0  0
   -1.7089   -0.9124    4.6051 C   0  0  0  0  0  0  0  0  0  0  0  0
   -2.4025   -1.7765    5.4694 O   0  0  0  0  0  0  0  0  0  0  0  0
   -1.9547   -0.9329    3.3954 O   0  0  0  0  0  0  0  0  0  0  0  0
    0.9745    0.8255    7.8621 N   0  0  0  0  0  0  0  0  0  0  0  0
    2.1294    1.5200    8.4586 C   0  0  2  0  0  0  0  0  0  0  0  0
    3.1465    1.8656    7.4586 C   0  0  0  0  0  0  0  0  0  0  0  0
    4.2519    1.2465    7.4851 O   0  0  0  0  0  0  0  0  0  0  0  0
    2.6363    0.6203    9.5733 C   0  0  0  0  0  0  0  0  0  0  0  0
    3.8951    1.2632   10.1274 C   0  0  1  0  0  0  0  0  0  0  0  0
    3.7188    2.7629    9.9192 C   0  0  0  0  0  0  0  0  0  0  0  0
    4.0467    0.9838   11.5894 C   0  0  0  0  0  0  0  0  0  0  0  0
    2.9552    2.8441    6.4752 N   0  0  0  0  0  0  0  0  0  0  0  0
    3.5388    2.9545    5.1836 C   0  0  2  0  0  0  0  0  0  0  0  0
    4.7191    3.8431    5.1608 C   0  0  0  0  0  0  0  0  0  0  0  0
    5.6787    3.5932    4.3429 O   0  0  0  0  0  0  0  0  0  0  0  0
    2.4341    3.5331    4.2873 C   0  0  0  0  0  0  0  0  0  0  0  0
    1.6836    4.4408    5.2441 C   0  0  0  0  0  0  0  0  0  0  0  0
    2.0127    3.9739    6.6274 C   0  0  0  0  0  0  0  0  0  0  0  0
    4.9310    4.9889    5.9672 N   0  0  0  0  0  0  0  0  0  0  0  0
    6.2018    5.6530    6.0212 C   0  0  1  0  0  0  0  0  0  0  0  0
    7.0816    4.8643    7.0386 C   0  0  0  0  0  0  0  0  0  0  0  0
    8.3676    4.8714    6.5253 O   0  0  0  0  0  0  0  0  0  0  0  0
    6.9833    5.6242    4.7723 C   0  0  0  0  0  0  0  0  0  0  0  0
    7.1594    6.6579    4.1185 O   0  0  0  0  0  0  0  0  0  0  0  0
    9.4607    4.2287    7.6244 P   0  0  1  0  0  5  0  0  0  0  0  0
   10.7471    3.9157    6.8673 O   0  0  0  0  0  0  0  0  0  0  0  0
    9.8012    5.2872    8.9027 O   0  0  0  0  0  0  0  0  0  0  0  0
    8.8374    2.7823    8.2638 O   0  0  0  0  0  0  0  0  0  0  0  0
    7.5542    4.3986    4.2879 N   0  0  0  0  0  0  0  0  0  0  0  0
    8.1665    4.2435    2.9952 C   0  0  2  0  0  0  0  0  0  0  0  0
    7.2116    4.7420    1.9850 C   0  0  0  0  0  0  0  0  0  0  0  0
    5.9916    4.8615    2.3685 O   0  0  0  0  0  0  0  0  0  0  0  0
    8.5907    2.8180    2.7280 C   0  0  0  0  0  0  0  0  0  0  0  0
    9.9654    2.6224    3.1974 C   0  0  0  0  0  0  0  0  0  0  0  0
   10.7189    3.7500    3.5912 O   0  0  0  0  0  0  0  0  0  0  0  0
   10.5670    1.5286    3.2927 O   0  0  0  0  0  0  0  0  0  0  0  0
    7.5185    5.0940    0.6513 N   0  0  0  0  0  0  0  0  0  0  0  0
    6.5667    5.5921   -0.3034 C   0  0  2  0  0  0  0  0  0  0  0  0
    6.0519    4.5039   -1.1609 C   0  0  0  0  0  0  0  0  0  0  0  0
    6.7501    3.4745   -1.3080 O   0  0  0  0  0  0  0  0  0  0  0  0
    7.3728    6.6273   -1.0602 C   0  0  0  0  0  0  0  0  0  0  0  0
    8.7614    6.0462   -1.0661 C   0  0  0  0  0  0  0  0  0  0  0  0
    8.8033    5.0204    0.0398 C   0  0  0  0  0  0  0  0  0  0  0  0
    4.7980    4.5812   -1.8229 N   0  0  0  0  0  0  0  0  0  0  0  0
    4.1064    3.5177   -2.4924 C   0  0  2  0  0  0  0  0  0  0  0  0
    4.5071    3.4049   -3.9228 C   0  0  0  0  0  0  0  0  0  0  0  0
    5.0589    4.3540   -4.4764 O   0  0  0  0  0  0  0  0  0  0  0  0
    2.6442    3.7877   -2.3349 C   0  0  0  0  0  0  0  0  0  0  0  0
    2.5633    5.1443   -1.6789 C   0  0  0  0  0  0  0  0  0  0  0  0
    3.9449    5.7694   -1.9663 C   0  0  0  0  0  0  0  0  0  0  0  0
    4.2468    2.2022   -4.6324 N   0  0  0  0  0  0  0  0  0  0  0  0
    5.0307    1.7577   -5.7647 C   0  0  2  0  0  0  0  0  0  0  0  0
    4.5533    0.4165   -6.1633 C   0  0  0  0  0  0  0  0  0  0  0  0
    5.2978   -0.5815   -6.0353 O   0  0  0  0  0  0  0  0  0  0  0  0
    6.4721    1.5762   -5.2737 C   0  0  0  0  0  0  0  0  0  0  0  0
    7.2788    1.0741   -6.2679 O   0  0  0  0  0  0  0  0  0  0  0  0
    3.2692    0.2133   -6.6921 O   0  0  0  0  0  0  0  0  0  0  0  0
  2  1  1  1
  2  3  1  0
  2  5  1  0
  3  4  2  0
  3  8  1  0
  5  6  1  0
  5  7  1  1
  8  9  1  0
  9 10  1  0
  9 12  1  6
 10 11  2  0
 10 16  1  0
 12 13  1  0
 13 14  1  0
 13 15  2  0
 16 17  1  0
 17 18  1  0
 17 20  1  1
 18 19  2  0
 18 24  1  0
 20 21  1  0
 21 22  1  1
 21 23  1  0
 24 25  1  0
 24 30  1  0
 25 26  1  1
 25 28  1  0
 26 27  2  0
 26 31  1  0
 28 29  1  0
 29 30  1  0
 31 32  1  0
 32 33  1  1
 32 35  1  0
 33 34  1  0
 34 37  1  0
 35 36  2  0
 35 41  1  0
 37 38  2  0
 37 39  1  1
 37 40  1  0
 41 42  1  0
 42 43  1  0
 42 45  1  6
 43 44  2  0
 43 49  1  0
 45 46  1  0
 46 47  1  0
 46 48  2  0
 49 50  1  0
 49 55  1  0
 50 51  1  6
 50 53  1  0
 51 52  2  0
 51 56  1  0
 53 54  1  0
 54 55  1  0
 56 57  1  0
 56 62  1  0
 57 58  1  6
 57 60  1  0
 58 59  2  0
 58 63  1  0
 60 61  1  0
 61 62  1  0
 63 64  1  0
 64 65  1  0
 64 67  1  1
 65 66  2  0
 65 69  1  0
 67 68  1  0
M  CHG  1   1   1
M  END
$$$$
