
     RDKit          3D

 69 71  0  0  0  0  0  0  0  0999 V2000
    1.8828    5.9719   16.0208 N   0  0  0  0  0  4  0  0  0  0  0  0
    2.4485    5.9521   14.6685 C   0  0  2  0  0  0  0  0  0  0  0  0
    1.6637    5.0738   13.7814 C   0  0  0  0  0  0  0  0  0  0  0  0
    1.4471    3.8654   14.1228 O   0  0  0  0  0  0  0  0  0  0  0  0
    3.8923    5.4979   14.7034 C   0  0  2  0  0  0  0  0  0  0  0  0
    4.0049    4.2395   15.3219 O   0  0  0  0  0  0  0  0  0  0  0  0
    4.6976    6.5241   15.4768 C   0  0  0  0  0  0  0  0  0  0  0  0
    1.1151    5.4754   12.5445 N   0  0  0  0  0  0  0  0  0  0  0  0
    0.3516    4.5325   11.7168 C   0  0  2  0  0  0  0  0  0  0  0  0
    1.3020    3.9254   10.7085 C   0  0  0  0  0  0  0  0  0  0  0  0
    2.3795    4.4709   10.4555 O   0  0  0  0  0  0  0  0  0  0  0  0
   -0.6698    5.3353   10.9784 C   0  0  0  0  0  0  0  0  0  0  0  0
   -1.4940    4.6030   10.0258 C   0  0  0  0  0  0  0  0  0  0  0  0
   -2.1895    3.4852   10.5174 O   0  0  0  0  0  0  0  0  0  0  0  0
   -1.6044    4.9158    8.8366 O   0  0  0  0  0  0  0  0  0  0  0  0
    0.9518    2.7189   10.0479 N   0  0  0  0  0  0  0  0  0  0  0  0
    1.7647    2.0960    8.9882 C   0  0  2  0  0  0  0  0  0  0  0  0
    1.3071    2.4704    7.6449 C   0  0  0  0  0  0  0  0  0  0  0  0
    0.0755    2.7156    7.4749 O   0  0  0  0  0  0  0  0  0  0  0  0
    1.7395    0.6007    9.2575 C   0  0  0  0  0  0  0  0  0  0  0  0
    1.4257   -0.0844    7.9395 C   0  0  1  0  0  0  0  0  0  0  0  0
    1.4231   -1.5786    8.2411 C   0  0  0  0  0  0  0  0  0  0  0  0
    0.0779    0.3169    7.4286 C   0  0  0  0  0  0  0  0  0  0  0  0
    2.1644    2.5725    6.5423 N   0  0  0  0  0  0  0  0  0  0  0  0
    1.9988    3.3001    5.3322 C   0  0  2  0  0  0  0  0  0  0  0  0
    1.4608    2.4719    4.2332 C   0  0  0  0  0  0  0  0  0  0  0  0
    0.2688    2.6920    3.8055 O   0  0  0  0  0  0  0  0  0  0  0  0
    3.4028    3.8030    4.9659 C   0  0  0  0  0  0  0  0  0  0  0  0
    4.2903    2.6799    5.4696 C   0  0  0  0  0  0  0  0  0  0  0  0
    3.4918    1.9226    6.4839 C   0  0  0  0  0  0  0  0  0  0  0  0
    2.1294    1.4173    3.5633 N   0  0  0  0  0  0  0  0  0  0  0  0
    1.5037    0.6725    2.5084 C   0  0  1  0  0  0  0  0  0  0  0  0
    0.3241    1.5432    1.9779 C   0  0  0  0  0  0  0  0  0  0  0  0
    0.2299    1.2823    0.6213 O   0  0  0  0  0  0  0  0  0  0  0  0
    2.3406    0.4377    1.3185 C   0  0  0  0  0  0  0  0  0  0  0  0
    3.5153    0.0737    1.4395 O   0  0  0  0  0  0  0  0  0  0  0  0
   -0.6511    2.4752   -0.1640 P   0  0  1  0  0  5  0  0  0  0  0  0
   -1.1782    3.4348    0.8977 O   0  0  0  0  0  0  0  0  0  0  0  0
    0.2746    3.3351   -1.2929 O   0  0  0  0  0  0  0  0  0  0  0  0
   -1.9728    1.7683   -0.9660 O   0  0  0  0  0  0  0  0  0  0  0  0
    1.8124    0.6275   -0.0035 N   0  0  0  0  0  0  0  0  0  0  0  0
    2.6128    0.9155   -1.1639 C   0  0  2  0  0  0  0  0  0  0  0  0
    3.3415    2.1733   -0.9040 C   0  0  0  0  0  0  0  0  0  0  0  0
    2.6274    3.1778   -0.5422 O   0  0  0  0  0  0  0  0  0  0  0  0
    1.7881    0.9822   -2.4283 C   0  0  0  0  0  0  0  0  0  0  0  0
    2.6616    1.2893   -3.5644 C   0  0  0  0  0  0  0  0  0  0  0  0
    3.4008    2.4926   -3.5511 O   0  0  0  0  0  0  0  0  0  0  0  0
    2.8326    0.5785   -4.5808 O   0  0  0  0  0  0  0  0  0  0  0  0
    4.7368    2.3660   -1.0173 N   0  0  0  0  0  0  0  0  0  0  0  0
    5.4033    3.6304   -0.8669 C   0  0  2  0  0  0  0  0  0  0  0  0
    5.6407    4.2676   -2.1791 C   0  0  0  0  0  0  0  0  0  0  0  0
    5.1788    3.7180   -3.2055 O   0  0  0  0  0  0  0  0  0  0  0  0
    6.6770    3.2454   -0.1433 C   0  0  0  0  0  0  0  0  0  0  0  0
    6.9857    1.8782   -0.6923 C   0  0  0  0  0  0  0  0  0  0  0  0
    5.7028    1.3549   -1.2901 C   0  0  0  0  0  0  0  0  0  0  0  0
    6.3711    5.4773   -2.3200 N   0  0  0  0  0  0  0  0  0  0  0  0
    6.4289    6.3229   -3.4772 C   0  0  2  0  0  0  0  0  0  0  0  0
    7.5168    5.9177   -4.4107 C   0  0  0  0  0  0  0  0  0  0  0  0
    8.3896    5.1411   -4.0269 O   0  0  0  0  0  0  0  0  0  0  0  0
    6.6030    7.7225   -2.9803 C   0  0  0  0  0  0  0  0  0  0  0  0
    6.7992    7.5890   -1.4900 C   0  0  0  0  0  0  0  0  0  0  0  0
    7.2267    6.1170   -1.3106 C   0  0  0  0  0  0  0  0  0  0  0  0
    7.5349    6.4331   -5.7343 N   0  0  0  0  0  0  0  0  0  0  0  0
    7.4379    5.6030   -6.9156 C   0  0  2  0  0  0  0  0  0  0  0  0
    6.8818    6.4208   -8.0145 C   0  0  0  0  0  0  0  0  0  0  0  0
    5.7402    6.1776   -8.4661 O   0  0  0  0  0  0  0  0  0  0  0  0
    6.4004    4.5133   -6.6189 C   0  0  0  0  0  0  0  0  0  0  0  0
    6.2988    3.6232   -7.6623 O   0  0  0  0  0  0  0  0  0  0  0  0
    7.6000    7.4834   -8.5848 O   0  0  0  0  0  0  0  0  0  0  0  0
  2  1  1  1
  2  3  1  0
  2  5  1  0
  3  4  2  0
  3  8  1  0
  5  6  1  0
  5  7  1  1
  8  9  1  0
  9 10  1  0
  9 12  1  6
 10 11  2  0
 10 16  1  0
 12 13  1  0
 13 14  1  0
 13 15  2  0
 16 17  1  0
 17 18  1  0
 17 20  1  6
 18 19  2  0
 18 24  1  0
 20 21  1  0
 21 22  1  1
 21 23  1  0
 24 25  1  0
 24 30  1  0
 25 26  1  6
 25 28  1  0
 26 27  2  0
 26 31  1  0
 28 29  1  0
 29 30  1  0
 31 32  1  0
 32 33  1  6
 32 35  1  0
 33 34  1  0
 34 37  1  0
 35 36  2  0
 35 41  1  0
 37 38  2  0
 37 39  1  6
 37 40  1  0
 41 42  1  0
 42 43  1  0
 42 45  1  6
 43 44  2  0
 43 49  1  0
 45 46  1  0
 46 47  1  0
 46 48  2  0
 49 50  1  0
 49 55  1  0
 50 51  1  6
 50 53  1  0
 51 52  2  0
 51 56  1  0
 53 54  1  0
 54 55  1  0
 56 57  1  0
 56 62  1  0
 57 58  1  6
 57 60  1  0
 58 59  2  0
 58 63  1  0
 60 61  1  0
 61 62  1  0
 63 64  1  0
 64 65  1  0
 64 67  1  1
 65 66  2  0
 65 69  1  0
 67 68  1  0
M  CHG  1   1   1
M  END
$$$$
