
     RDKit          3D

 69 71  0  0  0  0  0  0  0  0999 V2000
   -0.2353    4.6118   10.6341 N   0  0  0  0  0  4  0  0  0  0  0  0
    0.8839    3.7857   10.1717 C   0  0  2  0  0  0  0  0  0  0  0  0
    1.2172    4.0876    8.7673 C   0  0  0  0  0  0  0  0  0  0  0  0
    0.2843    4.1782    7.9042 O   0  0  0  0  0  0  0  0  0  0  0  0
    0.5566    2.3153   10.3226 C   0  0  2  0  0  0  0  0  0  0  0  0
    0.3182    1.9929   11.6709 O   0  0  0  0  0  0  0  0  0  0  0  0
    1.7301    1.5085    9.8015 C   0  0  0  0  0  0  0  0  0  0  0  0
    2.5282    4.2908    8.2854 N   0  0  0  0  0  0  0  0  0  0  0  0
    2.7613    4.8316    6.9399 C   0  0  2  0  0  0  0  0  0  0  0  0
    2.4019    3.7559    5.9389 C   0  0  0  0  0  0  0  0  0  0  0  0
    2.1692    4.0470    4.7625 O   0  0  0  0  0  0  0  0  0  0  0  0
    4.2265    5.1053    6.8326 C   0  0  0  0  0  0  0  0  0  0  0  0
    4.6793    5.6859    5.5753 C   0  0  0  0  0  0  0  0  0  0  0  0
    3.9646    5.3300    4.4189 O   0  0  0  0  0  0  0  0  0  0  0  0
    5.6389    6.4576    5.4862 O   0  0  0  0  0  0  0  0  0  0  0  0
    2.3314    2.4009    6.3557 N   0  0  0  0  0  0  0  0  0  0  0  0
    2.0612    1.2738    5.4455 C   0  0  2  0  0  0  0  0  0  0  0  0
    2.8233    1.3748    4.1953 C   0  0  0  0  0  0  0  0  0  0  0  0
    3.9371    1.9788    4.2161 O   0  0  0  0  0  0  0  0  0  0  0  0
    0.5545    1.2362    5.2521 C   0  0  0  0  0  0  0  0  0  0  0  0
    0.1929   -0.1803    4.8425 C   0  0  1  0  0  0  0  0  0  0  0  0
    0.7401   -1.0811    5.9439 C   0  0  0  0  0  0  0  0  0  0  0  0
   -1.2903   -0.3561    4.7546 C   0  0  0  0  0  0  0  0  0  0  0  0
    2.3817    0.8348    2.9810 N   0  0  0  0  0  0  0  0  0  0  0  0
    3.1353    0.2810    1.9102 C   0  0  2  0  0  0  0  0  0  0  0  0
    3.4018    1.2550    0.8317 C   0  0  0  0  0  0  0  0  0  0  0  0
    3.6530    0.8271   -0.3541 O   0  0  0  0  0  0  0  0  0  0  0  0
    2.2815   -0.8750    1.3687 C   0  0  0  0  0  0  0  0  0  0  0  0
    0.8696   -0.3601    1.5783 C   0  0  0  0  0  0  0  0  0  0  0  0
    0.9526    0.7113    2.6200 C   0  0  0  0  0  0  0  0  0  0  0  0
    3.4143    2.6670    0.9510 N   0  0  0  0  0  0  0  0  0  0  0  0
    4.2811    3.4871    0.1541 C   0  0  1  0  0  0  0  0  0  0  0  0
    3.4181    4.6696   -0.3824 C   0  0  0  0  0  0  0  0  0  0  0  0
    2.4765    4.9372    0.5969 O   0  0  0  0  0  0  0  0  0  0  0  0
    5.3772    4.1455    0.8865 C   0  0  0  0  0  0  0  0  0  0  0  0
    5.9689    5.1122    0.3942 O   0  0  0  0  0  0  0  0  0  0  0  0
    1.3536    6.0647    0.0640 P   0  0  1  0  0  5  0  0  0  0  0  0
    0.4990    6.4670    1.2613 O   0  0  0  0  0  0  0  0  0  0  0  0
    2.0780    7.4440   -0.6018 O   0  0  0  0  0  0  0  0  0  0  0  0
    0.3499    5.3540   -1.1095 O   0  0  0  0  0  0  0  0  0  0  0  0
    5.7818    3.6794    2.1833 N   0  0  0  0  0  0  0  0  0  0  0  0
    6.9322    4.1653    2.8980 C   0  0  2  0  0  0  0  0  0  0  0  0
    8.0459    3.2299    2.6425 C   0  0  0  0  0  0  0  0  0  0  0  0
    7.7438    1.9817    2.6187 O   0  0  0  0  0  0  0  0  0  0  0  0
    6.6592    4.3413    4.3738 C   0  0  0  0  0  0  0  0  0  0  0  0
    7.8547    4.8783    5.0300 C   0  0  0  0  0  0  0  0  0  0  0  0
    7.8135    5.1365    6.4178 O   0  0  0  0  0  0  0  0  0  0  0  0
    8.9473    5.1420    4.4784 O   0  0  0  0  0  0  0  0  0  0  0  0
    9.3968    3.5830    2.4251 N   0  0  0  0  0  0  0  0  0  0  0  0
   10.4390    2.6569    2.0767 C   0  0  2  0  0  0  0  0  0  0  0  0
   11.1907    2.2248    3.2736 C   0  0  0  0  0  0  0  0  0  0  0  0
   10.6720    2.3933    4.4012 O   0  0  0  0  0  0  0  0  0  0  0  0
   11.2724    3.4552    1.0958 C   0  0  0  0  0  0  0  0  0  0  0  0
   11.1569    4.8645    1.6122 C   0  0  0  0  0  0  0  0  0  0  0  0
    9.9433    4.8962    2.5083 C   0  0  0  0  0  0  0  0  0  0  0  0
   12.4763    1.6269    3.1938 N   0  0  0  0  0  0  0  0  0  0  0  0
   13.2464    1.0841    4.2753 C   0  0  2  0  0  0  0  0  0  0  0  0
   14.1053    2.1156    4.9215 C   0  0  0  0  0  0  0  0  0  0  0  0
   14.4211    3.1245    4.2933 O   0  0  0  0  0  0  0  0  0  0  0  0
   14.0475   -0.0449    3.7102 C   0  0  0  0  0  0  0  0  0  0  0  0
   13.8003    0.0036    2.2223 C   0  0  0  0  0  0  0  0  0  0  0  0
   13.2924    1.4417    1.9856 C   0  0  0  0  0  0  0  0  0  0  0  0
   14.5512    1.9227    6.2563 N   0  0  0  0  0  0  0  0  0  0  0  0
   14.9325    3.0071    7.1353 C   0  0  2  0  0  0  0  0  0  0  0  0
   16.3254    3.3915    6.8227 C   0  0  0  0  0  0  0  0  0  0  0  0
   16.8822    4.3152    7.4578 O   0  0  0  0  0  0  0  0  0  0  0  0
   14.9473    2.4483    8.5632 C   0  0  0  0  0  0  0  0  0  0  0  0
   15.4164    3.3802    9.4593 O   0  0  0  0  0  0  0  0  0  0  0  0
   17.0652    2.7471    5.8189 O   0  0  0  0  0  0  0  0  0  0  0  0
  2  1  1  6
  2  3  1  0
  2  5  1  0
  3  4  2  0
  3  8  1  0
  5  6  1  0
  5  7  1  1
  8  9  1  0
  9 10  1  0
  9 12  1  1
 10 11  2  0
 10 16  1  0
 12 13  1  0
 13 14  1  0
 13 15  2  0
 16 17  1  0
 17 18  1  0
 17 20  1  6
 18 19  2  0
 18 24  1  0
 20 21  1  0
 21 22  1  1
 21 23  1  0
 24 25  1  0
 24 30  1  0
 25 26  1  6
 25 28  1  0
 26 27  2  0
 26 31  1  0
 28 29  1  0
 29 30  1  0
 31 32  1  0
 32 33  1  1
 32 35  1  0
 33 34  1  0
 34 37  1  0
 35 36  2  0
 35 41  1  0
 37 38  2  0
 37 39  1  6
 37 40  1  0
 41 42  1  0
 42 43  1  0
 42 45  1  1
 43 44  2  0
 43 49  1  0
 45 46  1  0
 46 47  1  0
 46 48  2  0
 49 50  1  0
 49 55  1  0
 50 51  1  1
 50 53  1  0
 51 52  2  0
 51 56  1  0
 53 54  1  0
 54 55  1  0
 56 57  1  0
 56 62  1  0
 57 58  1  6
 57 60  1  0
 58 59  2  0
 58 63  1  0
 60 61  1  0
 61 62  1  0
 63 64  1  0
 64 65  1  0
 64 67  1  1
 65 66  2  0
 65 69  1  0
 67 68  1  0
M  CHG  1   1   1
M  END
$$$$
