
     RDKit          3D

 69 71  0  0  0  0  0  0  0  0999 V2000
   -1.3060    2.7214   -6.7780 N   0  0  0  0  0  4  0  0  0  0  0  0
   -1.4148    2.9557   -5.3351 C   0  0  2  0  0  0  0  0  0  0  0  0
   -0.1591    3.5083   -4.7944 C   0  0  0  0  0  0  0  0  0  0  0  0
    0.9285    3.3473   -5.4385 O   0  0  0  0  0  0  0  0  0  0  0  0
   -1.7700    1.6728   -4.6140 C   0  0  2  0  0  0  0  0  0  0  0  0
   -0.8124    0.6747   -4.8700 O   0  0  0  0  0  0  0  0  0  0  0  0
   -3.1320    1.2139   -5.0979 C   0  0  0  0  0  0  0  0  0  0  0  0
   -0.0604    4.2241   -3.5820 N   0  0  0  0  0  0  0  0  0  0  0  0
    1.2407    4.6927   -3.0871 C   0  0  2  0  0  0  0  0  0  0  0  0
    1.6684    3.7736   -1.9643 C   0  0  0  0  0  0  0  0  0  0  0  0
    0.9748    2.8025   -1.6506 O   0  0  0  0  0  0  0  0  0  0  0  0
    1.0209    6.0582   -2.5212 C   0  0  0  0  0  0  0  0  0  0  0  0
    0.9087    7.1420   -3.4885 C   0  0  0  0  0  0  0  0  0  0  0  0
    1.7235    7.0595   -4.6304 O   0  0  0  0  0  0  0  0  0  0  0  0
    0.1472    8.1041   -3.3506 O   0  0  0  0  0  0  0  0  0  0  0  0
    2.8770    4.0303   -1.2656 N   0  0  0  0  0  0  0  0  0  0  0  0
    3.6155    3.0113   -0.4987 C   0  0  2  0  0  0  0  0  0  0  0  0
    3.6974    3.3420    0.9289 C   0  0  0  0  0  0  0  0  0  0  0  0
    4.7495    3.9036    1.3575 O   0  0  0  0  0  0  0  0  0  0  0  0
    4.9659    2.8638   -1.1796 C   0  0  0  0  0  0  0  0  0  0  0  0
    5.7534    1.8339   -0.3894 C   0  0  1  0  0  0  0  0  0  0  0  0
    5.6696    2.2780    1.0664 C   0  0  0  0  0  0  0  0  0  0  0  0
    5.1496    0.4716   -0.5238 C   0  0  0  0  0  0  0  0  0  0  0  0
    2.6698    3.0698    1.8404 N   0  0  0  0  0  0  0  0  0  0  0  0
    1.7118    3.9506    2.4129 C   0  0  2  0  0  0  0  0  0  0  0  0
    2.1134    4.4484    3.7449 C   0  0  0  0  0  0  0  0  0  0  0  0
    2.9833    5.3910    3.8279 O   0  0  0  0  0  0  0  0  0  0  0  0
    0.4223    3.1252    2.5324 C   0  0  0  0  0  0  0  0  0  0  0  0
    0.9547    1.7329    2.8166 C   0  0  0  0  0  0  0  0  0  0  0  0
    2.3771    1.7131    2.3517 C   0  0  0  0  0  0  0  0  0  0  0  0
    1.6342    3.9925    4.9981 N   0  0  0  0  0  0  0  0  0  0  0  0
    2.2337    4.4058    6.2345 C   0  0  1  0  0  0  0  0  0  0  0  0
    1.7139    3.4333    7.3367 C   0  0  0  0  0  0  0  0  0  0  0  0
    0.3994    3.1455    7.0105 O   0  0  0  0  0  0  0  0  0  0  0  0
    3.6998    4.2736    6.3008 C   0  0  0  0  0  0  0  0  0  0  0  0
    4.4195    4.8479    5.4767 O   0  0  0  0  0  0  0  0  0  0  0  0
   -0.3171    2.1811    8.1821 P   0  0  1  0  0  5  0  0  0  0  0  0
   -1.4232    2.9989    8.8406 O   0  0  0  0  0  0  0  0  0  0  0  0
   -0.9728    0.7553    7.5435 O   0  0  0  0  0  0  0  0  0  0  0  0
    0.8360    1.7717    9.3620 O   0  0  0  0  0  0  0  0  0  0  0  0
    4.3228    3.4761    7.3200 N   0  0  0  0  0  0  0  0  0  0  0  0
    5.4490    2.6089    7.0970 C   0  0  2  0  0  0  0  0  0  0  0  0
    6.6369    3.4617    6.8917 C   0  0  0  0  0  0  0  0  0  0  0  0
    6.6811    4.1160    5.7873 O   0  0  0  0  0  0  0  0  0  0  0  0
    5.2215    1.6570    5.9457 C   0  0  0  0  0  0  0  0  0  0  0  0
    6.4271    0.8505    5.7346 C   0  0  0  0  0  0  0  0  0  0  0  0
    6.6348   -0.2902    6.5410 O   0  0  0  0  0  0  0  0  0  0  0  0
    7.3243    1.0668    4.8886 O   0  0  0  0  0  0  0  0  0  0  0  0
    7.7149    3.6187    7.7917 N   0  0  0  0  0  0  0  0  0  0  0  0
    8.5976    4.7525    7.8219 C   0  0  2  0  0  0  0  0  0  0  0  0
    9.8339    4.4865    7.0570 C   0  0  0  0  0  0  0  0  0  0  0  0
    9.9480    3.3895    6.4633 O   0  0  0  0  0  0  0  0  0  0  0  0
    8.8348    4.9437    9.3056 C   0  0  0  0  0  0  0  0  0  0  0  0
    8.8027    3.5383    9.8439 C   0  0  0  0  0  0  0  0  0  0  0  0
    8.0991    2.6966    8.8078 C   0  0  0  0  0  0  0  0  0  0  0  0
   10.8954    5.4258    6.9698 N   0  0  0  0  0  0  0  0  0  0  0  0
   12.0063    5.3939    6.0630 C   0  0  2  0  0  0  0  0  0  0  0  0
   13.1516    4.6145    6.6109 C   0  0  0  0  0  0  0  0  0  0  0  0
   13.6590    4.9492    7.6798 O   0  0  0  0  0  0  0  0  0  0  0  0
   12.3738    6.8156    5.7809 C   0  0  0  0  0  0  0  0  0  0  0  0
   11.5086    7.6362    6.7059 C   0  0  0  0  0  0  0  0  0  0  0  0
   11.0828    6.6281    7.7942 C   0  0  0  0  0  0  0  0  0  0  0  0
   13.6460    3.4933    5.8924 N   0  0  0  0  0  0  0  0  0  0  0  0
   14.8184    2.7440    6.2901 C   0  0  2  0  0  0  0  0  0  0  0  0
   15.9550    3.1779    5.4502 C   0  0  0  0  0  0  0  0  0  0  0  0
   17.0996    3.2854    5.9450 O   0  0  0  0  0  0  0  0  0  0  0  0
   14.5566    1.2744    5.9390 C   0  0  0  0  0  0  0  0  0  0  0  0
   13.5974    0.7282    6.7594 O   0  0  0  0  0  0  0  0  0  0  0  0
   15.7978    3.4815    4.0889 O   0  0  0  0  0  0  0  0  0  0  0  0
  2  1  1  6
  2  3  1  0
  2  5  1  0
  3  4  2  0
  3  8  1  0
  5  6  1  0
  5  7  1  6
  8  9  1  0
  9 10  1  0
  9 12  1  1
 10 11  2  0
 10 16  1  0
 12 13  1  0
 13 14  1  0
 13 15  2  0
 16 17  1  0
 17 18  1  0
 17 20  1  6
 18 19  2  0
 18 24  1  0
 20 21  1  0
 21 22  1  1
 21 23  1  0
 24 25  1  0
 24 30  1  0
 25 26  1  1
 25 28  1  0
 26 27  2  0
 26 31  1  0
 28 29  1  0
 29 30  1  0
 31 32  1  0
 32 33  1  1
 32 35  1  0
 33 34  1  0
 34 37  1  0
 35 36  2  0
 35 41  1  0
 37 38  2  0
 37 39  1  6
 37 40  1  0
 41 42  1  0
 42 43  1  0
 42 45  1  6
 43 44  2  0
 43 49  1  0
 45 46  1  0
 46 47  1  0
 46 48  2  0
 49 50  1  0
 49 55  1  0
 50 51  1  6
 50 53  1  0
 51 52  2  0
 51 56  1  0
 53 54  1  0
 54 55  1  0
 56 57  1  0
 56 62  1  0
 57 58  1  1
 57 60  1  0
 58 59  2  0
 58 63  1  0
 60 61  1  0
 61 62  1  0
 63 64  1  0
 64 65  1  0
 64 67  1  6
 65 66  2  0
 65 69  1  0
 67 68  1  0
M  CHG  1   1   1
M  END
$$$$
