
     RDKit          3D

 69 71  0  0  0  0  0  0  0  0999 V2000
   -2.3399    3.3174    0.4842 N   0  0  0  0  0  4  0  0  0  0  0  0
   -1.1030    2.5634    0.2600 C   0  0  2  0  0  0  0  0  0  0  0  0
    0.0558    3.4696    0.1572 C   0  0  0  0  0  0  0  0  0  0  0  0
   -0.1319    4.7072   -0.0811 O   0  0  0  0  0  0  0  0  0  0  0  0
   -1.2147    1.7199   -0.9922 C   0  0  2  0  0  0  0  0  0  0  0  0
   -2.4775    1.1050   -1.0688 O   0  0  0  0  0  0  0  0  0  0  0  0
   -0.1296    0.6613   -0.9539 C   0  0  0  0  0  0  0  0  0  0  0  0
    1.3997    3.0647    0.3059 N   0  0  0  0  0  0  0  0  0  0  0  0
    2.4677    4.0538    0.5010 C   0  0  2  0  0  0  0  0  0  0  0  0
    3.7751    3.3046    0.6352 C   0  0  0  0  0  0  0  0  0  0  0  0
    3.9929    2.5960    1.6217 O   0  0  0  0  0  0  0  0  0  0  0  0
    2.1850    4.7446    1.7955 C   0  0  0  0  0  0  0  0  0  0  0  0
    3.2244    5.6417    2.2833 C   0  0  0  0  0  0  0  0  0  0  0  0
    4.5412    5.1512    2.2730 O   0  0  0  0  0  0  0  0  0  0  0  0
    3.0023    6.7848    2.6936 O   0  0  0  0  0  0  0  0  0  0  0  0
    4.7592    3.4175   -0.3814 N   0  0  0  0  0  0  0  0  0  0  0  0
    6.0658    2.7370   -0.3399 C   0  0  2  0  0  0  0  0  0  0  0  0
    6.6887    2.8114    0.9869 C   0  0  0  0  0  0  0  0  0  0  0  0
    6.2430    3.6613    1.8145 O   0  0  0  0  0  0  0  0  0  0  0  0
    6.8997    3.3512   -1.4519 C   0  0  0  0  0  0  0  0  0  0  0  0
    6.5839    2.5825   -2.7224 C   0  0  1  0  0  0  0  0  0  0  0  0
    5.0980    2.8038   -2.9805 C   0  0  0  0  0  0  0  0  0  0  0  0
    7.3686    3.1090   -3.8824 C   0  0  0  0  0  0  0  0  0  0  0  0
    7.7495    1.9883    1.3845 N   0  0  0  0  0  0  0  0  0  0  0  0
    8.2625    1.7398    2.6868 C   0  0  2  0  0  0  0  0  0  0  0  0
    9.4255    2.5892    3.0176 C   0  0  0  0  0  0  0  0  0  0  0  0
    9.9474    2.5119    4.1897 O   0  0  0  0  0  0  0  0  0  0  0  0
    8.6813    0.2622    2.6828 C   0  0  0  0  0  0  0  0  0  0  0  0
    9.1475    0.0621    1.2527 C   0  0  0  0  0  0  0  0  0  0  0  0
    8.5289    1.1569    0.4413 C   0  0  0  0  0  0  0  0  0  0  0  0
   10.0640    3.5201    2.1611 N   0  0  0  0  0  0  0  0  0  0  0  0
   10.0970    4.9237    2.4576 C   0  0  1  0  0  0  0  0  0  0  0  0
    9.1056    5.6173    1.4742 C   0  0  0  0  0  0  0  0  0  0  0  0
    9.7838    5.7565    0.2750 O   0  0  0  0  0  0  0  0  0  0  0  0
    9.6001    5.2991    3.7931 C   0  0  0  0  0  0  0  0  0  0  0  0
   10.3900    5.5124    4.7192 O   0  0  0  0  0  0  0  0  0  0  0  0
    9.8445    7.3643   -0.2020 P   0  0  1  0  0  5  0  0  0  0  0  0
   10.4033    8.1716    0.9649 O   0  0  0  0  0  0  0  0  0  0  0  0
   10.8144    7.6038   -1.5703 O   0  0  0  0  0  0  0  0  0  0  0  0
    8.2725    7.9139   -0.5434 O   0  0  0  0  0  0  0  0  0  0  0  0
    8.1922    5.4236    4.0477 N   0  0  0  0  0  0  0  0  0  0  0  0
    7.6233    5.7195    5.3358 C   0  0  2  0  0  0  0  0  0  0  0  0
    7.4496    4.4403    6.0528 C   0  0  0  0  0  0  0  0  0  0  0  0
    7.1912    3.4134    5.3259 O   0  0  0  0  0  0  0  0  0  0  0  0
    6.3314    6.4958    5.2283 C   0  0  0  0  0  0  0  0  0  0  0  0
    6.5844    7.9075    5.5305 C   0  0  0  0  0  0  0  0  0  0  0  0
    7.6205    8.5774    4.8433 O   0  0  0  0  0  0  0  0  0  0  0  0
    5.9619    8.6111    6.3582 O   0  0  0  0  0  0  0  0  0  0  0  0
    7.5413    4.2497    7.4500 N   0  0  0  0  0  0  0  0  0  0  0  0
    7.8869    3.0080    8.0858 C   0  0  2  0  0  0  0  0  0  0  0  0
    6.6775    2.2636    8.4949 C   0  0  0  0  0  0  0  0  0  0  0  0
    6.8127    1.1089    8.9612 O   0  0  0  0  0  0  0  0  0  0  0  0
    8.7393    3.4632    9.2522 C   0  0  0  0  0  0  0  0  0  0  0  0
    8.1221    4.7813    9.6366 C   0  0  0  0  0  0  0  0  0  0  0  0
    7.3152    5.2417    8.4475 C   0  0  0  0  0  0  0  0  0  0  0  0
    5.3705    2.8067    8.3798 N   0  0  0  0  0  0  0  0  0  0  0  0
    4.1316    2.1519    8.6861 C   0  0  2  0  0  0  0  0  0  0  0  0
    3.5909    1.4052    7.5160 C   0  0  0  0  0  0  0  0  0  0  0  0
    4.1607    1.4825    6.4291 O   0  0  0  0  0  0  0  0  0  0  0  0
    3.1907    3.2111    9.1643 C   0  0  0  0  0  0  0  0  0  0  0  0
    3.9248    4.5129    8.9547 C   0  0  0  0  0  0  0  0  0  0  0  0
    5.0101    4.1546    7.9176 C   0  0  0  0  0  0  0  0  0  0  0  0
    2.4222    0.6122    7.6679 N   0  0  0  0  0  0  0  0  0  0  0  0
    1.8901   -0.2341    6.6215 C   0  0  2  0  0  0  0  0  0  0  0  0
    0.4141   -0.1783    6.6836 C   0  0  0  0  0  0  0  0  0  0  0  0
   -0.2763   -0.9130    5.9418 O   0  0  0  0  0  0  0  0  0  0  0  0
    2.2838   -1.6765    6.9622 C   0  0  0  0  0  0  0  0  0  0  0  0
    1.9111   -2.5450    5.9632 O   0  0  0  0  0  0  0  0  0  0  0  0
   -0.2592    0.6858    7.5611 O   0  0  0  0  0  0  0  0  0  0  0  0
  2  1  1  6
  2  3  1  0
  2  5  1  0
  3  4  2  0
  3  8  1  0
  5  6  1  0
  5  7  1  1
  8  9  1  0
  9 10  1  0
  9 12  1  1
 10 11  2  0
 10 16  1  0
 12 13  1  0
 13 14  1  0
 13 15  2  0
 16 17  1  0
 17 18  1  0
 17 20  1  6
 18 19  2  0
 18 24  1  0
 20 21  1  0
 21 22  1  6
 21 23  1  0
 24 25  1  0
 24 30  1  0
 25 26  1  6
 25 28  1  0
 26 27  2  0
 26 31  1  0
 28 29  1  0
 29 30  1  0
 31 32  1  0
 32 33  1  6
 32 35  1  0
 33 34  1  0
 34 37  1  0
 35 36  2  0
 35 41  1  0
 37 38  2  0
 37 39  1  6
 37 40  1  0
 41 42  1  0
 42 43  1  0
 42 45  1  6
 43 44  2  0
 43 49  1  0
 45 46  1  0
 46 47  1  0
 46 48  2  0
 49 50  1  0
 49 55  1  0
 50 51  1  1
 50 53  1  0
 51 52  2  0
 51 56  1  0
 53 54  1  0
 54 55  1  0
 56 57  1  0
 56 62  1  0
 57 58  1  6
 57 60  1  0
 58 59  2  0
 58 63  1  0
 60 61  1  0
 61 62  1  0
 63 64  1  0
 64 65  1  0
 64 67  1  1
 65 66  2  0
 65 69  1  0
 67 68  1  0
M  CHG  1   1   1
M  END
$$$$
