
     RDKit          3D

 69 71  0  0  0  0  0  0  0  0999 V2000
   -6.1594    4.3357    8.2067 N   0  0  0  0  0  4  0  0  0  0  0  0
   -4.7456    4.6735    8.0172 C   0  0  2  0  0  0  0  0  0  0  0  0
   -4.0382    3.5978    7.2982 C   0  0  0  0  0  0  0  0  0  0  0  0
   -4.0641    2.4099    7.7585 O   0  0  0  0  0  0  0  0  0  0  0  0
   -4.0779    4.9322    9.3511 C   0  0  2  0  0  0  0  0  0  0  0  0
   -2.7070    5.1969    9.1801 O   0  0  0  0  0  0  0  0  0  0  0  0
   -4.2590    3.7043   10.2224 C   0  0  0  0  0  0  0  0  0  0  0  0
   -3.3108    3.7828    6.1029 N   0  0  0  0  0  0  0  0  0  0  0  0
   -2.6826    2.6448    5.4191 C   0  0  2  0  0  0  0  0  0  0  0  0
   -1.2681    2.5143    5.9394 C   0  0  0  0  0  0  0  0  0  0  0  0
   -0.5362    3.5045    6.0203 O   0  0  0  0  0  0  0  0  0  0  0  0
   -2.6209    2.9941    3.9675 C   0  0  0  0  0  0  0  0  0  0  0  0
   -3.2913    2.0740    3.0581 C   0  0  0  0  0  0  0  0  0  0  0  0
   -3.9268    0.9619    3.6362 O   0  0  0  0  0  0  0  0  0  0  0  0
   -3.3241    2.2271    1.8335 O   0  0  0  0  0  0  0  0  0  0  0  0
   -0.7785    1.2428    6.3374 N   0  0  0  0  0  0  0  0  0  0  0  0
    0.5783    1.0126    6.8648 C   0  0  2  0  0  0  0  0  0  0  0  0
    1.5460    1.9906    6.3537 C   0  0  0  0  0  0  0  0  0  0  0  0
    1.8142    3.0023    7.0682 O   0  0  0  0  0  0  0  0  0  0  0  0
    0.9224   -0.4304    6.5358 C   0  0  0  0  0  0  0  0  0  0  0  0
    2.0678   -0.8343    7.4468 C   0  0  1  0  0  0  0  0  0  0  0  0
    3.3139   -0.8334    6.5687 C   0  0  0  0  0  0  0  0  0  0  0  0
    2.2483    0.1509    8.5583 C   0  0  0  0  0  0  0  0  0  0  0  0
    2.1893    1.8601    5.1167 N   0  0  0  0  0  0  0  0  0  0  0  0
    3.4660    2.3325    4.7070 C   0  0  2  0  0  0  0  0  0  0  0  0
    3.3988    3.6265    3.9971 C   0  0  0  0  0  0  0  0  0  0  0  0
    2.8806    4.6427    4.5897 O   0  0  0  0  0  0  0  0  0  0  0  0
    4.0161    1.2504    3.7662 C   0  0  0  0  0  0  0  0  0  0  0  0
    2.7572    0.7373    3.0922 C   0  0  0  0  0  0  0  0  0  0  0  0
    1.6106    1.1177    3.9757 C   0  0  0  0  0  0  0  0  0  0  0  0
    3.8571    3.8956    2.6834 N   0  0  0  0  0  0  0  0  0  0  0  0
    4.6643    5.0431    2.3826 C   0  0  1  0  0  0  0  0  0  0  0  0
    4.1826    6.1932    3.3187 C   0  0  0  0  0  0  0  0  0  0  0  0
    4.6962    7.3646    2.7885 O   0  0  0  0  0  0  0  0  0  0  0  0
    6.0985    4.9051    2.6916 C   0  0  0  0  0  0  0  0  0  0  0  0
    6.8296    4.2088    1.9791 O   0  0  0  0  0  0  0  0  0  0  0  0
    3.9733    7.7313    1.3192 P   0  0  1  0  0  5  0  0  0  0  0  0
    4.3357    9.1715    0.9726 O   0  0  0  0  0  0  0  0  0  0  0  0
    4.4777    6.7055    0.0686 O   0  0  0  0  0  0  0  0  0  0  0  0
    2.2845    7.6149    1.4738 O   0  0  0  0  0  0  0  0  0  0  0  0
    6.6762    5.5729    3.8242 N   0  0  0  0  0  0  0  0  0  0  0  0
    8.0559    5.4596    4.2166 C   0  0  2  0  0  0  0  0  0  0  0  0
    8.2370    4.1321    4.8376 C   0  0  0  0  0  0  0  0  0  0  0  0
    7.1858    3.5947    5.3434 O   0  0  0  0  0  0  0  0  0  0  0  0
    8.4871    6.5830    5.1305 C   0  0  0  0  0  0  0  0  0  0  0  0
    8.3584    7.8616    4.4255 C   0  0  0  0  0  0  0  0  0  0  0  0
    7.3531    8.7665    4.8316 O   0  0  0  0  0  0  0  0  0  0  0  0
    9.0658    8.2555    3.4706 O   0  0  0  0  0  0  0  0  0  0  0  0
    9.4493    3.4112    4.9232 N   0  0  0  0  0  0  0  0  0  0  0  0
   10.5944    3.6327    4.0834 C   0  0  2  0  0  0  0  0  0  0  0  0
   10.6114    2.6902    2.9451 C   0  0  0  0  0  0  0  0  0  0  0  0
    9.6106    1.9615    2.7543 O   0  0  0  0  0  0  0  0  0  0  0  0
   11.7485    3.4390    5.0451 C   0  0  0  0  0  0  0  0  0  0  0  0
   11.2403    2.3780    5.9842 C   0  0  0  0  0  0  0  0  0  0  0  0
    9.7379    2.3637    5.8449 C   0  0  0  0  0  0  0  0  0  0  0  0
   11.7173    2.5796    2.0612 N   0  0  0  0  0  0  0  0  0  0  0  0
   11.8005    1.7755    0.8763 C   0  0  2  0  0  0  0  0  0  0  0  0
   12.2911    0.3996    1.1690 C   0  0  0  0  0  0  0  0  0  0  0  0
   12.0695   -0.1039    2.2687 O   0  0  0  0  0  0  0  0  0  0  0  0
   12.6939    2.5030   -0.0768 C   0  0  0  0  0  0  0  0  0  0  0  0
   13.2299    3.6772    0.7051 C   0  0  0  0  0  0  0  0  0  0  0  0
   13.0135    3.2630    2.1760 C   0  0  0  0  0  0  0  0  0  0  0  0
   13.0102   -0.3160    0.1747 N   0  0  0  0  0  0  0  0  0  0  0  0
   13.8244   -1.4779    0.4594 C   0  0  2  0  0  0  0  0  0  0  0  0
   15.2405   -1.1217    0.2284 C   0  0  0  0  0  0  0  0  0  0  0  0
   16.1056   -1.3827    1.0944 O   0  0  0  0  0  0  0  0  0  0  0  0
   13.4705   -2.5449   -0.5836 C   0  0  0  0  0  0  0  0  0  0  0  0
   14.5711   -3.2969   -0.9219 O   0  0  0  0  0  0  0  0  0  0  0  0
   15.6629   -0.4874   -0.9503 O   0  0  0  0  0  0  0  0  0  0  0  0
  2  1  1  1
  2  3  1  0
  2  5  1  0
  3  4  2  0
  3  8  1  0
  5  6  1  0
  5  7  1  1
  8  9  1  0
  9 10  1  0
  9 12  1  6
 10 11  2  0
 10 16  1  0
 12 13  1  0
 13 14  1  0
 13 15  2  0
 16 17  1  0
 17 18  1  0
 17 20  1  6
 18 19  2  0
 18 24  1  0
 20 21  1  0
 21 22  1  6
 21 23  1  0
 24 25  1  0
 24 30  1  0
 25 26  1  6
 25 28  1  0
 26 27  2  0
 26 31  1  0
 28 29  1  0
 29 30  1  0
 31 32  1  0
 32 33  1  1
 32 35  1  0
 33 34  1  0
 34 37  1  0
 35 36  2  0
 35 41  1  0
 37 38  2  0
 37 39  1  6
 37 40  1  0
 41 42  1  0
 42 43  1  0
 42 45  1  1
 43 44  2  0
 43 49  1  0
 45 46  1  0
 46 47  1  0
 46 48  2  0
 49 50  1  0
 49 55  1  0
 50 51  1  6
 50 53  1  0
 51 52  2  0
 51 56  1  0
 53 54  1  0
 54 55  1  0
 56 57  1  0
 56 62  1  0
 57 58  1  1
 57 60  1  0
 58 59  2  0
 58 63  1  0
 60 61  1  0
 61 62  1  0
 63 64  1  0
 64 65  1  0
 64 67  1  6
 65 66  2  0
 65 69  1  0
 67 68  1  0
M  CHG  1   1   1
M  END
$$$$
