
     RDKit          3D

 34 37  0  0  0  0  0  0  0  0999 V2000
  -13.9885    9.9108   -0.9763 C   0  0  0  0  0  0  0  0  0  0  0  0
  -13.7841   11.0721   -0.2607 C   0  0  0  0  0  0  0  0  0  0  0  0
  -27.5544   10.0007   -1.4326 C   0  0  0  0  0  0  0  0  0  0  0  0
  -26.2023    9.7657   -0.8560 C   0  0  0  0  0  0  0  0  0  0  0  0
  -25.7571   10.3916    0.2931 C   0  0  0  0  0  0  0  0  0  0  0  0
  -24.4866   10.1281    0.7767 C   0  0  0  0  0  0  0  0  0  0  0  0
  -25.3804    8.8840   -1.5134 C   0  0  0  0  0  0  0  0  0  0  0  0
  -24.1106    8.6333   -1.0129 C   0  0  0  0  0  0  0  0  0  0  0  0
  -23.6506    9.2485    0.1316 C   0  0  0  0  0  0  0  0  0  0  0  0
  -20.9480    8.6773   -0.7810 C   0  0  1  0  0  0  0  0  0  0  0  0
  -20.4493    6.4779   -1.3234 C   0  0  2  0  0  0  0  0  0  0  0  0
  -20.7320    5.7505   -0.0100 C   0  0  0  0  0  0  0  0  0  0  0  0
  -18.9796    6.7201   -1.4597 C   0  0  1  0  0  0  0  0  0  0  0  0
  -18.6213    8.1809   -1.3977 C   0  0  1  0  0  0  0  0  0  0  0  0
  -16.4298    9.3419   -1.4205 C   0  0  0  0  0  0  0  0  0  0  0  0
  -15.2048    9.1251   -0.8720 C   0  0  0  0  0  0  0  0  0  0  0  0
  -12.6215   11.7784   -0.3922 C   0  0  0  0  0  0  0  0  0  0  0  0
  -11.6155   11.3610   -1.2385 C   0  0  0  0  0  0  0  0  0  0  0  0
  -11.7937   10.2050   -1.9646 C   0  0  0  0  0  0  0  0  0  0  0  0
  -12.9693    9.4946   -1.8290 C   0  0  0  0  0  0  0  0  0  0  0  0
  -19.5287    8.8144   -0.3534 C   0  0  1  0  0  0  0  0  0  0  0  0
  -14.7780   11.4756    0.5691 F   0  0  0  0  0  0  0  0  0  0  0  0
  -12.4580   12.9261    0.3359 F   0  0  0  0  0  0  0  0  0  0  0  0
  -10.4557   12.0791   -1.3601 F   0  0  0  0  0  0  0  0  0  0  0  0
  -10.8279    9.7713   -2.8007 F   0  0  0  0  0  0  0  0  0  0  0  0
  -13.1743    8.3502   -2.5321 F   0  0  0  0  0  0  0  0  0  0  0  0
  -17.2281    8.3170   -1.0219 N   0  0  0  0  0  0  0  0  0  0  0  0
  -15.3236    7.9711   -0.1635 N   0  0  0  0  0  0  0  0  0  0  0  0
  -16.5382    7.5035   -0.2649 N   0  0  0  0  0  0  0  0  0  0  0  0
  -21.2424    7.5688   -1.5158 O   0  0  0  0  0  0  0  0  0  0  0  0
  -21.6764    4.7687   -0.3112 O   0  0  0  0  0  0  0  0  0  0  0  0
  -18.2605    6.0708   -0.4583 O   0  0  0  0  0  0  0  0  0  0  0  0
  -19.1710   10.1819   -0.3229 O   0  0  0  0  0  0  0  0  0  0  0  0
  -22.0118    8.8617    0.6916 S   0  0  0  0  0  0  0  0  0  0  0  0
  1  2  2  0
 16  1  1  0
  1 20  1  0
  2 17  1  0
  2 22  1  0
  4  3  1  0
  5  4  2  0
  7  4  1  0
  6  5  1  0
  9  6  2  0
  8  7  2  0
  9  8  1  0
 34  9  1  0
 21 10  1  0
 10 30  1  0
 10 34  1  1
 11 12  1  1
 13 11  1  0
 11 30  1  0
 12 31  1  0
 14 13  1  0
 13 32  1  1
 14 21  1  0
 14 27  1  1
 15 16  2  0
 15 27  1  0
 16 28  1  0
 17 18  2  0
 17 23  1  0
 18 19  1  0
 18 24  1  0
 19 20  2  0
 19 25  1  0
 20 26  1  0
 21 33  1  6
 27 29  1  0
 28 29  2  0
M  END
$$$$
