
     RDKit          3D

 34 37  0  0  0  0  0  0  0  0999 V2000
  -13.2195    8.9673   -0.0797 C   0  0  0  0  0  0  0  0  0  0  0  0
  -12.3611    8.7416   -1.1283 C   0  0  0  0  0  0  0  0  0  0  0  0
  -27.0627    8.1601   -3.7035 C   0  0  0  0  0  0  0  0  0  0  0  0
  -25.7237    8.5457   -3.2167 C   0  0  0  0  0  0  0  0  0  0  0  0
  -24.5826    8.4863   -3.9552 C   0  0  0  0  0  0  0  0  0  0  0  0
  -23.3534    8.8698   -3.4202 C   0  0  0  0  0  0  0  0  0  0  0  0
  -25.6164    9.0014   -1.9148 C   0  0  0  0  0  0  0  0  0  0  0  0
  -24.4152    9.3834   -1.3705 C   0  0  0  0  0  0  0  0  0  0  0  0
  -23.2609    9.3208   -2.1251 C   0  0  0  0  0  0  0  0  0  0  0  0
  -20.4977    8.4978   -1.4386 C   0  0  1  0  0  0  0  0  0  0  0  0
  -19.8806    6.5913   -0.4738 C   0  0  2  0  0  0  0  0  0  0  0  0
  -20.2691    5.5771    0.5635 C   0  0  0  0  0  0  0  0  0  0  0  0
  -18.4098    6.9267   -0.3939 C   0  0  1  0  0  0  0  0  0  0  0  0
  -18.0266    8.0943   -1.2308 C   0  0  1  0  0  0  0  0  0  0  0  0
  -15.5576    8.2062   -0.7891 C   0  0  0  0  0  0  0  0  0  0  0  0
  -14.6613    9.0995   -0.2410 C   0  0  0  0  0  0  0  0  0  0  0  0
  -10.9954    8.6210   -0.9538 C   0  0  0  0  0  0  0  0  0  0  0  0
  -10.4634    8.7302    0.3204 C   0  0  0  0  0  0  0  0  0  0  0  0
  -11.2998    8.9560    1.3877 C   0  0  0  0  0  0  0  0  0  0  0  0
  -12.6454    9.0713    1.1896 C   0  0  0  0  0  0  0  0  0  0  0  0
  -19.1186    9.1060   -1.4282 C   0  0  1  0  0  0  0  0  0  0  0  0
  -12.8504    8.6299   -2.3911 F   0  0  0  0  0  0  0  0  0  0  0  0
  -10.1383    8.3980   -1.9814 F   0  0  0  0  0  0  0  0  0  0  0  0
   -9.1138    8.6160    0.5316 F   0  0  0  0  0  0  0  0  0  0  0  0
  -10.7642    9.0609    2.6296 F   0  0  0  0  0  0  0  0  0  0  0  0
  -13.4541    9.2937    2.2502 F   0  0  0  0  0  0  0  0  0  0  0  0
  -16.8131    8.7259   -0.7480 N   0  0  0  0  0  0  0  0  0  0  0  0
  -15.4226   10.1653    0.1271 N   0  0  0  0  0  0  0  0  0  0  0  0
  -16.6622    9.9097   -0.1834 N   0  0  0  0  0  0  0  0  0  0  0  0
  -20.6601    7.7290   -0.2861 O   0  0  0  0  0  0  0  0  0  0  0  0
  -21.2930    4.7455    0.1547 O   0  0  0  0  0  0  0  0  0  0  0  0
  -18.0764    7.1090    0.9441 O   0  0  0  0  0  0  0  0  0  0  0  0
  -18.9619    9.7731   -2.6440 O   0  0  0  0  0  0  0  0  0  0  0  0
  -21.7325    9.8274   -1.3742 S   0  0  0  0  0  0  0  0  0  0  0  0
  1  2  2  0
 16  1  1  0
  1 20  1  0
  2 17  1  0
  2 22  1  0
  3  4  1  6
  5  4  2  0
  7  4  1  0
  6  5  1  0
  9  6  2  0
  8  7  2  0
  9  8  1  0
 34  9  1  0
 21 10  1  0
 10 30  1  0
 10 34  1  1
 11 12  1  0
 13 11  1  0
 11 30  1  1
 12 31  1  6
 14 13  1  0
 13 32  1  1
 14 21  1  0
 14 27  1  1
 15 16  2  0
 15 27  1  0
 16 28  1  0
 17 18  2  0
 17 23  1  0
 18 19  1  0
 18 24  1  0
 19 20  2  0
 19 25  1  0
 20 26  1  0
 21 33  1  6
 27 29  1  0
 28 29  2  0
M  END
$$$$
