
     RDKit          3D

 34 37  0  0  0  0  0  0  0  0999 V2000
  -13.9539    8.7168    0.4702 C   0  0  0  0  0  0  0  0  0  0  0  0
  -12.8328    8.7292   -0.3333 C   0  0  0  0  0  0  0  0  0  0  0  0
  -27.6777   10.3201    0.8834 C   0  0  0  0  0  0  0  0  0  0  0  0
  -26.3596    9.6924    0.5927 C   0  0  0  0  0  0  0  0  0  0  0  0
  -25.4558    9.3523    1.5814 C   0  0  0  0  0  0  0  0  0  0  0  0
  -24.2457    8.7705    1.2425 C   0  0  0  0  0  0  0  0  0  0  0  0
  -26.0521    9.4511   -0.7234 C   0  0  0  0  0  0  0  0  0  0  0  0
  -24.8343    8.8673   -1.0428 C   0  0  0  0  0  0  0  0  0  0  0  0
  -23.9213    8.5218   -0.0697 C   0  0  0  0  0  0  0  0  0  0  0  0
  -21.1124    9.0830   -0.5776 C   0  0  1  0  0  0  0  0  0  0  0  0
  -20.3687    9.6865   -2.6901 C   0  0  2  0  0  0  0  0  0  0  0  0
  -20.7830    8.4818   -3.5335 C   0  0  0  0  0  0  0  0  0  0  0  0
  -18.9184    9.5817   -2.3393 C   0  0  1  0  0  0  0  0  0  0  0  0
  -18.6888    9.3703   -0.8666 C   0  0  1  0  0  0  0  0  0  0  0  0
  -16.3456    9.4132   -0.0548 C   0  0  0  0  0  0  0  0  0  0  0  0
  -15.2970    8.5478   -0.0543 C   0  0  0  0  0  0  0  0  0  0  0  0
  -11.5880    8.8915    0.2068 C   0  0  0  0  0  0  0  0  0  0  0  0
  -11.4054    9.0479    1.5650 C   0  0  0  0  0  0  0  0  0  0  0  0
  -12.5077    9.0392    2.3898 C   0  0  0  0  0  0  0  0  0  0  0  0
  -13.7632    8.8751    1.8405 C   0  0  0  0  0  0  0  0  0  0  0  0
  -19.7863    8.4367   -0.3778 C   0  0  1  0  0  0  0  0  0  0  0  0
  -13.0209    8.5749   -1.6674 F   0  0  0  0  0  0  0  0  0  0  0  0
  -10.5009    8.8981   -0.6252 F   0  0  0  0  0  0  0  0  0  0  0  0
  -10.1518    9.2095    2.0921 F   0  0  0  0  0  0  0  0  0  0  0  0
  -12.3612    9.1898    3.7224 F   0  0  0  0  0  0  0  0  0  0  0  0
  -14.8699    8.8623    2.6286 F   0  0  0  0  0  0  0  0  0  0  0  0
  -17.3807    8.7792   -0.6656 N   0  0  0  0  0  0  0  0  0  0  0  0
  -15.7532    7.4247   -0.6694 N   0  0  0  0  0  0  0  0  0  0  0  0
  -16.9988    7.5816   -1.0272 N   0  0  0  0  0  0  0  0  0  0  0  0
  -21.2080    9.9251   -1.6439 O   0  0  0  0  0  0  0  0  0  0  0  0
  -21.1377    8.9922   -4.7826 O   0  0  0  0  0  0  0  0  0  0  0  0
  -18.3053    8.5275   -3.0131 O   0  0  0  0  0  0  0  0  0  0  0  0
  -19.5454    8.2626    1.0044 O   0  0  0  0  0  0  0  0  0  0  0  0
  -22.3919    7.7801   -0.5790 S   0  0  0  0  0  0  0  0  0  0  0  0
  1  2  2  0
 16  1  1  0
  1 20  1  0
  2 17  1  0
  2 22  1  0
  4  3  1  0
  5  4  2  0
  7  4  1  0
  6  5  1  0
  9  6  2  0
  8  7  2  0
  9  8  1  0
 34  9  1  0
 21 10  1  0
 10 30  1  0
 10 34  1  6
 11 12  1  1
 13 11  1  0
 11 30  1  0
 12 31  1  0
 14 13  1  0
 13 32  1  6
 14 21  1  0
 14 27  1  6
 15 16  2  0
 15 27  1  0
 16 28  1  0
 17 18  2  0
 17 23  1  0
 18 19  1  0
 18 24  1  0
 19 20  2  0
 19 25  1  0
 20 26  1  0
 21 33  1  1
 27 29  1  0
 28 29  2  0
M  END
$$$$
