
     RDKit          3D

 34 37  0  0  0  0  0  0  0  0999 V2000
  -13.7243    8.9194    0.0605 C   0  0  0  0  0  0  0  0  0  0  0  0
  -12.6408    8.3686   -0.5799 C   0  0  0  0  0  0  0  0  0  0  0  0
  -27.1441   12.0487   -0.4246 C   0  0  0  0  0  0  0  0  0  0  0  0
  -25.8750   11.3189   -0.2359 C   0  0  0  0  0  0  0  0  0  0  0  0
  -24.8780   11.2444   -1.1587 C   0  0  0  0  0  0  0  0  0  0  0  0
  -23.7067   10.5327   -0.9028 C   0  0  0  0  0  0  0  0  0  0  0  0
  -25.6808   10.6612    0.9656 C   0  0  0  0  0  0  0  0  0  0  0  0
  -24.5346    9.9555    1.2360 C   0  0  0  0  0  0  0  0  0  0  0  0
  -23.5265    9.8836    0.2954 C   0  0  0  0  0  0  0  0  0  0  0  0
  -20.9631    8.8187   -0.7428 C   0  0  1  0  0  0  0  0  0  0  0  0
  -20.4748    7.5387   -2.4948 C   0  0  2  0  0  0  0  0  0  0  0  0
  -20.8993    6.3172   -3.2587 C   0  0  0  0  0  0  0  0  0  0  0  0
  -18.9770    7.5758   -2.3015 C   0  0  1  0  0  0  0  0  0  0  0  0
  -18.5326    8.6288   -1.3507 C   0  0  1  0  0  0  0  0  0  0  0  0
  -16.1232    9.0882   -0.8151 C   0  0  0  0  0  0  0  0  0  0  0  0
  -15.0922    8.4627   -0.1460 C   0  0  0  0  0  0  0  0  0  0  0  0
  -11.3507    8.8181   -0.3711 C   0  0  0  0  0  0  0  0  0  0  0  0
  -11.1320    9.8610    0.5138 C   0  0  0  0  0  0  0  0  0  0  0  0
  -12.1984   10.4304    1.1682 C   0  0  0  0  0  0  0  0  0  0  0  0
  -13.4634    9.9687    0.9450 C   0  0  0  0  0  0  0  0  0  0  0  0
  -19.5347    8.9717   -0.2862 C   0  0  1  0  0  0  0  0  0  0  0  0
  -12.8207    7.3444   -1.4546 F   0  0  0  0  0  0  0  0  0  0  0  0
  -10.2733    8.2820   -0.9974 F   0  0  0  0  0  0  0  0  0  0  0  0
   -9.8662   10.3331    0.7460 F   0  0  0  0  0  0  0  0  0  0  0  0
  -11.9686   11.4512    2.0316 F   0  0  0  0  0  0  0  0  0  0  0  0
  -14.5013   10.5401    1.5964 F   0  0  0  0  0  0  0  0  0  0  0  0
  -17.2412    8.3162   -0.7683 N   0  0  0  0  0  0  0  0  0  0  0  0
  -15.6318    7.2958    0.2992 N   0  0  0  0  0  0  0  0  0  0  0  0
  -16.8772    7.2490   -0.0818 N   0  0  0  0  0  0  0  0  0  0  0  0
  -21.1336    7.5381   -1.2687 O   0  0  0  0  0  0  0  0  0  0  0  0
  -22.1913    6.3978   -3.7393 O   0  0  0  0  0  0  0  0  0  0  0  0
  -18.5559    6.3081   -1.9139 O   0  0  0  0  0  0  0  0  0  0  0  0
  -19.3828   10.2953    0.1293 O   0  0  0  0  0  0  0  0  0  0  0  0
  -22.0632    8.9586    0.6948 S   0  0  0  0  0  0  0  0  0  0  0  0
  1  2  2  0
 16  1  1  0
  1 20  1  0
  2 17  1  0
  2 22  1  0
  3  4  1  6
  5  4  2  0
  7  4  1  0
  6  5  1  0
  9  6  2  0
  8  7  2  0
  9  8  1  0
 34  9  1  0
 21 10  1  0
 10 30  1  0
 10 34  1  1
 11 12  1  0
 13 11  1  0
 11 30  1  1
 12 31  1  6
 14 13  1  0
 13 32  1  1
 14 21  1  0
 14 27  1  1
 15 16  2  0
 15 27  1  0
 16 28  1  0
 17 18  2  0
 17 23  1  0
 18 19  1  0
 18 24  1  0
 19 20  2  0
 19 25  1  0
 20 26  1  0
 21 33  1  6
 27 29  1  0
 28 29  2  0
M  END
$$$$
