
     RDKit          3D

 34 37  0  0  0  0  0  0  0  0999 V2000
  -13.2203    8.7743    0.1128 C   0  0  0  0  0  0  0  0  0  0  0  0
  -12.7481    8.7965    1.4028 C   0  0  0  0  0  0  0  0  0  0  0  0
  -27.0694    7.7469   -3.6090 C   0  0  0  0  0  0  0  0  0  0  0  0
  -25.7188    8.1092   -3.1364 C   0  0  0  0  0  0  0  0  0  0  0  0
  -24.6390    7.2819   -3.1643 C   0  0  0  0  0  0  0  0  0  0  0  0
  -23.3938    7.7011   -2.6977 C   0  0  0  0  0  0  0  0  0  0  0  0
  -25.5326    9.3819   -2.6271 C   0  0  0  0  0  0  0  0  0  0  0  0
  -24.3144    9.8128   -2.1630 C   0  0  0  0  0  0  0  0  0  0  0  0
  -23.2225    8.9685   -2.1941 C   0  0  0  0  0  0  0  0  0  0  0  0
  -20.4422    8.2406   -1.4709 C   0  0  1  0  0  0  0  0  0  0  0  0
  -19.8363    6.4739   -0.2634 C   0  0  2  0  0  0  0  0  0  0  0  0
  -20.2306    5.6076    0.8984 C   0  0  0  0  0  0  0  0  0  0  0  0
  -18.3634    6.8077   -0.2280 C   0  0  1  0  0  0  0  0  0  0  0  0
  -17.9735    7.8525   -1.2113 C   0  0  1  0  0  0  0  0  0  0  0  0
  -15.5474    7.9605   -0.5742 C   0  0  0  0  0  0  0  0  0  0  0  0
  -14.6288    8.9283   -0.2257 C   0  0  0  0  0  0  0  0  0  0  0  0
  -11.4073    8.6467    1.7026 C   0  0  0  0  0  0  0  0  0  0  0  0
  -10.4991    8.4671    0.6723 C   0  0  0  0  0  0  0  0  0  0  0  0
  -10.9446    8.4409   -0.6279 C   0  0  0  0  0  0  0  0  0  0  0  0
  -12.2740    8.5912   -0.8984 C   0  0  0  0  0  0  0  0  0  0  0  0
  -19.0593    8.8362   -1.5404 C   0  0  1  0  0  0  0  0  0  0  0  0
  -13.6125    8.9704    2.4367 F   0  0  0  0  0  0  0  0  0  0  0  0
  -10.9295    8.6671    2.9721 F   0  0  0  0  0  0  0  0  0  0  0  0
   -9.1617    8.3151    0.9317 F   0  0  0  0  0  0  0  0  0  0  0  0
  -10.0434    8.2639   -1.6262 F   0  0  0  0  0  0  0  0  0  0  0  0
  -12.6957    8.5626   -2.1828 F   0  0  0  0  0  0  0  0  0  0  0  0
  -16.7558    8.5346   -0.8156 N   0  0  0  0  0  0  0  0  0  0  0  0
  -15.3284   10.0945   -0.2672 N   0  0  0  0  0  0  0  0  0  0  0  0
  -16.5555    9.8236   -0.6126 N   0  0  0  0  0  0  0  0  0  0  0  0
  -20.6086    7.6313   -0.2273 O   0  0  0  0  0  0  0  0  0  0  0  0
  -21.2660    4.7422    0.6052 O   0  0  0  0  0  0  0  0  0  0  0  0
  -18.0281    7.1625    1.0744 O   0  0  0  0  0  0  0  0  0  0  0  0
  -18.8991    9.3364   -2.8335 O   0  0  0  0  0  0  0  0  0  0  0  0
  -21.6686    9.5748   -1.5825 S   0  0  0  0  0  0  0  0  0  0  0  0
  1  2  2  0
 16  1  1  0
  1 20  1  0
  2 17  1  0
  2 22  1  0
  3  4  1  6
  5  4  2  0
  7  4  1  0
  6  5  1  0
  9  6  2  0
  8  7  2  0
  9  8  1  0
 34  9  1  0
 21 10  1  0
 10 30  1  0
 10 34  1  1
 11 12  1  0
 13 11  1  0
 11 30  1  1
 12 31  1  6
 14 13  1  0
 13 32  1  1
 14 21  1  0
 14 27  1  1
 15 16  2  0
 15 27  1  0
 16 28  1  0
 17 18  2  0
 17 23  1  0
 18 19  1  0
 18 24  1  0
 19 20  2  0
 19 25  1  0
 20 26  1  0
 21 33  1  6
 27 29  1  0
 28 29  2  0
M  END
$$$$
