
     RDKit          3D

 34 37  0  0  0  0  0  0  0  0999 V2000
  -13.4991    9.5481   -0.1820 C   0  0  0  0  0  0  0  0  0  0  0  0
  -12.3891    8.7400   -0.3141 C   0  0  0  0  0  0  0  0  0  0  0  0
  -26.8200    9.4137   -3.7017 C   0  0  0  0  0  0  0  0  0  0  0  0
  -25.6597    9.3974   -2.7694 C   0  0  0  0  0  0  0  0  0  0  0  0
  -25.7861    9.6115   -1.4098 C   0  0  0  0  0  0  0  0  0  0  0  0
  -24.6650    9.5829   -0.5975 C   0  0  0  0  0  0  0  0  0  0  0  0
  -24.4201    9.1571   -3.3086 C   0  0  0  0  0  0  0  0  0  0  0  0
  -23.3087    9.1324   -2.4780 C   0  0  0  0  0  0  0  0  0  0  0  0
  -23.4166    9.3437   -1.1202 C   0  0  0  0  0  0  0  0  0  0  0  0
  -20.5566    8.8258   -1.2437 C   0  0  1  0  0  0  0  0  0  0  0  0
  -20.0537    6.5616   -1.2301 C   0  0  2  0  0  0  0  0  0  0  0  0
  -20.6850    6.0995    0.0823 C   0  0  0  0  0  0  0  0  0  0  0  0
  -18.5847    6.7678   -1.0381 C   0  0  1  0  0  0  0  0  0  0  0  0
  -18.1783    8.2123   -1.1589 C   0  0  1  0  0  0  0  0  0  0  0  0
  -15.8376    9.0239   -1.0408 C   0  0  0  0  0  0  0  0  0  0  0  0
  -14.8507    9.0235   -0.1057 C   0  0  0  0  0  0  0  0  0  0  0  0
  -11.1357    9.2804   -0.3819 C   0  0  0  0  0  0  0  0  0  0  0  0
  -10.9332   10.6434   -0.3215 C   0  0  0  0  0  0  0  0  0  0  0  0
  -12.0241   11.4729   -0.1897 C   0  0  0  0  0  0  0  0  0  0  0  0
  -13.2883   10.9233   -0.1216 C   0  0  0  0  0  0  0  0  0  0  0  0
  -19.2793    9.0370   -0.5088 C   0  0  1  0  0  0  0  0  0  0  0  0
  -12.5967    7.4012   -0.3727 F   0  0  0  0  0  0  0  0  0  0  0  0
  -10.0601    8.4436   -0.5128 F   0  0  0  0  0  0  0  0  0  0  0  0
   -9.6711   11.1707   -0.3907 F   0  0  0  0  0  0  0  0  0  0  0  0
  -11.8581   12.8102   -0.1279 F   0  0  0  0  0  0  0  0  0  0  0  0
  -14.3841   11.7159    0.0084 F   0  0  0  0  0  0  0  0  0  0  0  0
  -16.9137    8.4126   -0.4795 N   0  0  0  0  0  0  0  0  0  0  0  0
  -15.3825    8.4075    0.9830 N   0  0  0  0  0  0  0  0  0  0  0  0
  -16.6145    8.0499    0.7410 N   0  0  0  0  0  0  0  0  0  0  0  0
  -20.7191    7.5985   -1.8115 O   0  0  0  0  0  0  0  0  0  0  0  0
  -21.5122    5.0255   -0.2476 O   0  0  0  0  0  0  0  0  0  0  0  0
  -18.1658    6.3193    0.2128 O   0  0  0  0  0  0  0  0  0  0  0  0
  -18.8706   10.3838   -0.6425 O   0  0  0  0  0  0  0  0  0  0  0  0
  -21.9366    9.2921   -0.1425 S   0  0  0  0  0  0  0  0  0  0  0  0
  1  2  2  0
 16  1  1  0
  1 20  1  0
  2 17  1  0
  2 22  1  0
  4  3  1  0
  5  4  2  0
  7  4  1  0
  6  5  1  0
  9  6  2  0
  8  7  2  0
  9  8  1  0
 34  9  1  0
 21 10  1  0
 10 30  1  0
 10 34  1  1
 11 12  1  1
 13 11  1  0
 11 30  1  0
 12 31  1  0
 14 13  1  0
 13 32  1  1
 14 21  1  0
 14 27  1  1
 15 16  2  0
 15 27  1  0
 16 28  1  0
 17 18  2  0
 17 23  1  0
 18 19  1  0
 18 24  1  0
 19 20  2  0
 19 25  1  0
 20 26  1  0
 21 33  1  6
 27 29  1  0
 28 29  2  0
M  END
$$$$
