
     RDKit          3D

 34 37  0  0  0  0  0  0  0  0999 V2000
  -13.5765    9.5856   -0.5417 C   0  0  0  0  0  0  0  0  0  0  0  0
  -13.2379   10.7523    0.1115 C   0  0  0  0  0  0  0  0  0  0  0  0
  -27.3178    9.8756   -2.2402 C   0  0  0  0  0  0  0  0  0  0  0  0
  -25.9676    9.8462   -1.6141 C   0  0  0  0  0  0  0  0  0  0  0  0
  -25.1838   10.9750   -1.4666 C   0  0  0  0  0  0  0  0  0  0  0  0
  -23.9357   10.8784   -0.8747 C   0  0  0  0  0  0  0  0  0  0  0  0
  -25.5032    8.6322   -1.1719 C   0  0  0  0  0  0  0  0  0  0  0  0
  -24.2497    8.5560   -0.5814 C   0  0  0  0  0  0  0  0  0  0  0  0
  -23.4550    9.6714   -0.4263 C   0  0  0  0  0  0  0  0  0  0  0  0
  -20.6592    9.0800   -0.9706 C   0  0  1  0  0  0  0  0  0  0  0  0
  -20.2990    6.8102   -1.2846 C   0  0  2  0  0  0  0  0  0  0  0  0
  -20.7978    6.2199    0.0333 C   0  0  0  0  0  0  0  0  0  0  0  0
  -18.8077    6.9219   -1.2548 C   0  0  1  0  0  0  0  0  0  0  0  0
  -18.3300    8.3495   -1.2558 C   0  0  1  0  0  0  0  0  0  0  0  0
  -16.0069    9.2166   -1.2035 C   0  0  0  0  0  0  0  0  0  0  0  0
  -14.8966    8.9879   -0.4529 C   0  0  0  0  0  0  0  0  0  0  0  0
  -11.9813   11.2773   -0.0024 C   0  0  0  0  0  0  0  0  0  0  0  0
  -11.0106   10.6661   -0.7683 C   0  0  0  0  0  0  0  0  0  0  0  0
  -11.3221    9.5002   -1.4309 C   0  0  0  0  0  0  0  0  0  0  0  0
  -12.5923    8.9732   -1.3134 C   0  0  0  0  0  0  0  0  0  0  0  0
  -19.2933    9.1384   -0.3814 C   0  0  1  0  0  0  0  0  0  0  0  0
  -14.1979   11.3470    0.8624 F   0  0  0  0  0  0  0  0  0  0  0  0
  -11.6855   12.4372    0.6620 F   0  0  0  0  0  0  0  0  0  0  0  0
   -9.7554   11.2038   -0.8731 F   0  0  0  0  0  0  0  0  0  0  0  0
  -10.3939    8.8792   -2.1877 F   0  0  0  0  0  0  0  0  0  0  0  0
  -12.9297    7.8242   -1.9551 F   0  0  0  0  0  0  0  0  0  0  0  0
  -16.9839    8.4047   -0.7210 N   0  0  0  0  0  0  0  0  0  0  0  0
  -15.2596    8.0418    0.4531 N   0  0  0  0  0  0  0  0  0  0  0  0
  -16.5089    7.7062    0.2776 N   0  0  0  0  0  0  0  0  0  0  0  0
  -20.9632    7.9412   -1.6531 O   0  0  0  0  0  0  0  0  0  0  0  0
  -21.9258    5.4642   -0.2879 O   0  0  0  0  0  0  0  0  0  0  0  0
  -18.2721    6.3031   -0.1271 O   0  0  0  0  0  0  0  0  0  0  0  0
  -18.8208   10.4707   -0.4068 O   0  0  0  0  0  0  0  0  0  0  0  0
  -21.8677    9.4710    0.3412 S   0  0  0  0  0  0  0  0  0  0  0  0
  1  2  2  0
 16  1  1  0
  1 20  1  0
  2 17  1  0
  2 22  1  0
  4  3  1  0
  5  4  2  0
  7  4  1  0
  6  5  1  0
  9  6  2  0
  8  7  2  0
  9  8  1  0
 34  9  1  0
 21 10  1  0
 10 30  1  0
 10 34  1  1
 11 12  1  1
 13 11  1  0
 11 30  1  0
 12 31  1  0
 14 13  1  0
 13 32  1  1
 14 21  1  0
 14 27  1  1
 15 16  2  0
 15 27  1  0
 16 28  1  0
 17 18  2  0
 17 23  1  0
 18 19  1  0
 18 24  1  0
 19 20  2  0
 19 25  1  0
 20 26  1  0
 21 33  1  6
 27 29  1  0
 28 29  2  0
M  END
$$$$
