
     RDKit          3D

 34 37  0  0  0  0  0  0  0  0999 V2000
  -13.5083    9.1888   -0.3736 C   0  0  0  0  0  0  0  0  0  0  0  0
  -12.8077   10.1224   -1.1086 C   0  0  0  0  0  0  0  0  0  0  0  0
  -26.9972    9.7361   -1.3826 C   0  0  0  0  0  0  0  0  0  0  0  0
  -25.5331    9.7348   -1.1137 C   0  0  0  0  0  0  0  0  0  0  0  0
  -24.6064   10.2486   -2.0011 C   0  0  0  0  0  0  0  0  0  0  0  0
  -23.2576   10.2163   -1.6892 C   0  0  0  0  0  0  0  0  0  0  0  0
  -25.1103    9.1939    0.0753 C   0  0  0  0  0  0  0  0  0  0  0  0
  -23.7543    9.1707    0.3696 C   0  0  0  0  0  0  0  0  0  0  0  0
  -22.8166    9.6786   -0.5037 C   0  0  0  0  0  0  0  0  0  0  0  0
  -20.1906    8.8039   -1.3991 C   0  0  1  0  0  0  0  0  0  0  0  0
  -20.0758    6.4927   -1.2400 C   0  0  2  0  0  0  0  0  0  0  0  0
  -20.3734    6.2568    0.2398 C   0  0  0  0  0  0  0  0  0  0  0  0
  -18.5997    6.4313   -1.4738 C   0  0  1  0  0  0  0  0  0  0  0  0
  -18.0175    7.7599   -1.8764 C   0  0  1  0  0  0  0  0  0  0  0  0
  -15.9420    8.8126   -1.0186 C   0  0  0  0  0  0  0  0  0  0  0  0
  -14.6364    8.4492   -0.9102 C   0  0  0  0  0  0  0  0  0  0  0  0
  -11.7517   10.7942   -0.5598 C   0  0  0  0  0  0  0  0  0  0  0  0
  -11.3484   10.5669    0.7395 C   0  0  0  0  0  0  0  0  0  0  0  0
  -12.0305    9.6401    1.4953 C   0  0  0  0  0  0  0  0  0  0  0  0
  -13.0964    8.9638    0.9375 C   0  0  0  0  0  0  0  0  0  0  0  0
  -18.7404    8.8237   -1.0634 C   0  0  1  0  0  0  0  0  0  0  0  0
  -13.2105   10.3400   -2.3851 F   0  0  0  0  0  0  0  0  0  0  0  0
  -11.0826   11.7130   -1.3230 F   0  0  0  0  0  0  0  0  0  0  0  0
  -10.2881   11.2477    1.2761 F   0  0  0  0  0  0  0  0  0  0  0  0
  -11.6597    9.3959    2.7692 F   0  0  0  0  0  0  0  0  0  0  0  0
  -13.7890    8.0435    1.6582 F   0  0  0  0  0  0  0  0  0  0  0  0
  -16.5969    7.7673   -1.5890 N   0  0  0  0  0  0  0  0  0  0  0  0
  -14.5656    7.1928   -1.4241 N   0  0  0  0  0  0  0  0  0  0  0  0
  -15.7453    6.8027   -1.8241 N   0  0  0  0  0  0  0  0  0  0  0  0
  -20.7032    7.5908   -1.7466 O   0  0  0  0  0  0  0  0  0  0  0  0
  -21.3855    5.2973    0.2790 O   0  0  0  0  0  0  0  0  0  0  0  0
  -17.9200    6.0055   -0.3344 O   0  0  0  0  0  0  0  0  0  0  0  0
  -18.1754   10.0553   -1.4668 O   0  0  0  0  0  0  0  0  0  0  0  0
  -21.1065    9.6028   -0.0363 S   0  0  0  0  0  0  0  0  0  0  0  0
  1  2  2  0
 16  1  1  0
  1 20  1  0
  2 17  1  0
  2 22  1  0
  4  3  1  0
  5  4  2  0
  7  4  1  0
  6  5  1  0
  9  6  2  0
  8  7  2  0
  9  8  1  0
 34  9  1  0
 21 10  1  0
 10 30  1  0
 10 34  1  1
 11 12  1  1
 13 11  1  0
 11 30  1  0
 12 31  1  0
 14 13  1  0
 13 32  1  1
 14 21  1  0
 14 27  1  1
 15 16  2  0
 15 27  1  0
 16 28  1  0
 17 18  2  0
 17 23  1  0
 18 19  1  0
 18 24  1  0
 19 20  2  0
 19 25  1  0
 20 26  1  0
 21 33  1  6
 27 29  1  0
 28 29  2  0
M  END
$$$$
