
     RDKit          3D

 34 37  0  0  0  0  0  0  0  0999 V2000
  -13.2241    8.9078   -0.0574 C   0  0  0  0  0  0  0  0  0  0  0  0
  -12.2601    8.7783   -1.0277 C   0  0  0  0  0  0  0  0  0  0  0  0
  -26.9212    7.7658   -4.0147 C   0  0  0  0  0  0  0  0  0  0  0  0
  -25.6155    8.1937   -3.4754 C   0  0  0  0  0  0  0  0  0  0  0  0
  -24.4666    8.2773   -4.1993 C   0  0  0  0  0  0  0  0  0  0  0  0
  -23.2708    8.6915   -3.6139 C   0  0  0  0  0  0  0  0  0  0  0  0
  -25.5506    8.5357   -2.1365 C   0  0  0  0  0  0  0  0  0  0  0  0
  -24.3828    8.9458   -1.5423 C   0  0  0  0  0  0  0  0  0  0  0  0
  -23.2202    9.0285   -2.2823 C   0  0  0  0  0  0  0  0  0  0  0  0
  -20.4676    8.2666   -1.4912 C   0  0  1  0  0  0  0  0  0  0  0  0
  -19.7723    6.4349   -0.4387 C   0  0  2  0  0  0  0  0  0  0  0  0
  -20.1044    5.4719    0.6650 C   0  0  0  0  0  0  0  0  0  0  0  0
  -18.3096    6.8123   -0.4201 C   0  0  1  0  0  0  0  0  0  0  0  0
  -17.9816    7.9396   -1.3322 C   0  0  1  0  0  0  0  0  0  0  0  0
  -15.5447    8.0746   -0.7432 C   0  0  0  0  0  0  0  0  0  0  0  0
  -14.6439    9.0437   -0.3542 C   0  0  0  0  0  0  0  0  0  0  0  0
  -10.9176    8.6523   -0.7247 C   0  0  0  0  0  0  0  0  0  0  0  0
  -10.5197    8.6555    0.6020 C   0  0  0  0  0  0  0  0  0  0  0  0
  -11.4637    8.7836    1.5930 C   0  0  0  0  0  0  0  0  0  0  0  0
  -12.7837    8.9066    1.2683 C   0  0  0  0  0  0  0  0  0  0  0  0
  -19.1059    8.9098   -1.5548 C   0  0  1  0  0  0  0  0  0  0  0  0
  -12.6167    8.7719   -2.3390 F   0  0  0  0  0  0  0  0  0  0  0  0
   -9.9570    8.5238   -1.6741 F   0  0  0  0  0  0  0  0  0  0  0  0
   -9.1970    8.5327    0.9403 F   0  0  0  0  0  0  0  0  0  0  0  0
  -11.0588    8.7854    2.8877 F   0  0  0  0  0  0  0  0  0  0  0  0
  -13.6995    9.0320    2.2552 F   0  0  0  0  0  0  0  0  0  0  0  0
  -16.7732    8.6290   -0.9209 N   0  0  0  0  0  0  0  0  0  0  0  0
  -15.3747   10.1902   -0.3060 N   0  0  0  0  0  0  0  0  0  0  0  0
  -16.6021    9.9078   -0.6407 N   0  0  0  0  0  0  0  0  0  0  0  0
  -20.5773    7.5610   -0.2930 O   0  0  0  0  0  0  0  0  0  0  0  0
  -21.1514    4.6272    0.3532 O   0  0  0  0  0  0  0  0  0  0  0  0
  -17.9450    7.0792    0.8953 O   0  0  0  0  0  0  0  0  0  0  0  0
  -19.0008    9.5102   -2.8103 O   0  0  0  0  0  0  0  0  0  0  0  0
  -21.7362    9.5653   -1.4664 S   0  0  0  0  0  0  0  0  0  0  0  0
  1  2  2  0
 16  1  1  0
  1 20  1  0
  2 17  1  0
  2 22  1  0
  3  4  1  6
  5  4  2  0
  7  4  1  0
  6  5  1  0
  9  6  2  0
  8  7  2  0
  9  8  1  0
 34  9  1  0
 21 10  1  0
 10 30  1  0
 10 34  1  1
 11 12  1  0
 13 11  1  0
 11 30  1  1
 12 31  1  6
 14 13  1  0
 13 32  1  1
 14 21  1  0
 14 27  1  1
 15 16  2  0
 15 27  1  0
 16 28  1  0
 17 18  2  0
 17 23  1  0
 18 19  1  0
 18 24  1  0
 19 20  2  0
 19 25  1  0
 20 26  1  0
 21 33  1  6
 27 29  1  0
 28 29  2  0
M  END
$$$$
