
     RDKit          3D

 34 37  0  0  0  0  0  0  0  0999 V2000
  -13.5065    8.8992   -0.2923 C   0  0  0  0  0  0  0  0  0  0  0  0
  -12.7030    8.5058   -1.3422 C   0  0  0  0  0  0  0  0  0  0  0  0
  -27.0131   10.1104   -3.2281 C   0  0  0  0  0  0  0  0  0  0  0  0
  -25.8052    9.8400   -2.4013 C   0  0  0  0  0  0  0  0  0  0  0  0
  -25.6904    8.7352   -1.5789 C   0  0  0  0  0  0  0  0  0  0  0  0
  -24.5382    8.5426   -0.8353 C   0  0  0  0  0  0  0  0  0  0  0  0
  -24.7736   10.7428   -2.4769 C   0  0  0  0  0  0  0  0  0  0  0  0
  -23.6270   10.5323   -1.7240 C   0  0  0  0  0  0  0  0  0  0  0  0
  -23.4958    9.4361   -0.8987 C   0  0  0  0  0  0  0  0  0  0  0  0
  -20.6619    8.8306   -1.1548 C   0  0  1  0  0  0  0  0  0  0  0  0
  -20.2826    6.5533   -1.3786 C   0  0  2  0  0  0  0  0  0  0  0  0
  -20.9097    5.9956   -0.1020 C   0  0  0  0  0  0  0  0  0  0  0  0
  -18.8008    6.6628   -1.2066 C   0  0  1  0  0  0  0  0  0  0  0  0
  -18.3192    8.0890   -1.1948 C   0  0  1  0  0  0  0  0  0  0  0  0
  -15.9003    8.6314   -1.1161 C   0  0  0  0  0  0  0  0  0  0  0  0
  -14.9076    8.5326   -0.1924 C   0  0  0  0  0  0  0  0  0  0  0  0
  -11.3885    8.8760   -1.3928 C   0  0  0  0  0  0  0  0  0  0  0  0
  -10.8184    9.6510   -0.4044 C   0  0  0  0  0  0  0  0  0  0  0  0
  -11.5981   10.0574    0.6550 C   0  0  0  0  0  0  0  0  0  0  0  0
  -12.9253    9.6815    0.7024 C   0  0  0  0  0  0  0  0  0  0  0  0
  -19.3596    8.9005   -0.4371 C   0  0  1  0  0  0  0  0  0  0  0  0
  -13.2710    7.7441   -2.3098 F   0  0  0  0  0  0  0  0  0  0  0  0
  -10.6250    8.4647   -2.4521 F   0  0  0  0  0  0  0  0  0  0  0  0
   -9.4996   10.0144   -0.4685 F   0  0  0  0  0  0  0  0  0  0  0  0
  -11.0692   10.8160    1.6371 F   0  0  0  0  0  0  0  0  0  0  0  0
  -13.7199   10.0670    1.7349 F   0  0  0  0  0  0  0  0  0  0  0  0
  -17.0313    8.1544   -0.5331 N   0  0  0  0  0  0  0  0  0  0  0  0
  -15.4916    7.9968    0.9119 N   0  0  0  0  0  0  0  0  0  0  0  0
  -16.7592    7.7778    0.6896 N   0  0  0  0  0  0  0  0  0  0  0  0
  -20.9030    7.6764   -1.8367 O   0  0  0  0  0  0  0  0  0  0  0  0
  -21.9432    5.1557   -0.5179 O   0  0  0  0  0  0  0  0  0  0  0  0
  -18.3800    6.0701   -0.0179 O   0  0  0  0  0  0  0  0  0  0  0  0
  -18.8812   10.2309   -0.4479 O   0  0  0  0  0  0  0  0  0  0  0  0
  -21.9906    9.2553    0.0236 S   0  0  0  0  0  0  0  0  0  0  0  0
  1  2  2  0
 16  1  1  0
  1 20  1  0
  2 17  1  0
  2 22  1  0
  4  3  1  0
  5  4  2  0
  7  4  1  0
  6  5  1  0
  9  6  2  0
  8  7  2  0
  9  8  1  0
 34  9  1  0
 21 10  1  0
 10 30  1  0
 10 34  1  1
 11 12  1  1
 13 11  1  0
 11 30  1  0
 12 31  1  0
 14 13  1  0
 13 32  1  1
 14 21  1  0
 14 27  1  1
 15 16  2  0
 15 27  1  0
 16 28  1  0
 17 18  2  0
 17 23  1  0
 18 19  1  0
 18 24  1  0
 19 20  2  0
 19 25  1  0
 20 26  1  0
 21 33  1  6
 27 29  1  0
 28 29  2  0
M  END
$$$$
