
     RDKit          3D

 34 37  0  0  0  0  0  0  0  0999 V2000
  -13.9717    9.7591   -0.0832 C   0  0  0  0  0  0  0  0  0  0  0  0
  -12.9162   10.3495   -0.7351 C   0  0  0  0  0  0  0  0  0  0  0  0
  -27.2495   10.0460   -2.0637 C   0  0  0  0  0  0  0  0  0  0  0  0
  -25.8002    9.9562   -1.7988 C   0  0  0  0  0  0  0  0  0  0  0  0
  -24.9894    8.9603   -2.2480 C   0  0  0  0  0  0  0  0  0  0  0  0
  -23.6266    8.9480   -1.9532 C   0  0  0  0  0  0  0  0  0  0  0  0
  -25.2196   10.9556   -1.0385 C   0  0  0  0  0  0  0  0  0  0  0  0
  -23.8799   10.9608   -0.7378 C   0  0  0  0  0  0  0  0  0  0  0  0
  -23.0624    9.9473   -1.1966 C   0  0  0  0  0  0  0  0  0  0  0  0
  -20.4767    8.5077   -1.3533 C   0  0  1  0  0  0  0  0  0  0  0  0
  -20.1433    6.3572   -0.8941 C   0  0  2  0  0  0  0  0  0  0  0  0
  -20.5499    5.2361    0.0188 C   0  0  0  0  0  0  0  0  0  0  0  0
  -18.6472    6.3841   -1.1025 C   0  0  1  0  0  0  0  0  0  0  0  0
  -18.1721    7.6102   -1.7962 C   0  0  1  0  0  0  0  0  0  0  0  0
  -16.2854    8.9368   -0.8041 C   0  0  0  0  0  0  0  0  0  0  0  0
  -14.9104    8.8563   -0.7358 C   0  0  0  0  0  0  0  0  0  0  0  0
  -12.0377   11.2048   -0.0975 C   0  0  0  0  0  0  0  0  0  0  0  0
  -12.2195   11.4831    1.2471 C   0  0  0  0  0  0  0  0  0  0  0  0
  -13.2676   10.9058    1.9238 C   0  0  0  0  0  0  0  0  0  0  0  0
  -14.1218   10.0642    1.2717 C   0  0  0  0  0  0  0  0  0  0  0  0
  -19.0185    8.8281   -1.5610 C   0  0  1  0  0  0  0  0  0  0  0  0
  -12.7099   10.0979   -2.0545 F   0  0  0  0  0  0  0  0  0  0  0  0
  -10.9922   11.7933   -0.7307 F   0  0  0  0  0  0  0  0  0  0  0  0
  -11.3681   12.3267    1.9125 F   0  0  0  0  0  0  0  0  0  0  0  0
  -13.4330   11.1881    3.2402 F   0  0  0  0  0  0  0  0  0  0  0  0
  -15.1478    9.5049    1.9519 F   0  0  0  0  0  0  0  0  0  0  0  0
  -16.7765    7.8831   -1.5089 N   0  0  0  0  0  0  0  0  0  0  0  0
  -14.5998    7.7231   -1.4217 N   0  0  0  0  0  0  0  0  0  0  0  0
  -15.7076    7.1891   -1.8532 N   0  0  0  0  0  0  0  0  0  0  0  0
  -20.5890    7.5544   -0.3413 O   0  0  0  0  0  0  0  0  0  0  0  0
  -21.9164    5.0432    0.0683 O   0  0  0  0  0  0  0  0  0  0  0  0
  -18.0319    6.2088    0.1325 O   0  0  0  0  0  0  0  0  0  0  0  0
  -18.9471    9.6987   -2.6495 O   0  0  0  0  0  0  0  0  0  0  0  0
  -21.3361   10.0010   -0.7805 S   0  0  0  0  0  0  0  0  0  0  0  0
  1  2  2  0
 16  1  1  0
  1 20  1  0
  2 17  1  0
  2 22  1  0
  3  4  1  6
  5  4  2  0
  7  4  1  0
  6  5  1  0
  9  6  2  0
  8  7  2  0
  9  8  1  0
 34  9  1  0
 21 10  1  0
 10 30  1  0
 10 34  1  1
 11 12  1  0
 13 11  1  0
 11 30  1  1
 12 31  1  6
 14 13  1  0
 13 32  1  1
 14 21  1  0
 14 27  1  1
 15 16  2  0
 15 27  1  0
 16 28  1  0
 17 18  2  0
 17 23  1  0
 18 19  1  0
 18 24  1  0
 19 20  2  0
 19 25  1  0
 20 26  1  0
 21 33  1  6
 27 29  1  0
 28 29  2  0
M  END
$$$$
