
     RDKit          3D

 34 37  0  0  0  0  0  0  0  0999 V2000
  -14.0066    8.6561    0.2659 C   0  0  0  0  0  0  0  0  0  0  0  0
  -13.5011    7.4883    0.7980 C   0  0  0  0  0  0  0  0  0  0  0  0
  -27.5844   10.1346    1.1236 C   0  0  0  0  0  0  0  0  0  0  0  0
  -26.3007    9.5834    0.6098 C   0  0  0  0  0  0  0  0  0  0  0  0
  -26.0511    9.3925   -0.7362 C   0  0  0  0  0  0  0  0  0  0  0  0
  -24.8343    8.8752   -1.1478 C   0  0  0  0  0  0  0  0  0  0  0  0
  -25.3387    9.2582    1.5337 C   0  0  0  0  0  0  0  0  0  0  0  0
  -24.1257    8.7410    1.1013 C   0  0  0  0  0  0  0  0  0  0  0  0
  -23.8599    8.5442   -0.2368 C   0  0  0  0  0  0  0  0  0  0  0  0
  -21.0574    9.2324   -0.6046 C   0  0  1  0  0  0  0  0  0  0  0  0
  -20.5269   10.1633   -2.6617 C   0  0  2  0  0  0  0  0  0  0  0  0
  -20.9652    9.0685   -3.6331 C   0  0  0  0  0  0  0  0  0  0  0  0
  -19.0484   10.0863   -2.4487 C   0  0  1  0  0  0  0  0  0  0  0  0
  -18.6820    9.6832   -1.0452 C   0  0  1  0  0  0  0  0  0  0  0  0
  -16.4143    9.4075   -0.0793 C   0  0  0  0  0  0  0  0  0  0  0  0
  -15.2883    8.7224   -0.4127 C   0  0  0  0  0  0  0  0  0  0  0  0
  -12.2886    7.4752    1.4285 C   0  0  0  0  0  0  0  0  0  0  0  0
  -11.5294    8.6196    1.5564 C   0  0  0  0  0  0  0  0  0  0  0  0
  -12.0106    9.7991    1.0342 C   0  0  0  0  0  0  0  0  0  0  0  0
  -13.2355    9.8082    0.3982 C   0  0  0  0  0  0  0  0  0  0  0  0
  -19.6941    8.6345   -0.6082 C   0  0  1  0  0  0  0  0  0  0  0  0
  -14.2536    6.3676    0.6681 F   0  0  0  0  0  0  0  0  0  0  0  0
  -11.8225    6.2953    1.9430 F   0  0  0  0  0  0  0  0  0  0  0  0
  -10.3160    8.5914    2.1909 F   0  0  0  0  0  0  0  0  0  0  0  0
  -11.2911   10.9350    1.1436 F   0  0  0  0  0  0  0  0  0  0  0  0
  -13.7369   10.9565   -0.1271 F   0  0  0  0  0  0  0  0  0  0  0  0
  -17.3387    9.1387   -1.0384 N   0  0  0  0  0  0  0  0  0  0  0  0
  -15.5895    8.0682   -1.5655 N   0  0  0  0  0  0  0  0  0  0  0  0
  -16.8176    8.3289   -1.9235 N   0  0  0  0  0  0  0  0  0  0  0  0
  -21.2799   10.2092   -1.5273 O   0  0  0  0  0  0  0  0  0  0  0  0
  -21.4737    9.7296   -4.7515 O   0  0  0  0  0  0  0  0  0  0  0  0
  -18.4551    9.1700   -3.3147 O   0  0  0  0  0  0  0  0  0  0  0  0
  -19.3258    8.2815    0.7104 O   0  0  0  0  0  0  0  0  0  0  0  0
  -22.2788    7.8777   -0.6893 S   0  0  0  0  0  0  0  0  0  0  0  0
  1  2  2  0
 16  1  1  0
  1 20  1  0
  2 17  1  0
  2 22  1  0
  4  3  1  0
  5  4  2  0
  7  4  1  0
  6  5  1  0
  9  6  2  0
  8  7  2  0
  9  8  1  0
 34  9  1  0
 21 10  1  0
 10 30  1  0
 10 34  1  6
 11 12  1  1
 13 11  1  0
 11 30  1  0
 12 31  1  0
 14 13  1  0
 13 32  1  6
 14 21  1  0
 14 27  1  6
 15 16  2  0
 15 27  1  0
 16 28  1  0
 17 18  2  0
 17 23  1  0
 18 19  1  0
 18 24  1  0
 19 20  2  0
 19 25  1  0
 20 26  1  0
 21 33  1  1
 27 29  1  0
 28 29  2  0
M  END
$$$$
