
     RDKit          3D

 34 37  0  0  0  0  0  0  0  0999 V2000
  -14.3348   13.4931    1.1269 C   0  0  0  0  0  0  0  0  0  0  0  0
  -14.0074   13.1993    2.4284 C   0  0  0  0  0  0  0  0  0  0  0  0
  -23.3734    3.5720    0.2047 C   0  0  0  0  0  0  0  0  0  0  0  0
  -22.4408    4.5786   -0.3391 C   0  0  0  0  0  0  0  0  0  0  0  0
  -22.5016    5.9129   -0.0801 C   0  0  0  0  0  0  0  0  0  0  0  0
  -21.5803    6.8006   -0.6345 C   0  0  0  0  0  0  0  0  0  0  0  0
  -21.4293    4.1376   -1.1735 C   0  0  0  0  0  0  0  0  0  0  0  0
  -20.5129    4.9961   -1.7287 C   0  0  0  0  0  0  0  0  0  0  0  0
  -20.5800    6.3490   -1.4620 C   0  0  0  0  0  0  0  0  0  0  0  0
  -19.5995    9.1378   -1.6723 C   0  0  1  0  0  0  0  0  0  0  0  0
  -20.2107   11.1555   -2.3809 C   0  0  2  0  0  0  0  0  0  0  0  0
  -20.7619   11.9114   -3.5558 C   0  0  0  0  0  0  0  0  0  0  0  0
  -19.0677   11.9006   -1.7324 C   0  0  1  0  0  0  0  0  0  0  0  0
  -18.3346   11.0906   -0.7240 C   0  0  1  0  0  0  0  0  0  0  0  0
  -16.5597   12.4296    0.4422 C   0  0  0  0  0  0  0  0  0  0  0  0
  -15.2053   12.6553    0.3129 C   0  0  0  0  0  0  0  0  0  0  0  0
  -13.1779   14.0070    3.1831 C   0  0  0  0  0  0  0  0  0  0  0  0
  -12.6528   15.1563    2.6157 C   0  0  0  0  0  0  0  0  0  0  0  0
  -12.9641   15.4740    1.3150 C   0  0  0  0  0  0  0  0  0  0  0  0
  -13.7858   14.6601    0.5902 C   0  0  0  0  0  0  0  0  0  0  0  0
  -18.3449    9.6117   -0.9841 C   0  0  1  0  0  0  0  0  0  0  0  0
  -14.5054   12.0792    3.0149 F   0  0  0  0  0  0  0  0  0  0  0  0
  -12.8479   13.7272    4.4688 F   0  0  0  0  0  0  0  0  0  0  0  0
  -11.8265   15.9813    3.3338 F   0  0  0  0  0  0  0  0  0  0  0  0
  -12.4420   16.6026    0.7729 F   0  0  0  0  0  0  0  0  0  0  0  0
  -14.0819   14.9870   -0.6880 F   0  0  0  0  0  0  0  0  0  0  0  0
  -16.9813   11.5748   -0.5272 N   0  0  0  0  0  0  0  0  0  0  0  0
  -14.8356   11.9088   -0.7629 N   0  0  0  0  0  0  0  0  0  0  0  0
  -15.8923   11.2987   -1.2206 N   0  0  0  0  0  0  0  0  0  0  0  0
  -19.7987    9.9014   -2.8225 O   0  0  0  0  0  0  0  0  0  0  0  0
  -21.6493   11.1707   -4.3115 O   0  0  0  0  0  0  0  0  0  0  0  0
  -18.2287   12.3715   -2.7369 O   0  0  0  0  0  0  0  0  0  0  0  0
  -18.2453    8.8979    0.2109 O   0  0  0  0  0  0  0  0  0  0  0  0
  -19.3700    7.4172   -2.2045 S   0  0  0  0  0  0  0  0  0  0  0  0
  1  2  2  0
 16  1  1  0
  1 20  1  0
  2 17  1  0
  2 22  1  0
  3  4  1  6
  5  4  2  0
  7  4  1  0
  6  5  1  0
  9  6  2  0
  8  7  2  0
  9  8  1  0
 34  9  1  0
 21 10  1  0
 10 30  1  0
 10 34  1  6
 11 12  1  0
 13 11  1  0
 11 30  1  6
 12 31  1  6
 14 13  1  0
 13 32  1  6
 14 21  1  0
 14 27  1  6
 15 16  2  0
 15 27  1  0
 16 28  1  0
 17 18  2  0
 17 23  1  0
 18 19  1  0
 18 24  1  0
 19 20  2  0
 19 25  1  0
 20 26  1  0
 21 33  1  1
 27 29  1  0
 28 29  2  0
M  END
$$$$
