
     RDKit          3D

 34 37  0  0  0  0  0  0  0  0999 V2000
  -13.3235    9.3549   -0.2084 C   0  0  0  0  0  0  0  0  0  0  0  0
  -12.3717    8.6162    0.4632 C   0  0  0  0  0  0  0  0  0  0  0  0
  -26.7907    8.6552   -3.9595 C   0  0  0  0  0  0  0  0  0  0  0  0
  -25.5850    8.8743   -3.1144 C   0  0  0  0  0  0  0  0  0  0  0  0
  -25.2484    8.0484   -2.0585 C   0  0  0  0  0  0  0  0  0  0  0  0
  -24.1117    8.3087   -1.3115 C   0  0  0  0  0  0  0  0  0  0  0  0
  -24.7887    9.9507   -3.4178 C   0  0  0  0  0  0  0  0  0  0  0  0
  -23.6538   10.1948   -2.6574 C   0  0  0  0  0  0  0  0  0  0  0  0
  -23.3032    9.3817   -1.6011 C   0  0  0  0  0  0  0  0  0  0  0  0
  -20.4208    8.9928   -1.5411 C   0  0  1  0  0  0  0  0  0  0  0  0
  -20.0454    6.7882   -0.9257 C   0  0  2  0  0  0  0  0  0  0  0  0
  -20.7745    6.6994    0.4141 C   0  0  0  0  0  0  0  0  0  0  0  0
  -18.5805    6.9787   -0.6911 C   0  0  1  0  0  0  0  0  0  0  0  0
  -18.0887    8.3281   -1.1420 C   0  0  1  0  0  0  0  0  0  0  0  0
  -15.6563    8.8071   -1.0678 C   0  0  0  0  0  0  0  0  0  0  0  0
  -14.7469    9.0919   -0.0981 C   0  0  0  0  0  0  0  0  0  0  0  0
  -11.0421    8.9016    0.3276 C   0  0  0  0  0  0  0  0  0  0  0  0
  -10.6035    9.9308   -0.4791 C   0  0  0  0  0  0  0  0  0  0  0  0
  -11.5327   10.6840   -1.1609 C   0  0  0  0  0  0  0  0  0  0  0  0
  -12.8745   10.3926   -1.0214 C   0  0  0  0  0  0  0  0  0  0  0  0
  -19.1774    9.3333   -0.7967 C   0  0  1  0  0  0  0  0  0  0  0  0
  -12.8111    7.6062    1.2543 F   0  0  0  0  0  0  0  0  0  0  0  0
  -10.1292    8.1444    1.0114 F   0  0  0  0  0  0  0  0  0  0  0  0
   -9.2677   10.2052   -0.6052 F   0  0  0  0  0  0  0  0  0  0  0  0
  -11.1345   11.6972   -1.9576 F   0  0  0  0  0  0  0  0  0  0  0  0
  -13.8150   11.1179   -1.6812 F   0  0  0  0  0  0  0  0  0  0  0  0
  -16.8554    8.6446   -0.4494 N   0  0  0  0  0  0  0  0  0  0  0  0
  -15.4461    9.0876    1.0676 N   0  0  0  0  0  0  0  0  0  0  0  0
  -16.7028    8.8187    0.8379 N   0  0  0  0  0  0  0  0  0  0  0  0
  -20.6186    7.6689   -1.7928 O   0  0  0  0  0  0  0  0  0  0  0  0
  -21.3984    5.4516    0.4289 O   0  0  0  0  0  0  0  0  0  0  0  0
  -18.2584    6.8462    0.6580 O   0  0  0  0  0  0  0  0  0  0  0  0
  -18.6879   10.5850   -1.2354 O   0  0  0  0  0  0  0  0  0  0  0  0
  -21.8330    9.7770   -0.6895 S   0  0  0  0  0  0  0  0  0  0  0  0
  1  2  2  0
 16  1  1  0
  1 20  1  0
  2 17  1  0
  2 22  1  0
  4  3  1  0
  5  4  2  0
  7  4  1  0
  6  5  1  0
  9  6  2  0
  8  7  2  0
  9  8  1  0
 34  9  1  0
 21 10  1  0
 10 30  1  0
 10 34  1  1
 11 12  1  1
 13 11  1  0
 11 30  1  0
 12 31  1  0
 14 13  1  0
 13 32  1  1
 14 21  1  0
 14 27  1  1
 15 16  2  0
 15 27  1  0
 16 28  1  0
 17 18  2  0
 17 23  1  0
 18 19  1  0
 18 24  1  0
 19 20  2  0
 19 25  1  0
 20 26  1  0
 21 33  1  6
 27 29  1  0
 28 29  2  0
M  END
$$$$
