
     RDKit          3D

 34 37  0  0  0  0  0  0  0  0999 V2000
  -13.1804    9.2281   -0.8126 C   0  0  0  0  0  0  0  0  0  0  0  0
  -12.5688    9.5737   -1.9933 C   0  0  0  0  0  0  0  0  0  0  0  0
  -27.4222    8.3693   -2.0518 C   0  0  0  0  0  0  0  0  0  0  0  0
  -26.0169    8.7961   -1.9041 C   0  0  0  0  0  0  0  0  0  0  0  0
  -25.1407    8.9514   -2.9332 C   0  0  0  0  0  0  0  0  0  0  0  0
  -23.8262    9.3590   -2.7094 C   0  0  0  0  0  0  0  0  0  0  0  0
  -25.5526    9.0585   -0.6275 C   0  0  0  0  0  0  0  0  0  0  0  0
  -24.2621    9.4607   -0.3872 C   0  0  0  0  0  0  0  0  0  0  0  0
  -23.3777    9.6165   -1.4358 C   0  0  0  0  0  0  0  0  0  0  0  0
  -20.5504    8.7573   -1.2089 C   0  0  1  0  0  0  0  0  0  0  0  0
  -19.9530    6.8296   -0.2743 C   0  0  2  0  0  0  0  0  0  0  0  0
  -20.3146    5.8375    0.7937 C   0  0  0  0  0  0  0  0  0  0  0  0
  -18.4670    7.1009   -0.2950 C   0  0  1  0  0  0  0  0  0  0  0  0
  -18.0906    8.2472   -1.1638 C   0  0  1  0  0  0  0  0  0  0  0  0
  -15.5913    8.4767   -1.2280 C   0  0  0  0  0  0  0  0  0  0  0  0
  -14.6247    9.2525   -0.6234 C   0  0  0  0  0  0  0  0  0  0  0  0
  -11.1961    9.5453   -2.1515 C   0  0  0  0  0  0  0  0  0  0  0  0
  -10.3999    9.1559   -1.0872 C   0  0  0  0  0  0  0  0  0  0  0  0
  -10.9859    8.8048    0.1057 C   0  0  0  0  0  0  0  0  0  0  0  0
  -12.3440    8.8409    0.2371 C   0  0  0  0  0  0  0  0  0  0  0  0
  -19.1487    9.3048   -1.2949 C   0  0  1  0  0  0  0  0  0  0  0  0
  -13.3209    9.9608   -3.0567 F   0  0  0  0  0  0  0  0  0  0  0  0
  -10.5812    9.8842   -3.3123 F   0  0  0  0  0  0  0  0  0  0  0  0
   -9.0349    9.1158   -1.2073 F   0  0  0  0  0  0  0  0  0  0  0  0
  -10.1930    8.4258    1.1391 F   0  0  0  0  0  0  0  0  0  0  0  0
  -12.9045    8.4928    1.4174 F   0  0  0  0  0  0  0  0  0  0  0  0
  -16.8214    8.8273   -0.7675 N   0  0  0  0  0  0  0  0  0  0  0  0
  -15.3180   10.0744    0.2102 N   0  0  0  0  0  0  0  0  0  0  0  0
  -16.5863    9.7966    0.0974 N   0  0  0  0  0  0  0  0  0  0  0  0
  -20.6683    8.0010   -0.0429 O   0  0  0  0  0  0  0  0  0  0  0  0
  -21.1388    4.8264    0.3406 O   0  0  0  0  0  0  0  0  0  0  0  0
  -18.0371    7.2738    1.0164 O   0  0  0  0  0  0  0  0  0  0  0  0
  -19.0451    9.9594   -2.5231 O   0  0  0  0  0  0  0  0  0  0  0  0
  -21.7194   10.1397   -1.0715 S   0  0  0  0  0  0  0  0  0  0  0  0
  1  2  2  0
 16  1  1  0
  1 20  1  0
  2 17  1  0
  2 22  1  0
  3  4  1  6
  5  4  2  0
  7  4  1  0
  6  5  1  0
  9  6  2  0
  8  7  2  0
  9  8  1  0
 34  9  1  0
 21 10  1  0
 10 30  1  0
 10 34  1  1
 11 12  1  0
 13 11  1  0
 11 30  1  1
 12 31  1  6
 14 13  1  0
 13 32  1  1
 14 21  1  0
 14 27  1  1
 15 16  2  0
 15 27  1  0
 16 28  1  0
 17 18  2  0
 17 23  1  0
 18 19  1  0
 18 24  1  0
 19 20  2  0
 19 25  1  0
 20 26  1  0
 21 33  1  6
 27 29  1  0
 28 29  2  0
M  END
$$$$
