
     RDKit          3D

 34 37  0  0  0  0  0  0  0  0999 V2000
  -13.2761    9.4666   -0.0557 C   0  0  0  0  0  0  0  0  0  0  0  0
  -12.7300   10.4048   -0.9067 C   0  0  0  0  0  0  0  0  0  0  0  0
  -26.5845    9.0348   -4.2268 C   0  0  0  0  0  0  0  0  0  0  0  0
  -25.4160    9.2619   -3.3331 C   0  0  0  0  0  0  0  0  0  0  0  0
  -24.8770   10.5142   -3.1058 C   0  0  0  0  0  0  0  0  0  0  0  0
  -23.7883   10.6563   -2.2619 C   0  0  0  0  0  0  0  0  0  0  0  0
  -24.8677    8.1629   -2.7195 C   0  0  0  0  0  0  0  0  0  0  0  0
  -23.7768    8.3259   -1.8773 C   0  0  0  0  0  0  0  0  0  0  0  0
  -23.2268    9.5672   -1.6394 C   0  0  0  0  0  0  0  0  0  0  0  0
  -20.3870    8.9763   -1.4178 C   0  0  1  0  0  0  0  0  0  0  0  0
  -19.9080    6.7770   -0.8578 C   0  0  2  0  0  0  0  0  0  0  0  0
  -20.6299    6.6208    0.4795 C   0  0  0  0  0  0  0  0  0  0  0  0
  -18.4532    7.0299   -0.6192 C   0  0  1  0  0  0  0  0  0  0  0  0
  -18.0257    8.4117   -1.0365 C   0  0  1  0  0  0  0  0  0  0  0  0
  -15.5915    8.8759   -0.9337 C   0  0  0  0  0  0  0  0  0  0  0  0
  -14.7044    9.2234    0.0362 C   0  0  0  0  0  0  0  0  0  0  0  0
  -11.3781   10.5982   -0.9582 C   0  0  0  0  0  0  0  0  0  0  0  0
  -10.5141    9.8691   -0.1680 C   0  0  0  0  0  0  0  0  0  0  0  0
  -11.0330    8.9261    0.6905 C   0  0  0  0  0  0  0  0  0  0  0  0
  -12.3988    8.7337    0.7396 C   0  0  0  0  0  0  0  0  0  0  0  0
  -19.1597    9.3559   -0.6656 C   0  0  1  0  0  0  0  0  0  0  0  0
  -13.5861   11.1174   -1.6802 F   0  0  0  0  0  0  0  0  0  0  0  0
  -10.8761   11.5393   -1.8164 F   0  0  0  0  0  0  0  0  0  0  0  0
   -9.1614   10.0739   -0.2304 F   0  0  0  0  0  0  0  0  0  0  0  0
  -10.2134    8.1973    1.4759 F   0  0  0  0  0  0  0  0  0  0  0  0
  -12.9406    7.8106    1.5764 F   0  0  0  0  0  0  0  0  0  0  0  0
  -16.8074    8.7681   -0.3367 N   0  0  0  0  0  0  0  0  0  0  0  0
  -15.4331    9.3093    1.1805 N   0  0  0  0  0  0  0  0  0  0  0  0
  -16.6860    9.0341    0.9382 N   0  0  0  0  0  0  0  0  0  0  0  0
  -20.5230    7.6513   -1.7025 O   0  0  0  0  0  0  0  0  0  0  0  0
  -21.4427    5.4946    0.3471 O   0  0  0  0  0  0  0  0  0  0  0  0
  -18.1231    6.8790    0.7260 O   0  0  0  0  0  0  0  0  0  0  0  0
  -18.7299   10.6397   -1.0732 O   0  0  0  0  0  0  0  0  0  0  0  0
  -21.8329    9.6721   -0.5463 S   0  0  0  0  0  0  0  0  0  0  0  0
  1  2  2  0
 16  1  1  0
  1 20  1  0
  2 17  1  0
  2 22  1  0
  4  3  1  0
  5  4  2  0
  7  4  1  0
  6  5  1  0
  9  6  2  0
  8  7  2  0
  9  8  1  0
 34  9  1  0
 21 10  1  0
 10 30  1  0
 10 34  1  1
 11 12  1  1
 13 11  1  0
 11 30  1  0
 12 31  1  0
 14 13  1  0
 13 32  1  1
 14 21  1  0
 14 27  1  1
 15 16  2  0
 15 27  1  0
 16 28  1  0
 17 18  2  0
 17 23  1  0
 18 19  1  0
 18 24  1  0
 19 20  2  0
 19 25  1  0
 20 26  1  0
 21 33  1  6
 27 29  1  0
 28 29  2  0
M  END
$$$$
