
     RDKit          3D

 34 37  0  0  0  0  0  0  0  0999 V2000
  -13.1429    8.8857    0.0546 C   0  0  0  0  0  0  0  0  0  0  0  0
  -12.3185    8.7902   -1.0403 C   0  0  0  0  0  0  0  0  0  0  0  0
  -26.4348    7.6269   -4.5580 C   0  0  0  0  0  0  0  0  0  0  0  0
  -25.2884    8.2111   -3.8346 C   0  0  0  0  0  0  0  0  0  0  0  0
  -25.2288    9.4920   -3.3799 C   0  0  0  0  0  0  0  0  0  0  0  0
  -24.1065    9.9685   -2.7036 C   0  0  0  0  0  0  0  0  0  0  0  0
  -24.1922    7.4005   -3.5995 C   0  0  0  0  0  0  0  0  0  0  0  0
  -23.0783    7.8515   -2.9355 C   0  0  0  0  0  0  0  0  0  0  0  0
  -23.0240    9.1524   -2.4766 C   0  0  0  0  0  0  0  0  0  0  0  0
  -20.3785    8.3214   -1.4306 C   0  0  1  0  0  0  0  0  0  0  0  0
  -19.9078    6.5330   -0.1951 C   0  0  2  0  0  0  0  0  0  0  0  0
  -20.4088    5.6698    0.9273 C   0  0  0  0  0  0  0  0  0  0  0  0
  -18.4340    6.8299   -0.0473 C   0  0  1  0  0  0  0  0  0  0  0  0
  -17.9463    7.8705   -0.9905 C   0  0  1  0  0  0  0  0  0  0  0  0
  -15.4694    8.0697   -0.6317 C   0  0  0  0  0  0  0  0  0  0  0  0
  -14.5947    8.9577   -0.0417 C   0  0  0  0  0  0  0  0  0  0  0  0
  -10.9427    8.7247   -0.9271 C   0  0  0  0  0  0  0  0  0  0  0  0
  -10.3646    8.7558    0.3312 C   0  0  0  0  0  0  0  0  0  0  0  0
  -11.1662    8.8509    1.4439 C   0  0  0  0  0  0  0  0  0  0  0  0
  -12.5227    8.9141    1.3060 C   0  0  0  0  0  0  0  0  0  0  0  0
  -18.9802    8.8828   -1.3921 C   0  0  1  0  0  0  0  0  0  0  0  0
  -12.8535    8.7579   -2.2891 F   0  0  0  0  0  0  0  0  0  0  0  0
  -10.1189    8.6302   -2.0008 F   0  0  0  0  0  0  0  0  0  0  0  0
   -9.0036    8.6930    0.4821 F   0  0  0  0  0  0  0  0  0  0  0  0
  -10.5856    8.8806    2.6695 F   0  0  0  0  0  0  0  0  0  0  0  0
  -13.2968    9.0078    2.4106 F   0  0  0  0  0  0  0  0  0  0  0  0
  -16.7454    8.5198   -0.4998 N   0  0  0  0  0  0  0  0  0  0  0  0
  -15.3900    9.9487    0.4448 N   0  0  0  0  0  0  0  0  0  0  0  0
  -16.6278    9.6578    0.1591 N   0  0  0  0  0  0  0  0  0  0  0  0
  -20.6523    7.7090   -0.2076 O   0  0  0  0  0  0  0  0  0  0  0  0
  -21.1140    4.5655    0.4912 O   0  0  0  0  0  0  0  0  0  0  0  0
  -18.1884    7.1684    1.2792 O   0  0  0  0  0  0  0  0  0  0  0  0
  -18.7117    9.3866   -2.6656 O   0  0  0  0  0  0  0  0  0  0  0  0
  -21.5603    9.6863   -1.6228 S   0  0  0  0  0  0  0  0  0  0  0  0
  1  2  2  0
 16  1  1  0
  1 20  1  0
  2 17  1  0
  2 22  1  0
  3  4  1  6
  5  4  2  0
  7  4  1  0
  6  5  1  0
  9  6  2  0
  8  7  2  0
  9  8  1  0
 34  9  1  0
 21 10  1  0
 10 30  1  0
 10 34  1  1
 11 12  1  0
 13 11  1  0
 11 30  1  1
 12 31  1  6
 14 13  1  0
 13 32  1  1
 14 21  1  0
 14 27  1  1
 15 16  2  0
 15 27  1  0
 16 28  1  0
 17 18  2  0
 17 23  1  0
 18 19  1  0
 18 24  1  0
 19 20  2  0
 19 25  1  0
 20 26  1  0
 21 33  1  6
 27 29  1  0
 28 29  2  0
M  END
$$$$
