
     RDKit          3D

 34 37  0  0  0  0  0  0  0  0999 V2000
  -13.4000    9.4428   -0.6121 C   0  0  0  0  0  0  0  0  0  0  0  0
  -12.3035    8.6153   -0.7367 C   0  0  0  0  0  0  0  0  0  0  0  0
  -26.8619    8.1604   -3.6300 C   0  0  0  0  0  0  0  0  0  0  0  0
  -25.6453    8.4725   -2.8312 C   0  0  0  0  0  0  0  0  0  0  0  0
  -25.6115    8.3909   -1.4519 C   0  0  0  0  0  0  0  0  0  0  0  0
  -24.4460    8.6953   -0.7689 C   0  0  0  0  0  0  0  0  0  0  0  0
  -24.5202    8.8558   -3.5185 C   0  0  0  0  0  0  0  0  0  0  0  0
  -23.3619    9.1567   -2.8160 C   0  0  0  0  0  0  0  0  0  0  0  0
  -23.3106    9.0807   -1.4406 C   0  0  0  0  0  0  0  0  0  0  0  0
  -20.4339    8.6616   -1.5485 C   0  0  1  0  0  0  0  0  0  0  0  0
  -20.0569    6.4639   -0.9098 C   0  0  2  0  0  0  0  0  0  0  0  0
  -20.7088    6.4137    0.4710 C   0  0  0  0  0  0  0  0  0  0  0  0
  -18.5782    6.6353   -0.7635 C   0  0  1  0  0  0  0  0  0  0  0  0
  -18.0928    7.9673   -1.2699 C   0  0  1  0  0  0  0  0  0  0  0  0
  -15.7519    8.7845   -1.3302 C   0  0  0  0  0  0  0  0  0  0  0  0
  -14.7490    8.9401   -0.4255 C   0  0  0  0  0  0  0  0  0  0  0  0
  -11.0518    9.1354   -0.9111 C   0  0  0  0  0  0  0  0  0  0  0  0
  -10.8377   10.4968   -0.9689 C   0  0  0  0  0  0  0  0  0  0  0  0
  -11.9150   11.3455   -0.8473 C   0  0  0  0  0  0  0  0  0  0  0  0
  -13.1775   10.8162   -0.6713 C   0  0  0  0  0  0  0  0  0  0  0  0
  -19.1447    8.9967   -0.8838 C   0  0  1  0  0  0  0  0  0  0  0  0
  -12.5225    7.2782   -0.6788 F   0  0  0  0  0  0  0  0  0  0  0  0
   -9.9899    8.2798   -1.0305 F   0  0  0  0  0  0  0  0  0  0  0  0
   -9.5776   11.0037   -1.1441 F   0  0  0  0  0  0  0  0  0  0  0  0
  -11.7374   12.6817   -0.8998 F   0  0  0  0  0  0  0  0  0  0  0  0
  -14.2599   11.6280   -0.5482 F   0  0  0  0  0  0  0  0  0  0  0  0
  -16.8171    8.2774   -0.6557 N   0  0  0  0  0  0  0  0  0  0  0  0
  -15.2610    8.5163    0.7602 N   0  0  0  0  0  0  0  0  0  0  0  0
  -16.4963    8.1246    0.6031 N   0  0  0  0  0  0  0  0  0  0  0  0
  -20.6656    7.3363   -1.7609 O   0  0  0  0  0  0  0  0  0  0  0  0
  -21.3242    5.1647    0.5591 O   0  0  0  0  0  0  0  0  0  0  0  0
  -18.1809    6.5245    0.5674 O   0  0  0  0  0  0  0  0  0  0  0  0
  -18.6625   10.2313   -1.3758 O   0  0  0  0  0  0  0  0  0  0  0  0
  -21.7827    9.4854   -0.6341 S   0  0  0  0  0  0  0  0  0  0  0  0
  1  2  2  0
 16  1  1  0
  1 20  1  0
  2 17  1  0
  2 22  1  0
  4  3  1  0
  5  4  2  0
  7  4  1  0
  6  5  1  0
  9  6  2  0
  8  7  2  0
  9  8  1  0
 34  9  1  0
 21 10  1  0
 10 30  1  0
 10 34  1  1
 11 12  1  1
 13 11  1  0
 11 30  1  0
 12 31  1  0
 14 13  1  0
 13 32  1  1
 14 21  1  0
 14 27  1  1
 15 16  2  0
 15 27  1  0
 16 28  1  0
 17 18  2  0
 17 23  1  0
 18 19  1  0
 18 24  1  0
 19 20  2  0
 19 25  1  0
 20 26  1  0
 21 33  1  6
 27 29  1  0
 28 29  2  0
M  END
$$$$
