
     RDKit          3D

 34 37  0  0  0  0  0  0  0  0999 V2000
  -13.7184    9.4853   -1.3638 C   0  0  0  0  0  0  0  0  0  0  0  0
  -12.9683    8.7825   -2.2835 C   0  0  0  0  0  0  0  0  0  0  0  0
  -27.6753    9.5468   -1.7265 C   0  0  0  0  0  0  0  0  0  0  0  0
  -26.2874    9.4064   -1.2069 C   0  0  0  0  0  0  0  0  0  0  0  0
  -25.5694    8.2285   -1.2925 C   0  0  0  0  0  0  0  0  0  0  0  0
  -24.2810    8.1652   -0.7887 C   0  0  0  0  0  0  0  0  0  0  0  0
  -25.7181   10.5100   -0.6214 C   0  0  0  0  0  0  0  0  0  0  0  0
  -24.4258   10.4266   -0.1224 C   0  0  0  0  0  0  0  0  0  0  0  0
  -23.6955    9.2601   -0.1995 C   0  0  0  0  0  0  0  0  0  0  0  0
  -20.9028    8.8190   -0.8843 C   0  0  1  0  0  0  0  0  0  0  0  0
  -20.3239    6.5740   -0.9537 C   0  0  2  0  0  0  0  0  0  0  0  0
  -20.6626    6.1104    0.4622 C   0  0  0  0  0  0  0  0  0  0  0  0
  -18.8549    6.8339   -1.0615 C   0  0  1  0  0  0  0  0  0  0  0  0
  -18.5345    8.2895   -1.2728 C   0  0  1  0  0  0  0  0  0  0  0  0
  -16.1833    8.9492   -1.7066 C   0  0  0  0  0  0  0  0  0  0  0  0
  -15.0534    9.0805   -0.9619 C   0  0  0  0  0  0  0  0  0  0  0  0
  -11.7151    9.2030   -2.6305 C   0  0  0  0  0  0  0  0  0  0  0  0
  -11.1560   10.3371   -2.0794 C   0  0  0  0  0  0  0  0  0  0  0  0
  -11.8834   11.0574   -1.1587 C   0  0  0  0  0  0  0  0  0  0  0  0
  -13.1486   10.6294   -0.8109 C   0  0  0  0  0  0  0  0  0  0  0  0
  -19.5130    9.0854   -0.4219 C   0  0  1  0  0  0  0  0  0  0  0  0
  -13.5251    7.6687   -2.8206 F   0  0  0  0  0  0  0  0  0  0  0  0
  -11.0033    8.4770   -3.5473 F   0  0  0  0  0  0  0  0  0  0  0  0
   -9.8990   10.7464   -2.4369 F   0  0  0  0  0  0  0  0  0  0  0  0
  -11.3636   12.1709   -0.6022 F   0  0  0  0  0  0  0  0  0  0  0  0
  -13.8905   11.3190    0.0946 F   0  0  0  0  0  0  0  0  0  0  0  0
  -17.1679    8.5438   -0.8622 N   0  0  0  0  0  0  0  0  0  0  0  0
  -15.4131    8.7456    0.3054 N   0  0  0  0  0  0  0  0  0  0  0  0
  -16.6787    8.4282    0.3453 N   0  0  0  0  0  0  0  0  0  0  0  0
  -21.1300    7.5783   -1.3983 O   0  0  0  0  0  0  0  0  0  0  0  0
  -21.6564    5.1414    0.3208 O   0  0  0  0  0  0  0  0  0  0  0  0
  -18.1780    6.4192    0.0836 O   0  0  0  0  0  0  0  0  0  0  0  0
  -19.1893   10.4434   -0.6455 O   0  0  0  0  0  0  0  0  0  0  0  0
  -22.0511    9.2539    0.4673 S   0  0  0  0  0  0  0  0  0  0  0  0
  1  2  2  0
 16  1  1  0
  1 20  1  0
  2 17  1  0
  2 22  1  0
  4  3  1  0
  5  4  2  0
  7  4  1  0
  6  5  1  0
  9  6  2  0
  8  7  2  0
  9  8  1  0
 34  9  1  0
 21 10  1  0
 10 30  1  0
 10 34  1  1
 11 12  1  1
 13 11  1  0
 11 30  1  0
 12 31  1  0
 14 13  1  0
 13 32  1  1
 14 21  1  0
 14 27  1  1
 15 16  2  0
 15 27  1  0
 16 28  1  0
 17 18  2  0
 17 23  1  0
 18 19  1  0
 18 24  1  0
 19 20  2  0
 19 25  1  0
 20 26  1  0
 21 33  1  6
 27 29  1  0
 28 29  2  0
M  END
$$$$
