
     RDKit          3D

 34 37  0  0  0  0  0  0  0  0999 V2000
  -13.2083    8.8866   -0.1716 C   0  0  0  0  0  0  0  0  0  0  0  0
  -12.5937    8.9464   -1.3989 C   0  0  0  0  0  0  0  0  0  0  0  0
  -26.5331    9.6963   -4.2374 C   0  0  0  0  0  0  0  0  0  0  0  0
  -25.3719    9.6950   -3.3261 C   0  0  0  0  0  0  0  0  0  0  0  0
  -25.3616    9.1420   -2.0831 C   0  0  0  0  0  0  0  0  0  0  0  0
  -24.2210    9.1831   -1.2821 C   0  0  0  0  0  0  0  0  0  0  0  0
  -24.2069   10.2992   -3.7638 C   0  0  0  0  0  0  0  0  0  0  0  0
  -23.0740   10.3496   -2.9898 C   0  0  0  0  0  0  0  0  0  0  0  0
  -23.0699    9.7866   -1.7293 C   0  0  0  0  0  0  0  0  0  0  0  0
  -20.4584    8.5047   -1.1636 C   0  0  1  0  0  0  0  0  0  0  0  0
  -20.0464    6.3617   -0.7343 C   0  0  2  0  0  0  0  0  0  0  0  0
  -20.5635    5.1490   -0.0149 C   0  0  0  0  0  0  0  0  0  0  0  0
  -18.5574    6.5259   -0.5391 C   0  0  1  0  0  0  0  0  0  0  0  0
  -18.0413    7.8330   -1.0245 C   0  0  1  0  0  0  0  0  0  0  0  0
  -15.5733    8.2870   -0.9439 C   0  0  0  0  0  0  0  0  0  0  0  0
  -14.6384    8.6660   -0.0036 C   0  0  0  0  0  0  0  0  0  0  0  0
  -11.2350    9.1584   -1.5365 C   0  0  0  0  0  0  0  0  0  0  0  0
  -10.4563    9.3176   -0.4021 C   0  0  0  0  0  0  0  0  0  0  0  0
  -11.0457    9.2622    0.8386 C   0  0  0  0  0  0  0  0  0  0  0  0
  -12.3898    9.0516    0.9483 C   0  0  0  0  0  0  0  0  0  0  0  0
  -19.0346    8.9576   -0.9640 C   0  0  1  0  0  0  0  0  0  0  0  0
  -13.3288    8.7947   -2.5317 F   0  0  0  0  0  0  0  0  0  0  0  0
  -10.6173    9.2192   -2.7428 F   0  0  0  0  0  0  0  0  0  0  0  0
   -9.1056    9.5296   -0.4998 F   0  0  0  0  0  0  0  0  0  0  0  0
  -10.2702    9.4201    1.9404 F   0  0  0  0  0  0  0  0  0  0  0  0
  -12.9538    9.0002    2.1761 F   0  0  0  0  0  0  0  0  0  0  0  0
  -16.8010    8.1984   -0.3667 N   0  0  0  0  0  0  0  0  0  0  0  0
  -15.3480    8.7996    1.1495 N   0  0  0  0  0  0  0  0  0  0  0  0
  -16.5957    8.5201    0.8972 N   0  0  0  0  0  0  0  0  0  0  0  0
  -20.7346    7.4760   -0.2631 O   0  0  0  0  0  0  0  0  0  0  0  0
  -21.6467    4.5652   -0.6416 O   0  0  0  0  0  0  0  0  0  0  0  0
  -18.2680    6.3145    0.8048 O   0  0  0  0  0  0  0  0  0  0  0  0
  -18.7698    9.9061   -1.9529 O   0  0  0  0  0  0  0  0  0  0  0  0
  -21.5783    9.8780   -0.7684 S   0  0  0  0  0  0  0  0  0  0  0  0
  1  2  2  0
 16  1  1  0
  1 20  1  0
  2 17  1  0
  2 22  1  0
  3  4  1  6
  5  4  2  0
  7  4  1  0
  6  5  1  0
  9  6  2  0
  8  7  2  0
  9  8  1  0
 34  9  1  0
 21 10  1  0
 10 30  1  0
 10 34  1  1
 11 12  1  0
 13 11  1  0
 11 30  1  1
 12 31  1  6
 14 13  1  0
 13 32  1  1
 14 21  1  0
 14 27  1  1
 15 16  2  0
 15 27  1  0
 16 28  1  0
 17 18  2  0
 17 23  1  0
 18 19  1  0
 18 24  1  0
 19 20  2  0
 19 25  1  0
 20 26  1  0
 21 33  1  6
 27 29  1  0
 28 29  2  0
M  END
$$$$
