
     RDKit          3D

 34 37  0  0  0  0  0  0  0  0999 V2000
  -13.7794    8.7799    0.2951 C   0  0  0  0  0  0  0  0  0  0  0  0
  -12.7927    8.5004   -0.6273 C   0  0  0  0  0  0  0  0  0  0  0  0
  -26.7303    6.6984   -4.6485 C   0  0  0  0  0  0  0  0  0  0  0  0
  -25.5728    7.4784   -4.1314 C   0  0  0  0  0  0  0  0  0  0  0  0
  -25.7162    8.5693   -3.2949 C   0  0  0  0  0  0  0  0  0  0  0  0
  -24.5967    9.2517   -2.8494 C   0  0  0  0  0  0  0  0  0  0  0  0
  -24.3179    7.0763   -4.5170 C   0  0  0  0  0  0  0  0  0  0  0  0
  -23.2084    7.7732   -4.0598 C   0  0  0  0  0  0  0  0  0  0  0  0
  -23.3332    8.8631   -3.2253 C   0  0  0  0  0  0  0  0  0  0  0  0
  -20.5971    8.4097   -2.3472 C   0  0  1  0  0  0  0  0  0  0  0  0
  -20.7329    7.4976   -0.2189 C   0  0  2  0  0  0  0  0  0  0  0  0
  -21.5356    8.5569    0.5346 C   0  0  0  0  0  0  0  0  0  0  0  0
  -19.2759    7.6651    0.0748 C   0  0  1  0  0  0  0  0  0  0  0  0
  -18.4847    8.0997   -1.1299 C   0  0  1  0  0  0  0  0  0  0  0  0
  -16.0965    8.0468   -0.4628 C   0  0  0  0  0  0  0  0  0  0  0  0
  -15.1718    8.9638   -0.0722 C   0  0  0  0  0  0  0  0  0  0  0  0
  -11.4945    8.3355   -0.2334 C   0  0  0  0  0  0  0  0  0  0  0  0
  -11.1232    8.4410    1.0907 C   0  0  0  0  0  0  0  0  0  0  0  0
  -12.0884    8.7193    2.0322 C   0  0  0  0  0  0  0  0  0  0  0  0
  -13.3983    8.8852    1.6304 C   0  0  0  0  0  0  0  0  0  0  0  0
  -19.3518    9.0887   -1.8948 C   0  0  1  0  0  0  0  0  0  0  0  0
  -13.1660    8.3983   -1.9270 F   0  0  0  0  0  0  0  0  0  0  0  0
  -10.5452    8.0591   -1.1804 F   0  0  0  0  0  0  0  0  0  0  0  0
   -9.8182    8.2732    1.4708 F   0  0  0  0  0  0  0  0  0  0  0  0
  -11.7561    8.8286    3.3351 F   0  0  0  0  0  0  0  0  0  0  0  0
  -14.3731    9.1606    2.5360 F   0  0  0  0  0  0  0  0  0  0  0  0
  -17.2517    8.7243   -0.6934 N   0  0  0  0  0  0  0  0  0  0  0  0
  -15.8183   10.1594   -0.0859 N   0  0  0  0  0  0  0  0  0  0  0  0
  -17.0585    9.9965   -0.4592 N   0  0  0  0  0  0  0  0  0  0  0  0
  -21.0579    7.4146   -1.5394 O   0  0  0  0  0  0  0  0  0  0  0  0
  -22.4319    7.8561    1.3421 O   0  0  0  0  0  0  0  0  0  0  0  0
  -19.0628    8.6091    1.0773 O   0  0  0  0  0  0  0  0  0  0  0  0
  -18.5844    9.4728   -3.0183 O   0  0  0  0  0  0  0  0  0  0  0  0
  -21.8542    9.6877   -2.6948 S   0  0  0  0  0  0  0  0  0  0  0  0
  1  2  2  0
 16  1  1  0
  1 20  1  0
  2 17  1  0
  2 22  1  0
  4  3  1  0
  5  4  2  0
  7  4  1  0
  6  5  1  0
  9  6  2  0
  8  7  2  0
  9  8  1  0
 34  9  1  0
 21 10  1  0
 10 30  1  0
 10 34  1  1
 11 12  1  6
 13 11  1  0
 11 30  1  0
 12 31  1  0
 14 13  1  0
 13 32  1  1
 14 21  1  0
 14 27  1  1
 15 16  2  0
 15 27  1  0
 16 28  1  0
 17 18  2  0
 17 23  1  0
 18 19  1  0
 18 24  1  0
 19 20  2  0
 19 25  1  0
 20 26  1  0
 21 33  1  6
 27 29  1  0
 28 29  2  0
M  END
$$$$
