
     RDKit          3D

 34 37  0  0  0  0  0  0  0  0999 V2000
  -13.3370    9.2165    0.1134 C   0  0  0  0  0  0  0  0  0  0  0  0
  -12.5106    8.7418    1.1105 C   0  0  0  0  0  0  0  0  0  0  0  0
  -26.5554    8.8420   -4.3796 C   0  0  0  0  0  0  0  0  0  0  0  0
  -25.4539    8.9334   -3.3825 C   0  0  0  0  0  0  0  0  0  0  0  0
  -25.4851    8.2761   -2.1671 C   0  0  0  0  0  0  0  0  0  0  0  0
  -24.4262    8.4035   -1.2840 C   0  0  0  0  0  0  0  0  0  0  0  0
  -24.3705    9.7112   -3.7084 C   0  0  0  0  0  0  0  0  0  0  0  0
  -23.3192    9.8264   -2.8100 C   0  0  0  0  0  0  0  0  0  0  0  0
  -23.3338    9.1779   -1.5938 C   0  0  0  0  0  0  0  0  0  0  0  0
  -20.4646    8.7491   -1.3768 C   0  0  1  0  0  0  0  0  0  0  0  0
  -19.9045    6.5695   -0.8151 C   0  0  2  0  0  0  0  0  0  0  0  0
  -20.6279    6.3847    0.5179 C   0  0  0  0  0  0  0  0  0  0  0  0
  -18.4620    6.8782   -0.5675 C   0  0  1  0  0  0  0  0  0  0  0  0
  -18.0856    8.2757   -0.9815 C   0  0  1  0  0  0  0  0  0  0  0  0
  -15.6352    8.6140   -0.8009 C   0  0  0  0  0  0  0  0  0  0  0  0
  -14.7811    9.0728    0.1522 C   0  0  0  0  0  0  0  0  0  0  0  0
  -11.1556    8.9008    1.0296 C   0  0  0  0  0  0  0  0  0  0  0  0
  -10.5664    9.5369   -0.0431 C   0  0  0  0  0  0  0  0  0  0  0  0
  -11.3683   10.0203   -1.0524 C   0  0  0  0  0  0  0  0  0  0  0  0
  -12.7363    9.8577   -0.9671 C   0  0  0  0  0  0  0  0  0  0  0  0
  -19.2574    9.1752   -0.6171 C   0  0  1  0  0  0  0  0  0  0  0  0
  -13.0977    8.1177    2.1616 F   0  0  0  0  0  0  0  0  0  0  0  0
  -10.3704    8.4151    2.0405 F   0  0  0  0  0  0  0  0  0  0  0  0
   -9.2070    9.6890   -0.1105 F   0  0  0  0  0  0  0  0  0  0  0  0
  -10.8214   10.6470   -2.1145 F   0  0  0  0  0  0  0  0  0  0  0  0
  -13.5536   10.3239   -1.9471 F   0  0  0  0  0  0  0  0  0  0  0  0
  -16.8863    8.6783   -0.2742 N   0  0  0  0  0  0  0  0  0  0  0  0
  -15.5635    9.3944    1.2162 N   0  0  0  0  0  0  0  0  0  0  0  0
  -16.8169    9.1521    0.9430 N   0  0  0  0  0  0  0  0  0  0  0  0
  -20.5477    7.4200   -1.6630 O   0  0  0  0  0  0  0  0  0  0  0  0
  -21.3109    5.1722    0.4183 O   0  0  0  0  0  0  0  0  0  0  0  0
  -18.1344    6.7391    0.7796 O   0  0  0  0  0  0  0  0  0  0  0  0
  -18.8751   10.4749   -1.0214 O   0  0  0  0  0  0  0  0  0  0  0  0
  -21.9416    9.3880   -0.5138 S   0  0  0  0  0  0  0  0  0  0  0  0
  1  2  2  0
 16  1  1  0
  1 20  1  0
  2 17  1  0
  2 22  1  0
  4  3  1  0
  5  4  2  0
  7  4  1  0
  6  5  1  0
  9  6  2  0
  8  7  2  0
  9  8  1  0
 34  9  1  0
 21 10  1  0
 10 30  1  0
 10 34  1  1
 11 12  1  1
 13 11  1  0
 11 30  1  0
 12 31  1  0
 14 13  1  0
 13 32  1  1
 14 21  1  0
 14 27  1  1
 15 16  2  0
 15 27  1  0
 16 28  1  0
 17 18  2  0
 17 23  1  0
 18 19  1  0
 18 24  1  0
 19 20  2  0
 19 25  1  0
 20 26  1  0
 21 33  1  6
 27 29  1  0
 28 29  2  0
M  END
$$$$
