
     RDKit          3D

 34 37  0  0  0  0  0  0  0  0999 V2000
  -13.6415    8.7876   -0.2913 C   0  0  0  0  0  0  0  0  0  0  0  0
  -12.3563    8.3606   -0.5225 C   0  0  0  0  0  0  0  0  0  0  0  0
  -27.2950    9.1040   -1.0080 C   0  0  0  0  0  0  0  0  0  0  0  0
  -25.8434    9.2816   -0.8073 C   0  0  0  0  0  0  0  0  0  0  0  0
  -25.2445    9.4730    0.3992 C   0  0  0  0  0  0  0  0  0  0  0  0
  -23.8634    9.6330    0.5044 C   0  0  0  0  0  0  0  0  0  0  0  0
  -25.0286    9.2519   -1.9250 C   0  0  0  0  0  0  0  0  0  0  0  0
  -23.6671    9.4075   -1.8416 C   0  0  0  0  0  0  0  0  0  0  0  0
  -23.0653    9.6014   -0.6143 C   0  0  0  0  0  0  0  0  0  0  0  0
  -20.4572    8.3135   -1.1823 C   0  0  1  0  0  0  0  0  0  0  0  0
  -19.9304    6.2153   -0.6660 C   0  0  2  0  0  0  0  0  0  0  0  0
  -20.1208    5.1359    0.3608 C   0  0  0  0  0  0  0  0  0  0  0  0
  -18.4906    6.3017   -1.1153 C   0  0  1  0  0  0  0  0  0  0  0  0
  -18.2040    7.5030   -1.9430 C   0  0  1  0  0  0  0  0  0  0  0  0
  -16.0671    8.1422   -0.7905 C   0  0  0  0  0  0  0  0  0  0  0  0
  -14.7671    8.4346   -1.1460 C   0  0  0  0  0  0  0  0  0  0  0  0
  -11.3017    8.7086    0.3001 C   0  0  0  0  0  0  0  0  0  0  0  0
  -11.5389    9.5167    1.3998 C   0  0  0  0  0  0  0  0  0  0  0  0
  -12.8155    9.9582    1.6545 C   0  0  0  0  0  0  0  0  0  0  0  0
  -13.8405    9.6006    0.8271 C   0  0  0  0  0  0  0  0  0  0  0  0
  -19.0718    8.6907   -1.6410 C   0  0  1  0  0  0  0  0  0  0  0  0
  -12.0894    7.5671   -1.5929 F   0  0  0  0  0  0  0  0  0  0  0  0
  -10.0289    8.2929    0.0819 F   0  0  0  0  0  0  0  0  0  0  0  0
  -10.5175    9.8823    2.2378 F   0  0  0  0  0  0  0  0  0  0  0  0
  -13.0323   10.7492    2.7350 F   0  0  0  0  0  0  0  0  0  0  0  0
  -15.0903   10.0438    1.0916 F   0  0  0  0  0  0  0  0  0  0  0  0
  -16.7989    7.8612   -1.9012 N   0  0  0  0  0  0  0  0  0  0  0  0
  -14.7491    8.3189   -2.5015 N   0  0  0  0  0  0  0  0  0  0  0  0
  -15.9444    7.9856   -2.8999 N   0  0  0  0  0  0  0  0  0  0  0  0
  -20.3516    7.4220   -0.1147 O   0  0  0  0  0  0  0  0  0  0  0  0
  -20.7711    4.0228   -0.1341 O   0  0  0  0  0  0  0  0  0  0  0  0
  -17.6777    6.2354    0.0114 O   0  0  0  0  0  0  0  0  0  0  0  0
  -19.2252    9.4928   -2.7727 O   0  0  0  0  0  0  0  0  0  0  0  0
  -21.3002    9.7965   -0.5606 S   0  0  0  0  0  0  0  0  0  0  0  0
  1  2  2  0
 16  1  1  0
  1 20  1  0
  2 17  1  0
  2 22  1  0
  3  4  1  6
  5  4  2  0
  7  4  1  0
  6  5  1  0
  9  6  2  0
  8  7  2  0
  9  8  1  0
 34  9  1  0
 21 10  1  0
 10 30  1  0
 10 34  1  1
 11 12  1  0
 13 11  1  0
 11 30  1  1
 12 31  1  6
 14 13  1  0
 13 32  1  1
 14 21  1  0
 14 27  1  1
 15 16  2  0
 15 27  1  0
 16 28  1  0
 17 18  2  0
 17 23  1  0
 18 19  1  0
 18 24  1  0
 19 20  2  0
 19 25  1  0
 20 26  1  0
 21 33  1  6
 27 29  1  0
 28 29  2  0
M  END
$$$$
