
     RDKit          3D

 34 37  0  0  0  0  0  0  0  0999 V2000
  -13.3017    9.1145   -0.0195 C   0  0  0  0  0  0  0  0  0  0  0  0
  -12.4271    9.2084   -1.0750 C   0  0  0  0  0  0  0  0  0  0  0  0
  -26.8586    7.9297   -4.2564 C   0  0  0  0  0  0  0  0  0  0  0  0
  -25.5950    8.3765   -3.6380 C   0  0  0  0  0  0  0  0  0  0  0  0
  -24.5263    8.8661   -4.3230 C   0  0  0  0  0  0  0  0  0  0  0  0
  -23.3657    9.2678   -3.6629 C   0  0  0  0  0  0  0  0  0  0  0  0
  -25.4848    8.2930   -2.2615 C   0  0  0  0  0  0  0  0  0  0  0  0
  -24.3505    8.6836   -1.5937 C   0  0  0  0  0  0  0  0  0  0  0  0
  -23.2695    9.1796   -2.2946 C   0  0  0  0  0  0  0  0  0  0  0  0
  -20.5472    8.3840   -1.4345 C   0  0  1  0  0  0  0  0  0  0  0  0
  -19.8821    6.4943   -0.4686 C   0  0  2  0  0  0  0  0  0  0  0  0
  -20.2525    5.4630    0.5585 C   0  0  0  0  0  0  0  0  0  0  0  0
  -18.4245    6.8775   -0.3649 C   0  0  1  0  0  0  0  0  0  0  0  0
  -18.0675    8.0610   -1.1910 C   0  0  1  0  0  0  0  0  0  0  0  0
  -15.6046    8.2720   -0.7519 C   0  0  0  0  0  0  0  0  0  0  0  0
  -14.7488    9.1847   -0.1717 C   0  0  0  0  0  0  0  0  0  0  0  0
  -11.0568    9.1411   -0.9087 C   0  0  0  0  0  0  0  0  0  0  0  0
  -10.5367    8.9731    0.3640 C   0  0  0  0  0  0  0  0  0  0  0  0
  -11.3892    8.8763    1.4380 C   0  0  0  0  0  0  0  0  0  0  0  0
  -12.7391    8.9456    1.2479 C   0  0  0  0  0  0  0  0  0  0  0  0
  -19.1892    9.0371   -1.4007 C   0  0  1  0  0  0  0  0  0  0  0  0
  -12.9046    9.3740   -2.3364 F   0  0  0  0  0  0  0  0  0  0  0  0
  -10.1838    9.2324   -1.9431 F   0  0  0  0  0  0  0  0  0  0  0  0
   -9.1829    8.9021    0.5672 F   0  0  0  0  0  0  0  0  0  0  0  0
  -10.8651    8.7122    2.6784 F   0  0  0  0  0  0  0  0  0  0  0  0
  -13.5638    8.8489    2.3150 F   0  0  0  0  0  0  0  0  0  0  0  0
  -16.8830    8.7300   -0.6871 N   0  0  0  0  0  0  0  0  0  0  0  0
  -15.5577   10.1983    0.2397 N   0  0  0  0  0  0  0  0  0  0  0  0
  -16.7853    9.8968   -0.0772 N   0  0  0  0  0  0  0  0  0  0  0  0
  -20.7015    7.6049   -0.2879 O   0  0  0  0  0  0  0  0  0  0  0  0
  -21.4355    4.8106    0.2723 O   0  0  0  0  0  0  0  0  0  0  0  0
  -18.1175    7.0644    0.9788 O   0  0  0  0  0  0  0  0  0  0  0  0
  -19.0363    9.7147   -2.6112 O   0  0  0  0  0  0  0  0  0  0  0  0
  -21.8260    9.6719   -1.3833 S   0  0  0  0  0  0  0  0  0  0  0  0
  1  2  2  0
 16  1  1  0
  1 20  1  0
  2 17  1  0
  2 22  1  0
  3  4  1  6
  5  4  2  0
  7  4  1  0
  6  5  1  0
  9  6  2  0
  8  7  2  0
  9  8  1  0
 34  9  1  0
 21 10  1  0
 10 30  1  0
 10 34  1  1
 11 12  1  0
 13 11  1  0
 11 30  1  1
 12 31  1  6
 14 13  1  0
 13 32  1  1
 14 21  1  0
 14 27  1  1
 15 16  2  0
 15 27  1  0
 16 28  1  0
 17 18  2  0
 17 23  1  0
 18 19  1  0
 18 24  1  0
 19 20  2  0
 19 25  1  0
 20 26  1  0
 21 33  1  6
 27 29  1  0
 28 29  2  0
M  END
$$$$
