
     RDKit          3D

 34 37  0  0  0  0  0  0  0  0999 V2000
  -13.6006    8.6798    0.2521 C   0  0  0  0  0  0  0  0  0  0  0  0
  -13.0535    8.7996    1.5126 C   0  0  0  0  0  0  0  0  0  0  0  0
  -27.0806   11.6211   -0.3704 C   0  0  0  0  0  0  0  0  0  0  0  0
  -25.8667   10.8316   -0.0255 C   0  0  0  0  0  0  0  0  0  0  0  0
  -25.5440   10.4790    1.2713 C   0  0  0  0  0  0  0  0  0  0  0  0
  -24.3987    9.7426    1.5237 C   0  0  0  0  0  0  0  0  0  0  0  0
  -25.0480   10.4490   -1.0591 C   0  0  0  0  0  0  0  0  0  0  0  0
  -23.9047    9.7114   -0.7857 C   0  0  0  0  0  0  0  0  0  0  0  0
  -23.5678    9.3512    0.5014 C   0  0  0  0  0  0  0  0  0  0  0  0
  -20.7767    9.1425   -0.2917 C   0  0  1  0  0  0  0  0  0  0  0  0
  -20.3651    7.9860   -2.2597 C   0  0  2  0  0  0  0  0  0  0  0  0
  -20.9543    6.6100   -1.9536 C   0  0  0  0  0  0  0  0  0  0  0  0
  -18.8818    7.9531   -2.0696 C   0  0  1  0  0  0  0  0  0  0  0  0
  -18.4235    8.8008   -0.9131 C   0  0  1  0  0  0  0  0  0  0  0  0
  -16.0088    9.1205   -0.4457 C   0  0  0  0  0  0  0  0  0  0  0  0
  -14.9957    8.3470    0.0273 C   0  0  0  0  0  0  0  0  0  0  0  0
  -11.7336    9.1150    1.6743 C   0  0  0  0  0  0  0  0  0  0  0  0
  -10.9038    9.3240    0.5925 C   0  0  0  0  0  0  0  0  0  0  0  0
  -11.4244    9.2106   -0.6770 C   0  0  0  0  0  0  0  0  0  0  0  0
  -12.7579    8.8920   -0.8361 C   0  0  0  0  0  0  0  0  0  0  0  0
  -19.4599    8.6416    0.1895 C   0  0  1  0  0  0  0  0  0  0  0  0
  -13.8759    8.5926    2.5708 F   0  0  0  0  0  0  0  0  0  0  0  0
  -11.2295    9.2244    2.9424 F   0  0  0  0  0  0  0  0  0  0  0  0
   -9.5830    9.6394    0.7699 F   0  0  0  0  0  0  0  0  0  0  0  0
  -10.6378    9.4092   -1.7548 F   0  0  0  0  0  0  0  0  0  0  0  0
  -13.3004    8.7731   -2.0761 F   0  0  0  0  0  0  0  0  0  0  0  0
  -17.1224    8.3420   -0.4687 N   0  0  0  0  0  0  0  0  0  0  0  0
  -15.5507    7.1299    0.2687 N   0  0  0  0  0  0  0  0  0  0  0  0
  -16.8206    7.1461   -0.0333 N   0  0  0  0  0  0  0  0  0  0  0  0
  -21.0139    9.0023   -1.6256 O   0  0  0  0  0  0  0  0  0  0  0  0
  -21.8143    6.3172   -3.0125 O   0  0  0  0  0  0  0  0  0  0  0  0
  -18.4250    6.6564   -1.8438 O   0  0  0  0  0  0  0  0  0  0  0  0
  -19.0038    9.4507    1.2554 O   0  0  0  0  0  0  0  0  0  0  0  0
  -22.0855    8.4074    0.7481 S   0  0  0  0  0  0  0  0  0  0  0  0
  1  2  2  0
 16  1  1  0
  1 20  1  0
  2 17  1  0
  2 22  1  0
  4  3  1  0
  5  4  2  0
  7  4  1  0
  6  5  1  0
  9  6  2  0
  8  7  2  0
  9  8  1  0
 34  9  1  0
 21 10  1  0
 10 30  1  0
 10 34  1  1
 11 12  1  1
 13 11  1  0
 11 30  1  0
 12 31  1  0
 14 13  1  0
 13 32  1  1
 14 21  1  0
 14 27  1  1
 15 16  2  0
 15 27  1  0
 16 28  1  0
 17 18  2  0
 17 23  1  0
 18 19  1  0
 18 24  1  0
 19 20  2  0
 19 25  1  0
 20 26  1  0
 21 33  1  1
 27 29  1  0
 28 29  2  0
M  END
$$$$
