
     RDKit          3D

 34 37  0  0  0  0  0  0  0  0999 V2000
  -13.4703    9.0148    0.0927 C   0  0  0  0  0  0  0  0  0  0  0  0
  -12.8450    8.9361    1.3196 C   0  0  0  0  0  0  0  0  0  0  0  0
  -26.8303    7.6902   -4.3445 C   0  0  0  0  0  0  0  0  0  0  0  0
  -25.6367    8.1174   -3.5645 C   0  0  0  0  0  0  0  0  0  0  0  0
  -24.9919    7.2894   -2.6651 C   0  0  0  0  0  0  0  0  0  0  0  0
  -23.8855    7.7496   -1.9711 C   0  0  0  0  0  0  0  0  0  0  0  0
  -25.1755    9.3949   -3.7654 C   0  0  0  0  0  0  0  0  0  0  0  0
  -24.0653    9.8376   -3.0604 C   0  0  0  0  0  0  0  0  0  0  0  0
  -23.4102    9.0253   -2.1598 C   0  0  0  0  0  0  0  0  0  0  0  0
  -20.5207    8.7982   -1.9105 C   0  0  1  0  0  0  0  0  0  0  0  0
  -20.1049    6.7922   -0.8228 C   0  0  2  0  0  0  0  0  0  0  0  0
  -20.8982    6.9579    0.4724 C   0  0  0  0  0  0  0  0  0  0  0  0
  -18.6609    7.0910   -0.5716 C   0  0  1  0  0  0  0  0  0  0  0  0
  -18.1914    8.3343   -1.2788 C   0  0  1  0  0  0  0  0  0  0  0  0
  -15.7487    8.3849   -0.8521 C   0  0  0  0  0  0  0  0  0  0  0  0
  -14.9123    9.0986   -0.0525 C   0  0  0  0  0  0  0  0  0  0  0  0
  -11.4832    8.8587    1.4061 C   0  0  0  0  0  0  0  0  0  0  0  0
  -10.6876    8.8563    0.2794 C   0  0  0  0  0  0  0  0  0  0  0  0
  -11.2862    8.9339   -0.9580 C   0  0  0  0  0  0  0  0  0  0  0  0
  -12.6617    9.0119   -1.0411 C   0  0  0  0  0  0  0  0  0  0  0  0
  -19.3290    9.3419   -1.2032 C   0  0  1  0  0  0  0  0  0  0  0  0
  -13.6342    8.9390    2.4224 F   0  0  0  0  0  0  0  0  0  0  0  0
  -10.9015    8.7821    2.6430 F   0  0  0  0  0  0  0  0  0  0  0  0
   -9.3241    8.7783    0.3814 F   0  0  0  0  0  0  0  0  0  0  0  0
  -10.5347    8.9337   -2.0783 F   0  0  0  0  0  0  0  0  0  0  0  0
  -13.2813    9.0895   -2.2477 F   0  0  0  0  0  0  0  0  0  0  0  0
  -17.0063    8.8431   -0.6173 N   0  0  0  0  0  0  0  0  0  0  0  0
  -15.7113    9.9596    0.6316 N   0  0  0  0  0  0  0  0  0  0  0  0
  -16.9576    9.7924    0.2811 N   0  0  0  0  0  0  0  0  0  0  0  0
  -20.6616    7.4438   -1.8819 O   0  0  0  0  0  0  0  0  0  0  0  0
  -21.2432    5.6683    0.8780 O   0  0  0  0  0  0  0  0  0  0  0  0
  -18.4041    7.2613    0.7873 O   0  0  0  0  0  0  0  0  0  0  0  0
  -18.8592   10.4922   -1.8777 O   0  0  0  0  0  0  0  0  0  0  0  0
  -21.9997    9.6833   -1.3076 S   0  0  0  0  0  0  0  0  0  0  0  0
  1  2  2  0
 16  1  1  0
  1 20  1  0
  2 17  1  0
  2 22  1  0
  4  3  1  0
  5  4  2  0
  7  4  1  0
  6  5  1  0
  9  6  2  0
  8  7  2  0
  9  8  1  0
 34  9  1  0
 21 10  1  0
 10 30  1  0
 10 34  1  1
 11 12  1  1
 13 11  1  0
 11 30  1  0
 12 31  1  0
 14 13  1  0
 13 32  1  1
 14 21  1  0
 14 27  1  1
 15 16  2  0
 15 27  1  0
 16 28  1  0
 17 18  2  0
 17 23  1  0
 18 19  1  0
 18 24  1  0
 19 20  2  0
 19 25  1  0
 20 26  1  0
 21 33  1  6
 27 29  1  0
 28 29  2  0
M  END
$$$$
