
     RDKit          3D

 34 37  0  0  0  0  0  0  0  0999 V2000
  -13.1907    8.9667    0.0621 C   0  0  0  0  0  0  0  0  0  0  0  0
  -12.5646    8.8496    1.2793 C   0  0  0  0  0  0  0  0  0  0  0  0
  -27.1448    8.0418   -3.0976 C   0  0  0  0  0  0  0  0  0  0  0  0
  -25.8146    8.4904   -2.6415 C   0  0  0  0  0  0  0  0  0  0  0  0
  -25.3828    8.4525   -1.3519 C   0  0  0  0  0  0  0  0  0  0  0  0
  -24.1083    8.8964   -1.0020 C   0  0  0  0  0  0  0  0  0  0  0  0
  -24.9396    8.9864   -3.5915 C   0  0  0  0  0  0  0  0  0  0  0  0
  -23.6809    9.4280   -3.2664 C   0  0  0  0  0  0  0  0  0  0  0  0
  -23.2487    9.3869   -1.9559 C   0  0  0  0  0  0  0  0  0  0  0  0
  -20.4303    8.5932   -1.4979 C   0  0  1  0  0  0  0  0  0  0  0  0
  -19.9477    6.7297   -0.3839 C   0  0  2  0  0  0  0  0  0  0  0  0
  -20.4360    5.7984    0.6885 C   0  0  0  0  0  0  0  0  0  0  0  0
  -18.4713    7.0142   -0.2374 C   0  0  1  0  0  0  0  0  0  0  0  0
  -17.9936    8.1114   -1.1197 C   0  0  1  0  0  0  0  0  0  0  0  0
  -15.5239    8.2237   -0.6819 C   0  0  0  0  0  0  0  0  0  0  0  0
  -14.6346    9.0926   -0.0855 C   0  0  0  0  0  0  0  0  0  0  0  0
  -11.1929    8.7295    1.3973 C   0  0  0  0  0  0  0  0  0  0  0  0
  -10.4127    8.7259    0.2529 C   0  0  0  0  0  0  0  0  0  0  0  0
  -11.0134    8.8416   -0.9781 C   0  0  0  0  0  0  0  0  0  0  0  0
  -12.3703    8.9592   -1.0685 C   0  0  0  0  0  0  0  0  0  0  0  0
  -19.0302    9.1487   -1.4429 C   0  0  1  0  0  0  0  0  0  0  0  0
  -13.3009    8.8492    2.4215 F   0  0  0  0  0  0  0  0  0  0  0  0
  -10.5637    8.6134    2.5936 F   0  0  0  0  0  0  0  0  0  0  0  0
   -9.0492    8.6085    0.3312 F   0  0  0  0  0  0  0  0  0  0  0  0
  -10.2362    8.8363   -2.0899 F   0  0  0  0  0  0  0  0  0  0  0  0
  -12.9454    9.0718   -2.2870 F   0  0  0  0  0  0  0  0  0  0  0  0
  -16.7847    8.7265   -0.6052 N   0  0  0  0  0  0  0  0  0  0  0  0
  -15.4054   10.1265    0.3481 N   0  0  0  0  0  0  0  0  0  0  0  0
  -16.6437    9.8763    0.0279 N   0  0  0  0  0  0  0  0  0  0  0  0
  -20.6893    7.9054   -0.3124 O   0  0  0  0  0  0  0  0  0  0  0  0
  -21.3239    4.8492    0.2220 O   0  0  0  0  0  0  0  0  0  0  0  0
  -18.2074    7.2681    1.1044 O   0  0  0  0  0  0  0  0  0  0  0  0
  -18.7773    9.7313   -2.6856 O   0  0  0  0  0  0  0  0  0  0  0  0
  -21.6111    9.9694   -1.5880 S   0  0  0  0  0  0  0  0  0  0  0  0
  1  2  2  0
 16  1  1  0
  1 20  1  0
  2 17  1  0
  2 22  1  0
  3  4  1  6
  5  4  2  0
  7  4  1  0
  6  5  1  0
  9  6  2  0
  8  7  2  0
  9  8  1  0
 34  9  1  0
 21 10  1  0
 10 30  1  0
 10 34  1  1
 11 12  1  0
 13 11  1  0
 11 30  1  1
 12 31  1  6
 14 13  1  0
 13 32  1  1
 14 21  1  0
 14 27  1  1
 15 16  2  0
 15 27  1  0
 16 28  1  0
 17 18  2  0
 17 23  1  0
 18 19  1  0
 18 24  1  0
 19 20  2  0
 19 25  1  0
 20 26  1  0
 21 33  1  6
 27 29  1  0
 28 29  2  0
M  END
$$$$
