
     RDKit          3D

 34 37  0  0  0  0  0  0  0  0999 V2000
  -13.4504    9.1034   -0.1024 C   0  0  0  0  0  0  0  0  0  0  0  0
  -13.0479    8.3905    1.0009 C   0  0  0  0  0  0  0  0  0  0  0  0
  -26.9932    9.4401   -2.6641 C   0  0  0  0  0  0  0  0  0  0  0  0
  -25.5377    9.4885   -2.4234 C   0  0  0  0  0  0  0  0  0  0  0  0
  -24.6530    8.5346   -2.8215 C   0  0  0  0  0  0  0  0  0  0  0  0
  -23.2899    8.6550   -2.5544 C   0  0  0  0  0  0  0  0  0  0  0  0
  -25.0317   10.5820   -1.7435 C   0  0  0  0  0  0  0  0  0  0  0  0
  -23.6929   10.7182   -1.4712 C   0  0  0  0  0  0  0  0  0  0  0  0
  -22.8003    9.7468   -1.8779 C   0  0  0  0  0  0  0  0  0  0  0  0
  -20.1561    8.4200   -1.7013 C   0  0  1  0  0  0  0  0  0  0  0  0
  -19.6785    6.4900   -0.7044 C   0  0  2  0  0  0  0  0  0  0  0  0
  -19.9817    5.6382    0.4948 C   0  0  0  0  0  0  0  0  0  0  0  0
  -18.1961    6.5288   -0.9931 C   0  0  1  0  0  0  0  0  0  0  0  0
  -17.8221    7.5437   -2.0132 C   0  0  1  0  0  0  0  0  0  0  0  0
  -15.8080    8.3432   -0.7453 C   0  0  0  0  0  0  0  0  0  0  0  0
  -14.4897    8.6453   -1.0147 C   0  0  0  0  0  0  0  0  0  0  0  0
  -12.0583    8.8423    1.8532 C   0  0  0  0  0  0  0  0  0  0  0  0
  -11.4440   10.0564    1.5941 C   0  0  0  0  0  0  0  0  0  0  0  0
  -11.8274   10.7902    0.4968 C   0  0  0  0  0  0  0  0  0  0  0  0
  -12.8075   10.3225   -0.3301 C   0  0  0  0  0  0  0  0  0  0  0  0
  -18.7288    8.7396   -2.0656 C   0  0  1  0  0  0  0  0  0  0  0  0
  -13.6299    7.1955    1.2834 F   0  0  0  0  0  0  0  0  0  0  0  0
  -11.6529    8.1473    2.9455 F   0  0  0  0  0  0  0  0  0  0  0  0
  -10.4585   10.5363    2.4173 F   0  0  0  0  0  0  0  0  0  0  0  0
  -11.2165   11.9772    0.2558 F   0  0  0  0  0  0  0  0  0  0  0  0
  -13.1726   11.0565   -1.4054 F   0  0  0  0  0  0  0  0  0  0  0  0
  -16.4347    7.9478   -1.8850 N   0  0  0  0  0  0  0  0  0  0  0  0
  -14.3526    8.4177   -2.3490 N   0  0  0  0  0  0  0  0  0  0  0  0
  -15.5009    8.0152   -2.8158 N   0  0  0  0  0  0  0  0  0  0  0  0
  -20.1716    7.7699   -0.4673 O   0  0  0  0  0  0  0  0  0  0  0  0
  -21.1502    4.9136    0.3660 O   0  0  0  0  0  0  0  0  0  0  0  0
  -17.5229    6.7208    0.2087 O   0  0  0  0  0  0  0  0  0  0  0  0
  -18.7522    9.2875   -3.3489 O   0  0  0  0  0  0  0  0  0  0  0  0
  -21.0785    9.9710   -1.5015 S   0  0  0  0  0  0  0  0  0  0  0  0
  1  2  2  0
 16  1  1  0
  1 20  1  0
  2 17  1  0
  2 22  1  0
  3  4  1  6
  5  4  2  0
  7  4  1  0
  6  5  1  0
  9  6  2  0
  8  7  2  0
  9  8  1  0
 34  9  1  0
 21 10  1  0
 10 30  1  0
 10 34  1  1
 11 12  1  0
 13 11  1  0
 11 30  1  1
 12 31  1  6
 14 13  1  0
 13 32  1  1
 14 21  1  0
 14 27  1  1
 15 16  2  0
 15 27  1  0
 16 28  1  0
 17 18  2  0
 17 23  1  0
 18 19  1  0
 18 24  1  0
 19 20  2  0
 19 25  1  0
 20 26  1  0
 21 33  1  6
 27 29  1  0
 28 29  2  0
M  END
$$$$
