
     RDKit          3D

 34 37  0  0  0  0  0  0  0  0999 V2000
  -13.4563    9.0727    0.1340 C   0  0  0  0  0  0  0  0  0  0  0  0
  -12.8244    8.8274    1.3353 C   0  0  0  0  0  0  0  0  0  0  0  0
  -26.6634    7.6027   -4.7329 C   0  0  0  0  0  0  0  0  0  0  0  0
  -25.4782    8.0766   -3.9671 C   0  0  0  0  0  0  0  0  0  0  0  0
  -24.3946    8.6916   -4.5655 C   0  0  0  0  0  0  0  0  0  0  0  0
  -23.3230    9.1091   -3.7943 C   0  0  0  0  0  0  0  0  0  0  0  0
  -25.4862    7.8826   -2.6079 C   0  0  0  0  0  0  0  0  0  0  0  0
  -24.4027    8.3082   -1.8524 C   0  0  0  0  0  0  0  0  0  0  0  0
  -23.3141    8.9231   -2.4326 C   0  0  0  0  0  0  0  0  0  0  0  0
  -20.4518    8.6403   -1.9969 C   0  0  1  0  0  0  0  0  0  0  0  0
  -19.9833    6.5899   -1.0190 C   0  0  2  0  0  0  0  0  0  0  0  0
  -20.8127    6.6476    0.2628 C   0  0  0  0  0  0  0  0  0  0  0  0
  -18.5585    6.9274   -0.7134 C   0  0  1  0  0  0  0  0  0  0  0  0
  -18.1215    8.2275   -1.3338 C   0  0  1  0  0  0  0  0  0  0  0  0
  -15.6875    8.3968   -0.8886 C   0  0  0  0  0  0  0  0  0  0  0  0
  -14.9008    9.0739   -0.0104 C   0  0  0  0  0  0  0  0  0  0  0  0
  -11.4605    8.8369    1.4220 C   0  0  0  0  0  0  0  0  0  0  0  0
  -10.6692    9.0900    0.3211 C   0  0  0  0  0  0  0  0  0  0  0  0
  -11.2743    9.3381   -0.8904 C   0  0  0  0  0  0  0  0  0  0  0  0
  -12.6520    9.3276   -0.9739 C   0  0  0  0  0  0  0  0  0  0  0  0
  -19.2991    9.1852   -1.2283 C   0  0  1  0  0  0  0  0  0  0  0  0
  -13.6095    8.5794    2.4128 F   0  0  0  0  0  0  0  0  0  0  0  0
  -10.8723    8.5886    2.6330 F   0  0  0  0  0  0  0  0  0  0  0  0
   -9.3035    9.0963    0.4231 F   0  0  0  0  0  0  0  0  0  0  0  0
  -10.5271    9.5890   -1.9852 F   0  0  0  0  0  0  0  0  0  0  0  0
  -13.2780    9.5687   -2.1554 F   0  0  0  0  0  0  0  0  0  0  0  0
  -16.9731    8.7402   -0.6131 N   0  0  0  0  0  0  0  0  0  0  0  0
  -15.7559    9.7986    0.7585 N   0  0  0  0  0  0  0  0  0  0  0  0
  -16.9883    9.5866    0.3840 N   0  0  0  0  0  0  0  0  0  0  0  0
  -20.5400    7.2822   -2.0518 O   0  0  0  0  0  0  0  0  0  0  0  0
  -21.7970    5.6682    0.1268 O   0  0  0  0  0  0  0  0  0  0  0  0
  -18.3405    7.0254    0.6593 O   0  0  0  0  0  0  0  0  0  0  0  0
  -18.8591   10.3908   -1.8215 O   0  0  0  0  0  0  0  0  0  0  0  0
  -21.9781    9.4313   -1.3812 S   0  0  0  0  0  0  0  0  0  0  0  0
  1  2  2  0
 16  1  1  0
  1 20  1  0
  2 17  1  0
  2 22  1  0
  4  3  1  0
  5  4  2  0
  7  4  1  0
  6  5  1  0
  9  6  2  0
  8  7  2  0
  9  8  1  0
 34  9  1  0
 21 10  1  0
 10 30  1  0
 10 34  1  1
 11 12  1  1
 13 11  1  0
 11 30  1  0
 12 31  1  0
 14 13  1  0
 13 32  1  1
 14 21  1  0
 14 27  1  1
 15 16  2  0
 15 27  1  0
 16 28  1  0
 17 18  2  0
 17 23  1  0
 18 19  1  0
 18 24  1  0
 19 20  2  0
 19 25  1  0
 20 26  1  0
 21 33  1  6
 27 29  1  0
 28 29  2  0
M  END
$$$$
