
     RDKit          3D

 34 37  0  0  0  0  0  0  0  0999 V2000
  -13.4111    8.9071   -0.0886 C   0  0  0  0  0  0  0  0  0  0  0  0
  -12.8868    9.2470    1.1411 C   0  0  0  0  0  0  0  0  0  0  0  0
  -27.0474   10.0431   -1.8569 C   0  0  0  0  0  0  0  0  0  0  0  0
  -25.6728    9.8841   -1.3082 C   0  0  0  0  0  0  0  0  0  0  0  0
  -24.6680   10.8088   -1.5213 C   0  0  0  0  0  0  0  0  0  0  0  0
  -23.4097   10.6002   -0.9819 C   0  0  0  0  0  0  0  0  0  0  0  0
  -25.4175    8.7609   -0.5611 C   0  0  0  0  0  0  0  0  0  0  0  0
  -24.1501    8.5698   -0.0290 C   0  0  0  0  0  0  0  0  0  0  0  0
  -23.1365    9.4816   -0.2316 C   0  0  0  0  0  0  0  0  0  0  0  0
  -20.3847    8.7841   -0.8671 C   0  0  1  0  0  0  0  0  0  0  0  0
  -20.2221    6.5331   -1.4027 C   0  0  2  0  0  0  0  0  0  0  0  0
  -20.7652    5.8623   -0.1420 C   0  0  0  0  0  0  0  0  0  0  0  0
  -18.7267    6.5138   -1.3801 C   0  0  1  0  0  0  0  0  0  0  0  0
  -18.1280    7.8889   -1.2493 C   0  0  1  0  0  0  0  0  0  0  0  0
  -15.8335    8.7436   -0.8541 C   0  0  0  0  0  0  0  0  0  0  0  0
  -14.7106    8.2789   -0.2445 C   0  0  0  0  0  0  0  0  0  0  0  0
  -11.6580    9.8372    1.2377 C   0  0  0  0  0  0  0  0  0  0  0  0
  -10.9003   10.1138    0.1189 C   0  0  0  0  0  0  0  0  0  0  0  0
  -11.4000    9.7848   -1.1211 C   0  0  0  0  0  0  0  0  0  0  0  0
  -12.6414    9.1888   -1.2145 C   0  0  0  0  0  0  0  0  0  0  0  0
  -19.0167    8.6684   -0.2914 C   0  0  1  0  0  0  0  0  0  0  0  0
  -13.6380    8.9718    2.2361 F   0  0  0  0  0  0  0  0  0  0  0  0
  -11.1736   10.1590    2.4770 F   0  0  0  0  0  0  0  0  0  0  0  0
   -9.6704   10.7057    0.2311 F   0  0  0  0  0  0  0  0  0  0  0  0
  -10.6825   10.0428   -2.2339 F   0  0  0  0  0  0  0  0  0  0  0  0
  -13.1612    8.8525   -2.4239 F   0  0  0  0  0  0  0  0  0  0  0  0
  -16.7803    7.7770   -0.7278 N   0  0  0  0  0  0  0  0  0  0  0  0
  -15.0361    7.0451    0.2239 N   0  0  0  0  0  0  0  0  0  0  0  0
  -16.2753    6.7628   -0.0741 N   0  0  0  0  0  0  0  0  0  0  0  0
  -20.7880    7.7470   -1.6526 O   0  0  0  0  0  0  0  0  0  0  0  0
  -21.7444    4.9680   -0.5752 O   0  0  0  0  0  0  0  0  0  0  0  0
  -18.2422    5.7451   -0.3238 O   0  0  0  0  0  0  0  0  0  0  0  0
  -18.4315    9.9518   -0.1940 O   0  0  0  0  0  0  0  0  0  0  0  0
  -21.5504    9.1476    0.4906 S   0  0  0  0  0  0  0  0  0  0  0  0
  1  2  2  0
 16  1  1  0
  1 20  1  0
  2 17  1  0
  2 22  1  0
  4  3  1  0
  5  4  2  0
  7  4  1  0
  6  5  1  0
  9  6  2  0
  8  7  2  0
  9  8  1  0
 34  9  1  0
 21 10  1  0
 10 30  1  0
 10 34  1  1
 11 12  1  1
 13 11  1  0
 11 30  1  0
 12 31  1  0
 14 13  1  0
 13 32  1  1
 14 21  1  0
 14 27  1  1
 15 16  2  0
 15 27  1  0
 16 28  1  0
 17 18  2  0
 17 23  1  0
 18 19  1  0
 18 24  1  0
 19 20  2  0
 19 25  1  0
 20 26  1  0
 21 33  1  6
 27 29  1  0
 28 29  2  0
M  END
$$$$
