
     RDKit          3D

 34 37  0  0  0  0  0  0  0  0999 V2000
  -13.8540    8.8002    0.1405 C   0  0  0  0  0  0  0  0  0  0  0  0
  -13.4121    8.4298    1.3936 C   0  0  0  0  0  0  0  0  0  0  0  0
  -27.3273   11.2391    0.8381 C   0  0  0  0  0  0  0  0  0  0  0  0
  -26.0936   10.4261    0.6566 C   0  0  0  0  0  0  0  0  0  0  0  0
  -25.5022    9.7192    1.6865 C   0  0  0  0  0  0  0  0  0  0  0  0
  -24.3542    8.9819    1.4499 C   0  0  0  0  0  0  0  0  0  0  0  0
  -25.5382   10.3935   -0.5986 C   0  0  0  0  0  0  0  0  0  0  0  0
  -24.3875    9.6488   -0.8156 C   0  0  0  0  0  0  0  0  0  0  0  0
  -23.7847    8.9379    0.1998 C   0  0  0  0  0  0  0  0  0  0  0  0
  -21.0122    9.2082   -0.6385 C   0  0  1  0  0  0  0  0  0  0  0  0
  -20.4316    9.1610   -2.8837 C   0  0  2  0  0  0  0  0  0  0  0  0
  -20.9410    7.7879   -3.3190 C   0  0  0  0  0  0  0  0  0  0  0  0
  -18.9601    9.0940   -2.6240 C   0  0  1  0  0  0  0  0  0  0  0  0
  -18.6147    9.2940   -1.1724 C   0  0  1  0  0  0  0  0  0  0  0  0
  -16.2510    9.4357   -0.4350 C   0  0  0  0  0  0  0  0  0  0  0  0
  -15.2119    8.5669   -0.3167 C   0  0  0  0  0  0  0  0  0  0  0  0
  -12.1234    8.6706    1.7795 C   0  0  0  0  0  0  0  0  0  0  0  0
  -11.2217    9.2884    0.9382 C   0  0  0  0  0  0  0  0  0  0  0  0
  -11.6367    9.6685   -0.3183 C   0  0  0  0  0  0  0  0  0  0  0  0
  -12.9390    9.4235   -0.7043 C   0  0  0  0  0  0  0  0  0  0  0  0
  -19.6890    8.5852   -0.3609 C   0  0  1  0  0  0  0  0  0  0  0  0
  -14.3048    7.8230    2.2146 F   0  0  0  0  0  0  0  0  0  0  0  0
  -11.7245    8.2873    3.0317 F   0  0  0  0  0  0  0  0  0  0  0  0
   -9.9333    9.5233    1.3386 F   0  0  0  0  0  0  0  0  0  0  0  0
  -10.7779   10.2748   -1.1637 F   0  0  0  0  0  0  0  0  0  0  0  0
  -13.3779    9.7869   -1.9376 F   0  0  0  0  0  0  0  0  0  0  0  0
  -17.3082    8.7249   -0.9080 N   0  0  0  0  0  0  0  0  0  0  0  0
  -15.6956    7.3647   -0.7271 N   0  0  0  0  0  0  0  0  0  0  0  0
  -16.9483    7.4787   -1.0761 N   0  0  0  0  0  0  0  0  0  0  0  0
  -21.1763    9.7209   -1.8897 O   0  0  0  0  0  0  0  0  0  0  0  0
  -21.3866    7.9431   -4.6320 O   0  0  0  0  0  0  0  0  0  0  0  0
  -18.4285    7.8667   -3.0145 O   0  0  0  0  0  0  0  0  0  0  0  0
  -19.3389    8.7951    0.9927 O   0  0  0  0  0  0  0  0  0  0  0  0
  -22.3163    8.0160   -0.1779 S   0  0  0  0  0  0  0  0  0  0  0  0
  1  2  2  0
 16  1  1  0
  1 20  1  0
  2 17  1  0
  2 22  1  0
  4  3  1  0
  5  4  2  0
  7  4  1  0
  6  5  1  0
  9  6  2  0
  8  7  2  0
  9  8  1  0
 34  9  1  0
 21 10  1  0
 10 30  1  0
 10 34  1  6
 11 12  1  1
 13 11  1  0
 11 30  1  0
 12 31  1  0
 14 13  1  0
 13 32  1  1
 14 21  1  0
 14 27  1  6
 15 16  2  0
 15 27  1  0
 16 28  1  0
 17 18  2  0
 17 23  1  0
 18 19  1  0
 18 24  1  0
 19 20  2  0
 19 25  1  0
 20 26  1  0
 21 33  1  1
 27 29  1  0
 28 29  2  0
M  END
$$$$
