
     RDKit          3D

 34 37  0  0  0  0  0  0  0  0999 V2000
  -13.5275    9.5160   -0.3758 C   0  0  0  0  0  0  0  0  0  0  0  0
  -12.4166    9.1113   -1.0755 C   0  0  0  0  0  0  0  0  0  0  0  0
  -27.3128   10.2752   -1.3755 C   0  0  0  0  0  0  0  0  0  0  0  0
  -25.8913   10.1368   -1.0028 C   0  0  0  0  0  0  0  0  0  0  0  0
  -25.2982    8.9726   -0.6235 C   0  0  0  0  0  0  0  0  0  0  0  0
  -23.9462    8.9255   -0.2860 C   0  0  0  0  0  0  0  0  0  0  0  0
  -25.1005   11.2714   -1.0405 C   0  0  0  0  0  0  0  0  0  0  0  0
  -23.7677   11.2449   -0.7120 C   0  0  0  0  0  0  0  0  0  0  0  0
  -23.1717   10.0603   -0.3278 C   0  0  0  0  0  0  0  0  0  0  0  0
  -20.5425    8.7770   -0.8008 C   0  0  1  0  0  0  0  0  0  0  0  0
  -20.3017    6.5721   -0.9651 C   0  0  2  0  0  0  0  0  0  0  0  0
  -20.8363    5.2554   -0.4791 C   0  0  0  0  0  0  0  0  0  0  0  0
  -18.7911    6.5818   -0.9826 C   0  0  1  0  0  0  0  0  0  0  0  0
  -18.2145    7.9311   -1.2218 C   0  0  1  0  0  0  0  0  0  0  0  0
  -15.9415    8.9811   -1.0360 C   0  0  0  0  0  0  0  0  0  0  0  0
  -14.7710    8.7579   -0.3418 C   0  0  0  0  0  0  0  0  0  0  0  0
  -11.2466    9.8466   -1.0960 C   0  0  0  0  0  0  0  0  0  0  0  0
  -11.1818   11.0358   -0.3889 C   0  0  0  0  0  0  0  0  0  0  0  0
  -12.2789   11.4643    0.3199 C   0  0  0  0  0  0  0  0  0  0  0  0
  -13.4232   10.7201    0.3247 C   0  0  0  0  0  0  0  0  0  0  0  0
  -19.0652    9.0688   -0.7350 C   0  0  1  0  0  0  0  0  0  0  0  0
  -12.4470    7.9497   -1.7800 F   0  0  0  0  0  0  0  0  0  0  0  0
  -10.1436    9.4569   -1.7830 F   0  0  0  0  0  0  0  0  0  0  0  0
  -10.0381   11.7915   -0.3863 F   0  0  0  0  0  0  0  0  0  0  0  0
  -12.2005   12.6311    1.0073 F   0  0  0  0  0  0  0  0  0  0  0  0
  -14.4935   11.1560    1.0267 F   0  0  0  0  0  0  0  0  0  0  0  0
  -16.8618    8.0358   -0.7080 N   0  0  0  0  0  0  0  0  0  0  0  0
  -15.0240    7.6512    0.4081 N   0  0  0  0  0  0  0  0  0  0  0  0
  -16.2449    7.2639    0.1674 N   0  0  0  0  0  0  0  0  0  0  0  0
  -20.7949    7.5764   -0.1371 O   0  0  0  0  0  0  0  0  0  0  0  0
  -22.1893    5.0999   -0.7074 O   0  0  0  0  0  0  0  0  0  0  0  0
  -18.3378    6.0215    0.2070 O   0  0  0  0  0  0  0  0  0  0  0  0
  -18.8450   10.2148   -1.5004 O   0  0  0  0  0  0  0  0  0  0  0  0
  -21.4441   10.0795    0.0864 S   0  0  0  0  0  0  0  0  0  0  0  0
  1  2  2  0
 16  1  1  0
  1 20  1  0
  2 17  1  0
  2 22  1  0
  3  4  1  6
  5  4  2  0
  7  4  1  0
  6  5  1  0
  9  6  2  0
  8  7  2  0
  9  8  1  0
 34  9  1  0
 21 10  1  0
 10 30  1  0
 10 34  1  1
 11 12  1  0
 13 11  1  0
 11 30  1  1
 12 31  1  6
 14 13  1  0
 13 32  1  1
 14 21  1  0
 14 27  1  1
 15 16  2  0
 15 27  1  0
 16 28  1  0
 17 18  2  0
 17 23  1  0
 18 19  1  0
 18 24  1  0
 19 20  2  0
 19 25  1  0
 20 26  1  0
 21 33  1  6
 27 29  1  0
 28 29  2  0
M  END
$$$$
