
     RDKit          3D

 34 37  0  0  0  0  0  0  0  0999 V2000
  -13.2692    9.3441   -0.2677 C   0  0  0  0  0  0  0  0  0  0  0  0
  -12.3615    9.9348   -1.1130 C   0  0  0  0  0  0  0  0  0  0  0  0
  -26.7919    7.1172   -4.2244 C   0  0  0  0  0  0  0  0  0  0  0  0
  -25.6102    7.6775   -3.5401 C   0  0  0  0  0  0  0  0  0  0  0  0
  -25.4652    7.7675   -2.1903 C   0  0  0  0  0  0  0  0  0  0  0  0
  -24.3146    8.3114   -1.6206 C   0  0  0  0  0  0  0  0  0  0  0  0
  -24.5717    8.1466   -4.3246 C   0  0  0  0  0  0  0  0  0  0  0  0
  -23.4312    8.6853   -3.7823 C   0  0  0  0  0  0  0  0  0  0  0  0
  -23.2901    8.7739   -2.4118 C   0  0  0  0  0  0  0  0  0  0  0  0
  -20.4680    8.2415   -1.6798 C   0  0  1  0  0  0  0  0  0  0  0  0
  -19.7270    6.4968   -0.5163 C   0  0  2  0  0  0  0  0  0  0  0  0
  -20.0533    5.5727    0.6217 C   0  0  0  0  0  0  0  0  0  0  0  0
  -18.2847    6.9436   -0.4682 C   0  0  1  0  0  0  0  0  0  0  0  0
  -17.9768    8.0406   -1.4233 C   0  0  1  0  0  0  0  0  0  0  0  0
  -15.5364    8.3549   -0.9242 C   0  0  0  0  0  0  0  0  0  0  0  0
  -14.7079    9.3704   -0.4949 C   0  0  0  0  0  0  0  0  0  0  0  0
  -11.0000    9.8998   -0.8780 C   0  0  0  0  0  0  0  0  0  0  0  0
  -10.5238    9.2481    0.2476 C   0  0  0  0  0  0  0  0  0  0  0  0
  -11.4103    8.6485    1.1103 C   0  0  0  0  0  0  0  0  0  0  0  0
  -12.7505    8.6968    0.8563 C   0  0  0  0  0  0  0  0  0  0  0  0
  -19.1358    8.9448   -1.7301 C   0  0  1  0  0  0  0  0  0  0  0  0
  -12.7955   10.5826   -2.2259 F   0  0  0  0  0  0  0  0  0  0  0  0
  -10.0944   10.4792   -1.7055 F   0  0  0  0  0  0  0  0  0  0  0  0
   -9.1801    9.1930    0.5131 F   0  0  0  0  0  0  0  0  0  0  0  0
  -10.9290    8.0143    2.2087 F   0  0  0  0  0  0  0  0  0  0  0  0
  -13.6090    8.1021    1.7152 F   0  0  0  0  0  0  0  0  0  0  0  0
  -16.8164    8.8053   -1.0068 N   0  0  0  0  0  0  0  0  0  0  0  0
  -15.5348   10.4374   -0.3249 N   0  0  0  0  0  0  0  0  0  0  0  0
  -16.7468   10.0691   -0.6315 N   0  0  0  0  0  0  0  0  0  0  0  0
  -20.5874    7.5891   -0.4527 O   0  0  0  0  0  0  0  0  0  0  0  0
  -20.9798    4.6047    0.2880 O   0  0  0  0  0  0  0  0  0  0  0  0
  -17.9791    7.2897    0.8438 O   0  0  0  0  0  0  0  0  0  0  0  0
  -19.0142    9.4891   -3.0094 O   0  0  0  0  0  0  0  0  0  0  0  0
  -21.7948    9.4783   -1.7605 S   0  0  0  0  0  0  0  0  0  0  0  0
  1  2  2  0
 16  1  1  0
  1 20  1  0
  2 17  1  0
  2 22  1  0
  3  4  1  6
  5  4  2  0
  7  4  1  0
  6  5  1  0
  9  6  2  0
  8  7  2  0
  9  8  1  0
 34  9  1  0
 21 10  1  0
 10 30  1  0
 10 34  1  1
 11 12  1  0
 13 11  1  0
 11 30  1  1
 12 31  1  6
 14 13  1  0
 13 32  1  1
 14 21  1  0
 14 27  1  1
 15 16  2  0
 15 27  1  0
 16 28  1  0
 17 18  2  0
 17 23  1  0
 18 19  1  0
 18 24  1  0
 19 20  2  0
 19 25  1  0
 20 26  1  0
 21 33  1  6
 27 29  1  0
 28 29  2  0
M  END
$$$$
