
     RDKit          3D

 23 24  0  0  0  0  0  0  0  0999 V2000
   -6.3262  -33.0319  -16.3712 C   0  0  1  0  0  0  0  0  0  0  0  0
   -5.9075  -33.6185  -17.7267 C   0  0  1  0  0  0  0  0  0  0  0  0
   -6.5096  -35.0035  -17.8977 C   0  0  2  0  0  0  0  0  0  0  0  0
   -6.1808  -35.7634  -16.6074 C   0  0  1  0  0  0  0  0  0  0  0  0
   -6.9558  -35.0885  -15.5083 C   0  0  1  0  0  0  0  0  0  0  0  0
   -6.1382  -35.1759  -14.2351 C   0  0  0  0  0  0  0  0  0  0  0  0
   -6.8237  -31.7864  -16.6087 O   0  0  0  0  0  0  0  0  0  0  0  0
   -6.3431  -32.8122  -18.7755 O   0  0  0  0  0  0  0  0  0  0  0  0
   -5.8994  -35.6696  -18.9329 O   0  0  0  0  0  0  0  0  0  0  0  0
   -6.6023  -37.0916  -16.8100 O   0  0  0  0  0  0  0  0  0  0  0  0
   -7.3411  -33.8048  -15.8020 O   0  0  0  0  0  0  0  0  0  0  0  0
   -6.8695  -34.7456  -13.1360 O   0  0  0  0  0  0  0  0  0  0  0  0
   -6.2185  -29.5456  -16.0236 C   0  0  0  0  0  0  0  0  0  0  0  0
   -6.7309  -30.8861  -15.5593 C   0  0  1  0  0  0  0  0  0  0  0  0
   -8.1051  -30.7930  -14.9437 C   0  0  2  0  0  0  0  0  0  0  0  0
   -7.8873  -31.3484  -13.5454 C   0  0  1  0  0  0  0  0  0  0  0  0
   -6.3872  -31.0644  -13.3926 C   0  0  1  0  0  0  0  0  0  0  0  0
   -5.8115  -31.8411  -12.2371 C   0  0  0  0  0  0  0  0  0  0  0  0
   -5.3705  -28.9419  -15.1378 O   0  0  0  0  0  0  0  0  0  0  0  0
   -5.8955  -31.4597  -14.6095 O   0  0  0  0  0  0  0  0  0  0  0  0
   -9.0572  -31.5287  -15.6493 O   0  0  0  0  0  0  0  0  0  0  0  0
   -8.5605  -30.6210  -12.5785 O   0  0  0  0  0  0  0  0  0  0  0  0
   -4.7304  -32.5890  -12.7070 O   0  0  0  0  0  0  0  0  0  0  0  0
  1  2  1  0
  1  7  1  6
  1 11  1  0
  2  3  1  0
  2  8  1  6
  3  4  1  0
  3  9  1  6
  5  4  1  0
  4 10  1  6
  5  6  1  0
  5 11  1  6
  6 12  1  6
 14  7  1  6
 14 13  1  0
 13 19  1  6
 14 15  1  0
 20 14  1  0
 16 15  1  0
 15 21  1  6
 17 16  1  0
 16 22  1  1
 18 17  1  0
 17 20  1  6
 18 23  1  6
M  END
$$$$
