
     RDKit          3D

 23 24  0  0  0  0  0  0  0  0999 V2000
   -6.3436  -32.4367  -14.1952 C   0  0  1  0  0  0  0  0  0  0  0  0
   -6.4305  -31.1609  -13.4187 C   0  0  1  0  0  0  0  0  0  0  0  0
   -7.4911  -30.3098  -14.0859 C   0  0  2  0  0  0  0  0  0  0  0  0
   -7.4024  -30.5008  -15.5603 C   0  0  1  0  0  0  0  0  0  0  0  0
   -6.1588  -31.1082  -16.0862 C   0  0  1  0  0  0  0  0  0  0  0  0
   -5.0939  -30.0465  -16.3782 C   0  0  0  0  0  0  0  0  0  0  0  0
   -7.5516  -33.0503  -14.4568 O   0  0  0  0  0  0  0  0  0  0  0  0
   -6.7272  -31.2876  -12.0885 O   0  0  0  0  0  0  0  0  0  0  0  0
   -7.2809  -28.9964  -13.6764 O   0  0  0  0  0  0  0  0  0  0  0  0
   -8.5170  -31.2054  -16.0711 O   0  0  0  0  0  0  0  0  0  0  0  0
   -5.6387  -32.1571  -15.3637 O   0  0  0  0  0  0  0  0  0  0  0  0
   -4.1563  -30.6054  -17.2713 O   0  0  0  0  0  0  0  0  0  0  0  0
   -7.9617  -35.3347  -13.8306 C   0  0  0  0  0  0  0  0  0  0  0  0
   -7.4824  -34.3530  -14.8776 C   0  0  1  0  0  0  0  0  0  0  0  0
   -8.0176  -34.6211  -16.2492 C   0  0  2  0  0  0  0  0  0  0  0  0
   -7.3216  -35.9393  -16.5864 C   0  0  1  0  0  0  0  0  0  0  0  0
   -6.0866  -35.8551  -15.7549 C   0  0  1  0  0  0  0  0  0  0  0  0
   -4.8920  -35.8301  -16.6952 C   0  0  0  0  0  0  0  0  0  0  0  0
   -8.0547  -34.6941  -12.5738 O   0  0  0  0  0  0  0  0  0  0  0  0
   -6.1097  -34.6358  -15.0887 O   0  0  0  0  0  0  0  0  0  0  0  0
   -7.4295  -33.6737  -17.0968 O   0  0  0  0  0  0  0  0  0  0  0  0
   -8.1189  -37.0438  -16.3450 O   0  0  0  0  0  0  0  0  0  0  0  0
   -3.6868  -35.8216  -16.0188 O   0  0  0  0  0  0  0  0  0  0  0  0
  1  2  1  0
  1  7  1  6
  1 11  1  0
  2  3  1  0
  2  8  1  1
  3  4  1  0
  3  9  1  6
  5  4  1  0
  4 10  1  1
  5  6  1  1
 11  5  1  0
  6 12  1  0
 14  7  1  0
 14 13  1  1
 13 19  1  0
 14 15  1  0
 20 14  1  0
 16 15  1  0
 15 21  1  6
 17 16  1  0
 16 22  1  1
 17 18  1  6
 17 20  1  0
 23 18  1  0
M  END
$$$$
