
     RDKit          3D

 23 24  0  0  0  0  0  0  0  0999 V2000
   -6.7804  -33.0118  -15.0974 C   0  0  1  0  0  0  0  0  0  0  0  0
   -7.5862  -31.9696  -15.8856 C   0  0  1  0  0  0  0  0  0  0  0  0
   -7.3043  -30.5792  -15.3404 C   0  0  2  0  0  0  0  0  0  0  0  0
   -7.4792  -30.6837  -13.8210 C   0  0  1  0  0  0  0  0  0  0  0  0
   -6.3715  -31.5741  -13.3266 C   0  0  1  0  0  0  0  0  0  0  0  0
   -6.8934  -32.3576  -12.1387 C   0  0  0  0  0  0  0  0  0  0  0  0
   -6.1239  -33.7842  -16.0072 O   0  0  0  0  0  0  0  0  0  0  0  0
   -7.2477  -31.9942  -17.2364 O   0  0  0  0  0  0  0  0  0  0  0  0
   -8.2386  -29.6829  -15.8003 O   0  0  0  0  0  0  0  0  0  0  0  0
   -7.3667  -29.3737  -13.3169 O   0  0  0  0  0  0  0  0  0  0  0  0
   -5.8276  -32.3806  -14.2941 O   0  0  0  0  0  0  0  0  0  0  0  0
   -6.6349  -31.6960  -10.9457 O   0  0  0  0  0  0  0  0  0  0  0  0
   -4.2809  -34.8947  -14.9584 C   0  0  0  0  0  0  0  0  0  0  0  0
   -5.6657  -35.0078  -15.5455 C   0  0  1  0  0  0  0  0  0  0  0  0
   -6.6769  -35.4990  -14.5394 C   0  0  2  0  0  0  0  0  0  0  0  0
   -7.2219  -36.7578  -15.1950 C   0  0  1  0  0  0  0  0  0  0  0  0
   -6.0317  -37.1067  -16.0983 C   0  0  1  0  0  0  0  0  0  0  0  0
   -6.4322  -38.1145  -17.1442 C   0  0  0  0  0  0  0  0  0  0  0  0
   -3.3119  -34.6129  -15.8802 O   0  0  0  0  0  0  0  0  0  0  0  0
   -5.7020  -35.8839  -16.6226 O   0  0  0  0  0  0  0  0  0  0  0  0
   -7.6843  -34.5658  -14.2956 O   0  0  0  0  0  0  0  0  0  0  0  0
   -7.3898  -37.7927  -14.2907 O   0  0  0  0  0  0  0  0  0  0  0  0
   -6.2964  -37.5203  -18.4000 O   0  0  0  0  0  0  0  0  0  0  0  0
  1  2  1  0
  1  7  1  6
  1 11  1  0
  2  3  1  0
  2  8  1  6
  3  4  1  0
  3  9  1  6
  5  4  1  0
  4 10  1  1
  5  6  1  0
  5 11  1  6
  6 12  1  6
 14  7  1  6
 14 13  1  0
 13 19  1  6
 14 15  1  0
 20 14  1  0
 16 15  1  0
 15 21  1  6
 17 16  1  0
 16 22  1  1
 18 17  1  0
 17 20  1  6
 18 23  1  6
M  END
$$$$
