
     RDKit          3D

 23 24  0  0  0  0  0  0  0  0999 V2000
   -7.7073  -31.9681  -14.8016 C   0  0  1  0  0  0  0  0  0  0  0  0
   -8.3364  -30.6779  -15.3461 C   0  0  1  0  0  0  0  0  0  0  0  0
   -7.6638  -29.4698  -14.7152 C   0  0  2  0  0  0  0  0  0  0  0  0
   -7.6616  -29.7349  -13.2052 C   0  0  1  0  0  0  0  0  0  0  0  0
   -6.7435  -30.9058  -12.9814 C   0  0  1  0  0  0  0  0  0  0  0  0
   -7.2796  -31.7060  -11.8111 C   0  0  0  0  0  0  0  0  0  0  0  0
   -7.3762  -32.7380  -15.8753 O   0  0  0  0  0  0  0  0  0  0  0  0
   -8.1902  -30.5962  -16.7287 O   0  0  0  0  0  0  0  0  0  0  0  0
   -8.4091  -28.3359  -14.9315 O   0  0  0  0  0  0  0  0  0  0  0  0
   -7.1765  -28.5614  -12.5964 O   0  0  0  0  0  0  0  0  0  0  0  0
   -6.5364  -31.6761  -14.0978 O   0  0  0  0  0  0  0  0  0  0  0  0
   -6.2930  -32.5103  -11.2564 O   0  0  0  0  0  0  0  0  0  0  0  0
   -5.8695  -33.6786  -14.2707 C   0  0  0  0  0  0  0  0  0  0  0  0
   -6.5367  -33.8098  -15.6171 C   0  0  1  0  0  0  0  0  0  0  0  0
   -7.3796  -35.0568  -15.7205 C   0  0  2  0  0  0  0  0  0  0  0  0
   -6.7650  -35.7827  -16.9065 C   0  0  1  0  0  0  0  0  0  0  0  0
   -5.3528  -35.1843  -16.8637 C   0  0  1  0  0  0  0  0  0  0  0  0
   -4.6205  -35.4503  -18.1533 C   0  0  0  0  0  0  0  0  0  0  0  0
   -4.7751  -34.4826  -14.1164 O   0  0  0  0  0  0  0  0  0  0  0  0
   -5.6114  -33.8550  -16.6519 O   0  0  0  0  0  0  0  0  0  0  0  0
   -8.7289  -34.7733  -15.9310 O   0  0  0  0  0  0  0  0  0  0  0  0
   -6.6579  -37.1464  -16.6921 O   0  0  0  0  0  0  0  0  0  0  0  0
   -4.7776  -34.3391  -18.9836 O   0  0  0  0  0  0  0  0  0  0  0  0
  1  2  1  0
  1  7  1  6
  1 11  1  0
  2  3  1  0
  2  8  1  6
  3  4  1  0
  3  9  1  1
  5  4  1  0
  4 10  1  1
  5  6  1  0
  5 11  1  6
  6 12  1  6
 14  7  1  6
 14 13  1  0
 13 19  1  6
 14 15  1  0
 20 14  1  0
 16 15  1  0
 15 21  1  6
 17 16  1  0
 16 22  1  1
 18 17  1  0
 17 20  1  6
 18 23  1  6
M  END
$$$$
