
     RDKit          3D

 23 24  0  0  0  0  0  0  0  0999 V2000
   -6.7352  -33.2315  -15.7038 C   0  0  1  0  0  0  0  0  0  0  0  0
   -7.3383  -32.5558  -16.9434 C   0  0  1  0  0  0  0  0  0  0  0  0
   -8.3351  -33.4915  -17.6075 C   0  0  2  0  0  0  0  0  0  0  0  0
   -7.6128  -34.8361  -17.7514 C   0  0  1  0  0  0  0  0  0  0  0  0
   -7.3985  -35.3543  -16.3551 C   0  0  1  0  0  0  0  0  0  0  0  0
   -6.0948  -36.1272  -16.3358 C   0  0  0  0  0  0  0  0  0  0  0  0
   -6.8584  -32.3550  -14.6685 O   0  0  0  0  0  0  0  0  0  0  0  0
   -7.9964  -31.3776  -16.5992 O   0  0  0  0  0  0  0  0  0  0  0  0
   -8.6393  -33.0517  -18.8731 O   0  0  0  0  0  0  0  0  0  0  0  0
   -8.4689  -35.6694  -18.4967 O   0  0  0  0  0  0  0  0  0  0  0  0
   -7.4534  -34.3862  -15.3843 O   0  0  0  0  0  0  0  0  0  0  0  0
   -6.1321  -37.1551  -15.4032 O   0  0  0  0  0  0  0  0  0  0  0  0
   -6.0192  -31.4140  -12.6337 C   0  0  0  0  0  0  0  0  0  0  0  0
   -6.0482  -32.5960  -13.5704 C   0  0  1  0  0  0  0  0  0  0  0  0
   -6.5775  -33.8423  -12.9050 C   0  0  2  0  0  0  0  0  0  0  0  0
   -5.4297  -34.8258  -13.0682 C   0  0  1  0  0  0  0  0  0  0  0  0
   -4.2662  -33.8348  -13.2035 C   0  0  1  0  0  0  0  0  0  0  0  0
   -3.0391  -34.5221  -13.7436 C   0  0  0  0  0  0  0  0  0  0  0  0
   -7.0303  -30.5187  -12.8434 O   0  0  0  0  0  0  0  0  0  0  0  0
   -4.7848  -32.8996  -14.0610 O   0  0  0  0  0  0  0  0  0  0  0  0
   -7.7478  -34.3103  -13.5020 O   0  0  0  0  0  0  0  0  0  0  0  0
   -5.2169  -35.5815  -11.9277 O   0  0  0  0  0  0  0  0  0  0  0  0
   -2.9564  -34.2597  -15.1122 O   0  0  0  0  0  0  0  0  0  0  0  0
  1  2  1  0
  1  7  1  1
  1 11  1  0
  2  3  1  0
  2  8  1  1
  3  4  1  0
  3  9  1  6
  5  4  1  0
  4 10  1  6
  5  6  1  0
  5 11  1  1
  6 12  1  6
 14  7  1  6
 14 13  1  0
 13 19  1  6
 14 15  1  0
 20 14  1  0
 16 15  1  0
 15 21  1  6
 17 16  1  0
 16 22  1  1
 18 17  1  0
 17 20  1  6
 18 23  1  6
M  END
$$$$
