
     RDKit          3D

 23 24  0  0  0  0  0  0  0  0999 V2000
   -6.0601  -34.0155  -14.8840 C   0  0  1  0  0  0  0  0  0  0  0  0
   -5.3693  -34.5346  -13.6150 C   0  0  1  0  0  0  0  0  0  0  0  0
   -3.8991  -34.7961  -13.8981 C   0  0  2  0  0  0  0  0  0  0  0  0
   -3.8643  -35.6369  -15.1796 C   0  0  1  0  0  0  0  0  0  0  0  0
   -4.3650  -34.7469  -16.2847 C   0  0  1  0  0  0  0  0  0  0  0  0
   -5.1113  -35.6107  -17.2818 C   0  0  0  0  0  0  0  0  0  0  0  0
   -6.7344  -32.8832  -14.5398 O   0  0  0  0  0  0  0  0  0  0  0  0
   -5.4644  -33.6075  -12.5801 O   0  0  0  0  0  0  0  0  0  0  0  0
   -3.3428  -35.5532  -12.8956 O   0  0  0  0  0  0  0  0  0  0  0  0
   -2.5207  -36.0114  -15.3729 O   0  0  0  0  0  0  0  0  0  0  0  0
   -5.1087  -33.6790  -15.8498 O   0  0  0  0  0  0  0  0  0  0  0  0
   -5.0375  -35.0802  -18.5628 O   0  0  0  0  0  0  0  0  0  0  0  0
   -8.1397  -31.1361  -15.3781 C   0  0  0  0  0  0  0  0  0  0  0  0
   -7.8850  -32.6185  -15.2654 C   0  0  1  0  0  0  0  0  0  0  0  0
   -7.7098  -33.2745  -16.6126 C   0  0  2  0  0  0  0  0  0  0  0  0
   -8.8057  -34.3282  -16.6204 C   0  0  1  0  0  0  0  0  0  0  0  0
   -9.7749  -33.6909  -15.6160 C   0  0  1  0  0  0  0  0  0  0  0  0
  -10.7947  -34.6956  -15.1464 C   0  0  0  0  0  0  0  0  0  0  0  0
   -8.5420  -30.5546  -14.2084 O   0  0  0  0  0  0  0  0  0  0  0  0
   -8.9262  -33.2759  -14.6229 O   0  0  0  0  0  0  0  0  0  0  0  0
   -6.4457  -33.8426  -16.7695 O   0  0  0  0  0  0  0  0  0  0  0  0
   -9.4500  -34.4097  -17.8432 O   0  0  0  0  0  0  0  0  0  0  0  0
  -10.1300  -35.6928  -14.4306 O   0  0  0  0  0  0  0  0  0  0  0  0
  1  2  1  0
  1  7  1  1
  1 11  1  0
  2  3  1  0
  2  8  1  1
  3  4  1  0
  3  9  1  1
  5  4  1  0
  4 10  1  6
  5  6  1  0
  5 11  1  1
  6 12  1  6
 14  7  1  1
 14 13  1  0
 13 19  1  6
 14 15  1  0
 20 14  1  0
 16 15  1  0
 15 21  1  1
 17 16  1  0
 16 22  1  6
 18 17  1  0
 17 20  1  1
 18 23  1  6
M  END
$$$$
