
     RDKit          3D

 23 24  0  0  0  0  0  0  0  0999 V2000
   -6.7339  -33.3237  -14.7373 C   0  0  1  0  0  0  0  0  0  0  0  0
   -7.0242  -32.8557  -13.3043 C   0  0  1  0  0  0  0  0  0  0  0  0
   -7.7471  -31.5192  -13.3344 C   0  0  2  0  0  0  0  0  0  0  0  0
   -6.9309  -30.6246  -14.2746 C   0  0  1  0  0  0  0  0  0  0  0  0
   -7.0662  -31.2197  -15.6500 C   0  0  1  0  0  0  0  0  0  0  0  0
   -5.7700  -30.9760  -16.3968 C   0  0  0  0  0  0  0  0  0  0  0  0
   -7.1834  -34.6053  -14.8403 O   0  0  0  0  0  0  0  0  0  0  0  0
   -7.8218  -33.7771  -12.6302 O   0  0  0  0  0  0  0  0  0  0  0  0
   -7.7284  -30.9332  -12.0918 O   0  0  0  0  0  0  0  0  0  0  0  0
   -7.5033  -29.3404  -14.1978 O   0  0  0  0  0  0  0  0  0  0  0  0
   -7.4385  -32.5402  -15.6544 O   0  0  0  0  0  0  0  0  0  0  0  0
   -5.4810  -29.6202  -16.4757 O   0  0  0  0  0  0  0  0  0  0  0  0
   -7.1386  -34.8169  -17.2242 C   0  0  0  0  0  0  0  0  0  0  0  0
   -6.6683  -35.3458  -15.8922 C   0  0  1  0  0  0  0  0  0  0  0  0
   -5.1662  -35.3060  -15.7572 C   0  0  2  0  0  0  0  0  0  0  0  0
   -4.8115  -36.7614  -15.4979 C   0  0  1  0  0  0  0  0  0  0  0  0
   -6.0275  -37.4362  -16.1462 C   0  0  1  0  0  0  0  0  0  0  0  0
   -6.1289  -38.8777  -15.7199 C   0  0  0  0  0  0  0  0  0  0  0  0
   -8.4833  -34.9516  -17.4279 O   0  0  0  0  0  0  0  0  0  0  0  0
   -7.0622  -36.6621  -15.6890 O   0  0  0  0  0  0  0  0  0  0  0  0
   -4.7454  -34.4784  -14.7164 O   0  0  0  0  0  0  0  0  0  0  0  0
   -3.6814  -37.1602  -16.1914 O   0  0  0  0  0  0  0  0  0  0  0  0
   -6.6574  -38.9166  -14.4284 O   0  0  0  0  0  0  0  0  0  0  0  0
  1  2  1  0
  1  7  1  1
  1 11  1  0
  2  3  1  0
  2  8  1  6
  3  4  1  0
  3  9  1  1
  5  4  1  0
  4 10  1  6
  5  6  1  0
  5 11  1  1
  6 12  1  6
 14  7  1  1
 14 13  1  0
 13 19  1  6
 14 15  1  0
 20 14  1  0
 16 15  1  0
 15 21  1  1
 17 16  1  0
 16 22  1  6
 18 17  1  0
 17 20  1  1
 18 23  1  6
M  END
$$$$
