
     RDKit          3D

 23 24  0  0  0  0  0  0  0  0999 V2000
   -7.0445  -33.7511  -15.5786 C   0  0  1  0  0  0  0  0  0  0  0  0
   -7.8914  -33.9376  -14.3595 C   0  0  1  0  0  0  0  0  0  0  0  0
   -7.2138  -33.1859  -13.2325 C   0  0  2  0  0  0  0  0  0  0  0  0
   -5.7387  -33.3336  -13.3756 C   0  0  1  0  0  0  0  0  0  0  0  0
   -5.2541  -34.4146  -14.2636 C   0  0  1  0  0  0  0  0  0  0  0  0
   -5.0944  -35.7361  -13.5057 C   0  0  0  0  0  0  0  0  0  0  0  0
   -6.6716  -32.4491  -15.8430 O   0  0  0  0  0  0  0  0  0  0  0  0
   -9.1904  -33.5185  -14.4618 O   0  0  0  0  0  0  0  0  0  0  0  0
   -7.7157  -33.6960  -12.0388 O   0  0  0  0  0  0  0  0  0  0  0  0
   -5.1176  -32.1168  -13.7414 O   0  0  0  0  0  0  0  0  0  0  0  0
   -5.9412  -34.5905  -15.4424 O   0  0  0  0  0  0  0  0  0  0  0  0
   -4.3169  -36.6027  -14.3019 O   0  0  0  0  0  0  0  0  0  0  0  0
   -6.5405  -30.8476  -17.6308 C   0  0  0  0  0  0  0  0  0  0  0  0
   -6.1687  -32.2134  -17.0961 C   0  0  1  0  0  0  0  0  0  0  0  0
   -4.7290  -32.5703  -17.2953 C   0  0  2  0  0  0  0  0  0  0  0  0
   -4.6645  -32.7036  -18.8163 C   0  0  1  0  0  0  0  0  0  0  0  0
   -6.0697  -33.0738  -19.1513 C   0  0  1  0  0  0  0  0  0  0  0  0
   -6.0523  -34.4661  -19.7621 C   0  0  0  0  0  0  0  0  0  0  0  0
   -6.4432  -29.8827  -16.6022 O   0  0  0  0  0  0  0  0  0  0  0  0
   -6.7788  -33.1576  -17.9592 O   0  0  0  0  0  0  0  0  0  0  0  0
   -4.5731  -33.8752  -16.8103 O   0  0  0  0  0  0  0  0  0  0  0  0
   -4.1943  -31.5593  -19.4354 O   0  0  0  0  0  0  0  0  0  0  0  0
   -7.1422  -35.2249  -19.3794 O   0  0  0  0  0  0  0  0  0  0  0  0
  1  2  1  0
  1  7  1  1
  1 11  1  0
  2  3  1  0
  2  8  1  6
  3  4  1  0
  3  9  1  1
  5  4  1  0
  4 10  1  6
  5  6  1  1
 11  5  1  0
  6 12  1  0
 14  7  1  0
 14 13  1  6
 13 19  1  0
 14 15  1  0
 20 14  1  0
 16 15  1  0
 15 21  1  1
 17 16  1  0
 16 22  1  6
 17 18  1  1
 17 20  1  0
 23 18  1  0
M  END
$$$$
