
     RDKit          3D

 23 24  0  0  0  0  0  0  0  0999 V2000
   -6.4391  -33.3305  -16.3161 C   0  0  1  0  0  0  0  0  0  0  0  0
   -6.8176  -34.1696  -17.4955 C   0  0  1  0  0  0  0  0  0  0  0  0
   -7.7488  -35.2506  -16.9870 C   0  0  2  0  0  0  0  0  0  0  0  0
   -7.2869  -35.6878  -15.6403 C   0  0  1  0  0  0  0  0  0  0  0  0
   -5.9070  -35.3194  -15.2503 C   0  0  1  0  0  0  0  0  0  0  0  0
   -4.8938  -36.3759  -15.7016 C   0  0  0  0  0  0  0  0  0  0  0  0
   -7.4920  -32.9156  -15.5265 O   0  0  0  0  0  0  0  0  0  0  0  0
   -7.4192  -33.5096  -18.5327 O   0  0  0  0  0  0  0  0  0  0  0  0
   -7.7536  -36.2682  -17.9365 O   0  0  0  0  0  0  0  0  0  0  0  0
   -8.1812  -35.2912  -14.6191 O   0  0  0  0  0  0  0  0  0  0  0  0
   -5.4952  -34.0509  -15.5877 O   0  0  0  0  0  0  0  0  0  0  0  0
   -3.6947  -36.1596  -14.9911 O   0  0  0  0  0  0  0  0  0  0  0  0
   -8.1060  -30.6145  -15.2005 C   0  0  0  0  0  0  0  0  0  0  0  0
   -7.2663  -31.7966  -14.7678 C   0  0  1  0  0  0  0  0  0  0  0  0
   -7.2400  -32.0110  -13.2869 C   0  0  2  0  0  0  0  0  0  0  0  0
   -6.4663  -30.7776  -12.8226 C   0  0  1  0  0  0  0  0  0  0  0  0
   -5.6398  -30.4643  -14.0236 C   0  0  1  0  0  0  0  0  0  0  0  0
   -4.1776  -30.6224  -13.6378 C   0  0  0  0  0  0  0  0  0  0  0  0
   -7.9472  -30.3903  -16.5872 O   0  0  0  0  0  0  0  0  0  0  0  0
   -5.9159  -31.4264  -14.9876 O   0  0  0  0  0  0  0  0  0  0  0  0
   -6.3753  -33.0888  -13.0575 O   0  0  0  0  0  0  0  0  0  0  0  0
   -7.2939  -29.7548  -12.3952 O   0  0  0  0  0  0  0  0  0  0  0  0
   -3.3298  -30.5176  -14.7243 O   0  0  0  0  0  0  0  0  0  0  0  0
  1  2  1  0
  1  7  1  1
  1 11  1  0
  2  3  1  0
  2  8  1  6
  3  4  1  0
  3  9  1  6
  5  4  1  0
  4 10  1  1
  5  6  1  6
 11  5  1  0
  6 12  1  0
 14  7  1  0
 14 13  1  1
 13 19  1  0
 14 15  1  0
 20 14  1  0
 16 15  1  0
 15 21  1  6
 17 16  1  0
 16 22  1  6
 17 18  1  1
 17 20  1  0
 23 18  1  0
M  END
$$$$
