
     RDKit          3D

 23 24  0  0  0  0  0  0  0  0999 V2000
   -6.6933  -33.2255  -15.0003 C   0  0  1  0  0  0  0  0  0  0  0  0
   -7.3544  -34.5694  -14.6631 C   0  0  1  0  0  0  0  0  0  0  0  0
   -6.5947  -35.7012  -15.3354 C   0  0  2  0  0  0  0  0  0  0  0  0
   -6.4322  -35.2815  -16.8010 C   0  0  1  0  0  0  0  0  0  0  0  0
   -5.5168  -34.0872  -16.8013 C   0  0  1  0  0  0  0  0  0  0  0  0
   -5.9363  -33.1742  -17.9360 C   0  0  0  0  0  0  0  0  0  0  0  0
   -6.4959  -32.5684  -13.8236 O   0  0  0  0  0  0  0  0  0  0  0  0
   -7.3588  -34.7926  -13.2883 O   0  0  0  0  0  0  0  0  0  0  0  0
   -7.3382  -36.8565  -15.3196 O   0  0  0  0  0  0  0  0  0  0  0  0
   -5.8620  -36.3823  -17.4688 O   0  0  0  0  0  0  0  0  0  0  0  0
   -5.4473  -33.4350  -15.5962 O   0  0  0  0  0  0  0  0  0  0  0  0
   -4.9106  -32.3087  -18.2919 O   0  0  0  0  0  0  0  0  0  0  0  0
   -5.7444  -30.5086  -12.8633 C   0  0  0  0  0  0  0  0  0  0  0  0
   -6.6403  -31.1909  -13.8668 C   0  0  1  0  0  0  0  0  0  0  0  0
   -6.3419  -30.7668  -15.2836 C   0  0  2  0  0  0  0  0  0  0  0  0
   -7.6732  -30.2041  -15.7553 C   0  0  1  0  0  0  0  0  0  0  0  0
   -8.2799  -29.8221  -14.3987 C   0  0  1  0  0  0  0  0  0  0  0  0
   -9.7597  -29.5698  -14.5274 C   0  0  0  0  0  0  0  0  0  0  0  0
   -6.0632  -30.7826  -11.5628 O   0  0  0  0  0  0  0  0  0  0  0  0
   -7.9821  -30.9191  -13.6328 O   0  0  0  0  0  0  0  0  0  0  0  0
   -5.9186  -31.8298  -16.0811 O   0  0  0  0  0  0  0  0  0  0  0  0
   -7.5223  -29.0451  -16.4975 O   0  0  0  0  0  0  0  0  0  0  0  0
  -10.4382  -30.7061  -14.0833 O   0  0  0  0  0  0  0  0  0  0  0  0
  1  2  1  0
  1  7  1  1
  1 11  1  0
  2  3  1  0
  2  8  1  1
  3  4  1  0
  3  9  1  6
  5  4  1  0
  4 10  1  6
  5  6  1  0
  5 11  1  1
  6 12  1  6
 14  7  1  6
 14 13  1  0
 13 19  1  6
 14 15  1  0
 20 14  1  0
 16 15  1  0
 15 21  1  6
 17 16  1  0
 16 22  1  6
 18 17  1  0
 17 20  1  1
 18 23  1  6
M  END
$$$$
