
     RDKit          3D

 23 24  0  0  0  0  0  0  0  0999 V2000
   -6.8966  -33.2075  -15.6552 C   0  0  1  0  0  0  0  0  0  0  0  0
   -7.1331  -33.8671  -17.0211 C   0  0  1  0  0  0  0  0  0  0  0  0
   -7.1993  -35.3770  -16.8603 C   0  0  2  0  0  0  0  0  0  0  0  0
   -5.9669  -35.7628  -16.0340 C   0  0  1  0  0  0  0  0  0  0  0  0
   -6.1726  -35.1735  -14.6649 C   0  0  1  0  0  0  0  0  0  0  0  0
   -4.8160  -34.7841  -14.1124 C   0  0  0  0  0  0  0  0  0  0  0  0
   -7.8380  -32.2336  -15.5108 O   0  0  0  0  0  0  0  0  0  0  0  0
   -8.3273  -33.4280  -17.5875 O   0  0  0  0  0  0  0  0  0  0  0  0
   -7.0850  -35.9969  -18.0812 O   0  0  0  0  0  0  0  0  0  0  0  0
   -5.9344  -37.1702  -16.0022 O   0  0  0  0  0  0  0  0  0  0  0  0
   -7.0741  -34.1398  -14.6301 O   0  0  0  0  0  0  0  0  0  0  0  0
   -3.8499  -35.7267  -14.4379 O   0  0  0  0  0  0  0  0  0  0  0  0
   -8.6310  -30.1919  -14.5453 C   0  0  0  0  0  0  0  0  0  0  0  0
   -7.5145  -31.2011  -14.6451 C   0  0  1  0  0  0  0  0  0  0  0  0
   -7.1932  -31.8346  -13.3141 C   0  0  2  0  0  0  0  0  0  0  0  0
   -5.7230  -31.4969  -13.1253 C   0  0  1  0  0  0  0  0  0  0  0  0
   -5.6366  -30.2454  -14.0088 C   0  0  1  0  0  0  0  0  0  0  0  0
   -4.2006  -29.8984  -14.3046 C   0  0  0  0  0  0  0  0  0  0  0  0
   -8.5673  -29.2034  -15.4871 O   0  0  0  0  0  0  0  0  0  0  0  0
   -6.3408  -30.6303  -15.1200 O   0  0  0  0  0  0  0  0  0  0  0  0
   -7.4114  -33.2121  -13.3118 O   0  0  0  0  0  0  0  0  0  0  0  0
   -5.4308  -31.1227  -11.8246 O   0  0  0  0  0  0  0  0  0  0  0  0
   -3.7797  -30.6651  -15.3925 O   0  0  0  0  0  0  0  0  0  0  0  0
  1  2  1  0
  1  7  1  1
  1 11  1  0
  2  3  1  0
  2  8  1  1
  3  4  1  0
  3  9  1  6
  5  4  1  0
  4 10  1  1
  5  6  1  0
  5 11  1  6
  6 12  1  6
 14  7  1  6
 14 13  1  0
 13 19  1  6
 14 15  1  0
 20 14  1  0
 16 15  1  0
 15 21  1  6
 17 16  1  0
 16 22  1  1
 18 17  1  0
 17 20  1  6
 18 23  1  6
M  END
$$$$
