
     RDKit          3D

 23 24  0  0  0  0  0  0  0  0999 V2000
   -6.6890  -32.5957  -14.2098 C   0  0  1  0  0  0  0  0  0  0  0  0
   -6.9723  -31.3573  -13.4196 C   0  0  1  0  0  0  0  0  0  0  0  0
   -7.8794  -30.4905  -14.2684 C   0  0  2  0  0  0  0  0  0  0  0  0
   -7.4654  -30.6139  -15.6937 C   0  0  1  0  0  0  0  0  0  0  0  0
   -6.1235  -31.1812  -15.9575 C   0  0  1  0  0  0  0  0  0  0  0  0
   -5.0444  -30.0942  -15.9642 C   0  0  0  0  0  0  0  0  0  0  0  0
   -7.7962  -33.2122  -14.7557 O   0  0  0  0  0  0  0  0  0  0  0  0
   -7.5506  -31.5473  -12.1937 O   0  0  0  0  0  0  0  0  0  0  0  0
   -7.7934  -29.1943  -13.7690 O   0  0  0  0  0  0  0  0  0  0  0  0
   -8.4250  -31.3089  -16.4657 O   0  0  0  0  0  0  0  0  0  0  0  0
   -5.7514  -32.2549  -15.1820 O   0  0  0  0  0  0  0  0  0  0  0  0
   -4.1661  -30.3601  -17.0352 O   0  0  0  0  0  0  0  0  0  0  0  0
   -8.2128  -35.5067  -14.1727 C   0  0  0  0  0  0  0  0  0  0  0  0
   -7.6231  -34.5134  -15.1501 C   0  0  1  0  0  0  0  0  0  0  0  0
   -7.9480  -34.8063  -16.5813 C   0  0  2  0  0  0  0  0  0  0  0  0
   -7.1663  -36.1006  -16.8036 C   0  0  1  0  0  0  0  0  0  0  0  0
   -6.0660  -35.9692  -15.8058 C   0  0  1  0  0  0  0  0  0  0  0  0
   -4.7511  -35.9062  -16.5668 C   0  0  0  0  0  0  0  0  0  0  0  0
   -9.1332  -34.8568  -13.3189 O   0  0  0  0  0  0  0  0  0  0  0  0
   -6.2255  -34.7485  -15.1611 O   0  0  0  0  0  0  0  0  0  0  0  0
   -7.2779  -33.8425  -17.3455 O   0  0  0  0  0  0  0  0  0  0  0  0
   -7.9515  -37.2314  -16.6678 O   0  0  0  0  0  0  0  0  0  0  0  0
   -3.6547  -35.8725  -15.7261 O   0  0  0  0  0  0  0  0  0  0  0  0
  1  2  1  0
  1  7  1  6
  1 11  1  0
  2  3  1  0
  2  8  1  1
  3  4  1  0
  3  9  1  1
  5  4  1  0
  4 10  1  6
  5  6  1  1
 11  5  1  0
  6 12  1  0
 14  7  1  0
 14 13  1  1
 13 19  1  0
 14 15  1  0
 20 14  1  0
 16 15  1  0
 15 21  1  6
 17 16  1  0
 16 22  1  1
 17 18  1  6
 17 20  1  0
 23 18  1  0
M  END
$$$$
