
     RDKit          3D

 23 24  0  0  0  0  0  0  0  0999 V2000
   -6.4270  -32.4662  -14.3636 C   0  0  1  0  0  0  0  0  0  0  0  0
   -6.6202  -31.4405  -13.2917 C   0  0  1  0  0  0  0  0  0  0  0  0
   -7.7655  -30.5525  -13.7324 C   0  0  2  0  0  0  0  0  0  0  0  0
   -7.6820  -30.3575  -15.2066 C   0  0  1  0  0  0  0  0  0  0  0  0
   -6.3955  -30.6937  -15.8577 C   0  0  1  0  0  0  0  0  0  0  0  0
   -5.4387  -29.4976  -15.8639 C   0  0  0  0  0  0  0  0  0  0  0  0
   -7.5765  -33.1050  -14.7816 O   0  0  0  0  0  0  0  0  0  0  0  0
   -6.8835  -31.9248  -12.0389 O   0  0  0  0  0  0  0  0  0  0  0  0
   -7.6721  -29.3705  -13.0037 O   0  0  0  0  0  0  0  0  0  0  0  0
   -8.7340  -31.0126  -15.8878 O   0  0  0  0  0  0  0  0  0  0  0  0
   -5.7692  -31.8369  -15.4180 O   0  0  0  0  0  0  0  0  0  0  0  0
   -4.6716  -29.5607  -17.0458 O   0  0  0  0  0  0  0  0  0  0  0  0
   -8.0501  -35.4599  -14.6884 C   0  0  0  0  0  0  0  0  0  0  0  0
   -7.3964  -34.3060  -15.4171 C   0  0  1  0  0  0  0  0  0  0  0  0
   -7.6452  -34.3030  -16.8928 C   0  0  2  0  0  0  0  0  0  0  0  0
   -6.8669  -35.5445  -17.3270 C   0  0  1  0  0  0  0  0  0  0  0  0
   -5.8218  -35.6370  -16.2673 C   0  0  1  0  0  0  0  0  0  0  0  0
   -4.4664  -35.4536  -16.9315 C   0  0  0  0  0  0  0  0  0  0  0  0
   -8.5070  -35.0341  -13.4201 O   0  0  0  0  0  0  0  0  0  0  0  0
   -6.0030  -34.5648  -15.4022 O   0  0  0  0  0  0  0  0  0  0  0  0
   -6.9233  -33.2219  -17.4146 O   0  0  0  0  0  0  0  0  0  0  0  0
   -7.6709  -36.6624  -17.4593 O   0  0  0  0  0  0  0  0  0  0  0  0
   -3.4204  -35.5462  -16.0330 O   0  0  0  0  0  0  0  0  0  0  0  0
  1  2  1  0
  1  7  1  6
  1 11  1  0
  2  3  1  0
  2  8  1  1
  3  4  1  0
  3  9  1  1
  5  4  1  0
  4 10  1  6
  5  6  1  1
 11  5  1  0
  6 12  1  0
 14  7  1  0
 14 13  1  1
 13 19  1  0
 14 15  1  0
 20 14  1  0
 16 15  1  0
 15 21  1  6
 17 16  1  0
 16 22  1  1
 17 18  1  6
 17 20  1  0
 23 18  1  0
M  END
$$$$
