
     RDKit          3D

 23 24  0  0  0  0  0  0  0  0999 V2000
   -7.4479  -32.8869  -14.6565 C   0  0  1  0  0  0  0  0  0  0  0  0
   -8.1738  -31.7151  -14.0748 C   0  0  1  0  0  0  0  0  0  0  0  0
   -7.3173  -30.4929  -14.3339 C   0  0  2  0  0  0  0  0  0  0  0  0
   -5.8843  -30.8705  -14.1853 C   0  0  1  0  0  0  0  0  0  0  0  0
   -5.5930  -32.1408  -13.4828 C   0  0  1  0  0  0  0  0  0  0  0  0
   -5.4699  -31.9319  -11.9703 C   0  0  0  0  0  0  0  0  0  0  0  0
   -6.9927  -32.7158  -15.9479 O   0  0  0  0  0  0  0  0  0  0  0  0
   -9.4346  -31.4908  -14.5579 O   0  0  0  0  0  0  0  0  0  0  0  0
   -7.7325  -29.5051  -13.4457 O   0  0  0  0  0  0  0  0  0  0  0  0
   -5.2016  -30.8560  -15.4237 O   0  0  0  0  0  0  0  0  0  0  0  0
   -6.4140  -33.2043  -13.7786 O   0  0  0  0  0  0  0  0  0  0  0  0
   -4.1334  -31.5812  -11.6873 O   0  0  0  0  0  0  0  0  0  0  0  0
   -7.7607  -34.4563  -17.4173 C   0  0  0  0  0  0  0  0  0  0  0  0
   -6.6285  -33.8590  -16.6105 C   0  0  1  0  0  0  0  0  0  0  0  0
   -5.3275  -33.7954  -17.3476 C   0  0  2  0  0  0  0  0  0  0  0  0
   -4.9880  -35.2797  -17.4780 C   0  0  1  0  0  0  0  0  0  0  0  0
   -5.6943  -35.8602  -16.2999 C   0  0  1  0  0  0  0  0  0  0  0  0
   -4.6452  -36.4533  -15.3728 C   0  0  0  0  0  0  0  0  0  0  0  0
   -8.1465  -33.5638  -18.4434 O   0  0  0  0  0  0  0  0  0  0  0  0
   -6.3021  -34.8145  -15.6158 O   0  0  0  0  0  0  0  0  0  0  0  0
   -4.3849  -33.2859  -16.4453 O   0  0  0  0  0  0  0  0  0  0  0  0
   -5.3548  -35.8081  -18.7028 O   0  0  0  0  0  0  0  0  0  0  0  0
   -5.2042  -37.0999  -14.2867 O   0  0  0  0  0  0  0  0  0  0  0  0
  1  2  1  0
  1  7  1  6
  1 11  1  0
  2  3  1  0
  2  8  1  6
  3  4  1  0
  3  9  1  1
  5  4  1  0
  4 10  1  6
  5  6  1  1
 11  5  1  0
  6 12  1  0
 14  7  1  0
 14 13  1  6
 13 19  1  0
 14 15  1  0
 20 14  1  0
 16 15  1  0
 15 21  1  1
 17 16  1  0
 16 22  1  6
 17 18  1  1
 17 20  1  0
 23 18  1  0
M  END
$$$$
