
     RDKit          3D

 23 24  0  0  0  0  0  0  0  0999 V2000
   -6.2724  -33.8964  -15.2091 C   0  0  1  0  0  0  0  0  0  0  0  0
   -4.9990  -34.6073  -14.7297 C   0  0  1  0  0  0  0  0  0  0  0  0
   -4.8255  -35.9172  -15.4809 C   0  0  2  0  0  0  0  0  0  0  0  0
   -6.1770  -36.6345  -15.3859 C   0  0  1  0  0  0  0  0  0  0  0  0
   -7.1527  -35.8081  -16.1791 C   0  0  1  0  0  0  0  0  0  0  0  0
   -8.5107  -35.9190  -15.5153 C   0  0  0  0  0  0  0  0  0  0  0  0
   -5.9257  -32.6159  -15.5182 O   0  0  0  0  0  0  0  0  0  0  0  0
   -3.8734  -33.8170  -14.9491 O   0  0  0  0  0  0  0  0  0  0  0  0
   -3.8947  -36.7114  -14.8557 O   0  0  0  0  0  0  0  0  0  0  0  0
   -5.9895  -37.9118  -15.9484 O   0  0  0  0  0  0  0  0  0  0  0  0
   -6.7608  -34.5067  -16.3669 O   0  0  0  0  0  0  0  0  0  0  0  0
   -9.5294  -35.9713  -16.4574 O   0  0  0  0  0  0  0  0  0  0  0  0
   -7.2443  -30.8265  -16.4062 C   0  0  0  0  0  0  0  0  0  0  0  0
   -6.8571  -31.6413  -15.1975 C   0  0  1  0  0  0  0  0  0  0  0  0
   -8.0371  -32.3531  -14.5836 C   0  0  2  0  0  0  0  0  0  0  0  0
   -8.0498  -31.8204  -13.1597 C   0  0  1  0  0  0  0  0  0  0  0  0
   -7.3266  -30.4858  -13.3839 C   0  0  1  0  0  0  0  0  0  0  0  0
   -6.8699  -29.8990  -12.0735 C   0  0  0  0  0  0  0  0  0  0  0  0
   -6.2809  -29.9447  -16.8091 O   0  0  0  0  0  0  0  0  0  0  0  0
   -6.2909  -30.8553  -14.2022 O   0  0  0  0  0  0  0  0  0  0  0  0
   -7.8990  -33.7407  -14.6148 O   0  0  0  0  0  0  0  0  0  0  0  0
   -9.3303  -31.5425  -12.7122 O   0  0  0  0  0  0  0  0  0  0  0  0
   -5.7234  -30.5817  -11.6636 O   0  0  0  0  0  0  0  0  0  0  0  0
  1  2  1  0
  1  7  1  6
  1 11  1  0
  2  3  1  0
  2  8  1  6
  3  4  1  0
  3  9  1  1
  5  4  1  0
  4 10  1  6
  5  6  1  0
  5 11  1  1
  6 12  1  6
 14  7  1  6
 14 13  1  0
 13 19  1  6
 14 15  1  0
 20 14  1  0
 16 15  1  0
 15 21  1  1
 17 16  1  0
 16 22  1  6
 18 17  1  0
 17 20  1  6
 18 23  1  6
M  END
$$$$
