
     RDKit          3D

 23 24  0  0  0  0  0  0  0  0999 V2000
   -6.8942  -33.7548  -15.3454 C   0  0  1  0  0  0  0  0  0  0  0  0
   -7.7894  -34.3999  -16.4128 C   0  0  1  0  0  0  0  0  0  0  0  0
   -7.6686  -35.9132  -16.3415 C   0  0  2  0  0  0  0  0  0  0  0  0
   -6.1649  -36.2115  -16.3304 C   0  0  1  0  0  0  0  0  0  0  0  0
   -5.6355  -35.6745  -15.0283 C   0  0  1  0  0  0  0  0  0  0  0  0
   -4.2209  -35.1835  -15.2631 C   0  0  0  0  0  0  0  0  0  0  0  0
   -7.6656  -32.8688  -14.6560 O   0  0  0  0  0  0  0  0  0  0  0  0
   -9.1242  -34.0513  -16.2219 O   0  0  0  0  0  0  0  0  0  0  0  0
   -8.1933  -36.4921  -17.4718 O   0  0  0  0  0  0  0  0  0  0  0  0
   -6.0367  -37.6113  -16.4137 O   0  0  0  0  0  0  0  0  0  0  0  0
   -6.4359  -34.7228  -14.4485 O   0  0  0  0  0  0  0  0  0  0  0  0
   -3.4311  -35.3639  -14.1355 O   0  0  0  0  0  0  0  0  0  0  0  0
   -5.8681  -32.5305  -13.1119 C   0  0  0  0  0  0  0  0  0  0  0  0
   -6.9820  -31.9137  -13.9205 C   0  0  1  0  0  0  0  0  0  0  0  0
   -6.4765  -30.8875  -14.9041 C   0  0  2  0  0  0  0  0  0  0  0  0
   -7.2273  -29.6300  -14.4963 C   0  0  1  0  0  0  0  0  0  0  0  0
   -7.5145  -29.9732  -13.0286 C   0  0  1  0  0  0  0  0  0  0  0  0
   -8.5705  -29.0593  -12.4632 C   0  0  0  0  0  0  0  0  0  0  0  0
   -4.6413  -31.9772  -13.3504 O   0  0  0  0  0  0  0  0  0  0  0  0
   -7.9186  -31.2802  -13.1140 O   0  0  0  0  0  0  0  0  0  0  0  0
   -6.7407  -31.2407  -16.2273 O   0  0  0  0  0  0  0  0  0  0  0  0
   -6.4223  -28.5038  -14.5220 O   0  0  0  0  0  0  0  0  0  0  0  0
   -9.8199  -29.5243  -12.8773 O   0  0  0  0  0  0  0  0  0  0  0  0
  1  2  1  0
  1  7  1  1
  1 11  1  0
  2  3  1  0
  2  8  1  1
  3  4  1  0
  3  9  1  6
  5  4  1  0
  4 10  1  1
  5  6  1  0
  5 11  1  6
  6 12  1  6
 14  7  1  6
 14 13  1  0
 13 19  1  6
 14 15  1  0
 20 14  1  0
 16 15  1  0
 15 21  1  6
 17 16  1  0
 16 22  1  1
 18 17  1  0
 17 20  1  6
 18 23  1  6
M  END
$$$$
