
     RDKit          3D

 23 24  0  0  0  0  0  0  0  0999 V2000
   -6.9930  -32.4563  -13.8557 C   0  0  1  0  0  0  0  0  0  0  0  0
   -8.1689  -31.6632  -13.2684 C   0  0  1  0  0  0  0  0  0  0  0  0
   -8.0420  -30.1966  -13.6461 C   0  0  2  0  0  0  0  0  0  0  0  0
   -6.6047  -29.7976  -13.2918 C   0  0  1  0  0  0  0  0  0  0  0  0
   -5.7090  -30.5633  -14.2275 C   0  0  1  0  0  0  0  0  0  0  0  0
   -4.4250  -30.8859  -13.4896 C   0  0  0  0  0  0  0  0  0  0  0  0
   -7.5191  -33.5251  -14.5163 O   0  0  0  0  0  0  0  0  0  0  0  0
   -9.3845  -32.1425  -13.7504 O   0  0  0  0  0  0  0  0  0  0  0  0
   -8.8824  -29.4270  -12.8784 O   0  0  0  0  0  0  0  0  0  0  0  0
   -6.5160  -28.4074  -13.4977 O   0  0  0  0  0  0  0  0  0  0  0  0
   -6.2950  -31.6744  -14.7793 O   0  0  0  0  0  0  0  0  0  0  0  0
   -4.2457  -32.2572  -13.3660 O   0  0  0  0  0  0  0  0  0  0  0  0
   -5.9986  -33.0623  -16.3061 C   0  0  0  0  0  0  0  0  0  0  0  0
   -6.7054  -34.1050  -15.4764 C   0  0  1  0  0  0  0  0  0  0  0  0
   -5.7416  -35.0049  -14.7434 C   0  0  2  0  0  0  0  0  0  0  0  0
   -6.1152  -36.3873  -15.2538 C   0  0  1  0  0  0  0  0  0  0  0  0
   -6.7426  -35.9980  -16.5988 C   0  0  1  0  0  0  0  0  0  0  0  0
   -7.5365  -37.1442  -17.1697 C   0  0  0  0  0  0  0  0  0  0  0  0
   -6.5697  -32.8504  -17.5296 O   0  0  0  0  0  0  0  0  0  0  0  0
   -7.5176  -34.9218  -16.2525 O   0  0  0  0  0  0  0  0  0  0  0  0
   -5.8734  -34.9126  -13.3580 O   0  0  0  0  0  0  0  0  0  0  0  0
   -5.0040  -37.1721  -15.5118 O   0  0  0  0  0  0  0  0  0  0  0  0
   -8.8856  -36.9286  -16.8831 O   0  0  0  0  0  0  0  0  0  0  0  0
  1  2  1  0
  1  7  1  6
  1 11  1  0
  2  3  1  0
  2  8  1  6
  3  4  1  0
  3  9  1  1
  5  4  1  0
  4 10  1  6
  5  6  1  0
  5 11  1  1
  6 12  1  6
 14  7  1  1
 14 13  1  0
 13 19  1  6
 14 15  1  0
 20 14  1  0
 16 15  1  0
 15 21  1  1
 17 16  1  0
 16 22  1  6
 18 17  1  0
 17 20  1  1
 18 23  1  6
M  END
$$$$
