
     RDKit          3D

 23 24  0  0  0  0  0  0  0  0999 V2000
   -6.6662  -33.0733  -14.7567 C   0  0  1  0  0  0  0  0  0  0  0  0
   -7.0248  -32.4837  -13.3853 C   0  0  1  0  0  0  0  0  0  0  0  0
   -7.9162  -31.2658  -13.5643 C   0  0  2  0  0  0  0  0  0  0  0  0
   -7.2177  -30.3878  -14.6091 C   0  0  1  0  0  0  0  0  0  0  0  0
   -7.2648  -31.1514  -15.9048 C   0  0  1  0  0  0  0  0  0  0  0  0
   -6.0066  -30.8289  -16.6860 C   0  0  0  0  0  0  0  0  0  0  0  0
   -6.9435  -34.4059  -14.7062 O   0  0  0  0  0  0  0  0  0  0  0  0
   -7.6995  -33.4168  -12.6018 O   0  0  0  0  0  0  0  0  0  0  0  0
   -7.9825  -30.5419  -12.3984 O   0  0  0  0  0  0  0  0  0  0  0  0
   -7.9537  -29.1892  -14.6771 O   0  0  0  0  0  0  0  0  0  0  0  0
   -7.4611  -32.5007  -15.7525 O   0  0  0  0  0  0  0  0  0  0  0  0
   -6.1075  -29.5965  -17.3177 O   0  0  0  0  0  0  0  0  0  0  0  0
   -5.6262  -34.3382  -16.7036 C   0  0  0  0  0  0  0  0  0  0  0  0
   -6.3636  -35.1838  -15.6955 C   0  0  1  0  0  0  0  0  0  0  0  0
   -5.4564  -36.1676  -14.9990 C   0  0  2  0  0  0  0  0  0  0  0  0
   -6.0996  -37.5070  -15.3213 C   0  0  1  0  0  0  0  0  0  0  0  0
   -6.8368  -37.1280  -16.6125 C   0  0  1  0  0  0  0  0  0  0  0  0
   -7.8641  -38.1716  -16.9670 C   0  0  0  0  0  0  0  0  0  0  0  0
   -5.3184  -34.9997  -17.8593 O   0  0  0  0  0  0  0  0  0  0  0  0
   -7.3868  -35.9165  -16.2832 O   0  0  0  0  0  0  0  0  0  0  0  0
   -5.3847  -35.9466  -13.6238 O   0  0  0  0  0  0  0  0  0  0  0  0
   -5.1646  -38.4794  -15.6328 O   0  0  0  0  0  0  0  0  0  0  0  0
   -9.0775  -37.8093  -16.3795 O   0  0  0  0  0  0  0  0  0  0  0  0
  1  2  1  0
  1  7  1  1
  1 11  1  0
  2  3  1  0
  2  8  1  1
  3  4  1  0
  3  9  1  1
  5  4  1  0
  4 10  1  6
  5  6  1  0
  5 11  1  1
  6 12  1  6
 14  7  1  1
 14 13  1  0
 13 19  1  6
 14 15  1  0
 20 14  1  0
 16 15  1  0
 15 21  1  1
 17 16  1  0
 16 22  1  6
 18 17  1  0
 17 20  1  1
 18 23  1  6
M  END
$$$$
