
     RDKit          3D

 23 24  0  0  0  0  0  0  0  0999 V2000
   -6.0405  -33.2804  -16.0381 C   0  0  1  0  0  0  0  0  0  0  0  0
   -5.9339  -33.8384  -17.4221 C   0  0  1  0  0  0  0  0  0  0  0  0
   -7.1639  -34.6930  -17.6490 C   0  0  2  0  0  0  0  0  0  0  0  0
   -7.4983  -35.3993  -16.3812 C   0  0  1  0  0  0  0  0  0  0  0  0
   -6.4430  -35.4556  -15.3442 C   0  0  1  0  0  0  0  0  0  0  0  0
   -5.5358  -36.6757  -15.5304 C   0  0  0  0  0  0  0  0  0  0  0  0
   -7.2559  -32.7061  -15.7266 O   0  0  0  0  0  0  0  0  0  0  0  0
   -5.8318  -32.9207  -18.4324 O   0  0  0  0  0  0  0  0  0  0  0  0
   -6.8796  -35.5480  -18.7097 O   0  0  0  0  0  0  0  0  0  0  0  0
   -8.6937  -34.9126  -15.8032 O   0  0  0  0  0  0  0  0  0  0  0  0
   -5.7094  -34.3070  -15.1566 O   0  0  0  0  0  0  0  0  0  0  0  0
   -4.8441  -36.8918  -14.3204 O   0  0  0  0  0  0  0  0  0  0  0  0
   -8.2863  -30.6540  -15.0154 C   0  0  0  0  0  0  0  0  0  0  0  0
   -7.2228  -31.7065  -14.7894 C   0  0  1  0  0  0  0  0  0  0  0  0
   -7.1075  -32.1548  -13.3662 C   0  0  2  0  0  0  0  0  0  0  0  0
   -6.5682  -30.8897  -12.6998 C   0  0  1  0  0  0  0  0  0  0  0  0
   -5.8565  -30.2273  -13.8306 C   0  0  1  0  0  0  0  0  0  0  0  0
   -4.3791  -30.1614  -13.4773 C   0  0  0  0  0  0  0  0  0  0  0  0
   -8.6680  -30.6369  -16.3765 O   0  0  0  0  0  0  0  0  0  0  0  0
   -5.9757  -31.0508  -14.9435 O   0  0  0  0  0  0  0  0  0  0  0  0
   -6.0461  -33.0679  -13.3228 O   0  0  0  0  0  0  0  0  0  0  0  0
   -7.5611  -30.1318  -12.1052 O   0  0  0  0  0  0  0  0  0  0  0  0
   -3.5680  -30.1479  -14.5963 O   0  0  0  0  0  0  0  0  0  0  0  0
  1  2  1  0
  1  7  1  1
  1 11  1  0
  2  3  1  0
  2  8  1  6
  3  4  1  0
  3  9  1  6
  5  4  1  0
  4 10  1  1
  5  6  1  6
 11  5  1  0
  6 12  1  0
 14  7  1  0
 14 13  1  1
 13 19  1  0
 14 15  1  0
 20 14  1  0
 16 15  1  0
 15 21  1  6
 17 16  1  0
 16 22  1  6
 17 18  1  1
 17 20  1  0
 23 18  1  0
M  END
$$$$
