
     RDKit          3D

 23 24  0  0  0  0  0  0  0  0999 V2000
   -6.9392  -32.0544  -14.6950 C   0  0  1  0  0  0  0  0  0  0  0  0
   -7.9668  -30.9627  -15.0249 C   0  0  1  0  0  0  0  0  0  0  0  0
   -7.7707  -29.7729  -14.0997 C   0  0  2  0  0  0  0  0  0  0  0  0
   -7.7078  -30.3530  -12.6820 C   0  0  1  0  0  0  0  0  0  0  0  0
   -6.4442  -31.1669  -12.6123 C   0  0  1  0  0  0  0  0  0  0  0  0
   -6.6922  -32.3410  -11.6865 C   0  0  0  0  0  0  0  0  0  0  0  0
   -6.3382  -32.4074  -15.8653 O   0  0  0  0  0  0  0  0  0  0  0  0
   -7.8294  -30.5291  -16.3413 O   0  0  0  0  0  0  0  0  0  0  0  0
   -8.8597  -28.9367  -14.1529 O   0  0  0  0  0  0  0  0  0  0  0  0
   -7.6748  -29.2530  -11.8036 O   0  0  0  0  0  0  0  0  0  0  0  0
   -5.9584  -31.5523  -13.8363 O   0  0  0  0  0  0  0  0  0  0  0  0
   -5.9473  -32.2291  -10.5200 O   0  0  0  0  0  0  0  0  0  0  0  0
   -5.2682  -34.3667  -15.0018 C   0  0  0  0  0  0  0  0  0  0  0  0
   -6.1524  -33.7659  -16.0658 C   0  0  1  0  0  0  0  0  0  0  0  0
   -7.5244  -34.3929  -16.0928 C   0  0  2  0  0  0  0  0  0  0  0  0
   -7.6253  -34.9240  -17.5137 C   0  0  1  0  0  0  0  0  0  0  0  0
   -6.1322  -35.0818  -17.8301 C   0  0  1  0  0  0  0  0  0  0  0  0
   -5.9150  -35.2507  -19.3114 C   0  0  0  0  0  0  0  0  0  0  0  0
   -3.9331  -34.1686  -15.2170 O   0  0  0  0  0  0  0  0  0  0  0  0
   -5.6098  -33.9150  -17.3357 O   0  0  0  0  0  0  0  0  0  0  0  0
   -8.5363  -33.4753  -15.8112 O   0  0  0  0  0  0  0  0  0  0  0  0
   -8.2083  -36.1787  -17.5673 O   0  0  0  0  0  0  0  0  0  0  0  0
   -6.0051  -33.9945  -19.9135 O   0  0  0  0  0  0  0  0  0  0  0  0
  1  2  1  0
  1  7  1  6
  1 11  1  0
  2  3  1  0
  2  8  1  6
  3  4  1  0
  3  9  1  1
  5  4  1  0
  4 10  1  1
  5  6  1  0
  5 11  1  6
  6 12  1  6
 14  7  1  1
 14 13  1  0
 13 19  1  6
 14 15  1  0
 20 14  1  0
 16 15  1  0
 15 21  1  6
 17 16  1  0
 16 22  1  1
 18 17  1  0
 17 20  1  6
 18 23  1  6
M  END
$$$$
