
     RDKit          3D

 23 24  0  0  0  0  0  0  0  0999 V2000
   -6.8014  -33.5566  -14.9444 C   0  0  1  0  0  0  0  0  0  0  0  0
   -8.0651  -34.0012  -14.1947 C   0  0  1  0  0  0  0  0  0  0  0  0
   -7.7441  -35.1874  -13.3004 C   0  0  2  0  0  0  0  0  0  0  0  0
   -6.9963  -36.1888  -14.1884 C   0  0  1  0  0  0  0  0  0  0  0  0
   -5.6824  -35.5452  -14.5400 C   0  0  1  0  0  0  0  0  0  0  0  0
   -5.2970  -35.9960  -15.9348 C   0  0  0  0  0  0  0  0  0  0  0  0
   -6.6745  -32.2135  -14.7569 O   0  0  0  0  0  0  0  0  0  0  0  0
   -8.5644  -32.9701  -13.4027 O   0  0  0  0  0  0  0  0  0  0  0  0
   -8.8998  -35.7981  -12.8768 O   0  0  0  0  0  0  0  0  0  0  0  0
   -6.8224  -37.3529  -13.4154 O   0  0  0  0  0  0  0  0  0  0  0  0
   -5.6738  -34.1799  -14.4045 O   0  0  0  0  0  0  0  0  0  0  0  0
   -4.0082  -35.5922  -16.2569 O   0  0  0  0  0  0  0  0  0  0  0  0
   -7.2052  -30.1809  -15.9044 C   0  0  0  0  0  0  0  0  0  0  0  0
   -6.4133  -31.4646  -15.8933 C   0  0  1  0  0  0  0  0  0  0  0  0
   -4.9248  -31.2206  -15.9204 C   0  0  2  0  0  0  0  0  0  0  0  0
   -4.4843  -31.9585  -17.1745 C   0  0  1  0  0  0  0  0  0  0  0  0
   -5.8054  -31.9401  -17.9546 C   0  0  1  0  0  0  0  0  0  0  0  0
   -5.7669  -32.9254  -19.0938 C   0  0  0  0  0  0  0  0  0  0  0  0
   -6.9609  -29.3911  -16.9928 O   0  0  0  0  0  0  0  0  0  0  0  0
   -6.7156  -32.2695  -16.9841 O   0  0  0  0  0  0  0  0  0  0  0  0
   -4.2830  -31.7080  -14.7820 O   0  0  0  0  0  0  0  0  0  0  0  0
   -3.5475  -31.2458  -17.9038 O   0  0  0  0  0  0  0  0  0  0  0  0
   -5.5829  -34.2029  -18.5621 O   0  0  0  0  0  0  0  0  0  0  0  0
  1  2  1  0
  1  7  1  1
  1 11  1  0
  2  3  1  0
  2  8  1  1
  3  4  1  0
  3  9  1  6
  5  4  1  0
  4 10  1  1
  5  6  1  0
  5 11  1  6
  6 12  1  6
 14  7  1  1
 14 13  1  0
 13 19  1  6
 14 15  1  0
 20 14  1  0
 16 15  1  0
 15 21  1  1
 17 16  1  0
 16 22  1  6
 18 17  1  0
 17 20  1  1
 18 23  1  6
M  END
$$$$
