
     RDKit          3D

 23 24  0  0  0  0  0  0  0  0999 V2000
   -5.6905  -32.7383  -14.6785 C   0  0  1  0  0  0  0  0  0  0  0  0
   -5.9580  -31.2731  -14.5368 C   0  0  1  0  0  0  0  0  0  0  0  0
   -7.4215  -31.0585  -14.8636 C   0  0  2  0  0  0  0  0  0  0  0  0
   -7.8048  -31.9741  -15.9739 C   0  0  1  0  0  0  0  0  0  0  0  0
   -6.7037  -32.5786  -16.7576 C   0  0  1  0  0  0  0  0  0  0  0  0
   -6.2896  -31.6831  -17.9293 C   0  0  0  0  0  0  0  0  0  0  0  0
   -6.5920  -33.5659  -14.0411 O   0  0  0  0  0  0  0  0  0  0  0  0
   -5.6872  -30.7300  -13.3100 O   0  0  0  0  0  0  0  0  0  0  0  0
   -7.5805  -29.7098  -15.1680 O   0  0  0  0  0  0  0  0  0  0  0  0
   -8.6823  -32.9946  -15.5398 O   0  0  0  0  0  0  0  0  0  0  0  0
   -5.6102  -33.0093  -16.0425 O   0  0  0  0  0  0  0  0  0  0  0  0
   -5.5270  -32.4625  -18.8238 O   0  0  0  0  0  0  0  0  0  0  0  0
   -5.0603  -35.2265  -13.2197 C   0  0  0  0  0  0  0  0  0  0  0  0
   -6.2854  -34.9018  -14.0464 C   0  0  1  0  0  0  0  0  0  0  0  0
   -7.4348  -35.8324  -13.8170 C   0  0  2  0  0  0  0  0  0  0  0  0
   -6.8862  -37.1316  -14.4057 C   0  0  1  0  0  0  0  0  0  0  0  0
   -5.9115  -36.6238  -15.4135 C   0  0  1  0  0  0  0  0  0  0  0  0
   -6.3910  -37.0621  -16.7882 C   0  0  0  0  0  0  0  0  0  0  0  0
   -4.1403  -34.1548  -13.2771 O   0  0  0  0  0  0  0  0  0  0  0  0
   -5.9612  -35.2354  -15.3853 O   0  0  0  0  0  0  0  0  0  0  0  0
   -8.4487  -35.4351  -14.6981 O   0  0  0  0  0  0  0  0  0  0  0  0
   -6.3542  -37.9730  -13.4450 O   0  0  0  0  0  0  0  0  0  0  0  0
   -5.4599  -36.8103  -17.7781 O   0  0  0  0  0  0  0  0  0  0  0  0
  1  2  1  0
  1  7  1  6
  1 11  1  0
  2  3  1  0
  2  8  1  1
  3  4  1  0
  3  9  1  6
  5  4  1  0
  4 10  1  1
  5  6  1  6
 11  5  1  0
  6 12  1  0
 14  7  1  0
 14 13  1  1
 13 19  1  0
 14 15  1  0
 20 14  1  0
 16 15  1  0
 15 21  1  6
 17 16  1  0
 16 22  1  1
 17 18  1  6
 17 20  1  0
 23 18  1  0
M  END
$$$$
