
     RDKit          3D

 23 24  0  0  0  0  0  0  0  0999 V2000
   -6.6299  -33.1677  -14.6119 C   0  0  1  0  0  0  0  0  0  0  0  0
   -6.7888  -32.4250  -13.2777 C   0  0  1  0  0  0  0  0  0  0  0  0
   -7.4549  -31.0792  -13.5125 C   0  0  2  0  0  0  0  0  0  0  0  0
   -6.6766  -30.4230  -14.6587 C   0  0  1  0  0  0  0  0  0  0  0  0
   -6.9425  -31.2557  -15.8835 C   0  0  1  0  0  0  0  0  0  0  0  0
   -5.6986  -31.2286  -16.7490 C   0  0  0  0  0  0  0  0  0  0  0  0
   -7.1398  -34.4189  -14.4386 O   0  0  0  0  0  0  0  0  0  0  0  0
   -7.5703  -33.1584  -12.3882 O   0  0  0  0  0  0  0  0  0  0  0  0
   -7.3157  -30.2737  -12.4081 O   0  0  0  0  0  0  0  0  0  0  0  0
   -7.1866  -29.1169  -14.7889 O   0  0  0  0  0  0  0  0  0  0  0  0
   -7.3695  -32.5309  -15.6114 O   0  0  0  0  0  0  0  0  0  0  0  0
   -5.7186  -30.1528  -17.6266 O   0  0  0  0  0  0  0  0  0  0  0  0
   -8.3118  -35.2277  -16.3626 C   0  0  0  0  0  0  0  0  0  0  0  0
   -7.0533  -35.2656  -15.5321 C   0  0  1  0  0  0  0  0  0  0  0  0
   -5.8360  -34.8408  -16.3156 C   0  0  2  0  0  0  0  0  0  0  0  0
   -4.9249  -36.0531  -16.2080 C   0  0  1  0  0  0  0  0  0  0  0  0
   -5.9795  -37.1392  -15.9580 C   0  0  1  0  0  0  0  0  0  0  0  0
   -5.3353  -38.4019  -15.4475 C   0  0  0  0  0  0  0  0  0  0  0  0
   -8.4443  -36.2896  -17.2129 O   0  0  0  0  0  0  0  0  0  0  0  0
   -6.7972  -36.5378  -15.0370 O   0  0  0  0  0  0  0  0  0  0  0  0
   -5.2365  -33.6958  -15.7913 O   0  0  0  0  0  0  0  0  0  0  0  0
   -4.2888  -36.3422  -17.4033 O   0  0  0  0  0  0  0  0  0  0  0  0
   -6.2495  -39.0568  -14.6205 O   0  0  0  0  0  0  0  0  0  0  0  0
  1  2  1  0
  1  7  1  1
  1 11  1  0
  2  3  1  0
  2  8  1  1
  3  4  1  0
  3  9  1  1
  5  4  1  0
  4 10  1  6
  5  6  1  0
  5 11  1  1
  6 12  1  6
 14  7  1  1
 14 13  1  0
 13 19  1  6
 14 15  1  0
 20 14  1  0
 16 15  1  0
 15 21  1  1
 17 16  1  0
 16 22  1  6
 18 17  1  0
 17 20  1  1
 18 23  1  6
M  END
$$$$
