
     RDKit          3D

 23 24  0  0  0  0  0  0  0  0999 V2000
   -6.5871  -32.5436  -15.3149 C   0  0  1  0  0  0  0  0  0  0  0  0
   -7.2942  -31.2615  -15.7764 C   0  0  1  0  0  0  0  0  0  0  0  0
   -7.3249  -30.2518  -14.6408 C   0  0  2  0  0  0  0  0  0  0  0  0
   -7.8540  -31.0133  -13.4200 C   0  0  1  0  0  0  0  0  0  0  0  0
   -6.8027  -32.0298  -13.0655 C   0  0  1  0  0  0  0  0  0  0  0  0
   -7.5021  -33.2558  -12.5131 C   0  0  0  0  0  0  0  0  0  0  0  0
   -5.6388  -32.8375  -16.2475 O   0  0  0  0  0  0  0  0  0  0  0  0
   -6.6336  -30.6900  -16.8612 O   0  0  0  0  0  0  0  0  0  0  0  0
   -8.2186  -29.2450  -14.9153 O   0  0  0  0  0  0  0  0  0  0  0  0
   -8.0279  -30.0579  -12.4002 O   0  0  0  0  0  0  0  0  0  0  0  0
   -5.9445  -32.3291  -14.0933 O   0  0  0  0  0  0  0  0  0  0  0  0
   -8.8823  -33.1093  -12.5527 O   0  0  0  0  0  0  0  0  0  0  0  0
   -3.9585  -34.4781  -15.7843 C   0  0  0  0  0  0  0  0  0  0  0  0
   -5.3120  -34.1778  -16.3783 C   0  0  1  0  0  0  0  0  0  0  0  0
   -6.4167  -34.9614  -15.7139 C   0  0  2  0  0  0  0  0  0  0  0  0
   -7.0269  -35.7341  -16.8724 C   0  0  1  0  0  0  0  0  0  0  0  0
   -5.8203  -35.7616  -17.8198 C   0  0  1  0  0  0  0  0  0  0  0  0
   -6.2434  -36.1516  -19.2123 C   0  0  0  0  0  0  0  0  0  0  0  0
   -3.6135  -33.6523  -14.7512 O   0  0  0  0  0  0  0  0  0  0  0  0
   -5.3598  -34.4733  -17.7346 O   0  0  0  0  0  0  0  0  0  0  0  0
   -7.3547  -34.1385  -15.0907 O   0  0  0  0  0  0  0  0  0  0  0  0
   -7.3325  -37.0408  -16.5317 O   0  0  0  0  0  0  0  0  0  0  0  0
   -6.3726  -34.9884  -19.9731 O   0  0  0  0  0  0  0  0  0  0  0  0
  1  2  1  0
  1  7  1  6
  1 11  1  0
  2  3  1  0
  2  8  1  6
  3  4  1  0
  3  9  1  6
  5  4  1  0
  4 10  1  1
  5  6  1  0
  5 11  1  6
  6 12  1  6
 14  7  1  6
 14 13  1  0
 13 19  1  6
 14 15  1  0
 20 14  1  0
 16 15  1  0
 15 21  1  6
 17 16  1  0
 16 22  1  1
 18 17  1  0
 17 20  1  6
 18 23  1  6
M  END
$$$$
