
     RDKit          3D

 23 24  0  0  0  0  0  0  0  0999 V2000
   -7.3576  -33.3108  -15.5321 C   0  0  1  0  0  0  0  0  0  0  0  0
   -7.8163  -34.7347  -15.5143 C   0  0  1  0  0  0  0  0  0  0  0  0
   -6.7933  -35.5177  -14.7174 C   0  0  2  0  0  0  0  0  0  0  0  0
   -5.4375  -34.9776  -15.0146 C   0  0  1  0  0  0  0  0  0  0  0  0
   -5.3009  -34.1299  -16.2207 C   0  0  1  0  0  0  0  0  0  0  0  0
   -5.0022  -34.9687  -17.4671 C   0  0  0  0  0  0  0  0  0  0  0  0
   -7.0037  -32.7907  -14.3039 O   0  0  0  0  0  0  0  0  0  0  0  0
   -9.0607  -34.9573  -14.9896 O   0  0  0  0  0  0  0  0  0  0  0  0
   -6.9495  -36.8589  -15.0546 O   0  0  0  0  0  0  0  0  0  0  0  0
   -4.8820  -34.3008  -13.9041 O   0  0  0  0  0  0  0  0  0  0  0  0
   -6.3144  -33.2287  -16.4516 O   0  0  0  0  0  0  0  0  0  0  0  0
   -4.4359  -34.1173  -18.4386 O   0  0  0  0  0  0  0  0  0  0  0  0
   -7.5332  -30.9300  -12.8771 C   0  0  0  0  0  0  0  0  0  0  0  0
   -7.0104  -31.4234  -14.2086 C   0  0  1  0  0  0  0  0  0  0  0  0
   -5.7609  -30.7352  -14.6612 C   0  0  2  0  0  0  0  0  0  0  0  0
   -6.2815  -29.3241  -14.9323 C   0  0  1  0  0  0  0  0  0  0  0  0
   -7.7149  -29.5825  -15.2521 C   0  0  1  0  0  0  0  0  0  0  0  0
   -7.9556  -29.1573  -16.6920 C   0  0  0  0  0  0  0  0  0  0  0  0
   -8.4322  -31.8743  -12.3307 O   0  0  0  0  0  0  0  0  0  0  0  0
   -7.9194  -30.9556  -15.1904 O   0  0  0  0  0  0  0  0  0  0  0  0
   -5.4557  -31.2577  -15.9245 O   0  0  0  0  0  0  0  0  0  0  0  0
   -6.0614  -28.4591  -13.8754 O   0  0  0  0  0  0  0  0  0  0  0  0
   -9.1567  -29.6274  -17.1884 O   0  0  0  0  0  0  0  0  0  0  0  0
  1  2  1  0
  1  7  1  1
  1 11  1  0
  2  3  1  0
  2  8  1  1
  3  4  1  0
  3  9  1  6
  5  4  1  0
  4 10  1  1
  5  6  1  6
 11  5  1  0
  6 12  1  0
 14  7  1  0
 14 13  1  1
 13 19  1  0
 14 15  1  0
 20 14  1  0
 16 15  1  0
 15 21  1  6
 17 16  1  0
 16 22  1  1
 17 18  1  6
 17 20  1  0
 23 18  1  0
M  END
$$$$
