
     RDKit          3D

 23 24  0  0  0  0  0  0  0  0999 V2000
   -5.5593  -32.8785  -15.6987 C   0  0  1  0  0  0  0  0  0  0  0  0
   -5.4872  -32.8348  -17.2316 C   0  0  1  0  0  0  0  0  0  0  0  0
   -6.3808  -33.9136  -17.8211 C   0  0  2  0  0  0  0  0  0  0  0  0
   -6.0184  -35.2060  -17.0805 C   0  0  1  0  0  0  0  0  0  0  0  0
   -6.4566  -35.0146  -15.6538 C   0  0  1  0  0  0  0  0  0  0  0  0
   -5.4861  -35.7609  -14.7602 C   0  0  0  0  0  0  0  0  0  0  0  0
   -5.8204  -31.6114  -15.2724 O   0  0  0  0  0  0  0  0  0  0  0  0
   -5.9054  -31.5978  -17.7159 O   0  0  0  0  0  0  0  0  0  0  0  0
   -6.0900  -34.1070  -19.1500 O   0  0  0  0  0  0  0  0  0  0  0  0
   -6.7308  -36.2413  -17.7158 O   0  0  0  0  0  0  0  0  0  0  0  0
   -6.6102  -33.7015  -15.2868 O   0  0  0  0  0  0  0  0  0  0  0  0
   -5.9842  -37.0075  -14.4057 O   0  0  0  0  0  0  0  0  0  0  0  0
   -7.1371  -32.8443  -13.6990 C   0  0  0  0  0  0  0  0  0  0  0  0
   -6.7468  -31.4950  -14.2485 C   0  0  1  0  0  0  0  0  0  0  0  0
   -6.1258  -30.6062  -13.1995 C   0  0  2  0  0  0  0  0  0  0  0  0
   -7.0406  -29.3920  -13.2006 C   0  0  1  0  0  0  0  0  0  0  0  0
   -8.3206  -30.0417  -13.7426 C   0  0  1  0  0  0  0  0  0  0  0  0
   -9.3018  -28.9921  -14.1961 C   0  0  0  0  0  0  0  0  0  0  0  0
   -7.9241  -32.7794  -12.5834 O   0  0  0  0  0  0  0  0  0  0  0  0
   -7.8384  -30.8118  -14.7689 O   0  0  0  0  0  0  0  0  0  0  0  0
   -4.8090  -30.2612  -13.5034 O   0  0  0  0  0  0  0  0  0  0  0  0
   -7.3044  -28.9295  -11.9225 O   0  0  0  0  0  0  0  0  0  0  0  0
   -8.9227  -28.5581  -15.4676 O   0  0  0  0  0  0  0  0  0  0  0  0
  1  2  1  0
  1  7  1  6
  1 11  1  0
  2  3  1  0
  2  8  1  6
  3  4  1  0
  3  9  1  6
  5  4  1  0
  4 10  1  6
  5  6  1  0
  5 11  1  1
  6 12  1  6
 14  7  1  6
 14 13  1  0
 13 19  1  6
 14 15  1  0
 20 14  1  0
 16 15  1  0
 15 21  1  6
 17 16  1  0
 16 22  1  1
 18 17  1  0
 17 20  1  6
 18 23  1  6
M  END
$$$$
