
     RDKit          3D

 23 24  0  0  0  0  0  0  0  0999 V2000
   -6.3101  -33.3168  -16.0693 C   0  0  1  0  0  0  0  0  0  0  0  0
   -6.5356  -34.0883  -17.3311 C   0  0  1  0  0  0  0  0  0  0  0  0
   -7.3729  -35.2965  -16.9655 C   0  0  2  0  0  0  0  0  0  0  0  0
   -6.9386  -35.7958  -15.6313 C   0  0  1  0  0  0  0  0  0  0  0  0
   -5.6275  -35.3239  -15.1308 C   0  0  1  0  0  0  0  0  0  0  0  0
   -4.4863  -36.2312  -15.6004 C   0  0  0  0  0  0  0  0  0  0  0  0
   -7.4407  -33.0777  -15.3151 O   0  0  0  0  0  0  0  0  0  0  0  0
   -7.1484  -33.4081  -18.3485 O   0  0  0  0  0  0  0  0  0  0  0  0
   -7.2206  -36.2265  -17.9897 O   0  0  0  0  0  0  0  0  0  0  0  0
   -7.9219  -35.5782  -14.6385 O   0  0  0  0  0  0  0  0  0  0  0  0
   -5.3349  -33.9965  -15.3430 O   0  0  0  0  0  0  0  0  0  0  0  0
   -3.4792  -36.2093  -14.6132 O   0  0  0  0  0  0  0  0  0  0  0  0
   -8.5258  -30.9368  -15.1819 C   0  0  0  0  0  0  0  0  0  0  0  0
   -7.4721  -31.8816  -14.6464 C   0  0  1  0  0  0  0  0  0  0  0  0
   -7.4427  -31.9723  -13.1529 C   0  0  2  0  0  0  0  0  0  0  0  0
   -6.9537  -30.5730  -12.7807 C   0  0  1  0  0  0  0  0  0  0  0  0
   -6.1772  -30.1871  -13.9939 C   0  0  1  0  0  0  0  0  0  0  0  0
   -4.7250  -30.0072  -13.5806 C   0  0  0  0  0  0  0  0  0  0  0  0
   -7.9176  -29.9246  -15.9590 O   0  0  0  0  0  0  0  0  0  0  0  0
   -6.2219  -31.2563  -14.8804 O   0  0  0  0  0  0  0  0  0  0  0  0
   -6.3805  -32.8256  -12.8281 O   0  0  0  0  0  0  0  0  0  0  0  0
   -7.9863  -29.7154  -12.4460 O   0  0  0  0  0  0  0  0  0  0  0  0
   -3.8994  -29.7348  -14.6549 O   0  0  0  0  0  0  0  0  0  0  0  0
  1  2  1  0
  1  7  1  1
  1 11  1  0
  2  3  1  0
  2  8  1  6
  3  4  1  0
  3  9  1  6
  5  4  1  0
  4 10  1  1
  5  6  1  6
 11  5  1  0
  6 12  1  0
 14  7  1  0
 14 13  1  1
 13 19  1  0
 14 15  1  0
 20 14  1  0
 16 15  1  0
 15 21  1  6
 17 16  1  0
 16 22  1  6
 17 18  1  1
 17 20  1  0
 23 18  1  0
M  END
$$$$
