
     RDKit          3D

 23 24  0  0  0  0  0  0  0  0999 V2000
   -6.4898  -32.9294  -13.9904 C   0  0  1  0  0  0  0  0  0  0  0  0
   -7.0122  -31.8717  -13.0703 C   0  0  1  0  0  0  0  0  0  0  0  0
   -7.5790  -30.7699  -13.9417 C   0  0  2  0  0  0  0  0  0  0  0  0
   -6.7145  -30.6165  -15.1447 C   0  0  1  0  0  0  0  0  0  0  0  0
   -5.3651  -31.2229  -15.0848 C   0  0  1  0  0  0  0  0  0  0  0  0
   -4.3385  -30.2534  -14.4913 C   0  0  0  0  0  0  0  0  0  0  0  0
   -7.3558  -33.3194  -14.9915 O   0  0  0  0  0  0  0  0  0  0  0  0
   -7.9672  -32.2733  -12.1758 O   0  0  0  0  0  0  0  0  0  0  0  0
   -7.6559  -29.6238  -13.1559 O   0  0  0  0  0  0  0  0  0  0  0  0
   -7.3664  -31.0463  -16.3237 O   0  0  0  0  0  0  0  0  0  0  0  0
   -5.2796  -32.4657  -14.5013 O   0  0  0  0  0  0  0  0  0  0  0  0
   -3.0922  -30.5151  -15.0976 O   0  0  0  0  0  0  0  0  0  0  0  0
   -6.1609  -35.4047  -14.9462 C   0  0  0  0  0  0  0  0  0  0  0  0
   -6.9569  -34.3940  -15.7429 C   0  0  1  0  0  0  0  0  0  0  0  0
   -8.0102  -35.0036  -16.6139 C   0  0  2  0  0  0  0  0  0  0  0  0
   -7.1537  -35.7410  -17.6426 C   0  0  1  0  0  0  0  0  0  0  0  0
   -5.8985  -34.9360  -17.6296 C   0  0  1  0  0  0  0  0  0  0  0  0
   -5.7241  -34.3215  -19.0095 C   0  0  0  0  0  0  0  0  0  0  0  0
   -6.9116  -35.8401  -13.8302 O   0  0  0  0  0  0  0  0  0  0  0  0
   -6.0788  -33.8889  -16.7341 O   0  0  0  0  0  0  0  0  0  0  0  0
   -8.5989  -33.9482  -17.3222 O   0  0  0  0  0  0  0  0  0  0  0  0
   -6.9950  -37.0828  -17.3455 O   0  0  0  0  0  0  0  0  0  0  0  0
   -4.6574  -33.4446  -19.0668 O   0  0  0  0  0  0  0  0  0  0  0  0
  1  2  1  0
  1  7  1  6
  1 11  1  0
  2  3  1  0
  2  8  1  1
  3  4  1  0
  3  9  1  1
  5  4  1  0
  4 10  1  6
  5  6  1  1
 11  5  1  0
  6 12  1  0
 14  7  1  0
 14 13  1  1
 13 19  1  0
 14 15  1  0
 20 14  1  0
 16 15  1  0
 15 21  1  6
 17 16  1  0
 16 22  1  1
 17 18  1  6
 17 20  1  0
 23 18  1  0
M  END
$$$$
