
     RDKit          3D

 23 24  0  0  0  0  0  0  0  0999 V2000
   -6.4643  -33.9475  -15.2655 C   0  0  1  0  0  0  0  0  0  0  0  0
   -7.7211  -34.3871  -16.0298 C   0  0  1  0  0  0  0  0  0  0  0  0
   -7.7347  -35.9001  -16.1733 C   0  0  2  0  0  0  0  0  0  0  0  0
   -6.3491  -36.2808  -16.7077 C   0  0  1  0  0  0  0  0  0  0  0  0
   -5.3690  -35.9600  -15.6120 C   0  0  1  0  0  0  0  0  0  0  0  0
   -4.0698  -35.5212  -16.2576 C   0  0  0  0  0  0  0  0  0  0  0  0
   -6.8728  -33.1238  -14.2605 O   0  0  0  0  0  0  0  0  0  0  0  0
   -8.8764  -33.9942  -15.3586 O   0  0  0  0  0  0  0  0  0  0  0  0
   -8.6578  -36.2864  -17.1149 O   0  0  0  0  0  0  0  0  0  0  0  0
   -6.3955  -37.6605  -16.9855 O   0  0  0  0  0  0  0  0  0  0  0  0
   -5.8344  -35.0546  -14.6921 O   0  0  0  0  0  0  0  0  0  0  0  0
   -3.0641  -35.3677  -15.3126 O   0  0  0  0  0  0  0  0  0  0  0  0
   -4.9117  -31.7832  -14.5551 C   0  0  0  0  0  0  0  0  0  0  0  0
   -6.4001  -31.8223  -14.3133 C   0  0  1  0  0  0  0  0  0  0  0  0
   -7.1764  -31.1217  -15.4007 C   0  0  2  0  0  0  0  0  0  0  0  0
   -7.9415  -30.0539  -14.6353 C   0  0  1  0  0  0  0  0  0  0  0  0
   -7.0224  -29.9116  -13.4149 C   0  0  1  0  0  0  0  0  0  0  0  0
   -7.7226  -29.1767  -12.3015 C   0  0  0  0  0  0  0  0  0  0  0  0
   -4.1955  -31.2753  -13.5076 O   0  0  0  0  0  0  0  0  0  0  0  0
   -6.7458  -31.2192  -13.1108 O   0  0  0  0  0  0  0  0  0  0  0  0
   -8.0350  -31.9831  -16.0834 O   0  0  0  0  0  0  0  0  0  0  0  0
   -7.9597  -28.8396  -15.3003 O   0  0  0  0  0  0  0  0  0  0  0  0
   -8.5913  -30.0667  -11.6674 O   0  0  0  0  0  0  0  0  0  0  0  0
  1  2  1  0
  1  7  1  1
  1 11  1  0
  2  3  1  0
  2  8  1  1
  3  4  1  0
  3  9  1  6
  5  4  1  0
  4 10  1  1
  5  6  1  0
  5 11  1  1
  6 12  1  6
 14  7  1  1
 14 13  1  0
 13 19  1  6
 14 15  1  0
 20 14  1  0
 16 15  1  0
 15 21  1  1
 17 16  1  0
 16 22  1  6
 18 17  1  0
 17 20  1  1
 18 23  1  6
M  END
$$$$
