
     RDKit          3D

 23 24  0  0  0  0  0  0  0  0999 V2000
   -7.0087  -33.6381  -15.3127 C   0  0  1  0  0  0  0  0  0  0  0  0
   -8.1616  -34.6518  -15.3192 C   0  0  1  0  0  0  0  0  0  0  0  0
   -7.6131  -36.0557  -15.5142 C   0  0  2  0  0  0  0  0  0  0  0  0
   -6.6697  -35.9711  -16.7197 C   0  0  1  0  0  0  0  0  0  0  0  0
   -5.5115  -35.1107  -16.2925 C   0  0  1  0  0  0  0  0  0  0  0  0
   -5.0308  -34.3353  -17.5028 C   0  0  0  0  0  0  0  0  0  0  0  0
   -7.1596  -32.8650  -14.2014 O   0  0  0  0  0  0  0  0  0  0  0  0
   -8.8670  -34.6132  -14.1189 O   0  0  0  0  0  0  0  0  0  0  0  0
   -8.6236  -36.9261  -15.8445 O   0  0  0  0  0  0  0  0  0  0  0  0
   -6.2687  -37.2907  -17.0040 O   0  0  0  0  0  0  0  0  0  0  0  0
   -5.7823  -34.3004  -15.2189 O   0  0  0  0  0  0  0  0  0  0  0  0
   -5.0663  -32.9667  -17.2712 O   0  0  0  0  0  0  0  0  0  0  0  0
   -5.0513  -31.7434  -14.3649 C   0  0  0  0  0  0  0  0  0  0  0  0
   -6.5495  -31.6214  -14.2406 C   0  0  1  0  0  0  0  0  0  0  0  0
   -7.1621  -30.8730  -15.3984 C   0  0  2  0  0  0  0  0  0  0  0  0
   -7.8665  -29.7117  -14.7153 C   0  0  1  0  0  0  0  0  0  0  0  0
   -7.0335  -29.6334  -13.4291 C   0  0  1  0  0  0  0  0  0  0  0  0
   -7.7354  -28.8006  -12.3880 C   0  0  0  0  0  0  0  0  0  0  0  0
   -4.4662  -32.4293  -13.3377 O   0  0  0  0  0  0  0  0  0  0  0  0
   -6.9206  -30.9541  -13.0803 O   0  0  0  0  0  0  0  0  0  0  0  0
   -8.0521  -31.6583  -16.1308 O   0  0  0  0  0  0  0  0  0  0  0  0
   -7.7055  -28.5201  -15.4018 O   0  0  0  0  0  0  0  0  0  0  0  0
   -8.6061  -29.6291  -11.6781 O   0  0  0  0  0  0  0  0  0  0  0  0
  1  2  1  0
  1  7  1  1
  1 11  1  0
  2  3  1  0
  2  8  1  1
  3  4  1  0
  3  9  1  6
  5  4  1  0
  4 10  1  1
  5  6  1  0
  5 11  1  1
  6 12  1  6
 14  7  1  1
 14 13  1  0
 13 19  1  6
 14 15  1  0
 20 14  1  0
 16 15  1  0
 15 21  1  1
 17 16  1  0
 16 22  1  6
 18 17  1  0
 17 20  1  1
 18 23  1  6
M  END
$$$$
