
     RDKit          3D

 23 24  0  0  0  0  0  0  0  0999 V2000
   -6.2422  -32.6263  -14.0722 C   0  0  1  0  0  0  0  0  0  0  0  0
   -6.7370  -31.6383  -13.0636 C   0  0  1  0  0  0  0  0  0  0  0  0
   -7.9216  -30.9285  -13.6860 C   0  0  2  0  0  0  0  0  0  0  0  0
   -7.6520  -30.7258  -15.1367 C   0  0  1  0  0  0  0  0  0  0  0  0
   -6.2489  -30.8709  -15.5865 C   0  0  1  0  0  0  0  0  0  0  0  0
   -5.4849  -29.5474  -15.4818 C   0  0  0  0  0  0  0  0  0  0  0  0
   -7.2132  -33.4274  -14.6374 O   0  0  0  0  0  0  0  0  0  0  0  0
   -7.1083  -32.1537  -11.8513 O   0  0  0  0  0  0  0  0  0  0  0  0
   -8.1083  -29.7443  -12.9790 O   0  0  0  0  0  0  0  0  0  0  0  0
   -8.4866  -31.5292  -15.9478 O   0  0  0  0  0  0  0  0  0  0  0  0
   -5.5349  -31.9091  -15.0344 O   0  0  0  0  0  0  0  0  0  0  0  0
   -4.5103  -29.5262  -16.5012 O   0  0  0  0  0  0  0  0  0  0  0  0
   -5.6657  -35.2625  -14.7645 C   0  0  0  0  0  0  0  0  0  0  0  0
   -6.7590  -34.4522  -15.4261 C   0  0  1  0  0  0  0  0  0  0  0  0
   -7.8163  -35.2838  -16.0822 C   0  0  2  0  0  0  0  0  0  0  0  0
   -7.0292  -35.9105  -17.2324 C   0  0  1  0  0  0  0  0  0  0  0  0
   -5.9601  -34.8962  -17.4605 C   0  0  1  0  0  0  0  0  0  0  0  0
   -6.1421  -34.3337  -18.8614 C   0  0  0  0  0  0  0  0  0  0  0  0
   -6.1134  -35.7492  -13.5150 O   0  0  0  0  0  0  0  0  0  0  0  0
   -6.1729  -33.8521  -16.5685 O   0  0  0  0  0  0  0  0  0  0  0  0
   -8.7021  -34.3881  -16.6949 O   0  0  0  0  0  0  0  0  0  0  0  0
   -6.5777  -37.1854  -16.9414 O   0  0  0  0  0  0  0  0  0  0  0  0
   -5.0941  -33.5178  -19.2438 O   0  0  0  0  0  0  0  0  0  0  0  0
  1  2  1  0
  1  7  1  6
  1 11  1  0
  2  3  1  0
  2  8  1  1
  3  4  1  0
  3  9  1  1
  5  4  1  0
  4 10  1  6
  5  6  1  1
 11  5  1  0
  6 12  1  0
 14  7  1  0
 14 13  1  1
 13 19  1  0
 14 15  1  0
 20 14  1  0
 16 15  1  0
 15 21  1  6
 17 16  1  0
 16 22  1  1
 17 18  1  6
 17 20  1  0
 23 18  1  0
M  END
$$$$
