
     RDKit          3D

 23 24  0  0  0  0  0  0  0  0999 V2000
   -6.5752  -32.1448  -15.3727 C   0  0  1  0  0  0  0  0  0  0  0  0
   -6.6326  -30.6562  -15.7432 C   0  0  1  0  0  0  0  0  0  0  0  0
   -6.9599  -29.8298  -14.5103 C   0  0  2  0  0  0  0  0  0  0  0  0
   -8.1812  -30.5007  -13.8709 C   0  0  1  0  0  0  0  0  0  0  0  0
   -7.7176  -31.8450  -13.3789 C   0  0  1  0  0  0  0  0  0  0  0  0
   -8.8726  -32.8175  -13.5115 C   0  0  0  0  0  0  0  0  0  0  0  0
   -5.3994  -32.6342  -15.8558 O   0  0  0  0  0  0  0  0  0  0  0  0
   -5.4132  -30.2225  -16.2577 O   0  0  0  0  0  0  0  0  0  0  0  0
   -7.3320  -28.5566  -14.8686 O   0  0  0  0  0  0  0  0  0  0  0  0
   -8.5861  -29.6638  -12.8133 O   0  0  0  0  0  0  0  0  0  0  0  0
   -6.5728  -32.2983  -13.9842 O   0  0  0  0  0  0  0  0  0  0  0  0
   -8.6528  -33.9661  -12.7630 O   0  0  0  0  0  0  0  0  0  0  0  0
   -4.1375  -34.6680  -15.8274 C   0  0  0  0  0  0  0  0  0  0  0  0
   -5.4082  -33.9663  -16.2373 C   0  0  1  0  0  0  0  0  0  0  0  0
   -6.6335  -34.5886  -15.6149 C   0  0  2  0  0  0  0  0  0  0  0  0
   -7.4668  -34.9779  -16.8254 C   0  0  1  0  0  0  0  0  0  0  0  0
   -6.3501  -35.1028  -17.8702 C   0  0  1  0  0  0  0  0  0  0  0  0
   -6.9223  -35.1253  -19.2637 C   0  0  0  0  0  0  0  0  0  0  0  0
   -3.9018  -35.8274  -16.5118 O   0  0  0  0  0  0  0  0  0  0  0  0
   -5.5923  -33.9897  -17.6138 O   0  0  0  0  0  0  0  0  0  0  0  0
   -7.3163  -33.7039  -14.7805 O   0  0  0  0  0  0  0  0  0  0  0  0
   -8.0577  -36.2217  -16.6808 O   0  0  0  0  0  0  0  0  0  0  0  0
   -6.0794  -34.3863  -20.0956 O   0  0  0  0  0  0  0  0  0  0  0  0
  1  2  1  0
  1  7  1  1
  1 11  1  0
  2  3  1  0
  2  8  1  1
  3  4  1  0
  3  9  1  6
  5  4  1  0
  4 10  1  1
  5  6  1  0
  5 11  1  6
  6 12  1  6
 14  7  1  1
 14 13  1  0
 13 19  1  6
 14 15  1  0
 20 14  1  0
 16 15  1  0
 15 21  1  1
 17 16  1  0
 16 22  1  1
 18 17  1  0
 17 20  1  6
 18 23  1  6
M  END
$$$$
