
     RDKit          3D

 40 42  0  0  0  0  0  0  0  0999 V2000
   16.6298  -13.4658   23.6393 O   0  0  0  0  0  0  0  0  0  0  0  0
   16.4395  -10.9809   19.3962 O   0  0  0  0  0  0  0  0  0  0  0  0
   21.0416  -12.9768   25.2242 C   0  0  0  0  0  0  0  0  0  0  0  0
   17.5617  -11.7355   21.3852 C   0  0  2  0  0  0  0  0  0  0  0  0
   13.1341   -9.3660   21.3246 C   0  0  0  0  0  0  0  0  0  0  0  0
   11.9465   -6.1480   23.4274 Cl  0  0  0  0  0  0  0  0  0  0  0  0
   11.9798   -7.7255   22.6751 C   0  0  0  0  0  0  0  0  0  0  0  0
   13.0745   -8.1312   21.9292 C   0  0  0  0  0  0  0  0  0  0  0  0
   10.9080   -8.5665   22.8294 C   0  0  0  0  0  0  0  0  0  0  0  0
   10.9666   -9.8037   22.2238 C   0  0  0  0  0  0  0  0  0  0  0  0
   12.0592  -10.2084   21.4791 C   0  0  0  0  0  0  0  0  0  0  0  0
   12.0176  -11.5787   20.8461 C   0  0  0  0  0  0  0  0  0  0  0  0
   12.3577  -12.5491   21.8355 N   0  0  0  0  0  4  0  0  0  0  0  0
   14.2956   -9.7668   20.5533 C   0  0  0  0  0  0  0  0  0  0  0  0
   15.3897  -10.3410   21.3095 N   0  0  0  0  0  0  0  0  0  0  0  0
   16.4511  -11.0107   20.6601 C   0  0  0  0  0  0  0  0  0  0  0  0
   18.7910  -11.6496   20.4716 C   0  0  0  0  0  0  0  0  0  0  0  0
   18.9951  -13.0364   19.9099 C   0  0  0  0  0  0  0  0  0  0  0  0
   17.6226  -13.6690   20.1119 C   0  0  0  0  0  0  0  0  0  0  0  0
   17.3165  -13.1442   21.4641 N   0  0  0  0  0  0  0  0  0  0  0  0
   16.9178  -13.9841   22.5026 C   0  0  0  0  0  0  0  0  0  0  0  0
   16.8007  -15.4372   22.4058 C   0  0  2  0  0  0  0  0  0  0  0  0
   15.4268  -15.9173   21.9636 C   0  0  0  0  0  0  0  0  0  0  0  0
   14.8120  -15.2081   20.8352 C   0  0  0  0  0  0  0  0  0  0  0  0
   13.5709  -15.9232   20.3103 C   0  0  0  0  0  0  0  0  0  0  0  0
   12.3926  -15.6544   21.0796 N   0  0  0  0  0  0  0  0  0  0  0  0
   11.6395  -14.4753   20.8937 C   0  0  0  0  0  0  0  0  0  0  0  0
   10.4202  -14.3246   21.6216 N   0  0  0  0  0  0  0  0  0  0  0  0
   12.0262  -13.5318   20.0846 N   0  0  0  0  0  0  0  0  0  0  0  0
   17.0083  -16.0464   23.7418 N   0  0  0  0  0  0  0  0  0  0  0  0
   18.6498  -16.0468   24.1964 S   0  0  1  0  0  6  0  0  0  0  0  0
   18.9318  -16.6947   25.4969 O   0  0  0  0  0  0  0  0  0  0  0  0
   19.4947  -16.7754   23.1603 O   0  0  0  0  0  0  0  0  0  0  0  0
   19.2321  -14.3475   24.1434 C   0  0  0  0  0  0  0  0  0  0  0  0
   20.3870  -14.1737   25.0553 C   0  0  0  0  0  0  0  0  0  0  0  0
   20.8464  -15.2610   25.7761 C   0  0  0  0  0  0  0  0  0  0  0  0
   21.9129  -15.1967   26.6406 C   0  0  0  0  0  0  0  0  0  0  0  0
   22.5541  -13.9976   26.7976 C   0  0  0  0  0  0  0  0  0  0  0  0
   22.1094  -12.8913   26.0831 C   0  0  0  0  0  0  0  0  0  0  0  0
   12.8827  -13.6140   19.5041 H   0  0  0  0  0  0  0  0  0  0  0  0
 21  1  2  0
 16  2  2  0
 35  3  2  0
  3 39  1  0
  4 16  1  6
  4 17  1  0
 20  4  1  0
  5  8  1  0
  5 11  2  0
 14  5  1  0
  7  6  1  0
  8  7  2  0
  7  9  1  0
 10  9  2  0
 11 10  1  0
 11 12  1  0
 12 13  1  0
 15 14  1  0
 16 15  1  0
 18 17  1  0
 19 18  1  0
 20 19  1  0
 21 20  1  0
 22 21  1  0
 22 23  1  1
 30 22  1  0
 23 24  1  0
 24 25  1  0
 25 26  1  0
 26 27  1  0
 27 28  1  0
 27 29  2  0
 31 30  1  0
 31 32  2  0
 31 33  2  0
 31 34  1  1
 34 35  1  0
 35 36  1  0
 36 37  2  0
 37 38  1  0
 38 39  2  0
 29 40  1  0
M  CHG  1  13   1
M  END
$$$$
