
     RDKit          3D

 40 42  0  0  0  0  0  0  0  0999 V2000
   16.5137  -13.0267   23.1528 O   0  0  0  0  0  0  0  0  0  0  0  0
   15.5546  -11.9861   18.8552 O   0  0  0  0  0  0  0  0  0  0  0  0
   18.0177  -15.7546   26.9234 C   0  0  0  0  0  0  0  0  0  0  0  0
   17.1042  -11.8460   20.6265 C   0  0  2  0  0  0  0  0  0  0  0  0
   13.3076   -9.5722   20.8895 C   0  0  0  0  0  0  0  0  0  0  0  0
   12.8483   -6.8056   23.8151 Cl  0  0  0  0  0  0  0  0  0  0  0  0
   12.6663   -8.2503   22.8164 C   0  0  0  0  0  0  0  0  0  0  0  0
   13.4444   -8.4273   21.6948 C   0  0  0  0  0  0  0  0  0  0  0  0
   11.7217   -9.1742   23.2080 C   0  0  0  0  0  0  0  0  0  0  0  0
   11.5761  -10.3000   22.4299 C   0  0  0  0  0  0  0  0  0  0  0  0
   12.3701  -10.4883   21.2776 C   0  0  0  0  0  0  0  0  0  0  0  0
   12.1565  -11.7154   20.4946 C   0  0  0  0  0  0  0  0  0  0  0  0
   12.5463  -12.8616   21.3216 N   0  0  0  0  0  4  0  0  0  0  0  0
   14.1551   -9.7332   19.7177 C   0  0  0  0  0  0  0  0  0  0  0  0
   15.5425   -9.9612   19.9301 N   0  0  0  0  0  0  0  0  0  0  0  0
   16.0531  -11.2881   19.7743 C   0  0  0  0  0  0  0  0  0  0  0  0
   18.3891  -11.8322   19.7695 C   0  0  0  0  0  0  0  0  0  0  0  0
   18.3077  -13.0942   18.9592 C   0  0  0  0  0  0  0  0  0  0  0  0
   17.2997  -13.9439   19.6658 C   0  0  0  0  0  0  0  0  0  0  0  0
   17.0199  -13.2573   20.8846 N   0  0  0  0  0  0  0  0  0  0  0  0
   16.7247  -13.8000   22.1590 C   0  0  0  0  0  0  0  0  0  0  0  0
   16.6343  -15.2620   22.4590 C   0  0  2  0  0  0  0  0  0  0  0  0
   15.2173  -15.7138   22.1917 C   0  0  0  0  0  0  0  0  0  0  0  0
   14.9783  -17.1535   22.5173 C   0  0  0  0  0  0  0  0  0  0  0  0
   13.5117  -17.4993   22.2517 C   0  0  0  0  0  0  0  0  0  0  0  0
   13.4123  -18.1424   20.9519 N   0  0  0  0  0  0  0  0  0  0  0  0
   12.1570  -18.5150   20.4061 C   0  0  0  0  0  0  0  0  0  0  0  0
   11.2822  -19.3820   21.0989 N   0  0  0  0  0  0  0  0  0  0  0  0
   11.8045  -18.0575   19.2568 N   0  0  0  0  0  0  0  0  0  0  0  0
   16.9307  -15.4768   23.8636 N   0  0  0  0  0  0  0  0  0  0  0  0
   18.6173  -15.5612   24.1749 S   0  0  1  0  0  6  0  0  0  0  0  0
   19.4143  -15.4993   22.9012 O   0  0  0  0  0  0  0  0  0  0  0  0
   18.9729  -14.3325   25.0018 O   0  0  0  0  0  0  0  0  0  0  0  0
   19.0928  -17.0234   25.0503 C   0  0  0  0  0  0  0  0  0  0  0  0
   18.5701  -16.9395   26.4624 C   0  0  0  0  0  0  0  0  0  0  0  0
   18.6291  -18.0346   27.2925 C   0  0  0  0  0  0  0  0  0  0  0  0
   18.1597  -18.0258   28.5901 C   0  0  0  0  0  0  0  0  0  0  0  0
   17.6049  -16.8424   29.0609 C   0  0  0  0  0  0  0  0  0  0  0  0
   17.5491  -15.7428   28.2172 C   0  0  0  0  0  0  0  0  0  0  0  0
   12.5014  -17.9729   18.4718 H   0  0  0  0  0  0  0  0  0  0  0  0
 21  1  2  0
 16  2  2  0
 35  3  2  0
  3 39  1  0
  4 16  1  6
 17  4  1  1
 20  4  1  0
  5  8  1  0
  5 11  2  0
 14  5  1  0
  7  6  1  0
  8  7  2  0
  7  9  1  0
 10  9  2  0
 11 10  1  0
 12 11  1  1
 13 12  1  6
 14 15  1  6
 16 15  1  0
 18 17  1  0
 18 19  1  6
 19 20  1  6
 21 20  1  0
 22 21  1  0
 23 22  1  1
 22 30  1  1
 23 24  1  0
 24 25  1  6
 25 26  1  6
 26 27  1  0
 27 28  1  0
 27 29  2  0
 31 30  1  6
 31 32  2  0
 31 33  2  0
 34 31  1  0
 34 35  1  6
 35 36  1  0
 36 37  2  0
 37 38  1  0
 38 39  2  0
 29 40  1  0
M  CHG  1  13   1
M  END
$$$$
