
     RDKit          3D

 40 42  0  0  0  0  0  0  0  0999 V2000
   17.4388  -12.6373   23.0915 O   0  0  0  0  0  0  0  0  0  0  0  0
   16.1935  -11.6887   18.4599 O   0  0  0  0  0  0  0  0  0  0  0  0
   20.0639  -13.2031   26.0469 C   0  0  0  0  0  0  0  0  0  0  0  0
   17.4769  -11.5836   20.4348 C   0  0  2  0  0  0  0  0  0  0  0  0
   13.4595  -10.0021   21.7638 C   0  0  0  0  0  0  0  0  0  0  0  0
   12.4788   -6.5880   23.7146 Cl  0  0  0  0  0  0  0  0  0  0  0  0
   12.3797   -8.1175   22.8380 C   0  0  0  0  0  0  0  0  0  0  0  0
   13.5245   -8.7845   22.4645 C   0  0  0  0  0  0  0  0  0  0  0  0
   11.1216   -8.6004   22.5499 C   0  0  0  0  0  0  0  0  0  0  0  0
   11.0417   -9.7911   21.8646 C   0  0  0  0  0  0  0  0  0  0  0  0
   12.2114  -10.4807   21.4774 C   0  0  0  0  0  0  0  0  0  0  0  0
   12.0470  -11.7466   20.7460 C   0  0  0  0  0  0  0  0  0  0  0  0
   11.0630  -12.5655   21.4606 N   0  0  0  0  0  4  0  0  0  0  0  0
   14.6894  -10.6869   21.3952 C   0  0  0  0  0  0  0  0  0  0  0  0
   15.2381  -10.4177   20.1113 N   0  0  0  0  0  0  0  0  0  0  0  0
   16.3017  -11.2444   19.6309 C   0  0  0  0  0  0  0  0  0  0  0  0
   18.6868  -11.4505   19.4841 C   0  0  0  0  0  0  0  0  0  0  0  0
   18.7385  -12.7673   18.7634 C   0  0  0  0  0  0  0  0  0  0  0  0
   17.9145  -13.6973   19.5961 C   0  0  0  0  0  0  0  0  0  0  0  0
   17.6177  -12.9699   20.7869 N   0  0  0  0  0  0  0  0  0  0  0  0
   17.4894  -13.4541   22.1116 C   0  0  0  0  0  0  0  0  0  0  0  0
   17.4048  -14.9002   22.4825 C   0  0  2  0  0  0  0  0  0  0  0  0
   15.9502  -15.2505   22.6946 C   0  0  0  0  0  0  0  0  0  0  0  0
   15.2767  -15.7723   21.4659 C   0  0  0  0  0  0  0  0  0  0  0  0
   13.7966  -16.0218   21.7631 C   0  0  0  0  0  0  0  0  0  0  0  0
   13.2588  -16.9066   20.7429 N   0  0  0  0  0  0  0  0  0  0  0  0
   11.8969  -17.3037   20.7524 C   0  0  0  0  0  0  0  0  0  0  0  0
   11.4129  -18.2476   21.6860 N   0  0  0  0  0  0  0  0  0  0  0  0
   11.0829  -16.7975   19.8948 N   0  0  0  0  0  0  0  0  0  0  0  0
   18.1177  -15.1122   23.7289 N   0  0  0  0  0  0  0  0  0  0  0  0
   19.6942  -15.7478   23.4855 S   0  0  1  0  0  6  0  0  0  0  0  0
   19.7329  -17.2303   23.7353 O   0  0  0  0  0  0  0  0  0  0  0  0
   20.0386  -15.5179   22.0198 O   0  0  0  0  0  0  0  0  0  0  0  0
   20.9194  -14.9859   24.5094 C   0  0  0  0  0  0  0  0  0  0  0  0
   20.2750  -14.5510   25.8017 C   0  0  0  0  0  0  0  0  0  0  0  0
   19.8865  -15.4844   26.7342 C   0  0  0  0  0  0  0  0  0  0  0  0
   19.2834  -15.1525   27.9302 C   0  0  0  0  0  0  0  0  0  0  0  0
   19.0682  -13.8039   28.1847 C   0  0  0  0  0  0  0  0  0  0  0  0
   19.4630  -12.8691   27.2390 C   0  0  0  0  0  0  0  0  0  0  0  0
   11.4138  -16.5189   18.9346 H   0  0  0  0  0  0  0  0  0  0  0  0
 21  1  2  0
 16  2  2  0
 35  3  2  0
  3 39  1  0
  4 16  1  6
 17  4  1  1
 20  4  1  0
  5  8  1  0
  5 11  2  0
 14  5  1  0
  7  6  1  0
  8  7  2  0
  7  9  1  0
 10  9  2  0
 11 10  1  0
 12 11  1  1
 13 12  1  6
 14 15  1  6
 16 15  1  0
 18 17  1  0
 18 19  1  6
 19 20  1  6
 21 20  1  0
 22 21  1  0
 23 22  1  1
 22 30  1  1
 23 24  1  0
 24 25  1  6
 25 26  1  6
 26 27  1  0
 27 28  1  0
 27 29  2  0
 31 30  1  1
 31 32  2  0
 31 33  2  0
 34 31  1  0
 34 35  1  6
 35 36  1  0
 36 37  2  0
 37 38  1  0
 38 39  2  0
 29 40  1  0
M  CHG  1  13   1
M  END
$$$$
