
     RDKit          3D

 40 42  0  0  0  0  0  0  0  0999 V2000
   16.2121  -13.3591   23.4332 O   0  0  0  0  0  0  0  0  0  0  0  0
   16.2294  -11.2907   19.2663 O   0  0  0  0  0  0  0  0  0  0  0  0
   20.2408  -13.7882   25.9291 C   0  0  0  0  0  0  0  0  0  0  0  0
   17.4734  -11.6546   21.2924 C   0  0  2  0  0  0  0  0  0  0  0  0
   13.0775   -9.7309   21.5037 C   0  0  0  0  0  0  0  0  0  0  0  0
   11.7843   -6.6696   23.7717 Cl  0  0  0  0  0  0  0  0  0  0  0  0
   11.9470   -8.2521   23.0473 C   0  0  0  0  0  0  0  0  0  0  0  0
   12.9211   -8.4972   22.0931 C   0  0  0  0  0  0  0  0  0  0  0  0
   11.0988   -9.2581   23.4325 C   0  0  0  0  0  0  0  0  0  0  0  0
   11.2545  -10.4943   22.8424 C   0  0  0  0  0  0  0  0  0  0  0  0
   12.2267  -10.7387   21.8899 C   0  0  0  0  0  0  0  0  0  0  0  0
   12.3043  -12.1247   21.2954 C   0  0  0  0  0  0  0  0  0  0  0  0
   13.1181  -12.9384   22.1392 N   0  0  0  0  0  4  0  0  0  0  0  0
   14.1098   -9.9609   20.5107 C   0  0  0  0  0  0  0  0  0  0  0  0
   15.4640  -10.0564   21.0164 N   0  0  0  0  0  0  0  0  0  0  0  0
   16.3734  -11.0002   20.4883 C   0  0  0  0  0  0  0  0  0  0  0  0
   18.7422  -11.5525   20.4364 C   0  0  0  0  0  0  0  0  0  0  0  0
   19.0260  -12.9491   19.9371 C   0  0  0  0  0  0  0  0  0  0  0  0
   17.6700  -13.6280   20.0964 C   0  0  0  0  0  0  0  0  0  0  0  0
   17.2779  -13.0681   21.4119 N   0  0  0  0  0  0  0  0  0  0  0  0
   16.8603  -13.8858   22.4605 C   0  0  0  0  0  0  0  0  0  0  0  0
   17.1064  -15.3232   22.5502 C   0  0  2  0  0  0  0  0  0  0  0  0
   16.1710  -16.1638   21.6946 C   0  0  0  0  0  0  0  0  0  0  0  0
   14.7779  -15.7115   21.6008 C   0  0  0  0  0  0  0  0  0  0  0  0
   13.9676  -16.5379   20.6070 C   0  0  0  0  0  0  0  0  0  0  0  0
   12.5940  -16.1393   20.5238 N   0  0  0  0  0  0  0  0  0  0  0  0
   12.1148  -15.3503   19.4562 C   0  0  0  0  0  0  0  0  0  0  0  0
   11.8860  -13.9597   19.6868 N   0  0  0  0  0  0  0  0  0  0  0  0
   11.8805  -15.8540   18.2790 N   0  0  0  0  0  0  0  0  0  0  0  0
   16.8742  -15.7853   23.9400 N   0  0  0  0  0  0  0  0  0  0  0  0
   18.2815  -15.6771   24.8934 S   0  0  1  0  0  6  0  0  0  0  0  0
   18.1277  -14.8889   26.1368 O   0  0  0  0  0  0  0  0  0  0  0  0
   18.7522  -17.0617   25.3169 O   0  0  0  0  0  0  0  0  0  0  0  0
   19.6021  -15.0482   23.8493 C   0  0  0  0  0  0  0  0  0  0  0  0
   20.4094  -14.0509   24.5904 C   0  0  0  0  0  0  0  0  0  0  0  0
   21.3818  -13.3353   23.9159 C   0  0  0  0  0  0  0  0  0  0  0  0
   22.1744  -12.3873   24.5177 C   0  0  0  0  0  0  0  0  0  0  0  0
   21.9941  -12.1374   25.8514 C   0  0  0  0  0  0  0  0  0  0  0  0
   21.0224  -12.8450   26.5493 C   0  0  0  0  0  0  0  0  0  0  0  0
   11.8772  -16.8769   18.1028 H   0  0  0  0  0  0  0  0  0  0  0  0
 21  1  2  0
 16  2  2  0
 35  3  2  0
  3 39  1  0
  4 16  1  6
  4 17  1  0
 20  4  1  0
  5  8  1  0
  5 11  2  0
 14  5  1  0
  7  6  1  0
  8  7  2  0
  7  9  1  0
 10  9  2  0
 11 10  1  0
 11 12  1  0
 12 13  1  0
 15 14  1  0
 16 15  1  0
 18 17  1  0
 19 18  1  0
 20 19  1  0
 21 20  1  0
 22 21  1  0
 22 23  1  6
 30 22  1  0
 23 24  1  0
 24 25  1  0
 25 26  1  0
 26 27  1  0
 27 28  1  0
 27 29  2  0
 31 30  1  0
 31 32  2  0
 31 33  2  0
 31 34  1  6
 34 35  1  0
 35 36  1  0
 36 37  2  0
 37 38  1  0
 38 39  2  0
 29 40  1  0
M  CHG  1  13   1
M  END
$$$$
