
     RDKit          3D

 40 42  0  0  0  0  0  0  0  0999 V2000
   17.6107  -13.8384   22.3045 O   0  0  0  0  0  0  0  0  0  0  0  0
   16.4811  -13.8138   17.4957 O   0  0  0  0  0  0  0  0  0  0  0  0
   19.9070  -16.2236   25.3995 C   0  0  0  0  0  0  0  0  0  0  0  0
   17.9796  -14.1927   19.3385 C   0  0  2  0  0  0  0  0  0  0  0  0
   18.6554  -11.0001   20.1882 C   0  0  0  0  0  0  0  0  0  0  0  0
   21.0183  -11.5943   23.3900 Cl  0  0  0  0  0  0  0  0  0  0  0  0
   19.6815  -11.1054   22.3754 C   0  0  0  0  0  0  0  0  0  0  0  0
   19.6912  -11.3698   21.0154 C   0  0  0  0  0  0  0  0  0  0  0  0
   18.6140  -10.4542   22.9377 C   0  0  0  0  0  0  0  0  0  0  0  0
   17.5760  -10.0830   22.1097 C   0  0  0  0  0  0  0  0  0  0  0  0
   17.5859  -10.3468   20.7524 C   0  0  0  0  0  0  0  0  0  0  0  0
   16.4049   -9.8860   19.9318 C   0  0  0  0  0  0  0  0  0  0  0  0
   15.4159  -10.9145   19.9376 N   0  0  0  0  0  4  0  0  0  0  0  0
   18.6897  -11.2945   18.7681 C   0  0  0  0  0  0  0  0  0  0  0  0
   17.4998  -11.9144   18.2217 N   0  0  0  0  0  0  0  0  0  0  0  0
   17.2939  -13.3088   18.3221 C   0  0  0  0  0  0  0  0  0  0  0  0
   18.4812  -15.4184   18.5644 C   0  0  0  0  0  0  0  0  0  0  0  0
   17.5925  -16.5680   18.9756 C   0  0  0  0  0  0  0  0  0  0  0  0
   16.3678  -15.8451   19.5259 C   0  0  0  0  0  0  0  0  0  0  0  0
   17.0485  -14.7575   20.2684 N   0  0  0  0  0  0  0  0  0  0  0  0
   16.7557  -14.4882   21.6043 C   0  0  0  0  0  0  0  0  0  0  0  0
   15.5322  -14.8952   22.2914 C   0  0  2  0  0  0  0  0  0  0  0  0
   14.4553  -13.8214   22.3216 C   0  0  0  0  0  0  0  0  0  0  0  0
   13.0638  -14.2804   22.2377 C   0  0  0  0  0  0  0  0  0  0  0  0
   12.1658  -13.2756   21.5227 C   0  0  0  0  0  0  0  0  0  0  0  0
   10.7916  -13.3598   21.9187 N   0  0  0  0  0  0  0  0  0  0  0  0
   10.1003  -14.5901   21.9387 C   0  0  0  0  0  0  0  0  0  0  0  0
    9.7342  -15.1447   23.2026 N   0  0  0  0  0  0  0  0  0  0  0  0
    9.7908  -15.2236   20.8445 N   0  0  0  0  0  0  0  0  0  0  0  0
   15.8292  -15.1808   23.7159 N   0  0  0  0  0  0  0  0  0  0  0  0
   16.7439  -16.6051   23.9054 S   0  0  1  0  0  6  0  0  0  0  0  0
   16.7012  -17.1922   25.2634 O   0  0  0  0  0  0  0  0  0  0  0  0
   16.2565  -17.6882   22.9527 O   0  0  0  0  0  0  0  0  0  0  0  0
   18.4228  -16.2518   23.3703 C   0  0  0  0  0  0  0  0  0  0  0  0
   19.1686  -15.5608   24.4482 C   0  0  0  0  0  0  0  0  0  0  0  0
   19.1259  -14.1803   24.5194 C   0  0  0  0  0  0  0  0  0  0  0  0
   19.7802  -13.4542   25.4856 C   0  0  0  0  0  0  0  0  0  0  0  0
   20.5113  -14.1291   26.4256 C   0  0  0  0  0  0  0  0  0  0  0  0
   20.5683  -15.5170   26.3734 C   0  0  0  0  0  0  0  0  0  0  0  0
   10.1270  -14.9180   19.9113 H   0  0  0  0  0  0  0  0  0  0  0  0
 21  1  2  0
 16  2  2  0
 35  3  2  0
  3 39  1  0
  4 16  1  6
  4 17  1  0
 20  4  1  0
  5  8  1  0
  5 11  2  0
 14  5  1  0
  7  6  1  0
  8  7  2  0
  7  9  1  0
 10  9  2  0
 11 10  1  0
 11 12  1  0
 12 13  1  0
 15 14  1  0
 16 15  1  0
 18 17  1  0
 19 18  1  0
 20 19  1  0
 21 20  1  0
 22 21  1  0
 22 23  1  1
 30 22  1  0
 23 24  1  0
 24 25  1  0
 25 26  1  0
 26 27  1  0
 27 28  1  0
 27 29  2  0
 31 30  1  0
 31 32  2  0
 31 33  2  0
 31 34  1  6
 34 35  1  0
 35 36  1  0
 36 37  2  0
 37 38  1  0
 38 39  2  0
 29 40  1  0
M  CHG  1  13   1
M  END
$$$$
