
     RDKit          3D

 40 42  0  0  0  0  0  0  0  0999 V2000
   16.2311  -14.9304   21.3929 O   0  0  0  0  0  0  0  0  0  0  0  0
   18.5992  -11.3012   19.7275 O   0  0  0  0  0  0  0  0  0  0  0  0
   15.0796  -17.8920   23.6699 C   0  0  0  0  0  0  0  0  0  0  0  0
   18.0204  -13.6118   19.3936 C   0  0  2  0  0  0  0  0  0  0  0  0
   20.4457  -12.0565   22.9887 C   0  0  0  0  0  0  0  0  0  0  0  0
   20.0672  -10.0182   26.4368 Cl  0  0  0  0  0  0  0  0  0  0  0  0
   20.1923  -11.3212   25.2784 C   0  0  0  0  0  0  0  0  0  0  0  0
   20.3431  -11.0552   23.9271 C   0  0  0  0  0  0  0  0  0  0  0  0
   20.1410  -12.6188   25.7181 C   0  0  0  0  0  0  0  0  0  0  0  0
   20.2433  -13.6227   24.7787 C   0  0  0  0  0  0  0  0  0  0  0  0
   20.3935  -13.3570   23.4300 C   0  0  0  0  0  0  0  0  0  0  0  0
   20.4828  -14.5291   22.4821 C   0  0  0  0  0  0  0  0  0  0  0  0
   21.8448  -14.9465   22.3993 N   0  0  0  0  0  4  0  0  0  0  0  0
   20.6082  -11.7490   21.5803 C   0  0  0  0  0  0  0  0  0  0  0  0
   20.0984  -12.7389   20.6536 N   0  0  0  0  0  0  0  0  0  0  0  0
   18.9086  -12.5109   19.9264 C   0  0  0  0  0  0  0  0  0  0  0  0
   18.0337  -13.4653   17.8666 C   0  0  0  0  0  0  0  0  0  0  0  0
   16.6739  -12.9318   17.4835 C   0  0  0  0  0  0  0  0  0  0  0  0
   16.1817  -12.3359   18.7979 C   0  0  0  0  0  0  0  0  0  0  0  0
   16.6445  -13.3949   19.7263 N   0  0  0  0  0  0  0  0  0  0  0  0
   15.7849  -13.9841   20.6518 C   0  0  0  0  0  0  0  0  0  0  0  0
   14.3869  -13.6101   20.8519 C   0  0  2  0  0  0  0  0  0  0  0  0
   14.1999  -12.3048   21.6103 C   0  0  0  0  0  0  0  0  0  0  0  0
   12.9783  -11.5440   21.3224 C   0  0  0  0  0  0  0  0  0  0  0  0
   11.9277  -11.7016   22.4172 C   0  0  0  0  0  0  0  0  0  0  0  0
   11.9002  -10.6059   23.3399 N   0  0  0  0  0  0  0  0  0  0  0  0
   11.0973  -10.6344   24.5003 C   0  0  0  0  0  0  0  0  0  0  0  0
   10.2806  -11.7821   24.7348 N   0  0  0  0  0  0  0  0  0  0  0  0
   11.0846   -9.6510   25.3530 N   0  0  0  0  0  0  0  0  0  0  0  0
   13.7076  -14.6356   21.6802 N   0  0  0  0  0  0  0  0  0  0  0  0
   13.7522  -16.1759   20.9545 S   0  0  1  0  0  6  0  0  0  0  0  0
   12.6109  -17.0543   21.2958 O   0  0  0  0  0  0  0  0  0  0  0  0
   13.7637  -16.0554   19.4367 O   0  0  0  0  0  0  0  0  0  0  0  0
   15.3332  -16.9267   21.3623 C   0  0  0  0  0  0  0  0  0  0  0  0
   15.1370  -18.0522   22.3059 C   0  0  0  0  0  0  0  0  0  0  0  0
   15.0091  -19.3358   21.8069 C   0  0  0  0  0  0  0  0  0  0  0  0
   14.8299  -20.4407   22.6044 C   0  0  0  0  0  0  0  0  0  0  0  0
   14.7749  -20.2643   23.9607 C   0  0  0  0  0  0  0  0  0  0  0  0
   14.9012  -18.9829   24.4843 C   0  0  0  0  0  0  0  0  0  0  0  0
   10.2760   -9.4670   25.9772 H   0  0  0  0  0  0  0  0  0  0  0  0
 21  1  2  0
 16  2  2  0
 35  3  2  0
  3 39  1  0
  4 16  1  1
  4 17  1  0
 20  4  1  0
  5  8  1  0
  5 11  2  0
 14  5  1  0
  7  6  1  0
  8  7  2  0
  7  9  1  0
 10  9  2  0
 11 10  1  0
 11 12  1  0
 12 13  1  0
 15 14  1  0
 16 15  1  0
 18 17  1  0
 19 18  1  0
 20 19  1  0
 21 20  1  0
 22 21  1  0
 22 23  1  1
 30 22  1  0
 23 24  1  0
 24 25  1  0
 25 26  1  0
 26 27  1  0
 27 28  1  0
 27 29  2  0
 31 30  1  0
 31 32  2  0
 31 33  2  0
 31 34  1  1
 34 35  1  0
 35 36  1  0
 36 37  2  0
 37 38  1  0
 38 39  2  0
 29 40  1  0
M  CHG  1  13   1
M  END
$$$$
