
     RDKit          3D

 40 42  0  0  0  0  0  0  0  0999 V2000
   16.3116  -13.0345   23.1616 O   0  0  0  0  0  0  0  0  0  0  0  0
   15.7791  -11.6385   18.9926 O   0  0  0  0  0  0  0  0  0  0  0  0
   21.2196  -13.9754   24.7245 C   0  0  0  0  0  0  0  0  0  0  0  0
   17.2936  -11.4136   20.8476 C   0  0  2  0  0  0  0  0  0  0  0  0
   13.3643   -9.5079   21.1558 C   0  0  0  0  0  0  0  0  0  0  0  0
   12.5515   -6.9335   24.1389 Cl  0  0  0  0  0  0  0  0  0  0  0  0
   12.5883   -8.3696   23.1432 C   0  0  0  0  0  0  0  0  0  0  0  0
   13.3128   -8.3942   21.9625 C   0  0  0  0  0  0  0  0  0  0  0  0
   11.8912   -9.4813   23.5408 C   0  0  0  0  0  0  0  0  0  0  0  0
   11.9418  -10.5975   22.7331 C   0  0  0  0  0  0  0  0  0  0  0  0
   12.6649  -10.6217   21.5546 C   0  0  0  0  0  0  0  0  0  0  0  0
   12.6438  -11.8904   20.7358 C   0  0  0  0  0  0  0  0  0  0  0  0
   13.6819  -12.7515   21.2015 N   0  0  0  0  0  4  0  0  0  0  0  0
   14.1355   -9.5074   19.9270 C   0  0  0  0  0  0  0  0  0  0  0  0
   15.5688   -9.6520   20.0796 N   0  0  0  0  0  0  0  0  0  0  0  0
   16.1922  -10.9126   19.9417 C   0  0  0  0  0  0  0  0  0  0  0  0
   18.5984  -11.2520   20.0573 C   0  0  0  0  0  0  0  0  0  0  0  0
   19.0311  -12.6462   19.6705 C   0  0  0  0  0  0  0  0  0  0  0  0
   17.7313  -13.4327   19.8011 C   0  0  0  0  0  0  0  0  0  0  0  0
   17.2135  -12.8287   21.0520 N   0  0  0  0  0  0  0  0  0  0  0  0
   16.8050  -13.6130   22.1293 C   0  0  0  0  0  0  0  0  0  0  0  0
   16.8964  -15.0700   22.1861 C   0  0  2  0  0  0  0  0  0  0  0  0
   15.7857  -15.7875   21.4342 C   0  0  0  0  0  0  0  0  0  0  0  0
   14.4217  -15.2842   21.6346 C   0  0  0  0  0  0  0  0  0  0  0  0
   13.3878  -16.0904   20.8548 C   0  0  0  0  0  0  0  0  0  0  0  0
   12.0384  -15.6835   21.1122 N   0  0  0  0  0  0  0  0  0  0  0  0
   11.3123  -14.8993   20.1903 C   0  0  0  0  0  0  0  0  0  0  0  0
    9.9587  -14.5650   20.4987 N   0  0  0  0  0  0  0  0  0  0  0  0
   11.8418  -14.4771   19.0786 N   0  0  0  0  0  0  0  0  0  0  0  0
   16.7649  -15.5258   23.5911 N   0  0  0  0  0  0  0  0  0  0  0  0
   18.2347  -15.4035   24.4432 S   0  0  1  0  0  6  0  0  0  0  0  0
   18.2013  -15.9529   25.8171 O   0  0  0  0  0  0  0  0  0  0  0  0
   19.3447  -16.1443   23.7102 O   0  0  0  0  0  0  0  0  0  0  0  0
   18.7423  -13.6798   24.4128 C   0  0  0  0  0  0  0  0  0  0  0  0
   20.0060  -13.5052   25.1667 C   0  0  0  0  0  0  0  0  0  0  0  0
   19.9806  -12.8435   26.3810 C   0  0  0  0  0  0  0  0  0  0  0  0
   21.0997  -12.6393   27.1522 C   0  0  0  0  0  0  0  0  0  0  0  0
   22.3006  -13.1137   26.6978 C   0  0  0  0  0  0  0  0  0  0  0  0
   22.3496  -13.7818   25.4799 C   0  0  0  0  0  0  0  0  0  0  0  0
   11.2943  -13.9625   18.3626 H   0  0  0  0  0  0  0  0  0  0  0  0
 21  1  2  0
 16  2  2  0
 35  3  2  0
  3 39  1  0
  4 16  1  6
  4 17  1  0
 20  4  1  0
  5  8  1  0
  5 11  2  0
 14  5  1  0
  7  6  1  0
  8  7  2  0
  7  9  1  0
 10  9  2  0
 11 10  1  0
 11 12  1  0
 12 13  1  0
 15 14  1  0
 16 15  1  0
 18 17  1  0
 19 18  1  0
 20 19  1  0
 21 20  1  0
 22 21  1  0
 22 23  1  6
 30 22  1  0
 23 24  1  0
 24 25  1  0
 25 26  1  0
 26 27  1  0
 27 28  1  0
 27 29  2  0
 31 30  1  0
 31 32  2  0
 31 33  2  0
 31 34  1  1
 34 35  1  0
 35 36  1  0
 36 37  2  0
 37 38  1  0
 38 39  2  0
 29 40  1  0
M  CHG  1  13   1
M  END
$$$$
