
     RDKit          3D

 40 42  0  0  0  0  0  0  0  0999 V2000
   16.8859  -13.6164   23.9985 O   0  0  0  0  0  0  0  0  0  0  0  0
   16.2932  -11.3525   19.5637 O   0  0  0  0  0  0  0  0  0  0  0  0
   22.1199  -14.7583   23.9439 C   0  0  0  0  0  0  0  0  0  0  0  0
   17.3983  -11.8415   21.6433 C   0  0  2  0  0  0  0  0  0  0  0  0
   13.1028   -9.3574   21.5119 C   0  0  0  0  0  0  0  0  0  0  0  0
   12.0460   -6.0882   23.6056 Cl  0  0  0  0  0  0  0  0  0  0  0  0
   12.0072   -7.6590   22.8396 C   0  0  0  0  0  0  0  0  0  0  0  0
   13.0992   -8.1259   22.1261 C   0  0  0  0  0  0  0  0  0  0  0  0
   10.8811   -8.4332   22.9504 C   0  0  0  0  0  0  0  0  0  0  0  0
   10.8836   -9.6670   22.3350 C   0  0  0  0  0  0  0  0  0  0  0  0
   11.9735  -10.1328   21.6228 C   0  0  0  0  0  0  0  0  0  0  0  0
   11.8687  -11.4931   20.9755 C   0  0  0  0  0  0  0  0  0  0  0  0
   10.5967  -11.5982   20.3375 N   0  0  0  0  0  4  0  0  0  0  0  0
   14.2625   -9.8234   20.7754 C   0  0  0  0  0  0  0  0  0  0  0  0
   15.0045  -10.9085   21.3843 N   0  0  0  0  0  0  0  0  0  0  0  0
   16.2206  -11.3622   20.8259 C   0  0  0  0  0  0  0  0  0  0  0  0
   18.6443  -11.5704   20.7905 C   0  0  0  0  0  0  0  0  0  0  0  0
   19.1279  -12.9186   20.3122 C   0  0  0  0  0  0  0  0  0  0  0  0
   17.8821  -13.7823   20.4761 C   0  0  0  0  0  0  0  0  0  0  0  0
   17.4064  -13.2667   21.7820 N   0  0  0  0  0  0  0  0  0  0  0  0
   17.1041  -14.1216   22.8406 C   0  0  0  0  0  0  0  0  0  0  0  0
   17.0163  -15.5766   22.7425 C   0  0  2  0  0  0  0  0  0  0  0  0
   15.5916  -16.1061   22.6845 C   0  0  0  0  0  0  0  0  0  0  0  0
   15.0526  -16.4047   21.3524 C   0  0  0  0  0  0  0  0  0  0  0  0
   14.1838  -15.2726   20.8134 C   0  0  0  0  0  0  0  0  0  0  0  0
   13.4096  -15.6471   19.6675 N   0  0  0  0  0  0  0  0  0  0  0  0
   12.2610  -16.4592   19.7826 C   0  0  0  0  0  0  0  0  0  0  0  0
   11.4525  -16.6628   18.6233 N   0  0  0  0  0  0  0  0  0  0  0  0
   11.9256  -17.0218   20.9075 N   0  0  0  0  0  0  0  0  0  0  0  0
   17.6070  -16.1968   23.9531 N   0  0  0  0  0  0  0  0  0  0  0  0
   18.4330  -15.0600   24.9157 S   0  0  1  0  0  6  0  0  0  0  0  0
   17.5606  -14.0877   25.6116 O   0  0  0  0  0  0  0  0  0  0  0  0
   19.2456  -15.7597   25.9966 O   0  0  0  0  0  0  0  0  0  0  0  0
   19.6580  -14.2523   23.8780 C   0  0  0  0  0  0  0  0  0  0  0  0
   20.9826  -14.2699   24.5419 C   0  0  0  0  0  0  0  0  0  0  0  0
   21.0976  -13.7797   25.8300 C   0  0  0  0  0  0  0  0  0  0  0  0
   22.2821  -13.7604   26.5268 C   0  0  0  0  0  0  0  0  0  0  0  0
   23.4056  -14.2503   25.9173 C   0  0  0  0  0  0  0  0  0  0  0  0
   23.3133  -14.7480   24.6227 C   0  0  0  0  0  0  0  0  0  0  0  0
   12.4022  -16.8015   21.8028 H   0  0  0  0  0  0  0  0  0  0  0  0
 21  1  2  0
 16  2  2  0
 35  3  2  0
  3 39  1  0
  4 16  1  6
  4 17  1  0
 20  4  1  0
  5  8  1  0
  5 11  2  0
 14  5  1  0
  7  6  1  0
  8  7  2  0
  7  9  1  0
 10  9  2  0
 11 10  1  0
 11 12  1  0
 12 13  1  0
 15 14  1  0
 16 15  1  0
 18 17  1  0
 19 18  1  0
 20 19  1  0
 21 20  1  0
 22 21  1  0
 22 23  1  1
 30 22  1  0
 23 24  1  0
 24 25  1  0
 25 26  1  0
 26 27  1  0
 27 28  1  0
 27 29  2  0
 31 30  1  0
 31 32  2  0
 31 33  2  0
 31 34  1  6
 34 35  1  0
 35 36  1  0
 36 37  2  0
 37 38  1  0
 38 39  2  0
 29 40  1  0
M  CHG  1  13   1
M  END
$$$$
