
     RDKit          3D

 40 42  0  0  0  0  0  0  0  0999 V2000
   16.4777  -11.8396   21.1771 O   0  0  0  0  0  0  0  0  0  0  0  0
   15.8027  -12.4390   16.5658 O   0  0  0  0  0  0  0  0  0  0  0  0
   15.3545  -18.7359   22.8239 C   0  0  0  0  0  0  0  0  0  0  0  0
   17.1986  -12.3239   18.4623 C   0  0  2  0  0  0  0  0  0  0  0  0
   17.0228   -9.6674   14.7995 C   0  0  0  0  0  0  0  0  0  0  0  0
   20.9615  -10.5219   14.3748 Cl  0  0  0  0  0  0  0  0  0  0  0  0
   19.3168   -9.9542   14.0738 C   0  0  0  0  0  0  0  0  0  0  0  0
   18.3371  -10.1128   15.0276 C   0  0  0  0  0  0  0  0  0  0  0  0
   19.0672   -9.3571   12.8571 C   0  0  0  0  0  0  0  0  0  0  0  0
   17.7855   -8.9159   12.6191 C   0  0  0  0  0  0  0  0  0  0  0  0
   16.7751   -9.0757   13.5923 C   0  0  0  0  0  0  0  0  0  0  0  0
   15.4286   -8.5809   13.2657 C   0  0  0  0  0  0  0  0  0  0  0  0
   14.7413   -9.6071   12.4757 N   0  0  0  0  0  4  0  0  0  0  0  0
   16.0147   -9.8397   15.8345 C   0  0  0  0  0  0  0  0  0  0  0  0
   16.4450  -10.3060   17.1071 N   0  0  0  0  0  0  0  0  0  0  0  0
   16.4623  -11.7147   17.3536 C   0  0  0  0  0  0  0  0  0  0  0  0
   18.1633  -13.3416   17.8149 C   0  0  0  0  0  0  0  0  0  0  0  0
   17.3282  -14.5757   17.6264 C   0  0  0  0  0  0  0  0  0  0  0  0
   16.1494  -14.3872   18.5277 C   0  0  0  0  0  0  0  0  0  0  0  0
   16.4479  -13.2226   19.2956 N   0  0  0  0  0  0  0  0  0  0  0  0
   16.1159  -12.9415   20.6433 C   0  0  0  0  0  0  0  0  0  0  0  0
   15.3458  -13.8599   21.5374 C   0  0  2  0  0  0  0  0  0  0  0  0
   14.0544  -13.1752   21.9208 C   0  0  0  0  0  0  0  0  0  0  0  0
   13.1748  -12.8629   20.7527 C   0  0  0  0  0  0  0  0  0  0  0  0
   11.9575  -12.0681   21.2297 C   0  0  0  0  0  0  0  0  0  0  0  0
   11.5903  -12.5302   22.5581 N   0  0  0  0  0  0  0  0  0  0  0  0
   10.6036  -11.8607   23.3267 C   0  0  0  0  0  0  0  0  0  0  0  0
    9.5856  -11.0973   22.7120 N   0  0  0  0  0  0  0  0  0  0  0  0
   10.6331  -11.9468   24.6097 N   0  0  0  0  0  0  0  0  0  0  0  0
   16.1159  -14.1029   22.7434 N   0  0  0  0  0  0  0  0  0  0  0  0
   17.3391  -15.2864   22.5161 S   0  0  1  0  0  6  0  0  0  0  0  0
   18.3910  -14.8103   21.5526 O   0  0  0  0  0  0  0  0  0  0  0  0
   18.0101  -15.4894   23.8682 O   0  0  0  0  0  0  0  0  0  0  0  0
   16.7131  -16.8325   21.9263 C   0  0  0  0  0  0  0  0  0  0  0  0
   16.0285  -17.5485   23.0635 C   0  0  0  0  0  0  0  0  0  0  0  0
   16.0772  -17.0356   24.3387 C   0  0  0  0  0  0  0  0  0  0  0  0
   15.4808  -17.6467   25.4227 C   0  0  0  0  0  0  0  0  0  0  0  0
   14.8026  -18.8369   25.1919 C   0  0  0  0  0  0  0  0  0  0  0  0
   14.7583  -19.3474   23.9030 C   0  0  0  0  0  0  0  0  0  0  0  0
   10.6194  -12.8845   25.0890 H   0  0  0  0  0  0  0  0  0  0  0  0
 21  1  2  0
 16  2  2  0
 35  3  2  0
  3 39  1  0
  4 16  1  6
 17  4  1  1
 20  4  1  0
  5  8  1  0
  5 11  2  0
 14  5  1  0
  7  6  1  0
  8  7  2  0
  7  9  1  0
 10  9  2  0
 11 10  1  0
 12 11  1  1
 13 12  1  6
 14 15  1  6
 16 15  1  0
 18 17  1  0
 18 19  1  6
 19 20  1  6
 21 20  1  0
 22 21  1  0
 23 22  1  1
 22 30  1  1
 23 24  1  0
 24 25  1  6
 25 26  1  6
 26 27  1  0
 27 28  1  0
 27 29  2  0
 31 30  1  1
 31 32  2  0
 31 33  2  0
 34 31  1  0
 34 35  1  6
 35 36  1  0
 36 37  2  0
 37 38  1  0
 38 39  2  0
 29 40  1  0
M  CHG  1  13   1
M  END
$$$$
