
     RDKit          3D

 40 42  0  0  0  0  0  0  0  0999 V2000
   16.8748  -11.8225   22.8530 O   0  0  0  0  0  0  0  0  0  0  0  0
   16.2151  -11.5335   18.1253 O   0  0  0  0  0  0  0  0  0  0  0  0
   18.4658  -15.4941   26.8779 C   0  0  0  0  0  0  0  0  0  0  0  0
   17.4758  -10.8978   20.0725 C   0  0  2  0  0  0  0  0  0  0  0  0
   13.4778   -9.7287   20.8863 C   0  0  0  0  0  0  0  0  0  0  0  0
   14.1943   -6.7193   23.4589 Cl  0  0  0  0  0  0  0  0  0  0  0  0
   13.5432   -8.1709   22.7348 C   0  0  0  0  0  0  0  0  0  0  0  0
   13.9684   -8.5908   21.4848 C   0  0  0  0  0  0  0  0  0  0  0  0
   12.6022   -8.8984   23.4167 C   0  0  0  0  0  0  0  0  0  0  0  0
   12.1097  -10.0384   22.8178 C   0  0  0  0  0  0  0  0  0  0  0  0
   12.5341  -10.4571   21.5702 C   0  0  0  0  0  0  0  0  0  0  0  0
   11.9216  -11.7130   20.9975 C   0  0  0  0  0  0  0  0  0  0  0  0
   12.6156  -12.8418   21.5269 N   0  0  0  0  0  4  0  0  0  0  0  0
   13.9450  -10.1478   19.5784 C   0  0  0  0  0  0  0  0  0  0  0  0
   15.3038   -9.7746   19.2425 N   0  0  0  0  0  0  0  0  0  0  0  0
   16.3164  -10.7517   19.1137 C   0  0  0  0  0  0  0  0  0  0  0  0
   18.7440  -10.8797   19.2096 C   0  0  0  0  0  0  0  0  0  0  0  0
   19.2748  -12.2934   19.2126 C   0  0  0  0  0  0  0  0  0  0  0  0
   18.0442  -13.0967   19.6195 C   0  0  0  0  0  0  0  0  0  0  0  0
   17.5119  -12.1979   20.6715 N   0  0  0  0  0  0  0  0  0  0  0  0
   17.1930  -12.6687   21.9440 C   0  0  0  0  0  0  0  0  0  0  0  0
   17.1937  -14.0748   22.3408 C   0  0  2  0  0  0  0  0  0  0  0  0
   15.8087  -14.7014   22.3945 C   0  0  0  0  0  0  0  0  0  0  0  0
   15.7493  -16.1672   22.4388 C   0  0  0  0  0  0  0  0  0  0  0  0
   14.3162  -16.6857   22.5077 C   0  0  0  0  0  0  0  0  0  0  0  0
   13.3353  -15.6851   22.2089 N   0  0  0  0  0  0  0  0  0  0  0  0
   11.9526  -15.9486   22.3133 C   0  0  0  0  0  0  0  0  0  0  0  0
   11.1995  -16.1182   21.1121 N   0  0  0  0  0  0  0  0  0  0  0  0
   11.3546  -16.0411   23.4658 N   0  0  0  0  0  0  0  0  0  0  0  0
   17.7279  -14.2063   23.7179 N   0  0  0  0  0  0  0  0  0  0  0  0
   19.4236  -14.0525   23.7635 S   0  0  1  0  0  6  0  0  0  0  0  0
   20.1600  -15.0918   23.0097 O   0  0  0  0  0  0  0  0  0  0  0  0
   19.8579  -12.7125   23.1855 O   0  0  0  0  0  0  0  0  0  0  0  0
   19.9201  -13.9847   25.4893 C   0  0  0  0  0  0  0  0  0  0  0  0
   19.6166  -15.2707   26.1599 C   0  0  0  0  0  0  0  0  0  0  0  0
   20.5282  -16.3072   26.0745 C   0  0  0  0  0  0  0  0  0  0  0  0
   20.3356  -17.5320   26.6677 C   0  0  0  0  0  0  0  0  0  0  0  0
   19.1846  -17.7385   27.3791 C   0  0  0  0  0  0  0  0  0  0  0  0
   18.2541  -16.7106   27.4782 C   0  0  0  0  0  0  0  0  0  0  0  0
   11.7579  -15.6419   24.3349 H   0  0  0  0  0  0  0  0  0  0  0  0
 21  1  2  0
 16  2  2  0
 35  3  2  0
  3 39  1  0
  4 16  1  6
  4 17  1  0
 20  4  1  0
  5  8  1  0
  5 11  2  0
 14  5  1  0
  7  6  1  0
  8  7  2  0
  7  9  1  0
 10  9  2  0
 11 10  1  0
 11 12  1  0
 12 13  1  0
 15 14  1  0
 16 15  1  0
 18 17  1  0
 19 18  1  0
 20 19  1  0
 21 20  1  0
 22 21  1  0
 22 23  1  1
 30 22  1  0
 23 24  1  0
 24 25  1  0
 25 26  1  0
 26 27  1  0
 27 28  1  0
 27 29  2  0
 31 30  1  0
 31 32  2  0
 31 33  2  0
 31 34  1  1
 34 35  1  0
 35 36  1  0
 36 37  2  0
 37 38  1  0
 38 39  2  0
 29 40  1  0
M  CHG  1  13   1
M  END
$$$$
