
     RDKit          3D

 40 42  0  0  0  0  0  0  0  0999 V2000
   17.2406  -13.0763   23.6906 O   0  0  0  0  0  0  0  0  0  0  0  0
   17.6949  -12.4344   18.9103 O   0  0  0  0  0  0  0  0  0  0  0  0
   18.9363  -13.4890   26.4485 C   0  0  0  0  0  0  0  0  0  0  0  0
   18.2472  -12.0632   21.1720 C   0  0  2  0  0  0  0  0  0  0  0  0
   14.4087  -10.0857   20.4835 C   0  0  0  0  0  0  0  0  0  0  0  0
   14.6384   -7.2088   23.3287 Cl  0  0  0  0  0  0  0  0  0  0  0  0
   14.0316   -8.4593   22.2397 C   0  0  0  0  0  0  0  0  0  0  0  0
   14.8798   -9.0899   21.3579 C   0  0  0  0  0  0  0  0  0  0  0  0
   12.6900   -8.7652   22.3141 C   0  0  0  0  0  0  0  0  0  0  0  0
   12.2140   -9.7378   21.4647 C   0  0  0  0  0  0  0  0  0  0  0  0
   13.0777  -10.3886   20.5569 C   0  0  0  0  0  0  0  0  0  0  0  0
   12.4965  -11.4163   19.6790 C   0  0  0  0  0  0  0  0  0  0  0  0
   12.8694  -11.1034   18.2961 N   0  0  0  0  0  4  0  0  0  0  0  0
   15.3354  -10.7408   19.5728 C   0  0  0  0  0  0  0  0  0  0  0  0
   16.7272  -10.5548   19.7971 N   0  0  0  0  0  0  0  0  0  0  0  0
   17.5628  -11.7082   19.9279 C   0  0  0  0  0  0  0  0  0  0  0  0
   19.7567  -12.0095   20.8492 C   0  0  0  0  0  0  0  0  0  0  0  0
   20.0543  -13.3518   20.2446 C   0  0  0  0  0  0  0  0  0  0  0  0
   18.9035  -14.2201   20.6433 C   0  0  0  0  0  0  0  0  0  0  0  0
   18.1503  -13.4406   21.5708 N   0  0  0  0  0  0  0  0  0  0  0  0
   17.4296  -13.8727   22.7108 C   0  0  0  0  0  0  0  0  0  0  0  0
   16.8446  -15.2386   22.8780 C   0  0  2  0  0  0  0  0  0  0  0  0
   15.4526  -15.2330   22.2900 C   0  0  0  0  0  0  0  0  0  0  0  0
   14.3798  -15.5129   23.2932 C   0  0  0  0  0  0  0  0  0  0  0  0
   13.2593  -16.3166   22.6301 C   0  0  0  0  0  0  0  0  0  0  0  0
   12.7438  -15.5561   21.5036 N   0  0  0  0  0  0  0  0  0  0  0  0
   11.5863  -14.7453   21.6273 C   0  0  0  0  0  0  0  0  0  0  0  0
   10.7696  -14.8005   22.7792 N   0  0  0  0  0  0  0  0  0  0  0  0
   11.2695  -13.9429   20.6732 N   0  0  0  0  0  0  0  0  0  0  0  0
   16.7470  -15.5423   24.2939 N   0  0  0  0  0  0  0  0  0  0  0  0
   18.0375  -16.5318   24.8453 S   0  0  1  0  0  6  0  0  0  0  0  0
   17.5999  -17.9606   25.0144 O   0  0  0  0  0  0  0  0  0  0  0  0
   19.1073  -16.5022   23.7616 O   0  0  0  0  0  0  0  0  0  0  0  0
   18.7307  -15.9843   26.3783 C   0  0  0  0  0  0  0  0  0  0  0  0
   19.5065  -14.7136   26.1378 C   0  0  0  0  0  0  0  0  0  0  0  0
   20.7803  -14.7631   25.6214 C   0  0  0  0  0  0  0  0  0  0  0  0
   21.5455  -13.6389   25.3875 C   0  0  0  0  0  0  0  0  0  0  0  0
   20.9819  -12.4070   25.6954 C   0  0  0  0  0  0  0  0  0  0  0  0
   19.6969  -12.3659   26.2159 C   0  0  0  0  0  0  0  0  0  0  0  0
   11.8364  -13.9070   19.7865 H   0  0  0  0  0  0  0  0  0  0  0  0
 21  1  2  0
 16  2  2  0
 35  3  2  0
  3 39  1  0
  4 16  1  6
 17  4  1  1
 20  4  1  0
  5  8  1  0
  5 11  2  0
 14  5  1  0
  7  6  1  0
  8  7  2  0
  7  9  1  0
 10  9  2  0
 11 10  1  0
 12 11  1  1
 13 12  1  6
 14 15  1  6
 16 15  1  0
 18 17  1  0
 18 19  1  6
 19 20  1  6
 21 20  1  0
 22 21  1  0
 23 22  1  1
 22 30  1  1
 23 24  1  0
 24 25  1  6
 25 26  1  6
 26 27  1  0
 27 28  1  0
 27 29  2  0
 31 30  1  6
 31 32  2  0
 31 33  2  0
 34 31  1  0
 34 35  1  6
 35 36  1  0
 36 37  2  0
 37 38  1  0
 38 39  2  0
 29 40  1  0
M  CHG  1  13   1
M  END
$$$$
