
     RDKit          3D

 40 42  0  0  0  0  0  0  0  0999 V2000
   15.6667  -13.2180   23.4052 O   0  0  0  0  0  0  0  0  0  0  0  0
   15.9707  -11.6650   19.1430 O   0  0  0  0  0  0  0  0  0  0  0  0
   20.7667  -13.6620   24.0340 C   0  0  0  0  0  0  0  0  0  0  0  0
   17.0227  -11.5790   21.3043 C   0  0  2  0  0  0  0  0  0  0  0  0
   13.0358   -9.8312   21.1118 C   0  0  0  0  0  0  0  0  0  0  0  0
   12.0154   -7.4987   24.2272 Cl  0  0  0  0  0  0  0  0  0  0  0  0
   12.0800   -8.8274   23.0933 C   0  0  0  0  0  0  0  0  0  0  0  0
   12.9583   -8.8022   22.0222 C   0  0  0  0  0  0  0  0  0  0  0  0
   11.2503   -9.9044   23.2718 C   0  0  0  0  0  0  0  0  0  0  0  0
   11.3269  -10.9357   22.3600 C   0  0  0  0  0  0  0  0  0  0  0  0
   12.2035  -10.9101   21.2909 C   0  0  0  0  0  0  0  0  0  0  0  0
   12.1991  -12.0849   20.3422 C   0  0  0  0  0  0  0  0  0  0  0  0
   12.8205  -13.1954   20.9878 N   0  0  0  0  0  4  0  0  0  0  0  0
   13.9689   -9.7806   20.0021 C   0  0  0  0  0  0  0  0  0  0  0  0
   15.3733   -9.8346   20.3535 N   0  0  0  0  0  0  0  0  0  0  0  0
   16.1089  -11.0348   20.2303 C   0  0  0  0  0  0  0  0  0  0  0  0
   18.4496  -11.4340   20.7600 C   0  0  0  0  0  0  0  0  0  0  0  0
   18.9153  -12.8307   20.4238 C   0  0  0  0  0  0  0  0  0  0  0  0
   17.5971  -13.5881   20.3056 C   0  0  0  0  0  0  0  0  0  0  0  0
   16.8791  -12.9954   21.4592 N   0  0  0  0  0  0  0  0  0  0  0  0
   16.2710  -13.7898   22.4297 C   0  0  0  0  0  0  0  0  0  0  0  0
   16.2663  -15.2508   22.4329 C   0  0  2  0  0  0  0  0  0  0  0  0
   14.9920  -15.8647   21.8734 C   0  0  0  0  0  0  0  0  0  0  0  0
   14.2546  -15.0680   20.8857 C   0  0  0  0  0  0  0  0  0  0  0  0
   13.6900  -15.9251   19.7571 C   0  0  0  0  0  0  0  0  0  0  0  0
   13.2681  -17.2248   20.1875 N   0  0  0  0  0  0  0  0  0  0  0  0
   11.9392  -17.4765   20.5908 C   0  0  0  0  0  0  0  0  0  0  0  0
   11.0041  -16.3976   20.5648 N   0  0  0  0  0  0  0  0  0  0  0  0
   11.5496  -18.6559   20.9802 N   0  0  0  0  0  0  0  0  0  0  0  0
   16.3519  -15.7488   23.8271 N   0  0  0  0  0  0  0  0  0  0  0  0
   17.9141  -15.5593   24.4790 S   0  0  1  0  0  6  0  0  0  0  0  0
   18.1081  -16.1753   25.8107 O   0  0  0  0  0  0  0  0  0  0  0  0
   18.9588  -16.1797   23.5614 O   0  0  0  0  0  0  0  0  0  0  0  0
   18.2965  -13.8033   24.4804 C   0  0  0  0  0  0  0  0  0  0  0  0
   19.7011  -13.5859   24.8991 C   0  0  0  0  0  0  0  0  0  0  0  0
   19.9726  -13.2967   26.2240 C   0  0  0  0  0  0  0  0  0  0  0  0
   21.2426  -13.0855   26.7051 C   0  0  0  0  0  0  0  0  0  0  0  0
   22.2929  -13.1648   25.8309 C   0  0  0  0  0  0  0  0  0  0  0  0
   22.0434  -13.4543   24.4945 C   0  0  0  0  0  0  0  0  0  0  0  0
   12.1835  -19.4778   20.9829 H   0  0  0  0  0  0  0  0  0  0  0  0
 21  1  2  0
 16  2  2  0
 35  3  2  0
  3 39  1  0
  4 16  1  6
  4 17  1  0
 20  4  1  0
  5  8  1  0
  5 11  2  0
 14  5  1  0
  7  6  1  0
  8  7  2  0
  7  9  1  0
 10  9  2  0
 11 10  1  0
 11 12  1  0
 12 13  1  0
 15 14  1  0
 16 15  1  0
 18 17  1  0
 19 18  1  0
 20 19  1  0
 21 20  1  0
 22 21  1  0
 22 23  1  1
 30 22  1  0
 23 24  1  0
 24 25  1  0
 25 26  1  0
 26 27  1  0
 27 28  1  0
 27 29  2  0
 31 30  1  0
 31 32  2  0
 31 33  2  0
 31 34  1  1
 34 35  1  0
 35 36  1  0
 36 37  2  0
 37 38  1  0
 38 39  2  0
 29 40  1  0
M  CHG  1  13   1
M  END
$$$$
