
     RDKit          3D

 40 42  0  0  0  0  0  0  0  0999 V2000
   16.9738  -12.0838   21.1911 O   0  0  0  0  0  0  0  0  0  0  0  0
   16.7571  -14.2079   16.9750 O   0  0  0  0  0  0  0  0  0  0  0  0
   20.6503  -14.5222   25.7152 C   0  0  0  0  0  0  0  0  0  0  0  0
   17.8257  -12.7010   18.4398 C   0  0  2  0  0  0  0  0  0  0  0  0
   15.5814  -10.1877   15.2659 C   0  0  0  0  0  0  0  0  0  0  0  0
   17.2729   -6.7567   13.9276 Cl  0  0  0  0  0  0  0  0  0  0  0  0
   16.2029   -8.1490   14.1130 C   0  0  0  0  0  0  0  0  0  0  0  0
   16.4245   -9.0731   15.1090 C   0  0  0  0  0  0  0  0  0  0  0  0
   15.1551   -8.2632   13.2254 C   0  0  0  0  0  0  0  0  0  0  0  0
   14.3210   -9.3489   13.3663 C   0  0  0  0  0  0  0  0  0  0  0  0
   14.5423  -10.3013   14.3849 C   0  0  0  0  0  0  0  0  0  0  0  0
   13.6101  -11.4361   14.4724 C   0  0  0  0  0  0  0  0  0  0  0  0
   13.5144  -12.0552   13.1468 N   0  0  0  0  0  4  0  0  0  0  0  0
   15.8373  -11.1384   16.3373 C   0  0  0  0  0  0  0  0  0  0  0  0
   16.8954  -12.0710   16.1564 N   0  0  0  0  0  0  0  0  0  0  0  0
   17.1485  -13.0319   17.1851 C   0  0  0  0  0  0  0  0  0  0  0  0
   19.3235  -12.9876   18.1950 C   0  0  0  0  0  0  0  0  0  0  0  0
   19.4654  -14.4610   18.4497 C   0  0  0  0  0  0  0  0  0  0  0  0
   18.2424  -14.8400   19.2230 C   0  0  0  0  0  0  0  0  0  0  0  0
   17.5983  -13.6055   19.5333 N   0  0  0  0  0  0  0  0  0  0  0  0
   16.8677  -13.2554   20.6948 C   0  0  0  0  0  0  0  0  0  0  0  0
   15.9423  -14.1752   21.4252 C   0  0  2  0  0  0  0  0  0  0  0  0
   14.9331  -13.3357   22.1736 C   0  0  0  0  0  0  0  0  0  0  0  0
   14.2320  -14.0780   23.2659 C   0  0  0  0  0  0  0  0  0  0  0  0
   12.8059  -14.4103   22.8222 C   0  0  0  0  0  0  0  0  0  0  0  0
   12.2056  -13.2165   22.2500 N   0  0  0  0  0  0  0  0  0  0  0  0
   10.8722  -13.2195   21.7656 C   0  0  0  0  0  0  0  0  0  0  0  0
   10.5467  -13.7839   20.5117 N   0  0  0  0  0  0  0  0  0  0  0  0
    9.9374  -12.6978   22.4788 N   0  0  0  0  0  0  0  0  0  0  0  0
   16.7051  -14.9484   22.3880 N   0  0  0  0  0  0  0  0  0  0  0  0
   18.3383  -14.4305   22.5023 S   0  0  1  0  0  6  0  0  0  0  0  0
   19.0696  -14.6305   21.2036 O   0  0  0  0  0  0  0  0  0  0  0  0
   18.3054  -12.9347   22.7875 O   0  0  0  0  0  0  0  0  0  0  0  0
   19.2450  -15.2577   23.7767 C   0  0  0  0  0  0  0  0  0  0  0  0
   19.5984  -14.2603   24.8512 C   0  0  0  0  0  0  0  0  0  0  0  0
   18.8896  -13.0879   24.9730 C   0  0  0  0  0  0  0  0  0  0  0  0
   19.1690  -12.1312   25.9273 C   0  0  0  0  0  0  0  0  0  0  0  0
   20.2213  -12.3853   26.7980 C   0  0  0  0  0  0  0  0  0  0  0  0
   20.9310  -13.5700   26.6684 C   0  0  0  0  0  0  0  0  0  0  0  0
   10.1621  -12.0162   23.2495 H   0  0  0  0  0  0  0  0  0  0  0  0
 21  1  2  0
 16  2  2  0
 35  3  2  0
  3 39  1  0
  4 16  1  6
 17  4  1  1
 20  4  1  0
  5  8  1  0
  5 11  2  0
 14  5  1  0
  7  6  1  0
  8  7  2  0
  7  9  1  0
 10  9  2  0
 11 10  1  0
 12 11  1  1
 13 12  1  6
 14 15  1  6
 16 15  1  0
 18 17  1  0
 18 19  1  6
 19 20  1  6
 21 20  1  0
 22 21  1  0
 23 22  1  1
 22 30  1  1
 23 24  1  0
 24 25  1  6
 25 26  1  6
 26 27  1  0
 27 28  1  0
 27 29  2  0
 31 30  1  6
 31 32  2  0
 31 33  2  0
 34 31  1  0
 34 35  1  6
 35 36  1  0
 36 37  2  0
 37 38  1  0
 38 39  2  0
 29 40  1  0
M  CHG  1  13   1
M  END
$$$$
