
     RDKit          3D

 40 42  0  0  0  0  0  0  0  0999 V2000
   15.2021  -15.0108   21.3615 O   0  0  0  0  0  0  0  0  0  0  0  0
   18.1187  -12.7566   19.0626 O   0  0  0  0  0  0  0  0  0  0  0  0
   21.9176  -14.8810   24.4067 C   0  0  0  0  0  0  0  0  0  0  0  0
   17.1683  -12.5129   21.2586 C   0  0  2  0  0  0  0  0  0  0  0  0
   14.0121  -10.5155   19.5518 C   0  0  0  0  0  0  0  0  0  0  0  0
   13.0225   -8.0145   22.5441 Cl  0  0  0  0  0  0  0  0  0  0  0  0
   13.1585   -8.7467   20.9626 C   0  0  0  0  0  0  0  0  0  0  0  0
   13.8855   -9.9122   20.7821 C   0  0  0  0  0  0  0  0  0  0  0  0
   12.5356   -8.1570   19.8930 C   0  0  0  0  0  0  0  0  0  0  0  0
   12.6621   -8.7604   18.6599 C   0  0  0  0  0  0  0  0  0  0  0  0
   13.3880   -9.9235   18.4799 C   0  0  0  0  0  0  0  0  0  0  0  0
   13.4753  -10.4962   17.0854 C   0  0  0  0  0  0  0  0  0  0  0  0
   13.1183   -9.4786   16.1509 N   0  0  0  0  0  4  0  0  0  0  0  0
   14.7754  -11.7388   19.3926 C   0  0  0  0  0  0  0  0  0  0  0  0
   16.1772  -11.5720   19.0676 N   0  0  0  0  0  0  0  0  0  0  0  0
   17.1763  -12.2889   19.7638 C   0  0  0  0  0  0  0  0  0  0  0  0
   18.5179  -11.9951   21.7719 C   0  0  0  0  0  0  0  0  0  0  0  0
   19.3229  -13.2171   22.1448 C   0  0  0  0  0  0  0  0  0  0  0  0
   18.6160  -14.3177   21.3611 C   0  0  0  0  0  0  0  0  0  0  0  0
   17.2104  -13.9056   21.5893 N   0  0  0  0  0  0  0  0  0  0  0  0
   16.2531  -14.8001   22.0649 C   0  0  0  0  0  0  0  0  0  0  0  0
   16.3449  -15.5320   23.3261 C   0  0  2  0  0  0  0  0  0  0  0  0
   15.4733  -14.9622   24.4348 C   0  0  0  0  0  0  0  0  0  0  0  0
   14.0279  -14.9229   24.1831 C   0  0  0  0  0  0  0  0  0  0  0  0
   13.3145  -16.1616   24.7160 C   0  0  0  0  0  0  0  0  0  0  0  0
   12.5251  -15.9040   25.8835 N   0  0  0  0  0  0  0  0  0  0  0  0
   11.1944  -16.3613   25.9938 C   0  0  0  0  0  0  0  0  0  0  0  0
   10.2233  -15.8575   25.0761 N   0  0  0  0  0  0  0  0  0  0  0  0
   10.8356  -17.2229   26.9012 N   0  0  0  0  0  0  0  0  0  0  0  0
   17.7302  -15.4556   23.8498 N   0  0  0  0  0  0  0  0  0  0  0  0
   18.5404  -16.9495   23.7350 S   0  0  1  0  0  6  0  0  0  0  0  0
   18.2602  -17.8923   24.8410 O   0  0  0  0  0  0  0  0  0  0  0  0
   18.1607  -17.6700   22.4486 O   0  0  0  0  0  0  0  0  0  0  0  0
   20.2962  -16.6072   23.5624 C   0  0  0  0  0  0  0  0  0  0  0  0
   20.6941  -15.5046   24.4688 C   0  0  0  0  0  0  0  0  0  0  0  0
   19.8045  -15.0723   25.4355 C   0  0  0  0  0  0  0  0  0  0  0  0
   20.0872  -14.0616   26.3228 C   0  0  0  0  0  0  0  0  0  0  0  0
   21.3100  -13.4507   26.2479 C   0  0  0  0  0  0  0  0  0  0  0  0
   22.2199  -13.8691   25.2840 C   0  0  0  0  0  0  0  0  0  0  0  0
   11.5108  -17.6382   27.5711 H   0  0  0  0  0  0  0  0  0  0  0  0
 21  1  2  0
 16  2  2  0
 35  3  2  0
  3 39  1  0
  4 16  1  6
  4 17  1  0
 20  4  1  0
  5  8  1  0
  5 11  2  0
 14  5  1  0
  7  6  1  0
  8  7  2  0
  7  9  1  0
 10  9  2  0
 11 10  1  0
 11 12  1  0
 12 13  1  0
 15 14  1  0
 16 15  1  0
 18 17  1  0
 19 18  1  0
 20 19  1  0
 21 20  1  0
 22 21  1  0
 22 23  1  1
 30 22  1  0
 23 24  1  0
 24 25  1  0
 25 26  1  0
 26 27  1  0
 27 28  1  0
 27 29  2  0
 31 30  1  0
 31 32  2  0
 31 33  2  0
 31 34  1  6
 34 35  1  0
 35 36  1  0
 36 37  2  0
 37 38  1  0
 38 39  2  0
 29 40  1  0
M  CHG  1  13   1
M  END
$$$$
