
     RDKit          3D

 40 42  0  0  0  0  0  0  0  0999 V2000
   15.6989  -13.9824   19.0252 O   0  0  0  0  0  0  0  0  0  0  0  0
   18.8131  -12.4097   22.5750 O   0  0  0  0  0  0  0  0  0  0  0  0
   16.7955  -10.4268   15.3269 C   0  0  0  0  0  0  0  0  0  0  0  0
   17.9681  -13.8438   20.9054 C   0  0  2  0  0  0  0  0  0  0  0  0
   17.6278  -14.7591   25.7964 C   0  0  0  0  0  0  0  0  0  0  0  0
   15.2540  -13.7089   28.9086 Cl  0  0  0  0  0  0  0  0  0  0  0  0
   16.2460  -14.6403   27.7833 C   0  0  0  0  0  0  0  0  0  0  0  0
   16.8375  -14.0283   26.7015 C   0  0  0  0  0  0  0  0  0  0  0  0
   16.3939  -15.9868   28.0367 C   0  0  0  0  0  0  0  0  0  0  0  0
   17.1645  -16.7154   27.1597 C   0  0  0  0  0  0  0  0  0  0  0  0
   17.7739  -16.0949   26.0474 C   0  0  0  0  0  0  0  0  0  0  0  0
   18.5816  -16.9387   25.1528 C   0  0  0  0  0  0  0  0  0  0  0  0
   17.6766  -17.6163   24.2194 N   0  0  0  0  0  4  0  0  0  0  0  0
   18.2486  -14.0780   24.6703 C   0  0  0  0  0  0  0  0  0  0  0  0
   17.6115  -14.1779   23.4029 N   0  0  0  0  0  0  0  0  0  0  0  0
   18.1533  -13.4442   22.3012 C   0  0  0  0  0  0  0  0  0  0  0  0
   19.3899  -13.9930   20.3207 C   0  0  0  0  0  0  0  0  0  0  0  0
   19.7748  -12.5972   19.9215 C   0  0  0  0  0  0  0  0  0  0  0  0
   18.4855  -11.8412   19.8642 C   0  0  0  0  0  0  0  0  0  0  0  0
   17.4664  -12.8268   20.0225 N   0  0  0  0  0  0  0  0  0  0  0  0
   16.1792  -12.8722   19.4337 C   0  0  0  0  0  0  0  0  0  0  0  0
   15.2926  -11.6840   19.2380 C   0  0  2  0  0  0  0  0  0  0  0  0
   13.8883  -12.0693   19.6416 C   0  0  0  0  0  0  0  0  0  0  0  0
   13.4258  -11.4066   20.8996 C   0  0  0  0  0  0  0  0  0  0  0  0
   11.9038  -11.2527   20.8646 C   0  0  0  0  0  0  0  0  0  0  0  0
   11.5384  -10.0609   21.6122 N   0  0  0  0  0  0  0  0  0  0  0  0
   11.4487  -10.0753   23.0279 C   0  0  0  0  0  0  0  0  0  0  0  0
   11.3442  -11.2881   23.7457 N   0  0  0  0  0  0  0  0  0  0  0  0
   11.4613   -8.9639   23.6753 N   0  0  0  0  0  0  0  0  0  0  0  0
   15.2870  -11.3233   17.8321 N   0  0  0  0  0  0  0  0  0  0  0  0
   14.8676  -12.6424   16.8158 S   0  0  1  0  0  6  0  0  0  0  0  0
   14.9538  -13.9511   17.5516 O   0  0  0  0  0  0  0  0  0  0  0  0
   13.4146  -12.4374   16.4079 O   0  0  0  0  0  0  0  0  0  0  0  0
   15.8795  -12.7577   15.3691 C   0  0  0  0  0  0  0  0  0  0  0  0
   15.9910  -11.3914   14.7404 C   0  0  0  0  0  0  0  0  0  0  0  0
   15.3071  -11.0997   13.5833 C   0  0  0  0  0  0  0  0  0  0  0  0
   15.3746   -9.8736   12.9538 C   0  0  0  0  0  0  0  0  0  0  0  0
   16.1781   -8.9005   13.5347 C   0  0  0  0  0  0  0  0  0  0  0  0
   16.8645   -9.2028   14.7015 C   0  0  0  0  0  0  0  0  0  0  0  0
   11.3756   -8.9488   24.7249 H   0  0  0  0  0  0  0  0  0  0  0  0
 21  1  2  0
 16  2  2  0
 35  3  2  0
  3 39  1  0
  4 16  1  1
 17  4  1  1
 20  4  1  0
  5  8  1  0
  5 11  2  0
 14  5  1  0
  7  6  1  0
  8  7  2  0
  7  9  1  0
 10  9  2  0
 11 10  1  0
 12 11  1  1
 13 12  1  6
 14 15  1  6
 16 15  1  0
 18 17  1  0
 18 19  1  6
 19 20  1  6
 21 20  1  0
 22 21  1  0
 23 22  1  1
 22 30  1  6
 23 24  1  0
 24 25  1  6
 25 26  1  6
 26 27  1  0
 27 28  1  0
 27 29  2  0
 31 30  1  1
 31 32  2  0
 31 33  2  0
 34 31  1  0
 34 35  1  6
 35 36  1  0
 36 37  2  0
 37 38  1  0
 38 39  2  0
 29 40  1  0
M  CHG  1  13   1
M  END
$$$$
