
     RDKit          3D

 40 42  0  0  0  0  0  0  0  0999 V2000
   15.0669  -14.5744   21.3256 O   0  0  0  0  0  0  0  0  0  0  0  0
   18.1177  -11.2424   22.0590 O   0  0  0  0  0  0  0  0  0  0  0  0
   14.3846  -18.3925   18.9965 C   0  0  0  0  0  0  0  0  0  0  0  0
   17.6585  -13.3630   21.1367 C   0  0  2  0  0  0  0  0  0  0  0  0
   20.0044  -15.2808   23.2187 C   0  0  0  0  0  0  0  0  0  0  0  0
   20.7991  -17.5156   19.9326 Cl  0  0  0  0  0  0  0  0  0  0  0  0
   20.8782  -16.7990   21.5445 C   0  0  0  0  0  0  0  0  0  0  0  0
   19.9511  -15.8610   21.9387 C   0  0  0  0  0  0  0  0  0  0  0  0
   21.8976  -17.2168   22.3723 C   0  0  0  0  0  0  0  0  0  0  0  0
   21.9630  -16.6580   23.6283 C   0  0  0  0  0  0  0  0  0  0  0  0
   21.0161  -15.6948   24.0396 C   0  0  0  0  0  0  0  0  0  0  0  0
   21.1511  -15.1406   25.3958 C   0  0  0  0  0  0  0  0  0  0  0  0
   22.0451  -13.9804   25.3310 N   0  0  0  0  0  4  0  0  0  0  0  0
   19.0009  -14.3014   23.6072 C   0  0  0  0  0  0  0  0  0  0  0  0
   19.1663  -12.9658   23.1479 N   0  0  0  0  0  0  0  0  0  0  0  0
   18.3076  -12.4840   22.1106 C   0  0  0  0  0  0  0  0  0  0  0  0
   18.5650  -13.3439   19.8864 C   0  0  0  0  0  0  0  0  0  0  0  0
   18.1365  -12.1150   19.1367 C   0  0  0  0  0  0  0  0  0  0  0  0
   16.7951  -11.7662   19.6990 C   0  0  0  0  0  0  0  0  0  0  0  0
   16.4484  -12.8604   20.5462 N   0  0  0  0  0  0  0  0  0  0  0  0
   15.1705  -13.4182   20.7941 C   0  0  0  0  0  0  0  0  0  0  0  0
   13.8739  -12.7453   20.4746 C   0  0  2  0  0  0  0  0  0  0  0  0
   13.4878  -11.8783   21.6505 C   0  0  0  0  0  0  0  0  0  0  0  0
   12.0297  -11.9308   21.9774 C   0  0  0  0  0  0  0  0  0  0  0  0
   11.8345  -11.6905   23.4758 C   0  0  0  0  0  0  0  0  0  0  0  0
   11.6012  -10.2725   23.6941 N   0  0  0  0  0  0  0  0  0  0  0  0
   10.3797   -9.6579   23.3162 C   0  0  0  0  0  0  0  0  0  0  0  0
   10.2511   -8.2518   23.2586 N   0  0  0  0  0  0  0  0  0  0  0  0
    9.3657  -10.3918   23.0203 N   0  0  0  0  0  0  0  0  0  0  0  0
   12.8487  -13.7558   20.2891 N   0  0  0  0  0  0  0  0  0  0  0  0
   13.3696  -15.0446   19.2809 S   0  0  1  0  0  6  0  0  0  0  0  0
   12.2066  -15.8615   18.7895 O   0  0  0  0  0  0  0  0  0  0  0  0
   14.0339  -14.4103   18.0659 O   0  0  0  0  0  0  0  0  0  0  0  0
   14.5105  -16.1368   20.0782 C   0  0  0  0  0  0  0  0  0  0  0  0
   14.9980  -17.1519   19.0750 C   0  0  0  0  0  0  0  0  0  0  0  0
   16.0411  -16.8505   18.2308 C   0  0  0  0  0  0  0  0  0  0  0  0
   16.5271  -17.7305   17.2855 C   0  0  0  0  0  0  0  0  0  0  0  0
   15.9187  -18.9765   17.1999 C   0  0  0  0  0  0  0  0  0  0  0  0
   14.8674  -19.2723   18.0549 C   0  0  0  0  0  0  0  0  0  0  0  0
    8.4511   -9.9581   22.7294 H   0  0  0  0  0  0  0  0  0  0  0  0
 21  1  2  0
 16  2  2  0
 35  3  2  0
  3 39  1  0
  4 16  1  1
 17  4  1  1
 20  4  1  0
  5  8  1  0
  5 11  2  0
 14  5  1  0
  7  6  1  0
  8  7  2  0
  7  9  1  0
 10  9  2  0
 11 10  1  0
 12 11  1  1
 13 12  1  6
 14 15  1  6
 16 15  1  0
 18 17  1  0
 18 19  1  6
 19 20  1  6
 21 20  1  0
 22 21  1  0
 23 22  1  1
 22 30  1  1
 23 24  1  0
 24 25  1  6
 25 26  1  6
 26 27  1  0
 27 28  1  0
 27 29  2  0
 31 30  1  1
 31 32  2  0
 31 33  2  0
 34 31  1  0
 34 35  1  6
 35 36  1  0
 36 37  2  0
 37 38  1  0
 38 39  2  0
 29 40  1  0
M  CHG  1  13   1
M  END
$$$$
