
     RDKit          3D

 40 42  0  0  0  0  0  0  0  0999 V2000
   15.4403  -13.7159   22.7535 O   0  0  0  0  0  0  0  0  0  0  0  0
   17.7877  -11.2981   19.9876 O   0  0  0  0  0  0  0  0  0  0  0  0
   15.0106  -18.4249   24.6133 C   0  0  0  0  0  0  0  0  0  0  0  0
   17.6252  -13.5085   20.7917 C   0  0  2  0  0  0  0  0  0  0  0  0
   19.6914  -12.2208   24.1229 C   0  0  0  0  0  0  0  0  0  0  0  0
   23.2093  -11.2184   25.8675 Cl  0  0  0  0  0  0  0  0  0  0  0  0
   21.7377  -12.0821   25.4133 C   0  0  0  0  0  0  0  0  0  0  0  0
   20.8681  -11.5445   24.4915 C   0  0  0  0  0  0  0  0  0  0  0  0
   21.5064  -13.2983   26.0185 C   0  0  0  0  0  0  0  0  0  0  0  0
   20.3588  -13.9722   25.6680 C   0  0  0  0  0  0  0  0  0  0  0  0
   19.4617  -13.4270   24.7239 C   0  0  0  0  0  0  0  0  0  0  0  0
   18.2550  -14.2042   24.4008 C   0  0  0  0  0  0  0  0  0  0  0  0
   18.6471  -15.3248   23.5404 N   0  0  0  0  0  4  0  0  0  0  0  0
   18.8005  -11.6294   23.1360 C   0  0  0  0  0  0  0  0  0  0  0  0
   19.1671  -11.7338   21.7660 N   0  0  0  0  0  0  0  0  0  0  0  0
   18.1802  -12.1544   20.8202 C   0  0  0  0  0  0  0  0  0  0  0  0
   18.1366  -14.1427   19.4795 C   0  0  0  0  0  0  0  0  0  0  0  0
   17.1654  -13.6695   18.4360 C   0  0  0  0  0  0  0  0  0  0  0  0
   15.9675  -13.2070   19.2031 C   0  0  0  0  0  0  0  0  0  0  0  0
   16.2113  -13.6024   20.5520 N   0  0  0  0  0  0  0  0  0  0  0  0
   15.2829  -14.0389   21.5284 C   0  0  0  0  0  0  0  0  0  0  0  0
   14.0819  -14.8821   21.2410 C   0  0  2  0  0  0  0  0  0  0  0  0
   12.8537  -14.1266   21.6929 C   0  0  0  0  0  0  0  0  0  0  0  0
   12.3663  -13.1272   20.6933 C   0  0  0  0  0  0  0  0  0  0  0  0
   11.5276  -12.0630   21.4041 C   0  0  0  0  0  0  0  0  0  0  0  0
   10.7707  -12.7004   22.4689 N   0  0  0  0  0  0  0  0  0  0  0  0
   10.7306  -12.1526   23.7769 C   0  0  0  0  0  0  0  0  0  0  0  0
   11.4100  -10.9546   24.0934 N   0  0  0  0  0  0  0  0  0  0  0  0
   10.0643  -12.7561   24.6968 N   0  0  0  0  0  0  0  0  0  0  0  0
   14.1739  -16.1135   22.0039 N   0  0  0  0  0  0  0  0  0  0  0  0
   15.0716  -17.3282   21.1872 S   0  0  1  0  0  6  0  0  0  0  0  0
   14.1871  -18.1630   20.3026 O   0  0  0  0  0  0  0  0  0  0  0  0
   16.0713  -16.6079   20.2919 O   0  0  0  0  0  0  0  0  0  0  0  0
   15.9340  -18.4152   22.2849 C   0  0  0  0  0  0  0  0  0  0  0  0
   14.9680  -18.9291   23.3228 C   0  0  0  0  0  0  0  0  0  0  0  0
   14.0385  -19.8881   22.9940 C   0  0  0  0  0  0  0  0  0  0  0  0
   13.1215  -20.3921   23.8936 C   0  0  0  0  0  0  0  0  0  0  0  0
   13.1571  -19.8929   25.1896 C   0  0  0  0  0  0  0  0  0  0  0  0
   14.0976  -18.9260   25.5129 C   0  0  0  0  0  0  0  0  0  0  0  0
    9.5996  -13.6823   24.5083 H   0  0  0  0  0  0  0  0  0  0  0  0
 21  1  2  0
 16  2  2  0
 35  3  2  0
  3 39  1  0
  4 16  1  6
 17  4  1  1
 20  4  1  0
  5  8  1  0
  5 11  2  0
 14  5  1  0
  7  6  1  0
  8  7  2  0
  7  9  1  0
 10  9  2  0
 11 10  1  0
 12 11  1  1
 13 12  1  6
 14 15  1  6
 16 15  1  0
 18 17  1  0
 18 19  1  6
 19 20  1  6
 21 20  1  0
 22 21  1  0
 23 22  1  1
 22 30  1  1
 23 24  1  0
 24 25  1  6
 25 26  1  6
 26 27  1  0
 27 28  1  0
 27 29  2  0
 31 30  1  1
 31 32  2  0
 31 33  2  0
 34 31  1  0
 34 35  1  6
 35 36  1  0
 36 37  2  0
 37 38  1  0
 38 39  2  0
 29 40  1  0
M  CHG  1  13   1
M  END
$$$$
