
     RDKit          3D

 40 42  0  0  0  0  0  0  0  0999 V2000
   17.0385  -13.2037   23.1129 O   0  0  0  0  0  0  0  0  0  0  0  0
   16.3702  -11.2940   18.5062 O   0  0  0  0  0  0  0  0  0  0  0  0
   19.6627  -13.5410   24.6228 C   0  0  0  0  0  0  0  0  0  0  0  0
   17.4729  -11.6037   20.6211 C   0  0  2  0  0  0  0  0  0  0  0  0
   13.7017   -9.6143   21.9270 C   0  0  0  0  0  0  0  0  0  0  0  0
   11.9986   -6.9519   24.4168 Cl  0  0  0  0  0  0  0  0  0  0  0  0
   12.3274   -8.4104   23.5112 C   0  0  0  0  0  0  0  0  0  0  0  0
   13.4134   -8.4819   22.6538 C   0  0  0  0  0  0  0  0  0  0  0  0
   11.4983   -9.4928   23.6559 C   0  0  0  0  0  0  0  0  0  0  0  0
   11.7861  -10.6277   22.9279 C   0  0  0  0  0  0  0  0  0  0  0  0
   12.8699  -10.6987   22.0721 C   0  0  0  0  0  0  0  0  0  0  0  0
   13.0890  -11.9842   21.3107 C   0  0  0  0  0  0  0  0  0  0  0  0
   12.9064  -11.7273   19.9191 N   0  0  0  0  0  4  0  0  0  0  0  0
   14.8489   -9.6631   21.0404 C   0  0  0  0  0  0  0  0  0  0  0  0
   15.0142  -10.8890   20.2866 N   0  0  0  0  0  0  0  0  0  0  0  0
   16.2748  -11.2595   19.7664 C   0  0  0  0  0  0  0  0  0  0  0  0
   18.7064  -11.3355   19.7494 C   0  0  0  0  0  0  0  0  0  0  0  0
   19.2659  -12.6898   19.3844 C   0  0  0  0  0  0  0  0  0  0  0  0
   18.0687  -13.6046   19.6187 C   0  0  0  0  0  0  0  0  0  0  0  0
   17.5588  -13.0100   20.8773 N   0  0  0  0  0  0  0  0  0  0  0  0
   17.2988  -13.7899   22.0028 C   0  0  0  0  0  0  0  0  0  0  0  0
   17.3011  -15.2507   22.0276 C   0  0  2  0  0  0  0  0  0  0  0  0
   16.0468  -15.8594   22.6358 C   0  0  0  0  0  0  0  0  0  0  0  0
   14.7729  -15.5335   21.9841 C   0  0  0  0  0  0  0  0  0  0  0  0
   14.6632  -16.1455   20.5910 C   0  0  0  0  0  0  0  0  0  0  0  0
   13.3542  -16.6449   20.2915 N   0  0  0  0  0  0  0  0  0  0  0  0
   12.1959  -15.8718   20.5211 C   0  0  0  0  0  0  0  0  0  0  0  0
   12.3062  -14.7071   21.3398 N   0  0  0  0  0  0  0  0  0  0  0  0
   11.0426  -16.1910   20.0089 N   0  0  0  0  0  0  0  0  0  0  0  0
   18.4144  -15.7355   22.8790 N   0  0  0  0  0  0  0  0  0  0  0  0
   17.9512  -15.8894   24.5108 S   0  0  1  0  0  6  0  0  0  0  0  0
   16.9685  -14.8836   24.9729 O   0  0  0  0  0  0  0  0  0  0  0  0
   17.3236  -17.2530   24.7656 O   0  0  0  0  0  0  0  0  0  0  0  0
   19.4473  -15.8850   25.5065 C   0  0  0  0  0  0  0  0  0  0  0  0
   20.1163  -14.5657   25.4190 C   0  0  0  0  0  0  0  0  0  0  0  0
   21.2589  -14.3385   26.1643 C   0  0  0  0  0  0  0  0  0  0  0  0
   21.9494  -13.1504   26.1433 C   0  0  0  0  0  0  0  0  0  0  0  0
   21.4847  -12.1399   25.3454 C   0  0  0  0  0  0  0  0  0  0  0  0
   20.3380  -12.3461   24.5874 C   0  0  0  0  0  0  0  0  0  0  0  0
   10.9253  -16.9926   19.3600 H   0  0  0  0  0  0  0  0  0  0  0  0
 21  1  2  0
 16  2  2  0
 35  3  2  0
  3 39  1  0
  4 16  1  6
  4 17  1  0
 20  4  1  0
  5  8  1  0
  5 11  2  0
 14  5  1  0
  7  6  1  0
  8  7  2  0
  7  9  1  0
 10  9  2  0
 11 10  1  0
 11 12  1  0
 12 13  1  0
 15 14  1  0
 16 15  1  0
 18 17  1  0
 19 18  1  0
 20 19  1  0
 21 20  1  0
 22 21  1  0
 22 23  1  1
 30 22  1  0
 23 24  1  0
 24 25  1  0
 25 26  1  0
 26 27  1  0
 27 28  1  0
 27 29  2  0
 31 30  1  0
 31 32  2  0
 31 33  2  0
 31 34  1  1
 34 35  1  0
 35 36  1  0
 36 37  2  0
 37 38  1  0
 38 39  2  0
 29 40  1  0
M  CHG  1  13   1
M  END
$$$$
