
     RDKit          3D

 40 42  0  0  0  0  0  0  0  0999 V2000
   15.5553  -14.5331   22.0549 O   0  0  0  0  0  0  0  0  0  0  0  0
   17.5612  -10.6319   21.4294 O   0  0  0  0  0  0  0  0  0  0  0  0
   15.3673  -18.6413   18.0863 C   0  0  0  0  0  0  0  0  0  0  0  0
   17.5416  -12.8428   20.4826 C   0  0  2  0  0  0  0  0  0  0  0  0
   20.0948  -13.4602   24.1458 C   0  0  0  0  0  0  0  0  0  0  0  0
   24.0523  -13.2230   24.8309 Cl  0  0  0  0  0  0  0  0  0  0  0  0
   22.3300  -13.4051   25.0670 C   0  0  0  0  0  0  0  0  0  0  0  0
   21.4556  -13.3206   23.9956 C   0  0  0  0  0  0  0  0  0  0  0  0
   21.8451  -13.6348   26.3287 C   0  0  0  0  0  0  0  0  0  0  0  0
   20.4819  -13.7744   26.4803 C   0  0  0  0  0  0  0  0  0  0  0  0
   19.6093  -13.6899   25.4109 C   0  0  0  0  0  0  0  0  0  0  0  0
   18.1327  -13.8440   25.6867 C   0  0  0  0  0  0  0  0  0  0  0  0
   17.6332  -14.9287   24.9058 N   0  0  0  0  0  4  0  0  0  0  0  0
   19.2027  -13.3723   23.0052 C   0  0  0  0  0  0  0  0  0  0  0  0
   19.0226  -12.0492   22.4434 N   0  0  0  0  0  0  0  0  0  0  0  0
   18.0362  -11.8032   21.4619 C   0  0  0  0  0  0  0  0  0  0  0  0
   17.8464  -12.2877   19.0854 C   0  0  0  0  0  0  0  0  0  0  0  0
   16.5162  -11.8891   18.4920 C   0  0  0  0  0  0  0  0  0  0  0  0
   15.6392  -11.7560   19.7323 C   0  0  0  0  0  0  0  0  0  0  0  0
   16.1130  -12.9415   20.4858 N   0  0  0  0  0  0  0  0  0  0  0  0
   15.2254  -13.8860   20.9984 C   0  0  0  0  0  0  0  0  0  0  0  0
   13.9239  -14.2118   20.4202 C   0  0  2  0  0  0  0  0  0  0  0  0
   12.7870  -13.3383   20.9282 C   0  0  0  0  0  0  0  0  0  0  0  0
   13.1415  -11.9828   21.3654 C   0  0  0  0  0  0  0  0  0  0  0  0
   11.9327  -11.2064   21.8786 C   0  0  0  0  0  0  0  0  0  0  0  0
   11.9077  -11.0724   23.3048 N   0  0  0  0  0  0  0  0  0  0  0  0
   11.5090   -9.8710   23.9291 C   0  0  0  0  0  0  0  0  0  0  0  0
   12.1723   -8.6608   23.5626 N   0  0  0  0  0  0  0  0  0  0  0  0
   10.5605   -9.8401   24.8202 N   0  0  0  0  0  0  0  0  0  0  0  0
   13.5416  -15.5949   20.7945 N   0  0  0  0  0  0  0  0  0  0  0  0
   12.5058  -16.3056   19.6442 S   0  0  1  0  0  6  0  0  0  0  0  0
   11.5893  -17.3329   20.1876 O   0  0  0  0  0  0  0  0  0  0  0  0
   11.6277  -15.2501   18.9862 O   0  0  0  0  0  0  0  0  0  0  0  0
   13.5266  -16.9432   18.3096 C   0  0  0  0  0  0  0  0  0  0  0  0
   14.2939  -18.1237   18.7715 C   0  0  0  0  0  0  0  0  0  0  0  0
   13.9216  -18.7524   19.9458 C   0  0  0  0  0  0  0  0  0  0  0  0
   14.5691  -19.8553   20.4490 C   0  0  0  0  0  0  0  0  0  0  0  0
   15.6362  -20.3585   19.7548 C   0  0  0  0  0  0  0  0  0  0  0  0
   16.0279  -19.7426   18.5719 C   0  0  0  0  0  0  0  0  0  0  0  0
   10.0857  -10.6996   25.1565 H   0  0  0  0  0  0  0  0  0  0  0  0
 21  1  2  0
 16  2  2  0
 35  3  2  0
  3 39  1  0
  4 16  1  1
  4 17  1  0
 20  4  1  0
  5  8  1  0
  5 11  2  0
 14  5  1  0
  7  6  1  0
  8  7  2  0
  7  9  1  0
 10  9  2  0
 11 10  1  0
 11 12  1  0
 12 13  1  0
 15 14  1  0
 16 15  1  0
 18 17  1  0
 19 18  1  0
 20 19  1  0
 21 20  1  0
 22 21  1  0
 22 23  1  1
 30 22  1  0
 23 24  1  0
 24 25  1  0
 25 26  1  0
 26 27  1  0
 27 28  1  0
 27 29  2  0
 31 30  1  0
 31 32  2  0
 31 33  2  0
 31 34  1  6
 34 35  1  0
 35 36  1  0
 36 37  2  0
 37 38  1  0
 38 39  2  0
 29 40  1  0
M  CHG  1  13   1
M  END
$$$$
