
     RDKit          3D

 40 42  0  0  0  0  0  0  0  0999 V2000
   16.0441  -15.2359   21.1728 O   0  0  0  0  0  0  0  0  0  0  0  0
   18.1000  -11.2785   19.5995 O   0  0  0  0  0  0  0  0  0  0  0  0
   14.6352  -19.6787   21.3534 C   0  0  0  0  0  0  0  0  0  0  0  0
   17.8072  -13.6177   19.6229 C   0  0  2  0  0  0  0  0  0  0  0  0
   19.4809  -12.2571   23.6679 C   0  0  0  0  0  0  0  0  0  0  0  0
   22.5380  -11.3538   26.1703 Cl  0  0  0  0  0  0  0  0  0  0  0  0
   21.1374  -12.1357   25.4321 C   0  0  0  0  0  0  0  0  0  0  0  0
   20.5977  -11.6452   24.2647 C   0  0  0  0  0  0  0  0  0  0  0  0
   20.6199  -13.2405   26.0729 C   0  0  0  0  0  0  0  0  0  0  0  0
   19.5267  -13.8503   25.5009 C   0  0  0  0  0  0  0  0  0  0  0  0
   18.9671  -13.3526   24.3040 C   0  0  0  0  0  0  0  0  0  0  0  0
   17.7981  -14.0559   23.7529 C   0  0  0  0  0  0  0  0  0  0  0  0
   18.2729  -15.2409   23.0319 N   0  0  0  0  0  4  0  0  0  0  0  0
   18.9434  -11.7198   22.4270 C   0  0  0  0  0  0  0  0  0  0  0  0
   19.3345  -12.3441   21.2107 N   0  0  0  0  0  0  0  0  0  0  0  0
   18.4037  -12.3792   20.1254 C   0  0  0  0  0  0  0  0  0  0  0  0
   18.1648  -13.6752   18.1214 C   0  0  0  0  0  0  0  0  0  0  0  0
   17.1090  -12.8389   17.4567 C   0  0  0  0  0  0  0  0  0  0  0  0
   16.0088  -12.7313   18.4643 C   0  0  0  0  0  0  0  0  0  0  0  0
   16.3741  -13.6253   19.5142 N   0  0  0  0  0  0  0  0  0  0  0  0
   15.5352  -14.4230   20.3300 C   0  0  0  0  0  0  0  0  0  0  0  0
   14.0406  -14.3985   20.2911 C   0  0  2  0  0  0  0  0  0  0  0  0
   13.5381  -13.9801   21.6534 C   0  0  0  0  0  0  0  0  0  0  0  0
   12.8849  -12.6351   21.6615 C   0  0  0  0  0  0  0  0  0  0  0  0
   12.9639  -12.0388   23.0683 C   0  0  0  0  0  0  0  0  0  0  0  0
   11.6274  -11.6468   23.4843 N   0  0  0  0  0  0  0  0  0  0  0  0
   11.0915  -10.3771   23.1478 C   0  0  0  0  0  0  0  0  0  0  0  0
   11.6749   -9.1825   23.6268 N   0  0  0  0  0  0  0  0  0  0  0  0
   10.0528  -10.3073   22.3925 N   0  0  0  0  0  0  0  0  0  0  0  0
   13.5518  -15.7356   20.0088 N   0  0  0  0  0  0  0  0  0  0  0  0
   14.5730  -16.9586   20.6493 S   0  0  1  0  0  6  0  0  0  0  0  0
   14.5385  -18.2012   19.8031 O   0  0  0  0  0  0  0  0  0  0  0  0
   15.9936  -16.4109   20.6068 O   0  0  0  0  0  0  0  0  0  0  0  0
   14.1615  -17.4124   22.3091 C   0  0  0  0  0  0  0  0  0  0  0  0
   14.2484  -18.9122   22.4416 C   0  0  0  0  0  0  0  0  0  0  0  0
   13.9556  -19.5232   23.6386 C   0  0  0  0  0  0  0  0  0  0  0  0
   14.0254  -20.8883   23.8275 C   0  0  0  0  0  0  0  0  0  0  0  0
   14.4117  -21.6647   22.7422 C   0  0  0  0  0  0  0  0  0  0  0  0
   14.7053  -21.0406   21.5387 C   0  0  0  0  0  0  0  0  0  0  0  0
    9.6087   -9.3790   22.1685 H   0  0  0  0  0  0  0  0  0  0  0  0
 21  1  2  0
 16  2  2  0
 35  3  2  0
  3 39  1  0
  4 16  1  6
 17  4  1  1
 20  4  1  0
  5  8  1  0
  5 11  2  0
 14  5  1  0
  7  6  1  0
  8  7  2  0
  7  9  1  0
 10  9  2  0
 11 10  1  0
 12 11  1  1
 13 12  1  6
 14 15  1  6
 16 15  1  0
 18 17  1  0
 18 19  1  6
 19 20  1  6
 21 20  1  0
 22 21  1  0
 23 22  1  1
 22 30  1  1
 23 24  1  0
 24 25  1  6
 25 26  1  6
 26 27  1  0
 27 28  1  0
 27 29  2  0
 31 30  1  6
 31 32  2  0
 31 33  2  0
 34 31  1  0
 34 35  1  6
 35 36  1  0
 36 37  2  0
 37 38  1  0
 38 39  2  0
 29 40  1  0
M  CHG  1  13   1
M  END
$$$$
