
     RDKit          3D

 40 42  0  0  0  0  0  0  0  0999 V2000
   16.4194  -13.1608   23.5876 O   0  0  0  0  0  0  0  0  0  0  0  0
   17.4595  -12.2621   19.0476 O   0  0  0  0  0  0  0  0  0  0  0  0
   17.2315  -17.0612   27.0576 C   0  0  0  0  0  0  0  0  0  0  0  0
   17.8228  -12.0364   21.3662 C   0  0  2  0  0  0  0  0  0  0  0  0
   14.0779   -9.6224   20.3520 C   0  0  0  0  0  0  0  0  0  0  0  0
   13.5575   -7.4586   23.7389 Cl  0  0  0  0  0  0  0  0  0  0  0  0
   13.3845   -8.0956   22.1012 C   0  0  0  0  0  0  0  0  0  0  0  0
   14.2036   -9.1078   21.6549 C   0  0  0  0  0  0  0  0  0  0  0  0
   12.4074   -7.5372   21.3060 C   0  0  0  0  0  0  0  0  0  0  0  0
   12.2722   -8.0303   20.0283 C   0  0  0  0  0  0  0  0  0  0  0  0
   13.1091   -9.0679   19.5630 C   0  0  0  0  0  0  0  0  0  0  0  0
   12.9066   -9.5421   18.1850 C   0  0  0  0  0  0  0  0  0  0  0  0
   14.1674   -9.3814   17.4541 N   0  0  0  0  0  4  0  0  0  0  0  0
   14.9521  -10.7012   19.9169 C   0  0  0  0  0  0  0  0  0  0  0  0
   16.3558  -10.4837   19.9830 N   0  0  0  0  0  0  0  0  0  0  0  0
   17.2224  -11.6155   20.0994 C   0  0  0  0  0  0  0  0  0  0  0  0
   19.3501  -11.9382   21.1583 C   0  0  0  0  0  0  0  0  0  0  0  0
   19.7182  -13.2351   20.4961 C   0  0  0  0  0  0  0  0  0  0  0  0
   18.5599  -14.1452   20.7559 C   0  0  0  0  0  0  0  0  0  0  0  0
   17.7260  -13.4374   21.6718 N   0  0  0  0  0  0  0  0  0  0  0  0
   16.9343  -13.9515   22.7276 C   0  0  0  0  0  0  0  0  0  0  0  0
   16.6342  -15.4016   22.9353 C   0  0  2  0  0  0  0  0  0  0  0  0
   15.2030  -15.6533   22.5207 C   0  0  0  0  0  0  0  0  0  0  0  0
   14.9719  -15.5018   21.0512 C   0  0  0  0  0  0  0  0  0  0  0  0
   13.5034  -15.7916   20.7339 C   0  0  0  0  0  0  0  0  0  0  0  0
   13.1781  -17.1260   21.2096 N   0  0  0  0  0  0  0  0  0  0  0  0
   12.2615  -17.3282   22.2734 C   0  0  0  0  0  0  0  0  0  0  0  0
   11.9596  -18.6248   22.7473 N   0  0  0  0  0  0  0  0  0  0  0  0
   11.6906  -16.3134   22.8198 N   0  0  0  0  0  0  0  0  0  0  0  0
   16.7689  -15.7160   24.3459 N   0  0  0  0  0  0  0  0  0  0  0  0
   18.4048  -15.7126   24.8677 S   0  0  1  0  0  6  0  0  0  0  0  0
   19.3159  -15.1465   23.8137 O   0  0  0  0  0  0  0  0  0  0  0  0
   18.4765  -14.7945   26.0809 O   0  0  0  0  0  0  0  0  0  0  0  0
   19.0013  -17.3201   25.3041 C   0  0  0  0  0  0  0  0  0  0  0  0
   18.1284  -17.8856   26.3962 C   0  0  0  0  0  0  0  0  0  0  0  0
   18.2100  -19.2166   26.7333 C   0  0  0  0  0  0  0  0  0  0  0  0
   17.4331  -19.7968   27.7151 C   0  0  0  0  0  0  0  0  0  0  0  0
   16.5316  -18.9781   28.3836 C   0  0  0  0  0  0  0  0  0  0  0  0
   16.4556  -17.6370   28.0376 C   0  0  0  0  0  0  0  0  0  0  0  0
   11.9715  -15.3316   22.5622 H   0  0  0  0  0  0  0  0  0  0  0  0
 21  1  2  0
 16  2  2  0
 35  3  2  0
  3 39  1  0
  4 16  1  6
 17  4  1  1
 20  4  1  0
  5  8  1  0
  5 11  2  0
 14  5  1  0
  7  6  1  0
  8  7  2  0
  7  9  1  0
 10  9  2  0
 11 10  1  0
 12 11  1  1
 13 12  1  6
 14 15  1  6
 16 15  1  0
 18 17  1  0
 18 19  1  6
 19 20  1  6
 21 20  1  0
 22 21  1  0
 23 22  1  1
 22 30  1  1
 23 24  1  0
 24 25  1  6
 25 26  1  6
 26 27  1  0
 27 28  1  0
 27 29  2  0
 31 30  1  6
 31 32  2  0
 31 33  2  0
 34 31  1  0
 34 35  1  6
 35 36  1  0
 36 37  2  0
 37 38  1  0
 38 39  2  0
 29 40  1  0
M  CHG  1  13   1
M  END
$$$$
