
     RDKit          3D

 40 42  0  0  0  0  0  0  0  0999 V2000
   17.1805  -13.5561   20.9553 O   0  0  0  0  0  0  0  0  0  0  0  0
   15.7382  -12.1847   16.9240 O   0  0  0  0  0  0  0  0  0  0  0  0
   18.7182  -14.4012   23.5384 C   0  0  0  0  0  0  0  0  0  0  0  0
   17.1114  -13.8526   17.9812 C   0  0  2  0  0  0  0  0  0  0  0  0
   19.9399  -12.0779   18.1312 C   0  0  0  0  0  0  0  0  0  0  0  0
   21.4459   -9.1281   20.4157 Cl  0  0  0  0  0  0  0  0  0  0  0  0
   20.9316  -10.7018   19.8548 C   0  0  0  0  0  0  0  0  0  0  0  0
   20.3548  -10.8540   18.6043 C   0  0  0  0  0  0  0  0  0  0  0  0
   21.1045  -11.7939   20.6654 C   0  0  0  0  0  0  0  0  0  0  0  0
   20.6888  -13.0205   20.1926 C   0  0  0  0  0  0  0  0  0  0  0  0
   20.1129  -13.1721   18.9446 C   0  0  0  0  0  0  0  0  0  0  0  0
   19.6799  -14.5573   18.5272 C   0  0  0  0  0  0  0  0  0  0  0  0
   20.8302  -15.2861   18.1009 N   0  0  0  0  0  4  0  0  0  0  0  0
   19.3436  -12.2090   16.8152 C   0  0  0  0  0  0  0  0  0  0  0  0
   17.9649  -11.7797   16.6997 N   0  0  0  0  0  0  0  0  0  0  0  0
   16.9091  -12.5825   17.1871 C   0  0  0  0  0  0  0  0  0  0  0  0
   16.8412  -15.0079   17.0087 C   0  0  0  0  0  0  0  0  0  0  0  0
   15.5192  -15.6074   17.4250 C   0  0  0  0  0  0  0  0  0  0  0  0
   14.8956  -14.4763   18.2354 C   0  0  0  0  0  0  0  0  0  0  0  0
   16.0973  -14.0259   18.9774 N   0  0  0  0  0  0  0  0  0  0  0  0
   16.0912  -13.8835   20.3639 C   0  0  0  0  0  0  0  0  0  0  0  0
   14.9247  -14.0835   21.2206 C   0  0  2  0  0  0  0  0  0  0  0  0
   14.0532  -12.8464   21.3747 C   0  0  0  0  0  0  0  0  0  0  0  0
   12.8169  -13.0031   22.1501 C   0  0  0  0  0  0  0  0  0  0  0  0
   11.9389  -11.7568   22.0960 C   0  0  0  0  0  0  0  0  0  0  0  0
   10.7629  -11.8549   22.9084 N   0  0  0  0  0  0  0  0  0  0  0  0
   10.5882  -11.0558   24.0585 C   0  0  0  0  0  0  0  0  0  0  0  0
    9.6902  -11.5089   25.0721 N   0  0  0  0  0  0  0  0  0  0  0  0
   11.2202   -9.9288   24.2162 N   0  0  0  0  0  0  0  0  0  0  0  0
   15.3653  -14.4162   22.5969 N   0  0  0  0  0  0  0  0  0  0  0  0
   15.5991  -16.0903   22.8063 S   0  0  1  0  0  6  0  0  0  0  0  0
   14.9227  -16.6666   23.9900 O   0  0  0  0  0  0  0  0  0  0  0  0
   15.0838  -16.8608   21.5984 O   0  0  0  0  0  0  0  0  0  0  0  0
   17.3698  -16.3976   22.8191 C   0  0  0  0  0  0  0  0  0  0  0  0
   18.0286  -15.5511   23.8413 C   0  0  0  0  0  0  0  0  0  0  0  0
   17.9615  -15.9248   25.1712 C   0  0  0  0  0  0  0  0  0  0  0  0
   18.5457  -15.2066   26.1870 C   0  0  0  0  0  0  0  0  0  0  0  0
   19.2288  -14.0639   25.8688 C   0  0  0  0  0  0  0  0  0  0  0  0
   19.3092  -13.6692   24.5385 C   0  0  0  0  0  0  0  0  0  0  0  0
   11.9644   -9.6131   23.5652 H   0  0  0  0  0  0  0  0  0  0  0  0
 21  1  2  0
 16  2  2  0
 35  3  2  0
  3 39  1  0
  4 16  1  6
  4 17  1  0
 20  4  1  0
  5  8  1  0
  5 11  2  0
 14  5  1  0
  7  6  1  0
  8  7  2  0
  7  9  1  0
 10  9  2  0
 11 10  1  0
 11 12  1  0
 12 13  1  0
 15 14  1  0
 16 15  1  0
 18 17  1  0
 19 18  1  0
 20 19  1  0
 21 20  1  0
 22 21  1  0
 22 23  1  1
 30 22  1  0
 23 24  1  0
 24 25  1  0
 25 26  1  0
 26 27  1  0
 27 28  1  0
 27 29  2  0
 31 30  1  0
 31 32  2  0
 31 33  2  0
 31 34  1  1
 34 35  1  0
 35 36  1  0
 36 37  2  0
 37 38  1  0
 38 39  2  0
 29 40  1  0
M  CHG  1  13   1
M  END
$$$$
