
     RDKit          3D

 40 42  0  0  0  0  0  0  0  0999 V2000
   17.4230  -12.8082   23.3685 O   0  0  0  0  0  0  0  0  0  0  0  0
   17.3515  -12.1260   18.5451 O   0  0  0  0  0  0  0  0  0  0  0  0
   18.7465  -14.1158   25.7054 C   0  0  0  0  0  0  0  0  0  0  0  0
   18.0884  -11.7388   20.7509 C   0  0  2  0  0  0  0  0  0  0  0  0
   14.0601  -11.1210   19.9001 C   0  0  0  0  0  0  0  0  0  0  0  0
   12.7959  -14.8690   20.7823 Cl  0  0  0  0  0  0  0  0  0  0  0  0
   12.9703  -13.1122   20.7480 C   0  0  0  0  0  0  0  0  0  0  0  0
   13.9092  -12.5188   19.9349 C   0  0  0  0  0  0  0  0  0  0  0  0
   12.1359  -12.3784   21.5629 C   0  0  0  0  0  0  0  0  0  0  0  0
   12.2715  -11.0091   21.5399 C   0  0  0  0  0  0  0  0  0  0  0  0
   13.2327  -10.3931   20.7091 C   0  0  0  0  0  0  0  0  0  0  0  0
   13.3206   -8.9248   20.7394 C   0  0  0  0  0  0  0  0  0  0  0  0
   12.0731   -8.3787   20.1962 N   0  0  0  0  0  4  0  0  0  0  0  0
   15.0542  -10.5261   19.0196 C   0  0  0  0  0  0  0  0  0  0  0  0
   16.3599  -10.3152   19.5418 N   0  0  0  0  0  0  0  0  0  0  0  0
   17.2714  -11.4167   19.5800 C   0  0  0  0  0  0  0  0  0  0  0  0
   19.5555  -11.6172   20.2836 C   0  0  0  0  0  0  0  0  0  0  0  0
   19.8536  -12.9454   19.6488 C   0  0  0  0  0  0  0  0  0  0  0  0
   18.7872  -13.8644   20.1544 C   0  0  0  0  0  0  0  0  0  0  0  0
   18.0929  -13.1186   21.1529 N   0  0  0  0  0  0  0  0  0  0  0  0
   17.5063  -13.5815   22.3559 C   0  0  0  0  0  0  0  0  0  0  0  0
   16.9515  -14.9555   22.5562 C   0  0  2  0  0  0  0  0  0  0  0  0
   15.4842  -14.9311   22.1957 C   0  0  0  0  0  0  0  0  0  0  0  0
   14.7324  -16.1323   22.6728 C   0  0  0  0  0  0  0  0  0  0  0  0
   13.2476  -15.9688   22.3413 C   0  0  0  0  0  0  0  0  0  0  0  0
   13.0749  -16.0901   20.9031 N   0  0  0  0  0  0  0  0  0  0  0  0
   11.7966  -15.9705   20.2997 C   0  0  0  0  0  0  0  0  0  0  0  0
   10.6109  -16.0949   21.0584 N   0  0  0  0  0  0  0  0  0  0  0  0
   11.7105  -15.7453   19.0362 N   0  0  0  0  0  0  0  0  0  0  0  0
   17.0775  -15.3180   23.9560 N   0  0  0  0  0  0  0  0  0  0  0  0
   18.3225  -16.4689   24.2284 S   0  0  1  0  0  6  0  0  0  0  0  0
   18.1241  -17.1941   25.5308 O   0  0  0  0  0  0  0  0  0  0  0  0
   18.2229  -17.4963   23.1085 O   0  0  0  0  0  0  0  0  0  0  0  0
   19.9418  -15.7561   24.2374 C   0  0  0  0  0  0  0  0  0  0  0  0
   19.9251  -14.5156   25.0950 C   0  0  0  0  0  0  0  0  0  0  0  0
   21.0745  -13.7840   25.2830 C   0  0  0  0  0  0  0  0  0  0  0  0
   21.1277  -12.6468   26.0628 C   0  0  0  0  0  0  0  0  0  0  0  0
   19.9511  -12.2383   26.6781 C   0  0  0  0  0  0  0  0  0  0  0  0
   18.7964  -12.9817   26.4833 C   0  0  0  0  0  0  0  0  0  0  0  0
   12.5001  -15.2834   18.5145 H   0  0  0  0  0  0  0  0  0  0  0  0
 21  1  2  0
 16  2  2  0
 35  3  2  0
  3 39  1  0
  4 16  1  6
 17  4  1  1
 20  4  1  0
  5  8  1  0
  5 11  2  0
 14  5  1  0
  7  6  1  0
  8  7  2  0
  7  9  1  0
 10  9  2  0
 11 10  1  0
 12 11  1  1
 13 12  1  6
 14 15  1  6
 16 15  1  0
 18 17  1  0
 18 19  1  6
 19 20  1  6
 21 20  1  0
 22 21  1  0
 23 22  1  1
 22 30  1  1
 23 24  1  0
 24 25  1  6
 25 26  1  6
 26 27  1  0
 27 28  1  0
 27 29  2  0
 31 30  1  6
 31 32  2  0
 31 33  2  0
 34 31  1  0
 34 35  1  6
 35 36  1  0
 36 37  2  0
 37 38  1  0
 38 39  2  0
 29 40  1  0
M  CHG  1  13   1
M  END
$$$$
