
     RDKit          3D

 40 42  0  0  0  0  0  0  0  0999 V2000
   15.3397  -15.2735   22.0004 O   0  0  0  0  0  0  0  0  0  0  0  0
   17.3624  -11.8502   21.7272 O   0  0  0  0  0  0  0  0  0  0  0  0
   16.6348  -18.5170   22.3465 C   0  0  0  0  0  0  0  0  0  0  0  0
   17.4265  -13.9226   20.6049 C   0  0  2  0  0  0  0  0  0  0  0  0
   20.2815  -13.2181   23.1095 C   0  0  0  0  0  0  0  0  0  0  0  0
   19.0802  -15.9219   25.8790 Cl  0  0  0  0  0  0  0  0  0  0  0  0
   19.6749  -14.4500   25.1060 C   0  0  0  0  0  0  0  0  0  0  0  0
   19.8067  -14.3835   23.7374 C   0  0  0  0  0  0  0  0  0  0  0  0
   19.9968  -13.3910   25.9269 C   0  0  0  0  0  0  0  0  0  0  0  0
   20.4629  -12.2434   25.3270 C   0  0  0  0  0  0  0  0  0  0  0  0
   20.6015  -12.1678   23.9240 C   0  0  0  0  0  0  0  0  0  0  0  0
   21.1077  -10.9091   23.3549 C   0  0  0  0  0  0  0  0  0  0  0  0
   22.5178  -11.0993   23.0012 N   0  0  0  0  0  4  0  0  0  0  0  0
   20.3966  -13.1778   21.6595 C   0  0  0  0  0  0  0  0  0  0  0  0
   19.4426  -12.4064   20.9406 N   0  0  0  0  0  0  0  0  0  0  0  0
   18.0530  -12.6999   21.1096 C   0  0  0  0  0  0  0  0  0  0  0  0
   17.9762  -14.1147   19.1744 C   0  0  0  0  0  0  0  0  0  0  0  0
   17.0940  -13.2508   18.3192 C   0  0  0  0  0  0  0  0  0  0  0  0
   15.8816  -12.9881   19.1549 C   0  0  0  0  0  0  0  0  0  0  0  0
   16.0255  -13.8294   20.2980 N   0  0  0  0  0  0  0  0  0  0  0  0
   15.0201  -14.5007   21.0357 C   0  0  0  0  0  0  0  0  0  0  0  0
   13.5527  -14.3810   20.7746 C   0  0  2  0  0  0  0  0  0  0  0  0
   12.8906  -13.8512   22.0254 C   0  0  0  0  0  0  0  0  0  0  0  0
   13.0584  -12.3771   22.2110 C   0  0  0  0  0  0  0  0  0  0  0  0
   11.7947  -11.6567   21.7365 C   0  0  0  0  0  0  0  0  0  0  0  0
   11.9039  -10.2485   22.0801 N   0  0  0  0  0  0  0  0  0  0  0  0
   11.7029   -9.7945   23.4090 C   0  0  0  0  0  0  0  0  0  0  0  0
   12.3497   -8.6363   23.8959 N   0  0  0  0  0  0  0  0  0  0  0  0
   10.9175  -10.4480   24.1903 N   0  0  0  0  0  0  0  0  0  0  0  0
   13.0133  -15.6977   20.4884 N   0  0  0  0  0  0  0  0  0  0  0  0
   13.6942  -16.9188   21.4853 S   0  0  1  0  0  6  0  0  0  0  0  0
   14.3444  -16.3306   22.7071 O   0  0  0  0  0  0  0  0  0  0  0  0
   12.5410  -17.7965   21.9539 O   0  0  0  0  0  0  0  0  0  0  0  0
   14.8948  -17.9133   20.6488 C   0  0  0  0  0  0  0  0  0  0  0  0
   15.5018  -18.8796   21.6348 C   0  0  0  0  0  0  0  0  0  0  0  0
   14.9323  -20.1148   21.8395 C   0  0  0  0  0  0  0  0  0  0  0  0
   15.4327  -21.0392   22.7334 C   0  0  0  0  0  0  0  0  0  0  0  0
   16.5683  -20.6847   23.4508 C   0  0  0  0  0  0  0  0  0  0  0  0
   17.1363  -19.4372   23.2384 C   0  0  0  0  0  0  0  0  0  0  0  0
   10.3206  -11.2339   23.8226 H   0  0  0  0  0  0  0  0  0  0  0  0
 21  1  2  0
 16  2  2  0
 35  3  2  0
  3 39  1  0
  4 16  1  6
 17  4  1  1
 20  4  1  0
  5  8  1  0
  5 11  2  0
 14  5  1  0
  7  6  1  0
  8  7  2  0
  7  9  1  0
 10  9  2  0
 11 10  1  0
 12 11  1  1
 13 12  1  6
 14 15  1  6
 16 15  1  0
 18 17  1  0
 18 19  1  6
 19 20  1  6
 21 20  1  0
 22 21  1  0
 23 22  1  1
 22 30  1  1
 23 24  1  0
 24 25  1  6
 25 26  1  6
 26 27  1  0
 27 28  1  0
 27 29  2  0
 31 30  1  6
 31 32  2  0
 31 33  2  0
 34 31  1  0
 34 35  1  6
 35 36  1  0
 36 37  2  0
 37 38  1  0
 38 39  2  0
 29 40  1  0
M  CHG  1  13   1
M  END
$$$$
