
     RDKit          3D

 40 42  0  0  0  0  0  0  0  0999 V2000
   16.4975  -14.4721   22.4061 O   0  0  0  0  0  0  0  0  0  0  0  0
   17.8405  -11.8142   18.7355 O   0  0  0  0  0  0  0  0  0  0  0  0
   15.9750  -17.7024   23.4169 C   0  0  0  0  0  0  0  0  0  0  0  0
   17.6776  -13.8771   19.8654 C   0  0  2  0  0  0  0  0  0  0  0  0
   20.7918  -12.8961   22.2052 C   0  0  0  0  0  0  0  0  0  0  0  0
   23.2328  -11.0825   24.8840 Cl  0  0  0  0  0  0  0  0  0  0  0  0
   22.0973  -12.2013   24.1247 C   0  0  0  0  0  0  0  0  0  0  0  0
   21.6975  -12.0138   22.8209 C   0  0  0  0  0  0  0  0  0  0  0  0
   21.6379  -13.2515   24.8897 C   0  0  0  0  0  0  0  0  0  0  0  0
   20.7509  -14.1235   24.3009 C   0  0  0  0  0  0  0  0  0  0  0  0
   20.3356  -13.9374   22.9643 C   0  0  0  0  0  0  0  0  0  0  0  0
   19.3840  -14.9093   22.4036 C   0  0  0  0  0  0  0  0  0  0  0  0
   20.1405  -16.0734   21.9322 N   0  0  0  0  0  4  0  0  0  0  0  0
   20.4001  -12.6753   20.8213 C   0  0  0  0  0  0  0  0  0  0  0  0
   19.1937  -11.9622   20.5801 N   0  0  0  0  0  0  0  0  0  0  0  0
   18.2244  -12.5301   19.6949 C   0  0  0  0  0  0  0  0  0  0  0  0
   17.6841  -14.5125   18.4577 C   0  0  0  0  0  0  0  0  0  0  0  0
   16.4131  -14.0232   17.8242 C   0  0  0  0  0  0  0  0  0  0  0  0
   15.5696  -13.5488   18.9647 C   0  0  0  0  0  0  0  0  0  0  0  0
   16.2690  -13.9524   20.1408 N   0  0  0  0  0  0  0  0  0  0  0  0
   15.7398  -14.3811   21.3825 C   0  0  0  0  0  0  0  0  0  0  0  0
   14.3102  -14.7540   21.6129 C   0  0  2  0  0  0  0  0  0  0  0  0
   13.6860  -13.7079   22.5071 C   0  0  0  0  0  0  0  0  0  0  0  0
   13.6620  -12.3415   21.9004 C   0  0  0  0  0  0  0  0  0  0  0  0
   13.4808  -11.2972   23.0040 C   0  0  0  0  0  0  0  0  0  0  0  0
   12.9707  -10.0733   22.4085 N   0  0  0  0  0  0  0  0  0  0  0  0
   11.8575   -9.3903   22.9623 C   0  0  0  0  0  0  0  0  0  0  0  0
   11.2970   -8.2602   22.3253 N   0  0  0  0  0  0  0  0  0  0  0  0
   11.3453   -9.8041   24.0672 N   0  0  0  0  0  0  0  0  0  0  0  0
   14.2584  -16.0347   22.2939 N   0  0  0  0  0  0  0  0  0  0  0  0
   14.2766  -17.3611   21.2035 S   0  0  1  0  0  6  0  0  0  0  0  0
   13.0883  -17.3307   20.2824 O   0  0  0  0  0  0  0  0  0  0  0  0
   15.5274  -17.2088   20.3480 O   0  0  0  0  0  0  0  0  0  0  0  0
   14.3016  -18.9323   22.0166 C   0  0  0  0  0  0  0  0  0  0  0  0
   15.2966  -18.8811   23.1487 C   0  0  0  0  0  0  0  0  0  0  0  0
   15.5277  -19.9941   23.9230 C   0  0  0  0  0  0  0  0  0  0  0  0
   16.4167  -20.0097   24.9782 C   0  0  0  0  0  0  0  0  0  0  0  0
   17.1016  -18.8329   25.2541 C   0  0  0  0  0  0  0  0  0  0  0  0
   16.8626  -17.7150   24.4685 C   0  0  0  0  0  0  0  0  0  0  0  0
   10.5761  -10.5234   24.0705 H   0  0  0  0  0  0  0  0  0  0  0  0
 21  1  2  0
 16  2  2  0
 35  3  2  0
  3 39  1  0
  4 16  1  6
 17  4  1  1
 20  4  1  0
  5  8  1  0
  5 11  2  0
 14  5  1  0
  7  6  1  0
  8  7  2  0
  7  9  1  0
 10  9  2  0
 11 10  1  0
 12 11  1  1
 13 12  1  6
 14 15  1  6
 16 15  1  0
 18 17  1  0
 18 19  1  6
 19 20  1  6
 21 20  1  0
 22 21  1  0
 23 22  1  1
 22 30  1  1
 23 24  1  0
 24 25  1  6
 25 26  1  6
 26 27  1  0
 27 28  1  0
 27 29  2  0
 31 30  1  1
 31 32  2  0
 31 33  2  0
 34 31  1  0
 34 35  1  6
 35 36  1  0
 36 37  2  0
 37 38  1  0
 38 39  2  0
 29 40  1  0
M  CHG  1  13   1
M  END
$$$$
