
     RDKit          3D

 40 42  0  0  0  0  0  0  0  0999 V2000
   17.9854  -13.2101   23.1940 O   0  0  0  0  0  0  0  0  0  0  0  0
   17.0941  -11.3517   18.3254 O   0  0  0  0  0  0  0  0  0  0  0  0
   19.7714  -13.4290   25.8448 C   0  0  0  0  0  0  0  0  0  0  0  0
   17.6503  -11.6098   20.6019 C   0  0  2  0  0  0  0  0  0  0  0  0
   13.6899  -10.0071   21.1619 C   0  0  0  0  0  0  0  0  0  0  0  0
   12.3611   -7.7651   24.2654 Cl  0  0  0  0  0  0  0  0  0  0  0  0
   12.5064   -9.0201   23.0318 C   0  0  0  0  0  0  0  0  0  0  0  0
   13.5638   -9.0149   22.1506 C   0  0  0  0  0  0  0  0  0  0  0  0
   11.5246   -9.9864   22.9949 C   0  0  0  0  0  0  0  0  0  0  0  0
   11.6343  -10.9643   22.0328 C   0  0  0  0  0  0  0  0  0  0  0  0
   12.7156  -10.9653   21.1249 C   0  0  0  0  0  0  0  0  0  0  0  0
   12.7647  -12.0415   20.1230 C   0  0  0  0  0  0  0  0  0  0  0  0
   11.6725  -12.9790   20.4020 N   0  0  0  0  0  4  0  0  0  0  0  0
   14.8271   -9.9785   20.2545 C   0  0  0  0  0  0  0  0  0  0  0  0
   15.2903  -11.2180   19.7339 N   0  0  0  0  0  0  0  0  0  0  0  0
   16.6932  -11.3912   19.5162 C   0  0  0  0  0  0  0  0  0  0  0  0
   19.0125  -11.1194   20.0639 C   0  0  0  0  0  0  0  0  0  0  0  0
   19.5483  -12.2896   19.2896 C   0  0  0  0  0  0  0  0  0  0  0  0
   18.7559  -13.4652   19.7667 C   0  0  0  0  0  0  0  0  0  0  0  0
   17.9931  -12.9796   20.8700 N   0  0  0  0  0  0  0  0  0  0  0  0
   17.6200  -13.6582   22.0557 C   0  0  0  0  0  0  0  0  0  0  0  0
   16.8005  -14.9083   22.0964 C   0  0  2  0  0  0  0  0  0  0  0  0
   15.3633  -14.5241   22.3617 C   0  0  0  0  0  0  0  0  0  0  0  0
   14.3842  -15.5998   22.0148 C   0  0  0  0  0  0  0  0  0  0  0  0
   12.9817  -15.1724   22.4522 C   0  0  0  0  0  0  0  0  0  0  0  0
   12.5636  -16.0117   23.5629 N   0  0  0  0  0  0  0  0  0  0  0  0
   12.2678  -17.3870   23.3792 C   0  0  0  0  0  0  0  0  0  0  0  0
   12.2587  -17.9716   22.0927 N   0  0  0  0  0  0  0  0  0  0  0  0
   12.0009  -18.1201   24.4018 N   0  0  0  0  0  0  0  0  0  0  0  0
   17.2647  -15.7439   23.1886 N   0  0  0  0  0  0  0  0  0  0  0  0
   18.9553  -16.0370   23.1206 S   0  0  1  0  0  6  0  0  0  0  0  0
   19.3378  -17.2367   23.9427 O   0  0  0  0  0  0  0  0  0  0  0  0
   19.2886  -16.3483   21.6674 O   0  0  0  0  0  0  0  0  0  0  0  0
   19.9243  -14.6625   23.6702 C   0  0  0  0  0  0  0  0  0  0  0  0
   19.9224  -14.6349   25.1781 C   0  0  0  0  0  0  0  0  0  0  0  0
   20.0597  -15.8001   25.8957 C   0  0  0  0  0  0  0  0  0  0  0  0
   20.0560  -15.8435   27.2750 C   0  0  0  0  0  0  0  0  0  0  0  0
   19.9057  -14.6396   27.9517 C   0  0  0  0  0  0  0  0  0  0  0  0
   19.7677  -13.4691   27.2205 C   0  0  0  0  0  0  0  0  0  0  0  0
   11.9375  -17.7007   25.3657 H   0  0  0  0  0  0  0  0  0  0  0  0
 21  1  2  0
 16  2  2  0
 35  3  2  0
  3 39  1  0
  4 16  1  6
 17  4  1  1
 20  4  1  0
  5  8  1  0
  5 11  2  0
 14  5  1  0
  7  6  1  0
  8  7  2  0
  7  9  1  0
 10  9  2  0
 11 10  1  0
 12 11  1  1
 13 12  1  6
 14 15  1  6
 16 15  1  0
 18 17  1  0
 18 19  1  6
 19 20  1  6
 21 20  1  0
 22 21  1  0
 23 22  1  1
 22 30  1  1
 23 24  1  0
 24 25  1  6
 25 26  1  6
 26 27  1  0
 27 28  1  0
 27 29  2  0
 31 30  1  6
 31 32  2  0
 31 33  2  0
 34 31  1  0
 34 35  1  6
 35 36  1  0
 36 37  2  0
 37 38  1  0
 38 39  2  0
 29 40  1  0
M  CHG  1  13   1
M  END
$$$$
