
     RDKit          3D

 40 42  0  0  0  0  0  0  0  0999 V2000
   16.1446  -13.0142   23.5885 O   0  0  0  0  0  0  0  0  0  0  0  0
   16.3114  -11.2653   19.1681 O   0  0  0  0  0  0  0  0  0  0  0  0
   20.6684  -14.7033   26.1793 C   0  0  0  0  0  0  0  0  0  0  0  0
   17.4348  -11.6476   21.2602 C   0  0  2  0  0  0  0  0  0  0  0  0
   13.3281   -9.6577   21.6117 C   0  0  0  0  0  0  0  0  0  0  0  0
   12.6864   -7.0552   24.6122 Cl  0  0  0  0  0  0  0  0  0  0  0  0
   12.5545   -8.4381   23.5512 C   0  0  0  0  0  0  0  0  0  0  0  0
   13.4038   -8.5815   22.4660 C   0  0  0  0  0  0  0  0  0  0  0  0
   11.5987   -9.3887   23.8016 C   0  0  0  0  0  0  0  0  0  0  0  0
   11.5219  -10.4671   22.9461 C   0  0  0  0  0  0  0  0  0  0  0  0
   12.3694  -10.6099   21.8628 C   0  0  0  0  0  0  0  0  0  0  0  0
   12.1931  -11.8219   20.9795 C   0  0  0  0  0  0  0  0  0  0  0  0
   13.0094  -12.8776   21.4847 N   0  0  0  0  0  4  0  0  0  0  0  0
   14.2340   -9.7850   20.4857 C   0  0  0  0  0  0  0  0  0  0  0  0
   15.6443   -9.8418   20.8117 N   0  0  0  0  0  0  0  0  0  0  0  0
   16.4494  -10.9183   20.3760 C   0  0  0  0  0  0  0  0  0  0  0  0
   18.7262  -11.7730   20.4418 C   0  0  0  0  0  0  0  0  0  0  0  0
   18.8370  -13.2276   20.0514 C   0  0  0  0  0  0  0  0  0  0  0  0
   17.4004  -13.7127   20.2126 C   0  0  0  0  0  0  0  0  0  0  0  0
   17.0535  -13.0116   21.4718 N   0  0  0  0  0  0  0  0  0  0  0  0
   16.5076  -13.6891   22.5607 C   0  0  0  0  0  0  0  0  0  0  0  0
   16.3126  -15.1352   22.6344 C   0  0  2  0  0  0  0  0  0  0  0  0
   14.9986  -15.6119   22.0346 C   0  0  0  0  0  0  0  0  0  0  0  0
   14.0967  -14.5770   21.5154 C   0  0  0  0  0  0  0  0  0  0  0  0
   12.7874  -15.1602   20.9932 C   0  0  0  0  0  0  0  0  0  0  0  0
   12.9543  -16.4083   20.3099 N   0  0  0  0  0  0  0  0  0  0  0  0
   12.3746  -17.6010   20.7932 C   0  0  0  0  0  0  0  0  0  0  0  0
   11.5024  -17.5252   21.9214 N   0  0  0  0  0  0  0  0  0  0  0  0
   12.6123  -18.7552   20.2405 N   0  0  0  0  0  0  0  0  0  0  0  0
   16.2636  -15.5622   24.0537 N   0  0  0  0  0  0  0  0  0  0  0  0
   17.8199  -15.7935   24.7061 S   0  0  1  0  0  6  0  0  0  0  0  0
   17.9822  -17.0350   25.4954 O   0  0  0  0  0  0  0  0  0  0  0  0
   18.8644  -15.8473   23.5996 O   0  0  0  0  0  0  0  0  0  0  0  0
   18.2387  -14.3257   25.6547 C   0  0  0  0  0  0  0  0  0  0  0  0
   19.6811  -14.0183   25.5117 C   0  0  0  0  0  0  0  0  0  0  0  0
   20.0714  -12.9900   24.6732 C   0  0  0  0  0  0  0  0  0  0  0  0
   21.3838  -12.6295   24.4820 C   0  0  0  0  0  0  0  0  0  0  0  0
   22.3550  -13.3215   25.1541 C   0  0  0  0  0  0  0  0  0  0  0  0
   21.9856  -14.3590   26.0023 C   0  0  0  0  0  0  0  0  0  0  0  0
   13.1822  -18.8517   19.3783 H   0  0  0  0  0  0  0  0  0  0  0  0
 21  1  2  0
 16  2  2  0
 35  3  2  0
  3 39  1  0
  4 16  1  6
  4 17  1  0
 20  4  1  0
  5  8  1  0
  5 11  2  0
 14  5  1  0
  7  6  1  0
  8  7  2  0
  7  9  1  0
 10  9  2  0
 11 10  1  0
 11 12  1  0
 12 13  1  0
 15 14  1  0
 16 15  1  0
 18 17  1  0
 19 18  1  0
 20 19  1  0
 21 20  1  0
 22 21  1  0
 22 23  1  1
 30 22  1  0
 23 24  1  0
 24 25  1  0
 25 26  1  0
 26 27  1  0
 27 28  1  0
 27 29  2  0
 31 30  1  0
 31 32  2  0
 31 33  2  0
 31 34  1  1
 34 35  1  0
 35 36  1  0
 36 37  2  0
 37 38  1  0
 38 39  2  0
 29 40  1  0
M  CHG  1  13   1
M  END
$$$$
