
     RDKit          3D

 40 42  0  0  0  0  0  0  0  0999 V2000
   15.4098  -14.5354   21.3343 O   0  0  0  0  0  0  0  0  0  0  0  0
   18.2041  -11.1477   20.0833 O   0  0  0  0  0  0  0  0  0  0  0  0
   16.4608  -18.8661   21.9375 C   0  0  0  0  0  0  0  0  0  0  0  0
   17.5469  -13.3916   19.7809 C   0  0  2  0  0  0  0  0  0  0  0  0
   19.4426  -13.0014   23.9940 C   0  0  0  0  0  0  0  0  0  0  0  0
   21.3205  -11.3480   27.1820 Cl  0  0  0  0  0  0  0  0  0  0  0  0
   20.7203  -12.5068   25.9926 C   0  0  0  0  0  0  0  0  0  0  0  0
   19.9292  -12.0884   24.9466 C   0  0  0  0  0  0  0  0  0  0  0  0
   21.0752  -13.8275   26.1621 C   0  0  0  0  0  0  0  0  0  0  0  0
   20.6066  -14.7330   25.2377 C   0  0  0  0  0  0  0  0  0  0  0  0
   19.7942  -14.3116   24.1626 C   0  0  0  0  0  0  0  0  0  0  0  0
   19.3294  -15.3371   23.2155 C   0  0  0  0  0  0  0  0  0  0  0  0
   18.1028  -15.9351   23.7515 N   0  0  0  0  0  4  0  0  0  0  0  0
   18.6191  -12.5230   22.8938 C   0  0  0  0  0  0  0  0  0  0  0  0
   19.1604  -12.5962   21.5809 N   0  0  0  0  0  0  0  0  0  0  0  0
   18.3002  -12.3409   20.4672 C   0  0  0  0  0  0  0  0  0  0  0  0
   17.9899  -13.3265   18.3027 C   0  0  0  0  0  0  0  0  0  0  0  0
   17.1292  -12.2505   17.7049 C   0  0  0  0  0  0  0  0  0  0  0  0
   15.9960  -12.0820   18.6665 C   0  0  0  0  0  0  0  0  0  0  0  0
   16.1418  -13.1449   19.6067 N   0  0  0  0  0  0  0  0  0  0  0  0
   15.1329  -13.8829   20.2724 C   0  0  0  0  0  0  0  0  0  0  0  0
   13.7093  -13.9711   19.8235 C   0  0  2  0  0  0  0  0  0  0  0  0
   12.8219  -13.5806   20.9826 C   0  0  0  0  0  0  0  0  0  0  0  0
   13.0222  -12.1709   21.4391 C   0  0  0  0  0  0  0  0  0  0  0  0
   12.0812  -11.8757   22.6090 C   0  0  0  0  0  0  0  0  0  0  0  0
   11.4273  -10.5996   22.3708 N   0  0  0  0  0  0  0  0  0  0  0  0
   10.4981  -10.0611   23.2976 C   0  0  0  0  0  0  0  0  0  0  0  0
    9.6627  -10.8978   24.0716 N   0  0  0  0  0  0  0  0  0  0  0  0
   10.4101   -8.7856   23.4388 N   0  0  0  0  0  0  0  0  0  0  0  0
   13.4125  -15.3435   19.4560 N   0  0  0  0  0  0  0  0  0  0  0  0
   13.7724  -16.4545   20.7148 S   0  0  1  0  0  6  0  0  0  0  0  0
   13.3069  -15.9413   22.0495 O   0  0  0  0  0  0  0  0  0  0  0  0
   12.9928  -17.7276   20.4127 O   0  0  0  0  0  0  0  0  0  0  0  0
   15.4966  -16.8306   20.8416 C   0  0  0  0  0  0  0  0  0  0  0  0
   15.6648  -18.3261   20.9393 C   0  0  0  0  0  0  0  0  0  0  0  0
   15.0253  -19.1580   20.0501 C   0  0  0  0  0  0  0  0  0  0  0  0
   15.1302  -20.5333   20.0919 C   0  0  0  0  0  0  0  0  0  0  0  0
   15.9263  -21.0834   21.0887 C   0  0  0  0  0  0  0  0  0  0  0  0
   16.5676  -20.2374   21.9814 C   0  0  0  0  0  0  0  0  0  0  0  0
   10.9097   -8.1332   22.7801 H   0  0  0  0  0  0  0  0  0  0  0  0
 21  1  2  0
 16  2  2  0
 35  3  2  0
  3 39  1  0
  4 16  1  1
 17  4  1  1
 20  4  1  0
  5  8  1  0
  5 11  2  0
 14  5  1  0
  7  6  1  0
  8  7  2  0
  7  9  1  0
 10  9  2  0
 11 10  1  0
 12 11  1  1
 13 12  1  6
 14 15  1  6
 16 15  1  0
 18 17  1  0
 18 19  1  6
 19 20  1  6
 21 20  1  0
 22 21  1  0
 23 22  1  1
 22 30  1  1
 23 24  1  0
 24 25  1  6
 25 26  1  6
 26 27  1  0
 27 28  1  0
 27 29  2  0
 31 30  1  6
 31 32  2  0
 31 33  2  0
 34 31  1  0
 34 35  1  6
 35 36  1  0
 36 37  2  0
 37 38  1  0
 38 39  2  0
 29 40  1  0
M  CHG  1  13   1
M  END
$$$$
