
     RDKit          3D

 40 42  0  0  0  0  0  0  0  0999 V2000
   15.9012  -13.9294   23.4261 O   0  0  0  0  0  0  0  0  0  0  0  0
   15.9722  -12.3500   19.4024 O   0  0  0  0  0  0  0  0  0  0  0  0
   19.9664  -16.7675   25.8704 C   0  0  0  0  0  0  0  0  0  0  0  0
   17.2701  -12.5144   21.3638 C   0  0  2  0  0  0  0  0  0  0  0  0
   14.4517   -9.7688   21.4768 C   0  0  0  0  0  0  0  0  0  0  0  0
   11.2133   -8.4957   19.3994 Cl  0  0  0  0  0  0  0  0  0  0  0  0
   12.2470   -9.2621   20.6084 C   0  0  0  0  0  0  0  0  0  0  0  0
   13.6171   -9.1610   20.5219 C   0  0  0  0  0  0  0  0  0  0  0  0
   11.6246   -9.9560   21.6234 C   0  0  0  0  0  0  0  0  0  0  0  0
   12.4282  -10.5564   22.5657 C   0  0  0  0  0  0  0  0  0  0  0  0
   13.8343  -10.4576   22.4833 C   0  0  0  0  0  0  0  0  0  0  0  0
   14.6278  -11.1272   23.5257 C   0  0  0  0  0  0  0  0  0  0  0  0
   14.7700  -12.5395   23.1587 N   0  0  0  0  0  4  0  0  0  0  0  0
   15.8957   -9.6313   21.3620 C   0  0  0  0  0  0  0  0  0  0  0  0
   16.5442  -10.3196   20.3000 N   0  0  0  0  0  0  0  0  0  0  0  0
   16.5775  -11.7491   20.3260 C   0  0  0  0  0  0  0  0  0  0  0  0
   18.7567  -12.5368   20.9454 C   0  0  0  0  0  0  0  0  0  0  0  0
   18.8508  -13.6771   19.9723 C   0  0  0  0  0  0  0  0  0  0  0  0
   17.6189  -14.4916   20.2098 C   0  0  0  0  0  0  0  0  0  0  0  0
   17.0172  -13.9292   21.3746 N   0  0  0  0  0  0  0  0  0  0  0  0
   16.3030  -14.5850   22.4069 C   0  0  0  0  0  0  0  0  0  0  0  0
   15.9624  -16.0409   22.4111 C   0  0  2  0  0  0  0  0  0  0  0  0
   14.5553  -16.1998   21.8834 C   0  0  0  0  0  0  0  0  0  0  0  0
   14.4031  -15.7843   20.4551 C   0  0  0  0  0  0  0  0  0  0  0  0
   13.3800  -16.6904   19.7672 C   0  0  0  0  0  0  0  0  0  0  0  0
   12.1623  -15.9300   19.5395 N   0  0  0  0  0  0  0  0  0  0  0  0
   11.1267  -15.8859   20.5081 C   0  0  0  0  0  0  0  0  0  0  0  0
   10.6531  -17.0620   21.1321 N   0  0  0  0  0  0  0  0  0  0  0  0
   10.6047  -14.7544   20.8270 N   0  0  0  0  0  0  0  0  0  0  0  0
   16.0024  -16.5330   23.7760 N   0  0  0  0  0  0  0  0  0  0  0  0
   17.5974  -16.8964   24.2982 S   0  0  1  0  0  6  0  0  0  0  0  0
   17.6256  -17.2744   25.7534 O   0  0  0  0  0  0  0  0  0  0  0  0
   18.0558  -18.1084   23.4977 O   0  0  0  0  0  0  0  0  0  0  0  0
   18.7322  -15.5610   24.0552 C   0  0  0  0  0  0  0  0  0  0  0  0
   19.7771  -15.6035   25.1419 C   0  0  0  0  0  0  0  0  0  0  0  0
   20.5500  -14.4974   25.4079 C   0  0  0  0  0  0  0  0  0  0  0  0
   21.5282  -14.4748   26.3809 C   0  0  0  0  0  0  0  0  0  0  0  0
   21.7246  -15.6368   27.1165 C   0  0  0  0  0  0  0  0  0  0  0  0
   20.9410  -16.7479   26.8419 C   0  0  0  0  0  0  0  0  0  0  0  0
   10.9792  -13.8547   20.4279 H   0  0  0  0  0  0  0  0  0  0  0  0
 21  1  2  0
 16  2  2  0
 35  3  2  0
  3 39  1  0
  4 16  1  6
 17  4  1  1
 20  4  1  0
  5  8  1  0
  5 11  2  0
 14  5  1  0
  7  6  1  0
  8  7  2  0
  7  9  1  0
 10  9  2  0
 11 10  1  0
 12 11  1  1
 13 12  1  6
 14 15  1  6
 16 15  1  0
 18 17  1  0
 18 19  1  6
 19 20  1  6
 21 20  1  0
 22 21  1  0
 23 22  1  1
 22 30  1  1
 23 24  1  0
 24 25  1  6
 25 26  1  6
 26 27  1  0
 27 28  1  0
 27 29  2  0
 31 30  1  6
 31 32  2  0
 31 33  2  0
 34 31  1  0
 34 35  1  6
 35 36  1  0
 36 37  2  0
 37 38  1  0
 38 39  2  0
 29 40  1  0
M  CHG  1  13   1
M  END
$$$$
