
     RDKit          3D

 40 42  0  0  0  0  0  0  0  0999 V2000
   16.4152  -13.2699   23.1535 O   0  0  0  0  0  0  0  0  0  0  0  0
   15.3629  -12.0575   19.0705 O   0  0  0  0  0  0  0  0  0  0  0  0
   20.7519  -12.7891   24.7846 C   0  0  0  0  0  0  0  0  0  0  0  0
   16.9986  -11.8434   20.7548 C   0  0  2  0  0  0  0  0  0  0  0  0
   13.3265   -9.5923   20.8385 C   0  0  0  0  0  0  0  0  0  0  0  0
   12.4776   -7.0215   23.8542 Cl  0  0  0  0  0  0  0  0  0  0  0  0
   12.4953   -8.4381   22.8003 C   0  0  0  0  0  0  0  0  0  0  0  0
   13.3049   -8.4713   21.6875 C   0  0  0  0  0  0  0  0  0  0  0  0
   11.6711   -9.4889   23.1402 C   0  0  0  0  0  0  0  0  0  0  0  0
   11.6812  -10.5932   22.3189 C   0  0  0  0  0  0  0  0  0  0  0  0
   12.5084  -10.6344   21.1754 C   0  0  0  0  0  0  0  0  0  0  0  0
   12.4641  -11.8476   20.3443 C   0  0  0  0  0  0  0  0  0  0  0  0
   12.1236  -12.9831   21.2069 N   0  0  0  0  0  4  0  0  0  0  0  0
   14.2036   -9.5989   19.6775 C   0  0  0  0  0  0  0  0  0  0  0  0
   15.5725   -9.9242   19.8835 N   0  0  0  0  0  0  0  0  0  0  0  0
   15.9607  -11.3007   19.8770 C   0  0  0  0  0  0  0  0  0  0  0  0
   18.3295  -11.6586   19.9931 C   0  0  0  0  0  0  0  0  0  0  0  0
   18.4051  -12.8520   19.0842 C   0  0  0  0  0  0  0  0  0  0  0  0
   17.4287  -13.8331   19.6511 C   0  0  0  0  0  0  0  0  0  0  0  0
   17.0162  -13.2734   20.8967 N   0  0  0  0  0  0  0  0  0  0  0  0
   16.6872  -13.9408   22.1017 C   0  0  0  0  0  0  0  0  0  0  0  0
   16.6274  -15.4264   22.2605 C   0  0  2  0  0  0  0  0  0  0  0  0
   15.2676  -15.8978   21.7998 C   0  0  0  0  0  0  0  0  0  0  0  0
   15.1951  -17.3727   21.5652 C   0  0  0  0  0  0  0  0  0  0  0  0
   13.9580  -17.9397   22.2646 C   0  0  0  0  0  0  0  0  0  0  0  0
   12.7791  -17.5714   21.4980 N   0  0  0  0  0  0  0  0  0  0  0  0
   12.2948  -18.3924   20.4474 C   0  0  0  0  0  0  0  0  0  0  0  0
   12.8774  -19.6492   20.1682 N   0  0  0  0  0  0  0  0  0  0  0  0
   11.3059  -17.9879   19.7312 N   0  0  0  0  0  0  0  0  0  0  0  0
   16.7807  -15.7595   23.6649 N   0  0  0  0  0  0  0  0  0  0  0  0
   18.3484  -15.3919   24.2612 S   0  0  1  0  0  6  0  0  0  0  0  0
   18.7942  -16.3957   25.2884 O   0  0  0  0  0  0  0  0  0  0  0  0
   19.3020  -15.4886   23.0776 O   0  0  0  0  0  0  0  0  0  0  0  0
   18.4602  -13.7804   24.9830 C   0  0  0  0  0  0  0  0  0  0  0  0
   19.8612  -13.5730   25.5013 C   0  0  0  0  0  0  0  0  0  0  0  0
   20.2575  -14.1489   26.6857 C   0  0  0  0  0  0  0  0  0  0  0  0
   21.5204  -13.9898   27.2184 C   0  0  0  0  0  0  0  0  0  0  0  0
   22.4200  -13.2061   26.5067 C   0  0  0  0  0  0  0  0  0  0  0  0
   22.0123  -12.6289   25.3132 C   0  0  0  0  0  0  0  0  0  0  0  0
   10.4563  -17.5549   20.1781 H   0  0  0  0  0  0  0  0  0  0  0  0
 21  1  2  0
 16  2  2  0
 35  3  2  0
  3 39  1  0
  4 16  1  6
 17  4  1  1
 20  4  1  0
  5  8  1  0
  5 11  2  0
 14  5  1  0
  7  6  1  0
  8  7  2  0
  7  9  1  0
 10  9  2  0
 11 10  1  0
 12 11  1  1
 13 12  1  6
 14 15  1  6
 16 15  1  0
 18 17  1  0
 18 19  1  6
 19 20  1  6
 21 20  1  0
 22 21  1  0
 23 22  1  1
 22 30  1  1
 23 24  1  0
 24 25  1  6
 25 26  1  6
 26 27  1  0
 27 28  1  0
 27 29  2  0
 31 30  1  6
 31 32  2  0
 31 33  2  0
 34 31  1  0
 34 35  1  6
 35 36  1  0
 36 37  2  0
 37 38  1  0
 38 39  2  0
 29 40  1  0
M  CHG  1  13   1
M  END
$$$$
