
     RDKit          3D

 40 42  0  0  0  0  0  0  0  0999 V2000
   14.7697  -13.9332   22.9901 O   0  0  0  0  0  0  0  0  0  0  0  0
   19.2806  -12.7825   21.6049 O   0  0  0  0  0  0  0  0  0  0  0  0
   13.9731  -18.7107   22.2889 C   0  0  0  0  0  0  0  0  0  0  0  0
   17.4886  -14.2466   22.0559 C   0  0  2  0  0  0  0  0  0  0  0  0
   19.6542  -13.5817   25.0378 C   0  0  0  0  0  0  0  0  0  0  0  0
   20.8971  -17.4340   25.2351 Cl  0  0  0  0  0  0  0  0  0  0  0  0
   20.8680  -15.6686   25.2460 C   0  0  0  0  0  0  0  0  0  0  0  0
   19.6906  -14.9876   25.0342 C   0  0  0  0  0  0  0  0  0  0  0  0
   22.0620  -15.0183   25.4709 C   0  0  0  0  0  0  0  0  0  0  0  0
   22.0424  -13.6422   25.4775 C   0  0  0  0  0  0  0  0  0  0  0  0
   20.8388  -12.9367   25.2603 C   0  0  0  0  0  0  0  0  0  0  0  0
   20.8963  -11.4667   25.2798 C   0  0  0  0  0  0  0  0  0  0  0  0
   19.7983  -10.9752   26.1180 N   0  0  0  0  0  4  0  0  0  0  0  0
   18.3900  -12.8940   24.8229 C   0  0  0  0  0  0  0  0  0  0  0  0
   18.1666  -12.3012   23.5498 N   0  0  0  0  0  0  0  0  0  0  0  0
   18.3422  -13.1021   22.3780 C   0  0  0  0  0  0  0  0  0  0  0  0
   18.2868  -15.0906   21.0380 C   0  0  0  0  0  0  0  0  0  0  0  0
   18.0010  -14.4420   19.7138 C   0  0  0  0  0  0  0  0  0  0  0  0
   16.7794  -13.6105   19.9452 C   0  0  0  0  0  0  0  0  0  0  0  0
   16.3310  -13.9602   21.2536 N   0  0  0  0  0  0  0  0  0  0  0  0
   15.0042  -14.0499   21.7405 C   0  0  0  0  0  0  0  0  0  0  0  0
   13.7996  -14.2797   20.8849 C   0  0  2  0  0  0  0  0  0  0  0  0
   12.6911  -13.3773   21.3753 C   0  0  0  0  0  0  0  0  0  0  0  0
   13.0918  -11.9403   21.4759 C   0  0  0  0  0  0  0  0  0  0  0  0
   11.9251  -11.1240   22.0357 C   0  0  0  0  0  0  0  0  0  0  0  0
   12.4576  -10.0713   22.8849 N   0  0  0  0  0  0  0  0  0  0  0  0
   11.6729   -9.4792   23.9077 C   0  0  0  0  0  0  0  0  0  0  0  0
   10.4212  -10.0193   24.2798 N   0  0  0  0  0  0  0  0  0  0  0  0
   12.1054   -8.4285   24.5106 N   0  0  0  0  0  0  0  0  0  0  0  0
   13.3712  -15.6589   21.0304 N   0  0  0  0  0  0  0  0  0  0  0  0
   13.5880  -16.5706   19.5915 S   0  0  1  0  0  6  0  0  0  0  0  0
   12.5566  -16.2157   18.5562 O   0  0  0  0  0  0  0  0  0  0  0  0
   14.9527  -16.1902   19.0324 O   0  0  0  0  0  0  0  0  0  0  0  0
   13.5217  -18.3186   19.8566 C   0  0  0  0  0  0  0  0  0  0  0  0
   14.4517  -18.6771   20.9884 C   0  0  0  0  0  0  0  0  0  0  0  0
   15.7694  -18.9803   20.7370 C   0  0  0  0  0  0  0  0  0  0  0  0
   16.6678  -19.3253   21.7259 C   0  0  0  0  0  0  0  0  0  0  0  0
   16.1972  -19.3612   23.0325 C   0  0  0  0  0  0  0  0  0  0  0  0
   14.8669  -19.0540   23.2774 C   0  0  0  0  0  0  0  0  0  0  0  0
   12.0141   -8.3286   25.5551 H   0  0  0  0  0  0  0  0  0  0  0  0
 21  1  2  0
 16  2  2  0
 35  3  2  0
  3 39  1  0
  4 16  1  6
 17  4  1  1
 20  4  1  0
  5  8  1  0
  5 11  2  0
 14  5  1  0
  7  6  1  0
  8  7  2  0
  7  9  1  0
 10  9  2  0
 11 10  1  0
 12 11  1  1
 13 12  1  6
 14 15  1  6
 16 15  1  0
 18 17  1  0
 18 19  1  6
 19 20  1  6
 21 20  1  0
 22 21  1  0
 23 22  1  1
 22 30  1  1
 23 24  1  0
 24 25  1  6
 25 26  1  6
 26 27  1  0
 27 28  1  0
 27 29  2  0
 31 30  1  1
 31 32  2  0
 31 33  2  0
 34 31  1  0
 34 35  1  6
 35 36  1  0
 36 37  2  0
 37 38  1  0
 38 39  2  0
 29 40  1  0
M  CHG  1  13   1
M  END
$$$$
