
     RDKit          3D

 20 21  0  0  0  0  0  0  0  0999 V2000
   16.0665   12.1955   37.4308 C   0  0  0  0  0  0  0  0  0  0  0  0
   14.6430   12.5296   37.7592 C   0  0  0  0  0  0  0  0  0  0  0  0
   13.8318   11.6392   38.1336 O   0  0  0  0  0  0  0  0  0  0  0  0
   14.1571   13.8612   37.6604 N   0  0  0  0  0  0  0  0  0  0  0  0
   13.0599   14.2733   38.4885 C   0  0  0  0  0  0  0  0  0  0  0  0
   12.9171   13.7770   39.7501 C   0  0  0  0  0  0  0  0  0  0  0  0
   12.1497   15.1920   37.9656 C   0  0  0  0  0  0  0  0  0  0  0  0
   11.0911   15.6075   38.7271 C   0  0  0  0  0  0  0  0  0  0  0  0
   10.9617   15.0967   39.9984 C   0  0  0  0  0  0  0  0  0  0  0  0
    9.6174   15.5970   41.0228 Cl  0  0  0  0  0  0  0  0  0  0  0  0
   11.8589   14.1834   40.5301 C   0  0  0  0  0  0  0  0  0  0  0  0
   11.6328   13.5766   42.1520 S   0  0  2  0  0  6  0  0  0  0  0  0
   11.2072   14.7083   43.0236 O   0  0  0  0  0  0  0  0  0  0  0  0
   12.9480   13.0677   42.6821 O   0  0  0  0  0  0  0  0  0  0  0  0
   10.4515   12.2876   42.1584 N   0  0  0  0  0  0  0  0  0  0  0  0
   11.1590   11.0635   42.0314 C   0  0  0  0  0  0  0  0  0  0  0  0
   10.3871    9.9156   41.5046 C   0  0  0  0  0  0  0  0  0  0  0  0
    9.1387   10.2327   41.0124 O   0  0  0  0  0  0  0  0  0  0  0  0
    9.1128   11.4097   40.2888 C   0  0  0  0  0  0  0  0  0  0  0  0
    9.4963   12.5668   41.1466 C   0  0  0  0  0  0  0  0  0  0  0  0
  1  2  1  0
  2  3  2  0
  2  4  1  0
  4  5  1  0
  5  6  2  0
  5  7  1  0
  6 11  1  0
  7  8  2  0
  8  9  1  0
  9 10  1  0
  9 11  2  0
 11 12  1  0
 12 13  2  0
 12 14  2  0
 12 15  1  6
 15 16  1  0
 15 20  1  0
 16 17  1  0
 17 18  1  0
 18 19  1  0
 19 20  1  0
M  END
$$$$
