
     RDKit          3D

 20 21  0  0  0  0  0  0  0  0999 V2000
   15.3164   12.6188   36.1131 C   0  0  0  0  0  0  0  0  0  0  0  0
   14.0932   12.9037   36.9052 C   0  0  0  0  0  0  0  0  0  0  0  0
   13.1681   12.0588   36.9468 O   0  0  0  0  0  0  0  0  0  0  0  0
   14.0071   14.1367   37.5986 N   0  0  0  0  0  0  0  0  0  0  0  0
   12.9971   14.3591   38.5824 C   0  0  0  0  0  0  0  0  0  0  0  0
   12.0238   13.4206   38.8556 C   0  0  0  0  0  0  0  0  0  0  0  0
   12.9807   15.5468   39.2916 C   0  0  0  0  0  0  0  0  0  0  0  0
   12.0289   15.8184   40.2549 C   0  0  0  0  0  0  0  0  0  0  0  0
   11.0641   14.8519   40.5044 C   0  0  0  0  0  0  0  0  0  0  0  0
    9.8571   15.1924   41.7238 Cl  0  0  0  0  0  0  0  0  0  0  0  0
   11.0774   13.6676   39.8000 C   0  0  0  0  0  0  0  0  0  0  0  0
    9.8412   12.4459   40.1294 S   0  0  2  0  0  6  0  0  0  0  0  0
    9.7620   11.5770   38.9297 O   0  0  0  0  0  0  0  0  0  0  0  0
    8.5441   13.1171   40.4451 O   0  0  0  0  0  0  0  0  0  0  0  0
   10.3606   11.5916   41.5351 N   0  0  0  0  0  0  0  0  0  0  0  0
   10.5522   10.2051   41.2204 C   0  0  0  0  0  0  0  0  0  0  0  0
   11.9889    9.9655   40.8845 C   0  0  0  0  0  0  0  0  0  0  0  0
   12.8183   10.1682   41.9605 O   0  0  0  0  0  0  0  0  0  0  0  0
   12.3969   11.1711   42.8200 C   0  0  0  0  0  0  0  0  0  0  0  0
   11.5914   12.1752   42.0034 C   0  0  0  0  0  0  0  0  0  0  0  0
  1  2  1  6
  2  3  2  0
  2  4  1  0
  4  5  1  0
  5  6  2  0
  5  7  1  0
  6 11  1  0
  7  8  2  0
  8  9  1  0
  9 10  1  0
  9 11  2  0
 11 12  1  0
 12 13  2  0
 12 14  2  0
 12 15  1  1
 16 15  1  1
 20 15  1  1
 16 17  1  0
 17 18  1  6
 19 18  1  1
 19 20  1  0
M  END
$$$$
