
     RDKit          3D

 20 21  0  0  0  0  0  0  0  0999 V2000
   16.5160   12.3271   36.9785 C   0  0  0  0  0  0  0  0  0  0  0  0
   15.2616   12.3268   37.7731 C   0  0  0  0  0  0  0  0  0  0  0  0
   14.4532   13.2781   37.6597 O   0  0  0  0  0  0  0  0  0  0  0  0
   15.0130   11.2385   38.6462 N   0  0  0  0  0  0  0  0  0  0  0  0
   14.0173   11.3248   39.6653 C   0  0  0  0  0  0  0  0  0  0  0  0
   13.2250   12.4433   39.8200 C   0  0  0  0  0  0  0  0  0  0  0  0
   13.8293   10.2628   40.5316 C   0  0  0  0  0  0  0  0  0  0  0  0
   12.8821   10.2884   41.5365 C   0  0  0  0  0  0  0  0  0  0  0  0
   12.1020   11.4297   41.6638 C   0  0  0  0  0  0  0  0  0  0  0  0
   10.9014   11.4657   42.9353 Cl  0  0  0  0  0  0  0  0  0  0  0  0
   12.2865   12.4895   40.8026 C   0  0  0  0  0  0  0  0  0  0  0  0
   11.2846   13.9369   40.9777 S   0  0  2  0  0  6  0  0  0  0  0  0
   12.0139   15.0492   40.3209 O   0  0  0  0  0  0  0  0  0  0  0  0
   11.0213   14.1925   42.4261 O   0  0  0  0  0  0  0  0  0  0  0  0
    9.7797   13.5854   40.2114 N   0  0  0  0  0  0  0  0  0  0  0  0
    8.7202   14.2955   40.8681 C   0  0  0  0  0  0  0  0  0  0  0  0
    8.4660   15.5827   40.1520 C   0  0  0  0  0  0  0  0  0  0  0  0
    7.9824   15.3875   38.8812 O   0  0  0  0  0  0  0  0  0  0  0  0
    8.4784   14.2550   38.2538 C   0  0  0  0  0  0  0  0  0  0  0  0
    9.8628   13.9745   38.8270 C   0  0  0  0  0  0  0  0  0  0  0  0
  1  2  1  6
  2  3  2  0
  2  4  1  0
  4  5  1  0
  5  6  2  0
  5  7  1  0
  6 11  1  0
  7  8  2  0
  8  9  1  0
  9 10  1  0
  9 11  2  0
 11 12  1  0
 12 13  2  0
 12 14  2  0
 12 15  1  6
 16 15  1  1
 20 15  1  1
 16 17  1  0
 17 18  1  6
 19 18  1  1
 19 20  1  0
M  END
$$$$
