
     RDKit          3D

 20 21  0  0  0  0  0  0  0  0999 V2000
   15.7777    7.6124   41.0828 C   0  0  0  0  0  0  0  0  0  0  0  0
   14.7935    8.6823   40.7801 C   0  0  0  0  0  0  0  0  0  0  0  0
   15.1315    9.6539   40.0638 O   0  0  0  0  0  0  0  0  0  0  0  0
   13.4863    8.5717   41.3162 N   0  0  0  0  0  0  0  0  0  0  0  0
   12.4461    9.4603   40.9093 C   0  0  0  0  0  0  0  0  0  0  0  0
   12.6610   10.4635   39.9873 C   0  0  0  0  0  0  0  0  0  0  0  0
   11.1787    9.3240   41.4469 C   0  0  0  0  0  0  0  0  0  0  0  0
   10.1330   10.1535   41.0920 C   0  0  0  0  0  0  0  0  0  0  0  0
   10.3844   11.1526   40.1614 C   0  0  0  0  0  0  0  0  0  0  0  0
    9.0624   12.2050   39.7095 Cl  0  0  0  0  0  0  0  0  0  0  0  0
   11.6456   11.2913   39.6238 C   0  0  0  0  0  0  0  0  0  0  0  0
   11.9502   12.5693   38.4391 S   0  0  2  0  0  6  0  0  0  0  0  0
   10.7540   12.6421   37.5650 O   0  0  0  0  0  0  0  0  0  0  0  0
   13.2024   12.2642   37.6830 O   0  0  0  0  0  0  0  0  0  0  0  0
   12.2049   14.0190   39.3386 N   0  0  0  0  0  0  0  0  0  0  0  0
   10.9985   14.7947   39.3656 C   0  0  0  0  0  0  0  0  0  0  0  0
   10.2360   14.4847   40.6134 C   0  0  0  0  0  0  0  0  0  0  0  0
   10.9013   14.8861   41.7461 O   0  0  0  0  0  0  0  0  0  0  0  0
   12.2816   14.7906   41.6566 C   0  0  0  0  0  0  0  0  0  0  0  0
   12.6075   13.6692   40.6767 C   0  0  0  0  0  0  0  0  0  0  0  0
  1  2  1  6
  2  3  2  0
  2  4  1  0
  4  5  1  0
  5  6  2  0
  5  7  1  0
  6 11  1  0
  7  8  2  0
  8  9  1  0
  9 10  1  0
  9 11  2  0
 11 12  1  0
 12 13  2  0
 12 14  2  0
 12 15  1  1
 16 15  1  1
 20 15  1  1
 16 17  1  0
 17 18  1  6
 19 18  1  1
 19 20  1  0
M  END
$$$$
