
     RDKit          3D

 20 21  0  0  0  0  0  0  0  0999 V2000
   15.8844   11.9627   36.4943 C   0  0  0  0  0  0  0  0  0  0  0  0
   14.7591   12.2342   37.4242 C   0  0  0  0  0  0  0  0  0  0  0  0
   14.1892   13.3506   37.4021 O   0  0  0  0  0  0  0  0  0  0  0  0
   14.3582   11.2113   38.3195 N   0  0  0  0  0  0  0  0  0  0  0  0
   13.4255   11.4741   39.3676 C   0  0  0  0  0  0  0  0  0  0  0  0
   12.8375   12.7115   39.5293 C   0  0  0  0  0  0  0  0  0  0  0  0
   13.0911   10.4677   40.2559 C   0  0  0  0  0  0  0  0  0  0  0  0
   12.1956   10.6625   41.2892 C   0  0  0  0  0  0  0  0  0  0  0  0
   11.6226   11.9199   41.4229 C   0  0  0  0  0  0  0  0  0  0  0  0
   10.4880   12.1702   42.7304 Cl  0  0  0  0  0  0  0  0  0  0  0  0
   11.9533   12.9248   40.5398 C   0  0  0  0  0  0  0  0  0  0  0  0
   11.2147   14.5217   40.7233 S   0  0  2  0  0  6  0  0  0  0  0  0
   12.0555   15.4768   39.9610 O   0  0  0  0  0  0  0  0  0  0  0  0
   11.1175   14.8657   42.1741 O   0  0  0  0  0  0  0  0  0  0  0  0
    9.6142   14.3954   40.0922 N   0  0  0  0  0  0  0  0  0  0  0  0
    9.6464   14.4784   38.6604 C   0  0  0  0  0  0  0  0  0  0  0  0
    9.6836   13.1000   38.0833 C   0  0  0  0  0  0  0  0  0  0  0  0
    8.5326   12.3951   38.3383 O   0  0  0  0  0  0  0  0  0  0  0  0
    7.9452   12.6913   39.5587 C   0  0  0  0  0  0  0  0  0  0  0  0
    9.0494   13.1379   40.5101 C   0  0  0  0  0  0  0  0  0  0  0  0
  1  2  1  6
  2  3  2  0
  2  4  1  0
  4  5  1  0
  5  6  2  0
  5  7  1  0
  6 11  1  0
  7  8  2  0
  8  9  1  0
  9 10  1  0
  9 11  2  0
 11 12  1  0
 12 13  2  0
 12 14  2  0
 12 15  1  6
 16 15  1  1
 20 15  1  1
 16 17  1  0
 17 18  1  6
 19 18  1  1
 19 20  1  0
M  END
$$$$
