
     RDKit          3D

 20 21  0  0  0  0  0  0  0  0999 V2000
   16.4042   12.0454   36.7762 C   0  0  0  0  0  0  0  0  0  0  0  0
   15.1577   12.1673   37.5991 C   0  0  0  0  0  0  0  0  0  0  0  0
   14.4039   13.1737   37.4996 O   0  0  0  0  0  0  0  0  0  0  0  0
   14.7810   11.1533   38.5205 N   0  0  0  0  0  0  0  0  0  0  0  0
   13.7874   11.4400   39.5154 C   0  0  0  0  0  0  0  0  0  0  0  0
   13.1954   12.6666   39.5725 C   0  0  0  0  0  0  0  0  0  0  0  0
   13.4482   10.4307   40.4167 C   0  0  0  0  0  0  0  0  0  0  0  0
   12.5045   10.6688   41.3789 C   0  0  0  0  0  0  0  0  0  0  0  0
   11.9167   11.9123   41.4226 C   0  0  0  0  0  0  0  0  0  0  0  0
   10.6952   12.2738   42.6409 Cl  0  0  0  0  0  0  0  0  0  0  0  0
   12.2445   12.9239   40.5332 C   0  0  0  0  0  0  0  0  0  0  0  0
   11.4577   14.4789   40.6472 S   0  0  2  0  0  6  0  0  0  0  0  0
   12.3096   15.4898   39.9590 O   0  0  0  0  0  0  0  0  0  0  0  0
   11.3579   14.8824   42.0953 O   0  0  0  0  0  0  0  0  0  0  0  0
    9.8602   14.4039   39.9404 N   0  0  0  0  0  0  0  0  0  0  0  0
    9.9153   15.0831   38.6952 C   0  0  0  0  0  0  0  0  0  0  0  0
    8.6275   15.5928   38.1727 C   0  0  0  0  0  0  0  0  0  0  0  0
    7.5734   15.5231   39.0589 O   0  0  0  0  0  0  0  0  0  0  0  0
    7.9179   15.8578   40.3546 C   0  0  0  0  0  0  0  0  0  0  0  0
    8.9385   14.9134   40.8916 C   0  0  0  0  0  0  0  0  0  0  0  0
  1  2  1  0
  2  3  2  0
  2  4  1  0
  4  5  1  0
  5  6  2  0
  5  7  1  0
  6 11  1  0
  7  8  2  0
  8  9  1  0
  9 10  1  0
  9 11  2  0
 11 12  1  0
 12 13  2  0
 12 14  2  0
 12 15  1  6
 15 16  1  0
 15 20  1  0
 16 17  1  0
 17 18  1  0
 18 19  1  0
 19 20  1  0
M  END
$$$$
