
     RDKit          3D

 20 21  0  0  0  0  0  0  0  0999 V2000
   16.1604   12.6233   37.6992 C   0  0  0  0  0  0  0  0  0  0  0  0
   14.7104   12.8986   37.8621 C   0  0  0  0  0  0  0  0  0  0  0  0
   13.8914   11.9496   37.8464 O   0  0  0  0  0  0  0  0  0  0  0  0
   14.2907   14.2415   38.0326 N   0  0  0  0  0  0  0  0  0  0  0  0
   13.1653   14.5631   38.8496 C   0  0  0  0  0  0  0  0  0  0  0  0
   12.4790   13.6002   39.5599 C   0  0  0  0  0  0  0  0  0  0  0  0
   12.7380   15.8756   38.9419 C   0  0  0  0  0  0  0  0  0  0  0  0
   11.6561   16.2471   39.7158 C   0  0  0  0  0  0  0  0  0  0  0  0
   10.9883   15.2526   40.4176 C   0  0  0  0  0  0  0  0  0  0  0  0
    9.6176   15.7194   41.3988 Cl  0  0  0  0  0  0  0  0  0  0  0  0
   11.4111   13.9442   40.3280 C   0  0  0  0  0  0  0  0  0  0  0  0
   10.5498   12.6883   41.2281 S   0  0  2  0  0  6  0  0  0  0  0  0
   10.1327   13.2903   42.5180 O   0  0  0  0  0  0  0  0  0  0  0  0
   11.4374   11.4992   41.4041 O   0  0  0  0  0  0  0  0  0  0  0  0
    9.2089   12.2184   40.2500 N   0  0  0  0  0  0  0  0  0  0  0  0
    9.4751   10.9505   39.6338 C   0  0  0  0  0  0  0  0  0  0  0  0
    8.8902    9.8586   40.4706 C   0  0  0  0  0  0  0  0  0  0  0  0
    7.5184    9.9121   40.5158 O   0  0  0  0  0  0  0  0  0  0  0  0
    6.9996   11.1971   40.4741 C   0  0  0  0  0  0  0  0  0  0  0  0
    8.0353   12.1366   41.0811 C   0  0  0  0  0  0  0  0  0  0  0  0
  1  2  1  6
  2  3  2  0
  2  4  1  0
  4  5  1  0
  5  6  2  0
  5  7  1  0
  6 11  1  0
  7  8  2  0
  8  9  1  0
  9 10  1  0
  9 11  2  0
 11 12  1  0
 12 13  2  0
 12 14  2  0
 12 15  1  6
 16 15  1  1
 20 15  1  1
 16 17  1  0
 17 18  1  6
 19 18  1  1
 19 20  1  0
M  END
$$$$
