
     RDKit          3D

 20 21  0  0  0  0  0  0  0  0999 V2000
   15.7876   12.4920   36.9809 C   0  0  0  0  0  0  0  0  0  0  0  0
   14.3695   12.7002   37.3687 C   0  0  0  0  0  0  0  0  0  0  0  0
   13.6375   11.7105   37.6053 O   0  0  0  0  0  0  0  0  0  0  0  0
   13.8802   14.0271   37.4608 N   0  0  0  0  0  0  0  0  0  0  0  0
   12.8784   14.3778   38.4153 C   0  0  0  0  0  0  0  0  0  0  0  0
   12.5246   13.5333   39.4470 C   0  0  0  0  0  0  0  0  0  0  0  0
   12.2341   15.5979   38.3158 C   0  0  0  0  0  0  0  0  0  0  0  0
   11.2572   15.9919   39.2091 C   0  0  0  0  0  0  0  0  0  0  0  0
   10.9256   15.1176   40.2353 C   0  0  0  0  0  0  0  0  0  0  0  0
    9.6888   15.6133   41.3685 Cl  0  0  0  0  0  0  0  0  0  0  0  0
   11.5654   13.9015   40.3375 C   0  0  0  0  0  0  0  0  0  0  0  0
   11.1318   12.7983   41.6506 S   0  0  2  0  0  6  0  0  0  0  0  0
   10.9788   13.6223   42.8745 O   0  0  0  0  0  0  0  0  0  0  0  0
   12.1830   11.7454   41.7890 O   0  0  0  0  0  0  0  0  0  0  0  0
    9.6609   12.0307   41.1785 N   0  0  0  0  0  0  0  0  0  0  0  0
    9.7188   11.6778   39.7892 C   0  0  0  0  0  0  0  0  0  0  0  0
   10.1758   10.2610   39.6549 C   0  0  0  0  0  0  0  0  0  0  0  0
    9.2711    9.3681   40.1756 O   0  0  0  0  0  0  0  0  0  0  0  0
    8.5796    9.8410   41.2803 C   0  0  0  0  0  0  0  0  0  0  0  0
    9.4715   10.8546   41.9883 C   0  0  0  0  0  0  0  0  0  0  0  0
  1  2  1  6
  2  3  2  0
  2  4  1  0
  4  5  1  0
  5  6  2  0
  5  7  1  0
  6 11  1  0
  7  8  2  0
  8  9  1  0
  9 10  1  0
  9 11  2  0
 11 12  1  0
 12 13  2  0
 12 14  2  0
 12 15  1  6
 16 15  1  1
 20 15  1  1
 16 17  1  0
 17 18  1  6
 19 18  1  1
 19 20  1  0
M  END
$$$$
