
     RDKit          3D

 20 21  0  0  0  0  0  0  0  0999 V2000
   15.1271   12.7820   35.9586 C   0  0  0  0  0  0  0  0  0  0  0  0
   14.0858   13.0358   36.9863 C   0  0  0  0  0  0  0  0  0  0  0  0
   13.3546   12.0954   37.3766 O   0  0  0  0  0  0  0  0  0  0  0  0
   13.9480   14.3491   37.5012 N   0  0  0  0  0  0  0  0  0  0  0  0
   13.0360   14.6319   38.5622 C   0  0  0  0  0  0  0  0  0  0  0  0
   12.2856   13.6432   39.1639 C   0  0  0  0  0  0  0  0  0  0  0  0
   12.8892   15.9321   39.0115 C   0  0  0  0  0  0  0  0  0  0  0  0
   12.0229   16.2665   40.0339 C   0  0  0  0  0  0  0  0  0  0  0  0
   11.2830   15.2467   40.6171 C   0  0  0  0  0  0  0  0  0  0  0  0
   10.1848   15.6665   41.9121 Cl  0  0  0  0  0  0  0  0  0  0  0  0
   11.4267   13.9505   40.1720 C   0  0  0  0  0  0  0  0  0  0  0  0
   10.4770   12.6621   40.9253 S   0  0  2  0  0  6  0  0  0  0  0  0
   10.0586   11.7424   39.8393 O   0  0  0  0  0  0  0  0  0  0  0  0
    9.3190   13.2561   41.6594 O   0  0  0  0  0  0  0  0  0  0  0  0
   11.5114   11.9021   42.0776 N   0  0  0  0  0  0  0  0  0  0  0  0
   10.7342   11.0950   42.9734 C   0  0  0  0  0  0  0  0  0  0  0  0
   10.7116    9.6845   42.4789 C   0  0  0  0  0  0  0  0  0  0  0  0
   11.9533    9.0982   42.5137 O   0  0  0  0  0  0  0  0  0  0  0  0
   13.0001    9.9727   42.2657 C   0  0  0  0  0  0  0  0  0  0  0  0
   12.4711   11.0903   41.3741 C   0  0  0  0  0  0  0  0  0  0  0  0
  1  2  1  6
  2  3  2  0
  2  4  1  0
  4  5  1  0
  5  6  2  0
  5  7  1  0
  6 11  1  0
  7  8  2  0
  8  9  1  0
  9 10  1  0
  9 11  2  0
 11 12  1  0
 12 13  2  0
 12 14  2  0
 12 15  1  1
 16 15  1  1
 20 15  1  1
 16 17  1  0
 17 18  1  6
 19 18  1  1
 19 20  1  0
M  END
$$$$
