
     RDKit          3D

 20 21  0  0  0  0  0  0  0  0999 V2000
   15.9702   12.8267   37.2891 C   0  0  0  0  0  0  0  0  0  0  0  0
   14.5593   13.1035   37.6600 C   0  0  0  0  0  0  0  0  0  0  0  0
   13.7096   12.1834   37.6053 O   0  0  0  0  0  0  0  0  0  0  0  0
   14.2112   14.4149   38.0696 N   0  0  0  0  0  0  0  0  0  0  0  0
   13.0807   14.6483   38.9090 C   0  0  0  0  0  0  0  0  0  0  0  0
   12.6433   13.7121   39.8229 C   0  0  0  0  0  0  0  0  0  0  0  0
   12.3924   15.8446   38.8149 C   0  0  0  0  0  0  0  0  0  0  0  0
   11.2919   16.1270   39.6003 C   0  0  0  0  0  0  0  0  0  0  0  0
   10.8789   15.1625   40.5095 C   0  0  0  0  0  0  0  0  0  0  0  0
    9.4856   15.5167   41.5058 Cl  0  0  0  0  0  0  0  0  0  0  0  0
   11.5621   13.9697   40.6059 C   0  0  0  0  0  0  0  0  0  0  0  0
   11.0236   12.7506   41.7692 S   0  0  2  0  0  6  0  0  0  0  0  0
    9.9423   13.3695   42.5743 O   0  0  0  0  0  0  0  0  0  0  0  0
   12.1821   12.3047   42.6010 O   0  0  0  0  0  0  0  0  0  0  0  0
   10.4746   11.4017   40.8448 N   0  0  0  0  0  0  0  0  0  0  0  0
   10.1776   10.3015   41.7163 C   0  0  0  0  0  0  0  0  0  0  0  0
    8.7205   10.3110   42.0499 C   0  0  0  0  0  0  0  0  0  0  0  0
    7.9310   10.0728   40.9514 O   0  0  0  0  0  0  0  0  0  0  0  0
    8.4414   10.5791   39.7660 C   0  0  0  0  0  0  0  0  0  0  0  0
    9.2991   11.7918   40.1094 C   0  0  0  0  0  0  0  0  0  0  0  0
  1  2  1  6
  2  3  2  0
  2  4  1  0
  4  5  1  0
  5  6  2  0
  5  7  1  0
  6 11  1  0
  7  8  2  0
  8  9  1  0
  9 10  1  0
  9 11  2  0
 11 12  1  0
 12 13  2  0
 12 14  2  0
 12 15  1  6
 16 15  1  1
 20 15  1  1
 16 17  1  0
 17 18  1  6
 19 18  1  1
 19 20  1  0
M  END
$$$$
