
     RDKit          3D

 20 21  0  0  0  0  0  0  0  0999 V2000
   16.2923   12.8469   36.8001 C   0  0  0  0  0  0  0  0  0  0  0  0
   14.8749   12.9769   37.2232 C   0  0  0  0  0  0  0  0  0  0  0  0
   14.1805   11.9477   37.3965 O   0  0  0  0  0  0  0  0  0  0  0  0
   14.3433   14.2757   37.4206 N   0  0  0  0  0  0  0  0  0  0  0  0
   13.2091   14.4870   38.2611 C   0  0  0  0  0  0  0  0  0  0  0  0
   12.9275   13.6615   39.3297 C   0  0  0  0  0  0  0  0  0  0  0  0
   12.3573   15.5475   38.0090 C   0  0  0  0  0  0  0  0  0  0  0  0
   11.2448   15.8020   38.7870 C   0  0  0  0  0  0  0  0  0  0  0  0
   10.9912   14.9513   39.8544 C   0  0  0  0  0  0  0  0  0  0  0  0
    9.5832   15.2705   40.8419 Cl  0  0  0  0  0  0  0  0  0  0  0  0
   11.8375   13.8939   40.1085 C   0  0  0  0  0  0  0  0  0  0  0  0
   11.5009   12.8187   41.4723 S   0  0  2  0  0  6  0  0  0  0  0  0
   10.7280   13.6067   42.4632 O   0  0  0  0  0  0  0  0  0  0  0  0
   12.7855   12.2929   42.0255 O   0  0  0  0  0  0  0  0  0  0  0  0
   10.6049   11.4888   40.8367 N   0  0  0  0  0  0  0  0  0  0  0  0
   11.3663   10.2801   40.9683 C   0  0  0  0  0  0  0  0  0  0  0  0
   10.9747    9.5808   42.2301 C   0  0  0  0  0  0  0  0  0  0  0  0
    9.6742    9.1397   42.2015 O   0  0  0  0  0  0  0  0  0  0  0  0
    8.8127    9.9605   41.4899 C   0  0  0  0  0  0  0  0  0  0  0  0
    9.3623   11.3809   41.5571 C   0  0  0  0  0  0  0  0  0  0  0  0
  1  2  1  6
  2  3  2  0
  2  4  1  0
  4  5  1  0
  5  6  2  0
  5  7  1  0
  6 11  1  0
  7  8  2  0
  8  9  1  0
  9 10  1  0
  9 11  2  0
 11 12  1  0
 12 13  2  0
 12 14  2  0
 12 15  1  6
 16 15  1  1
 20 15  1  1
 16 17  1  0
 17 18  1  6
 19 18  1  1
 19 20  1  0
M  END
$$$$
