
     RDKit          3D

 20 21  0  0  0  0  0  0  0  0999 V2000
   15.3724   13.3048   35.7895 C   0  0  0  0  0  0  0  0  0  0  0  0
   14.2523   13.3110   36.7850 C   0  0  0  0  0  0  0  0  0  0  0  0
   13.6698   12.2439   37.1211 O   0  0  0  0  0  0  0  0  0  0  0  0
   13.8069   14.5194   37.3855 N   0  0  0  0  0  0  0  0  0  0  0  0
   12.8635   14.4628   38.4654 C   0  0  0  0  0  0  0  0  0  0  0  0
   12.3313   13.2718   38.8611 C   0  0  0  0  0  0  0  0  0  0  0  0
   12.5102   15.6570   39.0938 C   0  0  0  0  0  0  0  0  0  0  0  0
   11.6134   15.6408   40.1274 C   0  0  0  0  0  0  0  0  0  0  0  0
   11.0857   14.4302   40.5143 C   0  0  0  0  0  0  0  0  0  0  0  0
    9.9263   14.3507   41.8397 Cl  0  0  0  0  0  0  0  0  0  0  0  0
   11.4281   13.2363   39.8985 C   0  0  0  0  0  0  0  0  0  0  0  0
   10.7187   11.7359   40.4420 S   0  0  2  0  0  6  0  0  0  0  0  0
   10.2059   10.9988   39.2524 O   0  0  0  0  0  0  0  0  0  0  0  0
    9.5398   12.0348   41.3312 O   0  0  0  0  0  0  0  0  0  0  0  0
   11.8987   10.7893   41.3187 N   0  0  0  0  0  0  0  0  0  0  0  0
   11.3693    9.4802   41.4633 C   0  0  0  0  0  0  0  0  0  0  0  0
   11.9195    8.6733   42.5757 C   0  0  0  0  0  0  0  0  0  0  0  0
   12.7253    9.3677   43.4530 O   0  0  0  0  0  0  0  0  0  0  0  0
   12.2575   10.6339   43.7488 C   0  0  0  0  0  0  0  0  0  0  0  0
   12.2032   11.4781   42.5215 C   0  0  0  0  0  0  0  0  0  0  0  0
  1  2  1  0
  2  3  2  0
  2  4  1  0
  4  5  1  0
  5  6  2  0
  5  7  1  0
  6 11  1  0
  7  8  2  0
  8  9  1  0
  9 10  1  0
  9 11  2  0
 11 12  1  0
 12 13  2  0
 12 14  2  0
 12 15  1  1
 15 16  1  0
 15 20  1  0
 16 17  1  0
 17 18  1  0
 18 19  1  0
 19 20  1  0
M  END
$$$$
