
     RDKit          3D

 20 21  0  0  0  0  0  0  0  0999 V2000
   16.0614   13.2769   36.0809 C   0  0  0  0  0  0  0  0  0  0  0  0
   14.8566   13.1869   36.9443 C   0  0  0  0  0  0  0  0  0  0  0  0
   14.3677   12.0649   37.2149 O   0  0  0  0  0  0  0  0  0  0  0  0
   14.2890   14.3862   37.4423 N   0  0  0  0  0  0  0  0  0  0  0  0
   13.2022   14.3577   38.3672 C   0  0  0  0  0  0  0  0  0  0  0  0
   12.5822   13.1802   38.7301 C   0  0  0  0  0  0  0  0  0  0  0  0
   12.7455   15.5385   38.9248 C   0  0  0  0  0  0  0  0  0  0  0  0
   11.6984   15.5736   39.8247 C   0  0  0  0  0  0  0  0  0  0  0  0
   11.0972   14.3701   40.1679 C   0  0  0  0  0  0  0  0  0  0  0  0
    9.7707   14.4107   41.3072 Cl  0  0  0  0  0  0  0  0  0  0  0  0
   11.5495   13.1920   39.6144 C   0  0  0  0  0  0  0  0  0  0  0  0
   10.7731   11.6667   40.0616 S   0  0  2  0  0  6  0  0  0  0  0  0
   11.2224   10.6492   39.0802 O   0  0  0  0  0  0  0  0  0  0  0  0
    9.2895   11.8437   40.0742 O   0  0  0  0  0  0  0  0  0  0  0  0
   11.2858   11.3104   41.6697 N   0  0  0  0  0  0  0  0  0  0  0  0
   10.1811   11.4452   42.5750 C   0  0  0  0  0  0  0  0  0  0  0  0
    9.5414   10.1100   42.7809 C   0  0  0  0  0  0  0  0  0  0  0  0
   10.3741    9.2241   43.4200 O   0  0  0  0  0  0  0  0  0  0  0  0
   11.7160    9.3829   43.1098 C   0  0  0  0  0  0  0  0  0  0  0  0
   11.8025    9.9663   41.7040 C   0  0  0  0  0  0  0  0  0  0  0  0
  1  2  1  6
  2  3  2  0
  2  4  1  0
  4  5  1  0
  5  6  2  0
  5  7  1  0
  6 11  1  0
  7  8  2  0
  8  9  1  0
  9 10  1  0
  9 11  2  0
 11 12  1  0
 12 13  2  0
 12 14  2  0
 12 15  1  1
 16 15  1  1
 20 15  1  1
 16 17  1  0
 17 18  1  6
 19 18  1  1
 19 20  1  0
M  END
$$$$
