
     RDKit          3D

 20 21  0  0  0  0  0  0  0  0999 V2000
   15.9086   13.1133   36.4849 C   0  0  0  0  0  0  0  0  0  0  0  0
   14.5718   12.9654   37.1141 C   0  0  0  0  0  0  0  0  0  0  0  0
   14.2307   11.8603   37.5979 O   0  0  0  0  0  0  0  0  0  0  0  0
   13.7113   14.0910   37.1494 N   0  0  0  0  0  0  0  0  0  0  0  0
   12.7421   14.2446   38.1860 C   0  0  0  0  0  0  0  0  0  0  0  0
   12.7387   13.4421   39.3080 C   0  0  0  0  0  0  0  0  0  0  0  0
   11.7705   15.2232   38.0765 C   0  0  0  0  0  0  0  0  0  0  0  0
   10.8072   15.4191   39.0466 C   0  0  0  0  0  0  0  0  0  0  0  0
   10.8331   14.5937   40.1626 C   0  0  0  0  0  0  0  0  0  0  0  0
    9.6145   14.8388   41.3933 Cl  0  0  0  0  0  0  0  0  0  0  0  0
   11.7994   13.6178   40.2751 C   0  0  0  0  0  0  0  0  0  0  0  0
   11.8192   12.5740   41.7032 S   0  0  2  0  0  6  0  0  0  0  0  0
   10.6978   13.0085   42.5715 O   0  0  0  0  0  0  0  0  0  0  0  0
   13.1478   12.6744   42.3795 O   0  0  0  0  0  0  0  0  0  0  0  0
   11.6282   10.9582   41.1303 N   0  0  0  0  0  0  0  0  0  0  0  0
   11.5011   10.0588   42.2407 C   0  0  0  0  0  0  0  0  0  0  0  0
   10.0528    9.8303   42.5320 C   0  0  0  0  0  0  0  0  0  0  0  0
    9.4114    9.1727   41.5109 O   0  0  0  0  0  0  0  0  0  0  0  0
    9.8918    9.4817   40.2476 C   0  0  0  0  0  0  0  0  0  0  0  0
   10.4544   10.8977   40.2977 C   0  0  0  0  0  0  0  0  0  0  0  0
  1  2  1  6
  2  3  2  0
  2  4  1  0
  4  5  1  0
  5  6  2  0
  5  7  1  0
  6 11  1  0
  7  8  2  0
  8  9  1  0
  9 10  1  0
  9 11  2  0
 11 12  1  0
 12 13  2  0
 12 14  2  0
 12 15  1  6
 16 15  1  1
 20 15  1  1
 16 17  1  0
 17 18  1  6
 19 18  1  1
 19 20  1  0
M  END
$$$$
