
     RDKit          3D

 20 21  0  0  0  0  0  0  0  0999 V2000
   12.2884    8.4051   43.0779 C   0  0  0  0  0  0  0  0  0  0  0  0
   11.8085    9.4541   42.1212 C   0  0  0  0  0  0  0  0  0  0  0  0
   12.3359    9.5928   40.9839 O   0  0  0  0  0  0  0  0  0  0  0  0
   10.7422   10.3295   42.4618 N   0  0  0  0  0  0  0  0  0  0  0  0
   10.6379   11.6008   41.8044 C   0  0  0  0  0  0  0  0  0  0  0  0
   11.6484   12.0578   41.0117 C   0  0  0  0  0  0  0  0  0  0  0  0
    9.4776   12.3498   42.0005 C   0  0  0  0  0  0  0  0  0  0  0  0
    9.3438   13.5669   41.3892 C   0  0  0  0  0  0  0  0  0  0  0  0
   10.3731   14.0134   40.5924 C   0  0  0  0  0  0  0  0  0  0  0  0
   10.2540   15.5736   39.7808 Cl  0  0  0  0  0  0  0  0  0  0  0  0
   11.5313   13.2792   40.3890 C   0  0  0  0  0  0  0  0  0  0  0  0
   12.7978   13.9080   39.3641 S   0  0  2  0  0  6  0  0  0  0  0  0
   14.0910   13.2976   39.7845 O   0  0  0  0  0  0  0  0  0  0  0  0
   12.9126   15.3962   39.5690 O   0  0  0  0  0  0  0  0  0  0  0  0
   12.4466   13.5651   37.6860 N   0  0  0  0  0  0  0  0  0  0  0  0
   11.0344   13.5494   37.5430 C   0  0  0  0  0  0  0  0  0  0  0  0
   10.5044   12.7951   36.3849 C   0  0  0  0  0  0  0  0  0  0  0  0
   11.4370   12.0345   35.7118 O   0  0  0  0  0  0  0  0  0  0  0  0
   12.3278   11.3867   36.5463 C   0  0  0  0  0  0  0  0  0  0  0  0
   13.1251   12.3693   37.3343 C   0  0  0  0  0  0  0  0  0  0  0  0
  1  2  1  0
  2  3  2  0
  2  4  1  0
  4  5  1  0
  5  6  2  0
  5  7  1  0
  6 11  1  0
  7  8  2  0
  8  9  1  0
  9 10  1  0
  9 11  2  0
 11 12  1  0
 12 13  2  0
 12 14  2  0
 12 15  1  6
 15 16  1  0
 15 20  1  0
 16 17  1  0
 17 18  1  0
 18 19  1  0
 19 20  1  0
M  END
$$$$
