
     RDKit          3D

 20 21  0  0  0  0  0  0  0  0999 V2000
   15.7320   12.9755   36.2826 C   0  0  0  0  0  0  0  0  0  0  0  0
   14.4673   13.1278   37.0456 C   0  0  0  0  0  0  0  0  0  0  0  0
   13.6323   12.1930   37.0588 O   0  0  0  0  0  0  0  0  0  0  0  0
   14.2394   14.3396   37.7444 N   0  0  0  0  0  0  0  0  0  0  0  0
   13.1179   14.4877   38.6149 C   0  0  0  0  0  0  0  0  0  0  0  0
   12.2243   13.4606   38.8366 C   0  0  0  0  0  0  0  0  0  0  0  0
   12.9075   15.6918   39.2629 C   0  0  0  0  0  0  0  0  0  0  0  0
   11.8407   15.8943   40.1163 C   0  0  0  0  0  0  0  0  0  0  0  0
   10.9607   14.8394   40.3167 C   0  0  0  0  0  0  0  0  0  0  0  0
    9.6084   15.0923   41.3969 Cl  0  0  0  0  0  0  0  0  0  0  0  0
   11.1672   13.6387   39.6729 C   0  0  0  0  0  0  0  0  0  0  0  0
   10.0370   12.3039   39.9385 S   0  0  2  0  0  6  0  0  0  0  0  0
   10.3352   11.2747   38.9128 O   0  0  0  0  0  0  0  0  0  0  0  0
    8.6338   12.8113   39.8589 O   0  0  0  0  0  0  0  0  0  0  0  0
   10.3147   11.7406   41.5450 N   0  0  0  0  0  0  0  0  0  0  0  0
    9.6206   10.5028   41.7549 C   0  0  0  0  0  0  0  0  0  0  0  0
   10.5493    9.3613   41.4921 C   0  0  0  0  0  0  0  0  0  0  0  0
   11.5815    9.3081   42.3968 O   0  0  0  0  0  0  0  0  0  0  0  0
   12.0111   10.5494   42.8404 C   0  0  0  0  0  0  0  0  0  0  0  0
   11.7313   11.5607   41.7344 C   0  0  0  0  0  0  0  0  0  0  0  0
  1  2  1  6
  2  3  2  0
  2  4  1  0
  4  5  1  0
  5  6  2  0
  5  7  1  0
  6 11  1  0
  7  8  2  0
  8  9  1  0
  9 10  1  0
  9 11  2  0
 11 12  1  0
 12 13  2  0
 12 14  2  0
 12 15  1  1
 16 15  1  1
 20 15  1  1
 16 17  1  0
 17 18  1  6
 19 18  1  1
 19 20  1  0
M  END
$$$$
