
     RDKit          3D

 20 21  0  0  0  0  0  0  0  0999 V2000
   16.1130   12.8899   36.6792 C   0  0  0  0  0  0  0  0  0  0  0  0
   14.7828   13.0271   37.3247 C   0  0  0  0  0  0  0  0  0  0  0  0
   14.1444   12.0011   37.6584 O   0  0  0  0  0  0  0  0  0  0  0  0
   14.2687   14.3290   37.5470 N   0  0  0  0  0  0  0  0  0  0  0  0
   13.1697   14.5454   38.4318 C   0  0  0  0  0  0  0  0  0  0  0  0
   12.9419   13.7364   39.5256 C   0  0  0  0  0  0  0  0  0  0  0  0
   12.2980   15.5939   38.1984 C   0  0  0  0  0  0  0  0  0  0  0  0
   11.2177   15.8525   39.0191 C   0  0  0  0  0  0  0  0  0  0  0  0
   11.0180   15.0186   40.1110 C   0  0  0  0  0  0  0  0  0  0  0  0
    9.6508   15.3431   41.1525 Cl  0  0  0  0  0  0  0  0  0  0  0  0
   11.8843   13.9732   40.3465 C   0  0  0  0  0  0  0  0  0  0  0  0
   11.6165   12.9194   41.7419 S   0  0  2  0  0  6  0  0  0  0  0  0
   10.3373   13.3415   42.3629 O   0  0  0  0  0  0  0  0  0  0  0  0
   12.7765   13.0223   42.6781 O   0  0  0  0  0  0  0  0  0  0  0  0
   11.5588   11.3067   41.1325 N   0  0  0  0  0  0  0  0  0  0  0  0
   12.0024   10.3879   42.1410 C   0  0  0  0  0  0  0  0  0  0  0  0
   10.8191    9.8535   42.8818 C   0  0  0  0  0  0  0  0  0  0  0  0
   10.0055    9.0864   42.0840 O   0  0  0  0  0  0  0  0  0  0  0  0
    9.9485    9.5052   40.7636 C   0  0  0  0  0  0  0  0  0  0  0  0
   10.2053   11.0077   40.7408 C   0  0  0  0  0  0  0  0  0  0  0  0
  1  2  1  6
  2  3  2  0
  2  4  1  0
  4  5  1  0
  5  6  2  0
  5  7  1  0
  6 11  1  0
  7  8  2  0
  8  9  1  0
  9 10  1  0
  9 11  2  0
 11 12  1  0
 12 13  2  0
 12 14  2  0
 12 15  1  6
 16 15  1  1
 20 15  1  1
 16 17  1  0
 17 18  1  6
 19 18  1  1
 19 20  1  0
M  END
$$$$
