
     RDKit          3D

 20 21  0  0  0  0  0  0  0  0999 V2000
   16.5087   11.6884   37.4565 C   0  0  0  0  0  0  0  0  0  0  0  0
   15.1672   12.1481   37.8968 C   0  0  0  0  0  0  0  0  0  0  0  0
   14.6978   13.2195   37.4460 O   0  0  0  0  0  0  0  0  0  0  0  0
   14.4491   11.3527   38.8243 N   0  0  0  0  0  0  0  0  0  0  0  0
   13.3930   11.9079   39.6077 C   0  0  0  0  0  0  0  0  0  0  0  0
   12.9173   13.1847   39.3930 C   0  0  0  0  0  0  0  0  0  0  0  0
   12.8191   11.1550   40.6164 C   0  0  0  0  0  0  0  0  0  0  0  0
   11.7948   11.6382   41.4069 C   0  0  0  0  0  0  0  0  0  0  0  0
   11.3403   12.9273   41.1636 C   0  0  0  0  0  0  0  0  0  0  0  0
   10.0431   13.5426   42.1627 Cl  0  0  0  0  0  0  0  0  0  0  0  0
   11.9096   13.6801   40.1596 C   0  0  0  0  0  0  0  0  0  0  0  0
   11.3196   15.3210   39.8618 S   0  0  2  0  0  6  0  0  0  0  0  0
   12.2815   15.9643   38.9339 O   0  0  0  0  0  0  0  0  0  0  0  0
   11.1901   16.0507   41.1593 O   0  0  0  0  0  0  0  0  0  0  0  0
    9.7446   15.1574   39.1774 N   0  0  0  0  0  0  0  0  0  0  0  0
    9.8466   14.9602   37.7601 C   0  0  0  0  0  0  0  0  0  0  0  0
    9.8255   13.4961   37.4592 C   0  0  0  0  0  0  0  0  0  0  0  0
    8.6231   12.9139   37.7787 O   0  0  0  0  0  0  0  0  0  0  0  0
    8.0002   13.4704   38.8854 C   0  0  0  0  0  0  0  0  0  0  0  0
    9.0856   14.0352   39.7948 C   0  0  0  0  0  0  0  0  0  0  0  0
  1  2  1  6
  2  3  2  0
  2  4  1  0
  4  5  1  0
  5  6  2  0
  5  7  1  0
  6 11  1  0
  7  8  2  0
  8  9  1  0
  9 10  1  0
  9 11  2  0
 11 12  1  0
 12 13  2  0
 12 14  2  0
 12 15  1  6
 16 15  1  1
 20 15  1  1
 16 17  1  0
 17 18  1  6
 19 18  1  1
 19 20  1  0
M  END
$$$$
