
     RDKit          3D

 20 21  0  0  0  0  0  0  0  0999 V2000
   16.3771   12.3390   36.7594 C   0  0  0  0  0  0  0  0  0  0  0  0
   15.1349   12.3025   37.5720 C   0  0  0  0  0  0  0  0  0  0  0  0
   14.3054   13.2381   37.4827 O   0  0  0  0  0  0  0  0  0  0  0  0
   14.9216   11.1981   38.4342 N   0  0  0  0  0  0  0  0  0  0  0  0
   13.9249   11.2428   39.4550 C   0  0  0  0  0  0  0  0  0  0  0  0
   13.3105   12.4210   39.8254 C   0  0  0  0  0  0  0  0  0  0  0  0
   13.5533   10.0777   40.1017 C   0  0  0  0  0  0  0  0  0  0  0  0
   12.5956   10.0587   41.0966 C   0  0  0  0  0  0  0  0  0  0  0  0
   11.9974   11.2623   41.4445 C   0  0  0  0  0  0  0  0  0  0  0  0
   10.7841   11.2422   42.7042 Cl  0  0  0  0  0  0  0  0  0  0  0  0
   12.3651   12.4249   40.8025 C   0  0  0  0  0  0  0  0  0  0  0  0
   11.5939   13.9506   41.2569 S   0  0  2  0  0  6  0  0  0  0  0  0
   12.2888   15.0260   40.5079 O   0  0  0  0  0  0  0  0  0  0  0  0
   11.6740   14.1315   42.7380 O   0  0  0  0  0  0  0  0  0  0  0  0
    9.9309   13.8062   40.8221 N   0  0  0  0  0  0  0  0  0  0  0  0
    9.2845   15.0819   40.9352 C   0  0  0  0  0  0  0  0  0  0  0  0
    9.2861   15.7598   39.6029 C   0  0  0  0  0  0  0  0  0  0  0  0
    8.5218   15.0935   38.6762 O   0  0  0  0  0  0  0  0  0  0  0  0
    8.5224   13.7153   38.8265 C   0  0  0  0  0  0  0  0  0  0  0  0
    9.8464   13.3183   39.4695 C   0  0  0  0  0  0  0  0  0  0  0  0
  1  2  1  6
  2  3  2  0
  2  4  1  0
  4  5  1  0
  5  6  2  0
  5  7  1  0
  6 11  1  0
  7  8  2  0
  8  9  1  0
  9 10  1  0
  9 11  2  0
 11 12  1  0
 12 13  2  0
 12 14  2  0
 12 15  1  6
 16 15  1  1
 20 15  1  1
 16 17  1  0
 17 18  1  6
 19 18  1  1
 19 20  1  0
M  END
$$$$
