
     RDKit          3D

 20 21  0  0  0  0  0  0  0  0999 V2000
   15.9218   12.3511   37.2037 C   0  0  0  0  0  0  0  0  0  0  0  0
   14.5159   12.5664   37.6303 C   0  0  0  0  0  0  0  0  0  0  0  0
   13.8471   11.6049   38.0771 O   0  0  0  0  0  0  0  0  0  0  0  0
   13.9657   13.8677   37.5184 N   0  0  0  0  0  0  0  0  0  0  0  0
   12.8654   14.2743   38.3316 C   0  0  0  0  0  0  0  0  0  0  0  0
   12.5064   13.5867   39.4723 C   0  0  0  0  0  0  0  0  0  0  0  0
   12.1270   15.3894   37.9781 C   0  0  0  0  0  0  0  0  0  0  0  0
   11.0524   15.8306   38.7252 C   0  0  0  0  0  0  0  0  0  0  0  0
   10.7186   15.1151   39.8671 C   0  0  0  0  0  0  0  0  0  0  0  0
    9.3582   15.6708   40.8157 Cl  0  0  0  0  0  0  0  0  0  0  0  0
   11.4519   14.0037   40.2223 C   0  0  0  0  0  0  0  0  0  0  0  0
   11.0142   13.1025   41.6802 S   0  0  2  0  0  6  0  0  0  0  0  0
   10.5558   14.0965   42.6813 O   0  0  0  0  0  0  0  0  0  0  0  0
   12.1887   12.3070   42.1497 O   0  0  0  0  0  0  0  0  0  0  0  0
    9.7689   12.0016   41.2189 N   0  0  0  0  0  0  0  0  0  0  0  0
    9.0626   12.5134   40.0799 C   0  0  0  0  0  0  0  0  0  0  0  0
    9.6494   11.9379   38.8314 C   0  0  0  0  0  0  0  0  0  0  0  0
    9.4611   10.5802   38.7426 O   0  0  0  0  0  0  0  0  0  0  0  0
    9.4824    9.9240   39.9637 C   0  0  0  0  0  0  0  0  0  0  0  0
   10.3675   10.7287   40.9086 C   0  0  0  0  0  0  0  0  0  0  0  0
  1  2  1  6
  2  3  2  0
  2  4  1  0
  4  5  1  0
  5  6  2  0
  5  7  1  0
  6 11  1  0
  7  8  2  0
  8  9  1  0
  9 10  1  0
  9 11  2  0
 11 12  1  0
 12 13  2  0
 12 14  2  0
 12 15  1  6
 16 15  1  1
 20 15  1  1
 16 17  1  0
 17 18  1  6
 19 18  1  1
 19 20  1  0
M  END
$$$$
