
     RDKit          3D

 20 21  0  0  0  0  0  0  0  0999 V2000
   13.3446   13.5676   36.6099 C   0  0  0  0  0  0  0  0  0  0  0  0
   14.3260   13.1189   37.6299 C   0  0  0  0  0  0  0  0  0  0  0  0
   15.0680   12.1374   37.3899 O   0  0  0  0  0  0  0  0  0  0  0  0
   14.3954   13.8218   38.8586 N   0  0  0  0  0  0  0  0  0  0  0  0
   13.2133   14.2932   39.5049 C   0  0  0  0  0  0  0  0  0  0  0  0
   12.1853   13.4439   39.8580 C   0  0  0  0  0  0  0  0  0  0  0  0
   13.0798   15.6398   39.7923 C   0  0  0  0  0  0  0  0  0  0  0  0
   11.9598   16.1542   40.4158 C   0  0  0  0  0  0  0  0  0  0  0  0
   10.9443   15.2713   40.7573 C   0  0  0  0  0  0  0  0  0  0  0  0
    9.5244   15.9191   41.5470 Cl  0  0  0  0  0  0  0  0  0  0  0  0
   11.0739   13.9293   40.4725 C   0  0  0  0  0  0  0  0  0  0  0  0
    9.7712   12.8168   40.9139 S   0  0  2  0  0  6  0  0  0  0  0  0
    8.5544   13.6385   41.1253 O   0  0  0  0  0  0  0  0  0  0  0  0
   10.1643   12.0410   42.1289 O   0  0  0  0  0  0  0  0  0  0  0  0
    9.6063   11.7114   39.6001 N   0  0  0  0  0  0  0  0  0  0  0  0
    9.0020   10.4941   40.0596 C   0  0  0  0  0  0  0  0  0  0  0  0
    7.5261   10.5542   39.8298 C   0  0  0  0  0  0  0  0  0  0  0  0
    7.2057   10.5878   38.4946 O   0  0  0  0  0  0  0  0  0  0  0  0
    8.1245   11.2656   37.7080 C   0  0  0  0  0  0  0  0  0  0  0  0
    8.7931   12.3222   38.5800 C   0  0  0  0  0  0  0  0  0  0  0  0
  1  2  1  6
  2  3  2  0
  2  4  1  0
  4  5  1  0
  5  6  2  0
  5  7  1  0
  6 11  1  0
  7  8  2  0
  8  9  1  0
  9 10  1  0
  9 11  2  0
 11 12  1  0
 12 13  2  0
 12 14  2  0
 12 15  1  6
 16 15  1  1
 20 15  1  1
 16 17  1  0
 17 18  1  6
 19 18  1  1
 19 20  1  0
M  END
$$$$
