
     RDKit          3D

 20 21  0  0  0  0  0  0  0  0999 V2000
   16.1357   12.7863   36.9583 C   0  0  0  0  0  0  0  0  0  0  0  0
   14.7051   13.0299   37.2731 C   0  0  0  0  0  0  0  0  0  0  0  0
   13.8885   12.0797   37.2314 O   0  0  0  0  0  0  0  0  0  0  0  0
   14.3010   14.3445   37.6151 N   0  0  0  0  0  0  0  0  0  0  0  0
   13.1962   14.5709   38.4900 C   0  0  0  0  0  0  0  0  0  0  0  0
   12.7900   13.6296   39.4129 C   0  0  0  0  0  0  0  0  0  0  0  0
   12.5018   15.7656   38.4223 C   0  0  0  0  0  0  0  0  0  0  0  0
   11.4253   16.0413   39.2424 C   0  0  0  0  0  0  0  0  0  0  0  0
   11.0433   15.0717   40.1597 C   0  0  0  0  0  0  0  0  0  0  0  0
    9.6803   15.4174   41.2000 Cl  0  0  0  0  0  0  0  0  0  0  0  0
   11.7327   13.8806   40.2299 C   0  0  0  0  0  0  0  0  0  0  0  0
   11.2338   12.6550   41.4040 S   0  0  2  0  0  6  0  0  0  0  0  0
   10.5660   13.3708   42.5185 O   0  0  0  0  0  0  0  0  0  0  0  0
   12.4264   11.8729   41.8501 O   0  0  0  0  0  0  0  0  0  0  0  0
   10.1695   11.5838   40.5701 N   0  0  0  0  0  0  0  0  0  0  0  0
   10.6435   10.2350   40.6886 C   0  0  0  0  0  0  0  0  0  0  0  0
    9.9625    9.5682   41.8402 C   0  0  0  0  0  0  0  0  0  0  0  0
    8.6129    9.4174   41.6336 O   0  0  0  0  0  0  0  0  0  0  0  0
    8.0342   10.4407   40.8987 C   0  0  0  0  0  0  0  0  0  0  0  0
    8.8515   11.7050   41.1384 C   0  0  0  0  0  0  0  0  0  0  0  0
  1  2  1  6
  2  3  2  0
  2  4  1  0
  4  5  1  0
  5  6  2  0
  5  7  1  0
  6 11  1  0
  7  8  2  0
  8  9  1  0
  9 10  1  0
  9 11  2  0
 11 12  1  0
 12 13  2  0
 12 14  2  0
 12 15  1  6
 16 15  1  1
 20 15  1  1
 16 17  1  0
 17 18  1  6
 19 18  1  1
 19 20  1  0
M  END
$$$$
