
     RDKit          3D

 20 21  0  0  0  0  0  0  0  0999 V2000
   15.8981   10.7283   37.1078 C   0  0  0  0  0  0  0  0  0  0  0  0
   14.7703   11.2179   37.9404 C   0  0  0  0  0  0  0  0  0  0  0  0
   14.1945   12.2900   37.6395 O   0  0  0  0  0  0  0  0  0  0  0  0
   14.3738   10.4496   39.0633 N   0  0  0  0  0  0  0  0  0  0  0  0
   13.4651   10.9746   40.0308 C   0  0  0  0  0  0  0  0  0  0  0  0
   12.4547   11.8480   39.6859 C   0  0  0  0  0  0  0  0  0  0  0  0
   13.5887   10.6057   41.3584 C   0  0  0  0  0  0  0  0  0  0  0  0
   12.7397   11.0806   42.3388 C   0  0  0  0  0  0  0  0  0  0  0  0
   11.7339   11.9580   41.9567 C   0  0  0  0  0  0  0  0  0  0  0  0
   10.6567   12.5616   43.1957 Cl  0  0  0  0  0  0  0  0  0  0  0  0
   11.6077   12.3276   40.6353 C   0  0  0  0  0  0  0  0  0  0  0  0
   10.3210   13.4465   40.1642 S   0  0  2  0  0  6  0  0  0  0  0  0
    9.3812   13.5307   41.3086 O   0  0  0  0  0  0  0  0  0  0  0  0
    9.6667   12.9599   38.9120 O   0  0  0  0  0  0  0  0  0  0  0  0
   11.0857   14.9540   39.8204 N   0  0  0  0  0  0  0  0  0  0  0  0
   10.9236   15.2779   38.4323 C   0  0  0  0  0  0  0  0  0  0  0  0
    9.7304   16.1625   38.2643 C   0  0  0  0  0  0  0  0  0  0  0  0
    9.8993   17.3875   38.8624 O   0  0  0  0  0  0  0  0  0  0  0  0
   10.6614   17.3528   40.0200 C   0  0  0  0  0  0  0  0  0  0  0  0
   10.4923   15.9735   40.6469 C   0  0  0  0  0  0  0  0  0  0  0  0
  1  2  1  6
  2  3  2  0
  2  4  1  0
  4  5  1  0
  5  6  2  0
  5  7  1  0
  6 11  1  0
  7  8  2  0
  8  9  1  0
  9 10  1  0
  9 11  2  0
 11 12  1  0
 12 13  2  0
 12 14  2  0
 12 15  1  6
 16 15  1  1
 20 15  1  1
 16 17  1  0
 17 18  1  6
 19 18  1  1
 19 20  1  0
M  END
$$$$
