
     RDKit          3D

 20 21  0  0  0  0  0  0  0  0999 V2000
   16.0339   12.5819   36.5919 C   0  0  0  0  0  0  0  0  0  0  0  0
   14.6355   12.7587   37.1009 C   0  0  0  0  0  0  0  0  0  0  0  0
   13.9090   11.7650   37.3761 O   0  0  0  0  0  0  0  0  0  0  0  0
   14.0788   14.0521   37.2915 N   0  0  0  0  0  0  0  0  0  0  0  0
   12.9961   14.2229   38.2177 C   0  0  0  0  0  0  0  0  0  0  0  0
   12.9008   13.4369   39.3274 C   0  0  0  0  0  0  0  0  0  0  0  0
   12.0501   15.2122   37.9490 C   0  0  0  0  0  0  0  0  0  0  0  0
   11.0041   15.4032   38.8106 C   0  0  0  0  0  0  0  0  0  0  0  0
   10.9227   14.6012   39.9259 C   0  0  0  0  0  0  0  0  0  0  0  0
    9.5966   14.8037   41.0693 Cl  0  0  0  0  0  0  0  0  0  0  0  0
   11.8559   13.6147   40.2048 C   0  0  0  0  0  0  0  0  0  0  0  0
   11.6901   12.6333   41.6398 S   0  0  2  0  0  6  0  0  0  0  0  0
   10.8179   13.3571   42.6077 O   0  0  0  0  0  0  0  0  0  0  0  0
   13.0401   12.4640   42.2870 O   0  0  0  0  0  0  0  0  0  0  0  0
   11.0272   11.0679   41.2311 N   0  0  0  0  0  0  0  0  0  0  0  0
    9.6364   11.2421   41.0063 C   0  0  0  0  0  0  0  0  0  0  0  0
    8.7950   10.0335   41.1567 C   0  0  0  0  0  0  0  0  0  0  0  0
    9.4403    8.9406   41.6957 O   0  0  0  0  0  0  0  0  0  0  0  0
   10.2957    9.2601   42.7328 C   0  0  0  0  0  0  0  0  0  0  0  0
   11.3863   10.1602   42.2612 C   0  0  0  0  0  0  0  0  0  0  0  0
  1  2  1  0
  2  3  2  0
  2  4  1  0
  4  5  1  0
  5  6  2  0
  5  7  1  0
  6 11  1  0
  7  8  2  0
  8  9  1  0
  9 10  1  0
  9 11  2  0
 11 12  1  0
 12 13  2  0
 12 14  2  0
 12 15  1  6
 15 16  1  0
 15 20  1  0
 16 17  1  0
 17 18  1  0
 18 19  1  0
 19 20  1  0
M  END
$$$$
