
     RDKit          3D

 20 21  0  0  0  0  0  0  0  0999 V2000
   15.2153   12.9448   35.9276 C   0  0  0  0  0  0  0  0  0  0  0  0
   14.0342   13.1490   36.8040 C   0  0  0  0  0  0  0  0  0  0  0  0
   13.0299   12.4096   36.6769 O   0  0  0  0  0  0  0  0  0  0  0  0
   14.0780   14.1859   37.7692 N   0  0  0  0  0  0  0  0  0  0  0  0
   12.9962   14.3927   38.6771 C   0  0  0  0  0  0  0  0  0  0  0  0
   12.0164   13.4421   38.8750 C   0  0  0  0  0  0  0  0  0  0  0  0
   12.9142   15.5771   39.3873 C   0  0  0  0  0  0  0  0  0  0  0  0
   11.8914   15.8339   40.2792 C   0  0  0  0  0  0  0  0  0  0  0  0
   10.9221   14.8555   40.4540 C   0  0  0  0  0  0  0  0  0  0  0  0
    9.6253   15.1772   41.5828 Cl  0  0  0  0  0  0  0  0  0  0  0  0
   11.0006   13.6745   39.7484 C   0  0  0  0  0  0  0  0  0  0  0  0
    9.7578   12.4375   39.9821 S   0  0  2  0  0  6  0  0  0  0  0  0
    9.8552   11.5046   38.8330 O   0  0  0  0  0  0  0  0  0  0  0  0
    8.4166   13.0877   40.0881 O   0  0  0  0  0  0  0  0  0  0  0  0
   10.1057   11.6737   41.4891 N   0  0  0  0  0  0  0  0  0  0  0  0
   10.1409   10.2498   41.3177 C   0  0  0  0  0  0  0  0  0  0  0  0
   11.5514    9.8116   41.0877 C   0  0  0  0  0  0  0  0  0  0  0  0
   12.3502   10.0228   42.1850 O   0  0  0  0  0  0  0  0  0  0  0  0
   12.0159   11.1492   42.9210 C   0  0  0  0  0  0  0  0  0  0  0  0
   11.3761   12.1536   41.9693 C   0  0  0  0  0  0  0  0  0  0  0  0
  1  2  1  6
  2  3  2  0
  2  4  1  0
  4  5  1  0
  5  6  2  0
  5  7  1  0
  6 11  1  0
  7  8  2  0
  8  9  1  0
  9 10  1  0
  9 11  2  0
 11 12  1  0
 12 13  2  0
 12 14  2  0
 12 15  1  1
 16 15  1  1
 20 15  1  1
 16 17  1  0
 17 18  1  6
 19 18  1  1
 19 20  1  0
M  END
$$$$
