
     RDKit          3D

 20 21  0  0  0  0  0  0  0  0999 V2000
   13.6671   11.3723   37.7322 C   0  0  0  0  0  0  0  0  0  0  0  0
   14.5072   12.3585   36.9789 C   0  0  0  0  0  0  0  0  0  0  0  0
   15.3882   11.9772   36.1607 O   0  0  0  0  0  0  0  0  0  0  0  0
   14.3407   13.7581   37.1598 N   0  0  0  0  0  0  0  0  0  0  0  0
   13.2860   14.2378   38.0064 C   0  0  0  0  0  0  0  0  0  0  0  0
   12.9665   13.5814   39.1577 C   0  0  0  0  0  0  0  0  0  0  0  0
   12.6021   15.3896   37.6171 C   0  0  0  0  0  0  0  0  0  0  0  0
   11.5904   15.8757   38.4002 C   0  0  0  0  0  0  0  0  0  0  0  0
   11.2806   15.2012   39.5589 C   0  0  0  0  0  0  0  0  0  0  0  0
    9.9868   15.7828   40.6051 Cl  0  0  0  0  0  0  0  0  0  0  0  0
   11.9522   14.0557   39.9574 C   0  0  0  0  0  0  0  0  0  0  0  0
   11.5055   13.2505   41.4413 S   0  0  2  0  0  6  0  0  0  0  0  0
   11.3347   14.2814   42.5041 O   0  0  0  0  0  0  0  0  0  0  0  0
   12.6258   12.3395   41.8712 O   0  0  0  0  0  0  0  0  0  0  0  0
   10.0413   12.3230   41.2114 N   0  0  0  0  0  0  0  0  0  0  0  0
   10.4266   10.9929   40.8991 C   0  0  0  0  0  0  0  0  0  0  0  0
    9.4260   10.1770   40.1750 C   0  0  0  0  0  0  0  0  0  0  0  0
    8.3295   10.8760   39.7163 O   0  0  0  0  0  0  0  0  0  0  0  0
    8.6435   12.1170   39.1959 C   0  0  0  0  0  0  0  0  0  0  0  0
    9.2506   12.9905   40.2401 C   0  0  0  0  0  0  0  0  0  0  0  0
  1  2  1  0
  2  3  2  0
  2  4  1  0
  4  5  1  0
  5  6  2  0
  5  7  1  0
  6 11  1  0
  7  8  2  0
  8  9  1  0
  9 10  1  0
  9 11  2  0
 11 12  1  0
 12 13  2  0
 12 14  2  0
 12 15  1  6
 15 16  1  0
 15 20  1  0
 16 17  1  0
 17 18  1  0
 18 19  1  0
 19 20  1  0
M  END
$$$$
