
     RDKit          3D

 20 21  0  0  0  0  0  0  0  0999 V2000
   16.3522   12.6783   36.8233 C   0  0  0  0  0  0  0  0  0  0  0  0
   14.9130   12.8893   37.1838 C   0  0  0  0  0  0  0  0  0  0  0  0
   14.1368   11.9137   37.3753 O   0  0  0  0  0  0  0  0  0  0  0  0
   14.3721   14.1959   37.3226 N   0  0  0  0  0  0  0  0  0  0  0  0
   13.3293   14.4279   38.2808 C   0  0  0  0  0  0  0  0  0  0  0  0
   13.2256   13.6513   39.3963 C   0  0  0  0  0  0  0  0  0  0  0  0
   12.4305   15.4664   38.0366 C   0  0  0  0  0  0  0  0  0  0  0  0
   11.4234   15.7164   38.9289 C   0  0  0  0  0  0  0  0  0  0  0  0
   11.3329   14.9231   40.0497 C   0  0  0  0  0  0  0  0  0  0  0  0
   10.0555   15.2005   41.2321 Cl  0  0  0  0  0  0  0  0  0  0  0  0
   12.2193   13.8881   40.3044 C   0  0  0  0  0  0  0  0  0  0  0  0
   12.0446   12.9211   41.7481 S   0  0  2  0  0  6  0  0  0  0  0  0
   11.1754   13.6595   42.7077 O   0  0  0  0  0  0  0  0  0  0  0  0
   13.3923   12.7490   42.3992 O   0  0  0  0  0  0  0  0  0  0  0  0
   11.3722   11.3563   41.3527 N   0  0  0  0  0  0  0  0  0  0  0  0
    9.9910   11.5441   41.0840 C   0  0  0  0  0  0  0  0  0  0  0  0
    9.1291   10.3501   41.2348 C   0  0  0  0  0  0  0  0  0  0  0  0
    9.7435    9.2604   41.8147 O   0  0  0  0  0  0  0  0  0  0  0  0
   10.5730    9.5903   42.8695 C   0  0  0  0  0  0  0  0  0  0  0  0
   11.6890   10.4658   42.4112 C   0  0  0  0  0  0  0  0  0  0  0  0
  1  2  1  0
  2  3  2  0
  2  4  1  0
  4  5  1  0
  5  6  2  0
  5  7  1  0
  6 11  1  0
  7  8  2  0
  8  9  1  0
  9 10  1  0
  9 11  2  0
 11 12  1  0
 12 13  2  0
 12 14  2  0
 12 15  1  6
 15 16  1  0
 15 20  1  0
 16 17  1  0
 17 18  1  0
 18 19  1  0
 19 20  1  0
M  END
$$$$
