
     RDKit          3D

 20 21  0  0  0  0  0  0  0  0999 V2000
   16.2204   12.7710   36.8722 C   0  0  0  0  0  0  0  0  0  0  0  0
   14.8159   12.9257   37.3714 C   0  0  0  0  0  0  0  0  0  0  0  0
   14.1129   11.9215   37.6685 O   0  0  0  0  0  0  0  0  0  0  0  0
   14.2268   14.2093   37.5276 N   0  0  0  0  0  0  0  0  0  0  0  0
   13.1067   14.3669   38.4108 C   0  0  0  0  0  0  0  0  0  0  0  0
   13.0170   13.6337   39.5565 C   0  0  0  0  0  0  0  0  0  0  0  0
   12.1187   15.2880   38.0625 C   0  0  0  0  0  0  0  0  0  0  0  0
   11.0362   15.4645   38.8812 C   0  0  0  0  0  0  0  0  0  0  0  0
   10.9611   14.7165   40.0338 C   0  0  0  0  0  0  0  0  0  0  0  0
    9.5892   14.9032   41.1247 Cl  0  0  0  0  0  0  0  0  0  0  0  0
   11.9358   13.7979   40.3916 C   0  0  0  0  0  0  0  0  0  0  0  0
   11.7754   12.8824   41.8701 S   0  0  2  0  0  6  0  0  0  0  0  0
   10.7443   13.5398   42.7221 O   0  0  0  0  0  0  0  0  0  0  0  0
   13.0784   12.9225   42.6255 O   0  0  0  0  0  0  0  0  0  0  0  0
   11.3464   11.2252   41.5142 N   0  0  0  0  0  0  0  0  0  0  0  0
   10.1961   11.2543   40.6829 C   0  0  0  0  0  0  0  0  0  0  0  0
    9.3645   10.0297   40.6770 C   0  0  0  0  0  0  0  0  0  0  0  0
    9.7000    9.0959   41.6345 O   0  0  0  0  0  0  0  0  0  0  0  0
   10.0170    9.6504   42.8599 C   0  0  0  0  0  0  0  0  0  0  0  0
   11.2110   10.5357   42.7471 C   0  0  0  0  0  0  0  0  0  0  0  0
  1  2  1  0
  2  3  2  0
  2  4  1  0
  4  5  1  0
  5  6  2  0
  5  7  1  0
  6 11  1  0
  7  8  2  0
  8  9  1  0
  9 10  1  0
  9 11  2  0
 11 12  1  0
 12 13  2  0
 12 14  2  0
 12 15  1  6
 15 16  1  0
 15 20  1  0
 16 17  1  0
 17 18  1  0
 18 19  1  0
 19 20  1  0
M  END
$$$$
