
     RDKit          3D

 20 21  0  0  0  0  0  0  0  0999 V2000
    8.2943   13.1575   34.8460 C   0  0  0  0  0  0  0  0  0  0  0  0
    8.8762   13.3279   36.2164 C   0  0  0  0  0  0  0  0  0  0  0  0
    9.5396   12.4059   36.7648 O   0  0  0  0  0  0  0  0  0  0  0  0
    8.7011   14.5345   36.9463 N   0  0  0  0  0  0  0  0  0  0  0  0
    9.2710   14.6525   38.2581 C   0  0  0  0  0  0  0  0  0  0  0  0
    9.8556   13.5785   38.8607 C   0  0  0  0  0  0  0  0  0  0  0  0
    9.2087   15.8929   38.8934 C   0  0  0  0  0  0  0  0  0  0  0  0
    9.7420   16.0421   40.1449 C   0  0  0  0  0  0  0  0  0  0  0  0
   10.3283   14.9480   40.7389 C   0  0  0  0  0  0  0  0  0  0  0  0
   11.0310   15.0834   42.3498 Cl  0  0  0  0  0  0  0  0  0  0  0  0
   10.3970   13.7100   40.1188 C   0  0  0  0  0  0  0  0  0  0  0  0
   11.1564   12.3642   40.9324 S   0  0  2  0  0  6  0  0  0  0  0  0
   10.4525   11.1131   40.5316 O   0  0  0  0  0  0  0  0  0  0  0  0
   10.9866   12.5212   42.4212 O   0  0  0  0  0  0  0  0  0  0  0  0
   12.8571   12.2950   40.5330 N   0  0  0  0  0  0  0  0  0  0  0  0
   12.9638   12.3668   39.1193 C   0  0  0  0  0  0  0  0  0  0  0  0
   14.2075   11.8212   38.5305 C   0  0  0  0  0  0  0  0  0  0  0  0
   15.0110   11.1282   39.4110 O   0  0  0  0  0  0  0  0  0  0  0  0
   14.3065   10.3213   40.2840 C   0  0  0  0  0  0  0  0  0  0  0  0
   13.4015   11.1356   41.1441 C   0  0  0  0  0  0  0  0  0  0  0  0
  1  2  1  0
  2  3  2  0
  2  4  1  0
  4  5  1  0
  5  6  2  0
  5  7  1  0
  6 11  1  0
  7  8  2  0
  8  9  1  0
  9 10  1  0
  9 11  2  0
 11 12  1  0
 12 13  2  0
 12 14  2  0
 12 15  1  1
 15 16  1  0
 15 20  1  0
 16 17  1  0
 17 18  1  0
 18 19  1  0
 19 20  1  0
M  END
$$$$
