
     RDKit          3D

 20 21  0  0  0  0  0  0  0  0999 V2000
   16.7023   11.3376   37.6268 C   0  0  0  0  0  0  0  0  0  0  0  0
   15.4823   11.7648   38.3575 C   0  0  0  0  0  0  0  0  0  0  0  0
   14.8193   12.7442   37.9421 O   0  0  0  0  0  0  0  0  0  0  0  0
   15.0993   11.0440   39.5162 N   0  0  0  0  0  0  0  0  0  0  0  0
   14.0183   11.4881   40.3356 C   0  0  0  0  0  0  0  0  0  0  0  0
   13.3315   12.6546   40.0703 C   0  0  0  0  0  0  0  0  0  0  0  0
   13.6362   10.7369   41.4326 C   0  0  0  0  0  0  0  0  0  0  0  0
   12.5985   11.1157   42.2616 C   0  0  0  0  0  0  0  0  0  0  0  0
   11.9288   12.2952   41.9654 C   0  0  0  0  0  0  0  0  0  0  0  0
   10.6140   12.7780   43.0131 Cl  0  0  0  0  0  0  0  0  0  0  0  0
   12.3067   13.0460   40.8735 C   0  0  0  0  0  0  0  0  0  0  0  0
   11.4437   14.5467   40.5092 S   0  0  2  0  0  6  0  0  0  0  0  0
   12.1391   15.1771   39.3606 O   0  0  0  0  0  0  0  0  0  0  0  0
   11.4207   15.4192   41.7220 O   0  0  0  0  0  0  0  0  0  0  0  0
    9.8198   14.0988   40.1381 N   0  0  0  0  0  0  0  0  0  0  0  0
    8.9954   15.2705   40.0638 C   0  0  0  0  0  0  0  0  0  0  0  0
    8.9008   15.7225   38.6421 C   0  0  0  0  0  0  0  0  0  0  0  0
    8.2424   14.8157   37.8478 O   0  0  0  0  0  0  0  0  0  0  0  0
    8.4423   13.4929   38.2120 C   0  0  0  0  0  0  0  0  0  0  0  0
    9.8088   13.3962   38.8807 C   0  0  0  0  0  0  0  0  0  0  0  0
  1  2  1  6
  2  3  2  0
  2  4  1  0
  4  5  1  0
  5  6  2  0
  5  7  1  0
  6 11  1  0
  7  8  2  0
  8  9  1  0
  9 10  1  0
  9 11  2  0
 11 12  1  0
 12 13  2  0
 12 14  2  0
 12 15  1  6
 16 15  1  1
 20 15  1  1
 16 17  1  0
 17 18  1  6
 19 18  1  1
 19 20  1  0
M  END
$$$$
