
     RDKit          3D

 20 21  0  0  0  0  0  0  0  0999 V2000
   16.3221   11.8817   36.9824 C   0  0  0  0  0  0  0  0  0  0  0  0
   15.0575   12.2287   37.7078 C   0  0  0  0  0  0  0  0  0  0  0  0
   14.4470   13.3083   37.4785 O   0  0  0  0  0  0  0  0  0  0  0  0
   14.5016   11.3535   38.6795 N   0  0  0  0  0  0  0  0  0  0  0  0
   13.3833   11.7924   39.4644 C   0  0  0  0  0  0  0  0  0  0  0  0
   12.7595   12.9720   39.1858 C   0  0  0  0  0  0  0  0  0  0  0  0
   12.9571   10.9794   40.5148 C   0  0  0  0  0  0  0  0  0  0  0  0
   11.8936   11.3665   41.2844 C   0  0  0  0  0  0  0  0  0  0  0  0
   11.2752   12.5600   40.9897 C   0  0  0  0  0  0  0  0  0  0  0  0
    9.9009   13.1073   41.9482 Cl  0  0  0  0  0  0  0  0  0  0  0  0
   11.6886   13.3772   39.9490 C   0  0  0  0  0  0  0  0  0  0  0  0
   10.8565   14.8795   39.6319 S   0  0  2  0  0  6  0  0  0  0  0  0
    9.6384   14.5826   38.8258 O   0  0  0  0  0  0  0  0  0  0  0  0
   11.7405   15.7739   38.8023 O   0  0  0  0  0  0  0  0  0  0  0  0
   10.4485   15.6759   41.1340 N   0  0  0  0  0  0  0  0  0  0  0  0
    9.3172   16.4964   40.8851 C   0  0  0  0  0  0  0  0  0  0  0  0
    9.1113   17.6247   41.8209 C   0  0  0  0  0  0  0  0  0  0  0  0
   10.1568   17.8564   42.6895 O   0  0  0  0  0  0  0  0  0  0  0  0
   11.4013   17.7282   42.1028 C   0  0  0  0  0  0  0  0  0  0  0  0
   11.6114   16.3387   41.6056 C   0  0  0  0  0  0  0  0  0  0  0  0
  1  2  1  0
  2  3  2  0
  2  4  1  0
  4  5  1  0
  5  6  2  0
  5  7  1  0
  6 11  1  0
  7  8  2  0
  8  9  1  0
  9 10  1  0
  9 11  2  0
 11 12  1  0
 12 13  2  0
 12 14  2  0
 12 15  1  1
 15 16  1  0
 15 20  1  0
 16 17  1  0
 17 18  1  0
 18 19  1  0
 19 20  1  0
M  END
$$$$
