
     RDKit          3D

 20 21  0  0  0  0  0  0  0  0999 V2000
   16.0098   12.5346   36.9139 C   0  0  0  0  0  0  0  0  0  0  0  0
   14.6842   12.8302   37.5473 C   0  0  0  0  0  0  0  0  0  0  0  0
   13.8947   11.9029   37.8755 O   0  0  0  0  0  0  0  0  0  0  0  0
   14.2701   14.1657   37.8005 N   0  0  0  0  0  0  0  0  0  0  0  0
   13.1702   14.4048   38.6905 C   0  0  0  0  0  0  0  0  0  0  0  0
   12.9586   13.5949   39.7665 C   0  0  0  0  0  0  0  0  0  0  0  0
   12.3294   15.4851   38.4222 C   0  0  0  0  0  0  0  0  0  0  0  0
   11.2704   15.7430   39.2498 C   0  0  0  0  0  0  0  0  0  0  0  0
   11.0710   14.9158   40.3314 C   0  0  0  0  0  0  0  0  0  0  0  0
    9.7227   15.2017   41.4302 Cl  0  0  0  0  0  0  0  0  0  0  0  0
   11.8988   13.8392   40.6095 C   0  0  0  0  0  0  0  0  0  0  0  0
   11.5860   12.8307   42.0005 S   0  0  2  0  0  6  0  0  0  0  0  0
   10.6950   13.5774   42.9332 O   0  0  0  0  0  0  0  0  0  0  0  0
   12.8798   12.5663   42.7259 O   0  0  0  0  0  0  0  0  0  0  0  0
   10.8643   11.3178   41.5032 N   0  0  0  0  0  0  0  0  0  0  0  0
    9.5304   11.5952   41.1048 C   0  0  0  0  0  0  0  0  0  0  0  0
    8.5881   10.4541   41.1412 C   0  0  0  0  0  0  0  0  0  0  0  0
    9.0757    9.3182   41.7521 O   0  0  0  0  0  0  0  0  0  0  0  0
    9.8144    9.5772   42.8910 C   0  0  0  0  0  0  0  0  0  0  0  0
   11.0206   10.3904   42.5659 C   0  0  0  0  0  0  0  0  0  0  0  0
  1  2  1  0
  2  3  2  0
  2  4  1  0
  4  5  1  0
  5  6  2  0
  5  7  1  0
  6 11  1  0
  7  8  2  0
  8  9  1  0
  9 10  1  0
  9 11  2  0
 11 12  1  0
 12 13  2  0
 12 14  2  0
 12 15  1  6
 15 16  1  0
 15 20  1  0
 16 17  1  0
 17 18  1  0
 18 19  1  0
 19 20  1  0
M  END
$$$$
