
     RDKit          3D

 20 21  0  0  0  0  0  0  0  0999 V2000
   15.9563   12.1763   36.7064 C   0  0  0  0  0  0  0  0  0  0  0  0
   14.6355   12.5301   37.2853 C   0  0  0  0  0  0  0  0  0  0  0  0
   13.8872   11.6261   37.7260 O   0  0  0  0  0  0  0  0  0  0  0  0
   14.2560   13.8951   37.3228 N   0  0  0  0  0  0  0  0  0  0  0  0
   13.1600   14.3326   38.1257 C   0  0  0  0  0  0  0  0  0  0  0  0
   12.8154   13.6974   39.3007 C   0  0  0  0  0  0  0  0  0  0  0  0
   12.4111   15.4253   37.7267 C   0  0  0  0  0  0  0  0  0  0  0  0
   11.3400   15.8944   38.4617 C   0  0  0  0  0  0  0  0  0  0  0  0
   11.0209   15.2315   39.6390 C   0  0  0  0  0  0  0  0  0  0  0  0
    9.6649   15.8228   40.5724 Cl  0  0  0  0  0  0  0  0  0  0  0  0
   11.7646   14.1428   40.0396 C   0  0  0  0  0  0  0  0  0  0  0  0
   11.3454   13.3086   41.5422 S   0  0  2  0  0  6  0  0  0  0  0  0
   10.4315   14.2038   42.2929 O   0  0  0  0  0  0  0  0  0  0  0  0
   12.5915   12.9849   42.3006 O   0  0  0  0  0  0  0  0  0  0  0  0
   10.5940   11.8249   41.0843 N   0  0  0  0  0  0  0  0  0  0  0  0
    9.5258   11.5187   41.9916 C   0  0  0  0  0  0  0  0  0  0  0  0
    8.2359   12.0229   41.4291 C   0  0  0  0  0  0  0  0  0  0  0  0
    7.8763   11.3675   40.2767 O   0  0  0  0  0  0  0  0  0  0  0  0
    8.9480   10.9788   39.4877 C   0  0  0  0  0  0  0  0  0  0  0  0
   10.0904   11.9559   39.7411 C   0  0  0  0  0  0  0  0  0  0  0  0
  1  2  1  6
  2  3  2  0
  2  4  1  0
  4  5  1  0
  5  6  2  0
  5  7  1  0
  6 11  1  0
  7  8  2  0
  8  9  1  0
  9 10  1  0
  9 11  2  0
 11 12  1  0
 12 13  2  0
 12 14  2  0
 12 15  1  6
 16 15  1  1
 20 15  1  1
 16 17  1  0
 17 18  1  6
 19 18  1  1
 19 20  1  0
M  END
$$$$
