
     RDKit          3D

 20 21  0  0  0  0  0  0  0  0999 V2000
   14.9731   12.2900   36.5892 C   0  0  0  0  0  0  0  0  0  0  0  0
   13.7218   12.7833   37.2501 C   0  0  0  0  0  0  0  0  0  0  0  0
   12.8046   11.9874   37.5910 O   0  0  0  0  0  0  0  0  0  0  0  0
   13.5245   14.1652   37.5159 N   0  0  0  0  0  0  0  0  0  0  0  0
   12.7182   14.5584   38.6360 C   0  0  0  0  0  0  0  0  0  0  0  0
   11.7717   13.7167   39.1400 C   0  0  0  0  0  0  0  0  0  0  0  0
   12.9317   15.8209   39.1895 C   0  0  0  0  0  0  0  0  0  0  0  0
   12.1811   16.2292   40.2585 C   0  0  0  0  0  0  0  0  0  0  0  0
   11.2300   15.3674   40.7551 C   0  0  0  0  0  0  0  0  0  0  0  0
   10.2349   15.8416   42.1305 Cl  0  0  0  0  0  0  0  0  0  0  0  0
   11.0077   14.1103   40.2145 C   0  0  0  0  0  0  0  0  0  0  0  0
    9.7831   13.0684   40.8960 S   0  0  2  0  0  6  0  0  0  0  0  0
    8.8398   12.6769   39.8104 O   0  0  0  0  0  0  0  0  0  0  0  0
    8.9939   13.8337   41.9263 O   0  0  0  0  0  0  0  0  0  0  0  0
   10.5218   11.6666   41.6351 N   0  0  0  0  0  0  0  0  0  0  0  0
   11.0701   12.0815   42.8769 C   0  0  0  0  0  0  0  0  0  0  0  0
   12.1577   11.2392   43.4237 C   0  0  0  0  0  0  0  0  0  0  0  0
   12.6380   10.2784   42.5592 O   0  0  0  0  0  0  0  0  0  0  0  0
   12.7621   10.7203   41.2558 C   0  0  0  0  0  0  0  0  0  0  0  0
   11.4351   11.1119   40.7011 C   0  0  0  0  0  0  0  0  0  0  0  0
  1  2  1  0
  2  3  2  0
  2  4  1  0
  4  5  1  0
  5  6  2  0
  5  7  1  0
  6 11  1  0
  7  8  2  0
  8  9  1  0
  9 10  1  0
  9 11  2  0
 11 12  1  0
 12 13  2  0
 12 14  2  0
 12 15  1  1
 15 16  1  0
 15 20  1  0
 16 17  1  0
 17 18  1  0
 18 19  1  0
 19 20  1  0
M  END
$$$$
