
     RDKit          3D

 20 21  0  0  0  0  0  0  0  0999 V2000
   15.7938   12.4148   37.2662 C   0  0  0  0  0  0  0  0  0  0  0  0
   14.4150   12.4822   37.8134 C   0  0  0  0  0  0  0  0  0  0  0  0
   13.9438   11.5010   38.4352 O   0  0  0  0  0  0  0  0  0  0  0  0
   13.6642   13.6676   37.6139 N   0  0  0  0  0  0  0  0  0  0  0  0
   12.6450   14.0570   38.5342 C   0  0  0  0  0  0  0  0  0  0  0  0
   12.4601   13.4082   39.7374 C   0  0  0  0  0  0  0  0  0  0  0  0
   11.8094   15.1151   38.2242 C   0  0  0  0  0  0  0  0  0  0  0  0
   10.8061   15.5371   39.0742 C   0  0  0  0  0  0  0  0  0  0  0  0
   10.6478   14.8619   40.2769 C   0  0  0  0  0  0  0  0  0  0  0  0
    9.3781   15.3936   41.3560 Cl  0  0  0  0  0  0  0  0  0  0  0  0
   11.4783   13.8074   40.5890 C   0  0  0  0  0  0  0  0  0  0  0  0
   11.2641   12.9569   42.1253 S   0  0  2  0  0  6  0  0  0  0  0  0
   10.4980   13.8617   43.0169 O   0  0  0  0  0  0  0  0  0  0  0  0
   12.5995   12.5872   42.6844 O   0  0  0  0  0  0  0  0  0  0  0  0
   10.4110   11.5019   41.7637 N   0  0  0  0  0  0  0  0  0  0  0  0
    9.0377   11.8003   41.4757 C   0  0  0  0  0  0  0  0  0  0  0  0
    8.8592   11.9430   39.9985 C   0  0  0  0  0  0  0  0  0  0  0  0
    9.0790   10.7640   39.3289 O   0  0  0  0  0  0  0  0  0  0  0  0
   10.0524    9.9598   39.9016 C   0  0  0  0  0  0  0  0  0  0  0  0
   11.0357   10.8680   40.6311 C   0  0  0  0  0  0  0  0  0  0  0  0
  1  2  1  6
  2  3  2  0
  2  4  1  0
  4  5  1  0
  5  6  2  0
  5  7  1  0
  6 11  1  0
  7  8  2  0
  8  9  1  0
  9 10  1  0
  9 11  2  0
 11 12  1  0
 12 13  2  0
 12 14  2  0
 12 15  1  6
 16 15  1  1
 20 15  1  1
 16 17  1  0
 17 18  1  6
 19 18  1  1
 19 20  1  0
M  END
$$$$
