
     RDKit          3D

 20 21  0  0  0  0  0  0  0  0999 V2000
   16.2022    9.6307   38.3777 C   0  0  0  0  0  0  0  0  0  0  0  0
   14.9031   10.2231   38.7853 C   0  0  0  0  0  0  0  0  0  0  0  0
   14.5251   11.3043   38.2757 O   0  0  0  0  0  0  0  0  0  0  0  0
   14.1200    9.5405   39.7494 N   0  0  0  0  0  0  0  0  0  0  0  0
   13.0022   10.1734   40.3718 C   0  0  0  0  0  0  0  0  0  0  0  0
   12.6356   11.4689   40.0720 C   0  0  0  0  0  0  0  0  0  0  0  0
   12.2541    9.4794   41.3059 C   0  0  0  0  0  0  0  0  0  0  0  0
   11.1626   10.0388   41.9408 C   0  0  0  0  0  0  0  0  0  0  0  0
   10.8216   11.3447   41.6153 C   0  0  0  0  0  0  0  0  0  0  0  0
    9.4398   12.0565   42.4175 Cl  0  0  0  0  0  0  0  0  0  0  0  0
   11.5645   12.0390   40.6853 C   0  0  0  0  0  0  0  0  0  0  0  0
   11.1174   13.7022   40.2813 S   0  0  2  0  0  6  0  0  0  0  0  0
   12.3074   14.5465   40.5483 O   0  0  0  0  0  0  0  0  0  0  0  0
    9.9255   14.1104   41.0847 O   0  0  0  0  0  0  0  0  0  0  0  0
   10.6671   13.6965   38.6161 N   0  0  0  0  0  0  0  0  0  0  0  0
    9.3083   13.2572   38.4796 C   0  0  0  0  0  0  0  0  0  0  0  0
    8.4037   14.4463   38.4327 C   0  0  0  0  0  0  0  0  0  0  0  0
    8.6071   15.2141   37.3120 O   0  0  0  0  0  0  0  0  0  0  0  0
    9.9230   15.2438   36.8764 C   0  0  0  0  0  0  0  0  0  0  0  0
   10.8196   15.0289   38.0905 C   0  0  0  0  0  0  0  0  0  0  0  0
  1  2  1  6
  2  3  2  0
  2  4  1  0
  4  5  1  0
  5  6  2  0
  5  7  1  0
  6 11  1  0
  7  8  2  0
  8  9  1  0
  9 10  1  0
  9 11  2  0
 11 12  1  0
 12 13  2  0
 12 14  2  0
 12 15  1  6
 16 15  1  1
 20 15  1  1
 16 17  1  0
 17 18  1  6
 19 18  1  1
 19 20  1  0
M  END
$$$$
