
     RDKit          3D

 21 24  0  0  0  0  0  0  0  0999 V2000
  -11.2290  -31.8874   -5.7646 C   0  0  0  0  0  0  0  0  0  0  0  0
  -10.7468  -31.2462   -4.6179 C   0  0  0  0  0  0  0  0  0  0  0  0
  -11.2803  -30.0392   -4.2294 C   0  0  0  0  0  0  0  0  0  0  0  0
  -12.2822  -29.5028   -4.9955 C   0  0  0  0  0  0  0  0  0  0  0  0
  -12.7653  -30.1392   -6.1394 C   0  0  0  0  0  0  0  0  0  0  0  0
  -12.2361  -31.3376   -6.5274 C   0  0  0  0  0  0  0  0  0  0  0  0
  -12.9194  -31.7410   -7.6984 C   0  0  0  0  0  0  0  0  0  0  0  0
  -13.8463  -30.7776   -7.9889 C   0  0  0  0  0  0  0  0  0  0  0  0
  -14.8502  -30.6865   -9.0675 C   0  0  0  0  0  0  0  0  0  0  0  0
  -15.7341  -29.6060   -9.0767 C   0  0  0  0  0  0  0  0  0  0  0  0
  -16.6826  -29.4237  -10.0434 C   0  0  0  0  0  0  0  0  0  0  0  0
  -16.7780  -30.3428  -11.0583 C   0  0  0  0  0  0  0  0  0  0  0  0
  -15.9392  -31.4138  -11.0946 C   0  0  0  0  0  0  0  0  0  0  0  0
  -14.9832  -31.5621  -10.0861 C   0  0  0  0  0  0  0  0  0  0  0  0
  -12.6037  -32.9795   -8.4127 C   0  0  0  0  0  0  0  0  0  0  0  0
  -12.1600  -34.8843   -6.9059 C   0  0  0  0  0  0  0  0  0  0  0  0
  -10.0041  -34.8848   -6.7646 C   0  0  0  0  0  0  0  0  0  0  0  0
  -10.3619  -33.8494   -7.6039 C   0  0  0  0  0  0  0  0  0  0  0  0
  -13.7177  -29.8254   -7.0181 N   0  0  0  0  0  0  0  0  0  0  0  0
  -11.7021  -33.8637   -7.6798 N   0  0  0  0  0  0  0  0  0  0  0  0
  -11.1047  -35.5187   -6.3369 N   0  0  0  0  0  0  0  0  0  0  0  0
  1  2  2  0
  6  1  1  0
  2  3  1  0
  4  3  2  0
  5  4  1  0
  6  5  2  0
 19  5  1  0
  7  6  1  0
  7  8  2  0
 15  7  1  0
  8  9  1  0
  8 19  1  0
  9 10  2  0
  9 14  1  0
 10 11  1  0
 11 12  2  0
 13 12  1  0
 14 13  2  0
 15 20  1  6
 16 20  1  0
 21 16  2  0
 17 18  2  0
 17 21  1  0
 18 20  1  0
M  END
$$$$
