
     RDKit          3D

 21 24  0  0  0  0  0  0  0  0999 V2000
  -18.3764  -40.0324  -27.5737 C   0  0  0  0  0  0  0  0  0  0  0  0
  -17.6365  -39.3312  -26.6429 C   0  0  0  0  0  0  0  0  0  0  0  0
  -17.8260  -37.9642  -26.5907 C   0  0  0  0  0  0  0  0  0  0  0  0
  -18.7104  -37.3291  -27.4266 C   0  0  0  0  0  0  0  0  0  0  0  0
  -19.4531  -38.0450  -28.3641 C   0  0  0  0  0  0  0  0  0  0  0  0
  -19.2671  -39.3979  -28.4174 C   0  0  0  0  0  0  0  0  0  0  0  0
  -20.1343  -39.8442  -29.4435 C   0  0  0  0  0  0  0  0  0  0  0  0
  -20.8068  -38.7887  -29.9738 C   0  0  0  0  0  0  0  0  0  0  0  0
  -21.8612  -38.6796  -30.9992 C   0  0  0  0  0  0  0  0  0  0  0  0
  -22.6432  -39.6955  -31.4470 C   0  0  0  0  0  0  0  0  0  0  0  0
  -23.6684  -39.5166  -32.3663 C   0  0  0  0  0  0  0  0  0  0  0  0
  -23.9214  -38.2775  -32.8576 C   0  0  0  0  0  0  0  0  0  0  0  0
  -23.1570  -37.2127  -32.4369 C   0  0  0  0  0  0  0  0  0  0  0  0
  -22.1524  -37.4210  -31.5277 C   0  0  0  0  0  0  0  0  0  0  0  0
  -20.2484  -41.2585  -29.7444 C   0  0  0  0  0  0  0  0  0  0  0  0
  -18.0050  -41.9575  -30.7271 C   0  0  0  0  0  0  0  0  0  0  0  0
  -18.6389  -42.3255  -32.7621 C   0  0  0  0  0  0  0  0  0  0  0  0
  -19.7240  -41.9241  -32.0284 C   0  0  0  0  0  0  0  0  0  0  0  0
  -20.3613  -37.6850  -29.2817 N   0  0  0  0  0  0  0  0  0  0  0  0
  -19.3002  -41.7008  -30.7591 N   0  0  0  0  0  0  0  0  0  0  0  0
  -17.5709  -42.3420  -31.9378 N   0  0  0  0  0  0  0  0  0  0  0  0
  1  2  2  0
  6  1  1  0
  2  3  1  0
  4  3  2  0
  5  4  1  0
  6  5  2  0
 19  5  1  0
  7  6  1  0
  7  8  2  0
 15  7  1  0
  8  9  1  0
  8 19  1  0
  9 10  2  0
  9 14  1  0
 10 11  1  0
 11 12  2  0
 13 12  1  0
 14 13  2  0
 20 15  1  0
 16 20  1  0
 21 16  2  0
 17 18  2  0
 17 21  1  0
 18 20  1  0
M  END
$$$$
