
     RDKit          3D

 21 24  0  0  0  0  0  0  0  0999 V2000
  -12.8400  -29.7501   -5.1924 C   0  0  0  0  0  0  0  0  0  0  0  0
  -13.5017  -29.0040   -4.2380 C   0  0  0  0  0  0  0  0  0  0  0  0
  -14.8757  -28.9194   -4.3485 C   0  0  0  0  0  0  0  0  0  0  0  0
  -15.5550  -29.5488   -5.3618 C   0  0  0  0  0  0  0  0  0  0  0  0
  -14.8787  -30.2998   -6.3217 C   0  0  0  0  0  0  0  0  0  0  0  0
  -13.5189  -30.3848   -6.2142 C   0  0  0  0  0  0  0  0  0  0  0  0
  -13.1173  -31.1917   -7.3058 C   0  0  0  0  0  0  0  0  0  0  0  0
  -14.2051  -31.5679   -8.0289 C   0  0  0  0  0  0  0  0  0  0  0  0
  -14.3797  -32.4452   -9.2015 C   0  0  0  0  0  0  0  0  0  0  0  0
  -13.3810  -33.0003   -9.9354 C   0  0  0  0  0  0  0  0  0  0  0  0
  -13.6086  -33.8757  -10.9889 C   0  0  0  0  0  0  0  0  0  0  0  0
  -14.8808  -34.2082  -11.3230 C   0  0  0  0  0  0  0  0  0  0  0  0
  -15.9304  -33.6724  -10.6113 C   0  0  0  0  0  0  0  0  0  0  0  0
  -15.6736  -32.8116   -9.5758 C   0  0  0  0  0  0  0  0  0  0  0  0
  -11.7227  -31.5504   -7.4794 C   0  0  0  0  0  0  0  0  0  0  0  0
  -10.2005  -31.6705   -5.4409 C   0  0  0  0  0  0  0  0  0  0  0  0
  -10.8130  -33.6035   -4.6880 C   0  0  0  0  0  0  0  0  0  0  0  0
  -11.5287  -33.3257   -5.8226 C   0  0  0  0  0  0  0  0  0  0  0  0
  -15.2841  -30.9977   -7.3917 N   0  0  0  0  0  0  0  0  0  0  0  0
  -11.1268  -32.1108   -6.2732 N   0  0  0  0  0  0  0  0  0  0  0  0
   -9.9863  -32.5618   -4.4602 N   0  0  0  0  0  0  0  0  0  0  0  0
  1  2  2  0
  6  1  1  0
  2  3  1  0
  4  3  2  0
  5  4  1  0
  6  5  2  0
 19  5  1  0
  7  6  1  0
  7  8  2  0
 15  7  1  0
  8  9  1  0
  8 19  1  0
  9 10  2  0
  9 14  1  0
 10 11  1  0
 11 12  2  0
 13 12  1  0
 14 13  2  0
 20 15  1  0
 16 20  1  0
 21 16  2  0
 17 18  2  0
 17 21  1  0
 18 20  1  0
M  END
$$$$
