
     RDKit          3D

 21 24  0  0  0  0  0  0  0  0999 V2000
  -12.4841  -30.0518   -4.8518 C   0  0  0  0  0  0  0  0  0  0  0  0
  -12.9273  -29.3001   -3.7822 C   0  0  0  0  0  0  0  0  0  0  0  0
  -14.2184  -28.8142   -3.8482 C   0  0  0  0  0  0  0  0  0  0  0  0
  -15.0266  -29.0668   -4.9286 C   0  0  0  0  0  0  0  0  0  0  0  0
  -14.5707  -29.8264   -6.0046 C   0  0  0  0  0  0  0  0  0  0  0  0
  -13.2933  -30.3081   -5.9414 C   0  0  0  0  0  0  0  0  0  0  0  0
  -13.1139  -31.0233   -7.1499 C   0  0  0  0  0  0  0  0  0  0  0  0
  -14.2481  -30.9636   -7.8965 C   0  0  0  0  0  0  0  0  0  0  0  0
  -14.6394  -31.5700   -9.1827 C   0  0  0  0  0  0  0  0  0  0  0  0
  -13.7975  -32.1452  -10.0797 C   0  0  0  0  0  0  0  0  0  0  0  0
  -14.2344  -32.7624  -11.2442 C   0  0  0  0  0  0  0  0  0  0  0  0
  -15.5612  -32.8059  -11.5243 C   0  0  0  0  0  0  0  0  0  0  0  0
  -16.4577  -32.2368  -10.6482 C   0  0  0  0  0  0  0  0  0  0  0  0
  -15.9957  -31.6354   -9.5062 C   0  0  0  0  0  0  0  0  0  0  0  0
  -11.8747  -31.7322   -7.4061 C   0  0  0  0  0  0  0  0  0  0  0  0
  -10.9180  -33.3919   -5.7277 C   0  0  0  0  0  0  0  0  0  0  0  0
  -12.3246  -35.0077   -6.0264 C   0  0  0  0  0  0  0  0  0  0  0  0
  -12.6602  -33.9720   -6.8579 C   0  0  0  0  0  0  0  0  0  0  0  0
  -15.1346  -30.2129   -7.1575 N   0  0  0  0  0  0  0  0  0  0  0  0
  -11.7650  -32.9739   -6.6510 N   0  0  0  0  0  0  0  0  0  0  0  0
  -11.2341  -34.6331   -5.3257 N   0  0  0  0  0  0  0  0  0  0  0  0
  1  2  2  0
  6  1  1  0
  2  3  1  0
  4  3  2  0
  5  4  1  0
  6  5  2  0
 19  5  1  0
  7  6  1  0
  7  8  2  0
 15  7  1  0
  8  9  1  0
  8 19  1  0
  9 10  2  0
  9 14  1  0
 10 11  1  0
 11 12  2  0
 13 12  1  0
 14 13  2  0
 20 15  1  0
 16 20  1  0
 21 16  2  0
 17 18  2  0
 17 21  1  0
 18 20  1  0
M  END
$$$$
