
     RDKit          3D

 21 24  0  0  0  0  0  0  0  0999 V2000
  -14.8552  -37.3657  -19.4391 C   0  0  0  0  0  0  0  0  0  0  0  0
  -14.1318  -37.5841  -20.5944 C   0  0  0  0  0  0  0  0  0  0  0  0
  -14.1563  -36.5861  -21.5488 C   0  0  0  0  0  0  0  0  0  0  0  0
  -14.8677  -35.4277  -21.3587 C   0  0  0  0  0  0  0  0  0  0  0  0
  -15.5959  -35.2157  -20.1892 C   0  0  0  0  0  0  0  0  0  0  0  0
  -15.5731  -36.2020  -19.2435 C   0  0  0  0  0  0  0  0  0  0  0  0
  -16.3874  -35.7169  -18.1920 C   0  0  0  0  0  0  0  0  0  0  0  0
  -16.8710  -34.4870  -18.5100 C   0  0  0  0  0  0  0  0  0  0  0  0
  -17.6955  -33.5091  -17.7758 C   0  0  0  0  0  0  0  0  0  0  0  0
  -18.3148  -33.7245  -16.5866 C   0  0  0  0  0  0  0  0  0  0  0  0
  -19.0220  -32.7403  -15.9090 C   0  0  0  0  0  0  0  0  0  0  0  0
  -19.1155  -31.4949  -16.4392 C   0  0  0  0  0  0  0  0  0  0  0  0
  -18.5064  -31.2237  -17.6435 C   0  0  0  0  0  0  0  0  0  0  0  0
  -17.8146  -32.2162  -18.2882 C   0  0  0  0  0  0  0  0  0  0  0  0
  -16.5485  -36.4868  -16.9733 C   0  0  0  0  0  0  0  0  0  0  0  0
  -15.3961  -35.3301  -15.0185 C   0  0  0  0  0  0  0  0  0  0  0  0
  -13.5801  -36.5040  -14.9674 C   0  0  0  0  0  0  0  0  0  0  0  0
  -14.3767  -36.9687  -15.9805 C   0  0  0  0  0  0  0  0  0  0  0  0
  -16.3611  -34.2037  -19.7571 N   0  0  0  0  0  0  0  0  0  0  0  0
  -15.5064  -36.2176  -15.9905 N   0  0  0  0  0  0  0  0  0  0  0  0
  -14.2280  -35.4799  -14.3742 N   0  0  0  0  0  0  0  0  0  0  0  0
  1  2  2  0
  6  1  1  0
  2  3  1  0
  4  3  2  0
  5  4  1  0
  6  5  2  0
 19  5  1  0
  7  6  1  0
  7  8  2  0
 15  7  1  0
  8  9  1  0
  8 19  1  0
  9 10  2  0
  9 14  1  0
 10 11  1  0
 11 12  2  0
 13 12  1  0
 14 13  2  0
 20 15  1  0
 16 20  1  0
 21 16  2  0
 17 18  2  0
 17 21  1  0
 18 20  1  0
M  END
$$$$
