
     RDKit          3D

 21 24  0  0  0  0  0  0  0  0999 V2000
  -18.7031  -39.9639  -28.8947 C   0  0  0  0  0  0  0  0  0  0  0  0
  -17.6132  -39.4824  -28.1606 C   0  0  0  0  0  0  0  0  0  0  0  0
  -17.3511  -38.1323  -28.1248 C   0  0  0  0  0  0  0  0  0  0  0  0
  -18.1839  -37.2971  -28.8227 C   0  0  0  0  0  0  0  0  0  0  0  0
  -19.2713  -37.7737  -29.5557 C   0  0  0  0  0  0  0  0  0  0  0  0
  -19.5328  -39.1143  -29.5933 C   0  0  0  0  0  0  0  0  0  0  0  0
  -20.6842  -39.2971  -30.3943 C   0  0  0  0  0  0  0  0  0  0  0  0
  -21.0919  -38.0626  -30.8201 C   0  0  0  0  0  0  0  0  0  0  0  0
  -22.2423  -37.6494  -31.6482 C   0  0  0  0  0  0  0  0  0  0  0  0
  -22.9352  -38.6207  -32.3729 C   0  0  0  0  0  0  0  0  0  0  0  0
  -24.0238  -38.3397  -33.1496 C   0  0  0  0  0  0  0  0  0  0  0  0
  -24.4640  -37.0420  -33.2270 C   0  0  0  0  0  0  0  0  0  0  0  0
  -23.8228  -36.0582  -32.5392 C   0  0  0  0  0  0  0  0  0  0  0  0
  -22.7136  -36.3892  -31.7563 C   0  0  0  0  0  0  0  0  0  0  0  0
  -21.2517  -40.6171  -30.6759 C   0  0  0  0  0  0  0  0  0  0  0  0
  -19.7313  -42.5590  -30.7888 C   0  0  0  0  0  0  0  0  0  0  0  0
  -19.0596  -42.5164  -32.8418 C   0  0  0  0  0  0  0  0  0  0  0  0
  -19.9345  -41.4627  -32.6725 C   0  0  0  0  0  0  0  0  0  0  0  0
  -20.2066  -37.1686  -30.2884 N   0  0  0  0  0  0  0  0  0  0  0  0
  -20.3409  -41.5042  -31.3937 N   0  0  0  0  0  0  0  0  0  0  0  0
  -18.9348  -43.1879  -31.6887 N   0  0  0  0  0  0  0  0  0  0  0  0
  1  2  2  0
  6  1  1  0
  2  3  1  0
  4  3  2  0
  5  4  1  0
  6  5  2  0
 19  5  1  0
  7  6  1  0
  7  8  2  0
 15  7  1  0
  8  9  1  0
  8 19  1  0
  9 10  2  0
  9 14  1  0
 10 11  1  0
 11 12  2  0
 13 12  1  0
 14 13  2  0
 15 20  1  6
 16 20  1  0
 21 16  2  0
 17 18  2  0
 17 21  1  0
 18 20  1  0
M  END
$$$$
