
     RDKit          3D

 21 24  0  0  0  0  0  0  0  0999 V2000
  -14.7301  -30.3047   -4.0607 C   0  0  0  0  0  0  0  0  0  0  0  0
  -15.3630  -29.2074   -3.4659 C   0  0  0  0  0  0  0  0  0  0  0  0
  -16.0736  -28.3203   -4.2410 C   0  0  0  0  0  0  0  0  0  0  0  0
  -16.1346  -28.5515   -5.5906 C   0  0  0  0  0  0  0  0  0  0  0  0
  -15.5046  -29.6444   -6.1869 C   0  0  0  0  0  0  0  0  0  0  0  0
  -14.7977  -30.5261   -5.4189 C   0  0  0  0  0  0  0  0  0  0  0  0
  -14.2859  -31.5221   -6.2831 C   0  0  0  0  0  0  0  0  0  0  0  0
  -14.6974  -31.2196   -7.5523 C   0  0  0  0  0  0  0  0  0  0  0  0
  -14.4884  -31.9183   -8.8359 C   0  0  0  0  0  0  0  0  0  0  0  0
  -15.2197  -31.5104   -9.9528 C   0  0  0  0  0  0  0  0  0  0  0  0
  -15.0809  -32.0806  -11.1869 C   0  0  0  0  0  0  0  0  0  0  0  0
  -14.1810  -33.1048  -11.3450 C   0  0  0  0  0  0  0  0  0  0  0  0
  -13.4435  -33.5391  -10.2868 C   0  0  0  0  0  0  0  0  0  0  0  0
  -13.6166  -32.9280   -9.0420 C   0  0  0  0  0  0  0  0  0  0  0  0
  -13.4553  -32.6310   -5.8095 C   0  0  0  0  0  0  0  0  0  0  0  0
  -11.1541  -33.2955   -6.4080 C   0  0  0  0  0  0  0  0  0  0  0  0
   -9.9976  -31.5600   -5.8435 C   0  0  0  0  0  0  0  0  0  0  0  0
  -11.3191  -31.2861   -5.5556 C   0  0  0  0  0  0  0  0  0  0  0  0
  -15.4332  -30.0735   -7.4472 N   0  0  0  0  0  0  0  0  0  0  0  0
  -12.0218  -32.3730   -5.9117 N   0  0  0  0  0  0  0  0  0  0  0  0
   -9.8960  -32.7902   -6.3653 N   0  0  0  0  0  0  0  0  0  0  0  0
  1  2  2  0
  6  1  1  0
  2  3  1  0
  4  3  2  0
  5  4  1  0
  6  5  2  0
 19  5  1  0
  7  6  1  0
  7  8  2  0
 15  7  1  0
  8  9  1  0
  8 19  1  0
  9 10  2  0
  9 14  1  0
 10 11  1  0
 11 12  2  0
 13 12  1  0
 14 13  2  0
 15 20  1  6
 16 20  1  0
 21 16  2  0
 17 18  2  0
 17 21  1  0
 18 20  1  0
M  END
$$$$
