
     RDKit          3D

 21 24  0  0  0  0  0  0  0  0999 V2000
  -13.4488  -30.7233   -4.7537 C   0  0  0  0  0  0  0  0  0  0  0  0
  -13.5913  -29.6002   -3.9638 C   0  0  0  0  0  0  0  0  0  0  0  0
  -14.2363  -28.5156   -4.5250 C   0  0  0  0  0  0  0  0  0  0  0  0
  -14.7152  -28.5509   -5.8109 C   0  0  0  0  0  0  0  0  0  0  0  0
  -14.5664  -29.6891   -6.6017 C   0  0  0  0  0  0  0  0  0  0  0  0
  -13.9284  -30.7636   -6.0484 C   0  0  0  0  0  0  0  0  0  0  0  0
  -13.9239  -31.7477   -7.0660 C   0  0  0  0  0  0  0  0  0  0  0  0
  -14.5392  -31.2669   -8.1785 C   0  0  0  0  0  0  0  0  0  0  0  0
  -14.8726  -31.8678   -9.4834 C   0  0  0  0  0  0  0  0  0  0  0  0
  -15.4654  -31.2292  -10.5250 C   0  0  0  0  0  0  0  0  0  0  0  0
  -15.6917  -31.8310  -11.7557 C   0  0  0  0  0  0  0  0  0  0  0  0
  -15.3131  -33.1187  -11.9534 C   0  0  0  0  0  0  0  0  0  0  0  0
  -14.7084  -33.8122  -10.9294 C   0  0  0  0  0  0  0  0  0  0  0  0
  -14.4978  -33.1904   -9.7260 C   0  0  0  0  0  0  0  0  0  0  0  0
  -13.3719  -33.0646   -6.8109 C   0  0  0  0  0  0  0  0  0  0  0  0
  -10.8416  -33.2967   -6.9867 C   0  0  0  0  0  0  0  0  0  0  0  0
  -10.3166  -32.6907   -4.9778 C   0  0  0  0  0  0  0  0  0  0  0  0
  -11.6790  -32.6390   -5.1117 C   0  0  0  0  0  0  0  0  0  0  0  0
  -14.9272  -29.9853   -7.8580 N   0  0  0  0  0  0  0  0  0  0  0  0
  -11.9810  -33.0223   -6.3775 N   0  0  0  0  0  0  0  0  0  0  0  0
   -9.8049  -33.1033   -6.1560 N   0  0  0  0  0  0  0  0  0  0  0  0
  1  2  2  0
  6  1  1  0
  2  3  1  0
  4  3  2  0
  5  4  1  0
  6  5  2  0
 19  5  1  0
  7  6  1  0
  7  8  2  0
 15  7  1  0
  8  9  1  0
  8 19  1  0
  9 10  2  0
  9 14  1  0
 10 11  1  0
 11 12  2  0
 13 12  1  0
 14 13  2  0
 20 15  1  0
 16 20  1  0
 21 16  2  0
 17 18  2  0
 17 21  1  0
 18 20  1  0
M  END
$$$$
