
     RDKit          3D

 21 24  0  0  0  0  0  0  0  0999 V2000
  -12.3035  -28.2128   -4.8816 C   0  0  0  0  0  0  0  0  0  0  0  0
  -11.2405  -27.6817   -4.1793 C   0  0  0  0  0  0  0  0  0  0  0  0
  -10.0900  -28.4427   -4.1109 C   0  0  0  0  0  0  0  0  0  0  0  0
  -10.0054  -29.6728   -4.7141 C   0  0  0  0  0  0  0  0  0  0  0  0
  -11.0841  -30.2018   -5.4209 C   0  0  0  0  0  0  0  0  0  0  0  0
  -12.2236  -29.4504   -5.4898 C   0  0  0  0  0  0  0  0  0  0  0  0
  -13.1274  -30.2291   -6.2519 C   0  0  0  0  0  0  0  0  0  0  0  0
  -12.5377  -31.3976   -6.6183 C   0  0  0  0  0  0  0  0  0  0  0  0
  -12.9789  -32.5283   -7.4562 C   0  0  0  0  0  0  0  0  0  0  0  0
  -12.2416  -33.6268   -7.7622 C   0  0  0  0  0  0  0  0  0  0  0  0
  -12.7373  -34.6930   -8.5007 C   0  0  0  0  0  0  0  0  0  0  0  0
  -14.0165  -34.6606   -8.9515 C   0  0  0  0  0  0  0  0  0  0  0  0
  -14.8069  -33.5693   -8.6698 C   0  0  0  0  0  0  0  0  0  0  0  0
  -14.2891  -32.5325   -7.9376 C   0  0  0  0  0  0  0  0  0  0  0  0
  -14.4417  -29.7130   -6.5838 C   0  0  0  0  0  0  0  0  0  0  0  0
  -15.7508  -28.5290   -4.7476 C   0  0  0  0  0  0  0  0  0  0  0  0
  -16.5874  -30.2669   -3.7688 C   0  0  0  0  0  0  0  0  0  0  0  0
  -15.8193  -30.6828   -4.8241 C   0  0  0  0  0  0  0  0  0  0  0  0
  -11.2685  -31.3503   -6.0866 N   0  0  0  0  0  0  0  0  0  0  0  0
  -15.3080  -29.5763   -5.4197 N   0  0  0  0  0  0  0  0  0  0  0  0
  -16.5362  -28.9192   -3.7313 N   0  0  0  0  0  0  0  0  0  0  0  0
  1  2  2  0
  6  1  1  0
  2  3  1  0
  4  3  2  0
  5  4  1  0
  6  5  2  0
 19  5  1  0
  7  6  1  0
  7  8  2  0
 15  7  1  0
  8  9  1  0
  8 19  1  0
  9 10  2  0
  9 14  1  0
 10 11  1  0
 11 12  2  0
 13 12  1  0
 14 13  2  0
 20 15  1  0
 16 20  1  0
 21 16  2  0
 17 18  2  0
 17 21  1  0
 18 20  1  0
M  END
$$$$
