
     RDKit          3D

 21 24  0  0  0  0  0  0  0  0999 V2000
  -21.7411  -38.1613  -32.2855 C   0  0  0  0  0  0  0  0  0  0  0  0
  -22.8874  -37.8441  -32.9862 C   0  0  0  0  0  0  0  0  0  0  0  0
  -23.9375  -37.3116  -32.2643 C   0  0  0  0  0  0  0  0  0  0  0  0
  -23.8471  -37.1061  -30.9101 C   0  0  0  0  0  0  0  0  0  0  0  0
  -22.6859  -37.4299  -30.2104 C   0  0  0  0  0  0  0  0  0  0  0  0
  -21.6455  -37.9570  -30.9228 C   0  0  0  0  0  0  0  0  0  0  0  0
  -20.6271  -38.1836  -29.9660 C   0  0  0  0  0  0  0  0  0  0  0  0
  -21.0556  -37.8016  -28.7339 C   0  0  0  0  0  0  0  0  0  0  0  0
  -20.4026  -37.7506  -27.4124 C   0  0  0  0  0  0  0  0  0  0  0  0
  -20.8994  -37.1458  -26.3026 C   0  0  0  0  0  0  0  0  0  0  0  0
  -20.2690  -37.1909  -25.0663 C   0  0  0  0  0  0  0  0  0  0  0  0
  -19.0985  -37.8638  -24.9332 C   0  0  0  0  0  0  0  0  0  0  0  0
  -18.5511  -38.4942  -26.0278 C   0  0  0  0  0  0  0  0  0  0  0  0
  -19.1976  -38.4323  -27.2351 C   0  0  0  0  0  0  0  0  0  0  0  0
  -19.3324  -38.6910  -30.3783 C   0  0  0  0  0  0  0  0  0  0  0  0
  -19.0063  -41.1003  -29.6196 C   0  0  0  0  0  0  0  0  0  0  0  0
  -19.5031  -42.0978  -31.4735 C   0  0  0  0  0  0  0  0  0  0  0  0
  -19.6154  -40.7449  -31.6573 C   0  0  0  0  0  0  0  0  0  0  0  0
  -22.3385  -37.3377  -28.9192 N   0  0  0  0  0  0  0  0  0  0  0  0
  -19.2997  -40.1443  -30.4825 N   0  0  0  0  0  0  0  0  0  0  0  0
  -19.1216  -42.3071  -30.1964 N   0  0  0  0  0  0  0  0  0  0  0  0
  1  2  2  0
  6  1  1  0
  2  3  1  0
  4  3  2  0
  5  4  1  0
  6  5  2  0
 19  5  1  0
  7  6  1  0
  7  8  2  0
 15  7  1  0
  8  9  1  0
  8 19  1  0
  9 10  2  0
  9 14  1  0
 10 11  1  0
 11 12  2  0
 13 12  1  0
 14 13  2  0
 20 15  1  0
 16 20  1  0
 21 16  2  0
 17 18  2  0
 17 21  1  0
 18 20  1  0
M  END
$$$$
