
     RDKit          3D

 21 24  0  0  0  0  0  0  0  0999 V2000
  -22.3698  -36.0248  -31.0989 C   0  0  0  0  0  0  0  0  0  0  0  0
  -23.1001  -35.1678  -31.9299 C   0  0  0  0  0  0  0  0  0  0  0  0
  -23.5550  -35.6148  -33.1489 C   0  0  0  0  0  0  0  0  0  0  0  0
  -23.2694  -36.9064  -33.5073 C   0  0  0  0  0  0  0  0  0  0  0  0
  -22.5414  -37.7636  -32.6813 C   0  0  0  0  0  0  0  0  0  0  0  0
  -22.0880  -37.3213  -31.4706 C   0  0  0  0  0  0  0  0  0  0  0  0
  -21.4011  -38.3961  -30.8593 C   0  0  0  0  0  0  0  0  0  0  0  0
  -21.4574  -39.4626  -31.7142 C   0  0  0  0  0  0  0  0  0  0  0  0
  -20.9436  -40.8408  -31.5865 C   0  0  0  0  0  0  0  0  0  0  0  0
  -19.8222  -41.0712  -30.7876 C   0  0  0  0  0  0  0  0  0  0  0  0
  -19.2863  -42.3127  -30.5909 C   0  0  0  0  0  0  0  0  0  0  0  0
  -19.8725  -43.3913  -31.2049 C   0  0  0  0  0  0  0  0  0  0  0  0
  -20.9680  -43.2193  -31.9939 C   0  0  0  0  0  0  0  0  0  0  0  0
  -21.4841  -41.9323  -32.1680 C   0  0  0  0  0  0  0  0  0  0  0  0
  -20.7590  -38.2823  -29.5483 C   0  0  0  0  0  0  0  0  0  0  0  0
  -18.4686  -38.2859  -30.4700 C   0  0  0  0  0  0  0  0  0  0  0  0
  -17.4938  -36.7357  -29.3235 C   0  0  0  0  0  0  0  0  0  0  0  0
  -18.8012  -36.8102  -28.8878 C   0  0  0  0  0  0  0  0  0  0  0  0
  -22.1577  -39.0344  -32.8060 N   0  0  0  0  0  0  0  0  0  0  0  0
  -19.3906  -37.7767  -29.6093 N   0  0  0  0  0  0  0  0  0  0  0  0
  -17.2897  -37.6391  -30.2921 N   0  0  0  0  0  0  0  0  0  0  0  0
  1  2  2  0
  6  1  1  0
  2  3  1  0
  4  3  2  0
  5  4  1  0
  6  5  2  0
 19  5  1  0
  7  6  1  0
  7  8  2  0
 15  7  1  0
  8  9  1  0
  8 19  1  0
  9 10  2  0
  9 14  1  0
 10 11  1  0
 11 12  2  0
 13 12  1  0
 14 13  2  0
 15 20  1  6
 16 20  1  0
 21 16  2  0
 17 18  2  0
 17 21  1  0
 18 20  1  0
M  END
$$$$
