
     RDKit          3D

 21 24  0  0  0  0  0  0  0  0999 V2000
  -22.1841  -40.2498  -31.8523 C   0  0  0  0  0  0  0  0  0  0  0  0
  -22.1709  -41.4064  -32.6400 C   0  0  0  0  0  0  0  0  0  0  0  0
  -21.1608  -42.3284  -32.4907 C   0  0  0  0  0  0  0  0  0  0  0  0
  -20.1894  -42.0724  -31.5584 C   0  0  0  0  0  0  0  0  0  0  0  0
  -20.1993  -40.9202  -30.7715 C   0  0  0  0  0  0  0  0  0  0  0  0
  -21.2012  -40.0028  -30.9189 C   0  0  0  0  0  0  0  0  0  0  0  0
  -20.9568  -38.9595  -29.9956 C   0  0  0  0  0  0  0  0  0  0  0  0
  -19.8143  -39.2722  -29.3111 C   0  0  0  0  0  0  0  0  0  0  0  0
  -19.1106  -38.5702  -28.2195 C   0  0  0  0  0  0  0  0  0  0  0  0
  -19.6695  -37.4020  -27.6982 C   0  0  0  0  0  0  0  0  0  0  0  0
  -19.1045  -36.6946  -26.6746 C   0  0  0  0  0  0  0  0  0  0  0  0
  -17.9305  -37.1474  -26.1265 C   0  0  0  0  0  0  0  0  0  0  0  0
  -17.3456  -38.2816  -26.5992 C   0  0  0  0  0  0  0  0  0  0  0  0
  -17.9570  -38.9749  -27.6473 C   0  0  0  0  0  0  0  0  0  0  0  0
  -21.8220  -37.7837  -29.8819 C   0  0  0  0  0  0  0  0  0  0  0  0
  -21.7655  -36.3120  -31.8634 C   0  0  0  0  0  0  0  0  0  0  0  0
  -23.4966  -36.9581  -32.9832 C   0  0  0  0  0  0  0  0  0  0  0  0
  -23.4290  -37.7347  -31.8445 C   0  0  0  0  0  0  0  0  0  0  0  0
  -19.3887  -40.4687  -29.8141 N   0  0  0  0  0  0  0  0  0  0  0  0
  -22.3500  -37.3203  -31.1618 N   0  0  0  0  0  0  0  0  0  0  0  0
  -22.4784  -36.0868  -32.9952 N   0  0  0  0  0  0  0  0  0  0  0  0
  1  2  2  0
  6  1  1  0
  2  3  1  0
  4  3  2  0
  5  4  1  0
  6  5  2  0
 19  5  1  0
  7  6  1  0
  7  8  2  0
 15  7  1  0
  8  9  1  0
  8 19  1  0
  9 10  2  0
  9 14  1  0
 10 11  1  0
 11 12  2  0
 13 12  1  0
 14 13  2  0
 15 20  1  6
 16 20  1  0
 21 16  2  0
 17 18  2  0
 17 21  1  0
 18 20  1  0
M  END
$$$$
