
     RDKit          3D

 21 24  0  0  0  0  0  0  0  0999 V2000
  -19.5133  -41.8028  -31.4968 C   0  0  0  0  0  0  0  0  0  0  0  0
  -19.8213  -43.1441  -31.3904 C   0  0  0  0  0  0  0  0  0  0  0  0
  -21.1597  -43.4845  -31.4082 C   0  0  0  0  0  0  0  0  0  0  0  0
  -22.1415  -42.5324  -31.5265 C   0  0  0  0  0  0  0  0  0  0  0  0
  -21.8214  -41.1800  -31.6327 C   0  0  0  0  0  0  0  0  0  0  0  0
  -20.4976  -40.8410  -31.6153 C   0  0  0  0  0  0  0  0  0  0  0  0
  -20.4815  -39.4305  -31.7343 C   0  0  0  0  0  0  0  0  0  0  0  0
  -21.7532  -38.9580  -31.8193 C   0  0  0  0  0  0  0  0  0  0  0  0
  -22.3142  -37.6090  -32.0202 C   0  0  0  0  0  0  0  0  0  0  0  0
  -21.6099  -36.4955  -32.3493 C   0  0  0  0  0  0  0  0  0  0  0  0
  -22.2048  -35.2648  -32.5933 C   0  0  0  0  0  0  0  0  0  0  0  0
  -23.5528  -35.1409  -32.5041 C   0  0  0  0  0  0  0  0  0  0  0  0
  -24.3139  -36.2391  -32.1727 C   0  0  0  0  0  0  0  0  0  0  0  0
  -23.6975  -37.4410  -31.9385 C   0  0  0  0  0  0  0  0  0  0  0  0
  -19.2223  -38.7147  -31.8117 C   0  0  0  0  0  0  0  0  0  0  0  0
  -17.6822  -39.4174  -29.9087 C   0  0  0  0  0  0  0  0  0  0  0  0
  -17.9988  -37.7314  -28.5913 C   0  0  0  0  0  0  0  0  0  0  0  0
  -18.7571  -37.5578  -29.7190 C   0  0  0  0  0  0  0  0  0  0  0  0
  -22.5626  -40.0698  -31.7533 N   0  0  0  0  0  0  0  0  0  0  0  0
  -18.5404  -38.6260  -30.5266 N   0  0  0  0  0  0  0  0  0  0  0  0
  -17.3321  -38.8970  -28.7217 N   0  0  0  0  0  0  0  0  0  0  0  0
  1  2  2  0
  6  1  1  0
  2  3  1  0
  4  3  2  0
  5  4  1  0
  6  5  2  0
 19  5  1  0
  7  6  1  0
  7  8  2  0
 15  7  1  0
  8  9  1  0
  8 19  1  0
  9 10  2  0
  9 14  1  0
 10 11  1  0
 11 12  2  0
 13 12  1  0
 14 13  2  0
 20 15  1  0
 16 20  1  0
 21 16  2  0
 17 18  2  0
 17 21  1  0
 18 20  1  0
M  END
$$$$
