
     RDKit          3D

 21 24  0  0  0  0  0  0  0  0999 V2000
  -14.2284  -30.9408   -4.5068 C   0  0  0  0  0  0  0  0  0  0  0  0
  -14.4672  -29.8365   -3.7137 C   0  0  0  0  0  0  0  0  0  0  0  0
  -14.8596  -28.6770   -4.3532 C   0  0  0  0  0  0  0  0  0  0  0  0
  -15.0063  -28.6232   -5.7169 C   0  0  0  0  0  0  0  0  0  0  0  0
  -14.7624  -29.7430   -6.5103 C   0  0  0  0  0  0  0  0  0  0  0  0
  -14.3740  -30.8915   -5.8795 C   0  0  0  0  0  0  0  0  0  0  0  0
  -14.2003  -31.8367   -6.9189 C   0  0  0  0  0  0  0  0  0  0  0  0
  -14.4782  -31.2622   -8.1190 C   0  0  0  0  0  0  0  0  0  0  0  0
  -14.5273  -31.7843   -9.4974 C   0  0  0  0  0  0  0  0  0  0  0  0
  -14.7593  -31.0523  -10.6175 C   0  0  0  0  0  0  0  0  0  0  0  0
  -14.7246  -31.5899  -11.8972 C   0  0  0  0  0  0  0  0  0  0  0  0
  -14.4494  -32.9078  -12.0648 C   0  0  0  0  0  0  0  0  0  0  0  0
  -14.2074  -33.6952  -10.9619 C   0  0  0  0  0  0  0  0  0  0  0  0
  -14.2479  -33.1351   -9.7113 C   0  0  0  0  0  0  0  0  0  0  0  0
  -13.8413  -33.2080   -6.6115 C   0  0  0  0  0  0  0  0  0  0  0  0
  -11.7096  -33.4735   -5.2431 C   0  0  0  0  0  0  0  0  0  0  0  0
  -10.2916  -33.6180   -6.8700 C   0  0  0  0  0  0  0  0  0  0  0  0
  -11.5484  -33.4649   -7.3933 C   0  0  0  0  0  0  0  0  0  0  0  0
  -14.8244  -29.9611   -7.8312 N   0  0  0  0  0  0  0  0  0  0  0  0
  -12.4167  -33.3774   -6.3546 N   0  0  0  0  0  0  0  0  0  0  0  0
  -10.4056  -33.6214   -5.5257 N   0  0  0  0  0  0  0  0  0  0  0  0
  1  2  2  0
  6  1  1  0
  2  3  1  0
  4  3  2  0
  5  4  1  0
  6  5  2  0
 19  5  1  0
  7  6  1  0
  7  8  2  0
 15  7  1  0
  8  9  1  0
  8 19  1  0
  9 10  2  0
  9 14  1  0
 10 11  1  0
 11 12  2  0
 13 12  1  0
 14 13  2  0
 20 15  1  0
 16 20  1  0
 21 16  2  0
 17 18  2  0
 17 21  1  0
 18 20  1  0
M  END
$$$$
