
     RDKit          3D

 21 24  0  0  0  0  0  0  0  0999 V2000
  -13.8698  -33.4005   -9.1341 C   0  0  0  0  0  0  0  0  0  0  0  0
  -14.0161  -33.5328  -10.5003 C   0  0  0  0  0  0  0  0  0  0  0  0
  -14.5786  -32.4687  -11.1776 C   0  0  0  0  0  0  0  0  0  0  0  0
  -14.9751  -31.3293  -10.5229 C   0  0  0  0  0  0  0  0  0  0  0  0
  -14.8242  -31.2045   -9.1428 C   0  0  0  0  0  0  0  0  0  0  0  0
  -14.2678  -32.2563   -8.4707 C   0  0  0  0  0  0  0  0  0  0  0  0
  -14.2456  -31.8508   -7.1145 C   0  0  0  0  0  0  0  0  0  0  0  0
  -14.7708  -30.6027   -6.9953 C   0  0  0  0  0  0  0  0  0  0  0  0
  -14.9306  -29.6829   -5.8536 C   0  0  0  0  0  0  0  0  0  0  0  0
  -14.7866  -28.3331   -5.8935 C   0  0  0  0  0  0  0  0  0  0  0  0
  -15.0181  -27.5117   -4.7982 C   0  0  0  0  0  0  0  0  0  0  0  0
  -15.4067  -28.0584   -3.6189 C   0  0  0  0  0  0  0  0  0  0  0  0
  -15.5667  -29.4224   -3.5243 C   0  0  0  0  0  0  0  0  0  0  0  0
  -15.3313  -30.2070   -4.6236 C   0  0  0  0  0  0  0  0  0  0  0  0
  -13.6580  -32.7070   -6.1019 C   0  0  0  0  0  0  0  0  0  0  0  0
  -11.3363  -33.5748   -6.6880 C   0  0  0  0  0  0  0  0  0  0  0  0
  -10.1598  -32.0086   -5.7706 C   0  0  0  0  0  0  0  0  0  0  0  0
  -11.4876  -31.7366   -5.5710 C   0  0  0  0  0  0  0  0  0  0  0  0
  -15.1208  -30.2286   -8.2733 N   0  0  0  0  0  0  0  0  0  0  0  0
  -12.2017  -32.7313   -6.1550 N   0  0  0  0  0  0  0  0  0  0  0  0
  -10.0784  -33.1598   -6.4694 N   0  0  0  0  0  0  0  0  0  0  0  0
  1  2  2  0
  6  1  1  0
  2  3  1  0
  4  3  2  0
  5  4  1  0
  6  5  2  0
 19  5  1  0
  7  6  1  0
  7  8  2  0
 15  7  1  0
  8  9  1  0
  8 19  1  0
  9 10  2  0
  9 14  1  0
 10 11  1  0
 11 12  2  0
 13 12  1  0
 14 13  2  0
 20 15  1  0
 16 20  1  0
 21 16  2  0
 17 18  2  0
 17 21  1  0
 18 20  1  0
M  END
$$$$
