
     RDKit          3D

 21 24  0  0  0  0  0  0  0  0999 V2000
  -10.9613  -33.2096   -5.8403 C   0  0  0  0  0  0  0  0  0  0  0  0
   -9.5647  -33.1229   -5.8635 C   0  0  0  0  0  0  0  0  0  0  0  0
   -8.9430  -31.9476   -5.5101 C   0  0  0  0  0  0  0  0  0  0  0  0
   -9.7315  -30.8886   -5.1422 C   0  0  0  0  0  0  0  0  0  0  0  0
  -11.1241  -30.9716   -5.1181 C   0  0  0  0  0  0  0  0  0  0  0  0
  -11.7435  -32.1377   -5.4696 C   0  0  0  0  0  0  0  0  0  0  0  0
  -13.1369  -31.9300   -5.3424 C   0  0  0  0  0  0  0  0  0  0  0  0
  -13.3261  -30.6441   -4.9154 C   0  0  0  0  0  0  0  0  0  0  0  0
  -14.5574  -29.8984   -4.5879 C   0  0  0  0  0  0  0  0  0  0  0  0
  -15.7941  -30.4785   -4.8761 C   0  0  0  0  0  0  0  0  0  0  0  0
  -16.9873  -29.8764   -4.5914 C   0  0  0  0  0  0  0  0  0  0  0  0
  -16.9788  -28.6411   -3.9931 C   0  0  0  0  0  0  0  0  0  0  0  0
  -15.7991  -28.0332   -3.6916 C   0  0  0  0  0  0  0  0  0  0  0  0
  -14.6015  -28.6843   -3.9998 C   0  0  0  0  0  0  0  0  0  0  0  0
  -14.1238  -32.9653   -5.6557 C   0  0  0  0  0  0  0  0  0  0  0  0
  -13.3381  -34.9976   -6.8168 C   0  0  0  0  0  0  0  0  0  0  0  0
  -13.4681  -34.4343   -8.8986 C   0  0  0  0  0  0  0  0  0  0  0  0
  -13.8999  -33.3568   -8.1523 C   0  0  0  0  0  0  0  0  0  0  0  0
  -12.0792  -30.1000   -4.7929 N   0  0  0  0  0  0  0  0  0  0  0  0
  -13.8124  -33.7235   -6.8640 N   0  0  0  0  0  0  0  0  0  0  0  0
  -13.1239  -35.4391   -8.0813 N   0  0  0  0  0  0  0  0  0  0  0  0
  1  2  2  0
  6  1  1  0
  2  3  1  0
  4  3  2  0
  5  4  1  0
  6  5  2  0
 19  5  1  0
  7  6  1  0
  7  8  2  0
 15  7  1  0
  8  9  1  0
  8 19  1  0
  9 10  2  0
  9 14  1  0
 10 11  1  0
 11 12  2  0
 13 12  1  0
 14 13  2  0
 15 20  1  6
 16 20  1  0
 21 16  2  0
 17 18  2  0
 17 21  1  0
 18 20  1  0
M  END
$$$$
