
     RDKit          3D

 21 24  0  0  0  0  0  0  0  0999 V2000
  -18.4296  -38.8363  -29.6899 C   0  0  0  0  0  0  0  0  0  0  0  0
  -17.6380  -38.0656  -28.8308 C   0  0  0  0  0  0  0  0  0  0  0  0
  -18.1269  -36.8862  -28.3184 C   0  0  0  0  0  0  0  0  0  0  0  0
  -19.3941  -36.5061  -28.6764 C   0  0  0  0  0  0  0  0  0  0  0  0
  -20.1860  -37.2719  -29.5328 C   0  0  0  0  0  0  0  0  0  0  0  0
  -19.7019  -38.4432  -30.0435 C   0  0  0  0  0  0  0  0  0  0  0  0
  -20.7153  -38.9982  -30.8594 C   0  0  0  0  0  0  0  0  0  0  0  0
  -21.7881  -38.1501  -30.8208 C   0  0  0  0  0  0  0  0  0  0  0  0
  -23.1205  -38.2366  -31.4508 C   0  0  0  0  0  0  0  0  0  0  0  0
  -23.3616  -39.2476  -32.3827 C   0  0  0  0  0  0  0  0  0  0  0  0
  -24.5669  -39.4217  -33.0026 C   0  0  0  0  0  0  0  0  0  0  0  0
  -25.5961  -38.5654  -32.7002 C   0  0  0  0  0  0  0  0  0  0  0  0
  -25.4118  -37.5634  -31.7979 C   0  0  0  0  0  0  0  0  0  0  0  0
  -24.1631  -37.4210  -31.1868 C   0  0  0  0  0  0  0  0  0  0  0  0
  -20.5432  -40.2544  -31.5916 C   0  0  0  0  0  0  0  0  0  0  0  0
  -18.4290  -41.4881  -31.2699 C   0  0  0  0  0  0  0  0  0  0  0  0
  -18.8767  -42.7647  -29.5853 C   0  0  0  0  0  0  0  0  0  0  0  0
  -20.0055  -42.0146  -29.8455 C   0  0  0  0  0  0  0  0  0  0  0  0
  -21.4232  -37.1171  -30.0051 N   0  0  0  0  0  0  0  0  0  0  0  0
  -19.7100  -41.2290  -30.8931 N   0  0  0  0  0  0  0  0  0  0  0  0
  -17.9112  -42.4428  -30.4572 N   0  0  0  0  0  0  0  0  0  0  0  0
  1  2  2  0
  6  1  1  0
  2  3  1  0
  4  3  2  0
  5  4  1  0
  6  5  2  0
 19  5  1  0
  7  6  1  0
  7  8  2  0
 15  7  1  0
  8  9  1  0
  8 19  1  0
  9 10  2  0
  9 14  1  0
 10 11  1  0
 11 12  2  0
 13 12  1  0
 14 13  2  0
 15 20  1  6
 16 20  1  0
 21 16  2  0
 17 18  2  0
 17 21  1  0
 18 20  1  0
M  END
$$$$
