
     RDKit          3D

 21 24  0  0  0  0  0  0  0  0999 V2000
  -22.1995  -39.3197  -32.4095 C   0  0  0  0  0  0  0  0  0  0  0  0
  -22.7964  -38.6983  -33.5122 C   0  0  0  0  0  0  0  0  0  0  0  0
  -23.2186  -37.3922  -33.4202 C   0  0  0  0  0  0  0  0  0  0  0  0
  -23.0339  -36.7393  -32.2293 C   0  0  0  0  0  0  0  0  0  0  0  0
  -22.4393  -37.3559  -31.1278 C   0  0  0  0  0  0  0  0  0  0  0  0
  -22.0202  -38.6533  -31.2170 C   0  0  0  0  0  0  0  0  0  0  0  0
  -21.4570  -39.0013  -29.9669 C   0  0  0  0  0  0  0  0  0  0  0  0
  -21.5477  -37.9055  -29.1530 C   0  0  0  0  0  0  0  0  0  0  0  0
  -21.0982  -37.6846  -27.7642 C   0  0  0  0  0  0  0  0  0  0  0  0
  -21.9227  -36.9690  -26.8942 C   0  0  0  0  0  0  0  0  0  0  0  0
  -21.6036  -36.7316  -25.5868 C   0  0  0  0  0  0  0  0  0  0  0  0
  -20.4167  -37.2166  -25.0970 C   0  0  0  0  0  0  0  0  0  0  0  0
  -19.5779  -37.9206  -25.9050 C   0  0  0  0  0  0  0  0  0  0  0  0
  -19.9430  -38.1409  -27.2358 C   0  0  0  0  0  0  0  0  0  0  0  0
  -20.9161  -40.3324  -29.6851 C   0  0  0  0  0  0  0  0  0  0  0  0
  -20.0767  -41.9190  -31.3802 C   0  0  0  0  0  0  0  0  0  0  0  0
  -18.1833  -41.0475  -31.9488 C   0  0  0  0  0  0  0  0  0  0  0  0
  -18.7484  -40.2216  -30.9985 C   0  0  0  0  0  0  0  0  0  0  0  0
  -22.1498  -36.9314  -29.8975 N   0  0  0  0  0  0  0  0  0  0  0  0
  -19.9217  -40.7774  -30.6571 N   0  0  0  0  0  0  0  0  0  0  0  0
  -18.9961  -42.0870  -32.1828 N   0  0  0  0  0  0  0  0  0  0  0  0
  1  2  2  0
  6  1  1  0
  2  3  1  0
  4  3  2  0
  5  4  1  0
  6  5  2  0
 19  5  1  0
  7  6  1  0
  7  8  2  0
 15  7  1  0
  8  9  1  0
  8 19  1  0
  9 10  2  0
  9 14  1  0
 10 11  1  0
 11 12  2  0
 13 12  1  0
 14 13  2  0
 15 20  1  6
 16 20  1  0
 21 16  2  0
 17 18  2  0
 17 21  1  0
 18 20  1  0
M  END
$$$$
