
     RDKit          3D

 21 24  0  0  0  0  0  0  0  0999 V2000
  -18.5163  -39.7065  -27.6741 C   0  0  0  0  0  0  0  0  0  0  0  0
  -17.7154  -38.9963  -26.8025 C   0  0  0  0  0  0  0  0  0  0  0  0
  -17.8491  -37.6217  -26.8052 C   0  0  0  0  0  0  0  0  0  0  0  0
  -18.7385  -36.9880  -27.6369 C   0  0  0  0  0  0  0  0  0  0  0  0
  -19.5430  -37.7131  -28.5144 C   0  0  0  0  0  0  0  0  0  0  0  0
  -19.4123  -39.0735  -28.5134 C   0  0  0  0  0  0  0  0  0  0  0  0
  -20.3339  -39.5283  -29.4869 C   0  0  0  0  0  0  0  0  0  0  0  0
  -20.9838  -38.4703  -30.0400 C   0  0  0  0  0  0  0  0  0  0  0  0
  -22.0705  -38.3630  -31.0312 C   0  0  0  0  0  0  0  0  0  0  0  0
  -22.5771  -37.2078  -31.5342 C   0  0  0  0  0  0  0  0  0  0  0  0
  -23.5554  -37.1725  -32.5190 C   0  0  0  0  0  0  0  0  0  0  0  0
  -24.0471  -38.3338  -33.0192 C   0  0  0  0  0  0  0  0  0  0  0  0
  -23.5683  -39.5334  -32.5429 C   0  0  0  0  0  0  0  0  0  0  0  0
  -22.6016  -39.5356  -31.5709 C   0  0  0  0  0  0  0  0  0  0  0  0
  -20.5144  -40.9486  -29.7197 C   0  0  0  0  0  0  0  0  0  0  0  0
  -18.2620  -41.6436  -30.6846 C   0  0  0  0  0  0  0  0  0  0  0  0
  -18.9417  -42.3931  -32.5963 C   0  0  0  0  0  0  0  0  0  0  0  0
  -20.0262  -41.9511  -31.8857 C   0  0  0  0  0  0  0  0  0  0  0  0
  -20.4700  -37.3566  -29.4144 N   0  0  0  0  0  0  0  0  0  0  0  0
  -19.5736  -41.4878  -30.6936 N   0  0  0  0  0  0  0  0  0  0  0  0
  -17.8453  -42.1952  -31.8353 N   0  0  0  0  0  0  0  0  0  0  0  0
  1  2  2  0
  6  1  1  0
  2  3  1  0
  4  3  2  0
  5  4  1  0
  6  5  2  0
 19  5  1  0
  7  6  1  0
  7  8  2  0
 15  7  1  0
  8  9  1  0
  8 19  1  0
  9 10  2  0
  9 14  1  0
 10 11  1  0
 11 12  2  0
 13 12  1  0
 14 13  2  0
 20 15  1  0
 16 20  1  0
 21 16  2  0
 17 18  2  0
 17 21  1  0
 18 20  1  0
M  END
$$$$
