
     RDKit          3D

 21 24  0  0  0  0  0  0  0  0999 V2000
  -15.5219  -31.1104   -9.4388 C   0  0  0  0  0  0  0  0  0  0  0  0
  -16.7467  -30.4801   -9.5271 C   0  0  0  0  0  0  0  0  0  0  0  0
  -17.1422  -29.7215   -8.4429 C   0  0  0  0  0  0  0  0  0  0  0  0
  -16.3535  -29.5986   -7.3262 C   0  0  0  0  0  0  0  0  0  0  0  0
  -15.1181  -30.2391   -7.2453 C   0  0  0  0  0  0  0  0  0  0  0  0
  -14.7249  -30.9903   -8.3171 C   0  0  0  0  0  0  0  0  0  0  0  0
  -13.4595  -31.5099   -7.9527 C   0  0  0  0  0  0  0  0  0  0  0  0
  -13.1216  -31.0774   -6.7091 C   0  0  0  0  0  0  0  0  0  0  0  0
  -11.9157  -31.2482   -5.8774 C   0  0  0  0  0  0  0  0  0  0  0  0
  -11.4713  -32.4189   -5.3518 C   0  0  0  0  0  0  0  0  0  0  0  0
  -10.2885  -32.5283   -4.6327 C   0  0  0  0  0  0  0  0  0  0  0  0
   -9.5216  -31.4277   -4.4296 C   0  0  0  0  0  0  0  0  0  0  0  0
   -9.9272  -30.2155   -4.9406 C   0  0  0  0  0  0  0  0  0  0  0  0
  -11.0995  -30.1395   -5.6471 C   0  0  0  0  0  0  0  0  0  0  0  0
  -12.7016  -32.3196   -8.8875 C   0  0  0  0  0  0  0  0  0  0  0  0
  -11.1285  -34.1213   -8.0121 C   0  0  0  0  0  0  0  0  0  0  0  0
  -12.5974  -35.6361   -7.5367 C   0  0  0  0  0  0  0  0  0  0  0  0
  -13.2438  -34.5386   -8.0411 C   0  0  0  0  0  0  0  0  0  0  0  0
  -14.1728  -30.2898   -6.2966 N   0  0  0  0  0  0  0  0  0  0  0  0
  -12.3022  -33.6056   -8.3299 N   0  0  0  0  0  0  0  0  0  0  0  0
  -11.2762  -35.3631   -7.5240 N   0  0  0  0  0  0  0  0  0  0  0  0
  1  2  2  0
  6  1  1  0
  2  3  1  0
  4  3  2  0
  5  4  1  0
  6  5  2  0
 19  5  1  0
  7  6  1  0
  7  8  2  0
 15  7  1  0
  8  9  1  0
  8 19  1  0
  9 10  2  0
  9 14  1  0
 10 11  1  0
 11 12  2  0
 13 12  1  0
 14 13  2  0
 20 15  1  0
 16 20  1  0
 21 16  2  0
 17 18  2  0
 17 21  1  0
 18 20  1  0
M  END
$$$$
