
     RDKit          3D

 21 24  0  0  0  0  0  0  0  0999 V2000
  -22.3420  -39.2031  -31.9120 C   0  0  0  0  0  0  0  0  0  0  0  0
  -23.0651  -38.5786  -32.9345 C   0  0  0  0  0  0  0  0  0  0  0  0
  -23.2843  -37.2211  -32.8914 C   0  0  0  0  0  0  0  0  0  0  0  0
  -22.7757  -36.5213  -31.8285 C   0  0  0  0  0  0  0  0  0  0  0  0
  -22.0544  -37.1407  -30.8072 C   0  0  0  0  0  0  0  0  0  0  0  0
  -21.8364  -38.4889  -30.8477 C   0  0  0  0  0  0  0  0  0  0  0  0
  -21.0799  -38.8284  -29.7017 C   0  0  0  0  0  0  0  0  0  0  0  0
  -20.8573  -37.6770  -28.9971 C   0  0  0  0  0  0  0  0  0  0  0  0
  -20.1080  -37.4287  -27.7495 C   0  0  0  0  0  0  0  0  0  0  0  0
  -20.0057  -38.4548  -26.8086 C   0  0  0  0  0  0  0  0  0  0  0  0
  -19.3166  -38.3280  -25.6354 C   0  0  0  0  0  0  0  0  0  0  0  0
  -18.6917  -37.1372  -25.3606 C   0  0  0  0  0  0  0  0  0  0  0  0
  -18.7615  -36.1059  -26.2459 C   0  0  0  0  0  0  0  0  0  0  0  0
  -19.4766  -36.2782  -27.4341 C   0  0  0  0  0  0  0  0  0  0  0  0
  -20.6723  -40.2020  -29.4001 C   0  0  0  0  0  0  0  0  0  0  0  0
  -18.9473  -40.6505  -31.1085 C   0  0  0  0  0  0  0  0  0  0  0  0
  -19.8364  -42.2371  -32.2748 C   0  0  0  0  0  0  0  0  0  0  0  0
  -20.7277  -41.9134  -31.2721 C   0  0  0  0  0  0  0  0  0  0  0  0
  -21.4660  -36.6788  -29.7035 N   0  0  0  0  0  0  0  0  0  0  0  0
  -20.1603  -40.9278  -30.5589 N   0  0  0  0  0  0  0  0  0  0  0  0
  -18.7462  -41.4641  -32.1751 N   0  0  0  0  0  0  0  0  0  0  0  0
  1  2  2  0
  6  1  1  0
  2  3  1  0
  4  3  2  0
  5  4  1  0
  6  5  2  0
 19  5  1  0
  7  6  1  0
  7  8  2  0
 15  7  1  0
  8  9  1  0
  8 19  1  0
  9 10  2  0
  9 14  1  0
 10 11  1  0
 11 12  2  0
 13 12  1  0
 14 13  2  0
 15 20  1  6
 16 20  1  0
 21 16  2  0
 17 18  2  0
 17 21  1  0
 18 20  1  0
M  END
$$$$
