
     RDKit          3D

 21 24  0  0  0  0  0  0  0  0999 V2000
  -21.6115  -38.1007  -32.5704 C   0  0  0  0  0  0  0  0  0  0  0  0
  -22.7105  -37.8193  -33.3569 C   0  0  0  0  0  0  0  0  0  0  0  0
  -23.8373  -37.3446  -32.7147 C   0  0  0  0  0  0  0  0  0  0  0  0
  -23.8649  -37.1600  -31.3548 C   0  0  0  0  0  0  0  0  0  0  0  0
  -22.7507  -37.4474  -30.5681 C   0  0  0  0  0  0  0  0  0  0  0  0
  -21.6346  -37.9173  -31.2016 C   0  0  0  0  0  0  0  0  0  0  0  0
  -20.6875  -38.1183  -30.1689 C   0  0  0  0  0  0  0  0  0  0  0  0
  -21.2296  -37.7771  -28.9700 C   0  0  0  0  0  0  0  0  0  0  0  0
  -20.6877  -37.7227  -27.5994 C   0  0  0  0  0  0  0  0  0  0  0  0
  -21.2502  -37.0747  -26.5468 C   0  0  0  0  0  0  0  0  0  0  0  0
  -20.7276  -37.1174  -25.2611 C   0  0  0  0  0  0  0  0  0  0  0  0
  -19.6007  -37.8325  -25.0175 C   0  0  0  0  0  0  0  0  0  0  0  0
  -18.9900  -38.5076  -26.0502 C   0  0  0  0  0  0  0  0  0  0  0  0
  -19.5305  -38.4470  -27.3085 C   0  0  0  0  0  0  0  0  0  0  0  0
  -19.3430  -38.5633  -30.4824 C   0  0  0  0  0  0  0  0  0  0  0  0
  -19.5405  -40.8851  -31.5108 C   0  0  0  0  0  0  0  0  0  0  0  0
  -18.7320  -42.0400  -29.8703 C   0  0  0  0  0  0  0  0  0  0  0  0
  -18.7207  -40.7146  -29.5237 C   0  0  0  0  0  0  0  0  0  0  0  0
  -22.5124  -37.3642  -29.2519 N   0  0  0  0  0  0  0  0  0  0  0  0
  -19.2311  -40.0140  -30.5673 N   0  0  0  0  0  0  0  0  0  0  0  0
  -19.2467  -42.1334  -31.1140 N   0  0  0  0  0  0  0  0  0  0  0  0
  1  2  2  0
  6  1  1  0
  2  3  1  0
  4  3  2  0
  5  4  1  0
  6  5  2  0
 19  5  1  0
  7  6  1  0
  7  8  2  0
 15  7  1  0
  8  9  1  0
  8 19  1  0
  9 10  2  0
  9 14  1  0
 10 11  1  0
 11 12  2  0
 13 12  1  0
 14 13  2  0
 20 15  1  0
 16 20  1  0
 21 16  2  0
 17 18  2  0
 17 21  1  0
 18 20  1  0
M  END
$$$$
