
     RDKit          3D

 25 27  0  0  0  0  0  0  0  0999 V2000
   16.8171   21.8226   19.8702 C   0  0  0  0  0  0  0  0  0  0  0  0
   17.3894   21.9935   18.5458 C   0  0  0  0  0  0  0  0  0  0  0  0
   17.2236   22.8440   16.2827 C   0  0  0  0  0  0  0  0  0  0  0  0
   16.7121   22.6653   17.5443 C   0  0  0  0  0  0  0  0  0  0  0  0
   18.6313   21.4738   18.2874 C   0  0  0  0  0  0  0  0  0  0  0  0
   19.1720   21.6360   17.0322 C   0  0  0  0  0  0  0  0  0  0  0  0
   18.4787   22.3101   16.0468 C   0  0  0  0  0  0  0  0  0  0  0  0
   16.5093   23.5513   15.2319 C   0  0  0  0  0  0  0  0  0  0  0  0
   15.0743   24.9505   13.2570 C   0  0  0  0  0  0  0  0  0  0  0  0
   16.1835   24.2045   12.9215 C   0  0  0  0  0  0  0  0  0  0  0  0
   16.8927   23.5109   13.9089 C   0  0  0  0  0  0  0  0  0  0  0  0
   14.6797   24.9994   14.5770 C   0  0  0  0  0  0  0  0  0  0  0  0
   15.3961   24.3059   15.5354 C   0  0  0  0  0  0  0  0  0  0  0  0
   17.4983   21.1856   20.7362 O   0  0  0  0  0  0  0  0  0  0  0  0
   15.5609   22.3016   20.2944 N   0  0  0  0  0  0  0  0  0  0  0  0
   15.1246   22.1618   21.6380 N   0  0  0  0  0  0  0  0  0  0  0  0
   14.6365   23.6915   22.2218 S   0  0  1  0  0  6  0  0  0  0  0  0
   13.9051   24.4083   21.1040 O   0  0  0  0  0  0  0  0  0  0  0  0
   13.6524   23.5604   23.3462 O   0  0  0  0  0  0  0  0  0  0  0  0
   16.0425   24.5893   22.7208 C   0  0  0  0  0  0  0  0  0  0  0  0
   16.7382   24.2226   23.8540 C   0  0  0  0  0  0  0  0  0  0  0  0
   17.8466   24.9031   24.2842 C   0  0  0  0  0  0  0  0  0  0  0  0
   18.2855   25.9898   23.5660 C   0  0  0  0  0  0  0  0  0  0  0  0
   17.6190   26.4005   22.4159 C   0  0  0  0  0  0  0  0  0  0  0  0
   16.4970   25.6776   22.0174 C   0  0  0  0  0  0  0  0  0  0  0  0
  2  1  1  0
  1 14  2  0
  1 15  1  0
  4  2  2  0
  2  5  1  0
  3  4  1  0
  3  7  2  0
  8  3  1  0
  6  5  2  0
  7  6  1  0
 11  8  2  0
  8 13  1  0
 10  9  2  0
  9 12  1  0
 10 11  1  0
 12 13  2  0
 15 16  1  0
 17 16  1  6
 17 18  2  0
 17 19  2  0
 17 20  1  0
 20 21  2  0
 20 25  1  0
 21 22  1  0
 22 23  2  0
 23 24  1  0
 24 25  2  0
M  END
$$$$
