
     RDKit          3D

 25 27  0  0  0  0  0  0  0  0999 V2000
   17.1149   24.9090   22.6588 C   0  0  0  0  0  0  0  0  0  0  0  0
   18.1222   25.2152   23.6600 C   0  0  0  0  0  0  0  0  0  0  0  0
   20.4449   25.5477   24.2655 C   0  0  0  0  0  0  0  0  0  0  0  0
   19.4680   25.2621   23.3440 C   0  0  0  0  0  0  0  0  0  0  0  0
   17.7238   25.4624   24.9482 C   0  0  0  0  0  0  0  0  0  0  0  0
   18.6792   25.7519   25.8957 C   0  0  0  0  0  0  0  0  0  0  0  0
   20.0174   25.7935   25.5588 C   0  0  0  0  0  0  0  0  0  0  0  0
   21.8591   25.5968   23.9301 C   0  0  0  0  0  0  0  0  0  0  0  0
   24.6120   25.6455   23.3500 C   0  0  0  0  0  0  0  0  0  0  0  0
   23.7077   26.2603   22.5111 C   0  0  0  0  0  0  0  0  0  0  0  0
   22.3397   26.2323   22.8058 C   0  0  0  0  0  0  0  0  0  0  0  0
   24.1447   25.0062   24.4785 C   0  0  0  0  0  0  0  0  0  0  0  0
   22.7885   24.9915   24.7491 C   0  0  0  0  0  0  0  0  0  0  0  0
   15.8989   25.1564   22.9417 O   0  0  0  0  0  0  0  0  0  0  0  0
   17.3586   24.3559   21.3853 N   0  0  0  0  0  0  0  0  0  0  0  0
   16.3102   24.1405   20.4528 N   0  0  0  0  0  0  0  0  0  0  0  0
   16.1955   22.4671   20.1280 S   0  0  1  0  0  6  0  0  0  0  0  0
   17.5927   21.8816   20.1856 O   0  0  0  0  0  0  0  0  0  0  0  0
   15.4027   21.7568   21.1848 O   0  0  0  0  0  0  0  0  0  0  0  0
   15.4892   22.2364   18.5533 C   0  0  0  0  0  0  0  0  0  0  0  0
   14.2467   22.7603   18.2628 C   0  0  0  0  0  0  0  0  0  0  0  0
   13.6529   22.5992   17.0388 C   0  0  0  0  0  0  0  0  0  0  0  0
   14.3131   21.8920   16.0623 C   0  0  0  0  0  0  0  0  0  0  0  0
   15.5684   21.3433   16.3050 C   0  0  0  0  0  0  0  0  0  0  0  0
   16.1322   21.5332   17.5644 C   0  0  0  0  0  0  0  0  0  0  0  0
  2  1  1  0
  1 14  2  0
  1 15  1  0
  4  2  2  0
  2  5  1  0
  3  4  1  0
  3  7  2  0
  8  3  1  0
  6  5  2  0
  7  6  1  0
 11  8  2  0
  8 13  1  0
 10  9  2  0
  9 12  1  0
 10 11  1  0
 12 13  2  0
 15 16  1  0
 17 16  1  1
 17 18  2  0
 17 19  2  0
 17 20  1  0
 20 21  2  0
 20 25  1  0
 21 22  1  0
 22 23  2  0
 23 24  1  0
 24 25  2  0
M  END
$$$$
