
     RDKit          3D

 25 27  0  0  0  0  0  0  0  0999 V2000
    8.7586   19.5828   18.0134 C   0  0  0  0  0  0  0  0  0  0  0  0
    7.9074   18.9201   17.0402 C   0  0  0  0  0  0  0  0  0  0  0  0
    7.3691   16.9684   15.7083 C   0  0  0  0  0  0  0  0  0  0  0  0
    8.1528   17.6234   16.6259 C   0  0  0  0  0  0  0  0  0  0  0  0
    6.8364   19.6012   16.5223 C   0  0  0  0  0  0  0  0  0  0  0  0
    6.0313   18.9723   15.6000 C   0  0  0  0  0  0  0  0  0  0  0  0
    6.2942   17.6773   15.2003 C   0  0  0  0  0  0  0  0  0  0  0  0
    7.6294   15.6048   15.2751 C   0  0  0  0  0  0  0  0  0  0  0  0
    8.1492   12.9454   14.5172 C   0  0  0  0  0  0  0  0  0  0  0  0
    7.7650   13.8794   13.5794 C   0  0  0  0  0  0  0  0  0  0  0  0
    7.5080   15.2006   13.9634 C   0  0  0  0  0  0  0  0  0  0  0  0
    8.2747   13.3365   15.8332 C   0  0  0  0  0  0  0  0  0  0  0  0
    8.0154   14.6475   16.1891 C   0  0  0  0  0  0  0  0  0  0  0  0
    8.7163   20.8533   18.0749 O   0  0  0  0  0  0  0  0  0  0  0  0
    9.6398   18.9442   18.9094 N   0  0  0  0  0  0  0  0  0  0  0  0
   10.4567   19.6825   19.8053 N   0  0  0  0  0  0  0  0  0  0  0  0
   12.0747   19.1612   19.6342 S   0  0  1  0  0  6  0  0  0  0  0  0
   12.8248   19.5388   20.8964 O   0  0  0  0  0  0  0  0  0  0  0  0
   12.1611   17.6674   19.5297 O   0  0  0  0  0  0  0  0  0  0  0  0
   12.7792   19.9290   18.2392 C   0  0  0  0  0  0  0  0  0  0  0  0
   13.0837   19.1893   17.1154 C   0  0  0  0  0  0  0  0  0  0  0  0
   13.6421   19.7523   15.9983 C   0  0  0  0  0  0  0  0  0  0  0  0
   13.9107   21.1004   15.9910 C   0  0  0  0  0  0  0  0  0  0  0  0
   13.6226   21.8906   17.0992 C   0  0  0  0  0  0  0  0  0  0  0  0
   13.0553   21.2739   18.2119 C   0  0  0  0  0  0  0  0  0  0  0  0
  2  1  1  0
  1 14  2  0
  1 15  1  0
  4  2  2  0
  2  5  1  0
  3  4  1  0
  3  7  2  0
  8  3  1  0
  6  5  2  0
  7  6  1  0
 11  8  2  0
  8 13  1  0
 10  9  2  0
  9 12  1  0
 10 11  1  0
 12 13  2  0
 15 16  1  0
 17 16  1  1
 17 18  2  0
 17 19  2  0
 17 20  1  0
 20 21  2  0
 20 25  1  0
 21 22  1  0
 22 23  2  0
 23 24  1  0
 24 25  2  0
M  END
$$$$
