
     RDKit          3D

 25 27  0  0  0  0  0  0  0  0999 V2000
   14.9776   22.7244   19.2003 C   0  0  0  0  0  0  0  0  0  0  0  0
   15.9069   22.3780   18.1386 C   0  0  0  0  0  0  0  0  0  0  0  0
   18.0412   21.4745   17.4310 C   0  0  0  0  0  0  0  0  0  0  0  0
   17.1400   21.8131   18.4099 C   0  0  0  0  0  0  0  0  0  0  0  0
   15.5483   22.6195   16.8378 C   0  0  0  0  0  0  0  0  0  0  0  0
   16.4299   22.2913   15.8331 C   0  0  0  0  0  0  0  0  0  0  0  0
   17.6559   21.7282   16.1260 C   0  0  0  0  0  0  0  0  0  0  0  0
   19.3368   20.8801   17.7193 C   0  0  0  0  0  0  0  0  0  0  0  0
   21.8778   19.7791   18.2173 C   0  0  0  0  0  0  0  0  0  0  0  0
   20.7840   19.3801   18.9547 C   0  0  0  0  0  0  0  0  0  0  0  0
   19.5229   19.9319   18.7016 C   0  0  0  0  0  0  0  0  0  0  0  0
   21.7057   20.7270   17.2312 C   0  0  0  0  0  0  0  0  0  0  0  0
   20.4501   21.2583   16.9992 C   0  0  0  0  0  0  0  0  0  0  0  0
   13.9165   23.3512   18.8826 O   0  0  0  0  0  0  0  0  0  0  0  0
   15.1408   22.4286   20.5689 N   0  0  0  0  0  0  0  0  0  0  0  0
   14.2050   22.8653   21.5429 N   0  0  0  0  0  0  0  0  0  0  0  0
   14.6671   24.4140   22.0970 S   0  0  1  0  0  6  0  0  0  0  0  0
   14.5819   25.3749   20.9275 O   0  0  0  0  0  0  0  0  0  0  0  0
   13.7137   24.9328   23.1322 O   0  0  0  0  0  0  0  0  0  0  0  0
   16.2905   24.3378   22.7220 C   0  0  0  0  0  0  0  0  0  0  0  0
   16.9751   25.4955   23.0279 C   0  0  0  0  0  0  0  0  0  0  0  0
   18.2544   25.4812   23.5178 C   0  0  0  0  0  0  0  0  0  0  0  0
   18.8828   24.2744   23.7134 C   0  0  0  0  0  0  0  0  0  0  0  0
   18.2359   23.0781   23.4203 C   0  0  0  0  0  0  0  0  0  0  0  0
   16.9359   23.1426   22.9243 C   0  0  0  0  0  0  0  0  0  0  0  0
  2  1  1  0
  1 14  2  0
  1 15  1  0
  4  2  2  0
  2  5  1  0
  3  4  1  0
  3  7  2  0
  8  3  1  0
  6  5  2  0
  7  6  1  0
 11  8  2  0
  8 13  1  0
 10  9  2  0
  9 12  1  0
 10 11  1  0
 12 13  2  0
 15 16  1  0
 17 16  1  6
 17 18  2  0
 17 19  2  0
 17 20  1  0
 20 21  2  0
 20 25  1  0
 21 22  1  0
 22 23  2  0
 23 24  1  0
 24 25  2  0
M  END
$$$$
