
     RDKit          3D

 25 27  0  0  0  0  0  0  0  0999 V2000
   18.2942   27.5994   21.5963 C   0  0  0  0  0  0  0  0  0  0  0  0
   19.6599   28.0947   21.6215 C   0  0  0  0  0  0  0  0  0  0  0  0
   21.9035   28.0153   22.5337 C   0  0  0  0  0  0  0  0  0  0  0  0
   20.6056   27.5702   22.4839 C   0  0  0  0  0  0  0  0  0  0  0  0
   20.0145   29.1070   20.7680 C   0  0  0  0  0  0  0  0  0  0  0  0
   21.3084   29.5755   20.7935 C   0  0  0  0  0  0  0  0  0  0  0  0
   22.2368   29.0379   21.6624 C   0  0  0  0  0  0  0  0  0  0  0  0
   22.8958   27.4615   23.4412 C   0  0  0  0  0  0  0  0  0  0  0  0
   24.8421   26.4686   25.2141 C   0  0  0  0  0  0  0  0  0  0  0  0
   23.9811   25.6099   24.5657 C   0  0  0  0  0  0  0  0  0  0  0  0
   23.0153   26.1105   23.6850 C   0  0  0  0  0  0  0  0  0  0  0  0
   24.7336   27.8228   24.9792 C   0  0  0  0  0  0  0  0  0  0  0  0
   23.7715   28.2944   24.1048 C   0  0  0  0  0  0  0  0  0  0  0  0
   17.5736   27.8895   20.5882 O   0  0  0  0  0  0  0  0  0  0  0  0
   17.6817   26.8168   22.5960 N   0  0  0  0  0  0  0  0  0  0  0  0
   16.3737   26.2897   22.4334 N   0  0  0  0  0  0  0  0  0  0  0  0
   16.2836   24.7808   23.2296 S   0  0  1  0  0  6  0  0  0  0  0  0
   17.6605   24.4551   23.7739 O   0  0  0  0  0  0  0  0  0  0  0  0
   15.3700   24.8418   24.4178 O   0  0  0  0  0  0  0  0  0  0  0  0
   15.7593   23.5663   22.0975 C   0  0  0  0  0  0  0  0  0  0  0  0
   16.6841   22.8099   21.4081 C   0  0  0  0  0  0  0  0  0  0  0  0
   16.3153   21.8472   20.5059 C   0  0  0  0  0  0  0  0  0  0  0  0
   14.9789   21.6226   20.2754 C   0  0  0  0  0  0  0  0  0  0  0  0
   14.0065   22.3587   20.9449 C   0  0  0  0  0  0  0  0  0  0  0  0
   14.4294   23.3267   21.8529 C   0  0  0  0  0  0  0  0  0  0  0  0
  2  1  1  0
  1 14  2  0
  1 15  1  0
  4  2  2  0
  2  5  1  0
  3  4  1  0
  3  7  2  0
  8  3  1  0
  6  5  2  0
  7  6  1  0
 11  8  2  0
  8 13  1  0
 10  9  2  0
  9 12  1  0
 10 11  1  0
 12 13  2  0
 15 16  1  0
 17 16  1  6
 17 18  2  0
 17 19  2  0
 17 20  1  0
 20 21  2  0
 20 25  1  0
 21 22  1  0
 22 23  2  0
 23 24  1  0
 24 25  2  0
M  END
$$$$
