
     RDKit          3D

 25 27  0  0  0  0  0  0  0  0999 V2000
   17.2322   22.8738   22.0097 C   0  0  0  0  0  0  0  0  0  0  0  0
   18.1685   22.5428   20.9492 C   0  0  0  0  0  0  0  0  0  0  0  0
   18.5952   21.9165   18.6474 C   0  0  0  0  0  0  0  0  0  0  0  0
   17.7377   22.2339   19.6716 C   0  0  0  0  0  0  0  0  0  0  0  0
   19.5109   22.5374   21.2269 C   0  0  0  0  0  0  0  0  0  0  0  0
   20.3967   22.2231   20.2214 C   0  0  0  0  0  0  0  0  0  0  0  0
   19.9452   21.9178   18.9530 C   0  0  0  0  0  0  0  0  0  0  0  0
   18.1392   21.5927   17.3050 C   0  0  0  0  0  0  0  0  0  0  0  0
   17.1858   20.9348   14.7408 C   0  0  0  0  0  0  0  0  0  0  0  0
   18.4035   21.5611   14.8967 C   0  0  0  0  0  0  0  0  0  0  0  0
   18.8717   21.8854   16.1752 C   0  0  0  0  0  0  0  0  0  0  0  0
   16.4426   20.6360   15.8628 C   0  0  0  0  0  0  0  0  0  0  0  0
   16.9257   20.9662   17.1160 C   0  0  0  0  0  0  0  0  0  0  0  0
   17.6808   23.4864   23.0310 O   0  0  0  0  0  0  0  0  0  0  0  0
   15.8541   22.5770   22.0161 N   0  0  0  0  0  0  0  0  0  0  0  0
   15.0175   22.9432   23.1029 N   0  0  0  0  0  0  0  0  0  0  0  0
   13.5819   23.6341   22.4860 S   0  0  1  0  0  6  0  0  0  0  0  0
   13.1608   22.8327   21.2700 O   0  0  0  0  0  0  0  0  0  0  0  0
   12.4541   23.5232   23.4686 O   0  0  0  0  0  0  0  0  0  0  0  0
   13.8825   25.2959   22.0617 C   0  0  0  0  0  0  0  0  0  0  0  0
   13.8924   26.2733   23.0350 C   0  0  0  0  0  0  0  0  0  0  0  0
   14.1207   27.5925   22.7446 C   0  0  0  0  0  0  0  0  0  0  0  0
   14.3484   27.9611   21.4400 C   0  0  0  0  0  0  0  0  0  0  0  0
   14.3488   27.0136   20.4213 C   0  0  0  0  0  0  0  0  0  0  0  0
   14.1120   25.6846   20.7648 C   0  0  0  0  0  0  0  0  0  0  0  0
  2  1  1  0
  1 14  2  0
  1 15  1  0
  4  2  2  0
  2  5  1  0
  3  4  1  0
  3  7  2  0
  8  3  1  0
  6  5  2  0
  7  6  1  0
 11  8  2  0
  8 13  1  0
 10  9  2  0
  9 12  1  0
 10 11  1  0
 12 13  2  0
 15 16  1  0
 17 16  1  1
 17 18  2  0
 17 19  2  0
 17 20  1  0
 20 21  2  0
 20 25  1  0
 21 22  1  0
 22 23  2  0
 23 24  1  0
 24 25  2  0
M  END
$$$$
