
     RDKit          3D

 25 27  0  0  0  0  0  0  0  0999 V2000
   17.8502   24.0746   22.5646 C   0  0  0  0  0  0  0  0  0  0  0  0
   17.3373   25.1571   23.3869 C   0  0  0  0  0  0  0  0  0  0  0  0
   15.5159   26.6195   24.0323 C   0  0  0  0  0  0  0  0  0  0  0  0
   16.0318   25.5995   23.2716 C   0  0  0  0  0  0  0  0  0  0  0  0
   18.1720   25.7516   24.2974 C   0  0  0  0  0  0  0  0  0  0  0  0
   17.6849   26.7773   25.0753 C   0  0  0  0  0  0  0  0  0  0  0  0
   16.3783   27.2034   24.9440 C   0  0  0  0  0  0  0  0  0  0  0  0
   14.1428   27.0821   23.9092 C   0  0  0  0  0  0  0  0  0  0  0  0
   11.4842   27.9904   23.7545 C   0  0  0  0  0  0  0  0  0  0  0  0
   12.1624   27.6101   22.6167 C   0  0  0  0  0  0  0  0  0  0  0  0
   13.4848   27.1591   22.7009 C   0  0  0  0  0  0  0  0  0  0  0  0
   12.1306   27.9182   24.9700 C   0  0  0  0  0  0  0  0  0  0  0  0
   13.4374   27.4695   25.0287 C   0  0  0  0  0  0  0  0  0  0  0  0
   19.0938   23.8128   22.6320 O   0  0  0  0  0  0  0  0  0  0  0  0
   17.0913   23.2747   21.6863 N   0  0  0  0  0  0  0  0  0  0  0  0
   17.5793   22.0345   21.1974 N   0  0  0  0  0  0  0  0  0  0  0  0
   16.3403   21.2663   20.3066 S   0  0  1  0  0  6  0  0  0  0  0  0
   16.7047   19.8017   20.1639 O   0  0  0  0  0  0  0  0  0  0  0  0
   15.0339   21.3004   21.0429 O   0  0  0  0  0  0  0  0  0  0  0  0
   16.2006   22.0270   18.7465 C   0  0  0  0  0  0  0  0  0  0  0  0
   17.0457   21.6676   17.7173 C   0  0  0  0  0  0  0  0  0  0  0  0
   16.9728   22.2431   16.4762 C   0  0  0  0  0  0  0  0  0  0  0  0
   16.0271   23.2129   16.2425 C   0  0  0  0  0  0  0  0  0  0  0  0
   15.1511   23.6111   17.2473 C   0  0  0  0  0  0  0  0  0  0  0  0
   15.2629   22.9977   18.4928 C   0  0  0  0  0  0  0  0  0  0  0  0
  2  1  1  0
  1 14  2  0
  1 15  1  0
  4  2  2  0
  2  5  1  0
  3  4  1  0
  3  7  2  0
  8  3  1  0
  6  5  2  0
  7  6  1  0
 11  8  2  0
  8 13  1  0
 10  9  2  0
  9 12  1  0
 10 11  1  0
 12 13  2  0
 15 16  1  0
 17 16  1  1
 17 18  2  0
 17 19  2  0
 17 20  1  0
 20 21  2  0
 20 25  1  0
 21 22  1  0
 22 23  2  0
 23 24  1  0
 24 25  2  0
M  END
$$$$
