
     RDKit          3D

 25 27  0  0  0  0  0  0  0  0999 V2000
   16.6686   24.8611   22.8115 C   0  0  0  0  0  0  0  0  0  0  0  0
   17.6206   23.9821   22.1545 C   0  0  0  0  0  0  0  0  0  0  0  0
   19.9061   23.2653   21.7864 C   0  0  0  0  0  0  0  0  0  0  0  0
   18.9801   24.0793   22.3905 C   0  0  0  0  0  0  0  0  0  0  0  0
   17.1551   23.0351   21.2795 C   0  0  0  0  0  0  0  0  0  0  0  0
   18.0582   22.2034   20.6574 C   0  0  0  0  0  0  0  0  0  0  0  0
   19.4112   22.3175   20.9073 C   0  0  0  0  0  0  0  0  0  0  0  0
   21.3348   23.3696   22.0370 C   0  0  0  0  0  0  0  0  0  0  0  0
   24.1130   23.5613   22.4392 C   0  0  0  0  0  0  0  0  0  0  0  0
   23.2409   23.6858   23.4990 C   0  0  0  0  0  0  0  0  0  0  0  0
   21.8600   23.5893   23.2919 C   0  0  0  0  0  0  0  0  0  0  0  0
   23.6009   23.3411   21.1783 C   0  0  0  0  0  0  0  0  0  0  0  0
   22.2328   23.2495   20.9978 C   0  0  0  0  0  0  0  0  0  0  0  0
   15.5065   24.4039   23.0572 O   0  0  0  0  0  0  0  0  0  0  0  0
   16.9120   26.1915   23.2089 N   0  0  0  0  0  0  0  0  0  0  0  0
   16.1304   26.8256   24.2100 N   0  0  0  0  0  0  0  0  0  0  0  0
   15.6326   28.3555   23.6352 S   0  0  1  0  0  6  0  0  0  0  0  0
   15.7741   29.3512   24.7696 O   0  0  0  0  0  0  0  0  0  0  0  0
   16.5283   28.8462   22.5366 O   0  0  0  0  0  0  0  0  0  0  0  0
   13.9793   28.2554   23.0984 C   0  0  0  0  0  0  0  0  0  0  0  0
   13.6523   28.5435   21.7897 C   0  0  0  0  0  0  0  0  0  0  0  0
   12.3645   28.4810   21.3267 C   0  0  0  0  0  0  0  0  0  0  0  0
   11.3590   28.1195   22.1914 C   0  0  0  0  0  0  0  0  0  0  0  0
   11.6363   27.8191   23.5213 C   0  0  0  0  0  0  0  0  0  0  0  0
   12.9605   27.8963   23.9463 C   0  0  0  0  0  0  0  0  0  0  0  0
  2  1  1  0
  1 14  2  0
  1 15  1  0
  4  2  2  0
  2  5  1  0
  3  4  1  0
  3  7  2  0
  8  3  1  0
  6  5  2  0
  7  6  1  0
 11  8  2  0
  8 13  1  0
 10  9  2  0
  9 12  1  0
 10 11  1  0
 12 13  2  0
 15 16  1  0
 17 16  1  1
 17 18  2  0
 17 19  2  0
 17 20  1  0
 20 21  2  0
 20 25  1  0
 21 22  1  0
 22 23  2  0
 23 24  1  0
 24 25  2  0
M  END
$$$$
