
     RDKit          3D

 25 27  0  0  0  0  0  0  0  0999 V2000
   17.6984   25.8943   21.7848 C   0  0  0  0  0  0  0  0  0  0  0  0
   18.7419   26.4937   22.5990 C   0  0  0  0  0  0  0  0  0  0  0  0
   20.9236   26.3593   23.6451 C   0  0  0  0  0  0  0  0  0  0  0  0
   19.9184   25.8225   22.8793 C   0  0  0  0  0  0  0  0  0  0  0  0
   18.5505   27.7553   23.0998 C   0  0  0  0  0  0  0  0  0  0  0  0
   19.5396   28.3215   23.8713 C   0  0  0  0  0  0  0  0  0  0  0  0
   20.7065   27.6340   24.1390 C   0  0  0  0  0  0  0  0  0  0  0  0
   22.1598   25.6514   23.9377 C   0  0  0  0  0  0  0  0  0  0  0  0
   24.5519   24.3168   24.5806 C   0  0  0  0  0  0  0  0  0  0  0  0
   23.9503   24.1263   23.3555 C   0  0  0  0  0  0  0  0  0  0  0  0
   22.7604   24.7934   23.0422 C   0  0  0  0  0  0  0  0  0  0  0  0
   23.9617   25.1727   25.4860 C   0  0  0  0  0  0  0  0  0  0  0  0
   22.7859   25.8209   25.1543 C   0  0  0  0  0  0  0  0  0  0  0  0
   16.9013   26.6729   21.1698 O   0  0  0  0  0  0  0  0  0  0  0  0
   17.4809   24.5128   21.6081 N   0  0  0  0  0  0  0  0  0  0  0  0
   16.3831   24.0212   20.8542 N   0  0  0  0  0  0  0  0  0  0  0  0
   15.2920   23.2409   21.9122 S   0  0  1  0  0  6  0  0  0  0  0  0
   14.3662   22.3778   21.0777 O   0  0  0  0  0  0  0  0  0  0  0  0
   16.0054   22.3062   22.8435 O   0  0  0  0  0  0  0  0  0  0  0  0
   14.3935   24.4421   22.7963 C   0  0  0  0  0  0  0  0  0  0  0  0
   13.3220   25.0829   22.2100 C   0  0  0  0  0  0  0  0  0  0  0  0
   12.5906   26.0363   22.8679 C   0  0  0  0  0  0  0  0  0  0  0  0
   12.9316   26.3703   24.1570 C   0  0  0  0  0  0  0  0  0  0  0  0
   14.0040   25.7533   24.7932 C   0  0  0  0  0  0  0  0  0  0  0  0
   14.7180   24.7899   24.0845 C   0  0  0  0  0  0  0  0  0  0  0  0
  2  1  1  0
  1 14  2  0
  1 15  1  0
  4  2  2  0
  2  5  1  0
  3  4  1  0
  3  7  2  0
  8  3  1  0
  6  5  2  0
  7  6  1  0
 11  8  2  0
  8 13  1  0
 10  9  2  0
  9 12  1  0
 10 11  1  0
 12 13  2  0
 15 16  1  0
 17 16  1  6
 17 18  2  0
 17 19  2  0
 17 20  1  0
 20 21  2  0
 20 25  1  0
 21 22  1  0
 22 23  2  0
 23 24  1  0
 24 25  2  0
M  END
$$$$
