
     RDKit          3D

 25 27  0  0  0  0  0  0  0  0999 V2000
   18.6626   26.6982   21.1359 C   0  0  0  0  0  0  0  0  0  0  0  0
   19.9460   27.3368   21.3726 C   0  0  0  0  0  0  0  0  0  0  0  0
   22.0380   27.4539   22.5901 C   0  0  0  0  0  0  0  0  0  0  0  0
   20.8188   26.8739   22.3406 C   0  0  0  0  0  0  0  0  0  0  0  0
   20.2955   28.4249   20.6155 C   0  0  0  0  0  0  0  0  0  0  0  0
   21.5114   29.0291   20.8413 C   0  0  0  0  0  0  0  0  0  0  0  0
   22.3677   28.5507   21.8128 C   0  0  0  0  0  0  0  0  0  0  0  0
   22.9537   26.9645   23.6083 C   0  0  0  0  0  0  0  0  0  0  0  0
   24.7893   26.0266   25.5235 C   0  0  0  0  0  0  0  0  0  0  0  0
   23.4537   26.1566   25.8372 C   0  0  0  0  0  0  0  0  0  0  0  0
   22.5460   26.6237   24.8797 C   0  0  0  0  0  0  0  0  0  0  0  0
   25.2108   26.3640   24.2550 C   0  0  0  0  0  0  0  0  0  0  0  0
   24.2957   26.8235   23.3254 C   0  0  0  0  0  0  0  0  0  0  0  0
   17.8404   27.2825   20.3598 O   0  0  0  0  0  0  0  0  0  0  0  0
   18.2343   25.4756   21.6916 N   0  0  0  0  0  0  0  0  0  0  0  0
   17.0540   24.8260   21.2442 N   0  0  0  0  0  0  0  0  0  0  0  0
   16.1494   24.3265   22.6047 S   0  0  1  0  0  6  0  0  0  0  0  0
   16.5094   22.8844   22.9033 O   0  0  0  0  0  0  0  0  0  0  0  0
   16.5215   25.1103   23.8282 O   0  0  0  0  0  0  0  0  0  0  0  0
   14.4514   24.4831   22.2523 C   0  0  0  0  0  0  0  0  0  0  0  0
   13.9088   25.7196   21.9708 C   0  0  0  0  0  0  0  0  0  0  0  0
   12.5781   25.8882   21.6921 C   0  0  0  0  0  0  0  0  0  0  0  0
   11.7500   24.7911   21.6915 C   0  0  0  0  0  0  0  0  0  0  0  0
   12.2480   23.5220   21.9693 C   0  0  0  0  0  0  0  0  0  0  0  0
   13.6075   23.3998   22.2468 C   0  0  0  0  0  0  0  0  0  0  0  0
  2  1  1  0
  1 14  2  0
  1 15  1  0
  4  2  2  0
  2  5  1  0
  3  4  1  0
  3  7  2  0
  8  3  1  0
  6  5  2  0
  7  6  1  0
 11  8  2  0
  8 13  1  0
 10  9  2  0
  9 12  1  0
 10 11  1  0
 12 13  2  0
 15 16  1  0
 17 16  1  6
 17 18  2  0
 17 19  2  0
 17 20  1  0
 20 21  2  0
 20 25  1  0
 21 22  1  0
 22 23  2  0
 23 24  1  0
 24 25  2  0
M  END
$$$$
