
     RDKit          3D

 25 27  0  0  0  0  0  0  0  0999 V2000
   14.9568   23.1165   19.3007 C   0  0  0  0  0  0  0  0  0  0  0  0
   15.8896   22.5714   18.3293 C   0  0  0  0  0  0  0  0  0  0  0  0
   18.0711   21.6595   17.7984 C   0  0  0  0  0  0  0  0  0  0  0  0
   17.1654   22.1776   18.6907 C   0  0  0  0  0  0  0  0  0  0  0  0
   15.4908   22.4469   17.0237 C   0  0  0  0  0  0  0  0  0  0  0  0
   16.3758   21.9308   16.1045 C   0  0  0  0  0  0  0  0  0  0  0  0
   17.6448   21.5439   16.4866 C   0  0  0  0  0  0  0  0  0  0  0  0
   19.4116   21.2458   18.1815 C   0  0  0  0  0  0  0  0  0  0  0  0
   21.9742   20.4169   18.9959 C   0  0  0  0  0  0  0  0  0  0  0  0
   21.7840   20.9931   17.7586 C   0  0  0  0  0  0  0  0  0  0  0  0
   20.5066   21.4033   17.3598 C   0  0  0  0  0  0  0  0  0  0  0  0
   20.8873   20.2536   19.8281 C   0  0  0  0  0  0  0  0  0  0  0  0
   19.6344   20.6664   19.4125 C   0  0  0  0  0  0  0  0  0  0  0  0
   14.0887   23.9516   18.8898 O   0  0  0  0  0  0  0  0  0  0  0  0
   14.9204   22.8046   20.6750 N   0  0  0  0  0  0  0  0  0  0  0  0
   13.7554   23.0184   21.4575 N   0  0  0  0  0  0  0  0  0  0  0  0
   14.1373   24.0852   22.7361 S   0  0  1  0  0  6  0  0  0  0  0  0
   13.1898   23.7987   23.8844 O   0  0  0  0  0  0  0  0  0  0  0  0
   15.5188   23.8354   23.2642 O   0  0  0  0  0  0  0  0  0  0  0  0
   13.9650   25.7271   22.1828 C   0  0  0  0  0  0  0  0  0  0  0  0
   15.0682   26.5493   22.0844 C   0  0  0  0  0  0  0  0  0  0  0  0
   14.9770   27.8479   21.6577 C   0  0  0  0  0  0  0  0  0  0  0  0
   13.7463   28.3549   21.3145 C   0  0  0  0  0  0  0  0  0  0  0  0
   12.6027   27.5667   21.3962 C   0  0  0  0  0  0  0  0  0  0  0  0
   12.7447   26.2525   21.8354 C   0  0  0  0  0  0  0  0  0  0  0  0
  2  1  1  0
  1 14  2  0
  1 15  1  0
  4  2  2  0
  2  5  1  0
  3  4  1  0
  3  7  2  0
  8  3  1  0
  6  5  2  0
  7  6  1  0
 11  8  2  0
  8 13  1  0
 10  9  2  0
  9 12  1  0
 10 11  1  0
 12 13  2  0
 15 16  1  0
 17 16  1  6
 17 18  2  0
 17 19  2  0
 17 20  1  0
 20 21  2  0
 20 25  1  0
 21 22  1  0
 22 23  2  0
 23 24  1  0
 24 25  2  0
M  END
$$$$
