
     RDKit          3D

 14 13  0  0  0  0  0  0  0  0999 V2000
   69.2637  108.5184  275.9566 C   0  0  0  0  0  0  0  0  0  0  0  0
   70.5527  108.7518  275.3139 C   0  0  0  0  0  0  0  0  0  0  0  0
   71.7229  109.2116  276.1429 C   0  0  0  0  0  0  0  0  0  0  0  0
   60.9002  109.6826  274.0930 C   0  0  0  0  0  0  0  0  0  0  0  0
   60.8134  109.1258  275.4940 C   0  0  0  0  0  0  0  0  0  0  0  0
   62.1138  108.5153  275.9506 C   0  0  0  0  0  0  0  0  0  0  0  0
   64.5057  108.5386  275.6120 C   0  0  0  0  0  0  0  0  0  0  0  0
   65.6693  109.3495  275.1582 C   0  0  0  0  0  0  0  0  0  0  0  0
   66.8541  109.0647  276.0651 C   0  0  0  0  0  0  0  0  0  0  0  0
   68.1711  109.4274  275.4810 C   0  0  0  0  0  0  0  0  0  0  0  0
   60.0945  110.8900  274.0624 N   0  0  0  0  0  4  0  0  0  0  0  0
   63.2593  109.2955  275.6046 N   0  0  0  0  0  4  0  0  0  0  0  0
   70.7110  108.5859  274.1267 O   0  0  0  0  0  0  0  0  0  0  0  0
   71.2004  109.5312  277.8462 S   0  0  0  0  0  0  0  0  0  0  0  0
  1  2  1  0
 10  1  1  0
  2  3  1  0
  2 13  2  0
  3 14  1  0
  5  4  1  0
  4 11  1  0
  6  5  1  0
 12  6  1  0
  8  7  1  0
  7 12  1  0
  9  8  1  0
  9 10  1  0
M  CHG  2  11   1  12   1
M  END
$$$$
