
     RDKit          3D

 14 13  0  0  0  0  0  0  0  0999 V2000
   63.2011  109.6712  275.4789 C   0  0  0  0  0  0  0  0  0  0  0  0
   62.3050  109.5734  274.3315 C   0  0  0  0  0  0  0  0  0  0  0  0
   60.9234  109.0030  274.5154 C   0  0  0  0  0  0  0  0  0  0  0  0
   72.8561  108.2006  276.6714 C   0  0  0  0  0  0  0  0  0  0  0  0
   71.4800  107.6354  276.9306 C   0  0  0  0  0  0  0  0  0  0  0  0
   70.3831  108.5623  276.4723 C   0  0  0  0  0  0  0  0  0  0  0  0
   68.0106  108.8913  276.1570 C   0  0  0  0  0  0  0  0  0  0  0  0
   66.6576  108.3023  276.3573 C   0  0  0  0  0  0  0  0  0  0  0  0
   65.6102  109.3027  275.8995 C   0  0  0  0  0  0  0  0  0  0  0  0
   64.3325  108.6885  275.4551 C   0  0  0  0  0  0  0  0  0  0  0  0
   73.4293  107.4428  275.5736 N   0  0  0  0  0  4  0  0  0  0  0  0
   69.0807  107.9801  276.5456 N   0  0  0  0  0  4  0  0  0  0  0  0
   62.6407  109.9391  273.2290 O   0  0  0  0  0  0  0  0  0  0  0  0
   59.9235  110.0983  275.5532 S   0  0  0  0  0  0  0  0  0  0  0  0
  1  2  1  0
 10  1  1  0
  2  3  1  0
  2 13  2  0
  3 14  1  0
  5  4  1  0
  4 11  1  0
  6  5  1  0
 12  6  1  0
  8  7  1  0
  7 12  1  0
  9  8  1  0
  9 10  1  0
M  CHG  2  11   1  12   1
M  END
$$$$
