
     RDKit          3D

 14 13  0  0  0  0  0  0  0  0999 V2000
   49.8863   80.8763  263.3762 C   0  0  0  0  0  0  0  0  0  0  0  0
   49.3631   81.9233  262.5051 C   0  0  0  0  0  0  0  0  0  0  0  0
   48.8309   83.1954  263.1107 C   0  0  0  0  0  0  0  0  0  0  0  0
   57.3736   77.1634  261.3069 C   0  0  0  0  0  0  0  0  0  0  0  0
   57.0861   76.9528  262.7743 C   0  0  0  0  0  0  0  0  0  0  0  0
   55.6199   76.7319  263.0460 C   0  0  0  0  0  0  0  0  0  0  0  0
   54.1935   78.6817  263.0284 C   0  0  0  0  0  0  0  0  0  0  0  0
   52.8529   78.9048  263.6370 C   0  0  0  0  0  0  0  0  0  0  0  0
   52.0917   79.9174  262.7988 C   0  0  0  0  0  0  0  0  0  0  0  0
   51.3680   80.9450  263.5910 C   0  0  0  0  0  0  0  0  0  0  0  0
   57.5592   78.5896  261.1083 N   0  0  0  0  0  4  0  0  0  0  0  0
   55.0219   77.7761  263.8159 N   0  0  0  0  0  4  0  0  0  0  0  0
   49.3435   81.7997  261.3025 O   0  0  0  0  0  0  0  0  0  0  0  0
   47.0911   82.9946  263.5682 S   0  0  0  0  0  0  0  0  0  0  0  0
  1  2  1  0
 10  1  1  0
  2  3  1  0
  2 13  2  0
  3 14  1  0
  5  4  1  0
  4 11  1  0
  6  5  1  0
 12  6  1  0
  8  7  1  0
  7 12  1  0
  9  8  1  0
  9 10  1  0
M  CHG  2  11   1  12   1
M  END
$$$$
