
     RDKit          3D

 14 13  0  0  0  0  0  0  0  0999 V2000
   64.7005  110.4986  275.2961 C   0  0  0  0  0  0  0  0  0  0  0  0
   64.3777  111.4003  274.1953 C   0  0  0  0  0  0  0  0  0  0  0  0
   64.0267  110.8292  272.8467 C   0  0  0  0  0  0  0  0  0  0  0  0
   64.3529  104.0672  281.1622 C   0  0  0  0  0  0  0  0  0  0  0  0
   63.7781  104.1853  279.7709 C   0  0  0  0  0  0  0  0  0  0  0  0
   64.3681  105.3399  279.0021 C   0  0  0  0  0  0  0  0  0  0  0  0
   63.2196  106.7886  277.4468 C   0  0  0  0  0  0  0  0  0  0  0  0
   63.6106  108.1915  277.1366 C   0  0  0  0  0  0  0  0  0  0  0  0
   64.7608  108.1763  276.1445 C   0  0  0  0  0  0  0  0  0  0  0  0
   64.5549  109.0458  274.9577 C   0  0  0  0  0  0  0  0  0  0  0  0
   63.7270  102.9156  281.7868 N   0  0  0  0  0  4  0  0  0  0  0  0
   63.4645  106.4344  278.8401 N   0  0  0  0  0  4  0  0  0  0  0  0
   64.3837  112.6014  274.3340 O   0  0  0  0  0  0  0  0  0  0  0  0
   62.8125  109.4985  273.0236 S   0  0  0  0  0  0  0  0  0  0  0  0
  1  2  1  0
 10  1  1  0
  2  3  1  0
  2 13  2  0
  3 14  1  0
  5  4  1  0
  4 11  1  0
  6  5  1  0
 12  6  1  0
  8  7  1  0
  7 12  1  0
  9  8  1  0
  9 10  1  0
M  CHG  2  11   1  12   1
M  END
$$$$
