
     RDKit          3D

 14 13  0  0  0  0  0  0  0  0999 V2000
   62.5339  107.9127  276.9031 C   0  0  0  0  0  0  0  0  0  0  0  0
   61.7528  108.2483  275.7173 C   0  0  0  0  0  0  0  0  0  0  0  0
   61.0542  109.5803  275.6413 C   0  0  0  0  0  0  0  0  0  0  0  0
   69.0175  110.6536  273.2652 C   0  0  0  0  0  0  0  0  0  0  0  0
   69.2738  110.2186  274.6884 C   0  0  0  0  0  0  0  0  0  0  0  0
   68.9995  108.7513  274.8983 C   0  0  0  0  0  0  0  0  0  0  0  0
   67.1009  108.0504  276.2175 C   0  0  0  0  0  0  0  0  0  0  0  0
   66.0021  108.9404  276.6845 C   0  0  0  0  0  0  0  0  0  0  0  0
   64.7219  108.5695  275.9557 C   0  0  0  0  0  0  0  0  0  0  0  0
   63.9402  107.4872  276.6074 C   0  0  0  0  0  0  0  0  0  0  0  0
   68.0389  111.7249  273.3156 N   0  0  0  0  0  4  0  0  0  0  0  0
   67.6078  108.4293  274.9037 N   0  0  0  0  0  4  0  0  0  0  0  0
   61.6485  107.4835  274.7867 O   0  0  0  0  0  0  0  0  0  0  0  0
   59.2966  109.3921  276.0306 S   0  0  0  0  0  0  0  0  0  0  0  0
  1  2  1  0
 10  1  1  0
  2  3  1  0
  2 13  2  0
  3 14  1  0
  5  4  1  0
  4 11  1  0
  6  5  1  0
 12  6  1  0
  8  7  1  0
  7 12  1  0
  9  8  1  0
  9 10  1  0
M  CHG  2  11   1  12   1
M  END
$$$$
