
     RDKit          3D

 14 13  0  0  0  0  0  0  0  0999 V2000
   63.6471  109.8909  275.6957 C   0  0  0  0  0  0  0  0  0  0  0  0
   62.6008  110.0252  274.6877 C   0  0  0  0  0  0  0  0  0  0  0  0
   61.1624  109.8077  275.0775 C   0  0  0  0  0  0  0  0  0  0  0  0
   72.7710  108.4142  277.1744 C   0  0  0  0  0  0  0  0  0  0  0  0
   71.5602  108.0439  276.3513 C   0  0  0  0  0  0  0  0  0  0  0  0
   70.2815  108.1173  277.1462 C   0  0  0  0  0  0  0  0  0  0  0  0
   67.8671  108.0390  277.1108 C   0  0  0  0  0  0  0  0  0  0  0  0
   66.6766  107.6552  276.3029 C   0  0  0  0  0  0  0  0  0  0  0  0
   65.9051  108.9101  275.9322 C   0  0  0  0  0  0  0  0  0  0  0  0
   64.4943  108.6649  275.5364 C   0  0  0  0  0  0  0  0  0  0  0  0
   73.2112  109.7217  276.7222 N   0  0  0  0  0  4  0  0  0  0  0  0
   69.1070  107.9744  276.3458 N   0  0  0  0  0  4  0  0  0  0  0  0
   62.8555  110.3079  273.5400 O   0  0  0  0  0  0  0  0  0  0  0  0
   60.4415  108.4660  274.0994 S   0  0  0  0  0  0  0  0  0  0  0  0
  1  2  1  0
 10  1  1  0
  2  3  1  0
  2 13  2  0
  3 14  1  0
  5  4  1  0
  4 11  1  0
  6  5  1  0
 12  6  1  0
  8  7  1  0
  7 12  1  0
  9  8  1  0
  9 10  1  0
M  CHG  2  11   1  12   1
M  END
$$$$
