
     RDKit          3D

 14 13  0  0  0  0  0  0  0  0999 V2000
   63.9356  109.8162  275.5925 C   0  0  0  0  0  0  0  0  0  0  0  0
   62.8275  109.4779  274.7057 C   0  0  0  0  0  0  0  0  0  0  0  0
   61.6570  108.6985  275.2446 C   0  0  0  0  0  0  0  0  0  0  0  0
   73.0146  107.0434  278.0733 C   0  0  0  0  0  0  0  0  0  0  0  0
   72.1895  107.6935  276.9884 C   0  0  0  0  0  0  0  0  0  0  0  0
   70.7406  107.8388  277.3784 C   0  0  0  0  0  0  0  0  0  0  0  0
   68.5061  108.4307  276.6764 C   0  0  0  0  0  0  0  0  0  0  0  0
   67.6844  109.0470  275.5982 C   0  0  0  0  0  0  0  0  0  0  0  0
   66.2161  108.9375  275.9718 C   0  0  0  0  0  0  0  0  0  0  0  0
   65.2896  109.5708  274.9984 C   0  0  0  0  0  0  0  0  0  0  0  0
   73.3807  105.7215  277.5974 N   0  0  0  0  0  4  0  0  0  0  0  0
   69.9221  108.3671  276.3337 N   0  0  0  0  0  4  0  0  0  0  0  0
   62.8204  109.8068  273.5422 O   0  0  0  0  0  0  0  0  0  0  0  0
   60.1599  109.0783  274.3008 S   0  0  0  0  0  0  0  0  0  0  0  0
  1  2  1  0
 10  1  1  0
  2  3  1  0
  2 13  2  0
  3 14  1  0
  5  4  1  0
  4 11  1  0
  6  5  1  0
 12  6  1  0
  8  7  1  0
  7 12  1  0
  9  8  1  0
  9 10  1  0
M  CHG  2  11   1  12   1
M  END
$$$$
