
     RDKit          3D

 14 13  0  0  0  0  0  0  0  0999 V2000
   63.5368  110.0879  275.3208 C   0  0  0  0  0  0  0  0  0  0  0  0
   62.2758  109.8986  274.6118 C   0  0  0  0  0  0  0  0  0  0  0  0
   61.1976  109.0477  275.2294 C   0  0  0  0  0  0  0  0  0  0  0  0
   72.5751  107.4432  277.8695 C   0  0  0  0  0  0  0  0  0  0  0  0
   71.0901  107.2783  278.0884 C   0  0  0  0  0  0  0  0  0  0  0  0
   70.2726  108.0319  277.0705 C   0  0  0  0  0  0  0  0  0  0  0  0
   68.0686  108.5778  276.2455 C   0  0  0  0  0  0  0  0  0  0  0  0
   66.6090  108.5044  276.5314 C   0  0  0  0  0  0  0  0  0  0  0  0
   65.8525  109.2263  275.4296 C   0  0  0  0  0  0  0  0  0  0  0  0
   64.4123  108.8717  275.3444 C   0  0  0  0  0  0  0  0  0  0  0  0
   73.0674  106.1928  277.3201 N   0  0  0  0  0  4  0  0  0  0  0  0
   68.8658  107.8257  277.2075 N   0  0  0  0  0  4  0  0  0  0  0  0
   62.0686  110.4080  273.5350 O   0  0  0  0  0  0  0  0  0  0  0  0
   59.9455  108.6232  273.9930 S   0  0  0  0  0  0  0  0  0  0  0  0
  1  2  1  0
 10  1  1  0
  2  3  1  0
  2 13  2  0
  3 14  1  0
  5  4  1  0
  4 11  1  0
  6  5  1  0
 12  6  1  0
  8  7  1  0
  7 12  1  0
  9  8  1  0
  9 10  1  0
M  CHG  2  11   1  12   1
M  END
$$$$
