
     RDKit          3D

 14 13  0  0  0  0  0  0  0  0999 V2000
   46.9900   82.5882  264.4390 C   0  0  0  0  0  0  0  0  0  0  0  0
   45.8023   83.4317  264.3575 C   0  0  0  0  0  0  0  0  0  0  0  0
   44.6963   83.2553  265.3644 C   0  0  0  0  0  0  0  0  0  0  0  0
   51.8323   80.0589  262.6465 C   0  0  0  0  0  0  0  0  0  0  0  0
   52.4479   79.9480  264.0209 C   0  0  0  0  0  0  0  0  0  0  0  0
   51.8072   78.8651  264.8512 C   0  0  0  0  0  0  0  0  0  0  0  0
   50.5353   80.1908  266.4200 C   0  0  0  0  0  0  0  0  0  0  0  0
   49.8856   81.4772  266.0455 C   0  0  0  0  0  0  0  0  0  0  0  0
   48.3799   81.2790  266.0109 C   0  0  0  0  0  0  0  0  0  0  0  0
   47.6041   82.5291  265.8049 C   0  0  0  0  0  0  0  0  0  0  0  0
   52.5818   81.0701  261.9230 N   0  0  0  0  0  4  0  0  0  0  0  0
   50.5101   79.2149  265.3367 N   0  0  0  0  0  4  0  0  0  0  0  0
   45.6781   84.2745  263.4995 O   0  0  0  0  0  0  0  0  0  0  0  0
   43.4732   82.0688  264.7539 S   0  0  0  0  0  0  0  0  0  0  0  0
  1  2  1  0
 10  1  1  0
  2  3  1  0
  2 13  2  0
  3 14  1  0
  5  4  1  0
  4 11  1  0
  6  5  1  0
 12  6  1  0
  8  7  1  0
  7 12  1  0
  9  8  1  0
  9 10  1  0
M  CHG  2  11   1  12   1
M  END
$$$$
