
     RDKit          3D

 14 13  0  0  0  0  0  0  0  0999 V2000
   63.2454  110.2236  275.2101 C   0  0  0  0  0  0  0  0  0  0  0  0
   62.1337  110.1338  274.2695 C   0  0  0  0  0  0  0  0  0  0  0  0
   60.7195  110.1890  274.7844 C   0  0  0  0  0  0  0  0  0  0  0  0
   72.3904  108.3961  277.2872 C   0  0  0  0  0  0  0  0  0  0  0  0
   71.1851  108.1374  276.4149 C   0  0  0  0  0  0  0  0  0  0  0  0
   69.8907  108.2325  277.1815 C   0  0  0  0  0  0  0  0  0  0  0  0
   67.5210  108.5885  276.8749 C   0  0  0  0  0  0  0  0  0  0  0  0
   66.7040  109.1774  275.7780 C   0  0  0  0  0  0  0  0  0  0  0  0
   65.2361  109.1067  276.1621 C   0  0  0  0  0  0  0  0  0  0  0  0
   64.2997  109.1772  275.0108 C   0  0  0  0  0  0  0  0  0  0  0  0
   72.7440  107.1345  277.9124 N   0  0  0  0  0  4  0  0  0  0  0  0
   68.7381  107.9513  276.3860 N   0  0  0  0  0  4  0  0  0  0  0  0
   62.3148  110.0153  273.0799 O   0  0  0  0  0  0  0  0  0  0  0  0
   60.0926  108.5172  275.0820 S   0  0  0  0  0  0  0  0  0  0  0  0
  1  2  1  0
 10  1  1  0
  2  3  1  0
  2 13  2  0
  3 14  1  0
  5  4  1  0
  4 11  1  0
  6  5  1  0
 12  6  1  0
  8  7  1  0
  7 12  1  0
  9  8  1  0
  9 10  1  0
M  CHG  2  11   1  12   1
M  END
$$$$
