
     RDKit          3D

 14 13  0  0  0  0  0  0  0  0999 V2000
   40.9612   86.4227  280.1117 C   0  0  0  0  0  0  0  0  0  0  0  0
   40.0357   87.5316  279.9055 C   0  0  0  0  0  0  0  0  0  0  0  0
   40.2900   88.5133  278.7920 C   0  0  0  0  0  0  0  0  0  0  0  0
   45.5586   80.0118  282.8968 C   0  0  0  0  0  0  0  0  0  0  0  0
   44.3461   80.7319  283.4369 C   0  0  0  0  0  0  0  0  0  0  0  0
   44.1529   82.0859  282.8031 C   0  0  0  0  0  0  0  0  0  0  0  0
   43.2467   84.1718  283.6179 C   0  0  0  0  0  0  0  0  0  0  0  0
   43.2100   84.8244  282.2798 C   0  0  0  0  0  0  0  0  0  0  0  0
   42.0570   85.8127  282.2433 C   0  0  0  0  0  0  0  0  0  0  0  0
   42.0722   86.7254  281.0711 C   0  0  0  0  0  0  0  0  0  0  0  0
   46.2873   79.4873  284.0377 N   0  0  0  0  0  4  0  0  0  0  0  0
   44.3002   83.1690  283.7227 N   0  0  0  0  0  4  0  0  0  0  0  0
   39.0632   87.6876  280.6068 O   0  0  0  0  0  0  0  0  0  0  0  0
   39.2678   89.9911  279.0104 S   0  0  0  0  0  0  0  0  0  0  0  0
  1  2  1  0
 10  1  1  0
  2  3  1  0
  2 13  2  0
  3 14  1  0
  5  4  1  0
  4 11  1  0
  6  5  1  0
 12  6  1  0
  8  7  1  0
  7 12  1  0
  9  8  1  0
  9 10  1  0
M  CHG  2  11   1  12   1
M  END
$$$$
