
     RDKit          3D

 14 13  0  0  0  0  0  0  0  0999 V2000
   63.7585  109.7730  275.4586 C   0  0  0  0  0  0  0  0  0  0  0  0
   62.6604  109.3889  274.5779 C   0  0  0  0  0  0  0  0  0  0  0  0
   61.4356  108.7345  275.1609 C   0  0  0  0  0  0  0  0  0  0  0  0
   72.0257  107.6989  279.2798 C   0  0  0  0  0  0  0  0  0  0  0  0
   70.9408  107.3745  278.2807 C   0  0  0  0  0  0  0  0  0  0  0  0
   70.6272  108.5385  277.3757 C   0  0  0  0  0  0  0  0  0  0  0  0
   68.3989  109.0328  276.5838 C   0  0  0  0  0  0  0  0  0  0  0  0
   67.1651  108.2291  276.3618 C   0  0  0  0  0  0  0  0  0  0  0  0
   65.9599  109.1529  276.3996 C   0  0  0  0  0  0  0  0  0  0  0  0
   64.9954  108.9438  275.2892 C   0  0  0  0  0  0  0  0  0  0  0  0
   72.0107  106.6492  280.2827 N   0  0  0  0  0  4  0  0  0  0  0  0
   69.6162  108.2492  276.4088 N   0  0  0  0  0  4  0  0  0  0  0  0
   62.7042  109.5814  273.3850 O   0  0  0  0  0  0  0  0  0  0  0  0
   60.0638  109.9135  275.2275 S   0  0  0  0  0  0  0  0  0  0  0  0
  1  2  1  0
 10  1  1  0
  2  3  1  0
  2 13  2  0
  3 14  1  0
  5  4  1  0
  4 11  1  0
  6  5  1  0
 12  6  1  0
  8  7  1  0
  7 12  1  0
  9  8  1  0
  9 10  1  0
M  CHG  2  11   1  12   1
M  END
$$$$
