
     RDKit          3D

 14 13  0  0  0  0  0  0  0  0999 V2000
   63.2530  108.8756  274.9962 C   0  0  0  0  0  0  0  0  0  0  0  0
   62.5294  109.5226  273.9069 C   0  0  0  0  0  0  0  0  0  0  0  0
   61.0704  109.2130  273.6982 C   0  0  0  0  0  0  0  0  0  0  0  0
   72.1190  108.1592  278.5699 C   0  0  0  0  0  0  0  0  0  0  0  0
   71.0289  109.0813  278.0781 C   0  0  0  0  0  0  0  0  0  0  0  0
   69.8838  108.3310  277.4471 C   0  0  0  0  0  0  0  0  0  0  0  0
   68.0607  108.3764  275.8626 C   0  0  0  0  0  0  0  0  0  0  0  0
   66.7285  108.8070  276.3697 C   0  0  0  0  0  0  0  0  0  0  0  0
   65.6994  108.6325  275.2661 C   0  0  0  0  0  0  0  0  0  0  0  0
   64.5382  109.5541  275.3630 C   0  0  0  0  0  0  0  0  0  0  0  0
   73.3026  108.4352  277.7757 N   0  0  0  0  0  4  0  0  0  0  0  0
   69.1593  109.1032  276.4883 N   0  0  0  0  0  4  0  0  0  0  0  0
   63.0698  110.3056  273.1607 O   0  0  0  0  0  0  0  0  0  0  0  0
   60.1055  109.7272  275.1407 S   0  0  0  0  0  0  0  0  0  0  0  0
  1  2  1  0
 10  1  1  0
  2  3  1  0
  2 13  2  0
  3 14  1  0
  5  4  1  0
  4 11  1  0
  6  5  1  0
 12  6  1  0
  8  7  1  0
  7 12  1  0
  9  8  1  0
  9 10  1  0
M  CHG  2  11   1  12   1
M  END
$$$$
