
     RDKit          3D

123123  0  0  0  0  0  0  0  0999 V2000
  100.2776    3.2356   29.5127 N   0  0  0  0  0  4  0  0  0  0  0  0
   99.5285    2.2393   28.6900 C   0  0  2  0  0  0  0  0  0  0  0  0
   99.1263    1.0287   29.5504 C   0  0  0  0  0  0  0  0  0  0  0  0
   98.0528    1.0230   30.1597 O   0  0  0  0  0  0  0  0  0  0  0  0
  100.3856    1.8412   27.5045 C   0  0  0  0  0  0  0  0  0  0  0  0
  100.0140   -0.0238   29.5660 N   0  0  0  0  0  0  0  0  0  0  0  0
  100.3764   -0.6906   30.8243 C   0  0  2  0  0  0  0  0  0  0  0  0
   99.0310   -1.0241   31.5109 C   0  0  0  0  0  0  0  0  0  0  0  0
   98.2598   -0.1422   31.8832 O   0  0  0  0  0  0  0  0  0  0  0  0
  101.2729    0.2220   31.6653 C   0  0  0  0  0  0  0  0  0  0  0  0
  101.3287   -0.1152   33.1599 C   0  0  0  0  0  0  0  0  0  0  0  0
  102.4119    0.6999   33.8881 C   0  0  0  0  0  0  0  0  0  0  0  0
  102.3451    2.0843   33.4638 N   0  0  0  0  0  0  0  0  0  0  0  0
  103.4017    2.9283   33.4807 C   0  0  0  0  0  0  0  0  0  0  0  0
  103.9735    3.4411   32.4471 N   0  0  0  0  0  0  0  0  0  0  0  0
  103.8463    3.1265   34.7358 N   0  0  0  0  0  0  0  0  0  0  0  0
   98.7170   -2.3719   31.6012 N   0  0  0  0  0  0  0  0  0  0  0  0
   97.3186   -2.7853   31.8399 C   0  0  2  0  0  0  0  0  0  0  0  0
   97.0959   -2.6814   33.3626 C   0  0  0  0  0  0  0  0  0  0  0  0
   97.9224   -2.2268   34.1561 O   0  0  0  0  0  0  0  0  0  0  0  0
   96.9734   -4.1574   31.2202 C   0  0  2  0  0  0  0  0  0  0  0  0
   97.0581   -4.0146   29.7895 O   0  0  0  0  0  0  0  0  0  0  0  0
   95.5680   -4.6227   31.5751 C   0  0  0  0  0  0  0  0  0  0  0  0
   95.8581   -3.1653   33.7909 N   0  0  0  0  0  0  0  0  0  0  0  0
   95.4970   -3.0754   35.2156 C   0  0  2  0  0  0  0  0  0  0  0  0
   94.0295   -3.2390   35.6726 C   0  0  0  0  0  0  0  0  0  0  0  0
   93.5853   -2.5604   36.6001 O   0  0  0  0  0  0  0  0  0  0  0  0
   95.9941   -1.7177   35.7993 C   0  0  0  0  0  0  0  0  0  0  0  0
   95.6702   -1.5346   37.2942 C   0  0  0  0  0  0  0  0  0  0  0  0
   96.0011   -0.1508   37.8800 C   0  0  0  0  0  0  0  0  0  0  0  0
   96.3074   -0.1267   39.3719 C   0  0  0  0  0  0  0  0  0  0  0  0
   97.0037    1.1282   39.7368 N   0  0  0  0  0  4  0  0  0  0  0  0
   93.2647   -4.0501   34.8805 N   0  0  0  0  0  0  0  0  0  0  0  0
   92.4520   -5.1166   35.4304 C   0  0  2  0  0  0  0  0  0  0  0  0
   93.2099   -6.4577   35.4782 C   0  0  0  0  0  0  0  0  0  0  0  0
   92.6900   -7.4615   35.9683 O   0  0  0  0  0  0  0  0  0  0  0  0
   91.1687   -5.3039   34.5974 C   0  0  0  0  0  0  0  0  0  0  0  0
   90.2386   -6.4435   35.0327 C   0  0  0  0  0  0  0  0  0  0  0  0
   89.3710   -6.1192   36.2279 C   0  0  0  0  0  0  0  0  0  0  0  0
   89.8003   -5.8076   37.3337 O   0  0  0  0  0  0  0  0  0  0  0  0
   88.0309   -6.1339   35.9722 N   0  0  0  0  0  0  0  0  0  0  0  0
   94.4147   -6.5232   34.8089 N   0  0  0  0  0  0  0  0  0  0  0  0
   95.1777   -7.7701   34.7987 C   0  0  2  0  0  0  0  0  0  0  0  0
   95.7961   -8.1166   36.1784 C   0  0  0  0  0  0  0  0  0  0  0  0
   95.3996   -7.6019   37.2228 O   0  0  0  0  0  0  0  0  0  0  0  0
   96.2850   -7.7983   33.7070 C   0  0  2  0  0  0  0  0  0  0  0  0
   95.7164   -7.4762   32.4244 O   0  0  0  0  0  0  0  0  0  0  0  0
   97.0344   -9.1202   33.6016 C   0  0  0  0  0  0  0  0  0  0  0  0
   96.8176   -9.0614   36.1608 N   0  0  0  0  0  0  0  0  0  0  0  0
   97.5840   -9.1791   37.4047 C   0  0  2  0  0  0  0  0  0  0  0  0
   98.4483   -7.9487   37.7613 C   0  0  0  0  0  0  0  0  0  0  0  0
   98.0052   -6.8056   37.7494 O   0  0  0  0  0  0  0  0  0  0  0  0
   98.4912  -10.4083   37.3312 C   0  0  0  0  0  0  0  0  0  0  0  0
   99.7104   -8.2423   38.2540 N   0  0  0  0  0  0  0  0  0  0  0  0
  100.5952   -7.1125   38.6028 C   0  0  2  0  0  0  0  0  0  0  0  0
  100.2756   -6.4695   39.9729 C   0  0  0  0  0  0  0  0  0  0  0  0
  100.7577   -5.3913   40.3232 O   0  0  0  0  0  0  0  0  0  0  0  0
  100.4780   -6.0332   37.5092 C   0  0  0  0  0  0  0  0  0  0  0  0
  100.3272   -4.5900   38.0114 C   0  0  0  0  0  0  0  0  0  0  0  0
  100.8430   -3.5467   37.0206 C   0  0  0  0  0  0  0  0  0  0  0  0
   99.7287   -2.8873   36.3697 N   0  0  0  0  0  0  0  0  0  0  0  0
   99.1275   -1.8106   36.9277 C   0  0  0  0  0  0  0  0  0  0  0  0
   99.3011   -1.4512   38.1468 N   0  0  0  0  0  0  0  0  0  0  0  0
   98.3564   -1.1219   36.0658 N   0  0  0  0  0  0  0  0  0  0  0  0
   99.2824   -7.0777   40.6983 N   0  0  0  0  0  0  0  0  0  0  0  0
   98.8096   -6.5441   41.9711 C   0  0  2  0  0  0  0  0  0  0  0  0
   98.9407   -7.6929   42.9864 C   0  0  0  0  0  0  0  0  0  0  0  0
   98.4408   -7.6306   44.1092 O   0  0  0  0  0  0  0  0  0  0  0  0
   97.3403   -6.1100   41.8185 C   0  0  0  0  0  0  0  0  0  0  0  0
   97.0175   -4.7230   42.3985 C   0  0  0  0  0  0  0  0  0  0  0  0
   95.5903   -4.7348   42.9672 C   0  0  0  0  0  0  0  0  0  0  0  0
   94.6448   -3.7086   42.3621 C   0  0  0  0  0  0  0  0  0  0  0  0
   95.3047   -3.0137   41.2287 N   0  0  0  0  0  4  0  0  0  0  0  0
   99.5726   -8.8289   42.5144 N   0  0  0  0  0  0  0  0  0  0  0  0
   99.3338  -10.1207   43.1955 C   0  0  2  0  0  0  0  0  0  0  0  0
  100.5682  -11.0277   43.3650 C   0  0  0  0  0  0  0  0  0  0  0  0
  100.5805  -12.0053   44.1179 O   0  0  0  0  0  0  0  0  0  0  0  0
   98.2300  -10.8943   42.4597 C   0  0  0  0  0  0  0  0  0  0  0  0
   97.4357   -9.9804   41.6806 O   0  0  0  0  0  0  0  0  0  0  0  0
  101.6658  -10.7148   42.5968 N   0  0  0  0  0  0  0  0  0  0  0  0
  103.0444  -10.7884   43.1087 C   0  0  2  0  0  0  0  0  0  0  0  0
  104.0710  -10.1502   42.1352 C   0  0  0  0  0  0  0  0  0  0  0  0
  103.7520   -9.4057   41.2085 O   0  0  0  0  0  0  0  0  0  0  0  0
  103.5105  -12.1870   43.6102 C   0  0  2  0  0  0  0  0  0  0  0  0
  104.9319  -12.4164   43.4668 O   0  0  0  0  0  0  0  0  0  0  0  0
  102.8019  -13.3039   42.8466 C   0  0  0  0  0  0  0  0  0  0  0  0
  105.3558  -10.6005   42.3014 N   0  0  0  0  0  0  0  0  0  0  0  0
  106.3882  -10.3882   41.2988 C   0  0  0  0  0  0  0  0  0  0  0  0
  106.5132  -11.5612   40.3283 C   0  0  0  0  0  0  0  0  0  0  0  0
  106.2082  -12.7045   40.6516 O   0  0  0  0  0  0  0  0  0  0  0  0
  106.9426  -11.2165   39.0611 N   0  0  0  0  0  0  0  0  0  0  0  0
  106.0061  -11.2799   37.9484 C   0  0  0  0  0  0  0  0  0  0  0  0
  104.6899  -10.5491   38.1990 C   0  0  0  0  0  0  0  0  0  0  0  0
  103.7630  -11.0741   38.8043 O   0  0  0  0  0  0  0  0  0  0  0  0
  104.5841   -9.3000   37.6107 N   0  0  0  0  0  0  0  0  0  0  0  0
  103.3723   -8.5020   37.8212 C   0  0  1  0  0  0  0  0  0  0  0  0
  103.3193   -7.9270   39.2444 C   0  0  0  0  0  0  0  0  0  0  0  0
  101.8982   -7.7838   39.7951 C   0  0  0  0  0  0  0  0  0  0  0  0
  101.8393   -6.6723   40.8432 C   0  0  0  0  0  0  0  0  0  0  0  0
  102.1962   -5.3164   40.2563 C   0  0  0  0  0  0  0  0  0  0  0  0
  103.5779   -4.9980   40.5680 N   0  0  0  0  0  0  0  0  0  0  0  0
  103.9273   -3.9483   41.3811 C   0  0  0  0  0  0  0  0  0  0  0  0
  104.0340   -2.7814   41.0171 O   0  0  0  0  0  0  0  0  0  0  0  0
  104.2796   -4.3327   42.7726 C   0  0  0  0  0  0  0  0  0  0  0  0
  105.3557   -3.8836   43.4440 C   0  0  0  0  0  0  0  0  0  0  0  0
  105.6892   -4.3221   44.8283 C   0  0  0  0  0  0  0  0  0  0  0  0
  103.2821   -7.3251   36.8221 C   0  0  0  0  0  0  0  0  0  0  0  0
  104.0820   -7.1818   35.9010 O   0  0  0  0  0  0  0  0  0  0  0  0
  102.1343   -6.5803   36.9278 N   0  0  0  0  0  0  0  0  0  0  0  0
  101.9622   -5.2751   36.2969 C   0  0  2  0  0  0  0  0  0  0  0  0
  100.8088   -4.6043   37.0669 C   0  0  0  0  0  0  0  0  0  0  0  0
  100.1645   -5.2492   37.9066 O   0  0  0  0  0  0  0  0  0  0  0  0
  101.5949   -5.4199   34.8258 C   0  0  0  0  0  0  0  0  0  0  0  0
  100.4764   -3.3087   36.7689 N   0  0  0  0  0  0  0  0  0  0  0  0
   99.8264   -2.4781   37.7872 C   0  0  2  0  0  0  0  0  0  0  0  0
   98.3442   -2.8365   37.9482 C   0  0  0  0  0  0  0  0  0  0  0  0
   97.6525   -3.4348   37.1308 O   0  0  0  0  0  0  0  0  0  0  0  0
   99.9945   -1.0459   37.2788 C   0  0  0  0  0  0  0  0  0  0  0  0
  100.1554   -1.2107   35.7689 C   0  0  0  0  0  0  0  0  0  0  0  0
  100.9293   -2.5130   35.6429 C   0  0  0  0  0  0  0  0  0  0  0  0
   97.8031   -2.4820   39.1336 O   0  0  0  0  0  0  0  0  0  0  0  0
  103.2327    3.9300   31.9310 H   0  0  0  0  0  0  0  0  0  0  0  0
  100.0980   -1.9563   38.5408 H   0  0  0  0  0  0  0  0  0  0  0  0
  1  2  1  0
  2  3  1  0
  2  5  1  6
  3  4  2  0
  3  6  1  0
  6  7  1  0
  7  8  1  0
  7 10  1  1
  8  9  2  0
  8 17  1  0
 10 11  1  0
 11 12  1  0
 12 13  1  0
 13 14  1  0
 14 15  2  0
 14 16  1  0
 18 17  1  1
 18 19  1  0
 18 21  1  0
 19 20  2  0
 19 24  1  0
 21 22  1  0
 21 23  1  6
 24 25  1  0
 25 26  1  0
 25 28  1  6
 26 27  2  0
 26 33  1  0
 28 29  1  0
 29 30  1  0
 30 31  1  0
 31 32  1  0
 33 34  1  0
 34 35  1  0
 34 37  1  6
 35 36  2  0
 35 42  1  0
 37 38  1  0
 38 39  1  0
 39 40  2  0
 39 41  1  0
 43 42  1  1
 43 44  1  0
 43 46  1  0
 44 45  2  0
 44 49  1  0
 46 47  1  0
 46 48  1  6
 49 50  1  0
 50 51  1  0
 50 53  1  6
 51 52  2  0
 51 54  1  0
 54 55  1  0
 55 56  1  0
 55 58  1  6
 56 57  2  0
 56 65  1  0
 58 59  1  0
 59 60  1  0
 60 61  1  0
 61 62  1  0
 62 63  2  0
 62 64  1  0
 65 66  1  0
 66 67  1  0
 66 69  1  6
 67 68  2  0
 67 74  1  0
 69 70  1  0
 70 71  1  0
 71 72  1  0
 72 73  1  0
 74 75  1  0
 75 76  1  0
 75 78  1  6
 76 77  2  0
 76 80  1  0
 78 79  1  0
 81 80  1  6
 81 82  1  0
 81 84  1  0
 82 83  2  0
 82 87  1  0
 84 85  1  0
 84 86  1  6
 87 88  1  0
 88 89  1  0
 89 90  2  0
 89 91  1  0
 91 92  1  0
 92 93  1  0
 93 94  2  0
 93 95  1  0
 95 96  1  0
 96 97  1  1
 96107  1  0
 97 98  1  0
 98 99  1  0
 99100  1  0
100101  1  0
101102  1  0
102103  2  0
102104  1  0
104105  2  0
105106  1  0
107108  2  0
107109  1  0
109110  1  0
110111  1  0
110113  1  6
111112  2  0
111114  1  0
114115  1  0
114120  1  0
115116  1  6
115118  1  0
116117  2  0
116121  1  0
118119  1  0
119120  1  0
 15122  1  0
 63123  1  0
M  CHG  3   1   1  32   1  73   1
M  END
$$$$
