
     RDKit          3D

123123  0  0  0  0  0  0  0  0999 V2000
  100.6051  -18.8743   34.1200 N   0  0  0  0  0  4  0  0  0  0  0  0
   99.9322  -17.6820   33.5231 C   0  0  2  0  0  0  0  0  0  0  0  0
  100.1420  -16.4462   34.4155 C   0  0  0  0  0  0  0  0  0  0  0  0
  100.2586  -16.5698   35.6382 O   0  0  0  0  0  0  0  0  0  0  0  0
   98.4639  -18.0003   33.3198 C   0  0  0  0  0  0  0  0  0  0  0  0
  100.2143  -15.2352   33.7643 N   0  0  0  0  0  0  0  0  0  0  0  0
  100.6964  -14.0312   34.4551 C   0  0  2  0  0  0  0  0  0  0  0  0
   99.6932  -12.9158   34.0779 C   0  0  0  0  0  0  0  0  0  0  0  0
   98.9694  -13.0057   33.0884 O   0  0  0  0  0  0  0  0  0  0  0  0
  102.1335  -13.7191   34.0297 C   0  0  0  0  0  0  0  0  0  0  0  0
  103.2170  -14.5397   34.7392 C   0  0  0  0  0  0  0  0  0  0  0  0
  103.2449  -14.2597   36.2521 C   0  0  0  0  0  0  0  0  0  0  0  0
  104.6106  -14.0238   36.6770 N   0  0  0  0  0  0  0  0  0  0  0  0
  105.5827  -13.5578   35.8605 C   0  0  0  0  0  0  0  0  0  0  0  0
  106.1986  -14.2381   34.9569 N   0  0  0  0  0  0  0  0  0  0  0  0
  105.8923  -12.2805   36.1518 N   0  0  0  0  0  0  0  0  0  0  0  0
   99.6051  -11.8565   34.9686 N   0  0  0  0  0  0  0  0  0  0  0  0
   98.2933  -11.2329   35.2400 C   0  0  2  0  0  0  0  0  0  0  0  0
   98.5170  -10.2606   36.4163 C   0  0  0  0  0  0  0  0  0  0  0  0
   98.4028   -9.0358   36.3366 O   0  0  0  0  0  0  0  0  0  0  0  0
   97.1597  -12.2613   35.4476 C   0  0  2  0  0  0  0  0  0  0  0  0
   97.5023  -13.0487   36.6039 O   0  0  0  0  0  0  0  0  0  0  0  0
   96.9949  -13.1982   34.2591 C   0  0  0  0  0  0  0  0  0  0  0  0
   98.8809  -10.8863   37.6103 N   0  0  0  0  0  0  0  0  0  0  0  0
   99.4075  -10.0776   38.7225 C   0  0  2  0  0  0  0  0  0  0  0  0
  100.6577   -9.1886   38.5330 C   0  0  0  0  0  0  0  0  0  0  0  0
  101.5919   -9.2466   39.3342 O   0  0  0  0  0  0  0  0  0  0  0  0
   99.6985  -10.9958   39.9485 C   0  0  0  0  0  0  0  0  0  0  0  0
  100.4220  -12.3049   39.5795 C   0  0  0  0  0  0  0  0  0  0  0  0
  101.8372  -12.4673   40.1613 C   0  0  0  0  0  0  0  0  0  0  0  0
  101.9040  -13.0266   41.5765 C   0  0  0  0  0  0  0  0  0  0  0  0
  103.3120  -13.1534   42.0167 N   0  0  0  0  0  4  0  0  0  0  0  0
  100.6956   -8.4877   37.3592 N   0  0  0  0  0  0  0  0  0  0  0  0
  101.9028   -7.8357   36.8923 C   0  0  2  0  0  0  0  0  0  0  0  0
  101.6862   -7.1050   35.5527 C   0  0  0  0  0  0  0  0  0  0  0  0
  102.3491   -6.1082   35.2610 O   0  0  0  0  0  0  0  0  0  0  0  0
  103.0393   -8.8621   36.7168 C   0  0  0  0  0  0  0  0  0  0  0  0
  104.3623   -8.3199   36.1610 C   0  0  0  0  0  0  0  0  0  0  0  0
  105.3104   -7.7892   37.2125 C   0  0  0  0  0  0  0  0  0  0  0  0
  105.3294   -8.1601   38.3814 O   0  0  0  0  0  0  0  0  0  0  0  0
  106.2190   -6.8842   36.7470 N   0  0  0  0  0  0  0  0  0  0  0  0
  100.8452   -7.7049   34.6379 N   0  0  0  0  0  0  0  0  0  0  0  0
  100.6019   -7.0703   33.3438 C   0  0  2  0  0  0  0  0  0  0  0  0
   99.0970   -6.9972   32.9750 C   0  0  0  0  0  0  0  0  0  0  0  0
   98.6815   -6.3019   32.0494 O   0  0  0  0  0  0  0  0  0  0  0  0
  101.3940   -7.7334   32.1810 C   0  0  2  0  0  0  0  0  0  0  0  0
  101.0475   -9.1272   32.0850 O   0  0  0  0  0  0  0  0  0  0  0  0
  102.9074   -7.6030   32.2930 C   0  0  0  0  0  0  0  0  0  0  0  0
   98.2481   -7.7833   33.7484 N   0  0  0  0  0  0  0  0  0  0  0  0
   96.9499   -7.1804   34.0641 C   0  0  2  0  0  0  0  0  0  0  0  0
   96.4841   -6.0775   33.0871 C   0  0  0  0  0  0  0  0  0  0  0  0
   95.3401   -6.0244   32.6492 O   0  0  0  0  0  0  0  0  0  0  0  0
   96.9881   -6.5966   35.4772 C   0  0  0  0  0  0  0  0  0  0  0  0
   97.4014   -5.0610   32.8707 N   0  0  0  0  0  0  0  0  0  0  0  0
   96.9819   -3.6771   33.1706 C   0  0  2  0  0  0  0  0  0  0  0  0
   98.0147   -2.8777   33.9995 C   0  0  0  0  0  0  0  0  0  0  0  0
   99.2241   -2.9279   33.7705 O   0  0  0  0  0  0  0  0  0  0  0  0
   95.6499   -3.7181   33.9445 C   0  0  0  0  0  0  0  0  0  0  0  0
   94.5175   -2.8570   33.3668 C   0  0  0  0  0  0  0  0  0  0  0  0
   93.1985   -3.0024   34.1253 C   0  0  0  0  0  0  0  0  0  0  0  0
   93.4424   -2.9775   35.5536 N   0  0  0  0  0  0  0  0  0  0  0  0
   92.5415   -2.4418   36.4099 C   0  0  0  0  0  0  0  0  0  0  0  0
   91.4064   -1.9692   36.0444 N   0  0  0  0  0  0  0  0  0  0  0  0
   92.9329   -2.4891   37.6970 N   0  0  0  0  0  0  0  0  0  0  0  0
   97.4920   -1.9686   34.8844 N   0  0  0  0  0  0  0  0  0  0  0  0
   97.8737   -0.5607   34.8708 C   0  0  2  0  0  0  0  0  0  0  0  0
   97.1338    0.0898   36.0527 C   0  0  0  0  0  0  0  0  0  0  0  0
   97.1352    1.3073   36.2321 O   0  0  0  0  0  0  0  0  0  0  0  0
   97.4338    0.0656   33.5348 C   0  0  0  0  0  0  0  0  0  0  0  0
   97.7736    1.5575   33.3828 C   0  0  0  0  0  0  0  0  0  0  0  0
   97.4854    1.9950   31.9385 C   0  0  0  0  0  0  0  0  0  0  0  0
   97.7204    3.4698   31.6507 C   0  0  0  0  0  0  0  0  0  0  0  0
   97.4577    3.7577   30.2186 N   0  0  0  0  0  4  0  0  0  0  0  0
   96.3938   -0.7775   36.8356 N   0  0  0  0  0  0  0  0  0  0  0  0
   96.5578   -0.7377   38.3057 C   0  0  2  0  0  0  0  0  0  0  0  0
   97.9917   -0.9558   38.8266 C   0  0  0  0  0  0  0  0  0  0  0  0
   98.6127   -0.0938   39.4545 O   0  0  0  0  0  0  0  0  0  0  0  0
   95.6176   -1.7628   38.9565 C   0  0  0  0  0  0  0  0  0  0  0  0
   95.5698   -2.9553   38.1508 O   0  0  0  0  0  0  0  0  0  0  0  0
   98.5466   -2.1918   38.5881 N   0  0  0  0  0  0  0  0  0  0  0  0
   99.8906   -2.5667   39.0583 C   0  0  2  0  0  0  0  0  0  0  0  0
  100.9004   -2.7309   37.8912 C   0  0  0  0  0  0  0  0  0  0  0  0
  101.8019   -3.5690   37.8897 O   0  0  0  0  0  0  0  0  0  0  0  0
   99.9543   -3.7617   40.0548 C   0  0  2  0  0  0  0  0  0  0  0  0
  100.3752   -5.0067   39.4495 O   0  0  0  0  0  0  0  0  0  0  0  0
   98.5883   -4.0163   40.6886 C   0  0  0  0  0  0  0  0  0  0  0  0
  100.7980   -1.7663   36.9216 N   0  0  0  0  0  0  0  0  0  0  0  0
  101.9457   -0.9948   36.4703 C   0  0  0  0  0  0  0  0  0  0  0  0
  101.5490    0.3615   35.8903 C   0  0  0  0  0  0  0  0  0  0  0  0
  101.6959    0.6254   34.7013 O   0  0  0  0  0  0  0  0  0  0  0  0
  100.9721    1.2291   36.7976 N   0  0  0  0  0  0  0  0  0  0  0  0
  100.4175    2.4899   36.3262 C   0  0  0  0  0  0  0  0  0  0  0  0
  101.0708    3.7259   36.9384 C   0  0  0  0  0  0  0  0  0  0  0  0
  101.6994    4.5292   36.2597 O   0  0  0  0  0  0  0  0  0  0  0  0
  100.9879    3.8186   38.3176 N   0  0  0  0  0  0  0  0  0  0  0  0
  100.0249    4.7432   38.9235 C   0  0  1  0  0  0  0  0  0  0  0  0
   98.5787    4.2902   38.6738 C   0  0  0  0  0  0  0  0  0  0  0  0
   97.5293    5.2494   39.2411 C   0  0  0  0  0  0  0  0  0  0  0  0
   97.0069    6.1803   38.1466 C   0  0  0  0  0  0  0  0  0  0  0  0
   95.8866    5.5414   37.3422 C   0  0  0  0  0  0  0  0  0  0  0  0
   95.1760    6.5648   36.5969 N   0  0  0  0  0  0  0  0  0  0  0  0
   95.1581    6.5989   35.2245 C   0  0  0  0  0  0  0  0  0  0  0  0
   95.9166    5.9681   34.4949 O   0  0  0  0  0  0  0  0  0  0  0  0
   94.1866    7.5601   34.6410 C   0  0  0  0  0  0  0  0  0  0  0  0
   94.0375    7.7971   33.3249 C   0  0  0  0  0  0  0  0  0  0  0  0
   93.2887    8.9697   32.7918 C   0  0  0  0  0  0  0  0  0  0  0  0
  100.2343    4.8672   40.4506 C   0  0  0  0  0  0  0  0  0  0  0  0
   99.3300    4.6650   41.2569 O   0  0  0  0  0  0  0  0  0  0  0  0
  101.5438    5.0220   40.8311 N   0  0  0  0  0  0  0  0  0  0  0  0
  101.9621    5.1986   42.2186 C   0  0  2  0  0  0  0  0  0  0  0  0
  101.5343    3.9043   42.9363 C   0  0  0  0  0  0  0  0  0  0  0  0
  101.8501    3.7169   44.1200 O   0  0  0  0  0  0  0  0  0  0  0  0
  101.2728    6.4004   42.8516 C   0  0  0  0  0  0  0  0  0  0  0  0
  100.8513    2.9485   42.2308 N   0  0  0  0  0  0  0  0  0  0  0  0
   99.7275    2.2508   42.8628 C   0  0  2  0  0  0  0  0  0  0  0  0
  100.2086    1.1907   43.8609 C   0  0  0  0  0  0  0  0  0  0  0  0
  101.2790    0.5931   43.8204 O   0  0  0  0  0  0  0  0  0  0  0  0
   98.9713    1.6085   41.6994 C   0  0  0  0  0  0  0  0  0  0  0  0
  100.0321    1.4629   40.6101 C   0  0  0  0  0  0  0  0  0  0  0  0
  100.8977    2.6976   40.8022 C   0  0  0  0  0  0  0  0  0  0  0  0
   99.3640    0.9583   44.8887 O   0  0  0  0  0  0  0  0  0  0  0  0
  106.4473  -13.5661   34.2216 H   0  0  0  0  0  0  0  0  0  0  0  0
   90.8403   -1.7648   36.8710 H   0  0  0  0  0  0  0  0  0  0  0  0
  1  2  1  0
  2  3  1  0
  2  5  1  1
  3  4  2  0
  3  6  1  0
  6  7  1  0
  7  8  1  0
  7 10  1  6
  8  9  2  0
  8 17  1  0
 10 11  1  0
 11 12  1  0
 12 13  1  0
 13 14  1  0
 14 15  2  0
 14 16  1  0
 18 17  1  1
 18 19  1  0
 18 21  1  0
 19 20  2  0
 19 24  1  0
 21 22  1  0
 21 23  1  6
 24 25  1  0
 25 26  1  0
 25 28  1  1
 26 27  2  0
 26 33  1  0
 28 29  1  0
 29 30  1  0
 30 31  1  0
 31 32  1  0
 33 34  1  0
 34 35  1  0
 34 37  1  6
 35 36  2  0
 35 42  1  0
 37 38  1  0
 38 39  1  0
 39 40  2  0
 39 41  1  0
 43 42  1  1
 43 44  1  0
 43 46  1  0
 44 45  2  0
 44 49  1  0
 46 47  1  0
 46 48  1  1
 49 50  1  0
 50 51  1  0
 50 53  1  1
 51 52  2  0
 51 54  1  0
 54 55  1  0
 55 56  1  0
 55 58  1  1
 56 57  2  0
 56 65  1  0
 58 59  1  0
 59 60  1  0
 60 61  1  0
 61 62  1  0
 62 63  2  0
 62 64  1  0
 65 66  1  0
 66 67  1  0
 66 69  1  6
 67 68  2  0
 67 74  1  0
 69 70  1  0
 70 71  1  0
 71 72  1  0
 72 73  1  0
 74 75  1  0
 75 76  1  0
 75 78  1  1
 76 77  2  0
 76 80  1  0
 78 79  1  0
 81 80  1  6
 81 82  1  0
 81 84  1  0
 82 83  2  0
 82 87  1  0
 84 85  1  0
 84 86  1  6
 87 88  1  0
 88 89  1  0
 89 90  2  0
 89 91  1  0
 91 92  1  0
 92 93  1  0
 93 94  2  0
 93 95  1  0
 95 96  1  0
 96 97  1  1
 96107  1  0
 97 98  1  0
 98 99  1  0
 99100  1  0
100101  1  0
101102  1  0
102103  2  0
102104  1  0
104105  2  0
105106  1  0
107108  2  0
107109  1  0
109110  1  0
110111  1  0
110113  1  1
111112  2  0
111114  1  0
114115  1  0
114120  1  0
115116  1  1
115118  1  0
116117  2  0
116121  1  0
118119  1  0
119120  1  0
 15122  1  0
 63123  1  0
M  CHG  3   1   1  32   1  73   1
M  END
$$$$
