
     RDKit          3D

123123  0  0  0  0  0  0  0  0999 V2000
   95.5148  -15.5881   30.4429 N   0  0  0  0  0  4  0  0  0  0  0  0
   96.7974  -14.8853   30.7457 C   0  0  2  0  0  0  0  0  0  0  0  0
   96.6321  -13.9761   31.9761 C   0  0  0  0  0  0  0  0  0  0  0  0
   95.6595  -13.2219   32.0707 O   0  0  0  0  0  0  0  0  0  0  0  0
   97.2336  -14.1131   29.5161 C   0  0  0  0  0  0  0  0  0  0  0  0
   97.6058  -14.0849   32.9436 N   0  0  0  0  0  0  0  0  0  0  0  0
   97.6768  -13.1294   34.0577 C   0  0  2  0  0  0  0  0  0  0  0  0
   97.9475  -11.7559   33.3999 C   0  0  0  0  0  0  0  0  0  0  0  0
   97.7472  -11.5624   32.2026 O   0  0  0  0  0  0  0  0  0  0  0  0
   98.7682  -13.5511   35.0450 C   0  0  0  0  0  0  0  0  0  0  0  0
  100.0339  -14.1366   34.4078 C   0  0  0  0  0  0  0  0  0  0  0  0
  100.8948  -14.8890   35.4378 C   0  0  0  0  0  0  0  0  0  0  0  0
  102.2413  -14.3524   35.4296 N   0  0  0  0  0  0  0  0  0  0  0  0
  102.8399  -13.8387   34.3310 C   0  0  0  0  0  0  0  0  0  0  0  0
  102.5758  -14.1556   33.1110 N   0  0  0  0  0  0  0  0  0  0  0  0
  103.8209  -12.9805   34.6675 N   0  0  0  0  0  0  0  0  0  0  0  0
   98.3466  -10.7431   34.2591 N   0  0  0  0  0  0  0  0  0  0  0  0
   97.3658   -9.7341   34.7100 C   0  0  2  0  0  0  0  0  0  0  0  0
   97.2526   -9.9011   36.2392 C   0  0  0  0  0  0  0  0  0  0  0  0
   96.4559  -10.6576   36.7983 O   0  0  0  0  0  0  0  0  0  0  0  0
   96.0263   -9.7997   33.9437 C   0  0  2  0  0  0  0  0  0  0  0  0
   95.6755  -11.1905   33.8129 O   0  0  0  0  0  0  0  0  0  0  0  0
   96.1193   -9.1938   32.5502 C   0  0  0  0  0  0  0  0  0  0  0  0
   98.1357   -9.1002   36.9660 N   0  0  0  0  0  0  0  0  0  0  0  0
   99.3565   -9.6962   37.5340 C   0  0  2  0  0  0  0  0  0  0  0  0
  100.7475   -9.3620   36.9488 C   0  0  0  0  0  0  0  0  0  0  0  0
  101.0055   -9.6129   35.7704 O   0  0  0  0  0  0  0  0  0  0  0  0
   99.2349  -11.2506   37.5273 C   0  0  0  0  0  0  0  0  0  0  0  0
  100.3875  -11.9617   38.2615 C   0  0  0  0  0  0  0  0  0  0  0  0
  100.0071  -12.6500   39.5840 C   0  0  0  0  0  0  0  0  0  0  0  0
   99.5515  -14.0983   39.4620 C   0  0  0  0  0  0  0  0  0  0  0  0
  100.4154  -14.9828   40.2769 N   0  0  0  0  0  4  0  0  0  0  0  0
  101.5666   -8.6468   37.7782 N   0  0  0  0  0  0  0  0  0  0  0  0
  102.9035   -8.2503   37.3832 C   0  0  2  0  0  0  0  0  0  0  0  0
  102.8875   -7.1169   36.3389 C   0  0  0  0  0  0  0  0  0  0  0  0
  103.8603   -6.9134   35.6106 O   0  0  0  0  0  0  0  0  0  0  0  0
  103.6733   -9.4504   36.7977 C   0  0  0  0  0  0  0  0  0  0  0  0
  105.0983   -9.1666   36.3055 C   0  0  0  0  0  0  0  0  0  0  0  0
  105.8218  -10.3758   35.7571 C   0  0  0  0  0  0  0  0  0  0  0  0
  105.8286  -11.4812   36.2883 O   0  0  0  0  0  0  0  0  0  0  0  0
  106.4368  -10.1683   34.5571 N   0  0  0  0  0  0  0  0  0  0  0  0
  101.6915   -6.4564   36.1461 N   0  0  0  0  0  0  0  0  0  0  0  0
  101.5843   -5.4257   35.1151 C   0  0  2  0  0  0  0  0  0  0  0  0
  100.1402   -4.8871   34.9406 C   0  0  0  0  0  0  0  0  0  0  0  0
   99.8694   -3.9772   34.1585 O   0  0  0  0  0  0  0  0  0  0  0  0
  102.1429   -5.8814   33.7370 C   0  0  2  0  0  0  0  0  0  0  0  0
  103.1115   -6.9297   33.9238 O   0  0  0  0  0  0  0  0  0  0  0  0
  102.7691   -4.7665   32.9094 C   0  0  0  0  0  0  0  0  0  0  0  0
   99.1663   -5.5120   35.7137 N   0  0  0  0  0  0  0  0  0  0  0  0
   98.2114   -4.6118   36.3667 C   0  0  2  0  0  0  0  0  0  0  0  0
   98.7098   -3.9678   37.6799 C   0  0  0  0  0  0  0  0  0  0  0  0
   98.1959   -2.9627   38.1582 O   0  0  0  0  0  0  0  0  0  0  0  0
   96.9130   -5.3670   36.6552 C   0  0  0  0  0  0  0  0  0  0  0  0
   99.6690   -4.6988   38.3636 N   0  0  0  0  0  0  0  0  0  0  0  0
  100.1924   -4.1399   39.6265 C   0  0  2  0  0  0  0  0  0  0  0  0
  101.3173   -3.0967   39.4284 C   0  0  0  0  0  0  0  0  0  0  0  0
  102.2622   -2.9901   40.2115 O   0  0  0  0  0  0  0  0  0  0  0  0
  100.7329   -5.2931   40.4941 C   0  0  0  0  0  0  0  0  0  0  0  0
   99.8703   -6.5631   40.5259 C   0  0  0  0  0  0  0  0  0  0  0  0
  100.4387   -7.6590   41.4270 C   0  0  0  0  0  0  0  0  0  0  0  0
  101.4156   -8.4432   40.6984 N   0  0  0  0  0  0  0  0  0  0  0  0
  102.2950   -9.2442   41.3442 C   0  0  0  0  0  0  0  0  0  0  0  0
  101.9789   -9.9936   42.3362 N   0  0  0  0  0  0  0  0  0  0  0  0
  103.5336   -9.2126   40.8181 N   0  0  0  0  0  0  0  0  0  0  0  0
  101.2994   -2.4221   38.2338 N   0  0  0  0  0  0  0  0  0  0  0  0
  102.3604   -1.4996   37.8445 C   0  0  2  0  0  0  0  0  0  0  0  0
  102.0287   -1.0543   36.4095 C   0  0  0  0  0  0  0  0  0  0  0  0
  102.4627   -1.6516   35.4250 O   0  0  0  0  0  0  0  0  0  0  0  0
  103.7104   -2.2383   37.8930 C   0  0  0  0  0  0  0  0  0  0  0  0
  103.7682   -3.5251   37.0532 C   0  0  0  0  0  0  0  0  0  0  0  0
  105.1863   -4.1116   37.1275 C   0  0  0  0  0  0  0  0  0  0  0  0
  105.4411   -5.3039   36.2183 C   0  0  0  0  0  0  0  0  0  0  0  0
  104.1677   -5.7609   35.6082 N   0  0  0  0  0  4  0  0  0  0  0  0
  101.1369   -0.0020   36.3090 N   0  0  0  0  0  0  0  0  0  0  0  0
   99.8052   -0.2421   35.7102 C   0  0  2  0  0  0  0  0  0  0  0  0
   99.0042    1.0182   35.3292 C   0  0  0  0  0  0  0  0  0  0  0  0
   97.8850    0.9674   34.8120 O   0  0  0  0  0  0  0  0  0  0  0  0
   98.9652   -1.1136   36.6553 C   0  0  0  0  0  0  0  0  0  0  0  0
   99.1318   -2.5015   36.3097 O   0  0  0  0  0  0  0  0  0  0  0  0
   99.5879    2.2270   35.6309 N   0  0  0  0  0  0  0  0  0  0  0  0
   98.9100    3.5159   35.4139 C   0  0  2  0  0  0  0  0  0  0  0  0
   99.7590    4.7196   35.9027 C   0  0  0  0  0  0  0  0  0  0  0  0
  100.6087    5.2751   35.2067 O   0  0  0  0  0  0  0  0  0  0  0  0
   97.4372    3.6027   35.9123 C   0  0  2  0  0  0  0  0  0  0  0  0
   96.8923    4.9430   35.8974 O   0  0  0  0  0  0  0  0  0  0  0  0
   97.3158    3.0906   37.3461 C   0  0  0  0  0  0  0  0  0  0  0  0
   99.5886    5.0237   37.2293 N   0  0  0  0  0  0  0  0  0  0  0  0
   99.7747    6.3704   37.7467 C   0  0  0  0  0  0  0  0  0  0  0  0
   99.9963    6.3925   39.2579 C   0  0  0  0  0  0  0  0  0  0  0  0
   99.3629    7.1417   39.9945 O   0  0  0  0  0  0  0  0  0  0  0  0
  100.9191    5.4729   39.7179 N   0  0  0  0  0  0  0  0  0  0  0  0
  100.4948    4.4446   40.6570 C   0  0  0  0  0  0  0  0  0  0  0  0
  100.2051    3.0922   40.0116 C   0  0  0  0  0  0  0  0  0  0  0  0
  100.3863    2.8933   38.8162 O   0  0  0  0  0  0  0  0  0  0  0  0
   99.6333    2.1472   40.8467 N   0  0  0  0  0  0  0  0  0  0  0  0
   99.4952    0.7627   40.3843 C   0  0  1  0  0  0  0  0  0  0  0  0
  100.8567    0.0549   40.3182 C   0  0  0  0  0  0  0  0  0  0  0  0
  101.7947    0.6284   39.2531 C   0  0  0  0  0  0  0  0  0  0  0  0
  103.0348   -0.2528   39.1007 C   0  0  0  0  0  0  0  0  0  0  0  0
  103.8660    0.1381   37.8897 C   0  0  0  0  0  0  0  0  0  0  0  0
  103.4870   -0.6812   36.7527 N   0  0  0  0  0  0  0  0  0  0  0  0
  103.9243   -0.4205   35.4776 C   0  0  0  0  0  0  0  0  0  0  0  0
  104.4158    0.6404   35.1053 O   0  0  0  0  0  0  0  0  0  0  0  0
  103.6715   -1.5111   34.5005 C   0  0  0  0  0  0  0  0  0  0  0  0
  103.9451   -1.4417   33.1849 C   0  0  0  0  0  0  0  0  0  0  0  0
  102.9733   -1.8497   32.1318 C   0  0  0  0  0  0  0  0  0  0  0  0
   98.5688   -0.0596   41.3101 C   0  0  0  0  0  0  0  0  0  0  0  0
   98.9970   -0.9298   42.0638 O   0  0  0  0  0  0  0  0  0  0  0  0
   97.2755    0.3960   41.3651 N   0  0  0  0  0  0  0  0  0  0  0  0
   96.6261    0.8240   42.6006 C   0  0  2  0  0  0  0  0  0  0  0  0
   96.0894    2.2375   42.3050 C   0  0  0  0  0  0  0  0  0  0  0  0
   95.2274    2.4044   41.4303 O   0  0  0  0  0  0  0  0  0  0  0  0
   97.6185    0.8717   43.7550 C   0  0  0  0  0  0  0  0  0  0  0  0
   96.6186    3.3040   42.9835 N   0  0  0  0  0  0  0  0  0  0  0  0
   96.0945    4.6502   42.7333 C   0  0  2  0  0  0  0  0  0  0  0  0
   96.6096    5.2204   41.4064 C   0  0  0  0  0  0  0  0  0  0  0  0
   97.3537    4.6504   40.6152 O   0  0  0  0  0  0  0  0  0  0  0  0
   96.5885    5.4807   43.9183 C   0  0  0  0  0  0  0  0  0  0  0  0
   97.8306    4.7315   44.3969 C   0  0  0  0  0  0  0  0  0  0  0  0
   97.4698    3.2743   44.1585 C   0  0  0  0  0  0  0  0  0  0  0  0
   96.1388    6.4482   41.0988 O   0  0  0  0  0  0  0  0  0  0  0  0
  103.2421  -14.8966   32.8638 H   0  0  0  0  0  0  0  0  0  0  0  0
  100.9923   -9.8558   42.5665 H   0  0  0  0  0  0  0  0  0  0  0  0
  1  2  1  0
  2  3  1  0
  2  5  1  6
  3  4  2  0
  3  6  1  0
  6  7  1  0
  7  8  1  0
  7 10  1  1
  8  9  2  0
  8 17  1  0
 10 11  1  0
 11 12  1  0
 12 13  1  0
 13 14  1  0
 14 15  2  0
 14 16  1  0
 18 17  1  6
 18 19  1  0
 18 21  1  0
 19 20  2  0
 19 24  1  0
 21 22  1  0
 21 23  1  6
 24 25  1  0
 25 26  1  0
 25 28  1  6
 26 27  2  0
 26 33  1  0
 28 29  1  0
 29 30  1  0
 30 31  1  0
 31 32  1  0
 33 34  1  0
 34 35  1  0
 34 37  1  6
 35 36  2  0
 35 42  1  0
 37 38  1  0
 38 39  1  0
 39 40  2  0
 39 41  1  0
 43 42  1  1
 43 44  1  0
 43 46  1  0
 44 45  2  0
 44 49  1  0
 46 47  1  0
 46 48  1  1
 49 50  1  0
 50 51  1  0
 50 53  1  1
 51 52  2  0
 51 54  1  0
 54 55  1  0
 55 56  1  0
 55 58  1  1
 56 57  2  0
 56 65  1  0
 58 59  1  0
 59 60  1  0
 60 61  1  0
 61 62  1  0
 62 63  2  0
 62 64  1  0
 65 66  1  0
 66 67  1  0
 66 69  1  6
 67 68  2  0
 67 74  1  0
 69 70  1  0
 70 71  1  0
 71 72  1  0
 72 73  1  0
 74 75  1  0
 75 76  1  0
 75 78  1  1
 76 77  2  0
 76 80  1  0
 78 79  1  0
 81 80  1  1
 81 82  1  0
 81 84  1  0
 82 83  2  0
 82 87  1  0
 84 85  1  0
 84 86  1  1
 87 88  1  0
 88 89  1  0
 89 90  2  0
 89 91  1  0
 91 92  1  0
 92 93  1  0
 93 94  2  0
 93 95  1  0
 95 96  1  0
 96 97  1  1
 96107  1  0
 97 98  1  0
 98 99  1  0
 99100  1  0
100101  1  0
101102  1  0
102103  2  0
102104  1  0
104105  2  0
105106  1  0
107108  2  0
107109  1  0
109110  1  0
110111  1  0
110113  1  1
111112  2  0
111114  1  0
114115  1  0
114120  1  0
115116  1  6
115118  1  0
116117  2  0
116121  1  0
118119  1  0
119120  1  0
 15122  1  0
 63123  1  0
M  CHG  3   1   1  32   1  73   1
M  END
$$$$
