
     RDKit          3D

123123  0  0  0  0  0  0  0  0999 V2000
  102.3063  -18.4332   36.9959 N   0  0  0  0  0  4  0  0  0  0  0  0
  102.4357  -17.4284   35.8984 C   0  0  2  0  0  0  0  0  0  0  0  0
  102.0238  -16.0329   36.3990 C   0  0  0  0  0  0  0  0  0  0  0  0
  101.9001  -15.8129   37.6074 O   0  0  0  0  0  0  0  0  0  0  0  0
  101.6009  -17.8840   34.7178 C   0  0  0  0  0  0  0  0  0  0  0  0
  101.8365  -15.0735   35.4293 N   0  0  0  0  0  0  0  0  0  0  0  0
  101.4859  -13.6923   35.7879 C   0  0  2  0  0  0  0  0  0  0  0  0
  100.6911  -13.1465   34.5783 C   0  0  0  0  0  0  0  0  0  0  0  0
  100.7637  -13.6698   33.4684 O   0  0  0  0  0  0  0  0  0  0  0  0
  102.7532  -12.8881   36.0895 C   0  0  0  0  0  0  0  0  0  0  0  0
  103.9870  -13.2822   35.2691 C   0  0  0  0  0  0  0  0  0  0  0  0
  105.1913  -12.3760   35.5797 C   0  0  0  0  0  0  0  0  0  0  0  0
  106.2561  -12.6421   34.6328 N   0  0  0  0  0  0  0  0  0  0  0  0
  107.4534  -12.0136   34.6507 C   0  0  0  0  0  0  0  0  0  0  0  0
  108.4578  -12.2832   33.8912 N   0  0  0  0  0  0  0  0  0  0  0  0
  107.5034  -11.0893   35.6282 N   0  0  0  0  0  0  0  0  0  0  0  0
   99.8340  -12.0897   34.8463 N   0  0  0  0  0  0  0  0  0  0  0  0
   98.8842  -11.6340   33.8102 C   0  0  2  0  0  0  0  0  0  0  0  0
   98.8991  -10.0926   33.8643 C   0  0  0  0  0  0  0  0  0  0  0  0
   99.3899   -9.4346   34.7838 O   0  0  0  0  0  0  0  0  0  0  0  0
   97.4867  -12.2797   33.9366 C   0  0  2  0  0  0  0  0  0  0  0  0
   96.6794  -11.3992   34.7411 O   0  0  0  0  0  0  0  0  0  0  0  0
   97.5312  -13.6432   34.6121 C   0  0  0  0  0  0  0  0  0  0  0  0
   98.2873   -9.4789   32.7695 N   0  0  0  0  0  0  0  0  0  0  0  0
   98.1828   -8.0108   32.7251 C   0  0  2  0  0  0  0  0  0  0  0  0
   97.4450   -7.2351   33.8400 C   0  0  0  0  0  0  0  0  0  0  0  0
   97.1806   -6.0400   33.6987 O   0  0  0  0  0  0  0  0  0  0  0  0
   97.5362   -7.5703   31.3764 C   0  0  0  0  0  0  0  0  0  0  0  0
   96.4373   -8.5282   30.8784 C   0  0  0  0  0  0  0  0  0  0  0  0
   95.8092   -8.1686   29.5206 C   0  0  0  0  0  0  0  0  0  0  0  0
   94.3515   -8.5740   29.3446 C   0  0  0  0  0  0  0  0  0  0  0  0
   94.0374   -8.7658   27.9103 N   0  0  0  0  0  4  0  0  0  0  0  0
   96.9911   -8.0042   34.8757 N   0  0  0  0  0  0  0  0  0  0  0  0
   96.3740   -7.4233   36.0514 C   0  0  2  0  0  0  0  0  0  0  0  0
   97.3752   -7.2615   37.2118 C   0  0  0  0  0  0  0  0  0  0  0  0
   97.0296   -6.7534   38.2798 O   0  0  0  0  0  0  0  0  0  0  0  0
   95.1975   -8.2953   36.5321 C   0  0  0  0  0  0  0  0  0  0  0  0
   94.4545   -7.8025   37.7804 C   0  0  0  0  0  0  0  0  0  0  0  0
   93.2889   -8.6711   38.1967 C   0  0  0  0  0  0  0  0  0  0  0  0
   92.4453   -9.1174   37.4265 O   0  0  0  0  0  0  0  0  0  0  0  0
   93.2698   -8.9910   39.5229 N   0  0  0  0  0  0  0  0  0  0  0  0
   98.6131   -7.8523   37.0614 N   0  0  0  0  0  0  0  0  0  0  0  0
   99.7620   -7.3404   37.8062 C   0  0  2  0  0  0  0  0  0  0  0  0
  100.7915   -6.6060   36.9079 C   0  0  0  0  0  0  0  0  0  0  0  0
  101.9967   -6.8462   36.9600 O   0  0  0  0  0  0  0  0  0  0  0  0
  100.4840   -8.4356   38.6418 C   0  0  2  0  0  0  0  0  0  0  0  0
   99.7956   -9.6919   38.5011 O   0  0  0  0  0  0  0  0  0  0  0  0
  100.6261   -8.1087   40.1227 C   0  0  0  0  0  0  0  0  0  0  0  0
  100.2617   -5.6692   36.0257 N   0  0  0  0  0  0  0  0  0  0  0  0
  101.2472   -4.9173   35.2434 C   0  0  2  0  0  0  0  0  0  0  0  0
  101.2596   -3.3929   35.4957 C   0  0  0  0  0  0  0  0  0  0  0  0
  102.0529   -2.6392   34.9427 O   0  0  0  0  0  0  0  0  0  0  0  0
  101.0112   -5.1636   33.7525 C   0  0  0  0  0  0  0  0  0  0  0  0
  100.2071   -2.9174   36.2625 N   0  0  0  0  0  0  0  0  0  0  0  0
  100.0607   -1.4544   36.4025 C   0  0  2  0  0  0  0  0  0  0  0  0
  100.0913   -0.9617   37.8685 C   0  0  0  0  0  0  0  0  0  0  0  0
  100.5467    0.1384   38.1843 O   0  0  0  0  0  0  0  0  0  0  0  0
   98.7262   -1.0249   35.7627 C   0  0  0  0  0  0  0  0  0  0  0  0
   98.4901    0.4894   35.6682 C   0  0  0  0  0  0  0  0  0  0  0  0
   97.1303    0.8545   35.0735 C   0  0  0  0  0  0  0  0  0  0  0  0
   97.2217    2.1144   34.3632 N   0  0  0  0  0  0  0  0  0  0  0  0
   97.4811    3.2709   35.0167 C   0  0  0  0  0  0  0  0  0  0  0  0
   96.5700    4.0672   35.4425 N   0  0  0  0  0  0  0  0  0  0  0  0
   98.7942    3.4897   35.2166 N   0  0  0  0  0  0  0  0  0  0  0  0
   99.4156   -1.7419   38.7725 N   0  0  0  0  0  0  0  0  0  0  0  0
  100.0335   -2.2177   40.0055 C   0  0  2  0  0  0  0  0  0  0  0  0
  101.5511   -2.2006   39.7523 C   0  0  0  0  0  0  0  0  0  0  0  0
  102.2143   -1.1674   39.8363 O   0  0  0  0  0  0  0  0  0  0  0  0
   99.5402   -3.6472   40.2947 C   0  0  0  0  0  0  0  0  0  0  0  0
   98.2939   -3.7268   41.1919 C   0  0  0  0  0  0  0  0  0  0  0  0
   98.2901   -5.0741   41.9302 C   0  0  0  0  0  0  0  0  0  0  0  0
   97.0443   -5.3550   42.7562 C   0  0  0  0  0  0  0  0  0  0  0  0
   97.1918   -6.6430   43.4789 N   0  0  0  0  0  4  0  0  0  0  0  0
  102.1250   -3.4374   39.5209 N   0  0  0  0  0  0  0  0  0  0  0  0
  103.5914   -3.5284   39.3445 C   0  0  2  0  0  0  0  0  0  0  0  0
  104.3188   -2.1959   39.0786 C   0  0  0  0  0  0  0  0  0  0  0  0
  105.4788   -1.9841   39.4421 O   0  0  0  0  0  0  0  0  0  0  0  0
  103.9138   -4.5190   38.2161 C   0  0  0  0  0  0  0  0  0  0  0  0
  105.2118   -4.2223   37.6680 O   0  0  0  0  0  0  0  0  0  0  0  0
  103.6165   -1.2474   38.3718 N   0  0  0  0  0  0  0  0  0  0  0  0
  104.2709   -0.1379   37.6585 C   0  0  2  0  0  0  0  0  0  0  0  0
  103.2479    0.8420   37.0245 C   0  0  0  0  0  0  0  0  0  0  0  0
  102.6601    0.6155   35.9671 O   0  0  0  0  0  0  0  0  0  0  0  0
  105.3899   -0.5409   36.6534 C   0  0  2  0  0  0  0  0  0  0  0  0
  104.8928   -1.1357   35.4316 O   0  0  0  0  0  0  0  0  0  0  0  0
  106.3480   -1.5516   37.2806 C   0  0  0  0  0  0  0  0  0  0  0  0
  103.1596    2.0517   37.6648 N   0  0  0  0  0  0  0  0  0  0  0  0
  102.5867    2.1854   38.9952 C   0  0  0  0  0  0  0  0  0  0  0  0
  101.1346    2.6585   38.9636 C   0  0  0  0  0  0  0  0  0  0  0  0
  100.5384    2.9875   39.9839 O   0  0  0  0  0  0  0  0  0  0  0  0
  100.5803    2.7313   37.7001 N   0  0  0  0  0  0  0  0  0  0  0  0
   99.1319    2.7569   37.5566 C   0  0  0  0  0  0  0  0  0  0  0  0
   98.4802    4.0489   38.0416 C   0  0  0  0  0  0  0  0  0  0  0  0
   98.9886    5.1455   37.8409 O   0  0  0  0  0  0  0  0  0  0  0  0
   97.3363    3.8857   38.8048 N   0  0  0  0  0  0  0  0  0  0  0  0
   96.3382    4.9586   38.8501 C   0  0  1  0  0  0  0  0  0  0  0  0
   95.2553    4.7630   37.7785 C   0  0  0  0  0  0  0  0  0  0  0  0
   94.2727    3.6339   38.0990 C   0  0  0  0  0  0  0  0  0  0  0  0
   92.9298    3.8810   37.4112 C   0  0  0  0  0  0  0  0  0  0  0  0
   91.7953    3.1321   38.0911 C   0  0  0  0  0  0  0  0  0  0  0  0
   90.5274    3.5341   37.5091 N   0  0  0  0  0  0  0  0  0  0  0  0
   89.7525    2.6779   36.7664 C   0  0  0  0  0  0  0  0  0  0  0  0
   90.0390    1.5126   36.5100 O   0  0  0  0  0  0  0  0  0  0  0  0
   88.5341    3.2947   36.1806 C   0  0  0  0  0  0  0  0  0  0  0  0
   87.3677    2.6534   35.9843 C   0  0  0  0  0  0  0  0  0  0  0  0
   86.6483    2.6598   34.6796 C   0  0  0  0  0  0  0  0  0  0  0  0
   95.6432    5.0351   40.2294 C   0  0  0  0  0  0  0  0  0  0  0  0
   94.4432    5.2689   40.3490 O   0  0  0  0  0  0  0  0  0  0  0  0
   96.4257    4.6270   41.2803 N   0  0  0  0  0  0  0  0  0  0  0  0
   95.9555    3.7295   42.3314 C   0  0  2  0  0  0  0  0  0  0  0  0
   97.1744    3.5081   43.2472 C   0  0  0  0  0  0  0  0  0  0  0  0
   97.0832    2.7631   44.2335 O   0  0  0  0  0  0  0  0  0  0  0  0
   95.4886    2.4009   41.7512 C   0  0  0  0  0  0  0  0  0  0  0  0
   98.3348    4.1877   42.9840 N   0  0  0  0  0  0  0  0  0  0  0  0
   99.5687    3.8037   43.6766 C   0  0  2  0  0  0  0  0  0  0  0  0
   99.5851    4.3078   45.1247 C   0  0  0  0  0  0  0  0  0  0  0  0
  100.4466    4.0670   45.9640 O   0  0  0  0  0  0  0  0  0  0  0  0
  100.6860    4.4491   42.8562 C   0  0  0  0  0  0  0  0  0  0  0  0
   99.9986    5.6240   42.1633 C   0  0  0  0  0  0  0  0  0  0  0  0
   98.6032    5.0915   41.8807 C   0  0  0  0  0  0  0  0  0  0  0  0
   98.5613    5.1264   45.4492 O   0  0  0  0  0  0  0  0  0  0  0  0
  109.2943  -12.0886   34.4537 H   0  0  0  0  0  0  0  0  0  0  0  0
   97.0026    4.8294   35.9693 H   0  0  0  0  0  0  0  0  0  0  0  0
  1  2  1  0
  2  3  1  0
  2  5  1  6
  3  4  2  0
  3  6  1  0
  6  7  1  0
  7  8  1  0
  7 10  1  6
  8  9  2  0
  8 17  1  0
 10 11  1  0
 11 12  1  0
 12 13  1  0
 13 14  1  0
 14 15  2  0
 14 16  1  0
 18 17  1  1
 18 19  1  0
 18 21  1  0
 19 20  2  0
 19 24  1  0
 21 22  1  0
 21 23  1  1
 24 25  1  0
 25 26  1  0
 25 28  1  6
 26 27  2  0
 26 33  1  0
 28 29  1  0
 29 30  1  0
 30 31  1  0
 31 32  1  0
 33 34  1  0
 34 35  1  0
 34 37  1  1
 35 36  2  0
 35 42  1  0
 37 38  1  0
 38 39  1  0
 39 40  2  0
 39 41  1  0
 43 42  1  6
 43 44  1  0
 43 46  1  0
 44 45  2  0
 44 49  1  0
 46 47  1  0
 46 48  1  1
 49 50  1  0
 50 51  1  0
 50 53  1  6
 51 52  2  0
 51 54  1  0
 54 55  1  0
 55 56  1  0
 55 58  1  1
 56 57  2  0
 56 65  1  0
 58 59  1  0
 59 60  1  0
 60 61  1  0
 61 62  1  0
 62 63  2  0
 62 64  1  0
 65 66  1  0
 66 67  1  0
 66 69  1  6
 67 68  2  0
 67 74  1  0
 69 70  1  0
 70 71  1  0
 71 72  1  0
 72 73  1  0
 74 75  1  0
 75 76  1  0
 75 78  1  6
 76 77  2  0
 76 80  1  0
 78 79  1  0
 81 80  1  6
 81 82  1  0
 81 84  1  0
 82 83  2  0
 82 87  1  0
 84 85  1  0
 84 86  1  1
 87 88  1  0
 88 89  1  0
 89 90  2  0
 89 91  1  0
 91 92  1  0
 92 93  1  0
 93 94  2  0
 93 95  1  0
 95 96  1  0
 96 97  1  6
 96107  1  0
 97 98  1  0
 98 99  1  0
 99100  1  0
100101  1  0
101102  1  0
102103  2  0
102104  1  0
104105  2  0
105106  1  0
107108  2  0
107109  1  0
109110  1  0
110111  1  0
110113  1  6
111112  2  0
111114  1  0
114115  1  0
114120  1  0
115116  1  1
115118  1  0
116117  2  0
116121  1  0
118119  1  0
119120  1  0
 15122  1  0
 63123  1  0
M  CHG  3   1   1  32   1  73   1
M  END
$$$$
