
     RDKit          3D

123123  0  0  0  0  0  0  0  0999 V2000
  104.7659  -12.7594   41.5115 N   0  0  0  0  0  4  0  0  0  0  0  0
  104.4234  -13.1483   40.1107 C   0  0  2  0  0  0  0  0  0  0  0  0
  104.7730  -12.0083   39.1381 C   0  0  0  0  0  0  0  0  0  0  0  0
  104.8817  -10.8485   39.5465 O   0  0  0  0  0  0  0  0  0  0  0  0
  102.9554  -13.5224   40.0524 C   0  0  0  0  0  0  0  0  0  0  0  0
  104.9750  -12.3736   37.8259 N   0  0  0  0  0  0  0  0  0  0  0  0
  105.3091  -11.3722   36.8037 C   0  0  2  0  0  0  0  0  0  0  0  0
  104.3395  -10.1937   37.0555 C   0  0  0  0  0  0  0  0  0  0  0  0
  104.7205   -9.1410   37.5630 O   0  0  0  0  0  0  0  0  0  0  0  0
  105.1699  -11.9798   35.4053 C   0  0  0  0  0  0  0  0  0  0  0  0
  106.2890  -11.6174   34.4220 C   0  0  0  0  0  0  0  0  0  0  0  0
  105.7308  -11.2246   33.0428 C   0  0  0  0  0  0  0  0  0  0  0  0
  104.6655  -12.1354   32.6729 N   0  0  0  0  0  0  0  0  0  0  0  0
  103.9310  -12.0152   31.5437 C   0  0  0  0  0  0  0  0  0  0  0  0
  102.6555  -12.1685   31.4543 N   0  0  0  0  0  0  0  0  0  0  0  0
  104.7152  -11.7758   30.4761 N   0  0  0  0  0  0  0  0  0  0  0  0
  103.0425  -10.3704   36.5973 N   0  0  0  0  0  0  0  0  0  0  0  0
  102.2563   -9.2019   36.1504 C   0  0  2  0  0  0  0  0  0  0  0  0
  102.1381   -9.3266   34.6176 C   0  0  0  0  0  0  0  0  0  0  0  0
  102.5491  -10.2883   33.9651 O   0  0  0  0  0  0  0  0  0  0  0  0
  102.8217   -7.8563   36.6558 C   0  0  2  0  0  0  0  0  0  0  0  0
  103.6965   -7.3474   35.6309 O   0  0  0  0  0  0  0  0  0  0  0  0
  103.6224   -8.0043   37.9420 C   0  0  0  0  0  0  0  0  0  0  0  0
  101.5246   -8.2331   34.0033 N   0  0  0  0  0  0  0  0  0  0  0  0
  100.2681   -8.4283   33.2606 C   0  0  2  0  0  0  0  0  0  0  0  0
   99.4898   -7.2211   32.6895 C   0  0  0  0  0  0  0  0  0  0  0  0
   98.4673   -6.8179   33.2461 O   0  0  0  0  0  0  0  0  0  0  0  0
   99.2591   -9.2318   34.1364 C   0  0  0  0  0  0  0  0  0  0  0  0
   99.5540  -10.7430   34.1861 C   0  0  0  0  0  0  0  0  0  0  0  0
   98.3234  -11.6545   34.3354 C   0  0  0  0  0  0  0  0  0  0  0  0
   97.1180  -11.2729   33.4859 C   0  0  0  0  0  0  0  0  0  0  0  0
   96.2655  -12.4576   33.2358 N   0  0  0  0  0  4  0  0  0  0  0  0
  100.1058   -6.5743   31.6538 N   0  0  0  0  0  0  0  0  0  0  0  0
   99.3734   -6.1145   30.4907 C   0  0  2  0  0  0  0  0  0  0  0  0
   97.9754   -5.5806   30.8593 C   0  0  0  0  0  0  0  0  0  0  0  0
   97.4111   -4.7434   30.1531 O   0  0  0  0  0  0  0  0  0  0  0  0
   99.2124   -7.2550   29.4666 C   0  0  0  0  0  0  0  0  0  0  0  0
  100.4743   -7.6513   28.6895 C   0  0  0  0  0  0  0  0  0  0  0  0
  100.6914   -6.8717   27.4122 C   0  0  0  0  0  0  0  0  0  0  0  0
  101.1308   -5.7278   27.3627 O   0  0  0  0  0  0  0  0  0  0  0  0
  100.4170   -7.5697   26.2725 N   0  0  0  0  0  0  0  0  0  0  0  0
   97.3245   -6.1950   31.9095 N   0  0  0  0  0  0  0  0  0  0  0  0
   95.9956   -5.7385   32.3125 C   0  0  2  0  0  0  0  0  0  0  0  0
   95.6276   -6.1421   33.7643 C   0  0  0  0  0  0  0  0  0  0  0  0
   95.3880   -5.3083   34.6362 O   0  0  0  0  0  0  0  0  0  0  0  0
   94.8721   -6.1990   31.3406 C   0  0  2  0  0  0  0  0  0  0  0  0
   94.9345   -7.6258   31.1611 O   0  0  0  0  0  0  0  0  0  0  0  0
   94.9017   -5.5236   29.9757 C   0  0  0  0  0  0  0  0  0  0  0  0
   95.5687   -7.5101   34.0131 N   0  0  0  0  0  0  0  0  0  0  0  0
   94.7955   -7.8993   35.1959 C   0  0  2  0  0  0  0  0  0  0  0  0
   95.2662   -7.2662   36.5245 C   0  0  0  0  0  0  0  0  0  0  0  0
   94.4836   -6.8228   37.3577 O   0  0  0  0  0  0  0  0  0  0  0  0
   94.8208   -9.4214   35.3443 C   0  0  0  0  0  0  0  0  0  0  0  0
   96.6234   -7.3840   36.7812 N   0  0  0  0  0  0  0  0  0  0  0  0
   97.1413   -6.8053   38.0374 C   0  0  2  0  0  0  0  0  0  0  0  0
   97.2872   -5.2658   38.0018 C   0  0  0  0  0  0  0  0  0  0  0  0
   98.3129   -4.6925   38.3716 O   0  0  0  0  0  0  0  0  0  0  0  0
   98.5183   -7.4270   38.3405 C   0  0  0  0  0  0  0  0  0  0  0  0
   98.5171   -8.9322   38.6442 C   0  0  0  0  0  0  0  0  0  0  0  0
   99.9191   -9.5186   38.8069 C   0  0  0  0  0  0  0  0  0  0  0  0
  100.2611   -9.6039   40.2126 N   0  0  0  0  0  0  0  0  0  0  0  0
  101.3913  -10.2251   40.6232 C   0  0  0  0  0  0  0  0  0  0  0  0
  102.4024   -9.6092   41.1169 N   0  0  0  0  0  0  0  0  0  0  0  0
  101.3394  -11.5648   40.5030 N   0  0  0  0  0  0  0  0  0  0  0  0
   96.2798   -4.5873   37.3635 N   0  0  0  0  0  0  0  0  0  0  0  0
   96.3139   -3.1414   37.1727 C   0  0  2  0  0  0  0  0  0  0  0  0
   97.3872   -2.6121   38.1399 C   0  0  0  0  0  0  0  0  0  0  0  0
   97.5282   -3.0727   39.2724 O   0  0  0  0  0  0  0  0  0  0  0  0
   94.9305   -2.5575   37.5133 C   0  0  0  0  0  0  0  0  0  0  0  0
   94.8260   -1.0301   37.3711 C   0  0  0  0  0  0  0  0  0  0  0  0
   93.3848   -0.5934   37.6753 C   0  0  0  0  0  0  0  0  0  0  0  0
   92.8501    0.5279   36.7978 C   0  0  0  0  0  0  0  0  0  0  0  0
   91.4545    0.8548   37.1826 N   0  0  0  0  0  4  0  0  0  0  0  0
   98.2368   -1.6563   37.6134 N   0  0  0  0  0  0  0  0  0  0  0  0
   99.3188   -1.1096   38.4620 C   0  0  2  0  0  0  0  0  0  0  0  0
  100.1182    0.0613   37.8577 C   0  0  0  0  0  0  0  0  0  0  0  0
  100.6315    0.9463   38.5477 O   0  0  0  0  0  0  0  0  0  0  0  0
  100.2845   -2.2370   38.8549 C   0  0  0  0  0  0  0  0  0  0  0  0
  100.3590   -3.2033   37.7900 O   0  0  0  0  0  0  0  0  0  0  0  0
  100.2687    0.0564   36.4902 N   0  0  0  0  0  0  0  0  0  0  0  0
  100.2102    1.2826   35.6772 C   0  0  2  0  0  0  0  0  0  0  0  0
   99.6546    2.4934   36.4734 C   0  0  0  0  0  0  0  0  0  0  0  0
   98.7003    3.1719   36.0942 O   0  0  0  0  0  0  0  0  0  0  0  0
   99.5315    1.1430   34.2827 C   0  0  2  0  0  0  0  0  0  0  0  0
   98.1040    0.9154   34.3466 O   0  0  0  0  0  0  0  0  0  0  0  0
  100.1316   -0.0223   33.4986 C   0  0  0  0  0  0  0  0  0  0  0  0
  100.4075    2.8383   37.5668 N   0  0  0  0  0  0  0  0  0  0  0  0
  100.2063    4.0874   38.2847 C   0  0  0  0  0  0  0  0  0  0  0  0
   98.7607    4.2753   38.7408 C   0  0  0  0  0  0  0  0  0  0  0  0
   97.8935    4.7018   37.9853 O   0  0  0  0  0  0  0  0  0  0  0  0
   98.5111    3.8794   40.0408 N   0  0  0  0  0  0  0  0  0  0  0  0
   97.1895    3.3816   40.3940 C   0  0  0  0  0  0  0  0  0  0  0  0
   97.1735    1.9256   40.8513 C   0  0  0  0  0  0  0  0  0  0  0  0
   96.4273    1.5346   41.7409 O   0  0  0  0  0  0  0  0  0  0  0  0
   98.1250    1.1092   40.2634 N   0  0  0  0  0  0  0  0  0  0  0  0
   97.8622   -0.3269   40.1292 C   0  0  1  0  0  0  0  0  0  0  0  0
   97.2740   -0.6633   38.7508 C   0  0  0  0  0  0  0  0  0  0  0  0
   96.0037   -1.5148   38.8176 C   0  0  0  0  0  0  0  0  0  0  0  0
   96.3300   -2.9265   39.3056 C   0  0  0  0  0  0  0  0  0  0  0  0
   95.0866   -3.6744   39.7582 C   0  0  0  0  0  0  0  0  0  0  0  0
   95.4178   -5.0656   40.0082 N   0  0  0  0  0  0  0  0  0  0  0  0
   94.5104   -5.9588   40.5218 C   0  0  0  0  0  0  0  0  0  0  0  0
   93.9478   -6.8390   39.8783 O   0  0  0  0  0  0  0  0  0  0  0  0
   94.1561   -5.7320   41.9471 C   0  0  0  0  0  0  0  0  0  0  0  0
   94.7199   -6.3698   42.9890 C   0  0  0  0  0  0  0  0  0  0  0  0
   94.1883   -7.6471   43.5420 C   0  0  0  0  0  0  0  0  0  0  0  0
   99.1481   -1.1640   40.3220 C   0  0  0  0  0  0  0  0  0  0  0  0
   99.1392   -2.2689   40.8585 O   0  0  0  0  0  0  0  0  0  0  0  0
  100.2498   -0.6656   39.6729 N   0  0  0  0  0  0  0  0  0  0  0  0
  101.6183   -0.8734   40.1370 C   0  0  2  0  0  0  0  0  0  0  0  0
  101.4796   -1.3965   41.5793 C   0  0  0  0  0  0  0  0  0  0  0  0
  100.5150   -1.0494   42.2760 O   0  0  0  0  0  0  0  0  0  0  0  0
  102.4060    0.4302   40.1265 C   0  0  0  0  0  0  0  0  0  0  0  0
  102.4631   -2.2018   42.0911 N   0  0  0  0  0  0  0  0  0  0  0  0
  102.3103   -2.7599   43.4382 C   0  0  2  0  0  0  0  0  0  0  0  0
  102.5873   -1.7097   44.5206 C   0  0  0  0  0  0  0  0  0  0  0  0
  103.2324   -0.6764   44.3766 O   0  0  0  0  0  0  0  0  0  0  0  0
  103.3307   -3.8970   43.5004 C   0  0  0  0  0  0  0  0  0  0  0  0
  104.3790   -3.5046   42.4611 C   0  0  0  0  0  0  0  0  0  0  0  0
  103.5550   -2.8339   41.3740 C   0  0  0  0  0  0  0  0  0  0  0  0
  102.0101   -1.9638   45.7147 O   0  0  0  0  0  0  0  0  0  0  0  0
  102.5138  -13.0877   31.0196 H   0  0  0  0  0  0  0  0  0  0  0  0
  102.6174   -8.7915   40.5419 H   0  0  0  0  0  0  0  0  0  0  0  0
  1  2  1  0
  2  3  1  0
  2  5  1  1
  3  4  2  0
  3  6  1  0
  6  7  1  0
  7  8  1  0
  7 10  1  6
  8  9  2  0
  8 17  1  0
 10 11  1  0
 11 12  1  0
 12 13  1  0
 13 14  1  0
 14 15  2  0
 14 16  1  0
 18 17  1  6
 18 19  1  0
 18 21  1  0
 19 20  2  0
 19 24  1  0
 21 22  1  0
 21 23  1  1
 24 25  1  0
 25 26  1  0
 25 28  1  1
 26 27  2  0
 26 33  1  0
 28 29  1  0
 29 30  1  0
 30 31  1  0
 31 32  1  0
 33 34  1  0
 34 35  1  0
 34 37  1  6
 35 36  2  0
 35 42  1  0
 37 38  1  0
 38 39  1  0
 39 40  2  0
 39 41  1  0
 43 42  1  6
 43 44  1  0
 43 46  1  0
 44 45  2  0
 44 49  1  0
 46 47  1  0
 46 48  1  6
 49 50  1  0
 50 51  1  0
 50 53  1  1
 51 52  2  0
 51 54  1  0
 54 55  1  0
 55 56  1  0
 55 58  1  6
 56 57  2  0
 56 65  1  0
 58 59  1  0
 59 60  1  0
 60 61  1  0
 61 62  1  0
 62 63  2  0
 62 64  1  0
 65 66  1  0
 66 67  1  0
 66 69  1  1
 67 68  2  0
 67 74  1  0
 69 70  1  0
 70 71  1  0
 71 72  1  0
 72 73  1  0
 74 75  1  0
 75 76  1  0
 75 78  1  6
 76 77  2  0
 76 80  1  0
 78 79  1  0
 81 80  1  1
 81 82  1  0
 81 84  1  0
 82 83  2  0
 82 87  1  0
 84 85  1  0
 84 86  1  1
 87 88  1  0
 88 89  1  0
 89 90  2  0
 89 91  1  0
 91 92  1  0
 92 93  1  0
 93 94  2  0
 93 95  1  0
 95 96  1  0
 96 97  1  6
 96107  1  0
 97 98  1  0
 98 99  1  0
 99100  1  0
100101  1  0
101102  1  0
102103  2  0
102104  1  0
104105  2  0
105106  1  0
107108  2  0
107109  1  0
109110  1  0
110111  1  0
110113  1  1
111112  2  0
111114  1  0
114115  1  0
114120  1  0
115116  1  1
115118  1  0
116117  2  0
116121  1  0
118119  1  0
119120  1  0
 15122  1  0
 63123  1  0
M  CHG  3   1   1  32   1  73   1
M  END
$$$$
