
     RDKit          3D

123123  0  0  0  0  0  0  0  0999 V2000
  104.0961  -13.0392   36.6496 N   0  0  0  0  0  4  0  0  0  0  0  0
  102.6440  -12.7470   36.4577 C   0  0  2  0  0  0  0  0  0  0  0  0
  102.1490  -13.3439   35.1286 C   0  0  0  0  0  0  0  0  0  0  0  0
  102.9357  -13.5339   34.1964 O   0  0  0  0  0  0  0  0  0  0  0  0
  102.4340  -11.2471   36.5266 C   0  0  0  0  0  0  0  0  0  0  0  0
  100.8111  -13.6642   35.0706 N   0  0  0  0  0  0  0  0  0  0  0  0
  100.2225  -14.2421   33.8545 C   0  0  2  0  0  0  0  0  0  0  0  0
   99.6602  -13.0385   33.0623 C   0  0  0  0  0  0  0  0  0  0  0  0
  100.2657  -11.9710   32.9933 O   0  0  0  0  0  0  0  0  0  0  0  0
   99.1531  -15.2730   34.2251 C   0  0  0  0  0  0  0  0  0  0  0  0
   99.6416  -16.4354   35.0974 C   0  0  0  0  0  0  0  0  0  0  0  0
   98.4975  -17.4011   35.4532 C   0  0  0  0  0  0  0  0  0  0  0  0
   98.9232  -18.7663   35.2162 N   0  0  0  0  0  0  0  0  0  0  0  0
   99.7899  -19.4330   36.0120 C   0  0  0  0  0  0  0  0  0  0  0  0
  101.0565  -19.5531   35.8130 N   0  0  0  0  0  0  0  0  0  0  0  0
   99.1502  -20.0333   37.0331 N   0  0  0  0  0  0  0  0  0  0  0  0
   98.4800  -13.2688   32.3712 N   0  0  0  0  0  0  0  0  0  0  0  0
   97.7268  -12.1305   31.8053 C   0  0  2  0  0  0  0  0  0  0  0  0
   98.0848  -10.9067   32.6732 C   0  0  0  0  0  0  0  0  0  0  0  0
   98.5397  -10.9753   33.8168 O   0  0  0  0  0  0  0  0  0  0  0  0
   96.2146  -12.4104   31.6609 C   0  0  2  0  0  0  0  0  0  0  0  0
   95.5508  -11.7520   32.7565 O   0  0  0  0  0  0  0  0  0  0  0  0
   95.8862  -13.8956   31.7217 C   0  0  0  0  0  0  0  0  0  0  0  0
   97.8374   -9.6792   32.0555 N   0  0  0  0  0  0  0  0  0  0  0  0
   98.0130   -8.4332   32.8204 C   0  0  2  0  0  0  0  0  0  0  0  0
   96.7971   -7.7032   33.4352 C   0  0  0  0  0  0  0  0  0  0  0  0
   96.9523   -6.6609   34.0736 O   0  0  0  0  0  0  0  0  0  0  0  0
   98.7661   -7.3827   31.9485 C   0  0  0  0  0  0  0  0  0  0  0  0
   97.8365   -6.5576   31.0385 C   0  0  0  0  0  0  0  0  0  0  0  0
   98.5415   -5.5819   30.0800 C   0  0  0  0  0  0  0  0  0  0  0  0
   97.6211   -4.7629   29.1843 C   0  0  0  0  0  0  0  0  0  0  0  0
   96.2061   -5.1260   29.4265 N   0  0  0  0  0  4  0  0  0  0  0  0
   95.5780   -8.2113   33.0802 N   0  0  0  0  0  0  0  0  0  0  0  0
   94.3362   -7.6146   33.5300 C   0  0  2  0  0  0  0  0  0  0  0  0
   93.7306   -8.3701   34.7290 C   0  0  0  0  0  0  0  0  0  0  0  0
   92.8410   -7.8619   35.4135 O   0  0  0  0  0  0  0  0  0  0  0  0
   93.3019   -7.5912   32.3875 C   0  0  0  0  0  0  0  0  0  0  0  0
   92.1721   -6.5616   32.5172 C   0  0  0  0  0  0  0  0  0  0  0  0
   91.2103   -6.5399   31.3507 C   0  0  0  0  0  0  0  0  0  0  0  0
   90.0105   -6.7796   31.4350 O   0  0  0  0  0  0  0  0  0  0  0  0
   91.7702   -6.1610   30.1656 N   0  0  0  0  0  0  0  0  0  0  0  0
   94.1077   -9.6866   34.8983 N   0  0  0  0  0  0  0  0  0  0  0  0
   94.8240  -10.0915   36.1065 C   0  0  2  0  0  0  0  0  0  0  0  0
   95.7383   -8.9750   36.6751 C   0  0  0  0  0  0  0  0  0  0  0  0
   96.3408   -8.1867   35.9481 O   0  0  0  0  0  0  0  0  0  0  0  0
   95.6479  -11.3972   35.9181 C   0  0  2  0  0  0  0  0  0  0  0  0
   96.9748  -11.0771   35.4610 O   0  0  0  0  0  0  0  0  0  0  0  0
   95.0225  -12.4064   34.9639 C   0  0  0  0  0  0  0  0  0  0  0  0
   95.8196   -8.9110   38.0629 N   0  0  0  0  0  0  0  0  0  0  0  0
   97.0694   -8.3581   38.5928 C   0  0  2  0  0  0  0  0  0  0  0  0
   97.9305   -7.5850   37.5688 C   0  0  0  0  0  0  0  0  0  0  0  0
   97.5065   -7.2532   36.4673 O   0  0  0  0  0  0  0  0  0  0  0  0
   97.9141   -9.4850   39.1891 C   0  0  0  0  0  0  0  0  0  0  0  0
   99.1576   -7.1499   38.0450 N   0  0  0  0  0  0  0  0  0  0  0  0
  100.0286   -6.3955   37.1213 C   0  0  2  0  0  0  0  0  0  0  0  0
  101.4151   -6.0495   37.7135 C   0  0  0  0  0  0  0  0  0  0  0  0
  102.3738   -5.7360   37.0064 O   0  0  0  0  0  0  0  0  0  0  0  0
   99.3179   -5.0867   36.7255 C   0  0  0  0  0  0  0  0  0  0  0  0
   98.2905   -4.5552   37.7353 C   0  0  0  0  0  0  0  0  0  0  0  0
   97.6552   -3.2307   37.3131 C   0  0  0  0  0  0  0  0  0  0  0  0
   98.4233   -2.6320   36.2399 N   0  0  0  0  0  0  0  0  0  0  0  0
   99.0272   -1.4307   36.3949 C   0  0  0  0  0  0  0  0  0  0  0  0
   98.7391   -0.3942   35.6962 N   0  0  0  0  0  0  0  0  0  0  0  0
   99.9368   -1.4131   37.3870 N   0  0  0  0  0  0  0  0  0  0  0  0
  101.4663   -5.9332   39.0797 N   0  0  0  0  0  0  0  0  0  0  0  0
  102.7128   -6.0644   39.8262 C   0  0  2  0  0  0  0  0  0  0  0  0
  103.7702   -5.2856   39.0244 C   0  0  0  0  0  0  0  0  0  0  0  0
  104.4599   -5.8246   38.1594 O   0  0  0  0  0  0  0  0  0  0  0  0
  103.0846   -7.5553   39.9237 C   0  0  0  0  0  0  0  0  0  0  0  0
  102.5547   -8.2680   41.1789 C   0  0  0  0  0  0  0  0  0  0  0  0
  103.7435   -8.7320   42.0343 C   0  0  0  0  0  0  0  0  0  0  0  0
  104.6541   -9.7561   41.3745 C   0  0  0  0  0  0  0  0  0  0  0  0
  105.9567   -9.8117   42.0837 N   0  0  0  0  0  4  0  0  0  0  0  0
  103.8204   -3.9268   39.2774 N   0  0  0  0  0  0  0  0  0  0  0  0
  104.3204   -3.0167   38.2232 C   0  0  2  0  0  0  0  0  0  0  0  0
  104.3471   -1.5194   38.5873 C   0  0  0  0  0  0  0  0  0  0  0  0
  104.8290   -1.0968   39.6417 O   0  0  0  0  0  0  0  0  0  0  0  0
  103.4999   -3.2148   36.9403 C   0  0  0  0  0  0  0  0  0  0  0  0
  102.1263   -3.4809   37.2808 O   0  0  0  0  0  0  0  0  0  0  0  0
  103.8327   -0.6538   37.6497 N   0  0  0  0  0  0  0  0  0  0  0  0
  103.1195    0.5822   38.0122 C   0  0  2  0  0  0  0  0  0  0  0  0
  103.3418    0.9792   39.4960 C   0  0  0  0  0  0  0  0  0  0  0  0
  103.8544    2.0433   39.8420 O   0  0  0  0  0  0  0  0  0  0  0  0
  101.6153    0.6419   37.6135 C   0  0  2  0  0  0  0  0  0  0  0  0
  100.7373   -0.0433   38.5372 O   0  0  0  0  0  0  0  0  0  0  0  0
  101.3903    0.0142   36.2394 C   0  0  0  0  0  0  0  0  0  0  0  0
  103.0532   -0.0181   40.3923 N   0  0  0  0  0  0  0  0  0  0  0  0
  103.0455    0.2083   41.8292 C   0  0  0  0  0  0  0  0  0  0  0  0
  102.3896    1.5341   42.2104 C   0  0  0  0  0  0  0  0  0  0  0  0
  103.0376    2.4685   42.6706 O   0  0  0  0  0  0  0  0  0  0  0  0
  101.0352    1.6033   41.9460 N   0  0  0  0  0  0  0  0  0  0  0  0
  100.3100    2.8278   42.2520 C   0  0  0  0  0  0  0  0  0  0  0  0
  100.7187    4.0245   41.3973 C   0  0  0  0  0  0  0  0  0  0  0  0
  101.5220    3.9193   40.4781 O   0  0  0  0  0  0  0  0  0  0  0  0
  100.1980    5.2438   41.7970 N   0  0  0  0  0  0  0  0  0  0  0  0
  100.3589    6.4169   40.9324 C   0  0  1  0  0  0  0  0  0  0  0  0
  100.1615    6.0548   39.4529 C   0  0  0  0  0  0  0  0  0  0  0  0
  100.0900    4.5477   39.1949 C   0  0  0  0  0  0  0  0  0  0  0  0
   99.8755    4.2684   37.7072 C   0  0  0  0  0  0  0  0  0  0  0  0
  101.1592    3.8355   37.0179 C   0  0  0  0  0  0  0  0  0  0  0  0
  101.6379    2.5993   37.6097 N   0  0  0  0  0  0  0  0  0  0  0  0
  102.8766    2.0783   37.3282 C   0  0  0  0  0  0  0  0  0  0  0  0
  103.6255    2.4821   36.4440 O   0  0  0  0  0  0  0  0  0  0  0  0
  103.2411    0.8795   38.1271 C   0  0  0  0  0  0  0  0  0  0  0  0
  104.4157    0.2288   38.0426 C   0  0  0  0  0  0  0  0  0  0  0  0
  104.7975   -0.8785   38.9635 C   0  0  0  0  0  0  0  0  0  0  0  0
   99.3536    7.5352   41.2933 C   0  0  0  0  0  0  0  0  0  0  0  0
   98.3111    7.7092   40.6674 O   0  0  0  0  0  0  0  0  0  0  0  0
   99.6223    8.1770   42.4762 N   0  0  0  0  0  0  0  0  0  0  0  0
  100.5877    9.2652   42.5989 C   0  0  2  0  0  0  0  0  0  0  0  0
  100.1903   10.2809   41.5108 C   0  0  0  0  0  0  0  0  0  0  0  0
  101.0614   10.9532   40.9405 O   0  0  0  0  0  0  0  0  0  0  0  0
  102.0078    8.7697   42.3587 C   0  0  0  0  0  0  0  0  0  0  0  0
   98.8623   10.4645   41.2271 N   0  0  0  0  0  0  0  0  0  0  0  0
   98.4760   11.3455   40.1208 C   0  0  2  0  0  0  0  0  0  0  0  0
   98.6140   12.8247   40.5007 C   0  0  0  0  0  0  0  0  0  0  0  0
   99.4569   13.6055   40.0712 O   0  0  0  0  0  0  0  0  0  0  0  0
   97.0182   10.9845   39.8337 C   0  0  0  0  0  0  0  0  0  0  0  0
   96.5179   10.4060   41.1558 C   0  0  0  0  0  0  0  0  0  0  0  0
   97.7371    9.6790   41.6995 C   0  0  0  0  0  0  0  0  0  0  0  0
   97.6716   13.2786   41.3549 O   0  0  0  0  0  0  0  0  0  0  0  0
  101.3389  -20.4044   36.3126 H   0  0  0  0  0  0  0  0  0  0  0  0
   97.8897   -0.5729   35.1558 H   0  0  0  0  0  0  0  0  0  0  0  0
  1  2  1  0
  2  3  1  0
  2  5  1  6
  3  4  2  0
  3  6  1  0
  6  7  1  0
  7  8  1  0
  7 10  1  1
  8  9  2  0
  8 17  1  0
 10 11  1  0
 11 12  1  0
 12 13  1  0
 13 14  1  0
 14 15  2  0
 14 16  1  0
 18 17  1  1
 18 19  1  0
 18 21  1  0
 19 20  2  0
 19 24  1  0
 21 22  1  0
 21 23  1  1
 24 25  1  0
 25 26  1  0
 25 28  1  6
 26 27  2  0
 26 33  1  0
 28 29  1  0
 29 30  1  0
 30 31  1  0
 31 32  1  0
 33 34  1  0
 34 35  1  0
 34 37  1  6
 35 36  2  0
 35 42  1  0
 37 38  1  0
 38 39  1  0
 39 40  2  0
 39 41  1  0
 43 42  1  6
 43 44  1  0
 43 46  1  0
 44 45  2  0
 44 49  1  0
 46 47  1  0
 46 48  1  6
 49 50  1  0
 50 51  1  0
 50 53  1  6
 51 52  2  0
 51 54  1  0
 54 55  1  0
 55 56  1  0
 55 58  1  1
 56 57  2  0
 56 65  1  0
 58 59  1  0
 59 60  1  0
 60 61  1  0
 61 62  1  0
 62 63  2  0
 62 64  1  0
 65 66  1  0
 66 67  1  0
 66 69  1  6
 67 68  2  0
 67 74  1  0
 69 70  1  0
 70 71  1  0
 71 72  1  0
 72 73  1  0
 74 75  1  0
 75 76  1  0
 75 78  1  6
 76 77  2  0
 76 80  1  0
 78 79  1  0
 81 80  1  1
 81 82  1  0
 81 84  1  0
 82 83  2  0
 82 87  1  0
 84 85  1  0
 84 86  1  6
 87 88  1  0
 88 89  1  0
 89 90  2  0
 89 91  1  0
 91 92  1  0
 92 93  1  0
 93 94  2  0
 93 95  1  0
 95 96  1  0
 96 97  1  6
 96107  1  0
 97 98  1  0
 98 99  1  0
 99100  1  0
100101  1  0
101102  1  0
102103  2  0
102104  1  0
104105  2  0
105106  1  0
107108  2  0
107109  1  0
109110  1  0
110111  1  0
110113  1  6
111112  2  0
111114  1  0
114115  1  0
114120  1  0
115116  1  1
115118  1  0
116117  2  0
116121  1  0
118119  1  0
119120  1  0
 15122  1  0
 63123  1  0
M  CHG  3   1   1  32   1  73   1
M  END
$$$$
