
     RDKit          3D

123123  0  0  0  0  0  0  0  0999 V2000
  102.9595  -17.8041   36.6738 N   0  0  0  0  0  4  0  0  0  0  0  0
  103.2601  -16.6342   35.7954 C   0  0  2  0  0  0  0  0  0  0  0  0
  102.4552  -15.4036   36.2487 C   0  0  0  0  0  0  0  0  0  0  0  0
  102.4677  -15.0484   37.4309 O   0  0  0  0  0  0  0  0  0  0  0  0
  102.9659  -17.0143   34.3576 C   0  0  0  0  0  0  0  0  0  0  0  0
  101.7647  -14.7356   35.2623 N   0  0  0  0  0  0  0  0  0  0  0  0
  101.1535  -13.4245   35.5205 C   0  0  2  0  0  0  0  0  0  0  0  0
  100.3204  -13.1072   34.2565 C   0  0  0  0  0  0  0  0  0  0  0  0
  100.7542  -13.3214   33.1264 O   0  0  0  0  0  0  0  0  0  0  0  0
  102.2395  -12.3834   35.8044 C   0  0  0  0  0  0  0  0  0  0  0  0
  102.9839  -12.5623   37.1327 C   0  0  0  0  0  0  0  0  0  0  0  0
  104.0115  -11.4408   37.3658 C   0  0  0  0  0  0  0  0  0  0  0  0
  103.8317  -10.8858   38.6927 N   0  0  0  0  0  0  0  0  0  0  0  0
  104.0678  -11.5723   39.8338 C   0  0  0  0  0  0  0  0  0  0  0  0
  104.9195  -12.5276   39.9762 N   0  0  0  0  0  0  0  0  0  0  0  0
  103.2393  -11.1785   40.8190 N   0  0  0  0  0  0  0  0  0  0  0  0
   99.0312  -12.6487   34.4824 N   0  0  0  0  0  0  0  0  0  0  0  0
   98.2161  -12.1625   33.3500 C   0  0  2  0  0  0  0  0  0  0  0  0
   97.9813  -10.6597   33.6060 C   0  0  0  0  0  0  0  0  0  0  0  0
   98.2264  -10.0900   34.6713 O   0  0  0  0  0  0  0  0  0  0  0  0
   96.9356  -12.9945   33.1178 C   0  0  2  0  0  0  0  0  0  0  0  0
   96.1529  -12.9218   34.3247 O   0  0  0  0  0  0  0  0  0  0  0  0
   97.2341  -14.4584   32.8254 C   0  0  0  0  0  0  0  0  0  0  0  0
   97.4438   -9.9738   32.5151 N   0  0  0  0  0  0  0  0  0  0  0  0
   96.4661   -8.8969   32.7447 C   0  0  2  0  0  0  0  0  0  0  0  0
   95.7274   -8.7728   34.0967 C   0  0  0  0  0  0  0  0  0  0  0  0
   94.8596   -7.9130   34.2572 O   0  0  0  0  0  0  0  0  0  0  0  0
   95.3658   -8.9416   31.6410 C   0  0  0  0  0  0  0  0  0  0  0  0
   94.4774   -7.6836   31.6057 C   0  0  0  0  0  0  0  0  0  0  0  0
   93.3786   -7.6774   30.5287 C   0  0  0  0  0  0  0  0  0  0  0  0
   92.3071   -6.6071   30.6914 C   0  0  0  0  0  0  0  0  0  0  0  0
   91.2944   -6.7213   29.6172 N   0  0  0  0  0  4  0  0  0  0  0  0
   96.0000   -9.7654   34.9973 N   0  0  0  0  0  0  0  0  0  0  0  0
   95.3768   -9.8089   36.3050 C   0  0  2  0  0  0  0  0  0  0  0  0
   96.4137   -9.7511   37.4438 C   0  0  0  0  0  0  0  0  0  0  0  0
   96.2344  -10.3682   38.4951 O   0  0  0  0  0  0  0  0  0  0  0  0
   94.5402  -11.0936   36.4636 C   0  0  0  0  0  0  0  0  0  0  0  0
   93.0355  -10.8988   36.6901 C   0  0  0  0  0  0  0  0  0  0  0  0
   92.2856  -12.1677   37.0275 C   0  0  0  0  0  0  0  0  0  0  0  0
   92.7933  -13.1590   37.5410 O   0  0  0  0  0  0  0  0  0  0  0  0
   90.9461  -12.1152   36.7735 N   0  0  0  0  0  0  0  0  0  0  0  0
   97.6107   -9.1204   37.1729 N   0  0  0  0  0  0  0  0  0  0  0  0
   98.7697   -9.3526   38.0331 C   0  0  2  0  0  0  0  0  0  0  0  0
   99.9925   -8.4756   37.6567 C   0  0  0  0  0  0  0  0  0  0  0  0
  101.0742   -8.5762   38.2334 O   0  0  0  0  0  0  0  0  0  0  0  0
   99.1958  -10.8472   38.0915 C   0  0  2  0  0  0  0  0  0  0  0  0
   99.5801  -11.2984   36.7797 O   0  0  0  0  0  0  0  0  0  0  0  0
   98.1334  -11.7854   38.6493 C   0  0  0  0  0  0  0  0  0  0  0  0
   99.7922   -7.5787   36.6116 N   0  0  0  0  0  0  0  0  0  0  0  0
  100.9967   -6.8936   36.1341 C   0  0  2  0  0  0  0  0  0  0  0  0
  100.7640   -5.8750   34.9956 C   0  0  0  0  0  0  0  0  0  0  0  0
  101.6771   -5.2342   34.4869 O   0  0  0  0  0  0  0  0  0  0  0  0
  102.0195   -7.9281   35.6621 C   0  0  0  0  0  0  0  0  0  0  0  0
   99.4777   -5.8577   34.4790 N   0  0  0  0  0  0  0  0  0  0  0  0
   99.0386   -4.6446   33.7602 C   0  0  2  0  0  0  0  0  0  0  0  0
   98.3959   -3.5755   34.6750 C   0  0  0  0  0  0  0  0  0  0  0  0
   98.0441   -2.4729   34.2532 O   0  0  0  0  0  0  0  0  0  0  0  0
   98.0187   -5.0495   32.6784 C   0  0  0  0  0  0  0  0  0  0  0  0
   97.5943   -3.9339   31.7125 C   0  0  0  0  0  0  0  0  0  0  0  0
   98.7283   -3.4516   30.8082 C   0  0  0  0  0  0  0  0  0  0  0  0
   98.8520   -4.3257   29.6589 N   0  0  0  0  0  0  0  0  0  0  0  0
   99.9665   -4.3214   28.8910 C   0  0  0  0  0  0  0  0  0  0  0  0
  100.2422   -3.3998   28.0423 N   0  0  0  0  0  0  0  0  0  0  0  0
  100.7865   -5.3612   29.1321 N   0  0  0  0  0  0  0  0  0  0  0  0
   98.0721   -3.9930   35.9413 N   0  0  0  0  0  0  0  0  0  0  0  0
   97.2379   -3.1962   36.8343 C   0  0  2  0  0  0  0  0  0  0  0  0
   97.2554   -3.9230   38.1904 C   0  0  0  0  0  0  0  0  0  0  0  0
   96.4361   -4.7969   38.4721 O   0  0  0  0  0  0  0  0  0  0  0  0
   95.8097   -3.1323   36.2629 C   0  0  0  0  0  0  0  0  0  0  0  0
   94.8872   -2.1141   36.9533 C   0  0  0  0  0  0  0  0  0  0  0  0
   94.4729   -1.0395   35.9365 C   0  0  0  0  0  0  0  0  0  0  0  0
   93.5154    0.0168   36.4662 C   0  0  0  0  0  0  0  0  0  0  0  0
   93.2121    1.0083   35.4042 N   0  0  0  0  0  4  0  0  0  0  0  0
   98.3088   -3.5931   39.0237 N   0  0  0  0  0  0  0  0  0  0  0  0
   98.4441   -4.2893   40.3224 C   0  0  2  0  0  0  0  0  0  0  0  0
   99.5461   -3.7550   41.2580 C   0  0  0  0  0  0  0  0  0  0  0  0
   99.6525   -4.1091   42.4353 O   0  0  0  0  0  0  0  0  0  0  0  0
   98.6633   -5.7901   40.0817 C   0  0  0  0  0  0  0  0  0  0  0  0
   99.9396   -5.9971   39.4482 O   0  0  0  0  0  0  0  0  0  0  0  0
  100.4464   -2.8762   40.7013 N   0  0  0  0  0  0  0  0  0  0  0  0
  101.2201   -1.9132   41.5026 C   0  0  2  0  0  0  0  0  0  0  0  0
  100.8689   -0.4411   41.1583 C   0  0  0  0  0  0  0  0  0  0  0  0
  100.6115   -0.0561   40.0180 O   0  0  0  0  0  0  0  0  0  0  0  0
  102.7588   -2.1480   41.5498 C   0  0  2  0  0  0  0  0  0  0  0  0
  103.4304   -1.8806   40.2963 O   0  0  0  0  0  0  0  0  0  0  0  0
  103.0785   -3.5937   41.9244 C   0  0  0  0  0  0  0  0  0  0  0  0
  101.0115    0.4294   42.2086 N   0  0  0  0  0  0  0  0  0  0  0  0
  100.4039    1.7510   42.2089 C   0  0  0  0  0  0  0  0  0  0  0  0
  101.3525    2.8327   41.6957 C   0  0  0  0  0  0  0  0  0  0  0  0
  102.2334    3.3105   42.4033 O   0  0  0  0  0  0  0  0  0  0  0  0
  101.1667    3.1802   40.3714 N   0  0  0  0  0  0  0  0  0  0  0  0
  102.3005    3.6572   39.5929 C   0  0  0  0  0  0  0  0  0  0  0  0
  101.9781    3.9333   38.1269 C   0  0  0  0  0  0  0  0  0  0  0  0
  102.2840    3.1478   37.2377 O   0  0  0  0  0  0  0  0  0  0  0  0
  101.4111    5.1697   37.8674 N   0  0  0  0  0  0  0  0  0  0  0  0
  101.7103    5.8515   36.6044 C   0  0  1  0  0  0  0  0  0  0  0  0
  100.4327    6.3815   35.9365 C   0  0  0  0  0  0  0  0  0  0  0  0
   99.3312    5.3277   35.7978 C   0  0  0  0  0  0  0  0  0  0  0  0
   98.0652    5.9503   35.2088 C   0  0  0  0  0  0  0  0  0  0  0  0
   97.0031    4.9053   34.9083 C   0  0  0  0  0  0  0  0  0  0  0  0
   95.8140    5.5542   34.3862 N   0  0  0  0  0  0  0  0  0  0  0  0
   94.6965    4.8517   34.0081 C   0  0  0  0  0  0  0  0  0  0  0  0
   94.2188    4.8445   32.8779 O   0  0  0  0  0  0  0  0  0  0  0  0
   94.0068    4.1411   35.1160 C   0  0  0  0  0  0  0  0  0  0  0  0
   92.8255    3.5069   35.0034 C   0  0  0  0  0  0  0  0  0  0  0  0
   92.2004    2.7513   36.1251 C   0  0  0  0  0  0  0  0  0  0  0  0
  102.6751    7.0421   36.8121 C   0  0  0  0  0  0  0  0  0  0  0  0
  103.5792    7.0184   37.6432 O   0  0  0  0  0  0  0  0  0  0  0  0
  102.5649    8.0309   35.8668 N   0  0  0  0  0  0  0  0  0  0  0  0
  103.6911    8.5127   35.0726 C   0  0  2  0  0  0  0  0  0  0  0  0
  104.3116    9.6521   35.9033 C   0  0  0  0  0  0  0  0  0  0  0  0
  105.5385    9.8283   35.8973 O   0  0  0  0  0  0  0  0  0  0  0  0
  103.2250    9.0427   33.7230 C   0  0  0  0  0  0  0  0  0  0  0  0
  103.4939   10.4255   36.6849 N   0  0  0  0  0  0  0  0  0  0  0  0
  102.2032   10.8751   36.1546 C   0  0  2  0  0  0  0  0  0  0  0  0
  102.3712   12.0312   35.1614 C   0  0  0  0  0  0  0  0  0  0  0  0
  103.1108   13.0001   35.2987 O   0  0  0  0  0  0  0  0  0  0  0  0
  101.4152   11.3185   37.3876 C   0  0  0  0  0  0  0  0  0  0  0  0
  102.4978   11.6706   38.4059 C   0  0  0  0  0  0  0  0  0  0  0  0
  103.5910   10.6555   38.1145 C   0  0  0  0  0  0  0  0  0  0  0  0
  101.6541   11.9071   34.0238 O   0  0  0  0  0  0  0  0  0  0  0  0
  104.5212  -13.3339   39.4808 H   0  0  0  0  0  0  0  0  0  0  0  0
   99.3925   -3.1350   27.5389 H   0  0  0  0  0  0  0  0  0  0  0  0
  1  2  1  0
  2  3  1  0
  2  5  1  6
  3  4  2  0
  3  6  1  0
  6  7  1  0
  7  8  1  0
  7 10  1  6
  8  9  2  0
  8 17  1  0
 10 11  1  0
 11 12  1  0
 12 13  1  0
 13 14  1  0
 14 15  2  0
 14 16  1  0
 18 17  1  1
 18 19  1  0
 18 21  1  0
 19 20  2  0
 19 24  1  0
 21 22  1  0
 21 23  1  1
 24 25  1  0
 25 26  1  0
 25 28  1  6
 26 27  2  0
 26 33  1  0
 28 29  1  0
 29 30  1  0
 30 31  1  0
 31 32  1  0
 33 34  1  0
 34 35  1  0
 34 37  1  6
 35 36  2  0
 35 42  1  0
 37 38  1  0
 38 39  1  0
 39 40  2  0
 39 41  1  0
 43 42  1  6
 43 44  1  0
 43 46  1  0
 44 45  2  0
 44 49  1  0
 46 47  1  0
 46 48  1  6
 49 50  1  0
 50 51  1  0
 50 53  1  6
 51 52  2  0
 51 54  1  0
 54 55  1  0
 55 56  1  0
 55 58  1  6
 56 57  2  0
 56 65  1  0
 58 59  1  0
 59 60  1  0
 60 61  1  0
 61 62  1  0
 62 63  2  0
 62 64  1  0
 65 66  1  0
 66 67  1  0
 66 69  1  6
 67 68  2  0
 67 74  1  0
 69 70  1  0
 70 71  1  0
 71 72  1  0
 72 73  1  0
 74 75  1  0
 75 76  1  0
 75 78  1  6
 76 77  2  0
 76 80  1  0
 78 79  1  0
 81 80  1  6
 81 82  1  0
 81 84  1  0
 82 83  2  0
 82 87  1  0
 84 85  1  0
 84 86  1  6
 87 88  1  0
 88 89  1  0
 89 90  2  0
 89 91  1  0
 91 92  1  0
 92 93  1  0
 93 94  2  0
 93 95  1  0
 95 96  1  0
 96 97  1  1
 96107  1  0
 97 98  1  0
 98 99  1  0
 99100  1  0
100101  1  0
101102  1  0
102103  2  0
102104  1  0
104105  2  0
105106  1  0
107108  2  0
107109  1  0
109110  1  0
110111  1  0
110113  1  6
111112  2  0
111114  1  0
114115  1  0
114120  1  0
115116  1  6
115118  1  0
116117  2  0
116121  1  0
118119  1  0
119120  1  0
 15122  1  0
 63123  1  0
M  CHG  3   1   1  32   1  73   1
M  END
$$$$
