
     RDKit          3D

123123  0  0  0  0  0  0  0  0999 V2000
   99.9404  -12.7660   34.7714 N   0  0  0  0  0  4  0  0  0  0  0  0
  100.9914  -11.8150   34.3005 C   0  0  2  0  0  0  0  0  0  0  0  0
  100.8852  -11.6104   32.7791 C   0  0  0  0  0  0  0  0  0  0  0  0
  101.4285  -12.4007   32.0019 O   0  0  0  0  0  0  0  0  0  0  0  0
  102.3504  -12.3442   34.7147 C   0  0  0  0  0  0  0  0  0  0  0  0
  100.1396  -10.5294   32.3648 N   0  0  0  0  0  0  0  0  0  0  0  0
   98.9069  -10.7130   31.5865 C   0  0  2  0  0  0  0  0  0  0  0  0
   98.3980   -9.2835   31.2860 C   0  0  0  0  0  0  0  0  0  0  0  0
   97.3068   -9.0844   30.7563 O   0  0  0  0  0  0  0  0  0  0  0  0
   97.9042  -11.5562   32.3785 C   0  0  0  0  0  0  0  0  0  0  0  0
   96.6855  -12.0389   31.5831 C   0  0  0  0  0  0  0  0  0  0  0  0
   95.3661  -11.6913   32.2949 C   0  0  0  0  0  0  0  0  0  0  0  0
   94.5822  -12.8964   32.4799 N   0  0  0  0  0  0  0  0  0  0  0  0
   95.0559  -14.0197   33.0653 C   0  0  0  0  0  0  0  0  0  0  0  0
   94.9238  -15.2184   32.6135 N   0  0  0  0  0  0  0  0  0  0  0  0
   95.6419  -13.7436   34.2454 N   0  0  0  0  0  0  0  0  0  0  0  0
   99.2092   -8.2487   31.7271 N   0  0  0  0  0  0  0  0  0  0  0  0
   98.7955   -6.8472   31.5076 C   0  0  2  0  0  0  0  0  0  0  0  0
   99.8575   -5.9734   32.2059 C   0  0  0  0  0  0  0  0  0  0  0  0
   99.7211   -4.7715   32.4437 O   0  0  0  0  0  0  0  0  0  0  0  0
   97.3367   -6.5678   31.9314 C   0  0  2  0  0  0  0  0  0  0  0  0
   97.3522   -6.2498   33.3361 O   0  0  0  0  0  0  0  0  0  0  0  0
   96.4258   -7.7691   31.7200 C   0  0  0  0  0  0  0  0  0  0  0  0
  101.0240   -6.6601   32.5481 N   0  0  0  0  0  0  0  0  0  0  0  0
  102.1273   -5.9364   33.2016 C   0  0  2  0  0  0  0  0  0  0  0  0
  101.8681   -4.6153   33.9609 C   0  0  0  0  0  0  0  0  0  0  0  0
  100.9874   -4.5518   34.8202 O   0  0  0  0  0  0  0  0  0  0  0  0
  103.2488   -5.6364   32.1607 C   0  0  0  0  0  0  0  0  0  0  0  0
  103.2824   -6.6338   30.9871 C   0  0  0  0  0  0  0  0  0  0  0  0
  104.4452   -6.4527   29.9958 C   0  0  0  0  0  0  0  0  0  0  0  0
  105.8390   -6.6530   30.5766 C   0  0  0  0  0  0  0  0  0  0  0  0
  106.8650   -6.1048   29.6604 N   0  0  0  0  0  4  0  0  0  0  0  0
  102.7743   -3.6207   33.7159 N   0  0  0  0  0  0  0  0  0  0  0  0
  102.6834   -2.3235   34.3559 C   0  0  2  0  0  0  0  0  0  0  0  0
  101.6055   -2.2944   35.4570 C   0  0  0  0  0  0  0  0  0  0  0  0
  100.9832   -3.3135   35.7609 O   0  0  0  0  0  0  0  0  0  0  0  0
  102.3600   -1.2298   33.3191 C   0  0  0  0  0  0  0  0  0  0  0  0
  100.8723   -0.9464   33.0747 C   0  0  0  0  0  0  0  0  0  0  0  0
  100.6029    0.1585   32.0782 C   0  0  0  0  0  0  0  0  0  0  0  0
  101.2109    0.3061   31.0234 O   0  0  0  0  0  0  0  0  0  0  0  0
   99.5599    0.9736   32.4088 N   0  0  0  0  0  0  0  0  0  0  0  0
  101.4866   -1.1313   36.1900 N   0  0  0  0  0  0  0  0  0  0  0  0
  100.8504   -1.1591   37.5058 C   0  0  2  0  0  0  0  0  0  0  0  0
  101.4491   -2.2354   38.4487 C   0  0  0  0  0  0  0  0  0  0  0  0
  100.8379   -2.6644   39.4262 O   0  0  0  0  0  0  0  0  0  0  0  0
   99.3061   -1.3278   37.4329 C   0  0  2  0  0  0  0  0  0  0  0  0
   98.9756   -2.4586   36.6058 O   0  0  0  0  0  0  0  0  0  0  0  0
   98.5603   -0.1021   36.9216 C   0  0  0  0  0  0  0  0  0  0  0  0
  102.7165   -2.6979   38.1076 N   0  0  0  0  0  0  0  0  0  0  0  0
  103.2836   -3.6994   39.0153 C   0  0  2  0  0  0  0  0  0  0  0  0
  102.5996   -5.0844   38.9734 C   0  0  0  0  0  0  0  0  0  0  0  0
  102.4047   -5.6925   37.9267 O   0  0  0  0  0  0  0  0  0  0  0  0
  103.2344   -3.1738   40.4507 C   0  0  0  0  0  0  0  0  0  0  0  0
  102.3715   -5.6629   40.2123 N   0  0  0  0  0  0  0  0  0  0  0  0
  101.7843   -7.0176   40.2442 C   0  0  2  0  0  0  0  0  0  0  0  0
  101.4953   -7.5391   41.6715 C   0  0  0  0  0  0  0  0  0  0  0  0
  101.9491   -8.6062   42.0874 O   0  0  0  0  0  0  0  0  0  0  0  0
  102.7498   -7.9944   39.5454 C   0  0  0  0  0  0  0  0  0  0  0  0
  102.3117   -9.4659   39.5287 C   0  0  0  0  0  0  0  0  0  0  0  0
  103.2707  -10.3749   38.7604 C   0  0  0  0  0  0  0  0  0  0  0  0
  102.7202  -11.7124   38.6689 N   0  0  0  0  0  0  0  0  0  0  0  0
  103.3695  -12.6941   38.0009 C   0  0  0  0  0  0  0  0  0  0  0  0
  103.0976  -13.9413   38.1281 N   0  0  0  0  0  0  0  0  0  0  0  0
  104.3074  -12.2339   37.1521 N   0  0  0  0  0  0  0  0  0  0  0  0
  100.8573   -6.6589   42.5087 N   0  0  0  0  0  0  0  0  0  0  0  0
  100.1067   -7.1019   43.6785 C   0  0  2  0  0  0  0  0  0  0  0  0
   99.2252   -8.2683   43.1990 C   0  0  0  0  0  0  0  0  0  0  0  0
   98.2959   -8.1013   42.4098 O   0  0  0  0  0  0  0  0  0  0  0  0
   99.2434   -5.9351   44.1921 C   0  0  0  0  0  0  0  0  0  0  0  0
   98.7640   -6.0828   45.6457 C   0  0  0  0  0  0  0  0  0  0  0  0
   98.3517   -4.7036   46.1826 C   0  0  0  0  0  0  0  0  0  0  0  0
   97.4284   -4.7300   47.3909 C   0  0  0  0  0  0  0  0  0  0  0  0
   96.5739   -3.5165   47.4059 N   0  0  0  0  0  4  0  0  0  0  0  0
   99.6114   -9.5207   43.6407 N   0  0  0  0  0  0  0  0  0  0  0  0
   98.5846  -10.5733   43.8066 C   0  0  2  0  0  0  0  0  0  0  0  0
   97.1439  -10.1688   43.4378 C   0  0  0  0  0  0  0  0  0  0  0  0
   96.2037  -10.9679   43.4429 O   0  0  0  0  0  0  0  0  0  0  0  0
   98.6133  -11.0976   45.2497 C   0  0  0  0  0  0  0  0  0  0  0  0
   97.7758  -10.2723   46.0809 O   0  0  0  0  0  0  0  0  0  0  0  0
   96.9414   -8.8428   43.1321 N   0  0  0  0  0  0  0  0  0  0  0  0
   95.6172   -8.2025   43.1990 C   0  0  2  0  0  0  0  0  0  0  0  0
   95.5586   -6.8803   42.3883 C   0  0  0  0  0  0  0  0  0  0  0  0
   94.6125   -6.0949   42.4426 O   0  0  0  0  0  0  0  0  0  0  0  0
   95.0121   -8.0378   44.6244 C   0  0  2  0  0  0  0  0  0  0  0  0
   94.8917   -9.2801   45.3563 O   0  0  0  0  0  0  0  0  0  0  0  0
   93.6142   -7.4263   44.5559 C   0  0  0  0  0  0  0  0  0  0  0  0
   96.5847   -6.7270   41.4912 N   0  0  0  0  0  0  0  0  0  0  0  0
   96.6156   -5.6391   40.5261 C   0  0  0  0  0  0  0  0  0  0  0  0
   97.9191   -5.5977   39.7307 C   0  0  0  0  0  0  0  0  0  0  0  0
   98.0579   -6.2189   38.6821 O   0  0  0  0  0  0  0  0  0  0  0  0
   98.8910   -4.7713   40.2611 N   0  0  0  0  0  0  0  0  0  0  0  0
   98.9185   -3.3664   39.8809 C   0  0  0  0  0  0  0  0  0  0  0  0
   98.4313   -2.4159   40.9711 C   0  0  0  0  0  0  0  0  0  0  0  0
   97.2413   -2.2855   41.2319 O   0  0  0  0  0  0  0  0  0  0  0  0
   99.4145   -1.6450   41.5683 N   0  0  0  0  0  0  0  0  0  0  0  0
  100.0805   -0.5945   40.7922 C   0  0  1  0  0  0  0  0  0  0  0  0
   99.9983   -0.8735   39.2840 C   0  0  0  0  0  0  0  0  0  0  0  0
  100.6752    0.1973   38.4248 C   0  0  0  0  0  0  0  0  0  0  0  0
  100.3903   -0.0462   36.9426 C   0  0  0  0  0  0  0  0  0  0  0  0
  101.6036   -0.5986   36.2125 C   0  0  0  0  0  0  0  0  0  0  0  0
  101.2527   -0.8908   34.8344 N   0  0  0  0  0  0  0  0  0  0  0  0
  102.1927   -1.2109   33.8861 C   0  0  0  0  0  0  0  0  0  0  0  0
  103.1791   -1.9138   34.0823 O   0  0  0  0  0  0  0  0  0  0  0  0
  101.9943   -0.5514   32.5694 C   0  0  0  0  0  0  0  0  0  0  0  0
  102.7790   -0.7366   31.4922 C   0  0  0  0  0  0  0  0  0  0  0  0
  102.3748   -1.5754   30.3290 C   0  0  0  0  0  0  0  0  0  0  0  0
   99.4581    0.7957   41.0598 C   0  0  0  0  0  0  0  0  0  0  0  0
   99.5318    1.7160   40.2497 O   0  0  0  0  0  0  0  0  0  0  0  0
   98.6564    0.8516   42.1722 N   0  0  0  0  0  0  0  0  0  0  0  0
   97.4977    1.7327   42.2843 C   0  0  2  0  0  0  0  0  0  0  0  0
   96.2742    0.8146   42.1018 C   0  0  0  0  0  0  0  0  0  0  0  0
   95.3241    1.1789   41.3942 O   0  0  0  0  0  0  0  0  0  0  0  0
   97.5148    2.8035   41.2013 C   0  0  0  0  0  0  0  0  0  0  0  0
   96.2328   -0.3784   42.7749 N   0  0  0  0  0  0  0  0  0  0  0  0
   95.0386   -1.2228   42.6737 C   0  0  2  0  0  0  0  0  0  0  0  0
   93.8889   -0.6821   43.5323 C   0  0  0  0  0  0  0  0  0  0  0  0
   93.8149    0.4430   44.0153 O   0  0  0  0  0  0  0  0  0  0  0  0
   95.4963   -2.5955   43.1678 C   0  0  0  0  0  0  0  0  0  0  0  0
   96.6868   -2.2803   44.0714 C   0  0  0  0  0  0  0  0  0  0  0  0
   97.3400   -1.0932   43.3826 C   0  0  0  0  0  0  0  0  0  0  0  0
   92.8634   -1.5427   43.7094 O   0  0  0  0  0  0  0  0  0  0  0  0
   94.5921  -15.1184   31.6470 H   0  0  0  0  0  0  0  0  0  0  0  0
  103.4952  -14.4588   37.3410 H   0  0  0  0  0  0  0  0  0  0  0  0
  1  2  1  0
  2  3  1  0
  2  5  1  6
  3  4  2  0
  3  6  1  0
  6  7  1  0
  7  8  1  0
  7 10  1  1
  8  9  2  0
  8 17  1  0
 10 11  1  0
 11 12  1  0
 12 13  1  0
 13 14  1  0
 14 15  2  0
 14 16  1  0
 18 17  1  1
 18 19  1  0
 18 21  1  0
 19 20  2  0
 19 24  1  0
 21 22  1  0
 21 23  1  1
 24 25  1  0
 25 26  1  0
 25 28  1  6
 26 27  2  0
 26 33  1  0
 28 29  1  0
 29 30  1  0
 30 31  1  0
 31 32  1  0
 33 34  1  0
 34 35  1  0
 34 37  1  6
 35 36  2  0
 35 42  1  0
 37 38  1  0
 38 39  1  0
 39 40  2  0
 39 41  1  0
 43 42  1  6
 43 44  1  0
 43 46  1  0
 44 45  2  0
 44 49  1  0
 46 47  1  0
 46 48  1  6
 49 50  1  0
 50 51  1  0
 50 53  1  1
 51 52  2  0
 51 54  1  0
 54 55  1  0
 55 56  1  0
 55 58  1  1
 56 57  2  0
 56 65  1  0
 58 59  1  0
 59 60  1  0
 60 61  1  0
 61 62  1  0
 62 63  2  0
 62 64  1  0
 65 66  1  0
 66 67  1  0
 66 69  1  6
 67 68  2  0
 67 74  1  0
 69 70  1  0
 70 71  1  0
 71 72  1  0
 72 73  1  0
 74 75  1  0
 75 76  1  0
 75 78  1  1
 76 77  2  0
 76 80  1  0
 78 79  1  0
 81 80  1  1
 81 82  1  0
 81 84  1  0
 82 83  2  0
 82 87  1  0
 84 85  1  0
 84 86  1  6
 87 88  1  0
 88 89  1  0
 89 90  2  0
 89 91  1  0
 91 92  1  0
 92 93  1  0
 93 94  2  0
 93 95  1  0
 95 96  1  0
 96 97  1  6
 96107  1  0
 97 98  1  0
 98 99  1  0
 99100  1  0
100101  1  0
101102  1  0
102103  2  0
102104  1  0
104105  2  0
105106  1  0
107108  2  0
107109  1  0
109110  1  0
110111  1  0
110113  1  6
111112  2  0
111114  1  0
114115  1  0
114120  1  0
115116  1  1
115118  1  0
116117  2  0
116121  1  0
118119  1  0
119120  1  0
 15122  1  0
 63123  1  0
M  CHG  3   1   1  32   1  73   1
M  END
$$$$
