
     RDKit          3D

123123  0  0  0  0  0  0  0  0999 V2000
   95.3782   -6.2872   29.8179 N   0  0  0  0  0  4  0  0  0  0  0  0
   96.1823   -6.5834   31.0412 C   0  0  2  0  0  0  0  0  0  0  0  0
   97.1173   -7.7795   30.7905 C   0  0  0  0  0  0  0  0  0  0  0  0
   97.9897   -8.0748   31.6125 O   0  0  0  0  0  0  0  0  0  0  0  0
   95.2364   -6.8277   32.2005 C   0  0  0  0  0  0  0  0  0  0  0  0
   96.8957   -8.4877   29.6307 N   0  0  0  0  0  0  0  0  0  0  0  0
   97.3265   -9.8867   29.5033 C   0  0  2  0  0  0  0  0  0  0  0  0
   98.8295   -9.8193   29.1440 C   0  0  0  0  0  0  0  0  0  0  0  0
   99.2231   -9.2813   28.1112 O   0  0  0  0  0  0  0  0  0  0  0  0
   96.4846  -10.6032   28.4442 C   0  0  0  0  0  0  0  0  0  0  0  0
   96.5676  -12.1339   28.4703 C   0  0  0  0  0  0  0  0  0  0  0  0
   95.6252  -12.7736   27.4355 C   0  0  0  0  0  0  0  0  0  0  0  0
   96.3449  -13.7799   26.6802 N   0  0  0  0  0  0  0  0  0  0  0  0
   97.4450  -14.4200   27.1373 C   0  0  0  0  0  0  0  0  0  0  0  0
   98.6592  -14.0055   27.0257 N   0  0  0  0  0  0  0  0  0  0  0  0
   97.1256  -15.6096   27.6805 N   0  0  0  0  0  0  0  0  0  0  0  0
   99.7012  -10.3258   30.0962 N   0  0  0  0  0  0  0  0  0  0  0  0
  100.9745   -9.6281   30.3706 C   0  0  2  0  0  0  0  0  0  0  0  0
  101.7549  -10.5306   31.3482 C   0  0  0  0  0  0  0  0  0  0  0  0
  102.8514  -10.2443   31.8331 O   0  0  0  0  0  0  0  0  0  0  0  0
  100.7824   -8.1687   30.8388 C   0  0  2  0  0  0  0  0  0  0  0  0
   99.7891   -8.1808   31.8818 O   0  0  0  0  0  0  0  0  0  0  0  0
  100.2966   -7.2552   29.7221 C   0  0  0  0  0  0  0  0  0  0  0  0
  101.1156  -11.7364   31.6429 N   0  0  0  0  0  0  0  0  0  0  0  0
  101.4145  -12.4258   32.9093 C   0  0  2  0  0  0  0  0  0  0  0  0
  100.5367  -13.6005   33.3979 C   0  0  0  0  0  0  0  0  0  0  0  0
  100.8071  -14.7583   33.0747 O   0  0  0  0  0  0  0  0  0  0  0  0
  101.4574  -11.3904   34.0742 C   0  0  0  0  0  0  0  0  0  0  0  0
  100.0629  -10.9674   34.5739 C   0  0  0  0  0  0  0  0  0  0  0  0
  100.0265  -10.3202   35.9694 C   0  0  0  0  0  0  0  0  0  0  0  0
  101.2136   -9.4285   36.3096 C   0  0  0  0  0  0  0  0  0  0  0  0
  100.8749   -8.5214   37.4300 N   0  0  0  0  0  4  0  0  0  0  0  0
   99.5767  -13.2633   34.3118 N   0  0  0  0  0  0  0  0  0  0  0  0
   99.3838  -14.0142   35.5363 C   0  0  2  0  0  0  0  0  0  0  0  0
   98.2915  -13.3953   36.4301 C   0  0  0  0  0  0  0  0  0  0  0  0
   98.4930  -12.3436   37.0396 O   0  0  0  0  0  0  0  0  0  0  0  0
  100.6972  -14.0864   36.3396 C   0  0  0  0  0  0  0  0  0  0  0  0
  100.6547  -14.9063   37.6355 C   0  0  0  0  0  0  0  0  0  0  0  0
  102.0025  -15.1094   38.2902 C   0  0  0  0  0  0  0  0  0  0  0  0
  102.9184  -15.7652   37.8054 O   0  0  0  0  0  0  0  0  0  0  0  0
  102.1635  -14.4401   39.4681 N   0  0  0  0  0  0  0  0  0  0  0  0
   97.0404  -13.9757   36.3873 N   0  0  0  0  0  0  0  0  0  0  0  0
   96.3282  -14.2685   37.6298 C   0  0  2  0  0  0  0  0  0  0  0  0
   95.9651  -12.9952   38.4379 C   0  0  0  0  0  0  0  0  0  0  0  0
   96.1825  -12.9000   39.6448 O   0  0  0  0  0  0  0  0  0  0  0  0
   97.0868  -15.2708   38.5457 C   0  0  2  0  0  0  0  0  0  0  0  0
   98.1952  -14.6094   39.1829 O   0  0  0  0  0  0  0  0  0  0  0  0
   97.5938  -16.5180   37.8332 C   0  0  0  0  0  0  0  0  0  0  0  0
   95.3929  -11.9593   37.7055 N   0  0  0  0  0  0  0  0  0  0  0  0
   95.5761  -10.6183   38.2681 C   0  0  2  0  0  0  0  0  0  0  0  0
   96.7918  -10.4624   39.2092 C   0  0  0  0  0  0  0  0  0  0  0  0
   97.2475  -11.3973   39.8584 O   0  0  0  0  0  0  0  0  0  0  0  0
   94.3144  -10.2065   39.0281 C   0  0  0  0  0  0  0  0  0  0  0  0
   97.4311   -9.2342   39.1419 N   0  0  0  0  0  0  0  0  0  0  0  0
   98.6793   -9.0625   39.9124 C   0  0  2  0  0  0  0  0  0  0  0  0
   99.2795   -7.6399   39.8191 C   0  0  0  0  0  0  0  0  0  0  0  0
  100.3989   -7.4265   39.3512 O   0  0  0  0  0  0  0  0  0  0  0  0
   99.7222  -10.0752   39.4012 C   0  0  0  0  0  0  0  0  0  0  0  0
  101.0519  -10.1061   40.1685 C   0  0  0  0  0  0  0  0  0  0  0  0
  102.0801  -11.0598   39.5605 C   0  0  0  0  0  0  0  0  0  0  0  0
  101.4145  -12.2289   39.0217 N   0  0  0  0  0  0  0  0  0  0  0  0
  102.1109  -13.2076   38.3980 C   0  0  0  0  0  0  0  0  0  0  0  0
  103.3910  -13.2289   38.3170 N   0  0  0  0  0  0  0  0  0  0  0  0
  101.3312  -14.1864   37.9022 N   0  0  0  0  0  0  0  0  0  0  0  0
   98.4215   -6.6114   40.1171 N   0  0  0  0  0  0  0  0  0  0  0  0
   98.0546   -5.5948   39.1373 C   0  0  2  0  0  0  0  0  0  0  0  0
   97.3658   -4.4710   39.9312 C   0  0  0  0  0  0  0  0  0  0  0  0
   97.0517   -3.4020   39.4087 O   0  0  0  0  0  0  0  0  0  0  0  0
   97.0892   -6.2136   38.1098 C   0  0  0  0  0  0  0  0  0  0  0  0
   95.6290   -6.3146   38.5809 C   0  0  0  0  0  0  0  0  0  0  0  0
   94.6962   -6.0106   37.3986 C   0  0  0  0  0  0  0  0  0  0  0  0
   95.2631   -6.3410   36.0264 C   0  0  0  0  0  0  0  0  0  0  0  0
   94.4373   -5.7080   34.9681 N   0  0  0  0  0  4  0  0  0  0  0  0
   97.0415   -4.7848   41.2385 N   0  0  0  0  0  0  0  0  0  0  0  0
   96.3898   -3.7600   42.0840 C   0  0  2  0  0  0  0  0  0  0  0  0
   97.3255   -2.9657   43.0160 C   0  0  0  0  0  0  0  0  0  0  0  0
   96.9415   -2.4570   44.0727 O   0  0  0  0  0  0  0  0  0  0  0  0
   95.2751   -4.4114   42.9154 C   0  0  0  0  0  0  0  0  0  0  0  0
   95.4289   -5.8429   42.8937 O   0  0  0  0  0  0  0  0  0  0  0  0
   98.6427   -2.8782   42.6287 N   0  0  0  0  0  0  0  0  0  0  0  0
   99.6426   -2.0950   43.3737 C   0  0  2  0  0  0  0  0  0  0  0  0
  100.6222   -1.3417   42.4347 C   0  0  0  0  0  0  0  0  0  0  0  0
  101.4816   -0.5598   42.8408 O   0  0  0  0  0  0  0  0  0  0  0  0
  100.3922   -2.8526   44.5090 C   0  0  2  0  0  0  0  0  0  0  0  0
  100.8935   -4.1512   44.1144 O   0  0  0  0  0  0  0  0  0  0  0  0
   99.4771   -3.0771   45.7111 C   0  0  0  0  0  0  0  0  0  0  0  0
  100.3567   -1.5063   41.0992 N   0  0  0  0  0  0  0  0  0  0  0  0
  101.0976   -0.7973   40.0676 C   0  0  0  0  0  0  0  0  0  0  0  0
  101.2538    0.6907   40.3755 C   0  0  0  0  0  0  0  0  0  0  0  0
  100.4141    1.3101   41.0206 O   0  0  0  0  0  0  0  0  0  0  0  0
  102.4290    1.2533   39.9161 N   0  0  0  0  0  0  0  0  0  0  0  0
  102.4045    2.5937   39.3487 C   0  0  0  0  0  0  0  0  0  0  0  0
  102.1239    2.6307   37.8489 C   0  0  0  0  0  0  0  0  0  0  0  0
  102.4743    1.7246   37.1022 O   0  0  0  0  0  0  0  0  0  0  0  0
  101.5405    3.7971   37.3835 N   0  0  0  0  0  0  0  0  0  0  0  0
  101.8300    4.2570   36.0219 C   0  0  1  0  0  0  0  0  0  0  0  0
  101.0915    3.4100   34.9747 C   0  0  0  0  0  0  0  0  0  0  0  0
   99.6461    3.0837   35.3589 C   0  0  0  0  0  0  0  0  0  0  0  0
   99.5561    1.6834   35.9658 C   0  0  0  0  0  0  0  0  0  0  0  0
   99.4700    0.6045   34.8987 C   0  0  0  0  0  0  0  0  0  0  0  0
   99.5870   -0.7038   35.5169 N   0  0  0  0  0  0  0  0  0  0  0  0
   99.5036   -0.8877   36.8750 C   0  0  0  0  0  0  0  0  0  0  0  0
   99.6713   -0.0098   37.7156 O   0  0  0  0  0  0  0  0  0  0  0  0
   99.2824   -2.2951   37.2975 C   0  0  0  0  0  0  0  0  0  0  0  0
  100.2562   -3.1492   37.6616 C   0  0  0  0  0  0  0  0  0  0  0  0
  100.3067   -4.5654   37.2015 C   0  0  0  0  0  0  0  0  0  0  0  0
  101.4243    5.7354   35.8193 C   0  0  0  0  0  0  0  0  0  0  0  0
  100.9512    6.1487   34.7637 O   0  0  0  0  0  0  0  0  0  0  0  0
  101.4486    6.4905   36.9650 N   0  0  0  0  0  0  0  0  0  0  0  0
  100.9520    7.8616   37.0345 C   0  0  2  0  0  0  0  0  0  0  0  0
  102.2125    8.7426   37.1245 C   0  0  0  0  0  0  0  0  0  0  0  0
  103.3318    8.2477   36.9283 O   0  0  0  0  0  0  0  0  0  0  0  0
  100.0799    8.0684   38.2661 C   0  0  0  0  0  0  0  0  0  0  0  0
  102.0781   10.0602   37.4764 N   0  0  0  0  0  0  0  0  0  0  0  0
  103.2682   10.9136   37.5453 C   0  0  2  0  0  0  0  0  0  0  0  0
  104.0857   10.6432   38.8141 C   0  0  0  0  0  0  0  0  0  0  0  0
  104.8727   11.4194   39.3458 O   0  0  0  0  0  0  0  0  0  0  0  0
  102.7182   12.3403   37.5383 C   0  0  0  0  0  0  0  0  0  0  0  0
  101.3007   12.1881   38.0863 C   0  0  0  0  0  0  0  0  0  0  0  0
  100.8577   10.8434   37.5331 C   0  0  0  0  0  0  0  0  0  0  0  0
  103.8520    9.4451   39.3918 O   0  0  0  0  0  0  0  0  0  0  0  0
   98.6497  -13.3118   26.2689 H   0  0  0  0  0  0  0  0  0  0  0  0
  103.7741  -13.7449   39.1122 H   0  0  0  0  0  0  0  0  0  0  0  0
  1  2  1  0
  2  3  1  0
  2  5  1  1
  3  4  2  0
  3  6  1  0
  6  7  1  0
  7  8  1  0
  7 10  1  6
  8  9  2  0
  8 17  1  0
 10 11  1  0
 11 12  1  0
 12 13  1  0
 13 14  1  0
 14 15  2  0
 14 16  1  0
 18 17  1  1
 18 19  1  0
 18 21  1  0
 19 20  2  0
 19 24  1  0
 21 22  1  0
 21 23  1  6
 24 25  1  0
 25 26  1  0
 25 28  1  1
 26 27  2  0
 26 33  1  0
 28 29  1  0
 29 30  1  0
 30 31  1  0
 31 32  1  0
 33 34  1  0
 34 35  1  0
 34 37  1  1
 35 36  2  0
 35 42  1  0
 37 38  1  0
 38 39  1  0
 39 40  2  0
 39 41  1  0
 43 42  1  6
 43 44  1  0
 43 46  1  0
 44 45  2  0
 44 49  1  0
 46 47  1  0
 46 48  1  6
 49 50  1  0
 50 51  1  0
 50 53  1  1
 51 52  2  0
 51 54  1  0
 54 55  1  0
 55 56  1  0
 55 58  1  6
 56 57  2  0
 56 65  1  0
 58 59  1  0
 59 60  1  0
 60 61  1  0
 61 62  1  0
 62 63  2  0
 62 64  1  0
 65 66  1  0
 66 67  1  0
 66 69  1  6
 67 68  2  0
 67 74  1  0
 69 70  1  0
 70 71  1  0
 71 72  1  0
 72 73  1  0
 74 75  1  0
 75 76  1  0
 75 78  1  1
 76 77  2  0
 76 80  1  0
 78 79  1  0
 81 80  1  6
 81 82  1  0
 81 84  1  0
 82 83  2  0
 82 87  1  0
 84 85  1  0
 84 86  1  1
 87 88  1  0
 88 89  1  0
 89 90  2  0
 89 91  1  0
 91 92  1  0
 92 93  1  0
 93 94  2  0
 93 95  1  0
 95 96  1  0
 96 97  1  6
 96107  1  0
 97 98  1  0
 98 99  1  0
 99100  1  0
100101  1  0
101102  1  0
102103  2  0
102104  1  0
104105  2  0
105106  1  0
107108  2  0
107109  1  0
109110  1  0
110111  1  0
110113  1  1
111112  2  0
111114  1  0
114115  1  0
114120  1  0
115116  1  1
115118  1  0
116117  2  0
116121  1  0
118119  1  0
119120  1  0
 15122  1  0
 63123  1  0
M  CHG  3   1   1  32   1  73   1
M  END
$$$$
