
     RDKit          3D

123123  0  0  0  0  0  0  0  0999 V2000
   95.8823  -17.8276   39.7603 N   0  0  0  0  0  4  0  0  0  0  0  0
   96.1775  -17.7577   38.2979 C   0  0  2  0  0  0  0  0  0  0  0  0
   97.5460  -17.0958   38.0590 C   0  0  0  0  0  0  0  0  0  0  0  0
   98.5290  -17.4331   38.7252 O   0  0  0  0  0  0  0  0  0  0  0  0
   95.0518  -17.0133   37.6071 C   0  0  0  0  0  0  0  0  0  0  0  0
   97.5940  -16.1495   37.0600 N   0  0  0  0  0  0  0  0  0  0  0  0
   98.8652  -15.5251   36.6684 C   0  0  2  0  0  0  0  0  0  0  0  0
   99.2239  -16.1537   35.3014 C   0  0  0  0  0  0  0  0  0  0  0  0
   98.8197  -17.2683   34.9770 O   0  0  0  0  0  0  0  0  0  0  0  0
   99.9270  -15.7723   37.7432 C   0  0  0  0  0  0  0  0  0  0  0  0
  101.3125  -15.1912   37.4378 C   0  0  0  0  0  0  0  0  0  0  0  0
  101.6948  -14.0777   38.4288 C   0  0  0  0  0  0  0  0  0  0  0  0
  103.0111  -13.5668   38.1009 N   0  0  0  0  0  0  0  0  0  0  0  0
  104.1252  -13.8437   38.8158 C   0  0  0  0  0  0  0  0  0  0  0  0
  105.3271  -13.5067   38.4992 N   0  0  0  0  0  0  0  0  0  0  0  0
  103.8366  -14.5931   39.8962 N   0  0  0  0  0  0  0  0  0  0  0  0
   99.9543  -15.3489   34.4399 N   0  0  0  0  0  0  0  0  0  0  0  0
   99.3805  -14.9602   33.1349 C   0  0  2  0  0  0  0  0  0  0  0  0
   98.8176  -13.5365   33.3221 C   0  0  0  0  0  0  0  0  0  0  0  0
   98.0378  -12.9893   32.5397 O   0  0  0  0  0  0  0  0  0  0  0  0
   98.3761  -15.9930   32.5777 C   0  0  2  0  0  0  0  0  0  0  0  0
   97.0597  -15.4230   32.7071 O   0  0  0  0  0  0  0  0  0  0  0  0
   98.4074  -17.3100   33.3406 C   0  0  0  0  0  0  0  0  0  0  0  0
   99.2786  -12.8887   34.4699 N   0  0  0  0  0  0  0  0  0  0  0  0
   99.2153  -11.4197   34.5494 C   0  0  2  0  0  0  0  0  0  0  0  0
   99.9893  -10.5379   33.5431 C   0  0  0  0  0  0  0  0  0  0  0  0
  100.2747  -10.9702   32.4252 O   0  0  0  0  0  0  0  0  0  0  0  0
   99.6468  -10.9511   35.9725 C   0  0  0  0  0  0  0  0  0  0  0  0
   98.8512   -9.7372   36.4887 C   0  0  0  0  0  0  0  0  0  0  0  0
   99.1080   -9.3508   37.9558 C   0  0  0  0  0  0  0  0  0  0  0  0
  100.5562   -9.4530   38.4167 C   0  0  0  0  0  0  0  0  0  0  0  0
  101.4219   -8.5699   37.6021 N   0  0  0  0  0  4  0  0  0  0  0  0
  100.1727   -9.2402   33.9338 N   0  0  0  0  0  0  0  0  0  0  0  0
  100.9314   -8.2974   33.1364 C   0  0  2  0  0  0  0  0  0  0  0  0
  100.8215   -6.8589   33.6785 C   0  0  0  0  0  0  0  0  0  0  0  0
   99.7309   -6.3864   34.0032 O   0  0  0  0  0  0  0  0  0  0  0  0
  100.4465   -8.3123   31.6734 C   0  0  0  0  0  0  0  0  0  0  0  0
   98.9926   -7.8840   31.4371 C   0  0  0  0  0  0  0  0  0  0  0  0
   98.5798   -7.8518   29.9828 C   0  0  0  0  0  0  0  0  0  0  0  0
   98.9898   -7.0378   29.1622 O   0  0  0  0  0  0  0  0  0  0  0  0
   97.7403   -8.8616   29.6128 N   0  0  0  0  0  0  0  0  0  0  0  0
  102.0018   -6.1918   33.9352 N   0  0  0  0  0  0  0  0  0  0  0  0
  101.9751   -4.7811   34.3174 C   0  0  2  0  0  0  0  0  0  0  0  0
  100.7506   -4.4112   35.1949 C   0  0  0  0  0  0  0  0  0  0  0  0
  100.8663   -3.8159   36.2650 O   0  0  0  0  0  0  0  0  0  0  0  0
  102.0559   -3.8177   33.0991 C   0  0  2  0  0  0  0  0  0  0  0  0
  101.3892   -4.4041   31.9662 O   0  0  0  0  0  0  0  0  0  0  0  0
  103.4718   -3.4266   32.6961 C   0  0  0  0  0  0  0  0  0  0  0  0
   99.5098   -4.7811   34.6848 N   0  0  0  0  0  0  0  0  0  0  0  0
   98.3520   -4.1938   35.3652 C   0  0  2  0  0  0  0  0  0  0  0  0
   98.6801   -3.0424   36.3421 C   0  0  0  0  0  0  0  0  0  0  0  0
   98.5318   -1.8623   36.0445 O   0  0  0  0  0  0  0  0  0  0  0  0
   97.6019   -5.2849   36.1307 C   0  0  0  0  0  0  0  0  0  0  0  0
   98.9960   -3.4405   37.6319 N   0  0  0  0  0  0  0  0  0  0  0  0
   98.6469   -2.5296   38.7406 C   0  0  2  0  0  0  0  0  0  0  0  0
   99.6523   -2.5627   39.9157 C   0  0  0  0  0  0  0  0  0  0  0  0
   99.7344   -1.6496   40.7385 O   0  0  0  0  0  0  0  0  0  0  0  0
   97.2503   -2.9061   39.2723 C   0  0  0  0  0  0  0  0  0  0  0  0
   96.7136   -2.0297   40.4131 C   0  0  0  0  0  0  0  0  0  0  0  0
   95.2975   -2.4039   40.8499 C   0  0  0  0  0  0  0  0  0  0  0  0
   95.0504   -3.8066   40.5823 N   0  0  0  0  0  0  0  0  0  0  0  0
   94.1420   -4.5082   41.2995 C   0  0  0  0  0  0  0  0  0  0  0  0
   94.3638   -5.6770   41.7795 N   0  0  0  0  0  0  0  0  0  0  0  0
   92.9891   -3.8431   41.4997 N   0  0  0  0  0  0  0  0  0  0  0  0
  100.3188   -3.7486   40.0952 N   0  0  0  0  0  0  0  0  0  0  0  0
  101.5838   -3.8293   40.8173 C   0  0  2  0  0  0  0  0  0  0  0  0
  102.6840   -3.8565   39.7420 C   0  0  0  0  0  0  0  0  0  0  0  0
  103.8790   -3.8957   40.0330 O   0  0  0  0  0  0  0  0  0  0  0  0
  101.6017   -5.1209   41.6552 C   0  0  0  0  0  0  0  0  0  0  0  0
  101.1913   -4.9376   43.1257 C   0  0  0  0  0  0  0  0  0  0  0  0
  101.2254   -6.3016   43.8318 C   0  0  0  0  0  0  0  0  0  0  0  0
  102.1228   -6.3726   45.0577 C   0  0  0  0  0  0  0  0  0  0  0  0
  101.4142   -5.8233   46.2405 N   0  0  0  0  0  4  0  0  0  0  0  0
  102.2324   -3.9308   38.4369 N   0  0  0  0  0  0  0  0  0  0  0  0
  103.2037   -3.7854   37.3301 C   0  0  2  0  0  0  0  0  0  0  0  0
  103.8194   -2.3830   37.1581 C   0  0  0  0  0  0  0  0  0  0  0  0
  104.7707   -2.1589   36.4049 O   0  0  0  0  0  0  0  0  0  0  0  0
  102.5495   -4.2201   36.0105 C   0  0  0  0  0  0  0  0  0  0  0  0
  101.6029   -5.2751   36.2643 O   0  0  0  0  0  0  0  0  0  0  0  0
  103.2261   -1.3646   37.8678 N   0  0  0  0  0  0  0  0  0  0  0  0
  103.6707    0.0360   37.7750 C   0  0  2  0  0  0  0  0  0  0  0  0
  102.9857    0.9445   38.8306 C   0  0  0  0  0  0  0  0  0  0  0  0
  103.4764    1.1897   39.9324 O   0  0  0  0  0  0  0  0  0  0  0  0
  103.6348    0.6687   36.3525 C   0  0  2  0  0  0  0  0  0  0  0  0
  102.7690    1.8232   36.2470 O   0  0  0  0  0  0  0  0  0  0  0  0
  103.1506   -0.3446   35.3173 C   0  0  0  0  0  0  0  0  0  0  0  0
  101.7156    1.3366   38.4930 N   0  0  0  0  0  0  0  0  0  0  0  0
  101.4212    2.6735   38.0009 C   0  0  0  0  0  0  0  0  0  0  0  0
  101.5349    3.7378   39.0907 C   0  0  0  0  0  0  0  0  0  0  0  0
  101.9784    3.4791   40.2048 O   0  0  0  0  0  0  0  0  0  0  0  0
  101.1496    5.0056   38.6995 N   0  0  0  0  0  0  0  0  0  0  0  0
  102.0544    5.8084   37.8896 C   0  0  0  0  0  0  0  0  0  0  0  0
  102.1452    7.2701   38.3194 C   0  0  0  0  0  0  0  0  0  0  0  0
  102.9672    8.0378   37.8337 O   0  0  0  0  0  0  0  0  0  0  0  0
  101.3070    7.6352   39.3594 N   0  0  0  0  0  0  0  0  0  0  0  0
  100.3016    8.6805   39.1448 C   0  0  1  0  0  0  0  0  0  0  0  0
   98.8781    8.1391   39.3441 C   0  0  0  0  0  0  0  0  0  0  0  0
   98.3327    7.3865   38.1278 C   0  0  0  0  0  0  0  0  0  0  0  0
   96.9414    6.8263   38.4241 C   0  0  0  0  0  0  0  0  0  0  0  0
   96.2890    6.2363   37.1844 C   0  0  0  0  0  0  0  0  0  0  0  0
   95.5369    7.2668   36.4915 N   0  0  0  0  0  0  0  0  0  0  0  0
   94.9549    7.0566   35.2658 C   0  0  0  0  0  0  0  0  0  0  0  0
   95.2956    6.1927   34.4639 O   0  0  0  0  0  0  0  0  0  0  0  0
   93.9010    8.0395   34.9034 C   0  0  0  0  0  0  0  0  0  0  0  0
   93.7988    8.6497   33.7086 C   0  0  0  0  0  0  0  0  0  0  0  0
   92.7849    9.7025   33.4197 C   0  0  0  0  0  0  0  0  0  0  0  0
  100.5027    9.8737   40.1079 C   0  0  0  0  0  0  0  0  0  0  0  0
  100.3760    9.7650   41.3248 O   0  0  0  0  0  0  0  0  0  0  0  0
  101.0235   10.9968   39.5156 N   0  0  0  0  0  0  0  0  0  0  0  0
  101.6327   12.0915   40.2651 C   0  0  2  0  0  0  0  0  0  0  0  0
  101.9979   13.1500   39.2070 C   0  0  0  0  0  0  0  0  0  0  0  0
  102.1087   14.3409   39.5319 O   0  0  0  0  0  0  0  0  0  0  0  0
  102.8861   11.6271   40.9952 C   0  0  0  0  0  0  0  0  0  0  0  0
  102.1427   12.7610   37.9010 N   0  0  0  0  0  0  0  0  0  0  0  0
  103.3020   13.2267   37.1338 C   0  0  2  0  0  0  0  0  0  0  0  0
  103.1410   14.6874   36.6958 C   0  0  0  0  0  0  0  0  0  0  0  0
  103.9109   15.3151   35.9763 O   0  0  0  0  0  0  0  0  0  0  0  0
  103.3622   12.2928   35.9246 C   0  0  0  0  0  0  0  0  0  0  0  0
  101.9248   11.7994   35.7721 C   0  0  0  0  0  0  0  0  0  0  0  0
  101.4391   11.6970   37.2088 C   0  0  0  0  0  0  0  0  0  0  0  0
  102.0097   15.2850   37.1280 O   0  0  0  0  0  0  0  0  0  0  0  0
  105.3668  -13.5420   37.4739 H   0  0  0  0  0  0  0  0  0  0  0  0
   95.3434   -5.9275   41.6275 H   0  0  0  0  0  0  0  0  0  0  0  0
  1  2  1  0
  2  3  1  0
  2  5  1  6
  3  4  2  0
  3  6  1  0
  6  7  1  0
  7  8  1  0
  7 10  1  1
  8  9  2  0
  8 17  1  0
 10 11  1  0
 11 12  1  0
 12 13  1  0
 13 14  1  0
 14 15  2  0
 14 16  1  0
 18 17  1  1
 18 19  1  0
 18 21  1  0
 19 20  2  0
 19 24  1  0
 21 22  1  0
 21 23  1  1
 24 25  1  0
 25 26  1  0
 25 28  1  1
 26 27  2  0
 26 33  1  0
 28 29  1  0
 29 30  1  0
 30 31  1  0
 31 32  1  0
 33 34  1  0
 34 35  1  0
 34 37  1  6
 35 36  2  0
 35 42  1  0
 37 38  1  0
 38 39  1  0
 39 40  2  0
 39 41  1  0
 43 42  1  6
 43 44  1  0
 43 46  1  0
 44 45  2  0
 44 49  1  0
 46 47  1  0
 46 48  1  6
 49 50  1  0
 50 51  1  0
 50 53  1  1
 51 52  2  0
 51 54  1  0
 54 55  1  0
 55 56  1  0
 55 58  1  1
 56 57  2  0
 56 65  1  0
 58 59  1  0
 59 60  1  0
 60 61  1  0
 61 62  1  0
 62 63  2  0
 62 64  1  0
 65 66  1  0
 66 67  1  0
 66 69  1  6
 67 68  2  0
 67 74  1  0
 69 70  1  0
 70 71  1  0
 71 72  1  0
 72 73  1  0
 74 75  1  0
 75 76  1  0
 75 78  1  6
 76 77  2  0
 76 80  1  0
 78 79  1  0
 81 80  1  6
 81 82  1  0
 81 84  1  0
 82 83  2  0
 82 87  1  0
 84 85  1  0
 84 86  1  6
 87 88  1  0
 88 89  1  0
 89 90  2  0
 89 91  1  0
 91 92  1  0
 92 93  1  0
 93 94  2  0
 93 95  1  0
 95 96  1  0
 96 97  1  1
 96107  1  0
 97 98  1  0
 98 99  1  0
 99100  1  0
100101  1  0
101102  1  0
102103  2  0
102104  1  0
104105  2  0
105106  1  0
107108  2  0
107109  1  0
109110  1  0
110111  1  0
110113  1  6
111112  2  0
111114  1  0
114115  1  0
114120  1  0
115116  1  6
115118  1  0
116117  2  0
116121  1  0
118119  1  0
119120  1  0
 15122  1  0
 63123  1  0
M  CHG  3   1   1  32   1  73   1
M  END
$$$$
