
     RDKit          3D

123123  0  0  0  0  0  0  0  0999 V2000
  106.3079  -19.0504   39.9875 N   0  0  0  0  0  4  0  0  0  0  0  0
  105.2674  -18.2043   40.6449 C   0  0  2  0  0  0  0  0  0  0  0  0
  104.7160  -17.1660   39.6521 C   0  0  0  0  0  0  0  0  0  0  0  0
  105.4296  -16.2412   39.2531 O   0  0  0  0  0  0  0  0  0  0  0  0
  105.8702  -17.5571   41.8762 C   0  0  0  0  0  0  0  0  0  0  0  0
  103.4174  -17.3572   39.2360 N   0  0  0  0  0  0  0  0  0  0  0  0
  102.7857  -16.4387   38.2787 C   0  0  2  0  0  0  0  0  0  0  0  0
  102.0746  -15.3727   39.1451 C   0  0  0  0  0  0  0  0  0  0  0  0
  102.1691  -15.3686   40.3707 O   0  0  0  0  0  0  0  0  0  0  0  0
  101.8297  -17.2074   37.3629 C   0  0  0  0  0  0  0  0  0  0  0  0
  101.8399  -16.7696   35.8936 C   0  0  0  0  0  0  0  0  0  0  0  0
  100.8700  -17.6078   35.0422 C   0  0  0  0  0  0  0  0  0  0  0  0
  101.5209  -18.8367   34.6332 N   0  0  0  0  0  0  0  0  0  0  0  0
  102.7435  -18.8849   34.0571 C   0  0  0  0  0  0  0  0  0  0  0  0
  103.1444  -18.1520   33.0770 N   0  0  0  0  0  0  0  0  0  0  0  0
  103.4970  -19.8621   34.5951 N   0  0  0  0  0  0  0  0  0  0  0  0
  101.3995  -14.3812   38.4491 N   0  0  0  0  0  0  0  0  0  0  0  0
  101.0413  -13.1200   39.1306 C   0  0  2  0  0  0  0  0  0  0  0  0
  100.1406  -12.3437   38.1482 C   0  0  0  0  0  0  0  0  0  0  0  0
   99.7335  -12.7937   37.0752 O   0  0  0  0  0  0  0  0  0  0  0  0
  102.2673  -12.3382   39.6517 C   0  0  2  0  0  0  0  0  0  0  0  0
  102.5172  -11.2654   38.7236 O   0  0  0  0  0  0  0  0  0  0  0  0
  103.5183  -13.2014   39.7375 C   0  0  0  0  0  0  0  0  0  0  0  0
   99.8205  -11.0516   38.5694 N   0  0  0  0  0  0  0  0  0  0  0  0
  100.3609   -9.8943   37.8366 C   0  0  2  0  0  0  0  0  0  0  0  0
  101.4556  -10.0787   36.7611 C   0  0  0  0  0  0  0  0  0  0  0  0
  102.4933   -9.4159   36.8067 O   0  0  0  0  0  0  0  0  0  0  0  0
  100.9060   -8.8398   38.8475 C   0  0  0  0  0  0  0  0  0  0  0  0
  101.1359   -7.4501   38.2237 C   0  0  0  0  0  0  0  0  0  0  0  0
  101.8471   -6.4272   39.1266 C   0  0  0  0  0  0  0  0  0  0  0  0
  102.6179   -5.3339   38.3980 C   0  0  0  0  0  0  0  0  0  0  0  0
  103.3082   -4.4534   39.3680 N   0  0  0  0  0  4  0  0  0  0  0  0
  101.2436  -11.1134   35.8923 N   0  0  0  0  0  0  0  0  0  0  0  0
  101.8748  -11.1640   34.5887 C   0  0  2  0  0  0  0  0  0  0  0  0
  100.9069  -11.6549   33.4944 C   0  0  0  0  0  0  0  0  0  0  0  0
  100.9326  -12.8235   33.1045 O   0  0  0  0  0  0  0  0  0  0  0  0
  103.1019  -12.0961   34.6172 C   0  0  0  0  0  0  0  0  0  0  0  0
  104.3579  -11.5424   35.3022 C   0  0  0  0  0  0  0  0  0  0  0  0
  105.5304  -12.4968   35.3220 C   0  0  0  0  0  0  0  0  0  0  0  0
  105.9604  -13.0895   34.3382 O   0  0  0  0  0  0  0  0  0  0  0  0
  106.1422  -12.6128   36.5360 N   0  0  0  0  0  0  0  0  0  0  0  0
   99.9151  -10.7829   33.0947 N   0  0  0  0  0  0  0  0  0  0  0  0
   98.5291  -11.2404   33.0145 C   0  0  2  0  0  0  0  0  0  0  0  0
   97.4997  -10.0843   33.1140 C   0  0  0  0  0  0  0  0  0  0  0  0
   96.3501  -10.1912   32.6899 O   0  0  0  0  0  0  0  0  0  0  0  0
   98.1874  -12.3370   34.0631 C   0  0  2  0  0  0  0  0  0  0  0  0
   99.1533  -13.4018   33.9905 O   0  0  0  0  0  0  0  0  0  0  0  0
   96.7882  -12.9240   33.9300 C   0  0  0  0  0  0  0  0  0  0  0  0
   97.9555   -8.9229   33.7305 N   0  0  0  0  0  0  0  0  0  0  0  0
   97.0013   -7.8105   33.7553 C   0  0  2  0  0  0  0  0  0  0  0  0
   97.5407   -6.4974   34.3656 C   0  0  0  0  0  0  0  0  0  0  0  0
   96.9605   -5.9016   35.2666 O   0  0  0  0  0  0  0  0  0  0  0  0
   95.7488   -8.2293   34.5268 C   0  0  0  0  0  0  0  0  0  0  0  0
   98.8071   -6.1295   33.9383 N   0  0  0  0  0  0  0  0  0  0  0  0
   98.9075   -5.2250   32.7751 C   0  0  2  0  0  0  0  0  0  0  0  0
   98.0787   -3.9270   32.9206 C   0  0  0  0  0  0  0  0  0  0  0  0
   98.0642   -3.0538   32.0518 O   0  0  0  0  0  0  0  0  0  0  0  0
   98.4326   -5.9781   31.5173 C   0  0  0  0  0  0  0  0  0  0  0  0
   98.6126   -5.2323   30.1872 C   0  0  0  0  0  0  0  0  0  0  0  0
   98.1024   -6.0171   28.9789 C   0  0  0  0  0  0  0  0  0  0  0  0
   96.7188   -5.6765   28.7145 N   0  0  0  0  0  0  0  0  0  0  0  0
   96.0604   -6.1921   27.6503 C   0  0  0  0  0  0  0  0  0  0  0  0
   95.0604   -5.6194   27.0867 N   0  0  0  0  0  0  0  0  0  0  0  0
   96.5825   -7.3514   27.2085 N   0  0  0  0  0  0  0  0  0  0  0  0
   97.2179   -3.8873   33.9884 N   0  0  0  0  0  0  0  0  0  0  0  0
   96.4408   -2.6975   34.3182 C   0  0  2  0  0  0  0  0  0  0  0  0
   97.4470   -1.6764   34.8772 C   0  0  0  0  0  0  0  0  0  0  0  0
   97.2481   -0.4636   34.8138 O   0  0  0  0  0  0  0  0  0  0  0  0
   95.3851   -3.0654   35.3768 C   0  0  0  0  0  0  0  0  0  0  0  0
   94.5425   -1.8821   35.8810 C   0  0  0  0  0  0  0  0  0  0  0  0
   93.5398   -2.3883   36.9292 C   0  0  0  0  0  0  0  0  0  0  0  0
   92.3868   -1.4431   37.2302 C   0  0  0  0  0  0  0  0  0  0  0  0
   91.2052   -2.2122   37.6940 N   0  0  0  0  0  4  0  0  0  0  0  0
   98.5349   -2.2193   35.5362 N   0  0  0  0  0  0  0  0  0  0  0  0
   99.4985   -1.3142   36.2010 C   0  0  2  0  0  0  0  0  0  0  0  0
   99.3048    0.1899   35.9266 C   0  0  0  0  0  0  0  0  0  0  0  0
   98.3187    0.6397   35.3365 O   0  0  0  0  0  0  0  0  0  0  0  0
  100.9308   -1.7206   35.8244 C   0  0  0  0  0  0  0  0  0  0  0  0
  101.1992   -1.3402   34.4618 O   0  0  0  0  0  0  0  0  0  0  0  0
  100.2812    1.0296   36.4105 N   0  0  0  0  0  0  0  0  0  0  0  0
  100.2658    2.4844   36.1839 C   0  0  2  0  0  0  0  0  0  0  0  0
   98.8262    3.0428   36.0279 C   0  0  0  0  0  0  0  0  0  0  0  0
   98.5114    4.1946   36.3263 O   0  0  0  0  0  0  0  0  0  0  0  0
  101.2172    3.0097   35.0686 C   0  0  2  0  0  0  0  0  0  0  0  0
  102.2024    2.0422   34.6361 O   0  0  0  0  0  0  0  0  0  0  0  0
  101.9846    4.2423   35.5426 C   0  0  0  0  0  0  0  0  0  0  0  0
   97.8962    2.1018   35.6660 N   0  0  0  0  0  0  0  0  0  0  0  0
   96.4947    2.4341   35.4626 C   0  0  0  0  0  0  0  0  0  0  0  0
   96.1142    3.7767   36.0839 C   0  0  0  0  0  0  0  0  0  0  0  0
   94.9651    4.2045   36.0479 O   0  0  0  0  0  0  0  0  0  0  0  0
   97.1504    4.4290   36.7240 N   0  0  0  0  0  0  0  0  0  0  0  0
   96.8528    5.3298   37.8282 C   0  0  0  0  0  0  0  0  0  0  0  0
   98.0824    6.0012   38.4337 C   0  0  0  0  0  0  0  0  0  0  0  0
   98.7885    6.7643   37.7853 O   0  0  0  0  0  0  0  0  0  0  0  0
   98.3958    5.6105   39.7246 N   0  0  0  0  0  0  0  0  0  0  0  0
   99.2645    6.4591   40.5460 C   0  0  1  0  0  0  0  0  0  0  0  0
   99.1674    7.9336   40.1268 C   0  0  0  0  0  0  0  0  0  0  0  0
   99.8400    8.2349   38.7852 C   0  0  0  0  0  0  0  0  0  0  0  0
  101.2452    8.7960   39.0044 C   0  0  0  0  0  0  0  0  0  0  0  0
  101.8231    9.3974   37.7337 C   0  0  0  0  0  0  0  0  0  0  0  0
  102.7439   10.4668   38.0749 N   0  0  0  0  0  0  0  0  0  0  0  0
  103.3664   11.2356   37.1227 C   0  0  0  0  0  0  0  0  0  0  0  0
  103.1154   11.2084   35.9219 O   0  0  0  0  0  0  0  0  0  0  0  0
  104.4807   12.0747   37.6350 C   0  0  0  0  0  0  0  0  0  0  0  0
  105.2023   12.9310   36.8891 C   0  0  0  0  0  0  0  0  0  0  0  0
  106.0235   14.0260   37.4778 C   0  0  0  0  0  0  0  0  0  0  0  0
   98.9066    6.3603   42.0472 C   0  0  0  0  0  0  0  0  0  0  0  0
   99.2600    7.2065   42.8645 O   0  0  0  0  0  0  0  0  0  0  0  0
   98.0054    5.3705   42.3497 N   0  0  0  0  0  0  0  0  0  0  0  0
   98.3034    3.9468   42.2251 C   0  0  2  0  0  0  0  0  0  0  0  0
   99.2660    3.6335   43.3865 C   0  0  0  0  0  0  0  0  0  0  0  0
  100.4762    3.4815   43.1665 O   0  0  0  0  0  0  0  0  0  0  0  0
   98.9741    3.6403   40.8923 C   0  0  0  0  0  0  0  0  0  0  0  0
   98.7548    3.4733   44.6477 N   0  0  0  0  0  0  0  0  0  0  0  0
   99.6629    3.1918   45.7638 C   0  0  2  0  0  0  0  0  0  0  0  0
  100.1356    1.7331   45.7546 C   0  0  0  0  0  0  0  0  0  0  0  0
  100.7707    1.1737   46.6424 O   0  0  0  0  0  0  0  0  0  0  0  0
   98.8385    3.4955   47.0153 C   0  0  0  0  0  0  0  0  0  0  0  0
   97.3935    3.3198   46.5524 C   0  0  0  0  0  0  0  0  0  0  0  0
   97.4260    3.8196   45.1173 C   0  0  0  0  0  0  0  0  0  0  0  0
   99.7561    1.0234   44.6702 O   0  0  0  0  0  0  0  0  0  0  0  0
  102.3923  -17.4735   32.9089 H   0  0  0  0  0  0  0  0  0  0  0  0
   95.3479   -4.7053   26.7302 H   0  0  0  0  0  0  0  0  0  0  0  0
  1  2  1  0
  2  3  1  0
  2  5  1  1
  3  4  2  0
  3  6  1  0
  6  7  1  0
  7  8  1  0
  7 10  1  1
  8  9  2  0
  8 17  1  0
 10 11  1  0
 11 12  1  0
 12 13  1  0
 13 14  1  0
 14 15  2  0
 14 16  1  0
 18 17  1  6
 18 19  1  0
 18 21  1  0
 19 20  2  0
 19 24  1  0
 21 22  1  0
 21 23  1  6
 24 25  1  0
 25 26  1  0
 25 28  1  1
 26 27  2  0
 26 33  1  0
 28 29  1  0
 29 30  1  0
 30 31  1  0
 31 32  1  0
 33 34  1  0
 34 35  1  0
 34 37  1  1
 35 36  2  0
 35 42  1  0
 37 38  1  0
 38 39  1  0
 39 40  2  0
 39 41  1  0
 43 42  1  1
 43 44  1  0
 43 46  1  0
 44 45  2  0
 44 49  1  0
 46 47  1  0
 46 48  1  6
 49 50  1  0
 50 51  1  0
 50 53  1  1
 51 52  2  0
 51 54  1  0
 54 55  1  0
 55 56  1  0
 55 58  1  6
 56 57  2  0
 56 65  1  0
 58 59  1  0
 59 60  1  0
 60 61  1  0
 61 62  1  0
 62 63  2  0
 62 64  1  0
 65 66  1  0
 66 67  1  0
 66 69  1  1
 67 68  2  0
 67 74  1  0
 69 70  1  0
 70 71  1  0
 71 72  1  0
 72 73  1  0
 74 75  1  0
 75 76  1  0
 75 78  1  6
 76 77  2  0
 76 80  1  0
 78 79  1  0
 81 80  1  6
 81 82  1  0
 81 84  1  0
 82 83  2  0
 82 87  1  0
 84 85  1  0
 84 86  1  1
 87 88  1  0
 88 89  1  0
 89 90  2  0
 89 91  1  0
 91 92  1  0
 92 93  1  0
 93 94  2  0
 93 95  1  0
 95 96  1  0
 96 97  1  6
 96107  1  0
 97 98  1  0
 98 99  1  0
 99100  1  0
100101  1  0
101102  1  0
102103  2  0
102104  1  0
104105  2  0
105106  1  0
107108  2  0
107109  1  0
109110  1  0
110111  1  0
110113  1  6
111112  2  0
111114  1  0
114115  1  0
114120  1  0
115116  1  1
115118  1  0
116117  2  0
116121  1  0
118119  1  0
119120  1  0
 15122  1  0
 63123  1  0
M  CHG  3   1   1  32   1  73   1
M  END
$$$$
