
     RDKit          3D

123123  0  0  0  0  0  0  0  0999 V2000
   91.1131  -14.8683   39.7471 N   0  0  0  0  0  4  0  0  0  0  0  0
   92.3521  -14.1556   39.3139 C   0  0  2  0  0  0  0  0  0  0  0  0
   92.0023  -13.0198   38.3365 C   0  0  0  0  0  0  0  0  0  0  0  0
   91.1537  -13.1908   37.4564 O   0  0  0  0  0  0  0  0  0  0  0  0
   93.3076  -15.1628   38.7049 C   0  0  0  0  0  0  0  0  0  0  0  0
   92.6667  -11.8294   38.5299 N   0  0  0  0  0  0  0  0  0  0  0  0
   92.4368  -10.6807   37.6429 C   0  0  2  0  0  0  0  0  0  0  0  0
   93.0149  -11.1026   36.2716 C   0  0  0  0  0  0  0  0  0  0  0  0
   92.2938  -11.5174   35.3666 O   0  0  0  0  0  0  0  0  0  0  0  0
   93.1028   -9.4283   38.2189 C   0  0  0  0  0  0  0  0  0  0  0  0
   92.1566   -8.4552   38.9318 C   0  0  0  0  0  0  0  0  0  0  0  0
   92.9265   -7.4446   39.8001 C   0  0  0  0  0  0  0  0  0  0  0  0
   92.7789   -7.7948   41.1989 N   0  0  0  0  0  0  0  0  0  0  0  0
   93.6657   -7.4475   42.1591 C   0  0  0  0  0  0  0  0  0  0  0  0
   94.5881   -8.2049   42.6428 N   0  0  0  0  0  0  0  0  0  0  0  0
   93.4266   -6.2039   42.6158 N   0  0  0  0  0  0  0  0  0  0  0  0
   94.3771  -10.9035   36.1036 N   0  0  0  0  0  0  0  0  0  0  0  0
   94.9637  -10.9487   34.7481 C   0  0  2  0  0  0  0  0  0  0  0  0
   96.4565  -10.5989   34.9162 C   0  0  0  0  0  0  0  0  0  0  0  0
   96.9369   -9.4837   34.7039 O   0  0  0  0  0  0  0  0  0  0  0  0
   94.1999  -10.0816   33.7231 C   0  0  2  0  0  0  0  0  0  0  0  0
   95.1637   -9.2191   33.0893 O   0  0  0  0  0  0  0  0  0  0  0  0
   93.1309   -9.2137   34.3723 C   0  0  0  0  0  0  0  0  0  0  0  0
   97.2496  -11.6722   35.3268 N   0  0  0  0  0  0  0  0  0  0  0  0
   98.7051  -11.6244   35.1088 C   0  0  2  0  0  0  0  0  0  0  0  0
   99.3389  -10.5208   34.2315 C   0  0  0  0  0  0  0  0  0  0  0  0
  100.5441  -10.2769   34.3093 O   0  0  0  0  0  0  0  0  0  0  0  0
   99.1951  -12.9866   34.5298 C   0  0  0  0  0  0  0  0  0  0  0  0
  100.7289  -13.1264   34.4982 C   0  0  0  0  0  0  0  0  0  0  0  0
  101.2624  -14.4580   33.9417 C   0  0  0  0  0  0  0  0  0  0  0  0
  101.3265  -15.6069   34.9397 C   0  0  0  0  0  0  0  0  0  0  0  0
  102.2507  -16.6590   34.4587 N   0  0  0  0  0  4  0  0  0  0  0  0
   98.5060   -9.9817   33.2902 N   0  0  0  0  0  0  0  0  0  0  0  0
   98.9802   -9.0463   32.2898 C   0  0  2  0  0  0  0  0  0  0  0  0
   98.6856   -7.5840   32.6773 C   0  0  0  0  0  0  0  0  0  0  0  0
   99.5992   -6.8093   32.9662 O   0  0  0  0  0  0  0  0  0  0  0  0
   98.3270   -9.3367   30.9243 C   0  0  0  0  0  0  0  0  0  0  0  0
   99.2861   -9.5670   29.7495 C   0  0  0  0  0  0  0  0  0  0  0  0
   98.6017   -9.8326   28.4276 C   0  0  0  0  0  0  0  0  0  0  0  0
   98.4913  -10.9402   27.9128 O   0  0  0  0  0  0  0  0  0  0  0  0
   98.0384   -8.7307   27.8532 N   0  0  0  0  0  0  0  0  0  0  0  0
   97.3865   -7.1435   32.5281 N   0  0  0  0  0  0  0  0  0  0  0  0
   96.7926   -6.2662   33.5354 C   0  0  2  0  0  0  0  0  0  0  0  0
   97.7512   -5.9576   34.7152 C   0  0  0  0  0  0  0  0  0  0  0  0
   98.4314   -4.9337   34.7571 O   0  0  0  0  0  0  0  0  0  0  0  0
   95.4393   -6.7991   34.0863 C   0  0  2  0  0  0  0  0  0  0  0  0
   94.3743   -6.4621   33.1784 O   0  0  0  0  0  0  0  0  0  0  0  0
   95.0832   -6.2973   35.4797 C   0  0  0  0  0  0  0  0  0  0  0  0
   97.7791   -6.9063   35.7331 N   0  0  0  0  0  0  0  0  0  0  0  0
   98.6533   -6.5855   36.8650 C   0  0  2  0  0  0  0  0  0  0  0  0
  100.1607   -6.8161   36.6153 C   0  0  0  0  0  0  0  0  0  0  0  0
  100.8750   -7.4228   37.4058 O   0  0  0  0  0  0  0  0  0  0  0  0
   98.2297   -7.4043   38.0854 C   0  0  0  0  0  0  0  0  0  0  0  0
  100.6120   -6.4337   35.3616 N   0  0  0  0  0  0  0  0  0  0  0  0
  102.0441   -6.6249   35.0555 C   0  0  2  0  0  0  0  0  0  0  0  0
  102.8195   -7.3926   36.1518 C   0  0  0  0  0  0  0  0  0  0  0  0
  102.3871   -8.4267   36.6630 O   0  0  0  0  0  0  0  0  0  0  0  0
  102.6992   -5.2438   34.8597 C   0  0  0  0  0  0  0  0  0  0  0  0
  102.8662   -4.7866   33.4034 C   0  0  0  0  0  0  0  0  0  0  0  0
  103.9452   -3.7191   33.2235 C   0  0  0  0  0  0  0  0  0  0  0  0
  103.6896   -2.9535   32.0199 N   0  0  0  0  0  0  0  0  0  0  0  0
  104.0567   -3.4170   30.8024 C   0  0  0  0  0  0  0  0  0  0  0  0
  105.0453   -2.9497   30.1317 N   0  0  0  0  0  0  0  0  0  0  0  0
  103.3074   -4.4504   30.3751 N   0  0  0  0  0  0  0  0  0  0  0  0
  104.0988   -6.9580   36.3908 N   0  0  0  0  0  0  0  0  0  0  0  0
  104.9788   -7.6172   37.3496 C   0  0  2  0  0  0  0  0  0  0  0  0
  104.1774   -7.7188   38.6592 C   0  0  0  0  0  0  0  0  0  0  0  0
  102.9544   -7.5851   38.6870 O   0  0  0  0  0  0  0  0  0  0  0  0
  106.2424   -6.7591   37.5433 C   0  0  0  0  0  0  0  0  0  0  0  0
  107.4801   -7.2579   36.7793 C   0  0  0  0  0  0  0  0  0  0  0  0
  107.7626   -6.3094   35.6042 C   0  0  0  0  0  0  0  0  0  0  0  0
  109.1464   -5.6781   35.6013 C   0  0  0  0  0  0  0  0  0  0  0  0
  110.1841   -6.7242   35.7793 N   0  0  0  0  0  4  0  0  0  0  0  0
  104.9145   -8.0644   39.7772 N   0  0  0  0  0  0  0  0  0  0  0  0
  104.2509   -8.0803   41.0998 C   0  0  2  0  0  0  0  0  0  0  0  0
  103.7121   -6.7243   41.5960 C   0  0  0  0  0  0  0  0  0  0  0  0
  102.5157   -6.5231   41.8216 O   0  0  0  0  0  0  0  0  0  0  0  0
  105.2086   -8.6631   42.1493 C   0  0  0  0  0  0  0  0  0  0  0  0
  106.5551   -8.6436   41.6394 O   0  0  0  0  0  0  0  0  0  0  0  0
  104.6470   -5.7393   41.8160 N   0  0  0  0  0  0  0  0  0  0  0  0
  104.2874   -4.3210   41.9797 C   0  0  2  0  0  0  0  0  0  0  0  0
  102.7770   -4.0622   41.7338 C   0  0  0  0  0  0  0  0  0  0  0  0
  102.3417   -3.0293   41.2254 O   0  0  0  0  0  0  0  0  0  0  0  0
  105.1836   -3.2994   41.2192 C   0  0  2  0  0  0  0  0  0  0  0  0
  104.5466   -2.7103   40.0613 O   0  0  0  0  0  0  0  0  0  0  0  0
  106.4696   -3.9616   40.7289 C   0  0  0  0  0  0  0  0  0  0  0  0
  101.9507   -5.0199   42.2642 N   0  0  0  0  0  0  0  0  0  0  0  0
  101.0136   -4.7281   43.3379 C   0  0  0  0  0  0  0  0  0  0  0  0
   99.8075   -3.9214   42.8604 C   0  0  0  0  0  0  0  0  0  0  0  0
   98.8935   -3.6132   43.6183 O   0  0  0  0  0  0  0  0  0  0  0  0
   99.8630   -3.5325   41.5358 N   0  0  0  0  0  0  0  0  0  0  0  0
   98.8241   -2.6628   41.0033 C   0  0  0  0  0  0  0  0  0  0  0  0
   99.2706   -1.2198   40.7848 C   0  0  0  0  0  0  0  0  0  0  0  0
   99.8055   -0.5662   41.6725 O   0  0  0  0  0  0  0  0  0  0  0  0
   98.9391   -0.6764   39.5550 N   0  0  0  0  0  0  0  0  0  0  0  0
   99.3521    0.6934   39.2348 C   0  0  1  0  0  0  0  0  0  0  0  0
  100.4993    0.7093   38.2136 C   0  0  0  0  0  0  0  0  0  0  0  0
  100.9576    2.1181   37.8284 C   0  0  0  0  0  0  0  0  0  0  0  0
  102.1557    2.0514   36.8810 C   0  0  0  0  0  0  0  0  0  0  0  0
  101.7316    2.0977   35.4222 C   0  0  0  0  0  0  0  0  0  0  0  0
  102.0509    3.3985   34.8622 N   0  0  0  0  0  0  0  0  0  0  0  0
  101.7406    3.7410   33.5693 C   0  0  0  0  0  0  0  0  0  0  0  0
  100.6843    3.4744   33.0048 O   0  0  0  0  0  0  0  0  0  0  0  0
  102.8423    4.4009   32.8216 C   0  0  0  0  0  0  0  0  0  0  0  0
  102.7833    5.6417   32.3043 C   0  0  0  0  0  0  0  0  0  0  0  0
  103.8780    6.2308   31.4831 C   0  0  0  0  0  0  0  0  0  0  0  0
   98.1817    1.5234   38.6580 C   0  0  0  0  0  0  0  0  0  0  0  0
   97.2056    1.0018   38.1254 O   0  0  0  0  0  0  0  0  0  0  0  0
   98.2300    2.8597   38.9669 N   0  0  0  0  0  0  0  0  0  0  0  0
   97.8263    3.4005   40.2614 C   0  0  2  0  0  0  0  0  0  0  0  0
   97.9540    4.9289   40.1171 C   0  0  0  0  0  0  0  0  0  0  0  0
   97.6267    5.6709   41.0544 O   0  0  0  0  0  0  0  0  0  0  0  0
   98.7389    2.9017   41.3741 C   0  0  0  0  0  0  0  0  0  0  0  0
   98.3807    5.4500   38.9237 N   0  0  0  0  0  0  0  0  0  0  0  0
   98.6664    6.8844   38.8237 C   0  0  2  0  0  0  0  0  0  0  0  0
   97.3791    7.7135   38.7417 C   0  0  0  0  0  0  0  0  0  0  0  0
   97.1822    8.7977   39.2806 O   0  0  0  0  0  0  0  0  0  0  0  0
   99.4928    7.0229   37.5447 C   0  0  0  0  0  0  0  0  0  0  0  0
   99.0896    5.8051   36.7156 C   0  0  0  0  0  0  0  0  0  0  0  0
   98.8728    4.7274   37.7653 C   0  0  0  0  0  0  0  0  0  0  0  0
   96.4162    7.1850   37.9561 O   0  0  0  0  0  0  0  0  0  0  0  0
   94.8663   -7.7739   43.5321 H   0  0  0  0  0  0  0  0  0  0  0  0
  105.8272   -2.7622   30.7633 H   0  0  0  0  0  0  0  0  0  0  0  0
  1  2  1  0
  2  3  1  0
  2  5  1  6
  3  4  2  0
  3  6  1  0
  6  7  1  0
  7  8  1  0
  7 10  1  1
  8  9  2  0
  8 17  1  0
 10 11  1  0
 11 12  1  0
 12 13  1  0
 13 14  1  0
 14 15  2  0
 14 16  1  0
 18 17  1  1
 18 19  1  0
 18 21  1  0
 19 20  2  0
 19 24  1  0
 21 22  1  0
 21 23  1  1
 24 25  1  0
 25 26  1  0
 25 28  1  6
 26 27  2  0
 26 33  1  0
 28 29  1  0
 29 30  1  0
 30 31  1  0
 31 32  1  0
 33 34  1  0
 34 35  1  0
 34 37  1  6
 35 36  2  0
 35 42  1  0
 37 38  1  0
 38 39  1  0
 39 40  2  0
 39 41  1  0
 43 42  1  6
 43 44  1  0
 43 46  1  0
 44 45  2  0
 44 49  1  0
 46 47  1  0
 46 48  1  1
 49 50  1  0
 50 51  1  0
 50 53  1  1
 51 52  2  0
 51 54  1  0
 54 55  1  0
 55 56  1  0
 55 58  1  1
 56 57  2  0
 56 65  1  0
 58 59  1  0
 59 60  1  0
 60 61  1  0
 61 62  1  0
 62 63  2  0
 62 64  1  0
 65 66  1  0
 66 67  1  0
 66 69  1  1
 67 68  2  0
 67 74  1  0
 69 70  1  0
 70 71  1  0
 71 72  1  0
 72 73  1  0
 74 75  1  0
 75 76  1  0
 75 78  1  1
 76 77  2  0
 76 80  1  0
 78 79  1  0
 81 80  1  6
 81 82  1  0
 81 84  1  0
 82 83  2  0
 82 87  1  0
 84 85  1  0
 84 86  1  6
 87 88  1  0
 88 89  1  0
 89 90  2  0
 89 91  1  0
 91 92  1  0
 92 93  1  0
 93 94  2  0
 93 95  1  0
 95 96  1  0
 96 97  1  6
 96107  1  0
 97 98  1  0
 98 99  1  0
 99100  1  0
100101  1  0
101102  1  0
102103  2  0
102104  1  0
104105  2  0
105106  1  0
107108  2  0
107109  1  0
109110  1  0
110111  1  0
110113  1  1
111112  2  0
111114  1  0
114115  1  0
114120  1  0
115116  1  6
115118  1  0
116117  2  0
116121  1  0
118119  1  0
119120  1  0
 15122  1  0
 63123  1  0
M  CHG  3   1   1  32   1  73   1
M  END
$$$$
