
     RDKit          3D

123123  0  0  0  0  0  0  0  0999 V2000
  100.5228  -21.3635   32.6873 N   0  0  0  0  0  4  0  0  0  0  0  0
  100.3340  -20.0100   32.0848 C   0  0  2  0  0  0  0  0  0  0  0  0
  100.6450  -18.9150   33.1202 C   0  0  0  0  0  0  0  0  0  0  0  0
  101.6774  -18.9668   33.7949 O   0  0  0  0  0  0  0  0  0  0  0  0
   98.9200  -19.9069   31.5478 C   0  0  0  0  0  0  0  0  0  0  0  0
   99.7271  -17.8929   33.2138 N   0  0  0  0  0  0  0  0  0  0  0  0
   99.9782  -16.7252   34.0696 C   0  0  2  0  0  0  0  0  0  0  0  0
   98.6904  -15.8726   33.9840 C   0  0  0  0  0  0  0  0  0  0  0  0
   97.9864  -15.8655   32.9764 O   0  0  0  0  0  0  0  0  0  0  0  0
  101.2276  -15.9805   33.5919 C   0  0  0  0  0  0  0  0  0  0  0  0
  102.5532  -16.4948   34.1655 C   0  0  0  0  0  0  0  0  0  0  0  0
  103.7478  -15.6536   33.6825 C   0  0  0  0  0  0  0  0  0  0  0  0
  104.1668  -14.7540   34.7390 N   0  0  0  0  0  0  0  0  0  0  0  0
  105.3767  -14.8117   35.3406 C   0  0  0  0  0  0  0  0  0  0  0  0
  106.3042  -15.6684   35.0876 N   0  0  0  0  0  0  0  0  0  0  0  0
  105.4820  -13.8856   36.3120 N   0  0  0  0  0  0  0  0  0  0  0  0
   98.3408  -15.1893   35.1391 N   0  0  0  0  0  0  0  0  0  0  0  0
   97.0625  -14.4503   35.1962 C   0  0  2  0  0  0  0  0  0  0  0  0
   97.3302  -13.0811   34.5382 C   0  0  0  0  0  0  0  0  0  0  0  0
   98.0978  -12.2303   34.9926 O   0  0  0  0  0  0  0  0  0  0  0  0
   96.4570  -14.3869   36.6157 C   0  0  2  0  0  0  0  0  0  0  0  0
   97.5138  -14.6902   37.5461 O   0  0  0  0  0  0  0  0  0  0  0  0
   95.3338  -15.3944   36.8181 C   0  0  0  0  0  0  0  0  0  0  0  0
   96.6094  -12.8644   33.3623 N   0  0  0  0  0  0  0  0  0  0  0  0
   96.0269  -11.5372   33.1020 C   0  0  2  0  0  0  0  0  0  0  0  0
   96.2018  -10.3830   34.1151 C   0  0  0  0  0  0  0  0  0  0  0  0
   95.6093  -10.4054   35.1951 O   0  0  0  0  0  0  0  0  0  0  0  0
   94.4948  -11.6760   32.8485 C   0  0  0  0  0  0  0  0  0  0  0  0
   93.8161  -10.3548   32.4398 C   0  0  0  0  0  0  0  0  0  0  0  0
   92.7175  -10.4768   31.3695 C   0  0  0  0  0  0  0  0  0  0  0  0
   91.4099   -9.7635   31.6881 C   0  0  0  0  0  0  0  0  0  0  0  0
   90.2860  -10.3927   30.9576 N   0  0  0  0  0  4  0  0  0  0  0  0
   97.1572   -9.4625   33.7829 N   0  0  0  0  0  0  0  0  0  0  0  0
   97.9057   -8.7348   34.7882 C   0  0  2  0  0  0  0  0  0  0  0  0
   98.8813   -7.7189   34.1626 C   0  0  0  0  0  0  0  0  0  0  0  0
   99.0150   -7.6398   32.9403 O   0  0  0  0  0  0  0  0  0  0  0  0
   98.7072   -9.7072   35.6758 C   0  0  0  0  0  0  0  0  0  0  0  0
   99.4417   -9.0855   36.8705 C   0  0  0  0  0  0  0  0  0  0  0  0
   99.8102  -10.0697   37.9576 C   0  0  0  0  0  0  0  0  0  0  0  0
   99.0382  -10.4715   38.8217 O   0  0  0  0  0  0  0  0  0  0  0  0
  101.0851  -10.5487   37.8758 N   0  0  0  0  0  0  0  0  0  0  0  0
   99.4665   -6.8033   35.0129 N   0  0  0  0  0  0  0  0  0  0  0  0
   99.5198   -5.3908   34.6404 C   0  0  2  0  0  0  0  0  0  0  0  0
  100.1578   -4.4961   35.7352 C   0  0  0  0  0  0  0  0  0  0  0  0
   99.4852   -3.9395   36.6016 O   0  0  0  0  0  0  0  0  0  0  0  0
   98.1332   -4.8142   34.2359 C   0  0  2  0  0  0  0  0  0  0  0  0
   97.1927   -5.8875   34.0476 O   0  0  0  0  0  0  0  0  0  0  0  0
   98.1514   -3.9432   32.9864 C   0  0  0  0  0  0  0  0  0  0  0  0
  101.5435   -4.3776   35.6849 N   0  0  0  0  0  0  0  0  0  0  0  0
  102.1470   -3.6100   36.7780 C   0  0  2  0  0  0  0  0  0  0  0  0
  101.6855   -2.1387   36.8789 C   0  0  0  0  0  0  0  0  0  0  0  0
  102.0269   -1.2833   36.0697 O   0  0  0  0  0  0  0  0  0  0  0  0
  103.6700   -3.6355   36.6397 C   0  0  0  0  0  0  0  0  0  0  0  0
  100.7286   -1.8903   37.8507 N   0  0  0  0  0  0  0  0  0  0  0  0
  100.0903   -0.5586   37.8665 C   0  0  2  0  0  0  0  0  0  0  0  0
   98.8906   -0.4531   38.8373 C   0  0  0  0  0  0  0  0  0  0  0  0
   99.0364   -0.2820   40.0485 O   0  0  0  0  0  0  0  0  0  0  0  0
   99.6068   -0.2221   36.4425 C   0  0  0  0  0  0  0  0  0  0  0  0
  100.4095    0.8594   35.7051 C   0  0  0  0  0  0  0  0  0  0  0  0
   99.8934    1.1404   34.2941 C   0  0  0  0  0  0  0  0  0  0  0  0
  100.2784    2.4754   33.8819 N   0  0  0  0  0  0  0  0  0  0  0  0
  100.7055    2.7248   32.6220 C   0  0  0  0  0  0  0  0  0  0  0  0
  101.4029    3.7514   32.2974 N   0  0  0  0  0  0  0  0  0  0  0  0
  100.3630    1.7663   31.7413 N   0  0  0  0  0  0  0  0  0  0  0  0
   97.6536   -0.3768   38.2485 N   0  0  0  0  0  0  0  0  0  0  0  0
   96.5014    0.2031   38.9298 C   0  0  2  0  0  0  0  0  0  0  0  0
   96.3491   -0.5803   40.2453 C   0  0  0  0  0  0  0  0  0  0  0  0
   95.4238   -0.3664   41.0279 O   0  0  0  0  0  0  0  0  0  0  0  0
   95.2554    0.0335   38.0413 C   0  0  0  0  0  0  0  0  0  0  0  0
   95.3077   -1.1701   37.0858 C   0  0  0  0  0  0  0  0  0  0  0  0
   95.9233   -0.7262   35.7500 C   0  0  0  0  0  0  0  0  0  0  0  0
   95.6722   -1.6640   34.5791 C   0  0  0  0  0  0  0  0  0  0  0  0
   96.7486   -1.5163   33.5680 N   0  0  0  0  0  4  0  0  0  0  0  0
   97.2648   -1.5992   40.4352 N   0  0  0  0  0  0  0  0  0  0  0  0
   97.2584   -2.3432   41.7143 C   0  0  2  0  0  0  0  0  0  0  0  0
   97.7163   -1.5500   42.9538 C   0  0  0  0  0  0  0  0  0  0  0  0
   97.0530   -1.4927   43.9928 O   0  0  0  0  0  0  0  0  0  0  0  0
   98.1131   -3.6115   41.5765 C   0  0  0  0  0  0  0  0  0  0  0  0
   99.4178   -3.3792   42.1396 O   0  0  0  0  0  0  0  0  0  0  0  0
   98.9390   -0.9262   42.8620 N   0  0  0  0  0  0  0  0  0  0  0  0
   99.3604    0.1420   43.7837 C   0  0  2  0  0  0  0  0  0  0  0  0
   98.6018    1.4725   43.5324 C   0  0  0  0  0  0  0  0  0  0  0  0
   97.3816    1.5380   43.3855 O   0  0  0  0  0  0  0  0  0  0  0  0
  100.8964    0.3637   43.9119 C   0  0  2  0  0  0  0  0  0  0  0  0
  101.4178    1.3777   43.0211 O   0  0  0  0  0  0  0  0  0  0  0  0
  101.6600   -0.9247   43.6124 C   0  0  0  0  0  0  0  0  0  0  0  0
   99.4200    2.5565   43.3410 N   0  0  0  0  0  0  0  0  0  0  0  0
   99.1826    3.5315   42.2879 C   0  0  0  0  0  0  0  0  0  0  0  0
   99.1605    2.8992   40.8976 C   0  0  0  0  0  0  0  0  0  0  0  0
   98.1273    2.4624   40.4011 O   0  0  0  0  0  0  0  0  0  0  0  0
  100.3758    2.9110   40.2404 N   0  0  0  0  0  0  0  0  0  0  0  0
  100.7960    4.1152   39.5386 C   0  0  0  0  0  0  0  0  0  0  0  0
  102.0948    4.7213   40.0632 C   0  0  0  0  0  0  0  0  0  0  0  0
  102.5076    4.4890   41.1932 O   0  0  0  0  0  0  0  0  0  0  0  0
  102.7136    5.6231   39.2139 N   0  0  0  0  0  0  0  0  0  0  0  0
  102.0944    6.9299   38.9716 C   0  0  1  0  0  0  0  0  0  0  0  0
  103.1464    7.9930   38.6218 C   0  0  0  0  0  0  0  0  0  0  0  0
  103.6055    8.8202   39.8252 C   0  0  0  0  0  0  0  0  0  0  0  0
  104.8504    9.6344   39.4720 C   0  0  0  0  0  0  0  0  0  0  0  0
  105.2425   10.5887   40.5882 C   0  0  0  0  0  0  0  0  0  0  0  0
  106.6731   10.5058   40.8211 N   0  0  0  0  0  0  0  0  0  0  0  0
  107.5904   11.1109   39.9980 C   0  0  0  0  0  0  0  0  0  0  0  0
  108.4517   10.5227   39.3517 O   0  0  0  0  0  0  0  0  0  0  0  0
  107.5444   12.5961   40.0047 C   0  0  0  0  0  0  0  0  0  0  0  0
  107.7876   13.3764   38.9359 C   0  0  0  0  0  0  0  0  0  0  0  0
  107.3592   13.0169   37.5550 C   0  0  0  0  0  0  0  0  0  0  0  0
  101.0669    6.8705   37.8174 C   0  0  0  0  0  0  0  0  0  0  0  0
  101.2884    6.2677   36.7703 O   0  0  0  0  0  0  0  0  0  0  0  0
   99.8287    7.3691   38.1364 N   0  0  0  0  0  0  0  0  0  0  0  0
   99.3826    8.7092   37.7674 C   0  0  2  0  0  0  0  0  0  0  0  0
   98.7281    8.5488   36.3820 C   0  0  0  0  0  0  0  0  0  0  0  0
   99.2592    7.8297   35.5235 O   0  0  0  0  0  0  0  0  0  0  0  0
  100.5569    9.6755   37.6828 C   0  0  0  0  0  0  0  0  0  0  0  0
   97.5870    9.2534   36.1010 N   0  0  0  0  0  0  0  0  0  0  0  0
   96.9805    9.1439   34.7708 C   0  0  2  0  0  0  0  0  0  0  0  0
   97.7561    9.9558   33.7266 C   0  0  0  0  0  0  0  0  0  0  0  0
   98.0589    9.5808   32.5987 O   0  0  0  0  0  0  0  0  0  0  0  0
   95.5628    9.6880   34.9494 C   0  0  0  0  0  0  0  0  0  0  0  0
   95.6765   10.6141   36.1587 C   0  0  0  0  0  0  0  0  0  0  0  0
   96.6960    9.9104   37.0395 C   0  0  0  0  0  0  0  0  0  0  0  0
   98.0754   11.2106   34.1104 O   0  0  0  0  0  0  0  0  0  0  0  0
  105.9895  -16.1850   34.2580 H   0  0  0  0  0  0  0  0  0  0  0  0
  102.3577    3.6385   32.6455 H   0  0  0  0  0  0  0  0  0  0  0  0
  1  2  1  0
  2  3  1  0
  2  5  1  1
  3  4  2  0
  3  6  1  0
  6  7  1  0
  7  8  1  0
  7 10  1  6
  8  9  2  0
  8 17  1  0
 10 11  1  0
 11 12  1  0
 12 13  1  0
 13 14  1  0
 14 15  2  0
 14 16  1  0
 18 17  1  1
 18 19  1  0
 18 21  1  0
 19 20  2  0
 19 24  1  0
 21 22  1  0
 21 23  1  6
 24 25  1  0
 25 26  1  0
 25 28  1  1
 26 27  2  0
 26 33  1  0
 28 29  1  0
 29 30  1  0
 30 31  1  0
 31 32  1  0
 33 34  1  0
 34 35  1  0
 34 37  1  6
 35 36  2  0
 35 42  1  0
 37 38  1  0
 38 39  1  0
 39 40  2  0
 39 41  1  0
 43 42  1  1
 43 44  1  0
 43 46  1  0
 44 45  2  0
 44 49  1  0
 46 47  1  0
 46 48  1  6
 49 50  1  0
 50 51  1  0
 50 53  1  6
 51 52  2  0
 51 54  1  0
 54 55  1  0
 55 56  1  0
 55 58  1  6
 56 57  2  0
 56 65  1  0
 58 59  1  0
 59 60  1  0
 60 61  1  0
 61 62  1  0
 62 63  2  0
 62 64  1  0
 65 66  1  0
 66 67  1  0
 66 69  1  6
 67 68  2  0
 67 74  1  0
 69 70  1  0
 70 71  1  0
 71 72  1  0
 72 73  1  0
 74 75  1  0
 75 76  1  0
 75 78  1  6
 76 77  2  0
 76 80  1  0
 78 79  1  0
 81 80  1  6
 81 82  1  0
 81 84  1  0
 82 83  2  0
 82 87  1  0
 84 85  1  0
 84 86  1  6
 87 88  1  0
 88 89  1  0
 89 90  2  0
 89 91  1  0
 91 92  1  0
 92 93  1  0
 93 94  2  0
 93 95  1  0
 95 96  1  0
 96 97  1  6
 96107  1  0
 97 98  1  0
 98 99  1  0
 99100  1  0
100101  1  0
101102  1  0
102103  2  0
102104  1  0
104105  2  0
105106  1  0
107108  2  0
107109  1  0
109110  1  0
110111  1  0
110113  1  6
111112  2  0
111114  1  0
114115  1  0
114120  1  0
115116  1  6
115118  1  0
116117  2  0
116121  1  0
118119  1  0
119120  1  0
 15122  1  0
 63123  1  0
M  CHG  3   1   1  32   1  73   1
M  END
$$$$
