
     RDKit          3D

 23 25  0  0  0  0  0  0  0  0999 V2000
   57.1043  212.6657   47.2182 N   0  0  0  0  0  4  0  0  0  0  0  0
   57.9418  213.6033   47.9180 C   0  0  0  0  0  0  0  0  0  0  0  0
   59.3503  213.5829   47.4040 C   0  0  0  0  0  0  0  0  0  0  0  0
   60.3458  213.4493   48.4431 N   0  0  0  0  0  0  0  0  0  0  0  0
   61.7223  213.7170   48.2331 C   0  0  0  0  0  0  0  0  0  0  0  0
   62.0523  214.2683   47.1585 O   0  0  0  0  0  0  0  0  0  0  0  0
   62.7794  213.3841   49.2040 C   0  0  1  0  0  0  0  0  0  0  0  0
   63.7501  212.5378   48.6705 O   0  0  0  0  0  0  0  0  0  0  0  0
   63.6220  214.6285   49.5011 C   0  0  1  0  0  0  0  0  0  0  0  0
   63.0075  215.4715   50.3915 O   0  0  0  0  0  0  0  0  0  0  0  0
   64.8800  213.9925   50.0639 C   0  0  1  0  0  0  0  0  0  0  0  0
   64.8417  214.2076   51.4566 O   0  0  0  0  0  0  0  0  0  0  0  0
   64.7103  212.5601   49.7080 C   0  0  2  0  0  0  0  0  0  0  0  0
   65.8998  211.8672   49.3548 N   0  0  0  0  0  0  0  0  0  0  0  0
   65.9975  211.0449   48.2938 C   0  0  0  0  0  0  0  0  0  0  0  0
   67.2428  210.5393   48.2201 N   0  0  0  0  0  0  0  0  0  0  0  0
   67.9742  211.0246   49.2316 C   0  0  0  0  0  0  0  0  0  0  0  0
   67.1146  211.8557   49.9326 C   0  0  0  0  0  0  0  0  0  0  0  0
   67.5495  212.4969   51.0095 N   0  0  0  0  0  0  0  0  0  0  0  0
   68.8219  212.3285   51.4037 C   0  0  0  0  0  0  0  0  0  0  0  0
   69.6885  211.5163   50.7318 N   0  0  0  0  0  0  0  0  0  0  0  0
   69.2785  210.8539   49.6384 C   0  0  0  0  0  0  0  0  0  0  0  0
   70.1580  210.0041   48.9220 N   0  0  0  0  0  0  0  0  0  0  0  0
  1  2  1  0
  2  3  1  0
  3  4  1  0
  4  5  1  0
  5  6  2  0
  7  5  1  6
  7  8  1  0
  7  9  1  0
  8 13  1  0
  9 10  1  1
  9 11  1  0
 11 12  1  1
 11 13  1  0
 13 14  1  6
 14 15  1  0
 14 18  1  0
 15 16  2  0
 16 17  1  0
 17 18  2  0
 17 22  1  0
 18 19  1  0
 19 20  2  0
 20 21  1  0
 21 22  2  0
 22 23  1  0
M  CHG  1   1   1
M  END
$$$$
