
     RDKit          3D

 23 25  0  0  0  0  0  0  0  0999 V2000
   57.9508  214.3677   46.9770 N   0  0  0  0  0  4  0  0  0  0  0  0
   59.3179  213.9744   47.1933 C   0  0  0  0  0  0  0  0  0  0  0  0
   60.1418  215.1023   47.7387 C   0  0  0  0  0  0  0  0  0  0  0  0
   61.0786  214.6955   48.7613 N   0  0  0  0  0  0  0  0  0  0  0  0
   62.4409  214.4095   48.4912 C   0  0  0  0  0  0  0  0  0  0  0  0
   62.8766  214.6717   47.3470 O   0  0  0  0  0  0  0  0  0  0  0  0
   63.3665  213.8242   49.4769 C   0  0  1  0  0  0  0  0  0  0  0  0
   64.2890  212.9556   48.8962 O   0  0  0  0  0  0  0  0  0  0  0  0
   64.3023  214.9094   50.0185 C   0  0  1  0  0  0  0  0  0  0  0  0
   63.7001  215.6838   50.9771 O   0  0  0  0  0  0  0  0  0  0  0  0
   65.4325  214.0604   50.5714 C   0  0  1  0  0  0  0  0  0  0  0  0
   65.2913  214.0805   51.9739 O   0  0  0  0  0  0  0  0  0  0  0  0
   65.1491  212.7213   49.9936 C   0  0  2  0  0  0  0  0  0  0  0  0
   66.2880  211.9530   49.6298 N   0  0  0  0  0  0  0  0  0  0  0  0
   66.3139  211.1059   48.5842 C   0  0  0  0  0  0  0  0  0  0  0  0
   67.5256  210.5267   48.4947 N   0  0  0  0  0  0  0  0  0  0  0  0
   68.3065  210.9877   49.4803 C   0  0  0  0  0  0  0  0  0  0  0  0
   67.5127  211.8814   50.1819 C   0  0  0  0  0  0  0  0  0  0  0  0
   68.0081  212.5167   51.2359 N   0  0  0  0  0  0  0  0  0  0  0  0
   69.2770  212.2815   51.6065 C   0  0  0  0  0  0  0  0  0  0  0  0
   70.0796  211.4069   50.9334 N   0  0  0  0  0  0  0  0  0  0  0  0
   69.6073  210.7486   49.8629 C   0  0  0  0  0  0  0  0  0  0  0  0
   70.4196  209.8348   49.1458 N   0  0  0  0  0  0  0  0  0  0  0  0
  1  2  1  0
  2  3  1  0
  3  4  1  0
  4  5  1  0
  5  6  2  0
  7  5  1  6
  7  8  1  0
  7  9  1  0
  8 13  1  0
  9 10  1  1
  9 11  1  0
 11 12  1  1
 11 13  1  0
 13 14  1  6
 14 15  1  0
 14 18  1  0
 15 16  2  0
 16 17  1  0
 17 18  2  0
 17 22  1  0
 18 19  1  0
 19 20  2  0
 20 21  1  0
 21 22  2  0
 22 23  1  0
M  CHG  1   1   1
M  END
$$$$
