
     RDKit          3D

 23 25  0  0  0  0  0  0  0  0999 V2000
   58.5816  212.7722   46.1005 N   0  0  0  0  0  4  0  0  0  0  0  0
   59.8855  213.2909   46.4187 C   0  0  0  0  0  0  0  0  0  0  0  0
   59.8050  214.4749   47.3352 C   0  0  0  0  0  0  0  0  0  0  0  0
   60.7225  214.4098   48.4500 N   0  0  0  0  0  0  0  0  0  0  0  0
   62.1315  214.4272   48.2927 C   0  0  0  0  0  0  0  0  0  0  0  0
   62.5951  214.9171   47.2378 O   0  0  0  0  0  0  0  0  0  0  0  0
   63.0747  213.9036   49.2963 C   0  0  1  0  0  0  0  0  0  0  0  0
   63.9903  213.0036   48.7533 O   0  0  0  0  0  0  0  0  0  0  0  0
   64.0161  215.0210   49.7567 C   0  0  1  0  0  0  0  0  0  0  0  0
   63.4273  215.8500   50.6771 O   0  0  0  0  0  0  0  0  0  0  0  0
   65.1576  214.2087   50.3407 C   0  0  1  0  0  0  0  0  0  0  0  0
   65.0391  214.3122   51.7416 O   0  0  0  0  0  0  0  0  0  0  0  0
   64.8688  212.8370   49.8485 C   0  0  2  0  0  0  0  0  0  0  0  0
   66.0039  212.0506   49.5126 N   0  0  0  0  0  0  0  0  0  0  0  0
   66.0696  211.2615   48.4242 C   0  0  0  0  0  0  0  0  0  0  0  0
   67.2658  210.6463   48.3768 N   0  0  0  0  0  0  0  0  0  0  0  0
   67.9966  211.0253   49.4332 C   0  0  0  0  0  0  0  0  0  0  0  0
   67.1882  211.9064   50.1341 C   0  0  0  0  0  0  0  0  0  0  0  0
   67.6354  212.4656   51.2509 N   0  0  0  0  0  0  0  0  0  0  0  0
   68.8703  212.1664   51.6850 C   0  0  0  0  0  0  0  0  0  0  0  0
   69.6862  211.3026   51.0141 N   0  0  0  0  0  0  0  0  0  0  0  0
   69.2624  210.7206   49.8809 C   0  0  0  0  0  0  0  0  0  0  0  0
   70.0896  209.8197   49.1646 N   0  0  0  0  0  0  0  0  0  0  0  0
  1  2  1  0
  2  3  1  0
  3  4  1  0
  4  5  1  0
  5  6  2  0
  7  5  1  6
  7  8  1  0
  7  9  1  0
  8 13  1  0
  9 10  1  1
  9 11  1  0
 11 12  1  1
 11 13  1  0
 13 14  1  6
 14 15  1  0
 14 18  1  0
 15 16  2  0
 16 17  1  0
 17 18  2  0
 17 22  1  0
 18 19  1  0
 19 20  2  0
 20 21  1  0
 21 22  2  0
 22 23  1  0
M  CHG  1   1   1
M  END
$$$$
