
     RDKit          3D

 23 25  0  0  0  0  0  0  0  0999 V2000
   61.6652  219.1028   45.9412 N   0  0  0  0  0  4  0  0  0  0  0  0
   61.5079  218.3766   47.1734 C   0  0  0  0  0  0  0  0  0  0  0  0
   61.7178  216.9042   46.9822 C   0  0  0  0  0  0  0  0  0  0  0  0
   62.0116  216.1956   48.2072 N   0  0  0  0  0  0  0  0  0  0  0  0
   63.3299  216.0098   48.6949 C   0  0  0  0  0  0  0  0  0  0  0  0
   64.1898  216.8690   48.3946 O   0  0  0  0  0  0  0  0  0  0  0  0
   63.7413  214.8682   49.5306 C   0  0  1  0  0  0  0  0  0  0  0  0
   64.6535  214.0337   48.8868 O   0  0  0  0  0  0  0  0  0  0  0  0
   64.5917  215.3640   50.7044 C   0  0  1  0  0  0  0  0  0  0  0  0
   63.8268  215.8864   51.7160 O   0  0  0  0  0  0  0  0  0  0  0  0
   65.3005  214.0824   51.1034 C   0  0  1  0  0  0  0  0  0  0  0  0
   64.6812  213.6424   52.2910 O   0  0  0  0  0  0  0  0  0  0  0  0
   65.0228  213.1830   49.9539 C   0  0  2  0  0  0  0  0  0  0  0  0
   66.0746  212.2969   49.5961 N   0  0  0  0  0  0  0  0  0  0  0  0
   65.9676  211.3611   48.6346 C   0  0  0  0  0  0  0  0  0  0  0  0
   67.1242  210.6812   48.5273 N   0  0  0  0  0  0  0  0  0  0  0  0
   68.0014  211.1638   49.4168 C   0  0  0  0  0  0  0  0  0  0  0  0
   67.3249  212.1768   50.0781 C   0  0  0  0  0  0  0  0  0  0  0  0
   67.9355  212.8614   51.0363 N   0  0  0  0  0  0  0  0  0  0  0  0
   69.2054  212.5592   51.3507 C   0  0  0  0  0  0  0  0  0  0  0  0
   69.8940  211.5670   50.7155 N   0  0  0  0  0  0  0  0  0  0  0  0
   69.3036  210.8563   49.7415 C   0  0  0  0  0  0  0  0  0  0  0  0
   69.9960  209.8205   49.0657 N   0  0  0  0  0  0  0  0  0  0  0  0
  1  2  1  0
  2  3  1  0
  3  4  1  0
  4  5  1  0
  5  6  2  0
  7  5  1  6
  7  8  1  0
  7  9  1  0
  8 13  1  0
  9 10  1  1
  9 11  1  0
 11 12  1  1
 11 13  1  0
 13 14  1  6
 14 15  1  0
 14 18  1  0
 15 16  2  0
 16 17  1  0
 17 18  2  0
 17 22  1  0
 18 19  1  0
 19 20  2  0
 20 21  1  0
 21 22  2  0
 22 23  1  0
M  CHG  1   1   1
M  END
$$$$
