
     RDKit          3D

 23 25  0  0  0  0  0  0  0  0999 V2000
   57.4544  213.3823   47.4976 N   0  0  0  0  0  4  0  0  0  0  0  0
   58.8489  213.1311   47.2473 C   0  0  0  0  0  0  0  0  0  0  0  0
   59.6776  214.3683   47.4235 C   0  0  0  0  0  0  0  0  0  0  0  0
   60.6715  214.2578   48.4670 N   0  0  0  0  0  0  0  0  0  0  0  0
   62.0598  214.1437   48.2024 C   0  0  0  0  0  0  0  0  0  0  0  0
   62.4643  214.4608   47.0607 O   0  0  0  0  0  0  0  0  0  0  0  0
   63.0468  213.6753   49.1911 C   0  0  1  0  0  0  0  0  0  0  0  0
   63.9991  212.8226   48.6354 O   0  0  0  0  0  0  0  0  0  0  0  0
   63.9355  214.8431   49.6307 C   0  0  1  0  0  0  0  0  0  0  0  0
   63.3198  215.6441   50.5583 O   0  0  0  0  0  0  0  0  0  0  0  0
   65.1284  214.0950   50.1974 C   0  0  1  0  0  0  0  0  0  0  0  0
   65.0291  214.1986   51.5998 O   0  0  0  0  0  0  0  0  0  0  0  0
   64.9042  212.7076   49.7154 C   0  0  2  0  0  0  0  0  0  0  0  0
   66.0732  211.9808   49.3625 N   0  0  0  0  0  0  0  0  0  0  0  0
   66.1452  211.1506   48.3056 C   0  0  0  0  0  0  0  0  0  0  0  0
   67.3760  210.6109   48.2309 N   0  0  0  0  0  0  0  0  0  0  0  0
   68.1236  211.0814   49.2375 C   0  0  0  0  0  0  0  0  0  0  0  0
   67.2891  211.9394   49.9366 C   0  0  0  0  0  0  0  0  0  0  0  0
   67.7446  212.5742   51.0087 N   0  0  0  0  0  0  0  0  0  0  0  0
   69.0133  212.3732   51.4000 C   0  0  0  0  0  0  0  0  0  0  0  0
   69.8554  211.5342   50.7298 N   0  0  0  0  0  0  0  0  0  0  0  0
   69.4240  210.8775   49.6413 C   0  0  0  0  0  0  0  0  0  0  0  0
   70.2778  210.0003   48.9268 N   0  0  0  0  0  0  0  0  0  0  0  0
  1  2  1  0
  2  3  1  0
  3  4  1  0
  4  5  1  0
  5  6  2  0
  7  5  1  6
  7  8  1  0
  7  9  1  0
  8 13  1  0
  9 10  1  1
  9 11  1  0
 11 12  1  1
 11 13  1  0
 13 14  1  6
 14 15  1  0
 14 18  1  0
 15 16  2  0
 16 17  1  0
 17 18  2  0
 17 22  1  0
 18 19  1  0
 19 20  2  0
 20 21  1  0
 21 22  2  0
 22 23  1  0
M  CHG  1   1   1
M  END
$$$$
