
     RDKit          3D

 23 25  0  0  0  0  0  0  0  0999 V2000
   57.2938  212.6603   46.5770 N   0  0  0  0  0  4  0  0  0  0  0  0
   58.4611  212.4819   47.3992 C   0  0  0  0  0  0  0  0  0  0  0  0
   59.2079  213.7678   47.5919 C   0  0  0  0  0  0  0  0  0  0  0  0
   60.2501  213.6902   48.5902 N   0  0  0  0  0  0  0  0  0  0  0  0
   61.6302  213.7633   48.2733 C   0  0  0  0  0  0  0  0  0  0  0  0
   61.9447  214.1051   47.1105 O   0  0  0  0  0  0  0  0  0  0  0  0
   62.7081  213.4610   49.2312 C   0  0  1  0  0  0  0  0  0  0  0  0
   63.6819  212.6203   48.6946 O   0  0  0  0  0  0  0  0  0  0  0  0
   63.5374  214.7219   49.4943 C   0  0  1  0  0  0  0  0  0  0  0  0
   62.9257  215.5702   50.3818 O   0  0  0  0  0  0  0  0  0  0  0  0
   64.8138  214.1130   50.0457 C   0  0  1  0  0  0  0  0  0  0  0  0
   64.7956  214.3497   51.4353 O   0  0  0  0  0  0  0  0  0  0  0  0
   64.6590  212.6728   49.7152 C   0  0  2  0  0  0  0  0  0  0  0  0
   65.8523  211.9914   49.3528 N   0  0  0  0  0  0  0  0  0  0  0  0
   65.9510  211.1736   48.2884 C   0  0  0  0  0  0  0  0  0  0  0  0
   67.2001  210.6790   48.2058 N   0  0  0  0  0  0  0  0  0  0  0  0
   67.9332  211.1671   49.2148 C   0  0  0  0  0  0  0  0  0  0  0  0
   67.0705  211.9885   49.9236 C   0  0  0  0  0  0  0  0  0  0  0  0
   67.5060  212.6297   51.0002 N   0  0  0  0  0  0  0  0  0  0  0  0
   68.7821  212.4709   51.3865 C   0  0  0  0  0  0  0  0  0  0  0  0
   69.6518  211.6685   50.7068 N   0  0  0  0  0  0  0  0  0  0  0  0
   69.2411  211.0064   49.6135 C   0  0  0  0  0  0  0  0  0  0  0  0
   70.1238  210.1666   48.8891 N   0  0  0  0  0  0  0  0  0  0  0  0
  1  2  1  0
  2  3  1  0
  3  4  1  0
  4  5  1  0
  5  6  2  0
  7  5  1  6
  7  8  1  0
  7  9  1  0
  8 13  1  0
  9 10  1  1
  9 11  1  0
 11 12  1  1
 11 13  1  0
 13 14  1  6
 14 15  1  0
 14 18  1  0
 15 16  2  0
 16 17  1  0
 17 18  2  0
 17 22  1  0
 18 19  1  0
 19 20  2  0
 20 21  1  0
 21 22  2  0
 22 23  1  0
M  CHG  1   1   1
M  END
$$$$
