
     RDKit          3D

 23 25  0  0  0  0  0  0  0  0999 V2000
   59.9538  218.3230   46.8238 N   0  0  0  0  0  4  0  0  0  0  0  0
   60.6607  217.5687   47.8247 C   0  0  0  0  0  0  0  0  0  0  0  0
   60.4871  216.0916   47.6340 C   0  0  0  0  0  0  0  0  0  0  0  0
   61.1870  215.2932   48.6146 N   0  0  0  0  0  0  0  0  0  0  0  0
   62.5405  214.8979   48.4652 C   0  0  0  0  0  0  0  0  0  0  0  0
   63.1256  215.2092   47.4029 O   0  0  0  0  0  0  0  0  0  0  0  0
   63.2919  214.1454   49.4851 C   0  0  1  0  0  0  0  0  0  0  0  0
   64.1778  213.2249   48.9276 O   0  0  0  0  0  0  0  0  0  0  0  0
   64.2704  215.0798   50.2036 C   0  0  1  0  0  0  0  0  0  0  0  0
   63.6516  215.8446   51.1593 O   0  0  0  0  0  0  0  0  0  0  0  0
   65.2433  214.0745   50.7924 C   0  0  1  0  0  0  0  0  0  0  0  0
   64.9567  214.0091   52.1712 O   0  0  0  0  0  0  0  0  0  0  0  0
   64.8882  212.8195   50.0808 C   0  0  2  0  0  0  0  0  0  0  0  0
   65.9753  211.9592   49.7681 N   0  0  0  0  0  0  0  0  0  0  0  0
   65.9380  211.0344   48.7909 C   0  0  0  0  0  0  0  0  0  0  0  0
   67.1123  210.3789   48.7364 N   0  0  0  0  0  0  0  0  0  0  0  0
   67.9316  210.8669   49.6769 C   0  0  0  0  0  0  0  0  0  0  0  0
   67.2007  211.8574   50.3139 C   0  0  0  0  0  0  0  0  0  0  0  0
   67.7460  212.5411   51.3114 N   0  0  0  0  0  0  0  0  0  0  0  0
   69.0036  212.2599   51.6885 C   0  0  0  0  0  0  0  0  0  0  0  0
   69.7448  211.2900   51.0784 N   0  0  0  0  0  0  0  0  0  0  0  0
   69.2209  210.5809   50.0659 C   0  0  0  0  0  0  0  0  0  0  0  0
   69.9689  209.5681   49.4150 N   0  0  0  0  0  0  0  0  0  0  0  0
  1  2  1  0
  2  3  1  0
  3  4  1  0
  4  5  1  0
  5  6  2  0
  7  5  1  6
  7  8  1  0
  7  9  1  0
  8 13  1  0
  9 10  1  1
  9 11  1  0
 11 12  1  1
 11 13  1  0
 13 14  1  6
 14 15  1  0
 14 18  1  0
 15 16  2  0
 16 17  1  0
 17 18  2  0
 17 22  1  0
 18 19  1  0
 19 20  2  0
 20 21  1  0
 21 22  2  0
 22 23  1  0
M  CHG  1   1   1
M  END
$$$$
