
     RDKit          3D

 23 25  0  0  0  0  0  0  0  0999 V2000
   57.2695  214.6251   46.9401 N   0  0  0  0  0  4  0  0  0  0  0  0
   58.0999  214.0428   47.9608 C   0  0  0  0  0  0  0  0  0  0  0  0
   59.3945  213.5333   47.4015 C   0  0  0  0  0  0  0  0  0  0  0  0
   60.3967  213.2659   48.4079 N   0  0  0  0  0  0  0  0  0  0  0  0
   61.7888  213.3067   48.1417 C   0  0  0  0  0  0  0  0  0  0  0  0
   62.1529  213.6175   46.9847 O   0  0  0  0  0  0  0  0  0  0  0  0
   62.8244  213.0055   49.1455 C   0  0  1  0  0  0  0  0  0  0  0  0
   63.8850  212.2710   48.6178 O   0  0  0  0  0  0  0  0  0  0  0  0
   63.5468  214.2947   49.5491 C   0  0  1  0  0  0  0  0  0  0  0  0
   62.8247  215.0345   50.4505 O   0  0  0  0  0  0  0  0  0  0  0  0
   64.8260  213.7309   50.1402 C   0  0  1  0  0  0  0  0  0  0  0  0
   64.7065  213.8636   51.5386 O   0  0  0  0  0  0  0  0  0  0  0  0
   64.7918  212.3117   49.7018 C   0  0  2  0  0  0  0  0  0  0  0  0
   66.0493  211.7372   49.3729 N   0  0  0  0  0  0  0  0  0  0  0  0
   66.2577  210.9681   48.2883 C   0  0  0  0  0  0  0  0  0  0  0  0
   67.5441  210.5740   48.2474 N   0  0  0  0  0  0  0  0  0  0  0  0
   68.1923  211.0803   49.3043 C   0  0  0  0  0  0  0  0  0  0  0  0
   67.2381  211.8072   49.9988 C   0  0  0  0  0  0  0  0  0  0  0  0
   67.5750  212.4409   51.1145 N   0  0  0  0  0  0  0  0  0  0  0  0
   68.8416  212.3666   51.5538 C   0  0  0  0  0  0  0  0  0  0  0  0
   69.8000  211.6581   50.8893 N   0  0  0  0  0  0  0  0  0  0  0  0
   69.4902  211.0061   49.7574 C   0  0  0  0  0  0  0  0  0  0  0  0
   70.4665  210.2630   49.0477 N   0  0  0  0  0  0  0  0  0  0  0  0
  1  2  1  0
  2  3  1  0
  3  4  1  0
  4  5  1  0
  5  6  2  0
  7  5  1  6
  7  8  1  0
  7  9  1  0
  8 13  1  0
  9 10  1  1
  9 11  1  0
 11 12  1  1
 11 13  1  0
 13 14  1  6
 14 15  1  0
 14 18  1  0
 15 16  2  0
 16 17  1  0
 17 18  2  0
 17 22  1  0
 18 19  1  0
 19 20  2  0
 20 21  1  0
 21 22  2  0
 22 23  1  0
M  CHG  1   1   1
M  END
$$$$
