
     RDKit          3D

 23 25  0  0  0  0  0  0  0  0999 V2000
   57.3400  212.7762   46.6996 N   0  0  0  0  0  4  0  0  0  0  0  0
   58.6981  212.6623   47.1610 C   0  0  0  0  0  0  0  0  0  0  0  0
   59.2400  213.9806   47.6267 C   0  0  0  0  0  0  0  0  0  0  0  0
   60.2959  213.8611   48.6063 N   0  0  0  0  0  0  0  0  0  0  0  0
   61.6351  213.5452   48.2640 C   0  0  0  0  0  0  0  0  0  0  0  0
   61.9155  213.4311   47.0490 O   0  0  0  0  0  0  0  0  0  0  0  0
   62.7085  213.3451   49.2532 C   0  0  1  0  0  0  0  0  0  0  0  0
   63.7004  212.4770   48.7998 O   0  0  0  0  0  0  0  0  0  0  0  0
   63.5154  214.6376   49.4123 C   0  0  1  0  0  0  0  0  0  0  0  0
   62.8821  215.5496   50.2175 O   0  0  0  0  0  0  0  0  0  0  0  0
   64.7958  214.0999   50.0249 C   0  0  1  0  0  0  0  0  0  0  0  0
   64.7609  214.4562   51.3884 O   0  0  0  0  0  0  0  0  0  0  0  0
   64.6667  212.6341   49.8198 C   0  0  2  0  0  0  0  0  0  0  0  0
   65.8740  211.9435   49.5278 N   0  0  0  0  0  0  0  0  0  0  0  0
   66.0268  211.1204   48.4739 C   0  0  0  0  0  0  0  0  0  0  0  0
   67.2753  210.6174   48.4637 N   0  0  0  0  0  0  0  0  0  0  0  0
   67.9538  211.1052   49.5103 C   0  0  0  0  0  0  0  0  0  0  0  0
   67.0581  211.9352   50.1662 C   0  0  0  0  0  0  0  0  0  0  0  0
   67.4367  212.5782   51.2629 N   0  0  0  0  0  0  0  0  0  0  0  0
   68.6880  212.4129   51.7210 C   0  0  0  0  0  0  0  0  0  0  0  0
   69.5892  211.6020   51.0945 N   0  0  0  0  0  0  0  0  0  0  0  0
   69.2361  210.9377   49.9825 C   0  0  0  0  0  0  0  0  0  0  0  0
   70.1525  210.0892   49.3123 N   0  0  0  0  0  0  0  0  0  0  0  0
  1  2  1  0
  2  3  1  0
  3  4  1  0
  4  5  1  0
  5  6  2  0
  7  5  1  6
  7  8  1  0
  7  9  1  0
  8 13  1  0
  9 10  1  1
  9 11  1  0
 11 12  1  1
 11 13  1  0
 13 14  1  6
 14 15  1  0
 14 18  1  0
 15 16  2  0
 16 17  1  0
 17 18  2  0
 17 22  1  0
 18 19  1  0
 19 20  2  0
 20 21  1  0
 21 22  2  0
 22 23  1  0
M  CHG  1   1   1
M  END
$$$$
