
     RDKit          3D

 23 25  0  0  0  0  0  0  0  0999 V2000
   61.6153  218.7183   45.8249 N   0  0  0  0  0  4  0  0  0  0  0  0
   61.4618  218.1979   47.1576 C   0  0  0  0  0  0  0  0  0  0  0  0
   60.9466  216.7898   47.1492 C   0  0  0  0  0  0  0  0  0  0  0  0
   61.4960  215.9640   48.2005 N   0  0  0  0  0  0  0  0  0  0  0  0
   62.8890  215.7751   48.3859 C   0  0  0  0  0  0  0  0  0  0  0  0
   63.6692  216.4770   47.7030 O   0  0  0  0  0  0  0  0  0  0  0  0
   63.4655  214.8040   49.3322 C   0  0  1  0  0  0  0  0  0  0  0  0
   64.3261  213.8986   48.7136 O   0  0  0  0  0  0  0  0  0  0  0  0
   64.4372  215.5157   50.2788 C   0  0  1  0  0  0  0  0  0  0  0  0
   63.7871  216.1802   51.2873 O   0  0  0  0  0  0  0  0  0  0  0  0
   65.2574  214.3412   50.7803 C   0  0  1  0  0  0  0  0  0  0  0  0
   64.8242  214.0916   52.0984 O   0  0  0  0  0  0  0  0  0  0  0  0
   64.8766  213.2522   49.8440 C   0  0  2  0  0  0  0  0  0  0  0  0
   65.9160  212.3485   49.4938 N   0  0  0  0  0  0  0  0  0  0  0  0
   65.8292  211.4683   48.4792 C   0  0  0  0  0  0  0  0  0  0  0  0
   66.9667  210.7536   48.3952 N   0  0  0  0  0  0  0  0  0  0  0  0
   67.8108  211.1575   49.3533 C   0  0  0  0  0  0  0  0  0  0  0  0
   67.1341  212.1586   50.0323 C   0  0  0  0  0  0  0  0  0  0  0  0
   67.7152  212.7701   51.0561 N   0  0  0  0  0  0  0  0  0  0  0  0
   68.9558  212.4065   51.4187 C   0  0  0  0  0  0  0  0  0  0  0  0
   69.6439  211.4244   50.7674 N   0  0  0  0  0  0  0  0  0  0  0  0
   69.0829  210.7869   49.7276 C   0  0  0  0  0  0  0  0  0  0  0  0
   69.7755  209.7633   49.0337 N   0  0  0  0  0  0  0  0  0  0  0  0
  1  2  1  0
  2  3  1  0
  3  4  1  0
  4  5  1  0
  5  6  2  0
  7  5  1  6
  7  8  1  0
  7  9  1  0
  8 13  1  0
  9 10  1  1
  9 11  1  0
 11 12  1  1
 11 13  1  0
 13 14  1  6
 14 15  1  0
 14 18  1  0
 15 16  2  0
 16 17  1  0
 17 18  2  0
 17 22  1  0
 18 19  1  0
 19 20  2  0
 20 21  1  0
 21 22  2  0
 22 23  1  0
M  CHG  1   1   1
M  END
$$$$
