
     RDKit          3D

 23 25  0  0  0  0  0  0  0  0999 V2000
   60.8745  215.6342   45.3580 N   0  0  0  0  0  4  0  0  0  0  0  0
   60.2645  214.7646   46.3286 C   0  0  0  0  0  0  0  0  0  0  0  0
   60.2637  215.3737   47.6988 C   0  0  0  0  0  0  0  0  0  0  0  0
   61.0785  214.6569   48.6534 N   0  0  0  0  0  0  0  0  0  0  0  0
   62.4959  214.6901   48.6379 C   0  0  0  0  0  0  0  0  0  0  0  0
   63.0532  215.4300   47.7955 O   0  0  0  0  0  0  0  0  0  0  0  0
   63.3441  213.9066   49.5531 C   0  0  1  0  0  0  0  0  0  0  0  0
   64.2400  213.0794   48.8778 O   0  0  0  0  0  0  0  0  0  0  0  0
   64.3159  214.8374   50.2852 C   0  0  1  0  0  0  0  0  0  0  0  0
   63.7182  215.4948   51.3301 O   0  0  0  0  0  0  0  0  0  0  0  0
   65.3716  213.8461   50.7395 C   0  0  1  0  0  0  0  0  0  0  0  0
   65.1722  213.6636   52.1231 O   0  0  0  0  0  0  0  0  0  0  0  0
   65.0379  212.6295   49.9547 C   0  0  2  0  0  0  0  0  0  0  0  0
   66.1459  211.8551   49.5163 N   0  0  0  0  0  0  0  0  0  0  0  0
   66.1036  211.0235   48.4588 C   0  0  0  0  0  0  0  0  0  0  0  0
   67.3019  210.4334   48.2928 N   0  0  0  0  0  0  0  0  0  0  0  0
   68.1421  210.8717   49.2392 C   0  0  0  0  0  0  0  0  0  0  0  0
   67.3989  211.7628   49.9973 C   0  0  0  0  0  0  0  0  0  0  0  0
   67.9598  212.3773   51.0305 N   0  0  0  0  0  0  0  0  0  0  0  0
   69.2449  212.1236   51.3255 C   0  0  0  0  0  0  0  0  0  0  0  0
   69.9987  211.2510   50.5957 N   0  0  0  0  0  0  0  0  0  0  0  0
   69.4596  210.6137   49.5442 C   0  0  0  0  0  0  0  0  0  0  0  0
   70.2201  209.7025   48.7695 N   0  0  0  0  0  0  0  0  0  0  0  0
  1  2  1  0
  2  3  1  0
  3  4  1  0
  4  5  1  0
  5  6  2  0
  7  5  1  6
  7  8  1  0
  7  9  1  0
  8 13  1  0
  9 10  1  1
  9 11  1  0
 11 12  1  1
 11 13  1  0
 13 14  1  6
 14 15  1  0
 14 18  1  0
 15 16  2  0
 16 17  1  0
 17 18  2  0
 17 22  1  0
 18 19  1  0
 19 20  2  0
 20 21  1  0
 21 22  2  0
 22 23  1  0
M  CHG  1   1   1
M  END
$$$$
