
     RDKit          3D

 23 25  0  0  0  0  0  0  0  0999 V2000
   59.6221  217.7364   46.1483 N   0  0  0  0  0  4  0  0  0  0  0  0
   60.3059  217.2931   47.3342 C   0  0  0  0  0  0  0  0  0  0  0  0
   60.1153  215.8247   47.5704 C   0  0  0  0  0  0  0  0  0  0  0  0
   60.9469  215.2935   48.6264 N   0  0  0  0  0  0  0  0  0  0  0  0
   62.3430  215.0921   48.4827 C   0  0  0  0  0  0  0  0  0  0  0  0
   62.8968  215.5524   47.4584 O   0  0  0  0  0  0  0  0  0  0  0  0
   63.1732  214.3752   49.4665 C   0  0  1  0  0  0  0  0  0  0  0  0
   64.0068  213.4273   48.8753 O   0  0  0  0  0  0  0  0  0  0  0  0
   64.2110  215.3304   50.0643 C   0  0  1  0  0  0  0  0  0  0  0  0
   63.6760  216.1366   51.0365 O   0  0  0  0  0  0  0  0  0  0  0  0
   65.2254  214.3424   50.6108 C   0  0  1  0  0  0  0  0  0  0  0  0
   65.0533  214.3334   52.0100 O   0  0  0  0  0  0  0  0  0  0  0  0
   64.8083  213.0628   49.9814 C   0  0  2  0  0  0  0  0  0  0  0  0
   65.8627  212.1833   49.6150 N   0  0  0  0  0  0  0  0  0  0  0  0
   65.7926  211.3239   48.5815 C   0  0  0  0  0  0  0  0  0  0  0  0
   66.9414  210.6291   48.4856 N   0  0  0  0  0  0  0  0  0  0  0  0
   67.7765  211.0255   49.4548 C   0  0  0  0  0  0  0  0  0  0  0  0
   67.0822  212.0009   50.1530 C   0  0  0  0  0  0  0  0  0  0  0  0
   67.6508  212.5993   51.1915 N   0  0  0  0  0  0  0  0  0  0  0  0
   68.8960  212.2474   51.5500 C   0  0  0  0  0  0  0  0  0  0  0  0
   69.6013  211.2905   50.8798 N   0  0  0  0  0  0  0  0  0  0  0  0
   69.0532  210.6669   49.8248 C   0  0  0  0  0  0  0  0  0  0  0  0
   69.7637  209.6694   49.1112 N   0  0  0  0  0  0  0  0  0  0  0  0
  1  2  1  0
  2  3  1  0
  3  4  1  0
  4  5  1  0
  5  6  2  0
  7  5  1  6
  7  8  1  0
  7  9  1  0
  8 13  1  0
  9 10  1  1
  9 11  1  0
 11 12  1  1
 11 13  1  0
 13 14  1  6
 14 15  1  0
 14 18  1  0
 15 16  2  0
 16 17  1  0
 17 18  2  0
 17 22  1  0
 18 19  1  0
 19 20  2  0
 20 21  1  0
 21 22  2  0
 22 23  1  0
M  CHG  1   1   1
M  END
$$$$
