
     RDKit          3D

 23 25  0  0  0  0  0  0  0  0999 V2000
   62.2932  219.5041   45.5246 N   0  0  0  0  0  4  0  0  0  0  0  0
   62.7880  218.6614   46.5807 C   0  0  0  0  0  0  0  0  0  0  0  0
   62.3324  217.2419   46.4197 C   0  0  0  0  0  0  0  0  0  0  0  0
   62.3829  216.4735   47.6427 N   0  0  0  0  0  0  0  0  0  0  0  0
   63.5978  216.0574   48.2438 C   0  0  0  0  0  0  0  0  0  0  0  0
   64.6183  216.7538   48.0401 O   0  0  0  0  0  0  0  0  0  0  0  0
   63.7249  214.8578   49.0899 C   0  0  1  0  0  0  0  0  0  0  0  0
   64.6333  213.9335   48.5767 O   0  0  0  0  0  0  0  0  0  0  0  0
   64.4101  215.2241   50.4102 C   0  0  1  0  0  0  0  0  0  0  0  0
   63.5463  215.8134   51.2978 O   0  0  0  0  0  0  0  0  0  0  0  0
   64.8876  213.8590   50.8711 C   0  0  1  0  0  0  0  0  0  0  0  0
   64.0257  213.4719   51.9174 O   0  0  0  0  0  0  0  0  0  0  0  0
   64.7124  213.0230   49.6554 C   0  0  2  0  0  0  0  0  0  0  0  0
   65.7019  212.0249   49.4453 N   0  0  0  0  0  0  0  0  0  0  0  0
   65.5535  210.9948   48.5919 C   0  0  0  0  0  0  0  0  0  0  0  0
   66.6554  210.2220   48.6117 N   0  0  0  0  0  0  0  0  0  0  0  0
   67.5374  210.7372   49.4779 C   0  0  0  0  0  0  0  0  0  0  0  0
   66.9215  211.8679   49.9910 C   0  0  0  0  0  0  0  0  0  0  0  0
   67.5517  212.6110   50.8913 N   0  0  0  0  0  0  0  0  0  0  0  0
   68.7821  212.2527   51.2919 C   0  0  0  0  0  0  0  0  0  0  0  0
   69.4108  211.1447   50.8028 N   0  0  0  0  0  0  0  0  0  0  0  0
   68.7992  210.3724   49.8908 C   0  0  0  0  0  0  0  0  0  0  0  0
   69.4296  209.2162   49.3666 N   0  0  0  0  0  0  0  0  0  0  0  0
  1  2  1  0
  2  3  1  0
  3  4  1  0
  4  5  1  0
  5  6  2  0
  7  5  1  6
  7  8  1  0
  7  9  1  0
  8 13  1  0
  9 10  1  1
  9 11  1  0
 11 12  1  1
 11 13  1  0
 13 14  1  6
 14 15  1  0
 14 18  1  0
 15 16  2  0
 16 17  1  0
 17 18  2  0
 17 22  1  0
 18 19  1  0
 19 20  2  0
 20 21  1  0
 21 22  2  0
 22 23  1  0
M  CHG  1   1   1
M  END
$$$$
