
     RDKit          3D

 23 25  0  0  0  0  0  0  0  0999 V2000
   57.4929  212.3470   46.7115 N   0  0  0  0  0  4  0  0  0  0  0  0
   58.5998  212.2257   47.6228 C   0  0  0  0  0  0  0  0  0  0  0  0
   59.4795  213.4397   47.5946 C   0  0  0  0  0  0  0  0  0  0  0  0
   60.4901  213.4486   48.6278 N   0  0  0  0  0  0  0  0  0  0  0  0
   61.8786  213.5183   48.3494 C   0  0  0  0  0  0  0  0  0  0  0  0
   62.2272  213.9176   47.2150 O   0  0  0  0  0  0  0  0  0  0  0  0
   62.9278  213.1490   49.3158 C   0  0  1  0  0  0  0  0  0  0  0  0
   63.8954  212.3118   48.7627 O   0  0  0  0  0  0  0  0  0  0  0  0
   63.7776  214.3779   49.6543 C   0  0  1  0  0  0  0  0  0  0  0  0
   63.1642  215.1986   50.5660 O   0  0  0  0  0  0  0  0  0  0  0  0
   65.0278  213.7162   50.2049 C   0  0  1  0  0  0  0  0  0  0  0  0
   64.9831  213.8902   51.6031 O   0  0  0  0  0  0  0  0  0  0  0  0
   64.8498  212.2962   49.8056 C   0  0  2  0  0  0  0  0  0  0  0  0
   66.0362  211.6054   49.4386 N   0  0  0  0  0  0  0  0  0  0  0  0
   66.1168  210.7656   48.3900 C   0  0  0  0  0  0  0  0  0  0  0  0
   67.3638  210.2672   48.2979 N   0  0  0  0  0  0  0  0  0  0  0  0
   68.1135  210.7748   49.2848 C   0  0  0  0  0  0  0  0  0  0  0  0
   67.2634  211.6122   49.9899 C   0  0  0  0  0  0  0  0  0  0  0  0
   67.7168  212.2748   51.0459 N   0  0  0  0  0  0  0  0  0  0  0  0
   68.9987  212.1217   51.4151 C   0  0  0  0  0  0  0  0  0  0  0  0
   69.8563  211.3039   50.7385 N   0  0  0  0  0  0  0  0  0  0  0  0
   69.4274  210.6200   49.6659 C   0  0  0  0  0  0  0  0  0  0  0  0
   70.2972  209.7639   48.9452 N   0  0  0  0  0  0  0  0  0  0  0  0
  1  2  1  0
  2  3  1  0
  3  4  1  0
  4  5  1  0
  5  6  2  0
  7  5  1  6
  7  8  1  0
  7  9  1  0
  8 13  1  0
  9 10  1  1
  9 11  1  0
 11 12  1  1
 11 13  1  0
 13 14  1  6
 14 15  1  0
 14 18  1  0
 15 16  2  0
 16 17  1  0
 17 18  2  0
 17 22  1  0
 18 19  1  0
 19 20  2  0
 20 21  1  0
 21 22  2  0
 22 23  1  0
M  CHG  1   1   1
M  END
$$$$
