
     RDKit          3D

 15 14  0  0  0  0  0  0  0  0999 V2000
   44.6522  148.5420   60.0332 P   0  0  1  0  0  5  0  0  0  0  0  0
   43.8806  147.3649   59.0899 O   0  0  0  0  0  0  0  0  0  0  0  0
   45.7417  149.1620   59.1700 O   0  0  0  0  0  0  0  0  0  0  0  0
   43.6176  149.7506   60.5290 O   0  0  0  0  0  0  0  0  0  0  0  0
   42.0442  149.2892   60.1062 P   0  0  1  0  0  5  0  0  0  0  0  0
   41.8765  149.4325   58.4371 O   0  0  0  0  0  0  0  0  0  0  0  0
   41.8037  147.8770   60.5781 O   0  0  0  0  0  0  0  0  0  0  0  0
   40.8905  150.2729   60.8667 O   0  0  0  0  0  0  0  0  0  0  0  0
   48.1712  148.6019   64.9940 C   0  0  0  0  0  0  0  0  0  0  0  0
   46.2721  148.2849   63.4928 C   0  0  0  0  0  0  0  0  0  0  0  0
   45.8360  148.7927   62.1917 C   0  0  0  0  0  0  0  0  0  0  0  0
   45.4275  147.7633   61.3148 O   0  0  0  0  0  0  0  0  0  0  0  0
   47.5663  148.1251   63.7284 C   0  0  0  0  0  0  0  0  0  0  0  0
   48.3960  147.4482   62.6752 C   0  0  0  0  0  0  0  0  0  0  0  0
   47.5904  146.7302   61.7938 O   0  0  0  0  0  0  0  0  0  0  0  0
  1  2  1  6
  1  3  2  0
  1  4  1  0
 12  1  1  0
  4  5  1  0
  5  6  1  6
  5  7  2  0
  5  8  1  0
  9 13  1  6
 11 10  1  0
 10 13  2  0
 11 12  1  6
 13 14  1  0
 14 15  1  6
M  END
$$$$
