
     RDKit          3D

 15 14  0  0  0  0  0  0  0  0999 V2000
   46.6632  147.5936   60.2115 P   0  0  1  0  0  5  0  0  0  0  0  0
   48.2497  148.0759   60.4367 O   0  0  0  0  0  0  0  0  0  0  0  0
   46.4046  147.1640   58.7731 O   0  0  0  0  0  0  0  0  0  0  0  0
   46.2500  146.2781   61.2147 O   0  0  0  0  0  0  0  0  0  0  0  0
   45.0357  145.3624   60.4584 P   0  0  1  0  0  5  0  0  0  0  0  0
   44.7901  143.9759   61.3758 O   0  0  0  0  0  0  0  0  0  0  0  0
   43.7724  146.2187   60.4732 O   0  0  0  0  0  0  0  0  0  0  0  0
   45.5283  145.0368   58.8922 O   0  0  0  0  0  0  0  0  0  0  0  0
   47.5656  150.4601   62.6291 C   0  0  0  0  0  0  0  0  0  0  0  0
   45.1637  150.1636   62.4725 C   0  0  0  0  0  0  0  0  0  0  0  0
   45.1921  148.8137   61.8992 C   0  0  0  0  0  0  0  0  0  0  0  0
   45.5744  148.8368   60.5489 O   0  0  0  0  0  0  0  0  0  0  0  0
   46.1990  150.6457   63.1610 C   0  0  0  0  0  0  0  0  0  0  0  0
   46.0266  151.3671   64.4511 C   0  0  0  0  0  0  0  0  0  0  0  0
   46.2654  150.5321   65.5406 O   0  0  0  0  0  0  0  0  0  0  0  0
  1  2  1  6
  1  3  2  0
  1  4  1  0
 12  1  1  0
  4  5  1  0
  5  6  1  1
  5  7  2  0
  5  8  1  0
 13  9  1  0
 11 10  1  0
 10 13  2  0
 11 12  1  0
 13 14  1  0
 14 15  1  0
M  END
$$$$
