
     RDKit          3D

 15 14  0  0  0  0  0  0  0  0999 V2000
   45.2809  148.1109   59.9307 P   0  0  1  0  0  5  0  0  0  0  0  0
   45.6043  149.6658   59.4036 O   0  0  0  0  0  0  0  0  0  0  0  0
   44.1179  147.4890   59.1685 O   0  0  0  0  0  0  0  0  0  0  0  0
   46.6247  147.0800   59.7328 O   0  0  0  0  0  0  0  0  0  0  0  0
   46.2666  145.5639   60.4100 P   0  0  1  0  0  5  0  0  0  0  0  0
   45.4471  144.6635   59.2517 O   0  0  0  0  0  0  0  0  0  0  0  0
   47.6051  144.9009   60.7239 O   0  0  0  0  0  0  0  0  0  0  0  0
   45.3732  145.8138   61.8032 O   0  0  0  0  0  0  0  0  0  0  0  0
   47.0135  151.3662   62.3413 C   0  0  0  0  0  0  0  0  0  0  0  0
   45.1410  149.9618   62.9762 C   0  0  0  0  0  0  0  0  0  0  0  0
   45.7812  148.8105   62.3311 C   0  0  0  0  0  0  0  0  0  0  0  0
   44.8637  148.0750   61.5646 O   0  0  0  0  0  0  0  0  0  0  0  0
   45.7870  151.1184   63.1283 C   0  0  0  0  0  0  0  0  0  0  0  0
   45.3151  152.1731   64.0661 C   0  0  0  0  0  0  0  0  0  0  0  0
   44.9820  153.3461   63.3920 O   0  0  0  0  0  0  0  0  0  0  0  0
  1  2  1  6
  1  3  2  0
  1  4  1  0
 12  1  1  0
  4  5  1  0
  5  6  1  6
  5  7  2  0
  5  8  1  0
 13  9  1  0
 11 10  1  0
 10 13  2  0
 11 12  1  0
 13 14  1  0
 14 15  1  0
M  END
$$$$
