
     RDKit          3D

 15 14  0  0  0  0  0  0  0  0999 V2000
   44.6632  148.1621   60.5511 P   0  0  1  0  0  5  0  0  0  0  0  0
   43.7668  148.4320   59.1390 O   0  0  0  0  0  0  0  0  0  0  0  0
   43.8517  147.2121   61.4203 O   0  0  0  0  0  0  0  0  0  0  0  0
   46.1472  147.4667   60.2496 O   0  0  0  0  0  0  0  0  0  0  0  0
   45.8806  145.8570   59.7963 P   0  0  1  0  0  5  0  0  0  0  0  0
   45.3681  144.9991   61.1513 O   0  0  0  0  0  0  0  0  0  0  0  0
   44.8592  145.8227   58.6872 O   0  0  0  0  0  0  0  0  0  0  0  0
   47.2974  145.1465   59.1923 O   0  0  0  0  0  0  0  0  0  0  0  0
   45.7449  151.6783   64.2596 C   0  0  0  0  0  0  0  0  0  0  0  0
   45.7269  149.3369   63.5681 C   0  0  0  0  0  0  0  0  0  0  0  0
   45.9678  149.5405   62.1392 C   0  0  0  0  0  0  0  0  0  0  0  0
   44.7718  149.6220   61.3919 O   0  0  0  0  0  0  0  0  0  0  0  0
   46.1272  150.2574   64.4330 C   0  0  0  0  0  0  0  0  0  0  0  0
   46.9774  149.8154   65.5896 C   0  0  0  0  0  0  0  0  0  0  0  0
   47.7722  150.8628   66.0506 O   0  0  0  0  0  0  0  0  0  0  0  0
  1  2  1  6
  1  3  2  0
  1  4  1  0
 12  1  1  0
  4  5  1  0
  5  6  1  1
  5  7  2  0
  5  8  1  0
  9 13  1  6
 11 10  1  0
 10 13  2  0
 11 12  1  6
 13 14  1  0
 14 15  1  6
M  END
$$$$
