
     RDKit          3D

 15 14  0  0  0  0  0  0  0  0999 V2000
   46.1185  146.8950   61.8200 P   0  0  1  0  0  5  0  0  0  0  0  0
   46.6707  145.4472   62.5050 O   0  0  0  0  0  0  0  0  0  0  0  0
   47.1524  147.3238   60.7886 O   0  0  0  0  0  0  0  0  0  0  0  0
   44.6471  146.7267   61.0562 O   0  0  0  0  0  0  0  0  0  0  0  0
   44.9463  146.2642   59.4550 P   0  0  1  0  0  5  0  0  0  0  0  0
   43.4762  146.1882   58.6380 O   0  0  0  0  0  0  0  0  0  0  0  0
   45.8907  147.2577   58.8259 O   0  0  0  0  0  0  0  0  0  0  0  0
   45.6997  144.7461   59.3850 O   0  0  0  0  0  0  0  0  0  0  0  0
   45.2027  152.2565   64.5205 C   0  0  0  0  0  0  0  0  0  0  0  0
   44.8474  150.0362   63.5694 C   0  0  0  0  0  0  0  0  0  0  0  0
   45.3100  149.1263   62.5211 C   0  0  0  0  0  0  0  0  0  0  0  0
   46.1106  148.0772   63.0252 O   0  0  0  0  0  0  0  0  0  0  0  0
   45.6866  150.9298   64.0723 C   0  0  0  0  0  0  0  0  0  0  0  0
   47.1377  150.5556   64.1725 C   0  0  0  0  0  0  0  0  0  0  0  0
   47.3506  149.6701   65.2269 O   0  0  0  0  0  0  0  0  0  0  0  0
  1  2  1  1
  1  3  2  0
  1  4  1  0
 12  1  1  0
  4  5  1  0
  5  6  1  6
  5  7  2  0
  5  8  1  0
  9 13  1  6
 11 10  1  0
 10 13  2  0
 11 12  1  6
 13 14  1  0
 14 15  1  6
M  END
$$$$
