
     RDKit          3D

 15 14  0  0  0  0  0  0  0  0999 V2000
   46.4079  147.4596   62.1881 P   0  0  1  0  0  5  0  0  0  0  0  0
   46.1534  147.4633   63.8631 O   0  0  0  0  0  0  0  0  0  0  0  0
   47.8672  147.0929   61.9591 O   0  0  0  0  0  0  0  0  0  0  0  0
   45.4521  146.3499   61.3933 O   0  0  0  0  0  0  0  0  0  0  0  0
   45.3986  146.7908   59.7592 P   0  0  1  0  0  5  0  0  0  0  0  0
   44.2474  148.0050   59.5717 O   0  0  0  0  0  0  0  0  0  0  0  0
   46.7712  147.2435   59.3282 O   0  0  0  0  0  0  0  0  0  0  0  0
   44.9780  145.4709   58.7805 O   0  0  0  0  0  0  0  0  0  0  0  0
   46.2880  152.7136   64.3668 C   0  0  0  0  0  0  0  0  0  0  0  0
   45.8092  150.4882   63.4842 C   0  0  0  0  0  0  0  0  0  0  0  0
   45.2286  149.6180   62.4612 C   0  0  0  0  0  0  0  0  0  0  0  0
   46.2055  149.0373   61.6222 O   0  0  0  0  0  0  0  0  0  0  0  0
   45.6634  151.8012   63.3807 C   0  0  0  0  0  0  0  0  0  0  0  0
   44.8479  152.3316   62.2363 C   0  0  0  0  0  0  0  0  0  0  0  0
   45.5338  152.1928   61.0314 O   0  0  0  0  0  0  0  0  0  0  0  0
  1  2  1  1
  1  3  2  0
  1  4  1  0
 12  1  1  0
  4  5  1  0
  5  6  1  1
  5  7  2  0
  5  8  1  0
  9 13  1  6
 11 10  1  0
 10 13  2  0
 11 12  1  6
 13 14  1  0
 14 15  1  6
M  END
$$$$
