
     RDKit          3D

 15 14  0  0  0  0  0  0  0  0999 V2000
   44.8458  148.1512   60.3180 P   0  0  1  0  0  5  0  0  0  0  0  0
   44.5185  149.7264   59.8577 O   0  0  0  0  0  0  0  0  0  0  0  0
   43.7095  147.2081   59.9439 O   0  0  0  0  0  0  0  0  0  0  0  0
   46.2625  147.5544   59.5800 O   0  0  0  0  0  0  0  0  0  0  0  0
   46.4380  145.9090   59.9634 P   0  0  1  0  0  5  0  0  0  0  0  0
   47.2976  145.8051   61.4038 O   0  0  0  0  0  0  0  0  0  0  0  0
   45.0295  145.3567   60.1647 O   0  0  0  0  0  0  0  0  0  0  0  0
   47.2068  145.1548   58.6821 O   0  0  0  0  0  0  0  0  0  0  0  0
   46.6059  151.4953   61.7652 C   0  0  0  0  0  0  0  0  0  0  0  0
   45.7092  149.8652   63.3209 C   0  0  0  0  0  0  0  0  0  0  0  0
   46.1434  148.7954   62.4162 C   0  0  0  0  0  0  0  0  0  0  0  0
   45.0592  148.0149   61.9855 O   0  0  0  0  0  0  0  0  0  0  0  0
   45.8978  151.1496   63.0158 C   0  0  0  0  0  0  0  0  0  0  0  0
   45.4188  152.2519   63.8933 C   0  0  0  0  0  0  0  0  0  0  0  0
   46.3484  153.2870   63.9690 O   0  0  0  0  0  0  0  0  0  0  0  0
  1  2  1  1
  1  3  2  0
  1  4  1  0
 12  1  1  0
  4  5  1  0
  5  6  1  1
  5  7  2  0
  5  8  1  0
 13  9  1  0
 11 10  1  0
 10 13  2  0
 11 12  1  0
 13 14  1  0
 14 15  1  0
M  END
$$$$
