
     RDKit          3D

 15 14  0  0  0  0  0  0  0  0999 V2000
   44.7366  148.1472   59.9291 P   0  0  1  0  0  5  0  0  0  0  0  0
   44.4661  148.6991   58.3727 O   0  0  0  0  0  0  0  0  0  0  0  0
   43.9405  146.8823   60.2238 O   0  0  0  0  0  0  0  0  0  0  0  0
   46.3809  147.7845   60.1984 O   0  0  0  0  0  0  0  0  0  0  0  0
   46.5729  146.0985   60.2744 P   0  0  1  0  0  5  0  0  0  0  0  0
   45.7002  145.5404   61.5977 O   0  0  0  0  0  0  0  0  0  0  0  0
   45.9741  145.5342   58.9889 O   0  0  0  0  0  0  0  0  0  0  0  0
   48.2099  145.7649   60.3772 O   0  0  0  0  0  0  0  0  0  0  0  0
   46.2764  151.4032   62.3343 C   0  0  0  0  0  0  0  0  0  0  0  0
   44.5879  149.9796   63.3360 C   0  0  0  0  0  0  0  0  0  0  0  0
   44.6794  148.8786   62.3711 C   0  0  0  0  0  0  0  0  0  0  0  0
   44.2830  149.2860   61.0876 O   0  0  0  0  0  0  0  0  0  0  0  0
   45.6003  150.8286   63.5164 C   0  0  0  0  0  0  0  0  0  0  0  0
   46.0754  151.2197   64.8713 C   0  0  0  0  0  0  0  0  0  0  0  0
   47.4361  150.9652   65.0301 O   0  0  0  0  0  0  0  0  0  0  0  0
  1  2  1  6
  1  3  2  0
  1  4  1  0
 12  1  1  0
  4  5  1  0
  5  6  1  1
  5  7  2  0
  5  8  1  0
 13  9  1  0
 11 10  1  0
 10 13  2  0
 11 12  1  0
 13 14  1  0
 14 15  1  0
M  END
$$$$
