
     RDKit          3D

 15 14  0  0  0  0  0  0  0  0999 V2000
   46.7877  147.2859   61.7997 P   0  0  1  0  0  5  0  0  0  0  0  0
   47.2152  146.1059   62.9066 O   0  0  0  0  0  0  0  0  0  0  0  0
   47.6984  147.2683   60.5788 O   0  0  0  0  0  0  0  0  0  0  0  0
   45.1890  147.0850   61.2415 O   0  0  0  0  0  0  0  0  0  0  0  0
   45.2263  146.4880   59.6518 P   0  0  1  0  0  5  0  0  0  0  0  0
   46.2493  147.4750   58.7553 O   0  0  0  0  0  0  0  0  0  0  0  0
   45.8094  145.0796   59.7297 O   0  0  0  0  0  0  0  0  0  0  0  0
   43.6578  146.4625   59.0681 O   0  0  0  0  0  0  0  0  0  0  0  0
   44.0312  152.3463   63.4949 C   0  0  0  0  0  0  0  0  0  0  0  0
   45.0510  150.1786   63.1170 C   0  0  0  0  0  0  0  0  0  0  0  0
   45.8415  149.6449   62.0026 C   0  0  0  0  0  0  0  0  0  0  0  0
   46.8924  148.8345   62.4598 O   0  0  0  0  0  0  0  0  0  0  0  0
   45.1972  151.4384   63.5292 C   0  0  0  0  0  0  0  0  0  0  0  0
   46.4979  151.9648   64.0246 C   0  0  0  0  0  0  0  0  0  0  0  0
   46.6326  153.3266   63.7623 O   0  0  0  0  0  0  0  0  0  0  0  0
  1  2  1  1
  1  3  2  0
  1  4  1  0
 12  1  1  0
  4  5  1  0
  5  6  1  6
  5  7  2  0
  5  8  1  0
 13  9  1  0
 11 10  1  0
 10 13  2  0
 11 12  1  0
 13 14  1  0
 14 15  1  0
M  END
$$$$
