
     RDKit          3D

 15 14  0  0  0  0  0  0  0  0999 V2000
   45.7312  148.1444   60.3031 P   0  0  1  0  0  5  0  0  0  0  0  0
   47.1682  147.6156   59.5778 O   0  0  0  0  0  0  0  0  0  0  0  0
   44.7913  148.5603   59.1804 O   0  0  0  0  0  0  0  0  0  0  0  0
   44.9877  146.9551   61.2027 O   0  0  0  0  0  0  0  0  0  0  0  0
   45.3277  145.4660   60.4717 P   0  0  1  0  0  5  0  0  0  0  0  0
   43.9570  144.4940   60.5782 O   0  0  0  0  0  0  0  0  0  0  0  0
   45.7399  145.7050   59.0407 O   0  0  0  0  0  0  0  0  0  0  0  0
   46.6227  144.6859   61.2406 O   0  0  0  0  0  0  0  0  0  0  0  0
   45.5127  152.3858   62.9927 C   0  0  0  0  0  0  0  0  0  0  0  0
   45.2532  149.9921   63.3967 C   0  0  0  0  0  0  0  0  0  0  0  0
   44.9281  149.7695   61.9876 C   0  0  0  0  0  0  0  0  0  0  0  0
   46.0738  149.5363   61.1949 O   0  0  0  0  0  0  0  0  0  0  0  0
   45.7760  151.1515   63.7686 C   0  0  0  0  0  0  0  0  0  0  0  0
   46.6403  151.1732   64.9968 C   0  0  0  0  0  0  0  0  0  0  0  0
   47.7935  150.4149   64.8058 O   0  0  0  0  0  0  0  0  0  0  0  0
  1  2  1  6
  1  3  2  0
  1  4  1  0
 12  1  1  0
  4  5  1  0
  5  6  1  6
  5  7  2  0
  5  8  1  0
  9 13  1  6
 11 10  1  0
 10 13  2  0
 11 12  1  6
 13 14  1  0
 14 15  1  6
M  END
$$$$
