
     RDKit          3D

 15 14  0  0  0  0  0  0  0  0999 V2000
   45.4850  148.1161   59.9585 P   0  0  1  0  0  5  0  0  0  0  0  0
   46.2208  148.2029   58.4580 O   0  0  0  0  0  0  0  0  0  0  0  0
   44.2836  149.0481   60.0508 O   0  0  0  0  0  0  0  0  0  0  0  0
   44.9312  146.5410   60.3050 O   0  0  0  0  0  0  0  0  0  0  0  0
   46.2442  145.4650   60.2472 P   0  0  1  0  0  5  0  0  0  0  0  0
   45.6286  143.9012   60.2497 O   0  0  0  0  0  0  0  0  0  0  0  0
   46.9664  145.7307   58.9290 O   0  0  0  0  0  0  0  0  0  0  0  0
   47.2370  145.7838   61.5565 O   0  0  0  0  0  0  0  0  0  0  0  0
   44.9328  151.6013   62.2187 C   0  0  0  0  0  0  0  0  0  0  0  0
   46.5197  149.9892   63.0927 C   0  0  0  0  0  0  0  0  0  0  0  0
   45.8237  148.9330   62.3501 C   0  0  0  0  0  0  0  0  0  0  0  0
   46.5369  148.5573   61.2010 O   0  0  0  0  0  0  0  0  0  0  0  0
   46.1339  151.2630   63.0111 C   0  0  0  0  0  0  0  0  0  0  0  0
   46.8727  152.3607   63.6922 C   0  0  0  0  0  0  0  0  0  0  0  0
   46.0158  153.3848   64.0900 O   0  0  0  0  0  0  0  0  0  0  0  0
  1  2  1  6
  1  3  2  0
  1  4  1  0
 12  1  1  0
  4  5  1  0
  5  6  1  6
  5  7  2  0
  5  8  1  0
 13  9  1  0
 11 10  1  0
 10 13  2  0
 11 12  1  0
 13 14  1  0
 14 15  1  0
M  END
$$$$
