
     RDKit          3D

 15 14  0  0  0  0  0  0  0  0999 V2000
   45.5974  148.2528   59.9555 P   0  0  1  0  0  5  0  0  0  0  0  0
   45.8961  147.5952   58.4459 O   0  0  0  0  0  0  0  0  0  0  0  0
   44.1239  148.5924   60.1397 O   0  0  0  0  0  0  0  0  0  0  0  0
   46.0314  147.1844   61.2117 O   0  0  0  0  0  0  0  0  0  0  0  0
   45.8179  145.5854   60.6799 P   0  0  1  0  0  5  0  0  0  0  0  0
   44.3015  145.4795   59.9632 O   0  0  0  0  0  0  0  0  0  0  0  0
   46.8995  145.3268   59.6344 O   0  0  0  0  0  0  0  0  0  0  0  0
   45.9953  144.5699   61.9985 O   0  0  0  0  0  0  0  0  0  0  0  0
   45.8075  151.6941   63.9347 C   0  0  0  0  0  0  0  0  0  0  0  0
   45.9276  149.7339   62.5118 C   0  0  0  0  0  0  0  0  0  0  0  0
   45.8818  150.4435   61.2289 C   0  0  0  0  0  0  0  0  0  0  0  0
   46.4582  149.6825   60.1999 O   0  0  0  0  0  0  0  0  0  0  0  0
   45.4579  150.2909   63.6287 C   0  0  0  0  0  0  0  0  0  0  0  0
   44.5906  149.5468   64.5820 C   0  0  0  0  0  0  0  0  0  0  0  0
   44.1127  150.3764   65.5943 O   0  0  0  0  0  0  0  0  0  0  0  0
  1  2  1  6
  1  3  2  0
  1  4  1  0
 12  1  1  0
  4  5  1  0
  5  6  1  6
  5  7  2  0
  5  8  1  0
 13  9  1  0
 11 10  1  0
 10 13  2  0
 11 12  1  0
 13 14  1  0
 14 15  1  0
M  END
$$$$
