
     RDKit          3D

 15 14  0  0  0  0  0  0  0  0999 V2000
   44.5169  148.1146   60.2025 P   0  0  1  0  0  5  0  0  0  0  0  0
   43.8111  148.5728   58.7320 O   0  0  0  0  0  0  0  0  0  0  0  0
   43.7013  146.9497   60.7453 O   0  0  0  0  0  0  0  0  0  0  0  0
   46.0987  147.6192   60.0316 O   0  0  0  0  0  0  0  0  0  0  0  0
   46.1940  146.0089   60.5468 P   0  0  1  0  0  5  0  0  0  0  0  0
   47.6975  145.7665   61.2647 O   0  0  0  0  0  0  0  0  0  0  0  0
   45.0610  145.7321   61.5031 O   0  0  0  0  0  0  0  0  0  0  0  0
   46.0212  144.9362   59.2443 O   0  0  0  0  0  0  0  0  0  0  0  0
   46.1828  152.7374   62.2706 C   0  0  0  0  0  0  0  0  0  0  0  0
   46.2485  150.3006   62.4043 C   0  0  0  0  0  0  0  0  0  0  0  0
   45.3142  149.1805   62.2886 C   0  0  0  0  0  0  0  0  0  0  0  0
   44.3339  149.3900   61.2933 O   0  0  0  0  0  0  0  0  0  0  0  0
   45.8269  151.4499   62.9114 C   0  0  0  0  0  0  0  0  0  0  0  0
   44.9804  151.4048   64.1513 C   0  0  0  0  0  0  0  0  0  0  0  0
   45.4586  150.4484   65.0445 O   0  0  0  0  0  0  0  0  0  0  0  0
  1  2  1  6
  1  3  2  0
  1  4  1  0
 12  1  1  0
  4  5  1  0
  5  6  1  1
  5  7  2  0
  5  8  1  0
  9 13  1  6
 11 10  1  0
 10 13  2  0
 11 12  1  6
 13 14  1  0
 14 15  1  6
M  END
$$$$
