
     RDKit          3D

 15 14  0  0  0  0  0  0  0  0999 V2000
   45.9616  146.4202   60.2959 P   0  0  1  0  0  5  0  0  0  0  0  0
   46.8053  145.0208   59.8481 O   0  0  0  0  0  0  0  0  0  0  0  0
   45.6077  147.1580   59.0125 O   0  0  0  0  0  0  0  0  0  0  0  0
   44.5526  146.0872   61.1207 O   0  0  0  0  0  0  0  0  0  0  0  0
   43.2820  146.8499   60.3014 P   0  0  1  0  0  5  0  0  0  0  0  0
   42.0625  147.1939   61.4101 O   0  0  0  0  0  0  0  0  0  0  0  0
   43.8068  148.0970   59.6350 O   0  0  0  0  0  0  0  0  0  0  0  0
   42.6559  145.8559   59.0779 O   0  0  0  0  0  0  0  0  0  0  0  0
   46.7091  150.7977   64.2315 C   0  0  0  0  0  0  0  0  0  0  0  0
   47.0660  149.6024   62.1328 C   0  0  0  0  0  0  0  0  0  0  0  0
   46.3630  148.6653   61.2561 C   0  0  0  0  0  0  0  0  0  0  0  0
   47.0168  147.4170   61.1579 O   0  0  0  0  0  0  0  0  0  0  0  0
   46.8549  149.5538   63.4401 C   0  0  0  0  0  0  0  0  0  0  0  0
   46.7690  148.2026   64.0902 C   0  0  0  0  0  0  0  0  0  0  0  0
   47.9941  147.5420   64.0266 O   0  0  0  0  0  0  0  0  0  0  0  0
  1  2  1  6
  1  3  2  0
  1  4  1  0
 12  1  1  0
  4  5  1  0
  5  6  1  1
  5  7  2  0
  5  8  1  0
  9 13  1  6
 11 10  1  0
 10 13  2  0
 11 12  1  6
 13 14  1  0
 14 15  1  6
M  END
$$$$
