
     RDKit          3D

 15 14  0  0  0  0  0  0  0  0999 V2000
   46.2359  148.1037   60.3302 P   0  0  1  0  0  5  0  0  0  0  0  0
   47.4101  149.2460   60.6718 O   0  0  0  0  0  0  0  0  0  0  0  0
   46.2198  147.7383   58.8514 O   0  0  0  0  0  0  0  0  0  0  0  0
   46.4789  146.6606   61.2054 O   0  0  0  0  0  0  0  0  0  0  0  0
   45.7023  145.3836   60.3984 P   0  0  1  0  0  5  0  0  0  0  0  0
   44.0447  145.5926   60.5798 O   0  0  0  0  0  0  0  0  0  0  0  0
   46.0776  145.5086   58.9243 O   0  0  0  0  0  0  0  0  0  0  0  0
   46.2590  143.9436   61.0450 O   0  0  0  0  0  0  0  0  0  0  0  0
   46.6157  149.8081   63.8403 C   0  0  0  0  0  0  0  0  0  0  0  0
   44.8231  150.3983   62.3174 C   0  0  0  0  0  0  0  0  0  0  0  0
   44.5898  148.9709   62.0737 C   0  0  0  0  0  0  0  0  0  0  0  0
   44.6891  148.6596   60.7086 O   0  0  0  0  0  0  0  0  0  0  0  0
   45.7915  150.8123   63.1353 C   0  0  0  0  0  0  0  0  0  0  0  0
   46.0731  152.2555   63.3646 C   0  0  0  0  0  0  0  0  0  0  0  0
   46.3875  152.5104   64.6979 O   0  0  0  0  0  0  0  0  0  0  0  0
  1  2  1  6
  1  3  2  0
  1  4  1  0
 12  1  1  0
  4  5  1  0
  5  6  1  6
  5  7  2  0
  5  8  1  0
 13  9  1  0
 11 10  1  0
 10 13  2  0
 11 12  1  0
 13 14  1  0
 14 15  1  0
M  END
$$$$
