
     RDKit          3D

 15 14  0  0  0  0  0  0  0  0999 V2000
   44.3417  147.8387   59.9455 P   0  0  1  0  0  5  0  0  0  0  0  0
   43.8208  148.5057   58.5018 O   0  0  0  0  0  0  0  0  0  0  0  0
   43.8144  146.4220   60.1333 O   0  0  0  0  0  0  0  0  0  0  0  0
   46.0429  147.7613   60.0329 O   0  0  0  0  0  0  0  0  0  0  0  0
   46.5105  146.1605   60.3553 P   0  0  1  0  0  5  0  0  0  0  0  0
   48.1256  146.1798   60.8195 O   0  0  0  0  0  0  0  0  0  0  0  0
   45.6472  145.6813   61.5192 O   0  0  0  0  0  0  0  0  0  0  0  0
   46.2317  145.2493   58.9793 O   0  0  0  0  0  0  0  0  0  0  0  0
   46.1514  151.5073   61.7157 C   0  0  0  0  0  0  0  0  0  0  0  0
   44.8382  149.9529   63.0351 C   0  0  0  0  0  0  0  0  0  0  0  0
   44.7550  148.6759   62.3182 C   0  0  0  0  0  0  0  0  0  0  0  0
   43.8160  148.7316   61.2764 O   0  0  0  0  0  0  0  0  0  0  0  0
   45.9212  150.7262   62.9493 C   0  0  0  0  0  0  0  0  0  0  0  0
   46.9103  150.8313   64.0562 C   0  0  0  0  0  0  0  0  0  0  0  0
   46.4868  150.1393   65.1889 O   0  0  0  0  0  0  0  0  0  0  0  0
  1  2  1  6
  1  3  2  0
  1  4  1  0
 12  1  1  0
  4  5  1  0
  5  6  1  1
  5  7  2  0
  5  8  1  0
 13  9  1  0
 11 10  1  0
 10 13  2  0
 11 12  1  0
 13 14  1  0
 14 15  1  0
M  END
$$$$
