
     RDKit          3D

 15 14  0  0  0  0  0  0  0  0999 V2000
   45.4686  146.5125   61.5516 P   0  0  1  0  0  5  0  0  0  0  0  0
   45.6638  144.9703   62.2254 O   0  0  0  0  0  0  0  0  0  0  0  0
   46.6667  146.7590   60.6458 O   0  0  0  0  0  0  0  0  0  0  0  0
   44.0798  146.6469   60.6407 O   0  0  0  0  0  0  0  0  0  0  0  0
   44.5405  146.8691   59.0264 P   0  0  1  0  0  5  0  0  0  0  0  0
   43.2780  147.6278   58.2109 O   0  0  0  0  0  0  0  0  0  0  0  0
   45.8087  147.6844   58.9862 O   0  0  0  0  0  0  0  0  0  0  0  0
   44.8761  145.3865   58.2740 O   0  0  0  0  0  0  0  0  0  0  0  0
   44.6961  150.6333   63.9484 C   0  0  0  0  0  0  0  0  0  0  0  0
   46.7769  149.6849   63.0931 C   0  0  0  0  0  0  0  0  0  0  0  0
   45.9876  148.8462   62.1906 C   0  0  0  0  0  0  0  0  0  0  0  0
   45.5575  147.6462   62.7994 O   0  0  0  0  0  0  0  0  0  0  0  0
   46.1593  150.4101   64.0142 C   0  0  0  0  0  0  0  0  0  0  0  0
   46.9874  150.9960   65.1219 C   0  0  0  0  0  0  0  0  0  0  0  0
   46.5661  152.2887   65.4264 O   0  0  0  0  0  0  0  0  0  0  0  0
  1  2  1  1
  1  3  2  0
  1  4  1  0
 12  1  1  0
  4  5  1  0
  5  6  1  6
  5  7  2  0
  5  8  1  0
  9 13  1  6
 11 10  1  0
 10 13  2  0
 11 12  1  6
 13 14  1  0
 14 15  1  6
M  END
$$$$
