
     RDKit          3D

 15 14  0  0  0  0  0  0  0  0999 V2000
   45.8971  148.0905   60.0797 P   0  0  1  0  0  5  0  0  0  0  0  0
   46.8782  147.9369   58.7328 O   0  0  0  0  0  0  0  0  0  0  0  0
   44.4205  148.0336   59.7096 O   0  0  0  0  0  0  0  0  0  0  0  0
   46.1816  146.8531   61.2180 O   0  0  0  0  0  0  0  0  0  0  0  0
   45.9845  145.3454   60.4609 P   0  0  1  0  0  5  0  0  0  0  0  0
   44.4666  145.3261   59.7400 O   0  0  0  0  0  0  0  0  0  0  0  0
   47.0648  145.2539   59.3866 O   0  0  0  0  0  0  0  0  0  0  0  0
   46.1789  144.1521   61.6184 O   0  0  0  0  0  0  0  0  0  0  0  0
   44.8027  152.2593   62.1260 C   0  0  0  0  0  0  0  0  0  0  0  0
   46.2038  150.5066   63.0459 C   0  0  0  0  0  0  0  0  0  0  0  0
   45.5588  149.5425   62.1482 C   0  0  0  0  0  0  0  0  0  0  0  0
   46.1418  149.5595   60.8714 O   0  0  0  0  0  0  0  0  0  0  0  0
   45.9129  151.8069   62.9905 C   0  0  0  0  0  0  0  0  0  0  0  0
   46.6696  152.8228   63.7715 C   0  0  0  0  0  0  0  0  0  0  0  0
   46.1438  152.9800   65.0522 O   0  0  0  0  0  0  0  0  0  0  0  0
  1  2  1  6
  1  3  2  0
  1  4  1  0
 12  1  1  0
  4  5  1  0
  5  6  1  6
  5  7  2  0
  5  8  1  0
 13  9  1  0
 11 10  1  0
 10 13  2  0
 11 12  1  0
 13 14  1  0
 14 15  1  0
M  END
$$$$
