
     RDKit          3D

 15 14  0  0  0  0  0  0  0  0999 V2000
   45.4812  148.2359   60.0340 P   0  0  1  0  0  5  0  0  0  0  0  0
   47.0514  147.9070   59.4892 O   0  0  0  0  0  0  0  0  0  0  0  0
   44.5721  148.2172   58.8134 O   0  0  0  0  0  0  0  0  0  0  0  0
   44.9269  147.1041   61.1243 O   0  0  0  0  0  0  0  0  0  0  0  0
   45.2644  145.5697   60.4923 P   0  0  1  0  0  5  0  0  0  0  0  0
   43.8282  144.6939   60.4223 O   0  0  0  0  0  0  0  0  0  0  0  0
   45.8958  145.7278   59.1318 O   0  0  0  0  0  0  0  0  0  0  0  0
   46.3763  144.7361   61.4648 O   0  0  0  0  0  0  0  0  0  0  0  0
   44.5929  152.4638   62.5273 C   0  0  0  0  0  0  0  0  0  0  0  0
   45.3377  150.1875   63.0008 C   0  0  0  0  0  0  0  0  0  0  0  0
   44.6357  149.7608   61.7900 C   0  0  0  0  0  0  0  0  0  0  0  0
   45.4543  149.8114   60.6398 O   0  0  0  0  0  0  0  0  0  0  0  0
   45.3274  151.4678   63.3419 C   0  0  0  0  0  0  0  0  0  0  0  0
   46.0815  151.8745   64.5756 C   0  0  0  0  0  0  0  0  0  0  0  0
   47.1890  152.6532   64.2465 O   0  0  0  0  0  0  0  0  0  0  0  0
  1  2  1  6
  1  3  2  0
  1  4  1  0
 12  1  1  0
  4  5  1  0
  5  6  1  6
  5  7  2  0
  5  8  1  0
  9 13  1  6
 11 10  1  0
 10 13  2  0
 11 12  1  6
 13 14  1  0
 14 15  1  6
M  END
$$$$
