
     RDKit          3D

 15 14  0  0  0  0  0  0  0  0999 V2000
   46.4608  147.4738   61.7799 P   0  0  1  0  0  5  0  0  0  0  0  0
   47.3522  146.0390   61.9110 O   0  0  0  0  0  0  0  0  0  0  0  0
   47.1922  148.3644   60.7856 O   0  0  0  0  0  0  0  0  0  0  0  0
   44.9105  147.2211   61.2237 O   0  0  0  0  0  0  0  0  0  0  0  0
   45.0210  146.4656   59.7122 P   0  0  1  0  0  5  0  0  0  0  0  0
   43.5103  146.5301   58.9718 O   0  0  0  0  0  0  0  0  0  0  0  0
   46.0806  147.1595   58.8934 O   0  0  0  0  0  0  0  0  0  0  0  0
   45.4937  144.8442   59.8692 O   0  0  0  0  0  0  0  0  0  0  0  0
   46.8543  152.6948   63.9621 C   0  0  0  0  0  0  0  0  0  0  0  0
   45.8706  150.4603   63.9697 C   0  0  0  0  0  0  0  0  0  0  0  0
   45.5179  149.2641   63.2045 C   0  0  0  0  0  0  0  0  0  0  0  0
   46.5115  148.2623   63.2719 O   0  0  0  0  0  0  0  0  0  0  0  0
   46.0745  151.6039   63.3321 C   0  0  0  0  0  0  0  0  0  0  0  0
   45.4916  151.7573   61.9564 C   0  0  0  0  0  0  0  0  0  0  0  0
   44.2966  151.0502   61.8417 O   0  0  0  0  0  0  0  0  0  0  0  0
  1  2  1  1
  1  3  2  0
  1  4  1  0
 12  1  1  0
  4  5  1  0
  5  6  1  6
  5  7  2  0
  5  8  1  0
  9 13  1  6
 11 10  1  0
 10 13  2  0
 11 12  1  6
 13 14  1  0
 14 15  1  6
M  END
$$$$
