
     RDKit          3D

 15 14  0  0  0  0  0  0  0  0999 V2000
   44.5489  148.1570   60.2127 P   0  0  1  0  0  5  0  0  0  0  0  0
   44.1357  149.1055   58.8973 O   0  0  0  0  0  0  0  0  0  0  0  0
   43.6084  146.9687   60.3669 O   0  0  0  0  0  0  0  0  0  0  0  0
   46.1311  147.5360   60.0768 O   0  0  0  0  0  0  0  0  0  0  0  0
   46.0972  145.8616   60.3607 P   0  0  1  0  0  5  0  0  0  0  0  0
   47.2999  145.5049   61.4790 O   0  0  0  0  0  0  0  0  0  0  0  0
   44.7289  145.5500   60.9607 O   0  0  0  0  0  0  0  0  0  0  0  0
   46.3080  145.0806   58.8954 O   0  0  0  0  0  0  0  0  0  0  0  0
   44.7758  152.9582   62.3613 C   0  0  0  0  0  0  0  0  0  0  0  0
   45.5033  150.7227   62.9568 C   0  0  0  0  0  0  0  0  0  0  0  0
   45.3512  150.1203   61.6281 C   0  0  0  0  0  0  0  0  0  0  0  0
   44.4773  149.0222   61.6588 O   0  0  0  0  0  0  0  0  0  0  0  0
   45.6604  152.0384   63.1071 C   0  0  0  0  0  0  0  0  0  0  0  0
   46.6990  152.6159   64.0028 C   0  0  0  0  0  0  0  0  0  0  0  0
   46.9471  153.9539   63.7033 O   0  0  0  0  0  0  0  0  0  0  0  0
  1  2  1  6
  1  3  2  0
  1  4  1  0
 12  1  1  0
  4  5  1  0
  5  6  1  1
  5  7  2  0
  5  8  1  0
 13  9  1  0
 11 10  1  0
 10 13  2  0
 11 12  1  0
 13 14  1  0
 14 15  1  0
M  END
$$$$
