
     RDKit          3D

 15 14  0  0  0  0  0  0  0  0999 V2000
   44.6986  148.2401   60.1546 P   0  0  1  0  0  5  0  0  0  0  0  0
   43.5034  149.1093   59.3259 O   0  0  0  0  0  0  0  0  0  0  0  0
   43.9828  147.3078   61.1217 O   0  0  0  0  0  0  0  0  0  0  0  0
   45.6485  147.3217   59.1392 O   0  0  0  0  0  0  0  0  0  0  0  0
   46.1589  145.9576   60.0029 P   0  0  1  0  0  5  0  0  0  0  0  0
   46.8059  144.8481   58.9143 O   0  0  0  0  0  0  0  0  0  0  0  0
   47.1670  146.3832   61.0408 O   0  0  0  0  0  0  0  0  0  0  0  0
   44.8660  145.2351   60.8297 O   0  0  0  0  0  0  0  0  0  0  0  0
   44.7055  151.0484   63.3476 C   0  0  0  0  0  0  0  0  0  0  0  0
   46.5806  149.4872   63.2626 C   0  0  0  0  0  0  0  0  0  0  0  0
   45.8465  148.6576   62.3067 C   0  0  0  0  0  0  0  0  0  0  0  0
   45.5860  149.3287   61.0912 O   0  0  0  0  0  0  0  0  0  0  0  0
   46.1309  150.6996   63.5518 C   0  0  0  0  0  0  0  0  0  0  0  0
   47.1089  151.7041   64.0906 C   0  0  0  0  0  0  0  0  0  0  0  0
   47.0414  151.7667   65.4808 O   0  0  0  0  0  0  0  0  0  0  0  0
  1  2  1  6
  1  3  2  0
  1  4  1  0
 12  1  1  0
  4  5  1  0
  5  6  1  6
  5  7  2  0
  5  8  1  0
  9 13  1  6
 11 10  1  0
 10 13  2  0
 11 12  1  6
 13 14  1  0
 14 15  1  6
M  END
$$$$
