
     RDKit          3D

 15 14  0  0  0  0  0  0  0  0999 V2000
   47.0319  146.8103   61.8550 P   0  0  1  0  0  5  0  0  0  0  0  0
   47.4877  145.9632   63.2243 O   0  0  0  0  0  0  0  0  0  0  0  0
   47.8864  146.4354   60.6510 O   0  0  0  0  0  0  0  0  0  0  0  0
   45.4065  146.5122   61.4345 O   0  0  0  0  0  0  0  0  0  0  0  0
   45.2943  146.3199   59.7506 P   0  0  1  0  0  5  0  0  0  0  0  0
   44.1182  147.3808   59.1888 O   0  0  0  0  0  0  0  0  0  0  0  0
   46.6539  146.7095   59.1769 O   0  0  0  0  0  0  0  0  0  0  0  0
   44.9399  144.7154   59.4321 O   0  0  0  0  0  0  0  0  0  0  0  0
   45.3823  151.1859   61.3168 C   0  0  0  0  0  0  0  0  0  0  0  0
   46.4778  150.3597   63.3165 C   0  0  0  0  0  0  0  0  0  0  0  0
   46.2107  148.9683   62.9368 C   0  0  0  0  0  0  0  0  0  0  0  0
   47.1934  148.4762   62.0636 O   0  0  0  0  0  0  0  0  0  0  0  0
   45.8732  151.3748   62.6982 C   0  0  0  0  0  0  0  0  0  0  0  0
   45.6742  152.6966   63.3523 C   0  0  0  0  0  0  0  0  0  0  0  0
   44.7719  152.6135   64.4108 O   0  0  0  0  0  0  0  0  0  0  0  0
  1  2  1  1
  1  3  2  0
  1  4  1  0
 12  1  1  0
  4  5  1  0
  5  6  1  6
  5  7  2  0
  5  8  1  0
 13  9  1  0
 11 10  1  0
 10 13  2  0
 11 12  1  0
 13 14  1  0
 14 15  1  0
M  END
$$$$
