
     RDKit          3D

 15 14  0  0  0  0  0  0  0  0999 V2000
   44.8732  148.0161   59.9080 P   0  0  1  0  0  5  0  0  0  0  0  0
   45.9311  147.9184   58.6150 O   0  0  0  0  0  0  0  0  0  0  0  0
   43.5438  148.6388   59.5013 O   0  0  0  0  0  0  0  0  0  0  0  0
   44.5323  146.4813   60.5680 O   0  0  0  0  0  0  0  0  0  0  0  0
   45.9514  145.5479   60.5664 P   0  0  1  0  0  5  0  0  0  0  0  0
   45.5103  143.9413   60.3465 O   0  0  0  0  0  0  0  0  0  0  0  0
   46.7812  146.0205   59.3758 O   0  0  0  0  0  0  0  0  0  0  0  0
   46.7544  145.8185   62.0098 O   0  0  0  0  0  0  0  0  0  0  0  0
   45.5552  152.0246   62.2954 C   0  0  0  0  0  0  0  0  0  0  0  0
   44.9893  149.8843   63.2857 C   0  0  0  0  0  0  0  0  0  0  0  0
   44.4634  149.4174   61.9984 C   0  0  0  0  0  0  0  0  0  0  0  0
   45.4919  148.9673   61.1559 O   0  0  0  0  0  0  0  0  0  0  0  0
   45.6641  151.0303   63.3837 C   0  0  0  0  0  0  0  0  0  0  0  0
   46.5266  151.3451   64.5549 C   0  0  0  0  0  0  0  0  0  0  0  0
   47.8279  150.8821   64.3718 O   0  0  0  0  0  0  0  0  0  0  0  0
  1  2  1  6
  1  3  2  0
  1  4  1  0
 12  1  1  0
  4  5  1  0
  5  6  1  6
  5  7  2  0
  5  8  1  0
 13  9  1  0
 11 10  1  0
 10 13  2  0
 11 12  1  0
 13 14  1  0
 14 15  1  0
M  END
$$$$
