
     RDKit          3D

 15 14  0  0  0  0  0  0  0  0999 V2000
   44.2319  147.4777   61.1686 P   0  0  1  0  0  5  0  0  0  0  0  0
   42.6894  148.0797   61.4116 O   0  0  0  0  0  0  0  0  0  0  0  0
   44.4687  146.1998   61.9631 O   0  0  0  0  0  0  0  0  0  0  0  0
   44.5215  147.1146   59.5279 O   0  0  0  0  0  0  0  0  0  0  0  0
   45.9116  146.1456   59.4102 P   0  0  1  0  0  5  0  0  0  0  0  0
   45.5262  144.6193   59.9987 O   0  0  0  0  0  0  0  0  0  0  0  0
   46.2523  146.0526   57.9253 O   0  0  0  0  0  0  0  0  0  0  0  0
   47.1404  146.8910   60.2680 O   0  0  0  0  0  0  0  0  0  0  0  0
   47.1699  150.8486   63.7396 C   0  0  0  0  0  0  0  0  0  0  0  0
   44.8729  150.2788   63.2101 C   0  0  0  0  0  0  0  0  0  0  0  0
   45.2873  148.8855   63.0140 C   0  0  0  0  0  0  0  0  0  0  0  0
   45.4182  148.5752   61.6514 O   0  0  0  0  0  0  0  0  0  0  0  0
   45.7524  151.2219   63.5497 C   0  0  0  0  0  0  0  0  0  0  0  0
   45.3558  152.6429   63.7449 C   0  0  0  0  0  0  0  0  0  0  0  0
   45.7901  153.4452   62.6918 O   0  0  0  0  0  0  0  0  0  0  0  0
  1  2  1  6
  1  3  2  0
  1  4  1  0
 12  1  1  0
  4  5  1  0
  5  6  1  1
  5  7  2  0
  5  8  1  0
 13  9  1  0
 11 10  1  0
 10 13  2  0
 11 12  1  0
 13 14  1  0
 14 15  1  0
M  END
$$$$
