
     RDKit          3D

 15 14  0  0  0  0  0  0  0  0999 V2000
   45.8107  146.1448   61.0919 P   0  0  1  0  0  5  0  0  0  0  0  0
   45.6606  144.9250   62.2582 O   0  0  0  0  0  0  0  0  0  0  0  0
   46.8066  145.6491   60.0531 O   0  0  0  0  0  0  0  0  0  0  0  0
   44.3707  146.4841   60.3251 O   0  0  0  0  0  0  0  0  0  0  0  0
   44.7295  147.3345   58.9054 P   0  0  1  0  0  5  0  0  0  0  0  0
   43.9347  148.8179   58.9568 O   0  0  0  0  0  0  0  0  0  0  0  0
   46.2248  147.4992   58.7971 O   0  0  0  0  0  0  0  0  0  0  0  0
   44.2207  146.4791   57.5320 O   0  0  0  0  0  0  0  0  0  0  0  0
   44.8642  150.8707   61.8813 C   0  0  0  0  0  0  0  0  0  0  0  0
   45.8880  149.2245   63.3653 C   0  0  0  0  0  0  0  0  0  0  0  0
   45.4345  148.1851   62.4407 C   0  0  0  0  0  0  0  0  0  0  0  0
   46.5051  147.4950   61.8299 O   0  0  0  0  0  0  0  0  0  0  0  0
   45.6217  150.4947   63.0977 C   0  0  0  0  0  0  0  0  0  0  0  0
   46.1111  151.5359   64.0633 C   0  0  0  0  0  0  0  0  0  0  0  0
   47.4955  151.4691   64.2062 O   0  0  0  0  0  0  0  0  0  0  0  0
  1  2  1  1
  1  3  2  0
  1  4  1  0
 12  1  1  0
  4  5  1  0
  5  6  1  1
  5  7  2  0
  5  8  1  0
  9 13  1  6
 11 10  1  0
 10 13  2  0
 11 12  1  6
 13 14  1  0
 14 15  1  6
M  END
$$$$
