
     RDKit          3D

 15 14  0  0  0  0  0  0  0  0999 V2000
   45.1997  148.3634   59.7747 P   0  0  1  0  0  5  0  0  0  0  0  0
   45.1845  149.0514   58.2494 O   0  0  0  0  0  0  0  0  0  0  0  0
   44.0374  147.3981   59.9681 O   0  0  0  0  0  0  0  0  0  0  0  0
   46.6358  147.4908   60.0644 O   0  0  0  0  0  0  0  0  0  0  0  0
   46.2497  145.8588   60.3339 P   0  0  1  0  0  5  0  0  0  0  0  0
   47.0854  145.3512   61.7007 O   0  0  0  0  0  0  0  0  0  0  0  0
   44.7479  145.8056   60.6006 O   0  0  0  0  0  0  0  0  0  0  0  0
   46.6514  144.9945   58.9579 O   0  0  0  0  0  0  0  0  0  0  0  0
   46.9414  151.6897   61.9843 C   0  0  0  0  0  0  0  0  0  0  0  0
   45.9114  149.8515   63.1849 C   0  0  0  0  0  0  0  0  0  0  0  0
   45.2279  148.9435   62.2575 C   0  0  0  0  0  0  0  0  0  0  0  0
   45.0713  149.5259   60.9900 O   0  0  0  0  0  0  0  0  0  0  0  0
   45.9613  151.1646   62.9583 C   0  0  0  0  0  0  0  0  0  0  0  0
   45.0615  152.1243   63.6540 C   0  0  0  0  0  0  0  0  0  0  0  0
   44.8996  153.2980   62.9209 O   0  0  0  0  0  0  0  0  0  0  0  0
  1  2  1  6
  1  3  2  0
  1  4  1  0
 12  1  1  0
  4  5  1  0
  5  6  1  1
  5  7  2  0
  5  8  1  0
 13  9  1  0
 11 10  1  0
 10 13  2  0
 11 12  1  0
 13 14  1  0
 14 15  1  0
M  END
$$$$
