
     RDKit          3D

 15 14  0  0  0  0  0  0  0  0999 V2000
   46.7203  146.9987   62.2871 P   0  0  1  0  0  5  0  0  0  0  0  0
   47.3236  145.9612   63.4533 O   0  0  0  0  0  0  0  0  0  0  0  0
   47.7110  147.2016   61.1479 O   0  0  0  0  0  0  0  0  0  0  0  0
   45.2736  146.4120   61.6012 O   0  0  0  0  0  0  0  0  0  0  0  0
   45.4692  146.2811   59.9190 P   0  0  1  0  0  5  0  0  0  0  0  0
   46.2835  147.6517   59.3874 O   0  0  0  0  0  0  0  0  0  0  0  0
   46.3310  145.0450   59.6764 O   0  0  0  0  0  0  0  0  0  0  0  0
   43.9535  146.1072   59.2304 O   0  0  0  0  0  0  0  0  0  0  0  0
   44.0218  151.0429   60.9296 C   0  0  0  0  0  0  0  0  0  0  0  0
   45.9191  150.7995   62.4204 C   0  0  0  0  0  0  0  0  0  0  0  0
   46.1694  149.4560   61.8877 C   0  0  0  0  0  0  0  0  0  0  0  0
   46.3871  148.5272   62.9174 O   0  0  0  0  0  0  0  0  0  0  0  0
   44.8196  151.4802   62.0946 C   0  0  0  0  0  0  0  0  0  0  0  0
   44.3654  152.6694   62.8654 C   0  0  0  0  0  0  0  0  0  0  0  0
   45.0977  153.8066   62.5311 O   0  0  0  0  0  0  0  0  0  0  0  0
  1  2  1  1
  1  3  2  0
  1  4  1  0
 12  1  1  0
  4  5  1  0
  5  6  1  6
  5  7  2  0
  5  8  1  0
 13  9  1  0
 11 10  1  0
 10 13  2  0
 11 12  1  0
 13 14  1  0
 14 15  1  0
M  END
$$$$
