
     RDKit          3D

 15 14  0  0  0  0  0  0  0  0999 V2000
   45.8785  148.1944   60.3143 P   0  0  1  0  0  5  0  0  0  0  0  0
   47.2520  147.8693   59.3772 O   0  0  0  0  0  0  0  0  0  0  0  0
   44.6904  148.2405   59.3641 O   0  0  0  0  0  0  0  0  0  0  0  0
   45.5912  147.0235   61.4647 O   0  0  0  0  0  0  0  0  0  0  0  0
   45.3452  145.5556   60.6571 P   0  0  1  0  0  5  0  0  0  0  0  0
   46.6953  144.5796   60.9013 O   0  0  0  0  0  0  0  0  0  0  0  0
   44.0837  144.9143   61.1788 O   0  0  0  0  0  0  0  0  0  0  0  0
   45.1298  145.7991   58.9924 O   0  0  0  0  0  0  0  0  0  0  0  0
   45.3405  152.5952   62.4722 C   0  0  0  0  0  0  0  0  0  0  0  0
   45.5875  150.2948   63.2519 C   0  0  0  0  0  0  0  0  0  0  0  0
   45.0511  149.8371   61.9698 C   0  0  0  0  0  0  0  0  0  0  0  0
   46.0423  149.7423   60.9678 O   0  0  0  0  0  0  0  0  0  0  0  0
   45.8514  151.5818   63.4246 C   0  0  0  0  0  0  0  0  0  0  0  0
   46.6816  151.9777   64.6120 C   0  0  0  0  0  0  0  0  0  0  0  0
   47.0515  150.8584   65.3548 O   0  0  0  0  0  0  0  0  0  0  0  0
  1  2  1  6
  1  3  2  0
  1  4  1  0
 12  1  1  0
  4  5  1  0
  5  6  1  6
  5  7  2  0
  5  8  1  0
  9 13  1  6
 11 10  1  0
 10 13  2  0
 11 12  1  6
 13 14  1  0
 14 15  1  6
M  END
$$$$
