
     RDKit          3D

 15 14  0  0  0  0  0  0  0  0999 V2000
   46.4942  147.2073   61.9358 P   0  0  1  0  0  5  0  0  0  0  0  0
   46.3802  145.6838   62.6681 O   0  0  0  0  0  0  0  0  0  0  0  0
   47.9045  147.3295   61.3766 O   0  0  0  0  0  0  0  0  0  0  0  0
   45.4101  147.4043   60.6856 O   0  0  0  0  0  0  0  0  0  0  0  0
   45.5276  146.0459   59.6814 P   0  0  1  0  0  5  0  0  0  0  0  0
   47.1376  145.8562   59.2268 O   0  0  0  0  0  0  0  0  0  0  0  0
   45.0051  144.8411   60.4231 O   0  0  0  0  0  0  0  0  0  0  0  0
   44.5752  146.2270   58.2896 O   0  0  0  0  0  0  0  0  0  0  0  0
   47.3593  151.2643   64.5192 C   0  0  0  0  0  0  0  0  0  0  0  0
   45.4749  150.6125   63.1104 C   0  0  0  0  0  0  0  0  0  0  0  0
   46.3312  149.6203   62.4599 C   0  0  0  0  0  0  0  0  0  0  0  0
   46.3418  148.3816   63.1390 O   0  0  0  0  0  0  0  0  0  0  0  0
   46.0139  151.4920   63.9421 C   0  0  0  0  0  0  0  0  0  0  0  0
   45.2198  152.7215   64.2793 C   0  0  0  0  0  0  0  0  0  0  0  0
   43.8740  152.5452   63.9645 O   0  0  0  0  0  0  0  0  0  0  0  0
  1  2  1  1
  1  3  2  0
  1  4  1  0
 12  1  1  0
  4  5  1  0
  5  6  1  6
  5  7  2  0
  5  8  1  0
  9 13  1  6
 11 10  1  0
 10 13  2  0
 11 12  1  6
 13 14  1  0
 14 15  1  6
M  END
$$$$
