
     RDKit          3D

 15 14  0  0  0  0  0  0  0  0999 V2000
   46.7316  147.1720   61.5990 P   0  0  1  0  0  5  0  0  0  0  0  0
   46.0510  145.9050   62.4546 O   0  0  0  0  0  0  0  0  0  0  0  0
   48.1340  146.8321   61.1110 O   0  0  0  0  0  0  0  0  0  0  0  0
   45.8048  147.5841   60.2283 O   0  0  0  0  0  0  0  0  0  0  0  0
   45.3502  146.1628   59.4169 P   0  0  1  0  0  5  0  0  0  0  0  0
   44.8182  146.5941   57.8822 O   0  0  0  0  0  0  0  0  0  0  0  0
   46.6082  145.3061   59.3026 O   0  0  0  0  0  0  0  0  0  0  0  0
   44.1756  145.3952   60.3293 O   0  0  0  0  0  0  0  0  0  0  0  0
   44.8244  149.9158   65.2182 C   0  0  0  0  0  0  0  0  0  0  0  0
   45.8272  150.6137   63.1233 C   0  0  0  0  0  0  0  0  0  0  0  0
   45.6520  149.2586   62.5900 C   0  0  0  0  0  0  0  0  0  0  0  0
   46.8707  148.5639   62.5414 O   0  0  0  0  0  0  0  0  0  0  0  0
   45.5781  150.8920   64.4035 C   0  0  0  0  0  0  0  0  0  0  0  0
   46.0340  152.1557   65.0436 C   0  0  0  0  0  0  0  0  0  0  0  0
   47.4065  152.3410   64.8910 O   0  0  0  0  0  0  0  0  0  0  0  0
  1  2  1  1
  1  3  2  0
  1  4  1  0
 12  1  1  0
  4  5  1  0
  5  6  1  6
  5  7  2  0
  5  8  1  0
 13  9  1  0
 11 10  1  0
 10 13  2  0
 11 12  1  0
 13 14  1  0
 14 15  1  0
M  END
$$$$
