
     RDKit          3D

 15 14  0  0  0  0  0  0  0  0999 V2000
   44.9623  146.7951   62.0755 P   0  0  1  0  0  5  0  0  0  0  0  0
   44.0499  146.3019   63.3888 O   0  0  0  0  0  0  0  0  0  0  0  0
   46.4525  146.7876   62.3913 O   0  0  0  0  0  0  0  0  0  0  0  0
   44.7267  145.7849   60.7221 O   0  0  0  0  0  0  0  0  0  0  0  0
   45.7903  146.2566   59.4846 P   0  0  1  0  0  5  0  0  0  0  0  0
   44.9716  146.1216   58.0232 O   0  0  0  0  0  0  0  0  0  0  0  0
   46.1388  147.7195   59.7450 O   0  0  0  0  0  0  0  0  0  0  0  0
   47.1510  145.2856   59.5691 O   0  0  0  0  0  0  0  0  0  0  0  0
   44.8237  152.3179   64.2928 C   0  0  0  0  0  0  0  0  0  0  0  0
   44.8116  150.2813   62.9761 C   0  0  0  0  0  0  0  0  0  0  0  0
   45.4871  149.2896   62.1324 C   0  0  0  0  0  0  0  0  0  0  0  0
   44.5766  148.3656   61.5963 O   0  0  0  0  0  0  0  0  0  0  0  0
   45.5037  151.1278   63.7395 C   0  0  0  0  0  0  0  0  0  0  0  0
   46.9424  150.9159   64.0556 C   0  0  0  0  0  0  0  0  0  0  0  0
   47.6394  150.4148   62.9582 O   0  0  0  0  0  0  0  0  0  0  0  0
  1  2  1  1
  1  3  2  0
  1  4  1  0
 12  1  1  0
  4  5  1  0
  5  6  1  6
  5  7  2  0
  5  8  1  0
 13  9  1  0
 11 10  1  0
 10 13  2  0
 11 12  1  0
 13 14  1  0
 14 15  1  0
M  END
$$$$
