
     RDKit          3D

 15 14  0  0  0  0  0  0  0  0999 V2000
   45.2264  148.3548   60.7793 P   0  0  1  0  0  5  0  0  0  0  0  0
   44.2263  148.4901   59.4184 O   0  0  0  0  0  0  0  0  0  0  0  0
   44.4816  147.5034   61.7977 O   0  0  0  0  0  0  0  0  0  0  0  0
   46.6826  147.6199   60.4387 O   0  0  0  0  0  0  0  0  0  0  0  0
   46.3855  145.9695   60.2033 P   0  0  1  0  0  5  0  0  0  0  0  0
   46.2373  145.2338   61.7105 O   0  0  0  0  0  0  0  0  0  0  0  0
   45.1370  145.8096   59.3723 O   0  0  0  0  0  0  0  0  0  0  0  0
   47.6520  145.2334   59.3482 O   0  0  0  0  0  0  0  0  0  0  0  0
   45.3132  152.1068   64.9927 C   0  0  0  0  0  0  0  0  0  0  0  0
   46.3958  150.4510   63.5620 C   0  0  0  0  0  0  0  0  0  0  0  0
   46.5675  149.8243   62.2510 C   0  0  0  0  0  0  0  0  0  0  0  0
   45.3996  149.8904   61.4589 O   0  0  0  0  0  0  0  0  0  0  0  0
   45.6730  151.5569   63.6649 C   0  0  0  0  0  0  0  0  0  0  0  0
   45.2323  152.2312   62.3972 C   0  0  0  0  0  0  0  0  0  0  0  0
   46.2501  153.0298   61.8798 O   0  0  0  0  0  0  0  0  0  0  0  0
  1  2  1  6
  1  3  2  0
  1  4  1  0
 12  1  1  0
  4  5  1  0
  5  6  1  1
  5  7  2  0
  5  8  1  0
  9 13  1  6
 11 10  1  0
 10 13  2  0
 11 12  1  6
 13 14  1  0
 14 15  1  6
M  END
$$$$
