
     RDKit          3D

 15 14  0  0  0  0  0  0  0  0999 V2000
   44.5068  147.6533   59.4367 P   0  0  1  0  0  5  0  0  0  0  0  0
   43.3988  146.8568   58.4680 O   0  0  0  0  0  0  0  0  0  0  0  0
   45.9109  147.5973   58.8486 O   0  0  0  0  0  0  0  0  0  0  0  0
   44.1079  149.2989   59.6384 O   0  0  0  0  0  0  0  0  0  0  0  0
   42.4570  149.4282   60.0166 P   0  0  1  0  0  5  0  0  0  0  0  0
   41.5938  149.3829   58.5753 O   0  0  0  0  0  0  0  0  0  0  0  0
   42.1079  148.2070   60.8631 O   0  0  0  0  0  0  0  0  0  0  0  0
   42.2291  150.8461   60.8762 O   0  0  0  0  0  0  0  0  0  0  0  0
   47.7466  148.8399   63.0372 C   0  0  0  0  0  0  0  0  0  0  0  0
   46.6965  146.8736   62.0820 C   0  0  0  0  0  0  0  0  0  0  0  0
   45.5071  147.6779   61.7820 C   0  0  0  0  0  0  0  0  0  0  0  0
   44.5993  146.9722   60.9770 O   0  0  0  0  0  0  0  0  0  0  0  0
   47.7393  147.3941   62.7301 C   0  0  0  0  0  0  0  0  0  0  0  0
   48.9007  146.5674   63.1571 C   0  0  0  0  0  0  0  0  0  0  0  0
   49.3023  145.6904   62.1516 O   0  0  0  0  0  0  0  0  0  0  0  0
  1  2  1  6
  1  3  2  0
  1  4  1  0
 12  1  1  0
  4  5  1  0
  5  6  1  6
  5  7  2  0
  5  8  1  0
 13  9  1  0
 11 10  1  0
 10 13  2  0
 11 12  1  0
 13 14  1  0
 14 15  1  0
M  END
$$$$
