
     RDKit          3D

 15 14  0  0  0  0  0  0  0  0999 V2000
   45.0301  147.9460   59.8211 P   0  0  1  0  0  5  0  0  0  0  0  0
   45.4659  147.6002   58.2208 O   0  0  0  0  0  0  0  0  0  0  0  0
   43.7387  148.7498   59.7684 O   0  0  0  0  0  0  0  0  0  0  0  0
   44.7627  146.5734   60.7273 O   0  0  0  0  0  0  0  0  0  0  0  0
   46.1033  145.5572   60.5333 P   0  0  1  0  0  5  0  0  0  0  0  0
   45.5644  143.9624   60.5059 O   0  0  0  0  0  0  0  0  0  0  0  0
   46.8225  145.9317   59.2616 O   0  0  0  0  0  0  0  0  0  0  0  0
   47.2079  145.7483   61.8063 O   0  0  0  0  0  0  0  0  0  0  0  0
   46.9785  152.0914   64.0606 C   0  0  0  0  0  0  0  0  0  0  0  0
   46.4444  150.6186   62.1881 C   0  0  0  0  0  0  0  0  0  0  0  0
   45.5837  149.6134   61.5638 C   0  0  0  0  0  0  0  0  0  0  0  0
   46.2096  148.9583   60.4800 O   0  0  0  0  0  0  0  0  0  0  0  0
   46.2194  150.9789   63.4432 C   0  0  0  0  0  0  0  0  0  0  0  0
   45.1744  150.2260   64.2160 C   0  0  0  0  0  0  0  0  0  0  0  0
   45.7302  149.1193   64.8545 O   0  0  0  0  0  0  0  0  0  0  0  0
  1  2  1  6
  1  3  2  0
  1  4  1  0
 12  1  1  0
  4  5  1  0
  5  6  1  6
  5  7  2  0
  5  8  1  0
  9 13  1  6
 11 10  1  0
 10 13  2  0
 11 12  1  6
 13 14  1  0
 14 15  1  6
M  END
$$$$
