
     RDKit          3D

130134  0  0  0  0  0  0  0  0999 V2000
  -22.7381  -26.9758   32.0855 C   0  0  0  0  0  0  0  0  0  0  0  0
  -23.6660  -26.8298   31.2880 O   0  0  0  0  0  0  0  0  0  0  0  0
  -22.1609  -28.3241   32.4301 C   0  0  0  0  0  0  0  0  0  0  0  0
  -22.0844  -25.9058   32.6577 N   0  0  0  0  0  0  0  0  0  0  0  0
  -20.9078  -26.0915   33.5026 C   0  0  2  0  0  0  0  0  0  0  0  0
  -20.2433  -24.7104   33.5889 C   0  0  0  0  0  0  0  0  0  0  0  0
  -19.3808  -24.3584   32.7813 O   0  0  0  0  0  0  0  0  0  0  0  0
  -19.9168  -27.1469   32.9589 C   0  0  0  0  0  0  0  0  0  0  0  0
  -18.6394  -27.2708   33.8069 C   0  0  0  0  0  0  0  0  0  0  0  0
  -18.7460  -28.1734   35.0413 C   0  0  0  0  0  0  0  0  0  0  0  0
  -20.1918  -28.4533   35.4125 C   0  0  0  0  0  0  0  0  0  0  0  0
  -20.2480  -29.2915   36.6329 N   0  0  0  0  0  4  0  0  0  0  0  0
  -20.7705  -23.8939   34.5728 N   0  0  0  0  0  0  0  0  0  0  0  0
  -20.4355  -22.4657   34.6000 C   0  0  2  0  0  0  0  0  0  0  0  0
  -18.9050  -22.3355   34.5776 C   0  0  0  0  0  0  0  0  0  0  0  0
  -18.1802  -23.2957   34.3386 O   0  0  0  0  0  0  0  0  0  0  0  0
  -21.1157  -21.7920   35.7989 C   0  0  0  0  0  0  0  0  0  0  0  0
  -22.5355  -22.2453   36.1899 C   0  0  0  0  0  0  0  0  0  0  0  0
  -23.3462  -21.3275   37.1057 C   0  0  0  0  0  0  0  0  0  0  0  0
  -22.5017  -20.4092   37.9745 C   0  0  0  0  0  0  0  0  0  0  0  0
  -22.5025  -19.0502   37.3816 N   0  0  0  0  0  4  0  0  0  0  0  0
  -18.4192  -21.0884   34.8775 N   0  0  0  0  0  0  0  0  0  0  0  0
  -16.9899  -20.8162   34.8448 C   0  0  2  0  0  0  0  0  0  0  0  0
  -16.6661  -19.6653   35.8238 C   0  0  0  0  0  0  0  0  0  0  0  0
  -17.3560  -19.4098   36.8092 O   0  0  0  0  0  0  0  0  0  0  0  0
  -16.5173  -20.3979   33.4431 C   0  0  0  0  0  0  0  0  0  0  0  0
  -14.9888  -20.5140   33.2774 C   0  0  0  0  0  0  0  0  0  0  0  0
  -14.2825  -21.4957   34.2027 C   0  0  0  0  0  0  0  0  0  0  0  0
  -14.4322  -22.8944   33.7755 N   0  0  0  0  0  0  0  0  0  0  0  0
  -13.4882  -23.5412   33.0412 C   0  0  0  0  0  0  0  0  0  0  0  0
  -12.4466  -24.1604   33.6036 N   0  0  0  0  0  4  0  0  0  0  0  0
  -13.6503  -23.6461   31.7153 N   0  0  0  0  0  0  0  0  0  0  0  0
  -15.5232  -18.9624   35.4902 N   0  0  0  0  0  0  0  0  0  0  0  0
  -14.5912  -18.4925   36.5240 C   0  0  2  0  0  0  0  0  0  0  0  0
  -13.2638  -19.1100   36.0438 C   0  0  0  0  0  0  0  0  0  0  0  0
  -13.1337  -20.2996   35.7712 O   0  0  0  0  0  0  0  0  0  0  0  0
  -15.0284  -18.9410   37.9316 C   0  0  0  0  0  0  0  0  0  0  0  0
  -16.2920  -18.2509   38.3962 C   0  0  0  0  0  0  0  0  0  0  0  0
  -17.2630  -18.9528   39.1242 C   0  0  0  0  0  0  0  0  0  0  0  0
  -16.5134  -16.8870   38.1270 C   0  0  0  0  0  0  0  0  0  0  0  0
  -18.4006  -18.3026   39.6044 C   0  0  0  0  0  0  0  0  0  0  0  0
  -17.6599  -16.2480   38.5955 C   0  0  0  0  0  0  0  0  0  0  0  0
  -18.5795  -16.9448   39.3481 C   0  0  0  0  0  0  0  0  0  0  0  0
  -19.6796  -16.2775   39.8314 O   0  0  0  0  0  0  0  0  0  0  0  0
  -12.1727  -18.2834   36.1877 N   0  0  0  0  0  0  0  0  0  0  0  0
  -10.8486  -18.5255   35.5948 C   0  0  2  0  0  0  0  0  0  0  0  0
  -10.0774  -17.2193   35.8630 C   0  0  0  0  0  0  0  0  0  0  0  0
   -9.3658  -17.0929   36.8679 O   0  0  0  0  0  0  0  0  0  0  0  0
  -10.9071  -18.8962   34.1185 C   0  0  0  0  0  0  0  0  0  0  0  0
  -11.3108  -17.7633   33.3409 O   0  0  0  0  0  0  0  0  0  0  0  0
  -10.2030  -16.1971   34.9421 N   0  0  0  0  0  0  0  0  0  0  0  0
  -10.3611  -14.8305   35.4633 C   0  0  2  0  0  0  0  0  0  0  0  0
   -9.7424  -14.8510   36.8668 C   0  0  0  0  0  0  0  0  0  0  0  0
   -9.5689  -15.9248   37.4212 O   0  0  0  0  0  0  0  0  0  0  0  0
  -11.8271  -14.3847   35.5453 C   0  0  0  0  0  0  0  0  0  0  0  0
  -12.1598  -13.0768   34.8182 C   0  0  0  0  0  0  0  0  0  0  0  0
  -11.7025  -13.0344   33.3570 C   0  0  0  0  0  0  0  0  0  0  0  0
  -11.1033  -11.7731   32.8487 N   0  0  0  0  0  0  0  0  0  0  0  0
  -10.9204  -10.5870   33.4421 C   0  0  0  0  0  0  0  0  0  0  0  0
  -10.9425  -10.3995   34.7551 N   0  0  0  0  0  4  0  0  0  0  0  0
  -10.7785   -9.5192   32.6504 N   0  0  0  0  0  0  0  0  0  0  0  0
   -9.3917  -11.0743   37.4566 C   0  0  0  0  0  0  0  0  0  0  0  0
   -9.4932  -13.6203   37.4289 N   0  0  0  0  0  0  0  0  0  0  0  0
   -8.7031  -10.0696   37.2696 O   0  0  0  0  0  0  0  0  0  0  0  0
   -9.2025  -12.4002   36.6572 C   0  0  1  0  0  0  0  0  0  0  0  0
  -10.1938  -12.3782   35.4368 C   0  0  0  0  0  0  0  0  0  0  0  0
  -12.6496  -12.4040   34.6031 C   0  0  0  0  0  0  0  0  0  0  0  0
  -12.9147  -13.7801   34.0464 C   0  0  0  0  0  0  0  0  0  0  0  0
  -11.6936  -12.3970   35.8018 C   0  0  0  0  0  0  0  0  0  0  0  0
   -7.7800  -12.3601   36.0771 C   0  0  0  0  0  0  0  0  0  0  0  0
  -10.5203  -10.9348   38.2532 N   0  0  0  0  0  0  0  0  0  0  0  0
  -10.4613  -11.5355   39.5891 C   0  0  2  0  0  0  0  0  0  0  0  0
  -11.7372  -12.4060   39.8004 C   0  0  0  0  0  0  0  0  0  0  0  0
  -11.7904  -13.5649   39.3852 O   0  0  0  0  0  0  0  0  0  0  0  0
  -10.2318  -10.4964   40.7039 C   0  0  0  0  0  0  0  0  0  0  0  0
  -11.3411   -9.4190   40.7177 C   0  0  0  0  0  0  0  0  0  0  0  0
  -12.3960   -9.7148   39.6812 C   0  0  0  0  0  0  0  0  0  0  0  0
  -12.9720  -10.7941   39.5839 O   0  0  0  0  0  0  0  0  0  0  0  0
  -12.7375   -8.6393   38.8928 N   0  0  0  0  0  0  0  0  0  0  0  0
  -12.7796  -11.8325   40.5298 N   0  0  0  0  0  0  0  0  0  0  0  0
  -13.8503  -12.6286   41.1774 C   0  0  2  0  0  0  0  0  0  0  0  0
  -13.2460  -13.9341   41.7935 C   0  0  0  0  0  0  0  0  0  0  0  0
  -12.0355  -14.0518   42.0005 O   0  0  0  0  0  0  0  0  0  0  0  0
  -15.0405  -12.8775   40.2274 C   0  0  0  0  0  0  0  0  0  0  0  0
  -16.3966  -13.2319   40.8885 C   0  0  1  0  0  0  0  0  0  0  0  0
  -17.2472  -14.1668   40.0358 C   0  0  0  0  0  0  0  0  0  0  0  0
  -16.1456  -13.9074   42.2506 C   0  0  0  0  0  0  0  0  0  0  0  0
  -14.0566  -15.0396   41.9657 N   0  0  0  0  0  0  0  0  0  0  0  0
  -13.5971  -16.2659   41.3273 C   0  0  2  0  0  0  0  0  0  0  0  0
  -14.5117  -16.5447   40.1287 C   0  0  0  0  0  0  0  0  0  0  0  0
  -15.5785  -15.9577   39.9582 O   0  0  0  0  0  0  0  0  0  0  0  0
  -13.4683  -17.4459   42.3070 C   0  0  0  0  0  0  0  0  0  0  0  0
  -14.2725  -18.6902   41.8783 C   0  0  1  0  0  0  0  0  0  0  0  0
  -14.6418  -19.5863   43.0543 C   0  0  0  0  0  0  0  0  0  0  0  0
  -15.5405  -18.2864   41.1335 C   0  0  0  0  0  0  0  0  0  0  0  0
  -14.1731  -19.3315   37.7971 C   0  0  0  0  0  0  0  0  0  0  0  0
  -14.0183  -17.4860   39.2450 N   0  0  0  0  0  0  0  0  0  0  0  0
  -14.9835  -20.2184   37.5155 O   0  0  0  0  0  0  0  0  0  0  0  0
  -14.5622  -17.7999   37.9088 C   0  0  1  0  0  0  0  0  0  0  0  0
  -13.8854  -16.9448   36.7911 C   0  0  0  0  0  0  0  0  0  0  0  0
  -14.5742  -14.6498   35.7809 C   0  0  0  0  0  0  0  0  0  0  0  0
  -13.7338  -14.7161   34.5500 C   0  0  0  0  0  0  0  0  0  0  0  0
  -14.0374  -15.4264   36.9908 C   0  0  0  0  0  0  0  0  0  0  0  0
  -16.0935  -17.6586   37.7566 C   0  0  0  0  0  0  0  0  0  0  0  0
  -12.8243  -19.5441   37.8983 N   0  0  0  0  0  0  0  0  0  0  0  0
  -11.7461  -18.8658   37.1780 C   0  0  2  0  0  0  0  0  0  0  0  0
  -11.0783  -19.8440   36.1500 C   0  0  0  0  0  0  0  0  0  0  0  0
  -10.3788  -20.7919   36.5123 O   0  0  0  0  0  0  0  0  0  0  0  0
  -10.7433  -18.2671   38.1977 C   0  0  0  0  0  0  0  0  0  0  0  0
   -9.3297  -18.0994   37.6662 C   0  0  0  0  0  0  0  0  0  0  0  0
   -8.2698  -18.8564   38.1897 C   0  0  0  0  0  0  0  0  0  0  0  0
   -9.0588  -17.2453   36.5858 C   0  0  0  0  0  0  0  0  0  0  0  0
   -6.9920  -18.7709   37.6418 C   0  0  0  0  0  0  0  0  0  0  0  0
   -7.7795  -17.1866   36.0150 C   0  0  0  0  0  0  0  0  0  0  0  0
   -6.7420  -17.9361   36.5621 C   0  0  0  0  0  0  0  0  0  0  0  0
  -11.4455  -19.7123   34.8095 N   0  0  0  0  0  0  0  0  0  0  0  0
  -10.9102  -20.6556   33.7983 C   0  0  2  0  0  0  0  0  0  0  0  0
  -11.3483  -20.1983   32.3816 C   0  0  0  0  0  0  0  0  0  0  0  0
  -10.9151  -20.7507   31.3701 O   0  0  0  0  0  0  0  0  0  0  0  0
  -11.2800  -22.1197   34.1342 C   0  0  0  0  0  0  0  0  0  0  0  0
  -10.8396  -23.0723   33.0450 C   0  0  0  0  0  0  0  0  0  0  0  0
   -9.5500  -23.2874   32.5961 C   0  0  0  0  0  0  0  0  0  0  0  0
  -11.6723  -23.9401   32.2718 C   0  0  0  0  0  0  0  0  0  0  0  0
   -9.5533  -24.3470   31.7431 N   0  0  0  0  0  0  0  0  0  0  0  0
  -10.8377  -24.7673   31.5271 C   0  0  0  0  0  0  0  0  0  0  0  0
  -13.0728  -24.1046   32.1619 C   0  0  0  0  0  0  0  0  0  0  0  0
  -11.3230  -25.7895   30.7082 C   0  0  0  0  0  0  0  0  0  0  0  0
  -13.5686  -25.0721   31.2861 C   0  0  0  0  0  0  0  0  0  0  0  0
  -12.7068  -25.9223   30.5977 C   0  0  0  0  0  0  0  0  0  0  0  0
  -12.3551  -19.2818   32.2691 N   0  0  0  0  0  0  0  0  0  0  0  0
  1  2  2  0
  1  3  1  0
  4  1  1  0
  5  4  1  0
  6  5  1  0
  5  8  1  6
  6  7  2  0
 13  6  1  0
  8  9  1  0
  9 10  1  0
 10 11  1  0
 11 12  1  0
 14 13  1  0
 15 14  1  0
 14 17  1  1
 15 16  2  0
 22 15  1  0
 17 18  1  0
 18 19  1  0
 19 20  1  0
 20 21  1  0
 23 22  1  0
 24 23  1  0
 23 26  1  6
 24 25  2  0
 33 24  1  0
 26 27  1  0
 27 28  1  0
 28 29  1  0
 29 30  1  0
 30 31  2  0
 30 32  1  0
 34 33  1  0
 35 34  1  0
 34 37  1  1
 35 36  2  0
 45 35  1  0
 37 38  1  0
 38 39  2  0
 38 40  1  0
 39 41  1  0
 40 42  2  0
 41 43  2  0
 42 43  1  0
 43 44  1  0
 46 45  1  0
 47 46  1  0
 46 49  1  6
 47 48  2  0
 51 47  1  0
 49 50  1  0
 52 51  1  0
 53 52  1  0
 52 55  1  1
 53 54  2  0
 63 53  1  0
 55 56  1  0
 56 57  1  0
 57 58  1  0
 58 59  1  0
 59 60  2  0
 59 61  1  0
 62 64  2  0
 62 65  1  0
 71 62  1  0
 65 63  1  0
 65 66  1  0
 65 70  1  6
 66 69  1  0
 67 68  1  0
 69 67  1  0
 68102  2  0
 72 71  1  0
 73 72  1  0
 72 75  1  1
 73 74  2  0
 80 73  1  0
 75 76  1  0
 76 77  1  0
 77 78  2  0
 77 79  1  0
 81 80  1  0
 82 81  1  0
 81 84  1  6
 82 83  2  0
 88 82  1  0
 84 85  1  0
 85 86  1  6
 85 87  1  0
 89 88  1  0
 90 89  1  0
 89 92  1  1
 90 91  2  0
 97 90  1  0
 92 93  1  0
 93 94  1  1
 93 95  1  0
 96 98  2  0
 99 96  1  0
 96105  1  0
 97 99  1  0
 99100  1  0
 99104  1  1
100103  1  0
102101  1  0
101103  1  0
105106  1  0
106107  1  0
106109  1  1
107108  2  0
107116  1  0
109110  1  0
110111  2  0
110112  1  0
111113  1  0
112114  2  0
113115  2  0
114115  1  0
116117  1  0
117118  1  0
117120  1  1
118119  2  0
118130  1  0
120121  1  0
121122  2  0
121123  1  0
122124  1  0
123125  2  0
123126  1  0
124125  1  0
125127  1  0
126128  2  0
127129  2  0
128129  1  0
M  CHG  4  12   1  21   1  31   1  60   1
M  END
$$$$
