
     RDKit          3D

130134  0  0  0  0  0  0  0  0999 V2000
  -19.9959  -25.7441   39.3580 C   0  0  0  0  0  0  0  0  0  0  0  0
  -20.0852  -26.9482   39.6039 O   0  0  0  0  0  0  0  0  0  0  0  0
  -20.3132  -24.6767   40.3728 C   0  0  0  0  0  0  0  0  0  0  0  0
  -19.5038  -25.2723   38.1601 N   0  0  0  0  0  0  0  0  0  0  0  0
  -20.1500  -25.5905   36.8896 C   0  0  2  0  0  0  0  0  0  0  0  0
  -19.3018  -24.8977   35.8138 C   0  0  0  0  0  0  0  0  0  0  0  0
  -19.6050  -24.9519   34.6200 O   0  0  0  0  0  0  0  0  0  0  0  0
  -21.6234  -25.1272   36.8125 C   0  0  0  0  0  0  0  0  0  0  0  0
  -22.5426  -25.8671   37.7993 C   0  0  0  0  0  0  0  0  0  0  0  0
  -23.0160  -27.2553   37.3536 C   0  0  0  0  0  0  0  0  0  0  0  0
  -23.5700  -27.2356   35.9397 C   0  0  0  0  0  0  0  0  0  0  0  0
  -23.8526  -28.6178   35.4872 N   0  0  0  0  0  4  0  0  0  0  0  0
  -18.2558  -24.1479   36.3200 N   0  0  0  0  0  0  0  0  0  0  0  0
  -17.1792  -23.6952   35.4319 C   0  0  2  0  0  0  0  0  0  0  0  0
  -17.0532  -22.1709   35.5755 C   0  0  0  0  0  0  0  0  0  0  0  0
  -18.0393  -21.4417   35.5910 O   0  0  0  0  0  0  0  0  0  0  0  0
  -17.4427  -24.1817   34.0009 C   0  0  0  0  0  0  0  0  0  0  0  0
  -18.9016  -24.2894   33.5171 C   0  0  0  0  0  0  0  0  0  0  0  0
  -19.1802  -24.0189   32.0381 C   0  0  0  0  0  0  0  0  0  0  0  0
  -20.6278  -24.2347   31.6264 C   0  0  0  0  0  0  0  0  0  0  0  0
  -20.6810  -24.4839   30.1658 N   0  0  0  0  0  4  0  0  0  0  0  0
  -15.7693  -21.6938   35.6470 N   0  0  0  0  0  0  0  0  0  0  0  0
  -15.4090  -20.6612   36.6072 C   0  0  2  0  0  0  0  0  0  0  0  0
  -14.0470  -20.0478   36.2114 C   0  0  0  0  0  0  0  0  0  0  0  0
  -13.0722  -20.0404   36.9611 O   0  0  0  0  0  0  0  0  0  0  0  0
  -15.2837  -21.2221   38.0330 C   0  0  0  0  0  0  0  0  0  0  0  0
  -14.9241  -20.1342   39.0648 C   0  0  0  0  0  0  0  0  0  0  0  0
  -15.6246  -18.7921   38.9020 C   0  0  0  0  0  0  0  0  0  0  0  0
  -16.6506  -18.5534   39.9275 N   0  0  0  0  0  0  0  0  0  0  0  0
  -17.0401  -17.3045   40.2975 C   0  0  0  0  0  0  0  0  0  0  0  0
  -16.8705  -16.2403   39.5080 N   0  0  0  0  0  4  0  0  0  0  0  0
  -17.7017  -17.1414   41.4513 N   0  0  0  0  0  0  0  0  0  0  0  0
  -14.0297  -19.5214   34.9330 N   0  0  0  0  0  0  0  0  0  0  0  0
  -12.8261  -18.8741   34.3940 C   0  0  2  0  0  0  0  0  0  0  0  0
  -12.8751  -17.5031   35.0952 C   0  0  0  0  0  0  0  0  0  0  0  0
  -13.8878  -16.8123   35.1545 O   0  0  0  0  0  0  0  0  0  0  0  0
  -12.8583  -18.8025   32.8553 C   0  0  0  0  0  0  0  0  0  0  0  0
  -13.4481  -20.0459   32.2269 C   0  0  0  0  0  0  0  0  0  0  0  0
  -13.6267  -20.1288   30.8389 C   0  0  0  0  0  0  0  0  0  0  0  0
  -13.8122  -21.1534   33.0159 C   0  0  0  0  0  0  0  0  0  0  0  0
  -14.1150  -21.2973   30.2526 C   0  0  0  0  0  0  0  0  0  0  0  0
  -14.3148  -22.3113   32.4251 C   0  0  0  0  0  0  0  0  0  0  0  0
  -14.4394  -22.3888   31.0555 C   0  0  0  0  0  0  0  0  0  0  0  0
  -14.8989  -23.5586   30.4988 O   0  0  0  0  0  0  0  0  0  0  0  0
  -11.6398  -16.9951   35.4273 N   0  0  0  0  0  0  0  0  0  0  0  0
  -11.3540  -15.5751   35.6831 C   0  0  2  0  0  0  0  0  0  0  0  0
  -12.7470  -14.9430   35.8645 C   0  0  0  0  0  0  0  0  0  0  0  0
  -12.9746  -13.7832   35.4966 O   0  0  0  0  0  0  0  0  0  0  0  0
  -10.5345  -14.9165   34.5808 C   0  0  0  0  0  0  0  0  0  0  0  0
  -10.6832  -13.4933   34.6388 O   0  0  0  0  0  0  0  0  0  0  0  0
  -13.7334  -15.7156   36.4465 N   0  0  0  0  0  0  0  0  0  0  0  0
  -14.7679  -15.0193   37.2270 C   0  0  2  0  0  0  0  0  0  0  0  0
  -14.9159  -15.8238   38.5246 C   0  0  0  0  0  0  0  0  0  0  0  0
  -13.9198  -16.0637   39.1887 O   0  0  0  0  0  0  0  0  0  0  0  0
  -16.1184  -14.9443   36.5022 C   0  0  0  0  0  0  0  0  0  0  0  0
  -16.3027  -15.9359   35.3478 C   0  0  0  0  0  0  0  0  0  0  0  0
  -17.6931  -15.9043   34.7060 C   0  0  0  0  0  0  0  0  0  0  0  0
  -18.0942  -17.0514   33.8507 N   0  0  0  0  0  0  0  0  0  0  0  0
  -17.3937  -17.7759   32.9694 C   0  0  0  0  0  0  0  0  0  0  0  0
  -17.5741  -17.7297   31.6560 N   0  0  0  0  0  4  0  0  0  0  0  0
  -16.5085  -18.6503   33.4584 N   0  0  0  0  0  0  0  0  0  0  0  0
  -18.5111  -15.7123   37.9393 C   0  0  0  0  0  0  0  0  0  0  0  0
  -16.1827  -16.2819   38.8037 N   0  0  0  0  0  0  0  0  0  0  0  0
  -19.7049  -15.5737   38.2120 O   0  0  0  0  0  0  0  0  0  0  0  0
  -17.3634  -15.4145   38.9527 C   0  0  1  0  0  0  0  0  0  0  0  0
  -16.8823  -13.9354   38.7220 C   0  0  0  0  0  0  0  0  0  0  0  0
  -15.7344  -12.2204   37.1510 C   0  0  0  0  0  0  0  0  0  0  0  0
  -14.3547  -11.9665   37.7040 C   0  0  0  0  0  0  0  0  0  0  0  0
  -16.2249  -13.6591   37.3529 C   0  0  0  0  0  0  0  0  0  0  0  0
  -17.9946  -15.4649   40.3530 C   0  0  0  0  0  0  0  0  0  0  0  0
  -18.1817  -15.9259   36.6075 N   0  0  0  0  0  0  0  0  0  0  0  0
  -17.7400  -17.2765   36.2473 C   0  0  2  0  0  0  0  0  0  0  0  0
  -16.4095  -17.1670   35.4423 C   0  0  0  0  0  0  0  0  0  0  0  0
  -15.3252  -17.0687   36.0193 O   0  0  0  0  0  0  0  0  0  0  0  0
  -18.8315  -18.0920   35.5270 C   0  0  0  0  0  0  0  0  0  0  0  0
  -19.9314  -17.1785   34.9375 C   0  0  0  0  0  0  0  0  0  0  0  0
  -19.5266  -15.7276   35.0102 C   0  0  0  0  0  0  0  0  0  0  0  0
  -19.7679  -15.0000   35.9685 O   0  0  0  0  0  0  0  0  0  0  0  0
  -18.7748  -15.2916   33.9426 N   0  0  0  0  0  0  0  0  0  0  0  0
  -16.5035  -17.2479   34.0523 N   0  0  0  0  0  0  0  0  0  0  0  0
  -15.3531  -17.5868   33.1799 C   0  0  2  0  0  0  0  0  0  0  0  0
  -14.4813  -18.6979   33.8540 C   0  0  0  0  0  0  0  0  0  0  0  0
  -14.9194  -19.3960   34.7721 O   0  0  0  0  0  0  0  0  0  0  0  0
  -14.5558  -16.3335   32.7616 C   0  0  0  0  0  0  0  0  0  0  0  0
  -13.1141  -16.5665   32.2434 C   0  0  1  0  0  0  0  0  0  0  0  0
  -12.8032  -18.0378   31.9923 C   0  0  0  0  0  0  0  0  0  0  0  0
  -12.9079  -15.7929   30.9268 C   0  0  0  0  0  0  0  0  0  0  0  0
  -13.1428  -18.7995   33.5273 N   0  0  0  0  0  0  0  0  0  0  0  0
  -12.2119  -18.7273   34.6456 C   0  0  2  0  0  0  0  0  0  0  0  0
  -11.4960  -17.3733   34.5764 C   0  0  0  0  0  0  0  0  0  0  0  0
  -11.5438  -16.6481   33.5848 O   0  0  0  0  0  0  0  0  0  0  0  0
  -11.2626  -19.9365   34.7210 C   0  0  0  0  0  0  0  0  0  0  0  0
   -9.7978  -19.5888   34.3864 C   0  0  1  0  0  0  0  0  0  0  0  0
   -9.6749  -18.3769   33.4706 C   0  0  0  0  0  0  0  0  0  0  0  0
   -8.9941  -19.3436   35.6590 C   0  0  0  0  0  0  0  0  0  0  0  0
   -9.0233  -16.1496   36.9651 C   0  0  0  0  0  0  0  0  0  0  0  0
  -10.8225  -17.0276   35.7328 N   0  0  0  0  0  0  0  0  0  0  0  0
   -8.3335  -15.3513   37.6050 O   0  0  0  0  0  0  0  0  0  0  0  0
  -10.2310  -15.7099   36.0389 C   0  0  1  0  0  0  0  0  0  0  0  0
  -11.2361  -14.7839   36.7943 C   0  0  0  0  0  0  0  0  0  0  0  0
  -12.9369  -13.0448   35.8749 C   0  0  0  0  0  0  0  0  0  0  0  0
  -13.1820  -12.3144   37.1525 C   0  0  0  0  0  0  0  0  0  0  0  0
  -12.5410  -14.5201   36.0221 C   0  0  0  0  0  0  0  0  0  0  0  0
   -9.6758  -14.9252   34.8289 C   0  0  0  0  0  0  0  0  0  0  0  0
   -8.9233  -17.5090   37.0953 N   0  0  0  0  0  0  0  0  0  0  0  0
   -9.8765  -18.4298   37.7157 C   0  0  2  0  0  0  0  0  0  0  0  0
   -9.3594  -18.8804   39.1260 C   0  0  0  0  0  0  0  0  0  0  0  0
   -8.1618  -19.0615   39.3537 O   0  0  0  0  0  0  0  0  0  0  0  0
  -10.1482  -19.6146   36.7532 C   0  0  0  0  0  0  0  0  0  0  0  0
   -8.9864  -20.5821   36.6020 C   0  0  0  0  0  0  0  0  0  0  0  0
   -8.2135  -20.6007   35.4303 C   0  0  0  0  0  0  0  0  0  0  0  0
   -8.6037  -21.4249   37.6572 C   0  0  0  0  0  0  0  0  0  0  0  0
   -7.0929  -21.4215   35.3267 C   0  0  0  0  0  0  0  0  0  0  0  0
   -7.4561  -22.2248   37.5625 C   0  0  0  0  0  0  0  0  0  0  0  0
   -6.7152  -22.2364   36.3842 C   0  0  0  0  0  0  0  0  0  0  0  0
  -10.2852  -18.9006   40.1708 N   0  0  0  0  0  0  0  0  0  0  0  0
   -9.8469  -19.2537   41.5428 C   0  0  2  0  0  0  0  0  0  0  0  0
  -11.0787  -19.2901   42.4858 C   0  0  0  0  0  0  0  0  0  0  0  0
  -11.6853  -20.3393   42.7033 O   0  0  0  0  0  0  0  0  0  0  0  0
   -8.7033  -18.3325   42.0294 C   0  0  0  0  0  0  0  0  0  0  0  0
   -9.0228  -16.8726   41.7960 C   0  0  0  0  0  0  0  0  0  0  0  0
   -9.8232  -16.0588   42.5754 C   0  0  0  0  0  0  0  0  0  0  0  0
   -8.5531  -16.0492   40.7256 C   0  0  0  0  0  0  0  0  0  0  0  0
   -9.7077  -14.7773   42.1343 N   0  0  0  0  0  0  0  0  0  0  0  0
   -8.9359  -14.7410   41.0047 C   0  0  0  0  0  0  0  0  0  0  0  0
   -7.8114  -16.3081   39.5495 C   0  0  0  0  0  0  0  0  0  0  0  0
   -8.5775  -13.6605   40.1954 C   0  0  0  0  0  0  0  0  0  0  0  0
   -7.5156  -15.2450   38.6943 C   0  0  0  0  0  0  0  0  0  0  0  0
   -7.8637  -13.9391   39.0302 C   0  0  0  0  0  0  0  0  0  0  0  0
  -11.3848  -18.1732   43.2104 N   0  0  0  0  0  0  0  0  0  0  0  0
  1  2  2  0
  1  3  1  0
  4  1  1  0
  5  4  1  0
  6  5  1  0
  5  8  1  1
  6  7  2  0
 13  6  1  0
  8  9  1  0
  9 10  1  0
 10 11  1  0
 11 12  1  0
 14 13  1  0
 15 14  1  0
 14 17  1  6
 15 16  2  0
 22 15  1  0
 17 18  1  0
 18 19  1  0
 19 20  1  0
 20 21  1  0
 23 22  1  0
 24 23  1  0
 23 26  1  1
 24 25  2  0
 33 24  1  0
 26 27  1  0
 27 28  1  0
 28 29  1  0
 29 30  1  0
 30 31  2  0
 30 32  1  0
 34 33  1  0
 35 34  1  0
 34 37  1  6
 35 36  2  0
 45 35  1  0
 37 38  1  0
 38 39  2  0
 38 40  1  0
 39 41  1  0
 40 42  2  0
 41 43  2  0
 42 43  1  0
 43 44  1  0
 46 45  1  0
 47 46  1  0
 46 49  1  6
 47 48  2  0
 51 47  1  0
 49 50  1  0
 52 51  1  0
 53 52  1  0
 52 55  1  6
 53 54  2  0
 63 53  1  0
 55 56  1  0
 56 57  1  0
 57 58  1  0
 58 59  1  0
 59 60  2  0
 59 61  1  0
 62 64  2  0
 62 65  1  0
 71 62  1  0
 65 63  1  0
 65 66  1  0
 65 70  1  1
 66 69  1  0
 67 68  1  0
 69 67  1  0
 68102  2  0
 72 71  1  0
 73 72  1  0
 72 75  1  6
 73 74  2  0
 80 73  1  0
 75 76  1  0
 76 77  1  0
 77 78  2  0
 77 79  1  0
 81 80  1  0
 82 81  1  0
 81 84  1  1
 82 83  2  0
 88 82  1  0
 84 85  1  0
 85 86  1  6
 85 87  1  0
 89 88  1  0
 90 89  1  0
 89 92  1  6
 90 91  2  0
 97 90  1  0
 92 93  1  0
 93 94  1  6
 93 95  1  0
 96 98  2  0
 99 96  1  0
 96105  1  0
 97 99  1  0
 99100  1  0
 99104  1  6
100103  1  0
102101  1  0
101103  1  0
105106  1  0
106107  1  0
106109  1  6
107108  2  0
107116  1  0
109110  1  0
110111  2  0
110112  1  0
111113  1  0
112114  2  0
113115  2  0
114115  1  0
116117  1  0
117118  1  0
117120  1  1
118119  2  0
118130  1  0
120121  1  0
121122  2  0
121123  1  0
122124  1  0
123125  2  0
123126  1  0
124125  1  0
125127  1  0
126128  2  0
127129  2  0
128129  1  0
M  CHG  4  12   1  21   1  31   1  60   1
M  END
$$$$
