
     RDKit          3D

130134  0  0  0  0  0  0  0  0999 V2000
  -19.5435  -31.5896   33.1259 C   0  0  0  0  0  0  0  0  0  0  0  0
  -19.8482  -32.7105   33.5369 O   0  0  0  0  0  0  0  0  0  0  0  0
  -18.3364  -31.3366   32.2605 C   0  0  0  0  0  0  0  0  0  0  0  0
  -20.3380  -30.4847   33.3441 N   0  0  0  0  0  0  0  0  0  0  0  0
  -19.9554  -29.1605   32.8617 C   0  0  2  0  0  0  0  0  0  0  0  0
  -18.9607  -28.6187   33.8978 C   0  0  0  0  0  0  0  0  0  0  0  0
  -18.7830  -29.1849   34.9785 O   0  0  0  0  0  0  0  0  0  0  0  0
  -21.1518  -28.1959   32.6895 C   0  0  0  0  0  0  0  0  0  0  0  0
  -21.3691  -27.7558   31.2317 C   0  0  0  0  0  0  0  0  0  0  0  0
  -22.7636  -27.2109   30.9027 C   0  0  0  0  0  0  0  0  0  0  0  0
  -22.8821  -26.8079   29.4432 C   0  0  0  0  0  0  0  0  0  0  0  0
  -24.2514  -26.3160   29.1632 N   0  0  0  0  0  4  0  0  0  0  0  0
  -18.2366  -27.5238   33.4622 N   0  0  0  0  0  0  0  0  0  0  0  0
  -18.5289  -26.1894   33.9975 C   0  0  2  0  0  0  0  0  0  0  0  0
  -17.6079  -25.1819   33.2929 C   0  0  0  0  0  0  0  0  0  0  0  0
  -17.6437  -23.9841   33.5544 O   0  0  0  0  0  0  0  0  0  0  0  0
  -18.4092  -26.2021   35.5271 C   0  0  0  0  0  0  0  0  0  0  0  0
  -18.5335  -24.8670   36.2861 C   0  0  0  0  0  0  0  0  0  0  0  0
  -18.3383  -24.8923   37.8025 C   0  0  0  0  0  0  0  0  0  0  0  0
  -18.7815  -26.1858   38.4670 C   0  0  0  0  0  0  0  0  0  0  0  0
  -18.5264  -26.0905   39.9246 N   0  0  0  0  0  4  0  0  0  0  0  0
  -16.7809  -25.7140   32.3368 N   0  0  0  0  0  0  0  0  0  0  0  0
  -15.9708  -24.8535   31.4875 C   0  0  2  0  0  0  0  0  0  0  0  0
  -15.0175  -24.0160   32.3694 C   0  0  0  0  0  0  0  0  0  0  0  0
  -14.3589  -24.4980   33.2893 O   0  0  0  0  0  0  0  0  0  0  0  0
  -16.8337  -23.8843   30.6633 C   0  0  0  0  0  0  0  0  0  0  0  0
  -17.0376  -24.3648   29.2125 C   0  0  0  0  0  0  0  0  0  0  0  0
  -16.8911  -25.8610   28.9704 C   0  0  0  0  0  0  0  0  0  0  0  0
  -18.1257  -26.4841   28.4717 N   0  0  0  0  0  0  0  0  0  0  0  0
  -18.2384  -26.9803   27.2109 C   0  0  0  0  0  0  0  0  0  0  0  0
  -19.3328  -27.6210   26.7908 N   0  0  0  0  0  4  0  0  0  0  0  0
  -17.2619  -26.7415   26.3250 N   0  0  0  0  0  0  0  0  0  0  0  0
  -14.9697  -22.6802   32.0158 N   0  0  0  0  0  0  0  0  0  0  0  0
  -14.1658  -21.7194   32.7831 C   0  0  2  0  0  0  0  0  0  0  0  0
  -15.0656  -21.4778   34.0102 C   0  0  0  0  0  0  0  0  0  0  0  0
  -16.2131  -21.9042   34.0989 O   0  0  0  0  0  0  0  0  0  0  0  0
  -13.8559  -20.4525   31.9629 C   0  0  0  0  0  0  0  0  0  0  0  0
  -12.7033  -19.6565   32.5345 C   0  0  0  0  0  0  0  0  0  0  0  0
  -12.1157  -20.0246   33.7530 C   0  0  0  0  0  0  0  0  0  0  0  0
  -12.1818  -18.5429   31.8494 C   0  0  0  0  0  0  0  0  0  0  0  0
  -11.0146  -19.3273   34.2515 C   0  0  0  0  0  0  0  0  0  0  0  0
  -11.0921  -17.8408   32.3614 C   0  0  0  0  0  0  0  0  0  0  0  0
  -10.5006  -18.2469   33.5373 C   0  0  0  0  0  0  0  0  0  0  0  0
   -9.4019  -17.5602   33.9959 O   0  0  0  0  0  0  0  0  0  0  0  0
  -14.5807  -20.5353   34.8883 N   0  0  0  0  0  0  0  0  0  0  0  0
  -15.3022  -20.0323   36.0673 C   0  0  2  0  0  0  0  0  0  0  0  0
  -15.7669  -18.6254   35.6458 C   0  0  0  0  0  0  0  0  0  0  0  0
  -16.4126  -18.4518   34.6041 O   0  0  0  0  0  0  0  0  0  0  0  0
  -14.4588  -20.0315   37.3357 C   0  0  0  0  0  0  0  0  0  0  0  0
  -13.8730  -21.3223   37.5396 O   0  0  0  0  0  0  0  0  0  0  0  0
  -15.4431  -17.5664   36.4718 N   0  0  0  0  0  0  0  0  0  0  0  0
  -15.8693  -16.2229   36.0505 C   0  0  2  0  0  0  0  0  0  0  0  0
  -15.1081  -15.9385   34.7496 C   0  0  0  0  0  0  0  0  0  0  0  0
  -13.9278  -16.2422   34.6763 O   0  0  0  0  0  0  0  0  0  0  0  0
  -15.5516  -15.1388   37.0891 C   0  0  0  0  0  0  0  0  0  0  0  0
  -16.4719  -13.9131   37.0648 C   0  0  0  0  0  0  0  0  0  0  0  0
  -16.3272  -12.9923   38.2803 C   0  0  0  0  0  0  0  0  0  0  0  0
  -14.9571  -12.6994   38.7758 N   0  0  0  0  0  0  0  0  0  0  0  0
  -14.2715  -11.5509   38.8325 C   0  0  0  0  0  0  0  0  0  0  0  0
  -14.4671  -10.5251   38.0145 N   0  0  0  0  0  4  0  0  0  0  0  0
  -13.2813  -11.4700   39.7271 N   0  0  0  0  0  0  0  0  0  0  0  0
  -18.2360  -15.1044   34.5581 C   0  0  0  0  0  0  0  0  0  0  0  0
  -15.8189  -15.2821   33.7715 N   0  0  0  0  0  0  0  0  0  0  0  0
  -19.3708  -14.6916   34.3120 O   0  0  0  0  0  0  0  0  0  0  0  0
  -17.2311  -15.5508   33.4519 C   0  0  1  0  0  0  0  0  0  0  0  0
  -17.3745  -17.1052   33.2630 C   0  0  0  0  0  0  0  0  0  0  0  0
  -17.0802  -19.4755   34.2736 C   0  0  0  0  0  0  0  0  0  0  0  0
  -15.8738  -20.0931   33.6123 C   0  0  0  0  0  0  0  0  0  0  0  0
  -16.9627  -17.9608   34.4801 C   0  0  0  0  0  0  0  0  0  0  0  0
  -17.7039  -14.8969   32.1440 C   0  0  0  0  0  0  0  0  0  0  0  0
  -17.9345  -15.3896   35.8830 N   0  0  0  0  0  0  0  0  0  0  0  0
  -17.0289  -14.4613   36.5665 C   0  0  2  0  0  0  0  0  0  0  0  0
  -15.8977  -15.2847   37.2540 C   0  0  0  0  0  0  0  0  0  0  0  0
  -14.9016  -15.6435   36.6238 O   0  0  0  0  0  0  0  0  0  0  0  0
  -17.7636  -13.5029   37.5241 C   0  0  0  0  0  0  0  0  0  0  0  0
  -18.4709  -14.2685   38.6667 C   0  0  0  0  0  0  0  0  0  0  0  0
  -18.6494  -15.7239   38.3138 C   0  0  0  0  0  0  0  0  0  0  0  0
  -19.5000  -16.4486   38.8211 O   0  0  0  0  0  0  0  0  0  0  0  0
  -17.8332  -16.1682   37.2983 N   0  0  0  0  0  0  0  0  0  0  0  0
  -16.0407  -15.5377   38.6189 N   0  0  0  0  0  0  0  0  0  0  0  0
  -14.9063  -15.9123   39.4976 C   0  0  2  0  0  0  0  0  0  0  0  0
  -13.6322  -15.0942   39.1020 C   0  0  0  0  0  0  0  0  0  0  0  0
  -13.7076  -14.0683   38.4209 O   0  0  0  0  0  0  0  0  0  0  0  0
  -14.6834  -17.4387   39.5348 C   0  0  0  0  0  0  0  0  0  0  0  0
  -13.5240  -17.9515   40.4261 C   0  0  1  0  0  0  0  0  0  0  0  0
  -13.6200  -17.4611   41.8665 C   0  0  0  0  0  0  0  0  0  0  0  0
  -13.5224  -19.4924   40.4345 C   0  0  0  0  0  0  0  0  0  0  0  0
  -12.3819  -15.6099   39.3840 N   0  0  0  0  0  0  0  0  0  0  0  0
  -11.4826  -15.7454   38.2459 C   0  0  2  0  0  0  0  0  0  0  0  0
  -11.3514  -17.2386   37.9237 C   0  0  0  0  0  0  0  0  0  0  0  0
  -11.7383  -18.1186   38.6903 O   0  0  0  0  0  0  0  0  0  0  0  0
  -10.1371  -15.0263   38.4496 C   0  0  0  0  0  0  0  0  0  0  0  0
  -10.0198  -13.7077   37.6583 C   0  0  1  0  0  0  0  0  0  0  0  0
  -10.6227  -13.8035   36.2620 C   0  0  0  0  0  0  0  0  0  0  0  0
  -10.6795  -12.5601   38.4155 C   0  0  0  0  0  0  0  0  0  0  0  0
   -9.3982  -18.6616   35.1893 C   0  0  0  0  0  0  0  0  0  0  0  0
  -10.7923  -17.5058   36.6883 N   0  0  0  0  0  0  0  0  0  0  0  0
   -9.1978  -19.2256   34.1103 O   0  0  0  0  0  0  0  0  0  0  0  0
  -10.7379  -18.8211   36.0197 C   0  0  1  0  0  0  0  0  0  0  0  0
  -11.9729  -19.0523   35.0925 C   0  0  0  0  0  0  0  0  0  0  0  0
  -14.2679  -20.1666   35.5958 C   0  0  0  0  0  0  0  0  0  0  0  0
  -14.6950  -20.3850   34.1831 C   0  0  0  0  0  0  0  0  0  0  0  0
  -13.3243  -18.9784   35.8252 C   0  0  0  0  0  0  0  0  0  0  0  0
  -10.6066  -20.0448   36.9540 C   0  0  0  0  0  0  0  0  0  0  0  0
   -8.5553  -17.7216   35.7192 N   0  0  0  0  0  0  0  0  0  0  0  0
   -8.7860  -16.8470   36.8694 C   0  0  2  0  0  0  0  0  0  0  0  0
   -7.4393  -16.5753   37.6258 C   0  0  0  0  0  0  0  0  0  0  0  0
   -7.0820  -15.4360   37.9316 O   0  0  0  0  0  0  0  0  0  0  0  0
   -9.8848  -17.4639   37.7727 C   0  0  0  0  0  0  0  0  0  0  0  0
  -10.3892  -18.8213   37.3126 C   0  0  0  0  0  0  0  0  0  0  0  0
   -9.6727  -19.9922   37.6061 C   0  0  0  0  0  0  0  0  0  0  0  0
  -11.6220  -18.9508   36.6543 C   0  0  0  0  0  0  0  0  0  0  0  0
  -10.1796  -21.2442   37.2657 C   0  0  0  0  0  0  0  0  0  0  0  0
  -12.1453  -20.2139   36.3431 C   0  0  0  0  0  0  0  0  0  0  0  0
  -11.4083  -21.3590   36.6313 C   0  0  0  0  0  0  0  0  0  0  0  0
   -6.7369  -17.6843   38.1009 N   0  0  0  0  0  0  0  0  0  0  0  0
   -5.6794  -17.5086   39.1255 C   0  0  2  0  0  0  0  0  0  0  0  0
   -5.6671  -18.7383   40.0720 C   0  0  0  0  0  0  0  0  0  0  0  0
   -6.3966  -18.7888   41.0625 O   0  0  0  0  0  0  0  0  0  0  0  0
   -5.8124  -16.1500   39.8533 C   0  0  0  0  0  0  0  0  0  0  0  0
   -5.6942  -14.9870   38.8937 C   0  0  0  0  0  0  0  0  0  0  0  0
   -5.3979  -15.0451   37.5448 C   0  0  0  0  0  0  0  0  0  0  0  0
   -5.8720  -13.6007   39.1952 C   0  0  0  0  0  0  0  0  0  0  0  0
   -5.5675  -13.8084   37.0045 N   0  0  0  0  0  0  0  0  0  0  0  0
   -5.8589  -12.9051   37.9904 C   0  0  0  0  0  0  0  0  0  0  0  0
   -6.0662  -12.8815   40.3975 C   0  0  0  0  0  0  0  0  0  0  0  0
   -6.0777  -11.5278   37.9114 C   0  0  0  0  0  0  0  0  0  0  0  0
   -6.2078  -11.4941   40.3349 C   0  0  0  0  0  0  0  0  0  0  0  0
   -6.2470  -10.8341   39.1092 C   0  0  0  0  0  0  0  0  0  0  0  0
   -4.9576  -19.8455   39.7016 N   0  0  0  0  0  0  0  0  0  0  0  0
  1  2  2  0
  1  3  1  0
  4  1  1  0
  5  4  1  0
  6  5  1  0
  5  8  1  1
  6  7  2  0
 13  6  1  0
  8  9  1  0
  9 10  1  0
 10 11  1  0
 11 12  1  0
 14 13  1  0
 15 14  1  0
 14 17  1  1
 15 16  2  0
 22 15  1  0
 17 18  1  0
 18 19  1  0
 19 20  1  0
 20 21  1  0
 23 22  1  0
 24 23  1  0
 23 26  1  1
 24 25  2  0
 33 24  1  0
 26 27  1  0
 27 28  1  0
 28 29  1  0
 29 30  1  0
 30 31  2  0
 30 32  1  0
 34 33  1  0
 35 34  1  0
 34 37  1  6
 35 36  2  0
 45 35  1  0
 37 38  1  0
 38 39  2  0
 38 40  1  0
 39 41  1  0
 40 42  2  0
 41 43  2  0
 42 43  1  0
 43 44  1  0
 46 45  1  0
 47 46  1  0
 46 49  1  1
 47 48  2  0
 51 47  1  0
 49 50  1  0
 52 51  1  0
 53 52  1  0
 52 55  1  1
 53 54  2  0
 63 53  1  0
 55 56  1  0
 56 57  1  0
 57 58  1  0
 58 59  1  0
 59 60  2  0
 59 61  1  0
 62 64  2  0
 62 65  1  0
 71 62  1  0
 65 63  1  0
 65 66  1  0
 65 70  1  6
 66 69  1  0
 67 68  1  0
 69 67  1  0
 68102  2  0
 72 71  1  0
 73 72  1  0
 72 75  1  1
 73 74  2  0
 80 73  1  0
 75 76  1  0
 76 77  1  0
 77 78  2  0
 77 79  1  0
 81 80  1  0
 82 81  1  0
 81 84  1  6
 82 83  2  0
 88 82  1  0
 84 85  1  0
 85 86  1  1
 85 87  1  0
 89 88  1  0
 90 89  1  0
 89 92  1  1
 90 91  2  0
 97 90  1  0
 92 93  1  0
 93 94  1  6
 93 95  1  0
 96 98  2  0
 99 96  1  0
 96105  1  0
 97 99  1  0
 99100  1  0
 99104  1  1
100103  1  0
102101  1  0
101103  1  0
105106  1  0
106107  1  0
106109  1  1
107108  2  0
107116  1  0
109110  1  0
110111  2  0
110112  1  0
111113  1  0
112114  2  0
113115  2  0
114115  1  0
116117  1  0
117118  1  0
117120  1  1
118119  2  0
118130  1  0
120121  1  0
121122  2  0
121123  1  0
122124  1  0
123125  2  0
123126  1  0
124125  1  0
125127  1  0
126128  2  0
127129  2  0
128129  1  0
M  CHG  4  12   1  21   1  31   1  60   1
M  END
$$$$
