
     RDKit          3D

130134  0  0  0  0  0  0  0  0999 V2000
  -16.2693  -33.0519   31.2122 C   0  0  0  0  0  0  0  0  0  0  0  0
  -17.4479  -32.7187   31.3477 O   0  0  0  0  0  0  0  0  0  0  0  0
  -15.8235  -34.0946   30.2204 C   0  0  0  0  0  0  0  0  0  0  0  0
  -15.2454  -32.4271   31.8912 N   0  0  0  0  0  0  0  0  0  0  0  0
  -15.4910  -31.6654   33.1127 C   0  0  2  0  0  0  0  0  0  0  0  0
  -14.8634  -30.2859   32.8685 C   0  0  0  0  0  0  0  0  0  0  0  0
  -13.6412  -30.1347   32.8115 O   0  0  0  0  0  0  0  0  0  0  0  0
  -14.8990  -32.3234   34.3809 C   0  0  0  0  0  0  0  0  0  0  0  0
  -15.3943  -31.6763   35.6856 C   0  0  0  0  0  0  0  0  0  0  0  0
  -15.9994  -30.2750   35.5446 C   0  0  0  0  0  0  0  0  0  0  0  0
  -16.4883  -29.7347   36.8771 C   0  0  0  0  0  0  0  0  0  0  0  0
  -17.7562  -28.9918   36.6878 N   0  0  0  0  0  4  0  0  0  0  0  0
  -15.7858  -29.2842   32.6262 N   0  0  0  0  0  0  0  0  0  0  0  0
  -15.3642  -27.8790   32.6371 C   0  0  2  0  0  0  0  0  0  0  0  0
  -15.8419  -27.2491   33.9542 C   0  0  0  0  0  0  0  0  0  0  0  0
  -16.1456  -27.9360   34.9239 O   0  0  0  0  0  0  0  0  0  0  0  0
  -15.8682  -27.1722   31.3720 C   0  0  0  0  0  0  0  0  0  0  0  0
  -15.2782  -27.5895   30.0113 C   0  0  0  0  0  0  0  0  0  0  0  0
  -14.3632  -28.8142   29.9803 C   0  0  0  0  0  0  0  0  0  0  0  0
  -14.4428  -29.6201   28.6936 C   0  0  0  0  0  0  0  0  0  0  0  0
  -13.4186  -30.6916   28.7323 N   0  0  0  0  0  4  0  0  0  0  0  0
  -15.9358  -25.8807   33.9485 N   0  0  0  0  0  0  0  0  0  0  0  0
  -16.7610  -25.1849   34.9246 C   0  0  2  0  0  0  0  0  0  0  0  0
  -16.6805  -23.6629   34.6700 C   0  0  0  0  0  0  0  0  0  0  0  0
  -15.9307  -22.9173   35.2978 O   0  0  0  0  0  0  0  0  0  0  0  0
  -16.2956  -25.4534   36.3649 C   0  0  0  0  0  0  0  0  0  0  0  0
  -14.9237  -24.8187   36.6690 C   0  0  0  0  0  0  0  0  0  0  0  0
  -14.9322  -23.5970   37.5778 C   0  0  0  0  0  0  0  0  0  0  0  0
  -14.9220  -23.9456   39.0060 N   0  0  0  0  0  0  0  0  0  0  0  0
  -14.0536  -24.8492   39.5335 C   0  0  0  0  0  0  0  0  0  0  0  0
  -12.7292  -24.7165   39.4210 N   0  0  0  0  0  4  0  0  0  0  0  0
  -14.5310  -25.8596   40.2728 N   0  0  0  0  0  0  0  0  0  0  0  0
  -17.5222  -23.2266   33.6636 N   0  0  0  0  0  0  0  0  0  0  0  0
  -17.6419  -21.7989   33.3388 C   0  0  2  0  0  0  0  0  0  0  0  0
  -18.2402  -21.2370   34.6427 C   0  0  0  0  0  0  0  0  0  0  0  0
  -19.1868  -21.7547   35.2277 O   0  0  0  0  0  0  0  0  0  0  0  0
  -18.5135  -21.5700   32.0891 C   0  0  0  0  0  0  0  0  0  0  0  0
  -17.8855  -22.1287   30.8312 C   0  0  0  0  0  0  0  0  0  0  0  0
  -17.5165  -21.2790   29.7790 C   0  0  0  0  0  0  0  0  0  0  0  0
  -17.6393  -23.5080   30.6955 C   0  0  0  0  0  0  0  0  0  0  0  0
  -16.8831  -21.7859   28.6435 C   0  0  0  0  0  0  0  0  0  0  0  0
  -17.0212  -24.0095   29.5515 C   0  0  0  0  0  0  0  0  0  0  0  0
  -16.6250  -23.1519   28.5490 C   0  0  0  0  0  0  0  0  0  0  0  0
  -15.9805  -23.6709   27.4515 O   0  0  0  0  0  0  0  0  0  0  0  0
  -17.8027  -19.9724   34.9648 N   0  0  0  0  0  0  0  0  0  0  0  0
  -18.2762  -19.1842   36.1128 C   0  0  2  0  0  0  0  0  0  0  0  0
  -17.0792  -18.2791   36.4607 C   0  0  0  0  0  0  0  0  0  0  0  0
  -16.6613  -17.4361   35.6564 O   0  0  0  0  0  0  0  0  0  0  0  0
  -18.7410  -20.0416   37.2829 C   0  0  0  0  0  0  0  0  0  0  0  0
  -18.4143  -21.4160   37.0478 O   0  0  0  0  0  0  0  0  0  0  0  0
  -16.4924  -18.4369   37.7014 N   0  0  0  0  0  0  0  0  0  0  0  0
  -16.7793  -17.4170   38.7220 C   0  0  2  0  0  0  0  0  0  0  0  0
  -15.4418  -16.7161   38.9912 C   0  0  0  0  0  0  0  0  0  0  0  0
  -14.4180  -17.3811   39.0064 O   0  0  0  0  0  0  0  0  0  0  0  0
  -17.3299  -18.0101   40.0258 C   0  0  0  0  0  0  0  0  0  0  0  0
  -18.4429  -17.1999   40.7000 C   0  0  0  0  0  0  0  0  0  0  0  0
  -19.2895  -17.9991   41.6953 C   0  0  0  0  0  0  0  0  0  0  0  0
  -19.9159  -19.2616   41.2241 N   0  0  0  0  0  0  0  0  0  0  0  0
  -21.1524  -19.7451   41.3959 C   0  0  0  0  0  0  0  0  0  0  0  0
  -21.7780  -19.7931   42.5647 N   0  0  0  0  0  4  0  0  0  0  0  0
  -21.7585  -20.2758   40.3289 N   0  0  0  0  0  0  0  0  0  0  0  0
  -17.7876  -14.2251   39.1257 C   0  0  0  0  0  0  0  0  0  0  0  0
  -15.5165  -15.3712   39.2715 N   0  0  0  0  0  0  0  0  0  0  0  0
  -18.9646  -14.2226   39.4909 O   0  0  0  0  0  0  0  0  0  0  0  0
  -16.6174  -14.7405   40.0189 C   0  0  1  0  0  0  0  0  0  0  0  0
  -16.0102  -13.5081   40.7838 C   0  0  0  0  0  0  0  0  0  0  0  0
  -14.7197  -11.2622   40.6530 C   0  0  0  0  0  0  0  0  0  0  0  0
  -13.3225  -11.5234   41.1568 C   0  0  0  0  0  0  0  0  0  0  0  0
  -15.3327  -12.4446   39.8934 C   0  0  0  0  0  0  0  0  0  0  0  0
  -17.2491  -15.6563   41.0791 C   0  0  0  0  0  0  0  0  0  0  0  0
  -17.4794  -13.5332   37.9621 N   0  0  0  0  0  0  0  0  0  0  0  0
  -17.1568  -14.3408   36.7820 C   0  0  2  0  0  0  0  0  0  0  0  0
  -15.8226  -13.8165   36.1693 C   0  0  0  0  0  0  0  0  0  0  0  0
  -14.7333  -14.1913   36.6065 O   0  0  0  0  0  0  0  0  0  0  0  0
  -18.3157  -14.4107   35.7683 C   0  0  0  0  0  0  0  0  0  0  0  0
  -18.2199  -13.2844   34.7130 C   0  0  0  0  0  0  0  0  0  0  0  0
  -17.2916  -12.1886   35.1733 C   0  0  0  0  0  0  0  0  0  0  0  0
  -16.1476  -12.0435   34.7534 O   0  0  0  0  0  0  0  0  0  0  0  0
  -17.8595  -11.2916   36.0495 N   0  0  0  0  0  0  0  0  0  0  0  0
  -15.9248  -12.9591   35.0730 N   0  0  0  0  0  0  0  0  0  0  0  0
  -14.8090  -12.7159   34.1268 C   0  0  2  0  0  0  0  0  0  0  0  0
  -14.0360  -14.0501   33.8590 C   0  0  0  0  0  0  0  0  0  0  0  0
  -14.5320  -15.1490   34.1208 O   0  0  0  0  0  0  0  0  0  0  0  0
  -13.9065  -11.5508   34.5844 C   0  0  0  0  0  0  0  0  0  0  0  0
  -12.9899  -10.9161   33.5081 C   0  0  1  0  0  0  0  0  0  0  0  0
  -13.7561  -10.4474   32.2761 C   0  0  0  0  0  0  0  0  0  0  0  0
  -12.2480   -9.7072   34.1102 C   0  0  0  0  0  0  0  0  0  0  0  0
  -12.7117  -13.9987   33.4688 N   0  0  0  0  0  0  0  0  0  0  0  0
  -11.7769  -14.7385   34.3063 C   0  0  2  0  0  0  0  0  0  0  0  0
  -10.9464  -13.7214   35.0979 C   0  0  0  0  0  0  0  0  0  0  0  0
  -10.9322  -12.5224   34.8263 O   0  0  0  0  0  0  0  0  0  0  0  0
  -10.9359  -15.7586   33.5181 C   0  0  0  0  0  0  0  0  0  0  0  0
  -11.2411  -15.7683   32.0064 C   0  0  1  0  0  0  0  0  0  0  0  0
  -12.3613  -16.7336   31.6382 C   0  0  0  0  0  0  0  0  0  0  0  0
  -11.5986  -14.3693   31.5161 C   0  0  0  0  0  0  0  0  0  0  0  0
   -8.3745  -14.5287   37.5577 C   0  0  0  0  0  0  0  0  0  0  0  0
  -10.2442  -14.2638   36.1576 N   0  0  0  0  0  0  0  0  0  0  0  0
   -7.5395  -14.3300   38.4442 O   0  0  0  0  0  0  0  0  0  0  0  0
   -9.5405  -13.5122   37.2158 C   0  0  1  0  0  0  0  0  0  0  0  0
  -10.4607  -13.2466   38.4491 C   0  0  0  0  0  0  0  0  0  0  0  0
  -12.0054  -11.2258   38.9900 C   0  0  0  0  0  0  0  0  0  0  0  0
  -12.1849  -11.4991   40.4456 C   0  0  0  0  0  0  0  0  0  0  0  0
  -11.7387  -12.4572   38.1139 C   0  0  0  0  0  0  0  0  0  0  0  0
   -8.9206  -12.1643   36.7836 C   0  0  0  0  0  0  0  0  0  0  0  0
   -8.4820  -15.7085   36.8710 N   0  0  0  0  0  0  0  0  0  0  0  0
   -9.3258  -16.0064   35.7132 C   0  0  2  0  0  0  0  0  0  0  0  0
  -10.7260  -16.5354   36.1814 C   0  0  0  0  0  0  0  0  0  0  0  0
  -11.7736  -16.1686   35.6456 O   0  0  0  0  0  0  0  0  0  0  0  0
   -8.5808  -16.9884   34.7727 C   0  0  0  0  0  0  0  0  0  0  0  0
   -7.3568  -17.6444   35.3894 C   0  0  0  0  0  0  0  0  0  0  0  0
   -6.6141  -18.5970   34.6742 C   0  0  0  0  0  0  0  0  0  0  0  0
   -6.8887  -17.2586   36.6551 C   0  0  0  0  0  0  0  0  0  0  0  0
   -5.4405  -19.1307   35.2018 C   0  0  0  0  0  0  0  0  0  0  0  0
   -5.6894  -17.7723   37.1688 C   0  0  0  0  0  0  0  0  0  0  0  0
   -4.9792  -18.7269   36.4465 C   0  0  0  0  0  0  0  0  0  0  0  0
  -10.7388  -17.5745   37.1136 N   0  0  0  0  0  0  0  0  0  0  0  0
  -11.6095  -18.7550   36.8958 C   0  0  2  0  0  0  0  0  0  0  0  0
  -12.8515  -18.6592   37.8213 C   0  0  0  0  0  0  0  0  0  0  0  0
  -13.9235  -18.2172   37.4073 O   0  0  0  0  0  0  0  0  0  0  0  0
  -10.8189  -20.0777   37.0311 C   0  0  0  0  0  0  0  0  0  0  0  0
  -11.7365  -21.2801   37.0382 C   0  0  0  0  0  0  0  0  0  0  0  0
  -11.9614  -22.1517   38.0871 C   0  0  0  0  0  0  0  0  0  0  0  0
  -12.5546  -21.7449   35.9616 C   0  0  0  0  0  0  0  0  0  0  0  0
  -12.9858  -22.9828   37.7552 N   0  0  0  0  0  0  0  0  0  0  0  0
  -13.3693  -22.7560   36.4611 C   0  0  0  0  0  0  0  0  0  0  0  0
  -12.6843  -21.3709   34.6037 C   0  0  0  0  0  0  0  0  0  0  0  0
  -14.3472  -23.3881   35.6897 C   0  0  0  0  0  0  0  0  0  0  0  0
  -13.6051  -22.0511   33.8047 C   0  0  0  0  0  0  0  0  0  0  0  0
  -14.4455  -23.0193   34.3484 C   0  0  0  0  0  0  0  0  0  0  0  0
  -12.7926  -19.2301   39.0610 N   0  0  0  0  0  0  0  0  0  0  0  0
  1  2  2  0
  1  3  1  0
  4  1  1  0
  5  4  1  0
  6  5  1  0
  5  8  1  1
  6  7  2  0
 13  6  1  0
  8  9  1  0
  9 10  1  0
 10 11  1  0
 11 12  1  0
 14 13  1  0
 15 14  1  0
 14 17  1  6
 15 16  2  0
 22 15  1  0
 17 18  1  0
 18 19  1  0
 19 20  1  0
 20 21  1  0
 23 22  1  0
 24 23  1  0
 23 26  1  1
 24 25  2  0
 33 24  1  0
 26 27  1  0
 27 28  1  0
 28 29  1  0
 29 30  1  0
 30 31  2  0
 30 32  1  0
 34 33  1  0
 35 34  1  0
 34 37  1  6
 35 36  2  0
 45 35  1  0
 37 38  1  0
 38 39  2  0
 38 40  1  0
 39 41  1  0
 40 42  2  0
 41 43  2  0
 42 43  1  0
 43 44  1  0
 46 45  1  0
 47 46  1  0
 46 49  1  1
 47 48  2  0
 51 47  1  0
 49 50  1  0
 52 51  1  0
 53 52  1  0
 52 55  1  1
 53 54  2  0
 63 53  1  0
 55 56  1  0
 56 57  1  0
 57 58  1  0
 58 59  1  0
 59 60  2  0
 59 61  1  0
 62 64  2  0
 62 65  1  0
 71 62  1  0
 65 63  1  0
 65 66  1  0
 65 70  1  1
 66 69  1  0
 67 68  1  0
 69 67  1  0
 68102  2  0
 72 71  1  0
 73 72  1  0
 72 75  1  6
 73 74  2  0
 80 73  1  0
 75 76  1  0
 76 77  1  0
 77 78  2  0
 77 79  1  0
 81 80  1  0
 82 81  1  0
 81 84  1  1
 82 83  2  0
 88 82  1  0
 84 85  1  0
 85 86  1  6
 85 87  1  0
 89 88  1  0
 90 89  1  0
 89 92  1  6
 90 91  2  0
 97 90  1  0
 92 93  1  0
 93 94  1  1
 93 95  1  0
 96 98  2  0
 99 96  1  0
 96105  1  0
 97 99  1  0
 99100  1  0
 99104  1  6
100103  1  0
102101  1  0
101103  1  0
105106  1  0
106107  1  0
106109  1  6
107108  2  0
107116  1  0
109110  1  0
110111  2  0
110112  1  0
111113  1  0
112114  2  0
113115  2  0
114115  1  0
116117  1  0
117118  1  0
117120  1  1
118119  2  0
118130  1  0
120121  1  0
121122  2  0
121123  1  0
122124  1  0
123125  2  0
123126  1  0
124125  1  0
125127  1  0
126128  2  0
127129  2  0
128129  1  0
M  CHG  4  12   1  21   1  31   1  60   1
M  END
$$$$
