
     RDKit          3D

130134  0  0  0  0  0  0  0  0999 V2000
  -16.6245  -30.4790   33.9175 C   0  0  0  0  0  0  0  0  0  0  0  0
  -16.4416  -31.6887   34.0642 O   0  0  0  0  0  0  0  0  0  0  0  0
  -17.9853  -29.8401   34.0171 C   0  0  0  0  0  0  0  0  0  0  0  0
  -15.5829  -29.5929   33.7452 N   0  0  0  0  0  0  0  0  0  0  0  0
  -15.8117  -28.1540   33.6457 C   0  0  2  0  0  0  0  0  0  0  0  0
  -16.7635  -27.9719   32.4552 C   0  0  0  0  0  0  0  0  0  0  0  0
  -16.9693  -28.8819   31.6492 O   0  0  0  0  0  0  0  0  0  0  0  0
  -14.5156  -27.3345   33.4455 C   0  0  0  0  0  0  0  0  0  0  0  0
  -13.4441  -28.0851   32.6364 C   0  0  0  0  0  0  0  0  0  0  0  0
  -13.6503  -29.5982   32.5033 C   0  0  0  0  0  0  0  0  0  0  0  0
  -14.6100  -29.9400   31.3769 C   0  0  0  0  0  0  0  0  0  0  0  0
  -13.9588  -30.8651   30.4201 N   0  0  0  0  0  4  0  0  0  0  0  0
  -17.4202  -26.7548   32.4422 N   0  0  0  0  0  0  0  0  0  0  0  0
  -17.7452  -26.1088   31.1656 C   0  0  2  0  0  0  0  0  0  0  0  0
  -16.8571  -24.8635   31.0228 C   0  0  0  0  0  0  0  0  0  0  0  0
  -15.8170  -24.8851   30.3732 O   0  0  0  0  0  0  0  0  0  0  0  0
  -19.2520  -25.8301   31.0895 C   0  0  0  0  0  0  0  0  0  0  0  0
  -20.0288  -26.3164   29.8509 C   0  0  0  0  0  0  0  0  0  0  0  0
  -20.3758  -25.2817   28.7798 C   0  0  0  0  0  0  0  0  0  0  0  0
  -21.7754  -24.7011   28.9036 C   0  0  0  0  0  0  0  0  0  0  0  0
  -22.6912  -25.7543   29.4043 N   0  0  0  0  0  4  0  0  0  0  0  0
  -17.2934  -23.7528   31.6990 N   0  0  0  0  0  0  0  0  0  0  0  0
  -16.3833  -22.6585   32.0029 C   0  0  2  0  0  0  0  0  0  0  0  0
  -15.5326  -23.0292   33.2385 C   0  0  0  0  0  0  0  0  0  0  0  0
  -15.8622  -23.8996   34.0423 O   0  0  0  0  0  0  0  0  0  0  0  0
  -17.1369  -21.3556   32.3155 C   0  0  0  0  0  0  0  0  0  0  0  0
  -18.6471  -21.4636   32.0239 C   0  0  0  0  0  0  0  0  0  0  0  0
  -19.4784  -22.2284   33.0451 C   0  0  0  0  0  0  0  0  0  0  0  0
  -19.0804  -21.9488   34.4324 N   0  0  0  0  0  0  0  0  0  0  0  0
  -19.7153  -22.4984   35.5018 C   0  0  0  0  0  0  0  0  0  0  0  0
  -20.7098  -23.3799   35.3661 N   0  0  0  0  0  4  0  0  0  0  0  0
  -19.2731  -22.2235   36.7364 N   0  0  0  0  0  0  0  0  0  0  0  0
  -14.3643  -22.2973   33.3436 N   0  0  0  0  0  0  0  0  0  0  0  0
  -13.9326  -21.7359   34.6307 C   0  0  2  0  0  0  0  0  0  0  0  0
  -13.6226  -20.2780   34.2409 C   0  0  0  0  0  0  0  0  0  0  0  0
  -13.1893  -19.9525   33.1396 O   0  0  0  0  0  0  0  0  0  0  0  0
  -12.7331  -22.5065   35.2148 C   0  0  0  0  0  0  0  0  0  0  0  0
  -12.8513  -24.0021   35.0198 C   0  0  0  0  0  0  0  0  0  0  0  0
  -13.5716  -24.7867   35.9315 C   0  0  0  0  0  0  0  0  0  0  0  0
  -12.2598  -24.6371   33.9115 C   0  0  0  0  0  0  0  0  0  0  0  0
  -13.7314  -26.1568   35.7206 C   0  0  0  0  0  0  0  0  0  0  0  0
  -12.4096  -26.0089   33.7159 C   0  0  0  0  0  0  0  0  0  0  0  0
  -13.1597  -26.7539   34.5990 C   0  0  0  0  0  0  0  0  0  0  0  0
  -13.3241  -28.0969   34.3572 O   0  0  0  0  0  0  0  0  0  0  0  0
  -13.6242  -19.3986   35.2997 N   0  0  0  0  0  0  0  0  0  0  0  0
  -12.9438  -18.0946   35.3127 C   0  0  2  0  0  0  0  0  0  0  0  0
  -11.9300  -18.2164   36.4662 C   0  0  0  0  0  0  0  0  0  0  0  0
  -11.2938  -19.2623   36.6492 O   0  0  0  0  0  0  0  0  0  0  0  0
  -13.8976  -16.9179   35.4731 C   0  0  0  0  0  0  0  0  0  0  0  0
  -14.7372  -17.1156   36.6163 O   0  0  0  0  0  0  0  0  0  0  0  0
  -11.7519  -17.1180   37.2850 N   0  0  0  0  0  0  0  0  0  0  0  0
  -10.7231  -17.2128   38.3323 C   0  0  2  0  0  0  0  0  0  0  0  0
  -11.2214  -16.3258   39.4803 C   0  0  0  0  0  0  0  0  0  0  0  0
  -12.3103  -15.7831   39.3788 O   0  0  0  0  0  0  0  0  0  0  0  0
   -9.3427  -16.7337   37.8635 C   0  0  0  0  0  0  0  0  0  0  0  0
   -8.9473  -15.3225   38.3129 C   0  0  0  0  0  0  0  0  0  0  0  0
   -7.4951  -14.9463   38.0031 C   0  0  0  0  0  0  0  0  0  0  0  0
   -6.4687  -15.2048   39.0461 N   0  0  0  0  0  0  0  0  0  0  0  0
   -5.1373  -15.0664   39.0204 C   0  0  0  0  0  0  0  0  0  0  0  0
   -4.3238  -15.8190   38.2914 N   0  0  0  0  0  4  0  0  0  0  0  0
   -4.5982  -14.1568   39.8385 N   0  0  0  0  0  0  0  0  0  0  0  0
   -8.4210  -17.7216   39.9525 C   0  0  0  0  0  0  0  0  0  0  0  0
  -10.3453  -16.1532   40.5269 N   0  0  0  0  0  0  0  0  0  0  0  0
   -7.2788  -18.0933   40.2278 O   0  0  0  0  0  0  0  0  0  0  0  0
   -9.4283  -17.1945   41.0203 C   0  0  1  0  0  0  0  0  0  0  0  0
  -10.3144  -18.4046   41.4924 C   0  0  0  0  0  0  0  0  0  0  0  0
  -12.1122  -20.1748   40.8914 C   0  0  0  0  0  0  0  0  0  0  0  0
  -13.4025  -19.7326   41.5345 C   0  0  0  0  0  0  0  0  0  0  0  0
  -11.2326  -19.0141   40.4116 C   0  0  0  0  0  0  0  0  0  0  0  0
   -8.5899  -16.7563   42.2314 C   0  0  0  0  0  0  0  0  0  0  0  0
   -8.8916  -17.9989   38.6759 N   0  0  0  0  0  0  0  0  0  0  0  0
   -9.0119  -16.8626   37.7577 C   0  0  2  0  0  0  0  0  0  0  0  0
  -10.4354  -16.8844   37.1223 C   0  0  0  0  0  0  0  0  0  0  0  0
  -11.3997  -16.3906   37.7092 O   0  0  0  0  0  0  0  0  0  0  0  0
   -7.8739  -16.8074   36.7198 C   0  0  0  0  0  0  0  0  0  0  0  0
   -6.7040  -17.7426   37.1048 C   0  0  0  0  0  0  0  0  0  0  0  0
   -7.1834  -18.8818   37.9691 C   0  0  0  0  0  0  0  0  0  0  0  0
   -6.4499  -19.5332   38.7066 O   0  0  0  0  0  0  0  0  0  0  0  0
   -8.5444  -19.0861   37.9391 N   0  0  0  0  0  0  0  0  0  0  0  0
  -10.5479  -17.4301   35.8428 N   0  0  0  0  0  0  0  0  0  0  0  0
  -11.6922  -17.1536   34.9409 C   0  0  2  0  0  0  0  0  0  0  0  0
  -12.1187  -15.6530   35.0646 C   0  0  0  0  0  0  0  0  0  0  0  0
  -11.3698  -14.8061   35.5586 O   0  0  0  0  0  0  0  0  0  0  0  0
  -12.8492  -18.1526   35.1520 C   0  0  0  0  0  0  0  0  0  0  0  0
  -12.4555  -19.6269   35.4219 C   0  0  1  0  0  0  0  0  0  0  0  0
  -11.3793  -20.1384   34.4707 C   0  0  0  0  0  0  0  0  0  0  0  0
  -11.9361  -19.7661   36.8660 C   0  0  0  0  0  0  0  0  0  0  0  0
  -13.4170  -15.2909   34.7613 N   0  0  0  0  0  0  0  0  0  0  0  0
  -14.1416  -14.5941   35.8157 C   0  0  2  0  0  0  0  0  0  0  0  0
  -15.1919  -15.5570   36.3818 C   0  0  0  0  0  0  0  0  0  0  0  0
  -15.4977  -16.6080   35.8219 O   0  0  0  0  0  0  0  0  0  0  0  0
  -14.7120  -13.2381   35.3629 C   0  0  0  0  0  0  0  0  0  0  0  0
  -15.8073  -13.3623   34.2842 C   0  0  1  0  0  0  0  0  0  0  0  0
  -15.3573  -14.1803   33.0798 C   0  0  0  0  0  0  0  0  0  0  0  0
  -17.0753  -13.9774   34.8670 C   0  0  0  0  0  0  0  0  0  0  0  0
  -17.4832  -14.8312   39.1277 C   0  0  0  0  0  0  0  0  0  0  0  0
  -15.7380  -15.1569   37.5868 N   0  0  0  0  0  0  0  0  0  0  0  0
  -18.4090  -15.0592   39.9110 O   0  0  0  0  0  0  0  0  0  0  0  0
  -16.6001  -15.9691   38.4682 C   0  0  1  0  0  0  0  0  0  0  0  0
  -15.7682  -16.7507   39.5338 C   0  0  0  0  0  0  0  0  0  0  0  0
  -14.7590  -19.1460   39.4526 C   0  0  0  0  0  0  0  0  0  0  0  0
  -14.5141  -19.3063   40.9156 C   0  0  0  0  0  0  0  0  0  0  0  0
  -14.7213  -17.7037   38.9299 C   0  0  0  0  0  0  0  0  0  0  0  0
  -17.5301  -16.9767   37.7556 C   0  0  0  0  0  0  0  0  0  0  0  0
  -17.0167  -13.5732   38.8543 N   0  0  0  0  0  0  0  0  0  0  0  0
  -16.0138  -13.1766   37.8652 C   0  0  2  0  0  0  0  0  0  0  0  0
  -15.9647  -11.6144   37.7357 C   0  0  0  0  0  0  0  0  0  0  0  0
  -16.9602  -10.9131   37.9258 O   0  0  0  0  0  0  0  0  0  0  0  0
  -16.3028  -13.8960   36.5226 C   0  0  0  0  0  0  0  0  0  0  0  0
  -15.2171  -13.7295   35.4727 C   0  0  0  0  0  0  0  0  0  0  0  0
  -14.0655  -12.9735   35.7425 C   0  0  0  0  0  0  0  0  0  0  0  0
  -15.2965  -14.3911   34.2374 C   0  0  0  0  0  0  0  0  0  0  0  0
  -13.0284  -12.8961   34.8157 C   0  0  0  0  0  0  0  0  0  0  0  0
  -14.2368  -14.3388   33.3208 C   0  0  0  0  0  0  0  0  0  0  0  0
  -13.1120  -13.5699   33.6058 C   0  0  0  0  0  0  0  0  0  0  0  0
  -14.7101  -11.0250   37.5695 N   0  0  0  0  0  0  0  0  0  0  0  0
  -14.5991   -9.5579   37.3844 C   0  0  2  0  0  0  0  0  0  0  0  0
  -15.6242   -8.8418   38.3034 C   0  0  0  0  0  0  0  0  0  0  0  0
  -15.7742   -7.6205   38.2624 O   0  0  0  0  0  0  0  0  0  0  0  0
  -14.7020   -9.1633   35.8922 C   0  0  0  0  0  0  0  0  0  0  0  0
  -14.1067  -10.2221   34.9909 C   0  0  0  0  0  0  0  0  0  0  0  0
  -14.6961  -10.8026   33.8835 C   0  0  0  0  0  0  0  0  0  0  0  0
  -12.8149  -10.8239   35.1065 C   0  0  0  0  0  0  0  0  0  0  0  0
  -13.7705  -11.5670   33.2438 N   0  0  0  0  0  0  0  0  0  0  0  0
  -12.6100  -11.5976   33.9686 C   0  0  0  0  0  0  0  0  0  0  0  0
  -11.7908  -10.7549   36.0796 C   0  0  0  0  0  0  0  0  0  0  0  0
  -11.4134  -12.2741   33.7209 C   0  0  0  0  0  0  0  0  0  0  0  0
  -10.6217  -11.4907   35.8775 C   0  0  0  0  0  0  0  0  0  0  0  0
  -10.4239  -12.2101   34.7016 C   0  0  0  0  0  0  0  0  0  0  0  0
  -16.4851   -9.6011   39.0442 N   0  0  0  0  0  0  0  0  0  0  0  0
  1  2  2  0
  1  3  1  0
  4  1  1  0
  5  4  1  0
  6  5  1  0
  5  8  1  6
  6  7  2  0
 13  6  1  0
  8  9  1  0
  9 10  1  0
 10 11  1  0
 11 12  1  0
 14 13  1  0
 15 14  1  0
 14 17  1  1
 15 16  2  0
 22 15  1  0
 17 18  1  0
 18 19  1  0
 19 20  1  0
 20 21  1  0
 23 22  1  0
 24 23  1  0
 23 26  1  1
 24 25  2  0
 33 24  1  0
 26 27  1  0
 27 28  1  0
 28 29  1  0
 29 30  1  0
 30 31  2  0
 30 32  1  0
 34 33  1  0
 35 34  1  0
 34 37  1  6
 35 36  2  0
 45 35  1  0
 37 38  1  0
 38 39  2  0
 38 40  1  0
 39 41  1  0
 40 42  2  0
 41 43  2  0
 42 43  1  0
 43 44  1  0
 46 45  1  0
 47 46  1  0
 46 49  1  1
 47 48  2  0
 51 47  1  0
 49 50  1  0
 52 51  1  0
 53 52  1  0
 52 55  1  6
 53 54  2  0
 63 53  1  0
 55 56  1  0
 56 57  1  0
 57 58  1  0
 58 59  1  0
 59 60  2  0
 59 61  1  0
 62 64  2  0
 62 65  1  0
 71 62  1  0
 65 63  1  0
 65 66  1  0
 65 70  1  1
 66 69  1  0
 67 68  1  0
 69 67  1  0
 68102  2  0
 72 71  1  0
 73 72  1  0
 72 75  1  6
 73 74  2  0
 80 73  1  0
 75 76  1  0
 76 77  1  0
 77 78  2  0
 77 79  1  0
 81 80  1  0
 82 81  1  0
 81 84  1  1
 82 83  2  0
 88 82  1  0
 84 85  1  0
 85 86  1  6
 85 87  1  0
 89 88  1  0
 90 89  1  0
 89 92  1  6
 90 91  2  0
 97 90  1  0
 92 93  1  0
 93 94  1  6
 93 95  1  0
 96 98  2  0
 99 96  1  0
 96105  1  0
 97 99  1  0
 99100  1  0
 99104  1  6
100103  1  0
102101  1  0
101103  1  0
105106  1  0
106107  1  0
106109  1  6
107108  2  0
107116  1  0
109110  1  0
110111  2  0
110112  1  0
111113  1  0
112114  2  0
113115  2  0
114115  1  0
116117  1  0
117118  1  0
117120  1  6
118119  2  0
118130  1  0
120121  1  0
121122  2  0
121123  1  0
122124  1  0
123125  2  0
123126  1  0
124125  1  0
125127  1  0
126128  2  0
127129  2  0
128129  1  0
M  CHG  4  12   1  21   1  31   1  60   1
M  END
$$$$
