
     RDKit          3D

130134  0  0  0  0  0  0  0  0999 V2000
  -25.6631  -23.6244   30.7633 C   0  0  0  0  0  0  0  0  0  0  0  0
  -25.9507  -23.1918   31.8807 O   0  0  0  0  0  0  0  0  0  0  0  0
  -26.5056  -23.3599   29.5426 C   0  0  0  0  0  0  0  0  0  0  0  0
  -24.4914  -24.3074   30.5180 N   0  0  0  0  0  0  0  0  0  0  0  0
  -23.5771  -24.6697   31.5977 C   0  0  2  0  0  0  0  0  0  0  0  0
  -22.3911  -23.7031   31.4718 C   0  0  0  0  0  0  0  0  0  0  0  0
  -22.1334  -23.1340   30.4090 O   0  0  0  0  0  0  0  0  0  0  0  0
  -23.0993  -26.1392   31.5360 C   0  0  0  0  0  0  0  0  0  0  0  0
  -24.1671  -27.1427   32.0037 C   0  0  0  0  0  0  0  0  0  0  0  0
  -24.5011  -27.1091   33.4995 C   0  0  0  0  0  0  0  0  0  0  0  0
  -23.5178  -27.9295   34.3158 C   0  0  0  0  0  0  0  0  0  0  0  0
  -22.3647  -28.3236   33.4730 N   0  0  0  0  0  4  0  0  0  0  0  0
  -21.7283  -23.4694   32.6629 N   0  0  0  0  0  0  0  0  0  0  0  0
  -20.4935  -22.6770   32.6733 C   0  0  2  0  0  0  0  0  0  0  0  0
  -19.4383  -23.4509   33.4779 C   0  0  0  0  0  0  0  0  0  0  0  0
  -19.7542  -24.2674   34.3369 O   0  0  0  0  0  0  0  0  0  0  0  0
  -20.7839  -21.2637   33.1951 C   0  0  0  0  0  0  0  0  0  0  0  0
  -21.2462  -20.1894   32.1921 C   0  0  0  0  0  0  0  0  0  0  0  0
  -21.4601  -18.7705   32.7207 C   0  0  0  0  0  0  0  0  0  0  0  0
  -20.7894  -18.4949   34.0570 C   0  0  0  0  0  0  0  0  0  0  0  0
  -19.4718  -17.8604   33.8127 N   0  0  0  0  0  4  0  0  0  0  0  0
  -18.1350  -23.1348   33.1901 N   0  0  0  0  0  0  0  0  0  0  0  0
  -17.0425  -23.6767   33.9844 C   0  0  2  0  0  0  0  0  0  0  0  0
  -16.7418  -22.7202   35.1602 C   0  0  0  0  0  0  0  0  0  0  0  0
  -16.6205  -21.5045   35.0207 O   0  0  0  0  0  0  0  0  0  0  0  0
  -15.7563  -23.8362   33.1577 C   0  0  0  0  0  0  0  0  0  0  0  0
  -14.5216  -24.1183   34.0372 C   0  0  0  0  0  0  0  0  0  0  0  0
  -14.2326  -25.5813   34.3450 C   0  0  0  0  0  0  0  0  0  0  0  0
  -13.3254  -26.2033   33.3696 N   0  0  0  0  0  0  0  0  0  0  0  0
  -13.0404  -27.5328   33.3781 C   0  0  0  0  0  0  0  0  0  0  0  0
  -13.9246  -28.4499   33.7799 N   0  0  0  0  0  4  0  0  0  0  0  0
  -11.8696  -27.9532   32.8804 N   0  0  0  0  0  0  0  0  0  0  0  0
  -16.6350  -23.3622   36.3801 N   0  0  0  0  0  0  0  0  0  0  0  0
  -16.3854  -22.6084   37.6161 C   0  0  2  0  0  0  0  0  0  0  0  0
  -14.8699  -22.8153   37.8008 C   0  0  0  0  0  0  0  0  0  0  0  0
  -14.3024  -23.8795   37.5732 O   0  0  0  0  0  0  0  0  0  0  0  0
  -17.2450  -23.1286   38.7841 C   0  0  0  0  0  0  0  0  0  0  0  0
  -18.1560  -24.2651   38.3754 C   0  0  0  0  0  0  0  0  0  0  0  0
  -18.1408  -24.7560   37.0623 C   0  0  0  0  0  0  0  0  0  0  0  0
  -19.0237  -24.8682   39.3053 C   0  0  0  0  0  0  0  0  0  0  0  0
  -18.9372  -25.8429   36.6995 C   0  0  0  0  0  0  0  0  0  0  0  0
  -19.8286  -25.9430   38.9318 C   0  0  0  0  0  0  0  0  0  0  0  0
  -19.7648  -26.4394   37.6485 C   0  0  0  0  0  0  0  0  0  0  0  0
  -20.5398  -27.5264   37.3210 O   0  0  0  0  0  0  0  0  0  0  0  0
  -14.2407  -21.7981   38.4817 N   0  0  0  0  0  0  0  0  0  0  0  0
  -12.9399  -21.9158   39.1582 C   0  0  2  0  0  0  0  0  0  0  0  0
  -12.7448  -20.5428   39.8290 C   0  0  0  0  0  0  0  0  0  0  0  0
  -13.7098  -19.8036   40.0626 O   0  0  0  0  0  0  0  0  0  0  0  0
  -11.8024  -22.2918   38.2175 C   0  0  0  0  0  0  0  0  0  0  0  0
  -10.5577  -21.7996   38.7269 O   0  0  0  0  0  0  0  0  0  0  0  0
  -11.4583  -20.1678   40.1649 N   0  0  0  0  0  0  0  0  0  0  0  0
  -11.2297  -18.7535   40.4990 C   0  0  2  0  0  0  0  0  0  0  0  0
  -12.3244  -17.9736   39.7599 C   0  0  0  0  0  0  0  0  0  0  0  0
  -12.1235  -17.6188   38.6091 O   0  0  0  0  0  0  0  0  0  0  0  0
   -9.8464  -18.2498   40.0656 C   0  0  0  0  0  0  0  0  0  0  0  0
   -8.8867  -17.8954   41.2072 C   0  0  0  0  0  0  0  0  0  0  0  0
   -9.0357  -16.4651   41.7345 C   0  0  0  0  0  0  0  0  0  0  0  0
   -8.0849  -15.4355   41.2403 N   0  0  0  0  0  0  0  0  0  0  0  0
   -7.6743  -14.2852   41.7883 C   0  0  0  0  0  0  0  0  0  0  0  0
   -8.3973  -13.5628   42.6339 N   0  0  0  0  0  4  0  0  0  0  0  0
   -6.4888  -13.8068   41.3970 N   0  0  0  0  0  0  0  0  0  0  0  0
  -13.5988  -20.0849   41.2914 C   0  0  0  0  0  0  0  0  0  0  0  0
  -13.4442  -17.6682   40.4985 N   0  0  0  0  0  0  0  0  0  0  0  0
  -13.6381  -20.8513   42.2557 O   0  0  0  0  0  0  0  0  0  0  0  0
  -14.1809  -18.6383   41.3261 C   0  0  1  0  0  0  0  0  0  0  0  0
  -15.6524  -18.6927   40.7745 C   0  0  0  0  0  0  0  0  0  0  0  0
  -17.2258  -19.1144   38.7563 C   0  0  0  0  0  0  0  0  0  0  0  0
  -17.7208  -17.7682   38.2908 C   0  0  0  0  0  0  0  0  0  0  0  0
  -15.7885  -19.0925   39.2897 C   0  0  0  0  0  0  0  0  0  0  0  0
  -14.2744  -18.2414   42.8078 C   0  0  0  0  0  0  0  0  0  0  0  0
  -13.2218  -20.6195   40.0668 N   0  0  0  0  0  0  0  0  0  0  0  0
  -11.8924  -20.2526   39.5697 C   0  0  2  0  0  0  0  0  0  0  0  0
  -12.0301  -19.7586   38.0975 C   0  0  0  0  0  0  0  0  0  0  0  0
  -12.3418  -18.5934   37.8459 O   0  0  0  0  0  0  0  0  0  0  0  0
  -10.8541  -21.3775   39.7484 C   0  0  0  0  0  0  0  0  0  0  0  0
  -10.2952  -21.4150   41.1899 C   0  0  0  0  0  0  0  0  0  0  0  0
  -10.5549  -20.1131   41.9054 C   0  0  0  0  0  0  0  0  0  0  0  0
  -10.8855  -19.0771   41.3366 O   0  0  0  0  0  0  0  0  0  0  0  0
  -10.4799  -20.1923   43.2776 N   0  0  0  0  0  0  0  0  0  0  0  0
  -11.7251  -20.6768   37.0919 N   0  0  0  0  0  0  0  0  0  0  0  0
  -11.3916  -20.2776   35.7030 C   0  0  2  0  0  0  0  0  0  0  0  0
  -10.5070  -18.9868   35.7167 C   0  0  0  0  0  0  0  0  0  0  0  0
   -9.9129  -18.6202   36.7340 O   0  0  0  0  0  0  0  0  0  0  0  0
  -12.6493  -20.1651   34.8161 C   0  0  0  0  0  0  0  0  0  0  0  0
  -12.8367  -21.2566   33.7321 C   0  0  1  0  0  0  0  0  0  0  0  0
  -13.3434  -20.6976   32.4072 C   0  0  0  0  0  0  0  0  0  0  0  0
  -11.4937  -21.9686   33.4794 C   0  0  0  0  0  0  0  0  0  0  0  0
  -10.5124  -18.1506   34.6170 N   0  0  0  0  0  0  0  0  0  0  0  0
  -10.8642  -16.7617   34.8807 C   0  0  2  0  0  0  0  0  0  0  0  0
  -12.2653  -16.5136   34.3095 C   0  0  0  0  0  0  0  0  0  0  0  0
  -12.8180  -17.3010   33.5441 O   0  0  0  0  0  0  0  0  0  0  0  0
   -9.7998  -15.7646   34.3889 C   0  0  0  0  0  0  0  0  0  0  0  0
   -8.4875  -16.4392   33.9402 C   0  0  1  0  0  0  0  0  0  0  0  0
   -7.5153  -16.6604   35.0927 C   0  0  0  0  0  0  0  0  0  0  0  0
   -8.7695  -17.7719   33.2546 C   0  0  0  0  0  0  0  0  0  0  0  0
  -14.1223  -13.3789   34.5154 C   0  0  0  0  0  0  0  0  0  0  0  0
  -12.8614  -15.3485   34.7541 N   0  0  0  0  0  0  0  0  0  0  0  0
  -14.9096  -12.6375   33.9214 O   0  0  0  0  0  0  0  0  0  0  0  0
  -14.2703  -14.9557   34.5525 C   0  0  1  0  0  0  0  0  0  0  0  0
  -15.1786  -15.4270   35.7320 C   0  0  0  0  0  0  0  0  0  0  0  0
  -16.5452  -17.6194   36.0293 C   0  0  0  0  0  0  0  0  0  0  0  0
  -17.4306  -17.1513   37.1350 C   0  0  0  0  0  0  0  0  0  0  0  0
  -15.1664  -16.9494   35.9575 C   0  0  0  0  0  0  0  0  0  0  0  0
  -14.9178  -15.4303   33.2321 C   0  0  0  0  0  0  0  0  0  0  0  0
  -13.1216  -12.9214   35.3304 N   0  0  0  0  0  0  0  0  0  0  0  0
  -11.7090  -12.7241   35.0033 C   0  0  2  0  0  0  0  0  0  0  0  0
  -10.8334  -12.8001   36.3022 C   0  0  0  0  0  0  0  0  0  0  0  0
   -9.6428  -12.4814   36.3050 O   0  0  0  0  0  0  0  0  0  0  0  0
  -11.5420  -11.3928   34.2263 C   0  0  0  0  0  0  0  0  0  0  0  0
  -12.8490  -10.7261   33.8315 C   0  0  0  0  0  0  0  0  0  0  0  0
  -13.4227   -9.7324   34.6402 C   0  0  0  0  0  0  0  0  0  0  0  0
  -13.4753  -11.0257   32.6116 C   0  0  0  0  0  0  0  0  0  0  0  0
  -14.5708   -9.0560   34.2346 C   0  0  0  0  0  0  0  0  0  0  0  0
  -14.6113  -10.3198   32.1907 C   0  0  0  0  0  0  0  0  0  0  0  0
  -15.1695   -9.3494   33.0177 C   0  0  0  0  0  0  0  0  0  0  0  0
  -11.4912  -13.0743   37.5026 N   0  0  0  0  0  0  0  0  0  0  0  0
  -10.7130  -13.2322   38.7550 C   0  0  2  0  0  0  0  0  0  0  0  0
  -11.6546  -13.7104   39.8920 C   0  0  0  0  0  0  0  0  0  0  0  0
  -11.2705  -14.5115   40.7444 O   0  0  0  0  0  0  0  0  0  0  0  0
   -9.9116  -11.9526   39.0919 C   0  0  0  0  0  0  0  0  0  0  0  0
   -9.0879  -12.1228   40.3490 C   0  0  0  0  0  0  0  0  0  0  0  0
   -9.5028  -11.9209   41.6520 C   0  0  0  0  0  0  0  0  0  0  0  0
   -7.7204  -12.5318   40.4333 C   0  0  0  0  0  0  0  0  0  0  0  0
   -8.5283  -12.3560   42.4953 N   0  0  0  0  0  0  0  0  0  0  0  0
   -7.4267  -12.7365   41.7777 C   0  0  0  0  0  0  0  0  0  0  0  0
   -6.7120  -12.7671   39.4699 C   0  0  0  0  0  0  0  0  0  0  0  0
   -6.1888  -13.2120   42.2162 C   0  0  0  0  0  0  0  0  0  0  0  0
   -5.4475  -13.1676   39.9054 C   0  0  0  0  0  0  0  0  0  0  0  0
   -5.2017  -13.4184   41.2530 C   0  0  0  0  0  0  0  0  0  0  0  0
  -12.8691  -13.1022   40.0388 N   0  0  0  0  0  0  0  0  0  0  0  0
  1  2  2  0
  1  3  1  0
  4  1  1  0
  5  4  1  0
  6  5  1  0
  5  8  1  6
  6  7  2  0
 13  6  1  0
  8  9  1  0
  9 10  1  0
 10 11  1  0
 11 12  1  0
 14 13  1  0
 15 14  1  0
 14 17  1  1
 15 16  2  0
 22 15  1  0
 17 18  1  0
 18 19  1  0
 19 20  1  0
 20 21  1  0
 23 22  1  0
 24 23  1  0
 23 26  1  6
 24 25  2  0
 33 24  1  0
 26 27  1  0
 27 28  1  0
 28 29  1  0
 29 30  1  0
 30 31  2  0
 30 32  1  0
 34 33  1  0
 35 34  1  0
 34 37  1  1
 35 36  2  0
 45 35  1  0
 37 38  1  0
 38 39  2  0
 38 40  1  0
 39 41  1  0
 40 42  2  0
 41 43  2  0
 42 43  1  0
 43 44  1  0
 46 45  1  0
 47 46  1  0
 46 49  1  6
 47 48  2  0
 51 47  1  0
 49 50  1  0
 52 51  1  0
 53 52  1  0
 52 55  1  6
 53 54  2  0
 63 53  1  0
 55 56  1  0
 56 57  1  0
 57 58  1  0
 58 59  1  0
 59 60  2  0
 59 61  1  0
 62 64  2  0
 62 65  1  0
 71 62  1  0
 65 63  1  0
 65 66  1  0
 65 70  1  1
 66 69  1  0
 67 68  1  0
 69 67  1  0
 68102  2  0
 72 71  1  0
 73 72  1  0
 72 75  1  6
 73 74  2  0
 80 73  1  0
 75 76  1  0
 76 77  1  0
 77 78  2  0
 77 79  1  0
 81 80  1  0
 82 81  1  0
 81 84  1  6
 82 83  2  0
 88 82  1  0
 84 85  1  0
 85 86  1  6
 85 87  1  0
 89 88  1  0
 90 89  1  0
 89 92  1  6
 90 91  2  0
 97 90  1  0
 92 93  1  0
 93 94  1  1
 93 95  1  0
 96 98  2  0
 99 96  1  0
 96105  1  0
 97 99  1  0
 99100  1  0
 99104  1  6
100103  1  0
102101  1  0
101103  1  0
105106  1  0
106107  1  0
106109  1  1
107108  2  0
107116  1  0
109110  1  0
110111  2  0
110112  1  0
111113  1  0
112114  2  0
113115  2  0
114115  1  0
116117  1  0
117118  1  0
117120  1  1
118119  2  0
118130  1  0
120121  1  0
121122  2  0
121123  1  0
122124  1  0
123125  2  0
123126  1  0
124125  1  0
125127  1  0
126128  2  0
127129  2  0
128129  1  0
M  CHG  4  12   1  21   1  31   1  60   1
M  END
$$$$
