
     RDKit          3D

130134  0  0  0  0  0  0  0  0999 V2000
  -17.2279  -30.8613   31.9304 C   0  0  0  0  0  0  0  0  0  0  0  0
  -17.3261  -30.4176   30.7850 O   0  0  0  0  0  0  0  0  0  0  0  0
  -16.9913  -32.3199   32.2245 C   0  0  0  0  0  0  0  0  0  0  0  0
  -17.2298  -30.0427   33.0393 N   0  0  0  0  0  0  0  0  0  0  0  0
  -17.5635  -28.6243   32.9419 C   0  0  2  0  0  0  0  0  0  0  0  0
  -16.5643  -27.9045   33.8585 C   0  0  0  0  0  0  0  0  0  0  0  0
  -16.5054  -28.1484   35.0656 O   0  0  0  0  0  0  0  0  0  0  0  0
  -19.0192  -28.3022   33.3529 C   0  0  0  0  0  0  0  0  0  0  0  0
  -20.0533  -29.2318   32.6954 C   0  0  0  0  0  0  0  0  0  0  0  0
  -20.2717  -29.0255   31.1922 C   0  0  0  0  0  0  0  0  0  0  0  0
  -21.3301  -27.9723   30.9150 C   0  0  0  0  0  0  0  0  0  0  0  0
  -21.4423  -27.7386   29.4562 N   0  0  0  0  0  4  0  0  0  0  0  0
  -15.6988  -27.0575   33.1904 N   0  0  0  0  0  0  0  0  0  0  0  0
  -14.9234  -26.0610   33.9375 C   0  0  2  0  0  0  0  0  0  0  0  0
  -15.5975  -24.6937   33.7478 C   0  0  0  0  0  0  0  0  0  0  0  0
  -16.3212  -24.4603   32.7855 O   0  0  0  0  0  0  0  0  0  0  0  0
  -13.4521  -26.1125   33.5056 C   0  0  0  0  0  0  0  0  0  0  0  0
  -13.0904  -26.8702   32.2137 C   0  0  0  0  0  0  0  0  0  0  0  0
  -12.0709  -28.0051   32.3187 C   0  0  0  0  0  0  0  0  0  0  0  0
  -11.8749  -28.7888   31.0308 C   0  0  0  0  0  0  0  0  0  0  0  0
  -13.2014  -29.0645   30.4282 N   0  0  0  0  0  4  0  0  0  0  0  0
  -15.3014  -23.7573   34.7053 N   0  0  0  0  0  0  0  0  0  0  0  0
  -15.7302  -22.3746   34.5550 C   0  0  2  0  0  0  0  0  0  0  0  0
  -14.4959  -21.4821   34.2945 C   0  0  0  0  0  0  0  0  0  0  0  0
  -13.3679  -21.7654   34.6938 O   0  0  0  0  0  0  0  0  0  0  0  0
  -16.4387  -21.8534   35.8157 C   0  0  0  0  0  0  0  0  0  0  0  0
  -17.7815  -21.1665   35.4957 C   0  0  0  0  0  0  0  0  0  0  0  0
  -18.4646  -20.4489   36.6521 C   0  0  0  0  0  0  0  0  0  0  0  0
  -18.4572  -21.2317   37.8964 N   0  0  0  0  0  0  0  0  0  0  0  0
  -17.7303  -20.8683   38.9864 C   0  0  0  0  0  0  0  0  0  0  0  0
  -17.0528  -19.7184   39.0418 N   0  0  0  0  0  4  0  0  0  0  0  0
  -17.7649  -21.6394   40.0816 N   0  0  0  0  0  0  0  0  0  0  0  0
  -14.7821  -20.3452   33.5614 N   0  0  0  0  0  0  0  0  0  0  0  0
  -13.7957  -19.2663   33.4165 C   0  0  2  0  0  0  0  0  0  0  0  0
  -14.5287  -18.3072   32.4591 C   0  0  0  0  0  0  0  0  0  0  0  0
  -14.9732  -18.6531   31.3686 O   0  0  0  0  0  0  0  0  0  0  0  0
  -12.4500  -19.7926   32.8819 C   0  0  0  0  0  0  0  0  0  0  0  0
  -12.5759  -21.1480   32.2216 C   0  0  0  0  0  0  0  0  0  0  0  0
  -12.2685  -22.3186   32.9292 C   0  0  0  0  0  0  0  0  0  0  0  0
  -13.0223  -21.2673   30.8920 C   0  0  0  0  0  0  0  0  0  0  0  0
  -12.4412  -23.5720   32.3406 C   0  0  0  0  0  0  0  0  0  0  0  0
  -13.1767  -22.5219   30.3049 C   0  0  0  0  0  0  0  0  0  0  0  0
  -12.9128  -23.6613   31.0326 C   0  0  0  0  0  0  0  0  0  0  0  0
  -13.1142  -24.8852   30.4403 O   0  0  0  0  0  0  0  0  0  0  0  0
  -14.4237  -16.9785   32.8023 N   0  0  0  0  0  0  0  0  0  0  0  0
  -15.1383  -16.3374   33.9167 C   0  0  2  0  0  0  0  0  0  0  0  0
  -14.1197  -15.3276   34.4788 C   0  0  0  0  0  0  0  0  0  0  0  0
  -13.0560  -15.7083   34.9846 O   0  0  0  0  0  0  0  0  0  0  0  0
  -15.6414  -17.3269   34.9597 C   0  0  0  0  0  0  0  0  0  0  0  0
  -16.9413  -16.9402   35.4200 O   0  0  0  0  0  0  0  0  0  0  0  0
  -14.4314  -13.9844   34.3943 N   0  0  0  0  0  0  0  0  0  0  0  0
  -13.4218  -13.0231   34.8640 C   0  0  2  0  0  0  0  0  0  0  0  0
  -13.2568  -13.2990   36.3638 C   0  0  0  0  0  0  0  0  0  0  0  0
  -14.1707  -13.8346   36.9708 O   0  0  0  0  0  0  0  0  0  0  0  0
  -13.8356  -11.5618   34.6443 C   0  0  0  0  0  0  0  0  0  0  0  0
  -15.2901  -11.3469   34.2106 C   0  0  0  0  0  0  0  0  0  0  0  0
  -15.6977   -9.8763   34.0793 C   0  0  0  0  0  0  0  0  0  0  0  0
  -14.9279   -9.0189   33.1409 N   0  0  0  0  0  0  0  0  0  0  0  0
  -15.3309   -8.0657   32.2917 C   0  0  0  0  0  0  0  0  0  0  0  0
  -15.2298   -6.7645   32.5296 N   0  0  0  0  0  4  0  0  0  0  0  0
  -15.9370   -8.4604   31.1673 N   0  0  0  0  0  0  0  0  0  0  0  0
  -10.3427  -12.3565   35.1410 C   0  0  0  0  0  0  0  0  0  0  0  0
  -12.0893  -12.8434   36.9313 N   0  0  0  0  0  0  0  0  0  0  0  0
  -10.0271  -11.6626   34.1727 O   0  0  0  0  0  0  0  0  0  0  0  0
  -11.2130  -11.8283   36.3226 C   0  0  1  0  0  0  0  0  0  0  0  0
  -10.2436  -11.3183   37.4507 C   0  0  0  0  0  0  0  0  0  0  0  0
   -8.4497  -11.8994   39.2314 C   0  0  0  0  0  0  0  0  0  0  0  0
   -9.1204  -11.8188   40.5796 C   0  0  0  0  0  0  0  0  0  0  0  0
   -9.3699  -12.4045   38.1137 C   0  0  0  0  0  0  0  0  0  0  0  0
  -11.9671  -10.5985   35.7929 C   0  0  0  0  0  0  0  0  0  0  0  0
   -9.7066  -13.5826   35.2814 N   0  0  0  0  0  0  0  0  0  0  0  0
  -10.5101  -14.7767   35.0030 C   0  0  2  0  0  0  0  0  0  0  0  0
  -10.3525  -15.7714   36.1930 C   0  0  0  0  0  0  0  0  0  0  0  0
  -11.0418  -15.6601   37.2083 O   0  0  0  0  0  0  0  0  0  0  0  0
  -10.1974  -15.4030   33.6299 C   0  0  0  0  0  0  0  0  0  0  0  0
   -8.6773  -15.4277   33.3464 C   0  0  0  0  0  0  0  0  0  0  0  0
   -7.9150  -14.6851   34.4150 C   0  0  0  0  0  0  0  0  0  0  0  0
   -7.4285  -13.5699   34.2548 O   0  0  0  0  0  0  0  0  0  0  0  0
   -7.8789  -15.3211   35.6353 N   0  0  0  0  0  0  0  0  0  0  0  0
   -9.4456  -16.8186   36.0253 N   0  0  0  0  0  0  0  0  0  0  0  0
   -9.4785  -18.0582   36.8388 C   0  0  2  0  0  0  0  0  0  0  0  0
  -10.9608  -18.4944   37.0869 C   0  0  0  0  0  0  0  0  0  0  0  0
  -11.8870  -18.0608   36.3968 O   0  0  0  0  0  0  0  0  0  0  0  0
   -8.6408  -17.9260   38.1280 C   0  0  0  0  0  0  0  0  0  0  0  0
   -7.1017  -17.8709   37.9556 C   0  0  1  0  0  0  0  0  0  0  0  0
   -6.4297  -19.2206   38.1821 C   0  0  0  0  0  0  0  0  0  0  0  0
   -6.7589  -17.3880   36.5331 C   0  0  0  0  0  0  0  0  0  0  0  0
  -11.2651  -19.2573   38.1978 N   0  0  0  0  0  0  0  0  0  0  0  0
  -12.2811  -18.7056   39.0844 C   0  0  2  0  0  0  0  0  0  0  0  0
  -11.5822  -18.2281   40.3628 C   0  0  0  0  0  0  0  0  0  0  0  0
  -10.4236  -18.5333   40.6384 O   0  0  0  0  0  0  0  0  0  0  0  0
  -13.4547  -19.6699   39.3329 C   0  0  0  0  0  0  0  0  0  0  0  0
  -13.1551  -21.1230   38.9115 C   0  0  1  0  0  0  0  0  0  0  0  0
  -14.3937  -22.0104   38.9367 C   0  0  0  0  0  0  0  0  0  0  0  0
  -12.5308  -21.1667   37.5209 C   0  0  0  0  0  0  0  0  0  0  0  0
  -13.2092  -16.6041   43.1970 C   0  0  0  0  0  0  0  0  0  0  0  0
  -12.3550  -17.4026   41.1577 N   0  0  0  0  0  0  0  0  0  0  0  0
  -13.3682  -15.8599   44.1683 O   0  0  0  0  0  0  0  0  0  0  0  0
  -11.8886  -16.6240   42.3222 C   0  0  1  0  0  0  0  0  0  0  0  0
  -11.4384  -15.1851   41.9157 C   0  0  0  0  0  0  0  0  0  0  0  0
   -9.0946  -14.2854   41.2377 C   0  0  0  0  0  0  0  0  0  0  0  0
   -9.3813  -12.8326   41.4189 C   0  0  0  0  0  0  0  0  0  0  0  0
  -10.3040  -15.1580   40.8758 C   0  0  0  0  0  0  0  0  0  0  0  0
  -10.7499  -17.2655   43.1468 C   0  0  0  0  0  0  0  0  0  0  0  0
  -14.2031  -17.3871   42.6737 N   0  0  0  0  0  0  0  0  0  0  0  0
  -14.2408  -18.0467   41.3680 C   0  0  2  0  0  0  0  0  0  0  0  0
  -15.2068  -19.2815   41.4093 C   0  0  0  0  0  0  0  0  0  0  0  0
  -15.4869  -19.9238   40.3954 O   0  0  0  0  0  0  0  0  0  0  0  0
  -12.7975  -18.4095   40.9331 C   0  0  0  0  0  0  0  0  0  0  0  0
  -12.6850  -18.9591   39.5210 C   0  0  0  0  0  0  0  0  0  0  0  0
  -13.5563  -19.9621   39.0679 C   0  0  0  0  0  0  0  0  0  0  0  0
  -11.7634  -18.4246   38.6071 C   0  0  0  0  0  0  0  0  0  0  0  0
  -13.5145  -20.4013   37.7466 C   0  0  0  0  0  0  0  0  0  0  0  0
  -11.7466  -18.8447   37.2694 C   0  0  0  0  0  0  0  0  0  0  0  0
  -12.6108  -19.8515   36.8488 C   0  0  0  0  0  0  0  0  0  0  0  0
  -15.6043  -19.7416   42.6660 N   0  0  0  0  0  0  0  0  0  0  0  0
  -16.1259  -21.1212   42.8192 C   0  0  2  0  0  0  0  0  0  0  0  0
  -17.5037  -21.2344   42.1142 C   0  0  0  0  0  0  0  0  0  0  0  0
  -17.6146  -21.7716   41.0119 O   0  0  0  0  0  0  0  0  0  0  0  0
  -16.1340  -21.5650   44.3011 C   0  0  0  0  0  0  0  0  0  0  0  0
  -16.7315  -22.9443   44.4691 C   0  0  0  0  0  0  0  0  0  0  0  0
  -17.9423  -23.2634   45.0547 C   0  0  0  0  0  0  0  0  0  0  0  0
  -16.1614  -24.1864   44.0488 C   0  0  0  0  0  0  0  0  0  0  0  0
  -18.1976  -24.5827   44.8439 N   0  0  0  0  0  0  0  0  0  0  0  0
  -17.1260  -25.1724   44.2298 C   0  0  0  0  0  0  0  0  0  0  0  0
  -14.9066  -24.5492   43.5063 C   0  0  0  0  0  0  0  0  0  0  0  0
  -16.9260  -26.5025   43.8532 C   0  0  0  0  0  0  0  0  0  0  0  0
  -14.6700  -25.8904   43.1996 C   0  0  0  0  0  0  0  0  0  0  0  0
  -15.6755  -26.8438   43.3391 C   0  0  0  0  0  0  0  0  0  0  0  0
  -18.6271  -20.8811   42.8067 N   0  0  0  0  0  0  0  0  0  0  0  0
  1  2  2  0
  1  3  1  0
  4  1  1  0
  5  4  1  0
  6  5  1  0
  5  8  1  1
  6  7  2  0
 13  6  1  0
  8  9  1  0
  9 10  1  0
 10 11  1  0
 11 12  1  0
 14 13  1  0
 15 14  1  0
 14 17  1  6
 15 16  2  0
 22 15  1  0
 17 18  1  0
 18 19  1  0
 19 20  1  0
 20 21  1  0
 23 22  1  0
 24 23  1  0
 23 26  1  1
 24 25  2  0
 33 24  1  0
 26 27  1  0
 27 28  1  0
 28 29  1  0
 29 30  1  0
 30 31  2  0
 30 32  1  0
 34 33  1  0
 35 34  1  0
 34 37  1  6
 35 36  2  0
 45 35  1  0
 37 38  1  0
 38 39  2  0
 38 40  1  0
 39 41  1  0
 40 42  2  0
 41 43  2  0
 42 43  1  0
 43 44  1  0
 46 45  1  0
 47 46  1  0
 46 49  1  1
 47 48  2  0
 51 47  1  0
 49 50  1  0
 52 51  1  0
 53 52  1  0
 52 55  1  1
 53 54  2  0
 63 53  1  0
 55 56  1  0
 56 57  1  0
 57 58  1  0
 58 59  1  0
 59 60  2  0
 59 61  1  0
 62 64  2  0
 62 65  1  0
 71 62  1  0
 65 63  1  0
 65 66  1  0
 65 70  1  6
 66 69  1  0
 67 68  1  0
 69 67  1  0
 68102  2  0
 72 71  1  0
 73 72  1  0
 72 75  1  6
 73 74  2  0
 80 73  1  0
 75 76  1  0
 76 77  1  0
 77 78  2  0
 77 79  1  0
 81 80  1  0
 82 81  1  0
 81 84  1  1
 82 83  2  0
 88 82  1  0
 84 85  1  0
 85 86  1  6
 85 87  1  0
 89 88  1  0
 90 89  1  0
 89 92  1  1
 90 91  2  0
 97 90  1  0
 92 93  1  0
 93 94  1  6
 93 95  1  0
 96 98  2  0
 99 96  1  0
 96105  1  0
 97 99  1  0
 99100  1  0
 99104  1  1
100103  1  0
102101  1  0
101103  1  0
105106  1  0
106107  1  0
106109  1  1
107108  2  0
107116  1  0
109110  1  0
110111  2  0
110112  1  0
111113  1  0
112114  2  0
113115  2  0
114115  1  0
116117  1  0
117118  1  0
117120  1  1
118119  2  0
118130  1  0
120121  1  0
121122  2  0
121123  1  0
122124  1  0
123125  2  0
123126  1  0
124125  1  0
125127  1  0
126128  2  0
127129  2  0
128129  1  0
M  CHG  4  12   1  21   1  31   1  60   1
M  END
$$$$
