
     RDKit          3D

130134  0  0  0  0  0  0  0  0999 V2000
  -14.5779  -15.6724   47.7697 C   0  0  0  0  0  0  0  0  0  0  0  0
  -15.4560  -16.3686   48.2820 O   0  0  0  0  0  0  0  0  0  0  0  0
  -13.1434  -16.1187   47.6560 C   0  0  0  0  0  0  0  0  0  0  0  0
  -14.8546  -14.4632   47.1688 N   0  0  0  0  0  0  0  0  0  0  0  0
  -15.3113  -13.3118   47.9423 C   0  0  2  0  0  0  0  0  0  0  0  0
  -15.4640  -12.1706   46.9270 C   0  0  0  0  0  0  0  0  0  0  0  0
  -16.0013  -11.1038   47.2322 O   0  0  0  0  0  0  0  0  0  0  0  0
  -14.3457  -12.9103   49.0816 C   0  0  0  0  0  0  0  0  0  0  0  0
  -15.0279  -12.0958   50.1939 C   0  0  0  0  0  0  0  0  0  0  0  0
  -15.6027  -10.7401   49.7679 C   0  0  0  0  0  0  0  0  0  0  0  0
  -16.2239   -9.9977   50.9381 C   0  0  0  0  0  0  0  0  0  0  0  0
  -16.8732  -10.9586   51.8602 N   0  0  0  0  0  4  0  0  0  0  0  0
  -14.8640  -12.4210   45.7063 N   0  0  0  0  0  0  0  0  0  0  0  0
  -15.0316  -11.4749   44.5975 C   0  0  2  0  0  0  0  0  0  0  0  0
  -15.7675  -12.1998   43.4605 C   0  0  0  0  0  0  0  0  0  0  0  0
  -15.4786  -13.3463   43.1342 O   0  0  0  0  0  0  0  0  0  0  0  0
  -13.6711  -10.8854   44.2032 C   0  0  0  0  0  0  0  0  0  0  0  0
  -13.3488  -10.7149   42.7062 C   0  0  0  0  0  0  0  0  0  0  0  0
  -13.0916   -9.2977   42.1928 C   0  0  0  0  0  0  0  0  0  0  0  0
  -11.6462   -9.0266   41.8071 C   0  0  0  0  0  0  0  0  0  0  0  0
  -11.3598   -7.5841   41.9957 N   0  0  0  0  0  4  0  0  0  0  0  0
  -16.7333  -11.4623   42.8245 N   0  0  0  0  0  0  0  0  0  0  0  0
  -17.4108  -11.9787   41.6445 C   0  0  2  0  0  0  0  0  0  0  0  0
  -16.5556  -11.6806   40.3925 C   0  0  0  0  0  0  0  0  0  0  0  0
  -16.2995  -10.5395   40.0122 O   0  0  0  0  0  0  0  0  0  0  0  0
  -18.7906  -11.3309   41.4456 C   0  0  0  0  0  0  0  0  0  0  0  0
  -19.9412  -12.2321   41.9367 C   0  0  0  0  0  0  0  0  0  0  0  0
  -21.3251  -11.9214   41.3826 C   0  0  0  0  0  0  0  0  0  0  0  0
  -21.5866  -12.5781   40.0935 N   0  0  0  0  0  0  0  0  0  0  0  0
  -22.8201  -13.0239   39.7352 C   0  0  0  0  0  0  0  0  0  0  0  0
  -23.9185  -12.2774   39.8784 N   0  0  0  0  0  4  0  0  0  0  0  0
  -22.9345  -14.2144   39.1309 N   0  0  0  0  0  0  0  0  0  0  0  0
  -16.0995  -12.8180   39.7523 N   0  0  0  0  0  0  0  0  0  0  0  0
  -15.7235  -12.7917   38.3324 C   0  0  2  0  0  0  0  0  0  0  0  0
  -16.8186  -13.6779   37.7086 C   0  0  0  0  0  0  0  0  0  0  0  0
  -17.9671  -13.7324   38.1380 O   0  0  0  0  0  0  0  0  0  0  0  0
  -14.2879  -13.3065   38.1136 C   0  0  0  0  0  0  0  0  0  0  0  0
  -14.2314  -14.4927   37.1764 C   0  0  0  0  0  0  0  0  0  0  0  0
  -14.0278  -14.3079   35.8017 C   0  0  0  0  0  0  0  0  0  0  0  0
  -14.3614  -15.8072   37.6629 C   0  0  0  0  0  0  0  0  0  0  0  0
  -13.9160  -15.4038   34.9450 C   0  0  0  0  0  0  0  0  0  0  0  0
  -14.2652  -16.8967   36.7991 C   0  0  0  0  0  0  0  0  0  0  0  0
  -14.0192  -16.6948   35.4588 C   0  0  0  0  0  0  0  0  0  0  0  0
  -13.8880  -17.7900   34.6387 O   0  0  0  0  0  0  0  0  0  0  0  0
  -16.3497  -14.5950   36.7956 N   0  0  0  0  0  0  0  0  0  0  0  0
  -16.9996  -14.9177   35.5162 C   0  0  2  0  0  0  0  0  0  0  0  0
  -16.0736  -15.9752   34.8858 C   0  0  0  0  0  0  0  0  0  0  0  0
  -15.9669  -16.0791   33.6570 O   0  0  0  0  0  0  0  0  0  0  0  0
  -17.2158  -13.7010   34.6255 C   0  0  0  0  0  0  0  0  0  0  0  0
  -18.4327  -13.0368   34.9843 O   0  0  0  0  0  0  0  0  0  0  0  0
  -15.3637  -16.7988   35.7379 N   0  0  0  0  0  0  0  0  0  0  0  0
  -14.9700  -18.1222   35.2301 C   0  0  2  0  0  0  0  0  0  0  0  0
  -16.2615  -18.9487   35.1899 C   0  0  0  0  0  0  0  0  0  0  0  0
  -16.3745  -19.9065   35.9386 O   0  0  0  0  0  0  0  0  0  0  0  0
  -13.9303  -18.8208   36.1166 C   0  0  0  0  0  0  0  0  0  0  0  0
  -14.2706  -18.8795   37.6102 C   0  0  0  0  0  0  0  0  0  0  0  0
  -13.1956  -19.5440   38.4756 C   0  0  0  0  0  0  0  0  0  0  0  0
  -13.4317  -19.6290   39.9403 N   0  0  0  0  0  0  0  0  0  0  0  0
  -12.6707  -19.2518   40.9752 C   0  0  0  0  0  0  0  0  0  0  0  0
  -12.9947  -19.4433   42.2472 N   0  0  0  0  0  4  0  0  0  0  0  0
  -11.5500  -18.5769   40.7000 N   0  0  0  0  0  0  0  0  0  0  0  0
  -18.0420  -17.2627   32.2303 C   0  0  0  0  0  0  0  0  0  0  0  0
  -17.1817  -18.5752   34.2378 N   0  0  0  0  0  0  0  0  0  0  0  0
  -18.6109  -16.2440   31.8337 O   0  0  0  0  0  0  0  0  0  0  0  0
  -17.1446  -17.2981   33.5055 C   0  0  1  0  0  0  0  0  0  0  0  0
  -15.6552  -17.0647   33.0588 C   0  0  0  0  0  0  0  0  0  0  0  0
  -13.5879  -17.9466   31.7645 C   0  0  0  0  0  0  0  0  0  0  0  0
  -12.5927  -18.4254   32.7913 C   0  0  0  0  0  0  0  0  0  0  0  0
  -15.0494  -18.1718   32.1699 C   0  0  0  0  0  0  0  0  0  0  0  0
  -17.5501  -16.0851   34.3576 C   0  0  0  0  0  0  0  0  0  0  0  0
  -18.0259  -18.3576   31.3767 N   0  0  0  0  0  0  0  0  0  0  0  0
  -18.8812  -19.4904   31.7430 C   0  0  2  0  0  0  0  0  0  0  0  0
  -18.0293  -20.7949   31.6905 C   0  0  0  0  0  0  0  0  0  0  0  0
  -17.3307  -21.1353   32.6468 O   0  0  0  0  0  0  0  0  0  0  0  0
  -20.1723  -19.5626   30.9044 C   0  0  0  0  0  0  0  0  0  0  0  0
  -20.3049  -18.3493   29.9547 C   0  0  0  0  0  0  0  0  0  0  0  0
  -19.2408  -17.3194   30.2401 C   0  0  0  0  0  0  0  0  0  0  0  0
  -19.1153  -16.2757   29.6068 O   0  0  0  0  0  0  0  0  0  0  0  0
  -18.4602  -17.5964   31.3395 N   0  0  0  0  0  0  0  0  0  0  0  0
  -18.1459  -21.5799   30.5426 N   0  0  0  0  0  0  0  0  0  0  0  0
  -17.7647  -23.0124   30.4975 C   0  0  2  0  0  0  0  0  0  0  0  0
  -18.1804  -23.7175   31.8313 C   0  0  0  0  0  0  0  0  0  0  0  0
  -19.0060  -23.2156   32.5985 O   0  0  0  0  0  0  0  0  0  0  0  0
  -16.2796  -23.2039   30.1247 C   0  0  0  0  0  0  0  0  0  0  0  0
  -15.4126  -21.9224   30.0385 C   0  0  1  0  0  0  0  0  0  0  0  0
  -16.1243  -20.7692   29.3399 C   0  0  0  0  0  0  0  0  0  0  0  0
  -15.0228  -21.4668   31.4580 C   0  0  0  0  0  0  0  0  0  0  0  0
  -17.4984  -24.8469   32.2412 N   0  0  0  0  0  0  0  0  0  0  0  0
  -16.9102  -24.7818   33.5724 C   0  0  2  0  0  0  0  0  0  0  0  0
  -15.3896  -24.6688   33.4110 C   0  0  0  0  0  0  0  0  0  0  0  0
  -14.8192  -24.8773   32.3420 O   0  0  0  0  0  0  0  0  0  0  0  0
  -17.3605  -25.9330   34.4893 C   0  0  0  0  0  0  0  0  0  0  0  0
  -17.8961  -27.1574   33.7194 C   0  0  1  0  0  0  0  0  0  0  0  0
  -19.4140  -27.1500   33.5842 C   0  0  0  0  0  0  0  0  0  0  0  0
  -17.2661  -27.2447   32.3334 C   0  0  0  0  0  0  0  0  0  0  0  0
  -12.9788  -24.3546   36.1325 C   0  0  0  0  0  0  0  0  0  0  0  0
  -14.7240  -24.2827   34.5592 N   0  0  0  0  0  0  0  0  0  0  0  0
  -12.9760  -23.5912   37.1018 O   0  0  0  0  0  0  0  0  0  0  0  0
  -13.3054  -23.8851   34.6551 C   0  0  1  0  0  0  0  0  0  0  0  0
  -13.1214  -22.3443   34.4804 C   0  0  0  0  0  0  0  0  0  0  0  0
  -12.6632  -20.9376   32.3418 C   0  0  0  0  0  0  0  0  0  0  0  0
  -12.2070  -19.6899   33.0207 C   0  0  0  0  0  0  0  0  0  0  0  0
  -13.6484  -21.8023   33.1398 C   0  0  0  0  0  0  0  0  0  0  0  0
  -12.3412  -24.5949   33.6781 C   0  0  0  0  0  0  0  0  0  0  0  0
  -12.8484  -25.7134   36.2398 N   0  0  0  0  0  0  0  0  0  0  0  0
  -13.2303  -26.7375   35.2667 C   0  0  2  0  0  0  0  0  0  0  0  0
  -12.8888  -28.1659   35.8168 C   0  0  0  0  0  0  0  0  0  0  0  0
  -12.8777  -29.1594   35.0877 O   0  0  0  0  0  0  0  0  0  0  0  0
  -12.5601  -26.4272   33.9035 C   0  0  0  0  0  0  0  0  0  0  0  0
  -13.5341  -26.1188   32.7788 C   0  0  0  0  0  0  0  0  0  0  0  0
  -13.0749  -25.6505   31.5377 C   0  0  0  0  0  0  0  0  0  0  0  0
  -14.9078  -26.3696   32.9212 C   0  0  0  0  0  0  0  0  0  0  0  0
  -13.9567  -25.4553   30.4772 C   0  0  0  0  0  0  0  0  0  0  0  0
  -15.7876  -26.2045   31.8421 C   0  0  0  0  0  0  0  0  0  0  0  0
  -15.3097  -25.7246   30.6261 C   0  0  0  0  0  0  0  0  0  0  0  0
  -12.4232  -28.2516   37.1302 N   0  0  0  0  0  0  0  0  0  0  0  0
  -11.0585  -27.7780   37.4651 C   0  0  2  0  0  0  0  0  0  0  0  0
  -10.8331  -27.8915   38.9963 C   0  0  0  0  0  0  0  0  0  0  0  0
   -9.8232  -28.4259   39.4550 O   0  0  0  0  0  0  0  0  0  0  0  0
  -10.7877  -26.3687   36.8875 C   0  0  0  0  0  0  0  0  0  0  0  0
   -9.3161  -26.0212   36.9262 C   0  0  0  0  0  0  0  0  0  0  0  0
   -8.7591  -24.7608   37.0345 C   0  0  0  0  0  0  0  0  0  0  0  0
   -8.2149  -26.9310   36.8641 C   0  0  0  0  0  0  0  0  0  0  0  0
   -7.4177  -24.8882   37.2202 N   0  0  0  0  0  0  0  0  0  0  0  0
   -7.0567  -26.2047   37.1220 C   0  0  0  0  0  0  0  0  0  0  0  0
   -8.1115  -28.3222   36.6310 C   0  0  0  0  0  0  0  0  0  0  0  0
   -5.7959  -26.7996   37.2084 C   0  0  0  0  0  0  0  0  0  0  0  0
   -6.8463  -28.9122   36.6381 C   0  0  0  0  0  0  0  0  0  0  0  0
   -5.7124  -28.1685   36.9555 C   0  0  0  0  0  0  0  0  0  0  0  0
  -11.6900  -27.2389   39.8367 N   0  0  0  0  0  0  0  0  0  0  0  0
  1  2  2  0
  1  3  1  0
  4  1  1  0
  5  4  1  0
  6  5  1  0
  5  8  1  1
  6  7  2  0
 13  6  1  0
  8  9  1  0
  9 10  1  0
 10 11  1  0
 11 12  1  0
 14 13  1  0
 15 14  1  0
 14 17  1  6
 15 16  2  0
 22 15  1  0
 17 18  1  0
 18 19  1  0
 19 20  1  0
 20 21  1  0
 23 22  1  0
 24 23  1  0
 23 26  1  6
 24 25  2  0
 33 24  1  0
 26 27  1  0
 27 28  1  0
 28 29  1  0
 29 30  1  0
 30 31  2  0
 30 32  1  0
 34 33  1  0
 35 34  1  0
 34 37  1  1
 35 36  2  0
 45 35  1  0
 37 38  1  0
 38 39  2  0
 38 40  1  0
 39 41  1  0
 40 42  2  0
 41 43  2  0
 42 43  1  0
 43 44  1  0
 46 45  1  0
 47 46  1  0
 46 49  1  6
 47 48  2  0
 51 47  1  0
 49 50  1  0
 52 51  1  0
 53 52  1  0
 52 55  1  1
 53 54  2  0
 63 53  1  0
 55 56  1  0
 56 57  1  0
 57 58  1  0
 58 59  1  0
 59 60  2  0
 59 61  1  0
 62 64  2  0
 62 65  1  0
 71 62  1  0
 65 63  1  0
 65 66  1  0
 65 70  1  1
 66 69  1  0
 67 68  1  0
 69 67  1  0
 68102  2  0
 72 71  1  0
 73 72  1  0
 72 75  1  6
 73 74  2  0
 80 73  1  0
 75 76  1  0
 76 77  1  0
 77 78  2  0
 77 79  1  0
 81 80  1  0
 82 81  1  0
 81 84  1  1
 82 83  2  0
 88 82  1  0
 84 85  1  0
 85 86  1  1
 85 87  1  0
 89 88  1  0
 90 89  1  0
 89 92  1  1
 90 91  2  0
 97 90  1  0
 92 93  1  0
 93 94  1  6
 93 95  1  0
 96 98  2  0
 99 96  1  0
 96105  1  0
 97 99  1  0
 99100  1  0
 99104  1  6
100103  1  0
102101  1  0
101103  1  0
105106  1  0
106107  1  0
106109  1  6
107108  2  0
107116  1  0
109110  1  0
110111  2  0
110112  1  0
111113  1  0
112114  2  0
113115  2  0
114115  1  0
116117  1  0
117118  1  0
117120  1  1
118119  2  0
118130  1  0
120121  1  0
121122  2  0
121123  1  0
122124  1  0
123125  2  0
123126  1  0
124125  1  0
125127  1  0
126128  2  0
127129  2  0
128129  1  0
M  CHG  4  12   1  21   1  31   1  60   1
M  END
$$$$
