
     RDKit          3D

130134  0  0  0  0  0  0  0  0999 V2000
  -24.3054   -7.9026   33.6746 C   0  0  0  0  0  0  0  0  0  0  0  0
  -25.4928   -7.6381   33.4786 O   0  0  0  0  0  0  0  0  0  0  0  0
  -23.4604   -7.1695   34.6838 C   0  0  0  0  0  0  0  0  0  0  0  0
  -23.6746   -8.9591   33.0535 N   0  0  0  0  0  0  0  0  0  0  0  0
  -22.8395   -8.7632   31.8716 C   0  0  2  0  0  0  0  0  0  0  0  0
  -21.8237   -9.9139   31.8925 C   0  0  0  0  0  0  0  0  0  0  0  0
  -20.6144   -9.7042   32.0097 O   0  0  0  0  0  0  0  0  0  0  0  0
  -22.1209   -7.3942   31.8425 C   0  0  0  0  0  0  0  0  0  0  0  0
  -20.6123   -7.5085   31.5648 C   0  0  0  0  0  0  0  0  0  0  0  0
  -19.6907   -7.0775   32.7114 C   0  0  0  0  0  0  0  0  0  0  0  0
  -19.0846   -8.2718   33.4275 C   0  0  0  0  0  0  0  0  0  0  0  0
  -17.8909   -7.8488   34.1965 N   0  0  0  0  0  4  0  0  0  0  0  0
  -22.3989  -11.1714   31.8693 N   0  0  0  0  0  0  0  0  0  0  0  0
  -22.8514  -11.7955   33.1177 C   0  0  2  0  0  0  0  0  0  0  0  0
  -21.8087  -11.4951   34.2050 C   0  0  0  0  0  0  0  0  0  0  0  0
  -21.7852  -10.4205   34.7958 O   0  0  0  0  0  0  0  0  0  0  0  0
  -23.1219  -13.2881   32.8878 C   0  0  0  0  0  0  0  0  0  0  0  0
  -23.9912  -13.7018   31.6848 C   0  0  0  0  0  0  0  0  0  0  0  0
  -24.2212  -15.1962   31.4563 C   0  0  0  0  0  0  0  0  0  0  0  0
  -25.0848  -15.5167   30.2469 C   0  0  0  0  0  0  0  0  0  0  0  0
  -26.2120  -16.3796   30.6750 N   0  0  0  0  0  4  0  0  0  0  0  0
  -20.8972  -12.4942   34.4338 N   0  0  0  0  0  0  0  0  0  0  0  0
  -20.2931  -12.6673   35.7465 C   0  0  2  0  0  0  0  0  0  0  0  0
  -18.8427  -13.1734   35.5790 C   0  0  0  0  0  0  0  0  0  0  0  0
  -18.0865  -13.3666   36.5294 O   0  0  0  0  0  0  0  0  0  0  0  0
  -21.0600  -13.6899   36.6007 C   0  0  0  0  0  0  0  0  0  0  0  0
  -20.5886  -13.7031   38.0687 C   0  0  0  0  0  0  0  0  0  0  0  0
  -20.4006  -12.3441   38.7292 C   0  0  0  0  0  0  0  0  0  0  0  0
  -21.6731  -11.6964   39.0791 N   0  0  0  0  0  0  0  0  0  0  0  0
  -22.0861  -11.5394   40.3650 C   0  0  0  0  0  0  0  0  0  0  0  0
  -21.5240  -12.1996   41.3811 N   0  0  0  0  0  4  0  0  0  0  0  0
  -23.0246  -10.6242   40.6427 N   0  0  0  0  0  0  0  0  0  0  0  0
  -18.4852  -13.3976   34.2624 N   0  0  0  0  0  0  0  0  0  0  0  0
  -17.9687  -14.7021   33.8268 C   0  0  2  0  0  0  0  0  0  0  0  0
  -16.6178  -14.7593   34.5654 C   0  0  0  0  0  0  0  0  0  0  0  0
  -15.8107  -13.8346   34.5665 O   0  0  0  0  0  0  0  0  0  0  0  0
  -17.8584  -14.7878   32.2925 C   0  0  0  0  0  0  0  0  0  0  0  0
  -17.5280  -13.4551   31.6573 C   0  0  0  0  0  0  0  0  0  0  0  0
  -16.2195  -12.9530   31.6900 C   0  0  0  0  0  0  0  0  0  0  0  0
  -18.5189  -12.6991   31.0030 C   0  0  0  0  0  0  0  0  0  0  0  0
  -15.9016  -11.7528   31.0531 C   0  0  0  0  0  0  0  0  0  0  0  0
  -18.1976  -11.4929   30.3830 C   0  0  0  0  0  0  0  0  0  0  0  0
  -16.8967  -11.0399   30.3875 C   0  0  0  0  0  0  0  0  0  0  0  0
  -16.6027   -9.8680   29.7321 O   0  0  0  0  0  0  0  0  0  0  0  0
  -16.2709  -16.0148   35.0101 N   0  0  0  0  0  0  0  0  0  0  0  0
  -15.0234  -16.7148   34.6677 C   0  0  2  0  0  0  0  0  0  0  0  0
  -15.5005  -18.0411   34.0463 C   0  0  0  0  0  0  0  0  0  0  0  0
  -16.6642  -18.4350   34.1979 O   0  0  0  0  0  0  0  0  0  0  0  0
  -14.0943  -16.9095   35.8590 C   0  0  0  0  0  0  0  0  0  0  0  0
  -14.1506  -15.7668   36.7205 O   0  0  0  0  0  0  0  0  0  0  0  0
  -14.5877  -18.7722   33.3109 N   0  0  0  0  0  0  0  0  0  0  0  0
  -14.3781  -20.1771   33.6938 C   0  0  2  0  0  0  0  0  0  0  0  0
  -14.5960  -20.2272   35.2113 C   0  0  0  0  0  0  0  0  0  0  0  0
  -13.8878  -19.5434   35.9335 O   0  0  0  0  0  0  0  0  0  0  0  0
  -12.9731  -20.6900   33.3507 C   0  0  0  0  0  0  0  0  0  0  0  0
  -12.9174  -22.0842   32.7159 C   0  0  0  0  0  0  0  0  0  0  0  0
  -13.8068  -22.2498   31.4799 C   0  0  0  0  0  0  0  0  0  0  0  0
  -13.8090  -23.5671   30.7920 N   0  0  0  0  0  0  0  0  0  0  0  0
  -14.6718  -24.5887   30.8556 C   0  0  0  0  0  0  0  0  0  0  0  0
  -15.4010  -24.8829   31.9239 N   0  0  0  0  0  4  0  0  0  0  0  0
  -14.7428  -25.4000   29.7953 N   0  0  0  0  0  0  0  0  0  0  0  0
  -17.4350  -22.8228   35.4871 C   0  0  0  0  0  0  0  0  0  0  0  0
  -15.5497  -21.1164   35.6500 N   0  0  0  0  0  0  0  0  0  0  0  0
  -18.4901  -23.1414   34.9358 O   0  0  0  0  0  0  0  0  0  0  0  0
  -16.3036  -22.0244   34.7693 C   0  0  1  0  0  0  0  0  0  0  0  0
  -15.2750  -23.0591   34.1828 C   0  0  0  0  0  0  0  0  0  0  0  0
  -13.4875  -24.8803   34.6460 C   0  0  0  0  0  0  0  0  0  0  0  0
  -12.1412  -24.2628   34.3629 C   0  0  0  0  0  0  0  0  0  0  0  0
  -14.5077  -23.8954   35.2291 C   0  0  0  0  0  0  0  0  0  0  0  0
  -16.9598  -21.3200   33.5714 C   0  0  0  0  0  0  0  0  0  0  0  0
  -17.1621  -23.3961   36.7219 N   0  0  0  0  0  0  0  0  0  0  0  0
  -17.2680  -22.5198   37.8922 C   0  0  2  0  0  0  0  0  0  0  0  0
  -15.9692  -22.6649   38.7420 C   0  0  0  0  0  0  0  0  0  0  0  0
  -14.9564  -22.0188   38.4680 O   0  0  0  0  0  0  0  0  0  0  0  0
  -18.5614  -22.7497   38.6982 C   0  0  0  0  0  0  0  0  0  0  0  0
  -19.5597  -23.6485   37.9318 C   0  0  0  0  0  0  0  0  0  0  0  0
  -19.1757  -23.7672   36.4783 C   0  0  0  0  0  0  0  0  0  0  0  0
  -19.8157  -24.4143   35.6550 O   0  0  0  0  0  0  0  0  0  0  0  0
  -18.0844  -23.0115   36.1137 N   0  0  0  0  0  0  0  0  0  0  0  0
  -16.0317  -23.5073   39.8528 N   0  0  0  0  0  0  0  0  0  0  0  0
  -15.0706  -23.4359   40.9800 C   0  0  2  0  0  0  0  0  0  0  0  0
  -14.7288  -21.9417   41.2960 C   0  0  0  0  0  0  0  0  0  0  0  0
  -15.4408  -21.0167   40.8966 O   0  0  0  0  0  0  0  0  0  0  0  0
  -13.8318  -24.3242   40.7407 C   0  0  0  0  0  0  0  0  0  0  0  0
  -14.0968  -25.8179   40.4240 C   0  0  1  0  0  0  0  0  0  0  0  0
  -12.8163  -26.6373   40.3089 C   0  0  0  0  0  0  0  0  0  0  0  0
  -14.9716  -26.4331   41.5334 C   0  0  0  0  0  0  0  0  0  0  0  0
  -13.5240  -21.6357   41.8989 N   0  0  0  0  0  0  0  0  0  0  0  0
  -12.6841  -20.6829   41.1852 C   0  0  2  0  0  0  0  0  0  0  0  0
  -11.4947  -21.4511   40.5970 C   0  0  0  0  0  0  0  0  0  0  0  0
  -11.2163  -22.6005   40.9331 O   0  0  0  0  0  0  0  0  0  0  0  0
  -12.2853  -19.4682   42.0422 C   0  0  0  0  0  0  0  0  0  0  0  0
  -13.1288  -18.2097   41.7534 C   0  0  1  0  0  0  0  0  0  0  0  0
  -12.8602  -17.6253   40.3719 C   0  0  0  0  0  0  0  0  0  0  0  0
  -14.6173  -18.5104   41.8937 C   0  0  0  0  0  0  0  0  0  0  0  0
   -8.8382  -20.0151   38.5480 C   0  0  0  0  0  0  0  0  0  0  0  0
  -10.7865  -20.7526   39.6373 N   0  0  0  0  0  0  0  0  0  0  0  0
   -9.1529  -19.0746   37.8139 O   0  0  0  0  0  0  0  0  0  0  0  0
   -9.7407  -21.3011   38.7511 C   0  0  1  0  0  0  0  0  0  0  0  0
  -10.3345  -21.8141   37.4010 C   0  0  0  0  0  0  0  0  0  0  0  0
  -11.1843  -24.1779   36.7283 C   0  0  0  0  0  0  0  0  0  0  0  0
  -11.1760  -23.9769   35.2500 C   0  0  0  0  0  0  0  0  0  0  0  0
  -11.4013  -22.9110   37.5667 C   0  0  0  0  0  0  0  0  0  0  0  0
   -8.8756  -22.4316   39.3524 C   0  0  0  0  0  0  0  0  0  0  0  0
   -7.7528  -19.9925   39.3825 N   0  0  0  0  0  0  0  0  0  0  0  0
   -7.0578  -21.1270   39.9919 C   0  0  2  0  0  0  0  0  0  0  0  0
   -6.0292  -20.6238   41.0635 C   0  0  0  0  0  0  0  0  0  0  0  0
   -5.1870  -21.3737   41.5609 O   0  0  0  0  0  0  0  0  0  0  0  0
   -6.4125  -21.9929   38.8794 C   0  0  0  0  0  0  0  0  0  0  0  0
   -6.7389  -21.5454   37.4645 C   0  0  0  0  0  0  0  0  0  0  0  0
   -7.6577  -20.5100   37.2314 C   0  0  0  0  0  0  0  0  0  0  0  0
   -6.0730  -22.0968   36.3587 C   0  0  0  0  0  0  0  0  0  0  0  0
   -7.8887  -20.0368   35.9418 C   0  0  0  0  0  0  0  0  0  0  0  0
   -6.2826  -21.5957   35.0661 C   0  0  0  0  0  0  0  0  0  0  0  0
   -7.2101  -20.5786   34.8596 C   0  0  0  0  0  0  0  0  0  0  0  0
   -5.9816  -19.2504   41.3098 N   0  0  0  0  0  0  0  0  0  0  0  0
   -5.1403  -18.7238   42.4116 C   0  0  2  0  0  0  0  0  0  0  0  0
   -6.0397  -18.3729   43.6265 C   0  0  0  0  0  0  0  0  0  0  0  0
   -6.9358  -17.5334   43.5361 O   0  0  0  0  0  0  0  0  0  0  0  0
   -4.2393  -17.5608   41.9333 C   0  0  0  0  0  0  0  0  0  0  0  0
   -4.2458  -17.4309   40.4264 C   0  0  0  0  0  0  0  0  0  0  0  0
   -3.4195  -18.0813   39.5294 C   0  0  0  0  0  0  0  0  0  0  0  0
   -5.1131  -16.6133   39.6367 C   0  0  0  0  0  0  0  0  0  0  0  0
   -3.8633  -17.8369   38.2670 N   0  0  0  0  0  0  0  0  0  0  0  0
   -4.8991  -16.9431   38.3021 C   0  0  0  0  0  0  0  0  0  0  0  0
   -6.0823  -15.6324   39.9513 C   0  0  0  0  0  0  0  0  0  0  0  0
   -5.6360  -16.3800   37.2577 C   0  0  0  0  0  0  0  0  0  0  0  0
   -6.7687  -15.0077   38.9085 C   0  0  0  0  0  0  0  0  0  0  0  0
   -6.5723  -15.4004   37.5869 C   0  0  0  0  0  0  0  0  0  0  0  0
   -5.9386  -19.1300   44.7592 N   0  0  0  0  0  0  0  0  0  0  0  0
  1  2  2  0
  1  3  1  0
  4  1  1  0
  5  4  1  0
  6  5  1  0
  5  8  1  1
  6  7  2  0
 13  6  1  0
  8  9  1  0
  9 10  1  0
 10 11  1  0
 11 12  1  0
 14 13  1  0
 15 14  1  0
 14 17  1  6
 15 16  2  0
 22 15  1  0
 17 18  1  0
 18 19  1  0
 19 20  1  0
 20 21  1  0
 23 22  1  0
 24 23  1  0
 23 26  1  1
 24 25  2  0
 33 24  1  0
 26 27  1  0
 27 28  1  0
 28 29  1  0
 29 30  1  0
 30 31  2  0
 30 32  1  0
 34 33  1  0
 35 34  1  0
 34 37  1  6
 35 36  2  0
 45 35  1  0
 37 38  1  0
 38 39  2  0
 38 40  1  0
 39 41  1  0
 40 42  2  0
 41 43  2  0
 42 43  1  0
 43 44  1  0
 46 45  1  0
 47 46  1  0
 46 49  1  1
 47 48  2  0
 51 47  1  0
 49 50  1  0
 52 51  1  0
 53 52  1  0
 52 55  1  1
 53 54  2  0
 63 53  1  0
 55 56  1  0
 56 57  1  0
 57 58  1  0
 58 59  1  0
 59 60  2  0
 59 61  1  0
 62 64  2  0
 62 65  1  0
 71 62  1  0
 65 63  1  0
 65 66  1  0
 65 70  1  6
 66 69  1  0
 67 68  1  0
 69 67  1  0
 68102  2  0
 72 71  1  0
 73 72  1  0
 72 75  1  1
 73 74  2  0
 80 73  1  0
 75 76  1  0
 76 77  1  0
 77 78  2  0
 77 79  1  0
 81 80  1  0
 82 81  1  0
 81 84  1  6
 82 83  2  0
 88 82  1  0
 84 85  1  0
 85 86  1  1
 85 87  1  0
 89 88  1  0
 90 89  1  0
 89 92  1  1
 90 91  2  0
 97 90  1  0
 92 93  1  0
 93 94  1  6
 93 95  1  0
 96 98  2  0
 99 96  1  0
 96105  1  0
 97 99  1  0
 99100  1  0
 99104  1  1
100103  1  0
102101  1  0
101103  1  0
105106  1  0
106107  1  0
106109  1  6
107108  2  0
107116  1  0
109110  1  0
110111  2  0
110112  1  0
111113  1  0
112114  2  0
113115  2  0
114115  1  0
116117  1  0
117118  1  0
117120  1  6
118119  2  0
118130  1  0
120121  1  0
121122  2  0
121123  1  0
122124  1  0
123125  2  0
123126  1  0
124125  1  0
125127  1  0
126128  2  0
127129  2  0
128129  1  0
M  CHG  4  12   1  21   1  31   1  60   1
M  END
$$$$
