
     RDKit          3D

130134  0  0  0  0  0  0  0  0999 V2000
  -13.9972  -20.9197   42.9430 C   0  0  0  0  0  0  0  0  0  0  0  0
  -14.1174  -21.4081   44.0679 O   0  0  0  0  0  0  0  0  0  0  0  0
  -15.1501  -20.3091   42.1895 C   0  0  0  0  0  0  0  0  0  0  0  0
  -12.7742  -20.8038   42.3181 N   0  0  0  0  0  0  0  0  0  0  0  0
  -12.0323  -21.9777   41.8660 C   0  0  2  0  0  0  0  0  0  0  0  0
  -11.5025  -21.6154   40.4715 C   0  0  0  0  0  0  0  0  0  0  0  0
  -10.8157  -22.4037   39.8180 O   0  0  0  0  0  0  0  0  0  0  0  0
  -12.8861  -23.2660   41.8136 C   0  0  0  0  0  0  0  0  0  0  0  0
  -12.9996  -23.9724   43.1752 C   0  0  0  0  0  0  0  0  0  0  0  0
  -11.6715  -24.3545   43.8387 C   0  0  0  0  0  0  0  0  0  0  0  0
  -11.1660  -25.7022   43.3544 C   0  0  0  0  0  0  0  0  0  0  0  0
   -9.7341  -25.8602   43.7005 N   0  0  0  0  0  4  0  0  0  0  0  0
  -11.9478  -20.3934   40.0015 N   0  0  0  0  0  0  0  0  0  0  0  0
  -11.4106  -19.8474   38.7501 C   0  0  2  0  0  0  0  0  0  0  0  0
  -11.8071  -18.3655   38.6685 C   0  0  0  0  0  0  0  0  0  0  0  0
  -12.8853  -17.9629   39.0923 O   0  0  0  0  0  0  0  0  0  0  0  0
  -11.8799  -20.6998   37.5639 C   0  0  0  0  0  0  0  0  0  0  0  0
  -11.9342  -22.2303   37.7332 C   0  0  0  0  0  0  0  0  0  0  0  0
  -12.7555  -23.0275   36.7193 C   0  0  0  0  0  0  0  0  0  0  0  0
  -12.5947  -24.5350   36.8335 C   0  0  0  0  0  0  0  0  0  0  0  0
  -13.7372  -25.1939   36.1559 N   0  0  0  0  0  4  0  0  0  0  0  0
  -10.8898  -17.5468   38.0606 N   0  0  0  0  0  0  0  0  0  0  0  0
  -11.3181  -16.3915   37.2861 C   0  0  2  0  0  0  0  0  0  0  0  0
  -11.2739  -16.7400   35.7812 C   0  0  0  0  0  0  0  0  0  0  0  0
  -10.3253  -17.3193   35.2552 O   0  0  0  0  0  0  0  0  0  0  0  0
  -10.4091  -15.1742   37.5211 C   0  0  0  0  0  0  0  0  0  0  0  0
   -8.9333  -15.5713   37.7251 C   0  0  0  0  0  0  0  0  0  0  0  0
   -8.6828  -16.8999   38.4257 C   0  0  0  0  0  0  0  0  0  0  0  0
   -7.9054  -17.8414   37.6070 N   0  0  0  0  0  0  0  0  0  0  0  0
   -6.5758  -17.6826   37.3711 C   0  0  0  0  0  0  0  0  0  0  0  0
   -6.0555  -16.5188   36.9719 N   0  0  0  0  0  4  0  0  0  0  0  0
   -5.7397  -18.6957   37.6353 N   0  0  0  0  0  0  0  0  0  0  0  0
  -12.4061  -16.3484   35.0909 N   0  0  0  0  0  0  0  0  0  0  0  0
  -12.6814  -16.8482   33.7371 C   0  0  2  0  0  0  0  0  0  0  0  0
  -14.1110  -16.3243   33.5017 C   0  0  0  0  0  0  0  0  0  0  0  0
  -14.6471  -15.4838   34.2176 O   0  0  0  0  0  0  0  0  0  0  0  0
  -12.5448  -18.3807   33.6568 C   0  0  0  0  0  0  0  0  0  0  0  0
  -11.1212  -18.8498   33.8622 C   0  0  0  0  0  0  0  0  0  0  0  0
  -10.1250  -18.5404   32.9257 C   0  0  0  0  0  0  0  0  0  0  0  0
  -10.7597  -19.5887   35.0045 C   0  0  0  0  0  0  0  0  0  0  0  0
   -8.8003  -18.9212   33.1435 C   0  0  0  0  0  0  0  0  0  0  0  0
   -9.4376  -19.9802   35.2076 C   0  0  0  0  0  0  0  0  0  0  0  0
   -8.4658  -19.6264   34.2978 C   0  0  0  0  0  0  0  0  0  0  0  0
   -7.1639  -19.9909   34.5460 O   0  0  0  0  0  0  0  0  0  0  0  0
  -14.8346  -17.0525   32.5848 N   0  0  0  0  0  0  0  0  0  0  0  0
  -15.9403  -16.5227   31.7722 C   0  0  2  0  0  0  0  0  0  0  0  0
  -16.8499  -15.8187   32.7969 C   0  0  0  0  0  0  0  0  0  0  0  0
  -16.9457  -14.5849   32.8238 O   0  0  0  0  0  0  0  0  0  0  0  0
  -16.6621  -17.5934   30.9642 C   0  0  0  0  0  0  0  0  0  0  0  0
  -16.8590  -18.7656   31.7631 O   0  0  0  0  0  0  0  0  0  0  0  0
  -17.5578  -16.6108   33.6802 N   0  0  0  0  0  0  0  0  0  0  0  0
  -18.9868  -16.8245   33.4038 C   0  0  2  0  0  0  0  0  0  0  0  0
  -19.5156  -17.6493   34.5840 C   0  0  0  0  0  0  0  0  0  0  0  0
  -18.8990  -18.6430   34.9347 O   0  0  0  0  0  0  0  0  0  0  0  0
  -19.2387  -17.5738   32.0886 C   0  0  0  0  0  0  0  0  0  0  0  0
  -19.5494  -16.6896   30.8755 C   0  0  0  0  0  0  0  0  0  0  0  0
  -20.3916  -15.4514   31.1975 C   0  0  0  0  0  0  0  0  0  0  0  0
  -19.7607  -14.1157   31.0357 N   0  0  0  0  0  0  0  0  0  0  0  0
  -20.2875  -12.9310   30.7026 C   0  0  0  0  0  0  0  0  0  0  0  0
  -21.4850  -12.7759   30.1534 N   0  0  0  0  0  4  0  0  0  0  0  0
  -19.5217  -11.8483   30.8723 N   0  0  0  0  0  0  0  0  0  0  0  0
  -20.6207  -15.0721   33.7669 C   0  0  0  0  0  0  0  0  0  0  0  0
  -20.7118  -17.2301   35.1189 N   0  0  0  0  0  0  0  0  0  0  0  0
  -21.2396  -14.2704   33.0649 O   0  0  0  0  0  0  0  0  0  0  0  0
  -21.2839  -15.8879   34.9191 C   0  0  1  0  0  0  0  0  0  0  0  0
  -21.0766  -15.0930   36.2598 C   0  0  0  0  0  0  0  0  0  0  0  0
  -19.4250  -14.1987   38.0485 C   0  0  0  0  0  0  0  0  0  0  0  0
  -19.5784  -15.0706   39.2692 C   0  0  0  0  0  0  0  0  0  0  0  0
  -19.6117  -14.9511   36.7256 C   0  0  0  0  0  0  0  0  0  0  0  0
  -22.7940  -15.8959   34.6342 C   0  0  0  0  0  0  0  0  0  0  0  0
  -19.2360  -15.0728   33.6649 N   0  0  0  0  0  0  0  0  0  0  0  0
  -18.6271  -16.2167   32.9796 C   0  0  2  0  0  0  0  0  0  0  0  0
  -17.4874  -16.7863   33.8778 C   0  0  0  0  0  0  0  0  0  0  0  0
  -17.7331  -17.5821   34.7859 O   0  0  0  0  0  0  0  0  0  0  0  0
  -18.1737  -15.8838   31.5447 C   0  0  0  0  0  0  0  0  0  0  0  0
  -19.0481  -14.7763   30.9119 C   0  0  0  0  0  0  0  0  0  0  0  0
  -20.0998  -14.2971   31.8807 C   0  0  0  0  0  0  0  0  0  0  0  0
  -19.8997  -13.4380   32.7339 O   0  0  0  0  0  0  0  0  0  0  0  0
  -21.3494  -14.8381   31.6786 N   0  0  0  0  0  0  0  0  0  0  0  0
  -16.1833  -16.4011   33.5640 N   0  0  0  0  0  0  0  0  0  0  0  0
  -14.9856  -17.1517   34.0130 C   0  0  2  0  0  0  0  0  0  0  0  0
  -15.2614  -18.6904   33.9390 C   0  0  0  0  0  0  0  0  0  0  0  0
  -16.1904  -19.1498   33.2696 O   0  0  0  0  0  0  0  0  0  0  0  0
  -14.4853  -16.6711   35.3914 C   0  0  0  0  0  0  0  0  0  0  0  0
  -13.1901  -17.3296   35.9302 C   0  0  1  0  0  0  0  0  0  0  0  0
  -12.0491  -17.3115   34.9191 C   0  0  0  0  0  0  0  0  0  0  0  0
  -12.7269  -16.5922   37.2015 C   0  0  0  0  0  0  0  0  0  0  0  0
  -14.5530  -19.5455   34.7609 N   0  0  0  0  0  0  0  0  0  0  0  0
  -15.3556  -20.4081   35.6177 C   0  0  2  0  0  0  0  0  0  0  0  0
  -15.2214  -19.8990   37.0577 C   0  0  0  0  0  0  0  0  0  0  0  0
  -14.3656  -19.0834   37.3953 O   0  0  0  0  0  0  0  0  0  0  0  0
  -15.0291  -21.9025   35.4469 C   0  0  0  0  0  0  0  0  0  0  0  0
  -13.5163  -22.2018   35.4253 C   0  0  1  0  0  0  0  0  0  0  0  0
  -13.2056  -23.6799   35.6277 C   0  0  0  0  0  0  0  0  0  0  0  0
  -12.8882  -21.7281   34.1189 C   0  0  0  0  0  0  0  0  0  0  0  0
  -16.9052  -21.3015   39.9757 C   0  0  0  0  0  0  0  0  0  0  0  0
  -16.1627  -20.4109   37.9308 N   0  0  0  0  0  0  0  0  0  0  0  0
  -17.9878  -21.8337   39.7164 O   0  0  0  0  0  0  0  0  0  0  0  0
  -16.4179  -19.9492   39.3098 C   0  0  1  0  0  0  0  0  0  0  0  0
  -17.5224  -18.8463   39.3575 C   0  0  0  0  0  0  0  0  0  0  0  0
  -17.3171  -16.2559   39.2564 C   0  0  0  0  0  0  0  0  0  0  0  0
  -18.6788  -15.9301   39.7717 C   0  0  0  0  0  0  0  0  0  0  0  0
  -17.1917  -17.5972   38.5214 C   0  0  0  0  0  0  0  0  0  0  0  0
  -15.1861  -19.4249   40.0816 C   0  0  0  0  0  0  0  0  0  0  0  0
  -15.9403  -21.8884   40.7499 N   0  0  0  0  0  0  0  0  0  0  0  0
  -14.6976  -21.2972   41.2474 C   0  0  2  0  0  0  0  0  0  0  0  0
  -13.4809  -21.7795   40.3834 C   0  0  0  0  0  0  0  0  0  0  0  0
  -13.1484  -22.9652   40.3307 O   0  0  0  0  0  0  0  0  0  0  0  0
  -14.5445  -21.6161   42.7570 C   0  0  0  0  0  0  0  0  0  0  0  0
  -14.0976  -23.0368   43.0582 C   0  0  0  0  0  0  0  0  0  0  0  0
  -15.0341  -24.0336   43.3742 C   0  0  0  0  0  0  0  0  0  0  0  0
  -12.7490  -23.4102   42.9498 C   0  0  0  0  0  0  0  0  0  0  0  0
  -14.6353  -25.3553   43.5599 C   0  0  0  0  0  0  0  0  0  0  0  0
  -12.3553  -24.7470   43.1039 C   0  0  0  0  0  0  0  0  0  0  0  0
  -13.3011  -25.7141   43.4318 C   0  0  0  0  0  0  0  0  0  0  0  0
  -12.8898  -20.8445   39.5319 N   0  0  0  0  0  0  0  0  0  0  0  0
  -11.5581  -20.2807   39.8602 C   0  0  2  0  0  0  0  0  0  0  0  0
  -11.5505  -19.7976   41.3349 C   0  0  0  0  0  0  0  0  0  0  0  0
  -10.5760  -19.9862   42.0635 O   0  0  0  0  0  0  0  0  0  0  0  0
  -11.1292  -19.2020   38.8378 C   0  0  0  0  0  0  0  0  0  0  0  0
  -10.3105  -18.1087   39.4877 C   0  0  0  0  0  0  0  0  0  0  0  0
  -10.7838  -16.9578   40.0893 C   0  0  0  0  0  0  0  0  0  0  0  0
   -8.8870  -18.0571   39.6109 C   0  0  0  0  0  0  0  0  0  0  0  0
   -9.7493  -16.3301   40.7106 N   0  0  0  0  0  0  0  0  0  0  0  0
   -8.5769  -16.9808   40.4362 C   0  0  0  0  0  0  0  0  0  0  0  0
   -7.8349  -18.8549   39.1040 C   0  0  0  0  0  0  0  0  0  0  0  0
   -7.2699  -16.6806   40.8265 C   0  0  0  0  0  0  0  0  0  0  0  0
   -6.5195  -18.5153   39.4256 C   0  0  0  0  0  0  0  0  0  0  0  0
   -6.2453  -17.4665   40.2998 C   0  0  0  0  0  0  0  0  0  0  0  0
  -12.5748  -19.0065   41.7725 N   0  0  0  0  0  0  0  0  0  0  0  0
  1  2  2  0
  1  3  1  0
  4  1  1  0
  5  4  1  0
  6  5  1  0
  5  8  1  6
  6  7  2  0
 13  6  1  0
  8  9  1  0
  9 10  1  0
 10 11  1  0
 11 12  1  0
 14 13  1  0
 15 14  1  0
 14 17  1  6
 15 16  2  0
 22 15  1  0
 17 18  1  0
 18 19  1  0
 19 20  1  0
 20 21  1  0
 23 22  1  0
 24 23  1  0
 23 26  1  6
 24 25  2  0
 33 24  1  0
 26 27  1  0
 27 28  1  0
 28 29  1  0
 29 30  1  0
 30 31  2  0
 30 32  1  0
 34 33  1  0
 35 34  1  0
 34 37  1  1
 35 36  2  0
 45 35  1  0
 37 38  1  0
 38 39  2  0
 38 40  1  0
 39 41  1  0
 40 42  2  0
 41 43  2  0
 42 43  1  0
 43 44  1  0
 46 45  1  0
 47 46  1  0
 46 49  1  1
 47 48  2  0
 51 47  1  0
 49 50  1  0
 52 51  1  0
 53 52  1  0
 52 55  1  6
 53 54  2  0
 63 53  1  0
 55 56  1  0
 56 57  1  0
 57 58  1  0
 58 59  1  0
 59 60  2  0
 59 61  1  0
 62 64  2  0
 62 65  1  0
 71 62  1  0
 65 63  1  0
 65 66  1  0
 65 70  1  6
 66 69  1  0
 67 68  1  0
 69 67  1  0
 68102  2  0
 72 71  1  0
 73 72  1  0
 72 75  1  6
 73 74  2  0
 80 73  1  0
 75 76  1  0
 76 77  1  0
 77 78  2  0
 77 79  1  0
 81 80  1  0
 82 81  1  0
 81 84  1  1
 82 83  2  0
 88 82  1  0
 84 85  1  0
 85 86  1  6
 85 87  1  0
 89 88  1  0
 90 89  1  0
 89 92  1  1
 90 91  2  0
 97 90  1  0
 92 93  1  0
 93 94  1  6
 93 95  1  0
 96 98  2  0
 99 96  1  0
 96105  1  0
 97 99  1  0
 99100  1  0
 99104  1  1
100103  1  0
102101  1  0
101103  1  0
105106  1  0
106107  1  0
106109  1  1
107108  2  0
107116  1  0
109110  1  0
110111  2  0
110112  1  0
111113  1  0
112114  2  0
113115  2  0
114115  1  0
116117  1  0
117118  1  0
117120  1  6
118119  2  0
118130  1  0
120121  1  0
121122  2  0
121123  1  0
122124  1  0
123125  2  0
123126  1  0
124125  1  0
125127  1  0
126128  2  0
127129  2  0
128129  1  0
M  CHG  4  12   1  21   1  31   1  60   1
M  END
$$$$
