
     RDKit          3D

130134  0  0  0  0  0  0  0  0999 V2000
  -17.3794  -29.9565   32.3186 C   0  0  0  0  0  0  0  0  0  0  0  0
  -16.3140  -29.3834   32.5527 O   0  0  0  0  0  0  0  0  0  0  0  0
  -17.6560  -31.3745   32.7461 C   0  0  0  0  0  0  0  0  0  0  0  0
  -18.4466  -29.3137   31.7292 N   0  0  0  0  0  0  0  0  0  0  0  0
  -18.2645  -28.1058   30.9289 C   0  0  2  0  0  0  0  0  0  0  0  0
  -17.9425  -26.9923   31.9353 C   0  0  0  0  0  0  0  0  0  0  0  0
  -17.8494  -27.2220   33.1431 O   0  0  0  0  0  0  0  0  0  0  0  0
  -19.5007  -27.7371   30.0760 C   0  0  0  0  0  0  0  0  0  0  0  0
  -19.5102  -28.4198   28.6977 C   0  0  0  0  0  0  0  0  0  0  0  0
  -18.8756  -29.8141   28.6420 C   0  0  0  0  0  0  0  0  0  0  0  0
  -18.1114  -30.0350   27.3483 C   0  0  0  0  0  0  0  0  0  0  0  0
  -17.4147  -31.3420   27.3886 N   0  0  0  0  0  4  0  0  0  0  0  0
  -17.6767  -25.7671   31.3514 N   0  0  0  0  0  0  0  0  0  0  0  0
  -17.8499  -24.5319   32.1240 C   0  0  2  0  0  0  0  0  0  0  0  0
  -17.9155  -23.3577   31.1357 C   0  0  0  0  0  0  0  0  0  0  0  0
  -16.9082  -22.7487   30.7910 O   0  0  0  0  0  0  0  0  0  0  0  0
  -16.7427  -24.4162   33.1798 C   0  0  0  0  0  0  0  0  0  0  0  0
  -15.4482  -25.2277   32.9808 C   0  0  0  0  0  0  0  0  0  0  0  0
  -14.1665  -24.4538   32.6699 C   0  0  0  0  0  0  0  0  0  0  0  0
  -12.9235  -25.3227   32.5631 C   0  0  0  0  0  0  0  0  0  0  0  0
  -11.9232  -24.6300   31.7158 N   0  0  0  0  0  4  0  0  0  0  0  0
  -19.1744  -23.0256   30.7041 N   0  0  0  0  0  0  0  0  0  0  0  0
  -19.6017  -21.6355   30.6477 C   0  0  2  0  0  0  0  0  0  0  0  0
  -18.6452  -20.7716   31.5002 C   0  0  0  0  0  0  0  0  0  0  0  0
  -18.1216  -21.1759   32.5368 O   0  0  0  0  0  0  0  0  0  0  0  0
  -21.0267  -21.4508   31.1939 C   0  0  0  0  0  0  0  0  0  0  0  0
  -21.5102  -19.9899   31.0971 C   0  0  0  0  0  0  0  0  0  0  0  0
  -23.0074  -19.7858   30.9093 C   0  0  0  0  0  0  0  0  0  0  0  0
  -23.4930  -20.2712   29.6094 N   0  0  0  0  0  0  0  0  0  0  0  0
  -24.6861  -19.8867   29.0828 C   0  0  0  0  0  0  0  0  0  0  0  0
  -25.5900  -19.2010   29.7880 N   0  0  0  0  0  4  0  0  0  0  0  0
  -24.9328  -20.1174   27.7862 N   0  0  0  0  0  0  0  0  0  0  0  0
  -18.4284  -19.5098   30.9782 N   0  0  0  0  0  0  0  0  0  0  0  0
  -17.5007  -18.5702   31.6222 C   0  0  2  0  0  0  0  0  0  0  0  0
  -18.4106  -17.9177   32.6805 C   0  0  0  0  0  0  0  0  0  0  0  0
  -19.4508  -17.3280   32.4036 O   0  0  0  0  0  0  0  0  0  0  0  0
  -16.8956  -17.5814   30.6074 C   0  0  0  0  0  0  0  0  0  0  0  0
  -16.0460  -16.5175   31.2670 C   0  0  0  0  0  0  0  0  0  0  0  0
  -16.5866  -15.2614   31.5757 C   0  0  0  0  0  0  0  0  0  0  0  0
  -14.7025  -16.7690   31.6035 C   0  0  0  0  0  0  0  0  0  0  0  0
  -15.8214  -14.3004   32.2377 C   0  0  0  0  0  0  0  0  0  0  0  0
  -13.9390  -15.7985   32.2499 C   0  0  0  0  0  0  0  0  0  0  0  0
  -14.5030  -14.5873   32.5853 C   0  0  0  0  0  0  0  0  0  0  0  0
  -13.7375  -13.6659   33.2593 O   0  0  0  0  0  0  0  0  0  0  0  0
  -17.8431  -17.8226   33.9308 N   0  0  0  0  0  0  0  0  0  0  0  0
  -18.4819  -17.2008   35.1007 C   0  0  2  0  0  0  0  0  0  0  0  0
  -17.3156  -16.5210   35.8428 C   0  0  0  0  0  0  0  0  0  0  0  0
  -16.6931  -15.5822   35.3296 O   0  0  0  0  0  0  0  0  0  0  0  0
  -19.2491  -18.1914   35.9669 C   0  0  0  0  0  0  0  0  0  0  0  0
  -18.9757  -19.5320   35.5436 O   0  0  0  0  0  0  0  0  0  0  0  0
  -16.9923  -16.9910   37.1010 N   0  0  0  0  0  0  0  0  0  0  0  0
  -15.8345  -16.3833   37.7751 C   0  0  2  0  0  0  0  0  0  0  0  0
  -14.6554  -16.5630   36.8106 C   0  0  0  0  0  0  0  0  0  0  0  0
  -13.9512  -17.5548   36.9156 O   0  0  0  0  0  0  0  0  0  0  0  0
  -15.5112  -17.0408   39.1235 C   0  0  0  0  0  0  0  0  0  0  0  0
  -14.8505  -16.1260   40.1611 C   0  0  0  0  0  0  0  0  0  0  0  0
  -14.6897  -16.7583   41.5469 C   0  0  0  0  0  0  0  0  0  0  0  0
  -13.9632  -15.9854   42.5876 N   0  0  0  0  0  0  0  0  0  0  0  0
  -14.1771  -15.8699   43.9041 C   0  0  0  0  0  0  0  0  0  0  0  0
  -15.1602  -15.1584   44.4397 N   0  0  0  0  0  4  0  0  0  0  0  0
  -13.2966  -16.4538   44.7233 N   0  0  0  0  0  0  0  0  0  0  0  0
  -14.7821  -13.2267   34.8920 C   0  0  0  0  0  0  0  0  0  0  0  0
  -14.4403  -15.5289   35.9291 N   0  0  0  0  0  0  0  0  0  0  0  0
  -15.4621  -12.5279   34.1383 O   0  0  0  0  0  0  0  0  0  0  0  0
  -15.3707  -14.4056   35.7264 C   0  0  1  0  0  0  0  0  0  0  0  0
  -15.7463  -13.8540   37.1502 C   0  0  0  0  0  0  0  0  0  0  0  0
  -14.9330  -12.8641   39.4053 C   0  0  0  0  0  0  0  0  0  0  0  0
  -15.0514  -13.9567   40.4378 C   0  0  0  0  0  0  0  0  0  0  0  0
  -14.5569  -13.3731   38.0087 C   0  0  0  0  0  0  0  0  0  0  0  0
  -16.6868  -14.8089   35.0429 C   0  0  0  0  0  0  0  0  0  0  0  0
  -13.4920  -12.7956   35.1704 N   0  0  0  0  0  0  0  0  0  0  0  0
  -12.3978  -13.5547   34.5578 C   0  0  2  0  0  0  0  0  0  0  0  0
  -11.3628  -13.9184   35.6654 C   0  0  0  0  0  0  0  0  0  0  0  0
  -11.5219  -14.9081   36.3820 O   0  0  0  0  0  0  0  0  0  0  0  0
  -11.7758  -12.8365   33.3442 C   0  0  0  0  0  0  0  0  0  0  0  0
  -11.2170  -11.4465   33.7279 C   0  0  0  0  0  0  0  0  0  0  0  0
  -11.9851  -10.8542   34.8828 C   0  0  0  0  0  0  0  0  0  0  0  0
  -11.7717   -9.7359   35.3411 O   0  0  0  0  0  0  0  0  0  0  0  0
  -13.0222  -11.6364   35.3383 N   0  0  0  0  0  0  0  0  0  0  0  0
  -10.2292  -13.1101   35.7608 N   0  0  0  0  0  0  0  0  0  0  0  0
   -8.9804  -13.5407   36.4351 C   0  0  2  0  0  0  0  0  0  0  0  0
   -8.6989  -15.0485   36.1245 C   0  0  0  0  0  0  0  0  0  0  0  0
   -9.2459  -15.6283   35.1828 O   0  0  0  0  0  0  0  0  0  0  0  0
   -8.9905  -13.2031   37.9408 C   0  0  0  0  0  0  0  0  0  0  0  0
  -10.2622  -12.5084   38.4900 C   0  0  1  0  0  0  0  0  0  0  0  0
  -11.4255  -13.4729   38.6932 C   0  0  0  0  0  0  0  0  0  0  0  0
   -9.9420  -11.8391   39.8405 C   0  0  0  0  0  0  0  0  0  0  0  0
   -7.9457  -15.7933   37.0115 N   0  0  0  0  0  0  0  0  0  0  0  0
   -8.5805  -17.0017   37.5205 C   0  0  2  0  0  0  0  0  0  0  0  0
   -8.9489  -16.7580   38.9888 C   0  0  0  0  0  0  0  0  0  0  0  0
   -8.5150  -15.8039   39.6315 O   0  0  0  0  0  0  0  0  0  0  0  0
   -7.7413  -18.2703   37.2858 C   0  0  0  0  0  0  0  0  0  0  0  0
   -7.3655  -18.4929   35.8066 C   0  0  1  0  0  0  0  0  0  0  0  0
   -7.8014  -19.8577   35.2875 C   0  0  0  0  0  0  0  0  0  0  0  0
   -7.9646  -17.4024   34.9249 C   0  0  0  0  0  0  0  0  0  0  0  0
  -10.6667  -19.1243   41.1722 C   0  0  0  0  0  0  0  0  0  0  0  0
   -9.8323  -17.6826   39.5134 N   0  0  0  0  0  0  0  0  0  0  0  0
  -11.7110  -19.7642   41.0221 O   0  0  0  0  0  0  0  0  0  0  0  0
  -10.5275  -17.5877   40.8124 C   0  0  1  0  0  0  0  0  0  0  0  0
  -11.9198  -16.8938   40.6762 C   0  0  0  0  0  0  0  0  0  0  0  0
  -12.5805  -14.3899   40.9127 C   0  0  0  0  0  0  0  0  0  0  0  0
  -14.0508  -14.5881   41.0706 C   0  0  0  0  0  0  0  0  0  0  0  0
  -11.8514  -15.4683   40.1001 C   0  0  0  0  0  0  0  0  0  0  0  0
   -9.7480  -16.8765   41.9413 C   0  0  0  0  0  0  0  0  0  0  0  0
   -9.4732  -19.6964   41.5230 N   0  0  0  0  0  0  0  0  0  0  0  0
   -8.1834  -19.5867   40.8406 C   0  0  2  0  0  0  0  0  0  0  0  0
   -7.3957  -18.3351   41.3626 C   0  0  0  0  0  0  0  0  0  0  0  0
   -6.1639  -18.3066   41.3931 O   0  0  0  0  0  0  0  0  0  0  0  0
   -8.4121  -19.5736   39.3072 C   0  0  0  0  0  0  0  0  0  0  0  0
   -9.5317  -20.4833   38.8299 C   0  0  0  0  0  0  0  0  0  0  0  0
  -10.8635  -20.2406   39.2012 C   0  0  0  0  0  0  0  0  0  0  0  0
   -9.2773  -21.5399   37.9417 C   0  0  0  0  0  0  0  0  0  0  0  0
  -11.9005  -21.0180   38.6905 C   0  0  0  0  0  0  0  0  0  0  0  0
  -10.3261  -22.2989   37.4032 C   0  0  0  0  0  0  0  0  0  0  0  0
  -11.6368  -22.0480   37.7990 C   0  0  0  0  0  0  0  0  0  0  0  0
   -8.1330  -17.1800   41.6292 N   0  0  0  0  0  0  0  0  0  0  0  0
   -7.4340  -15.9082   41.9335 C   0  0  2  0  0  0  0  0  0  0  0  0
   -8.1707  -15.1763   43.0867 C   0  0  0  0  0  0  0  0  0  0  0  0
   -7.6063  -14.9369   44.1544 O   0  0  0  0  0  0  0  0  0  0  0  0
   -7.2361  -15.0494   40.6622 C   0  0  0  0  0  0  0  0  0  0  0  0
   -6.5846  -13.7217   40.9792 C   0  0  0  0  0  0  0  0  0  0  0  0
   -7.2130  -12.5612   41.3904 C   0  0  0  0  0  0  0  0  0  0  0  0
   -5.1901  -13.4114   40.9207 C   0  0  0  0  0  0  0  0  0  0  0  0
   -6.2661  -11.6522   41.7471 N   0  0  0  0  0  0  0  0  0  0  0  0
   -5.0195  -12.1454   41.4717 C   0  0  0  0  0  0  0  0  0  0  0  0
   -4.0528  -14.1164   40.4627 C   0  0  0  0  0  0  0  0  0  0  0  0
   -3.7636  -11.5569   41.6371 C   0  0  0  0  0  0  0  0  0  0  0  0
   -2.8016  -13.5036   40.5524 C   0  0  0  0  0  0  0  0  0  0  0  0
   -2.6569  -12.2593   41.1608 C   0  0  0  0  0  0  0  0  0  0  0  0
   -9.4063  -14.6461   42.8449 N   0  0  0  0  0  0  0  0  0  0  0  0
  1  2  2  0
  1  3  1  0
  4  1  1  0
  5  4  1  0
  6  5  1  0
  5  8  1  1
  6  7  2  0
 13  6  1  0
  8  9  1  0
  9 10  1  0
 10 11  1  0
 11 12  1  0
 14 13  1  0
 15 14  1  0
 14 17  1  1
 15 16  2  0
 22 15  1  0
 17 18  1  0
 18 19  1  0
 19 20  1  0
 20 21  1  0
 23 22  1  0
 24 23  1  0
 23 26  1  1
 24 25  2  0
 33 24  1  0
 26 27  1  0
 27 28  1  0
 28 29  1  0
 29 30  1  0
 30 31  2  0
 30 32  1  0
 34 33  1  0
 35 34  1  0
 34 37  1  6
 35 36  2  0
 45 35  1  0
 37 38  1  0
 38 39  2  0
 38 40  1  0
 39 41  1  0
 40 42  2  0
 41 43  2  0
 42 43  1  0
 43 44  1  0
 46 45  1  0
 47 46  1  0
 46 49  1  1
 47 48  2  0
 51 47  1  0
 49 50  1  0
 52 51  1  0
 53 52  1  0
 52 55  1  1
 53 54  2  0
 63 53  1  0
 55 56  1  0
 56 57  1  0
 57 58  1  0
 58 59  1  0
 59 60  2  0
 59 61  1  0
 62 64  2  0
 62 65  1  0
 71 62  1  0
 65 63  1  0
 65 66  1  0
 65 70  1  6
 66 69  1  0
 67 68  1  0
 69 67  1  0
 68102  2  0
 72 71  1  0
 73 72  1  0
 72 75  1  6
 73 74  2  0
 80 73  1  0
 75 76  1  0
 76 77  1  0
 77 78  2  0
 77 79  1  0
 81 80  1  0
 82 81  1  0
 81 84  1  1
 82 83  2  0
 88 82  1  0
 84 85  1  0
 85 86  1  1
 85 87  1  0
 89 88  1  0
 90 89  1  0
 89 92  1  1
 90 91  2  0
 97 90  1  0
 92 93  1  0
 93 94  1  6
 93 95  1  0
 96 98  2  0
 99 96  1  0
 96105  1  0
 97 99  1  0
 99100  1  0
 99104  1  1
100103  1  0
102101  1  0
101103  1  0
105106  1  0
106107  1  0
106109  1  6
107108  2  0
107116  1  0
109110  1  0
110111  2  0
110112  1  0
111113  1  0
112114  2  0
113115  2  0
114115  1  0
116117  1  0
117118  1  0
117120  1  6
118119  2  0
118130  1  0
120121  1  0
121122  2  0
121123  1  0
122124  1  0
123125  2  0
123126  1  0
124125  1  0
125127  1  0
126128  2  0
127129  2  0
128129  1  0
M  CHG  4  12   1  21   1  31   1  60   1
M  END
$$$$
