
     RDKit          3D

130134  0  0  0  0  0  0  0  0999 V2000
  -10.0938  -14.0703   45.8145 C   0  0  0  0  0  0  0  0  0  0  0  0
   -9.2118  -14.5504   46.5287 O   0  0  0  0  0  0  0  0  0  0  0  0
  -10.6600  -14.7911   44.6188 C   0  0  0  0  0  0  0  0  0  0  0  0
  -10.7062  -12.8709   46.1077 N   0  0  0  0  0  0  0  0  0  0  0  0
  -11.8257  -12.3702   45.3149 C   0  0  2  0  0  0  0  0  0  0  0  0
  -12.8779  -13.4877   45.3401 C   0  0  0  0  0  0  0  0  0  0  0  0
  -12.5760  -14.6513   45.6136 O   0  0  0  0  0  0  0  0  0  0  0  0
  -11.4408  -12.0085   43.8614 C   0  0  0  0  0  0  0  0  0  0  0  0
  -11.3725  -10.4920   43.6131 C   0  0  0  0  0  0  0  0  0  0  0  0
  -12.6349   -9.7016   43.9756 C   0  0  0  0  0  0  0  0  0  0  0  0
  -12.6245   -9.2565   45.4276 C   0  0  0  0  0  0  0  0  0  0  0  0
  -13.5856   -8.1461   45.6238 N   0  0  0  0  0  4  0  0  0  0  0  0
  -14.1716  -13.0458   45.1307 N   0  0  0  0  0  0  0  0  0  0  0  0
  -15.2155  -13.9942   44.7264 C   0  0  2  0  0  0  0  0  0  0  0  0
  -15.0425  -14.2815   43.2272 C   0  0  0  0  0  0  0  0  0  0  0  0
  -14.1929  -13.7066   42.5550 O   0  0  0  0  0  0  0  0  0  0  0  0
  -16.5959  -13.4498   45.1166 C   0  0  0  0  0  0  0  0  0  0  0  0
  -17.3335  -14.0973   46.3043 C   0  0  0  0  0  0  0  0  0  0  0  0
  -18.7674  -14.5756   46.0732 C   0  0  0  0  0  0  0  0  0  0  0  0
  -19.8303  -13.5345   46.3862 C   0  0  0  0  0  0  0  0  0  0  0  0
  -19.9128  -13.3572   47.8559 N   0  0  0  0  0  4  0  0  0  0  0  0
  -15.9238  -15.1908   42.7000 N   0  0  0  0  0  0  0  0  0  0  0  0
  -15.6700  -15.8148   41.4100 C   0  0  2  0  0  0  0  0  0  0  0  0
  -16.8279  -16.7811   41.0729 C   0  0  0  0  0  0  0  0  0  0  0  0
  -17.0913  -17.7733   41.7501 O   0  0  0  0  0  0  0  0  0  0  0  0
  -14.3606  -16.6202   41.4099 C   0  0  0  0  0  0  0  0  0  0  0  0
  -13.9785  -17.1236   40.0035 C   0  0  0  0  0  0  0  0  0  0  0  0
  -14.7502  -18.3299   39.4859 C   0  0  0  0  0  0  0  0  0  0  0  0
  -13.8734  -19.4216   39.0379 N   0  0  0  0  0  0  0  0  0  0  0  0
  -14.3330  -20.4857   38.3271 C   0  0  0  0  0  0  0  0  0  0  0  0
  -14.2739  -20.5326   36.9934 N   0  0  0  0  0  4  0  0  0  0  0  0
  -14.7756  -21.5672   38.9826 N   0  0  0  0  0  0  0  0  0  0  0  0
  -17.5420  -16.4149   39.9470 N   0  0  0  0  0  0  0  0  0  0  0  0
  -18.9933  -16.6276   39.8653 C   0  0  2  0  0  0  0  0  0  0  0  0
  -19.2714  -16.2810   38.3901 C   0  0  0  0  0  0  0  0  0  0  0  0
  -19.1439  -15.1512   37.9277 O   0  0  0  0  0  0  0  0  0  0  0  0
  -19.7554  -15.7522   40.8785 C   0  0  0  0  0  0  0  0  0  0  0  0
  -20.5464  -14.6471   40.2139 C   0  0  0  0  0  0  0  0  0  0  0  0
  -21.2592  -13.7168   40.9832 C   0  0  0  0  0  0  0  0  0  0  0  0
  -20.5696  -14.5148   38.8126 C   0  0  0  0  0  0  0  0  0  0  0  0
  -21.9403  -12.6622   40.3739 C   0  0  0  0  0  0  0  0  0  0  0  0
  -21.2656  -13.4685   38.2099 C   0  0  0  0  0  0  0  0  0  0  0  0
  -21.9216  -12.5386   38.9861 C   0  0  0  0  0  0  0  0  0  0  0  0
  -22.5644  -11.4945   38.3649 O   0  0  0  0  0  0  0  0  0  0  0  0
  -19.9174  -17.2741   37.6895 N   0  0  0  0  0  0  0  0  0  0  0  0
  -19.6913  -17.5875   36.2704 C   0  0  2  0  0  0  0  0  0  0  0  0
  -18.2311  -18.0763   36.2263 C   0  0  0  0  0  0  0  0  0  0  0  0
  -17.3915  -17.5154   35.5103 O   0  0  0  0  0  0  0  0  0  0  0  0
  -19.9587  -16.4097   35.3422 C   0  0  0  0  0  0  0  0  0  0  0  0
  -18.7257  -15.7800   34.9763 O   0  0  0  0  0  0  0  0  0  0  0  0
  -17.8902  -19.1573   37.0161 N   0  0  0  0  0  0  0  0  0  0  0  0
  -16.8650  -20.0776   36.5002 C   0  0  2  0  0  0  0  0  0  0  0  0
  -17.1437  -21.4256   37.1768 C   0  0  0  0  0  0  0  0  0  0  0  0
  -16.3046  -22.3094   37.1027 O   0  0  0  0  0  0  0  0  0  0  0  0
  -15.4343  -19.6209   36.8155 C   0  0  0  0  0  0  0  0  0  0  0  0
  -15.3184  -18.2941   37.5746 C   0  0  0  0  0  0  0  0  0  0  0  0
  -15.4385  -17.0495   36.6899 C   0  0  0  0  0  0  0  0  0  0  0  0
  -15.8539  -17.2352   35.2752 N   0  0  0  0  0  0  0  0  0  0  0  0
  -16.2021  -16.3441   34.3387 C   0  0  0  0  0  0  0  0  0  0  0  0
  -16.5383  -15.0867   34.5950 N   0  0  0  0  0  4  0  0  0  0  0  0
  -16.2820  -16.7783   33.0768 N   0  0  0  0  0  0  0  0  0  0  0  0
  -20.0375  -19.9019   36.7602 C   0  0  0  0  0  0  0  0  0  0  0  0
  -18.3799  -21.5551   37.7664 N   0  0  0  0  0  0  0  0  0  0  0  0
  -21.1810  -19.4435   36.7905 O   0  0  0  0  0  0  0  0  0  0  0  0
  -19.2960  -20.4316   38.0260 C   0  0  1  0  0  0  0  0  0  0  0  0
  -18.4311  -19.2559   38.6108 C   0  0  0  0  0  0  0  0  0  0  0  0
  -16.4264  -17.6400   38.2990 C   0  0  0  0  0  0  0  0  0  0  0  0
  -15.3199  -18.1268   39.2005 C   0  0  0  0  0  0  0  0  0  0  0  0
  -17.2799  -18.7673   37.7059 C   0  0  0  0  0  0  0  0  0  0  0  0
  -20.3816  -20.7473   39.0670 C   0  0  0  0  0  0  0  0  0  0  0  0
  -19.3110  -19.7269   35.5900 N   0  0  0  0  0  0  0  0  0  0  0  0
  -19.0998  -20.9181   34.7621 C   0  0  2  0  0  0  0  0  0  0  0  0
  -17.5830  -21.0224   34.4175 C   0  0  0  0  0  0  0  0  0  0  0  0
  -16.7885  -21.5430   35.2023 O   0  0  0  0  0  0  0  0  0  0  0  0
  -20.0177  -20.9587   33.5248 C   0  0  0  0  0  0  0  0  0  0  0  0
  -19.9862  -22.3427   32.8355 C   0  0  0  0  0  0  0  0  0  0  0  0
  -18.6276  -22.9836   32.9696 C   0  0  0  0  0  0  0  0  0  0  0  0
  -17.9220  -23.2914   32.0138 O   0  0  0  0  0  0  0  0  0  0  0  0
  -18.1879  -23.1206   34.2668 N   0  0  0  0  0  0  0  0  0  0  0  0
  -17.1867  -20.5573   33.1629 N   0  0  0  0  0  0  0  0  0  0  0  0
  -15.9136  -20.9560   32.5151 C   0  0  2  0  0  0  0  0  0  0  0  0
  -15.6299  -22.4715   32.7835 C   0  0  0  0  0  0  0  0  0  0  0  0
  -16.5199  -23.2401   33.1567 O   0  0  0  0  0  0  0  0  0  0  0  0
  -14.7488  -20.0224   32.9062 C   0  0  0  0  0  0  0  0  0  0  0  0
  -14.9591  -18.5067   32.6613 C   0  0  1  0  0  0  0  0  0  0  0  0
  -15.2478  -18.1750   31.2014 C   0  0  0  0  0  0  0  0  0  0  0  0
  -16.1374  -18.0044   33.5178 C   0  0  0  0  0  0  0  0  0  0  0  0
  -14.3276  -22.9318   32.7560 N   0  0  0  0  0  0  0  0  0  0  0  0
  -13.8725  -23.6133   33.9605 C   0  0  2  0  0  0  0  0  0  0  0  0
  -12.8831  -22.6890   34.6799 C   0  0  0  0  0  0  0  0  0  0  0  0
  -12.3991  -21.6925   34.1467 O   0  0  0  0  0  0  0  0  0  0  0  0
  -13.3265  -25.0259   33.6861 C   0  0  0  0  0  0  0  0  0  0  0  0
  -13.6851  -25.5612   32.2848 C   0  0  1  0  0  0  0  0  0  0  0  0
  -15.1815  -25.7871   32.1060 C   0  0  0  0  0  0  0  0  0  0  0  0
  -13.1839  -24.6156   31.1984 C   0  0  0  0  0  0  0  0  0  0  0  0
  -11.2226  -23.4046   37.8497 C   0  0  0  0  0  0  0  0  0  0  0  0
  -12.6099  -23.0552   35.9844 N   0  0  0  0  0  0  0  0  0  0  0  0
  -11.2853  -23.4457   39.0813 O   0  0  0  0  0  0  0  0  0  0  0  0
  -11.8765  -22.2514   36.9824 C   0  0  1  0  0  0  0  0  0  0  0  0
  -12.8384  -21.3602   37.8302 C   0  0  0  0  0  0  0  0  0  0  0  0
  -13.6348  -18.9138   37.4515 C   0  0  0  0  0  0  0  0  0  0  0  0
  -14.1443  -18.6568   38.8299 C   0  0  0  0  0  0  0  0  0  0  0  0
  -13.6768  -20.3778   36.9931 C   0  0  0  0  0  0  0  0  0  0  0  0
  -10.7554  -21.3465   36.4236 C   0  0  0  0  0  0  0  0  0  0  0  0
  -10.7143  -24.4198   37.0843 N   0  0  0  0  0  0  0  0  0  0  0  0
  -10.4942  -24.4376   35.6377 C   0  0  2  0  0  0  0  0  0  0  0  0
  -11.5895  -23.5834   34.9095 C   0  0  0  0  0  0  0  0  0  0  0  0
  -12.2359  -22.7145   35.4978 O   0  0  0  0  0  0  0  0  0  0  0  0
  -10.4318  -25.9063   35.1448 C   0  0  0  0  0  0  0  0  0  0  0  0
  -11.6853  -26.7181   35.4248 C   0  0  0  0  0  0  0  0  0  0  0  0
  -12.6976  -26.8345   34.4592 C   0  0  0  0  0  0  0  0  0  0  0  0
  -11.8296  -27.4384   36.6208 C   0  0  0  0  0  0  0  0  0  0  0  0
  -13.8036  -27.6524   34.6788 C   0  0  0  0  0  0  0  0  0  0  0  0
  -12.9271  -28.2869   36.8248 C   0  0  0  0  0  0  0  0  0  0  0  0
  -13.9248  -28.3732   35.8581 C   0  0  0  0  0  0  0  0  0  0  0  0
  -11.6884  -23.7165   33.5234 N   0  0  0  0  0  0  0  0  0  0  0  0
  -11.6516  -22.5125   32.6586 C   0  0  2  0  0  0  0  0  0  0  0  0
  -11.8261  -22.9354   31.1757 C   0  0  0  0  0  0  0  0  0  0  0  0
  -11.9656  -24.1175   30.8612 O   0  0  0  0  0  0  0  0  0  0  0  0
  -10.3923  -21.6558   32.9293 C   0  0  0  0  0  0  0  0  0  0  0  0
   -9.1223  -22.4619   32.7708 C   0  0  0  0  0  0  0  0  0  0  0  0
   -8.6032  -23.3843   33.6598 C   0  0  0  0  0  0  0  0  0  0  0  0
   -8.2148  -22.4300   31.6664 C   0  0  0  0  0  0  0  0  0  0  0  0
   -7.5557  -24.0208   33.0701 N   0  0  0  0  0  0  0  0  0  0  0  0
   -7.2961  -23.4586   31.8496 C   0  0  0  0  0  0  0  0  0  0  0  0
   -8.1137  -21.6211   30.5106 C   0  0  0  0  0  0  0  0  0  0  0  0
   -6.3030  -23.7594   30.9146 C   0  0  0  0  0  0  0  0  0  0  0  0
   -7.0761  -21.8649   29.6089 C   0  0  0  0  0  0  0  0  0  0  0  0
   -6.2072  -22.9377   29.7918 C   0  0  0  0  0  0  0  0  0  0  0  0
  -11.9937  -21.9632   30.2306 N   0  0  0  0  0  0  0  0  0  0  0  0
  1  2  2  0
  1  3  1  0
  4  1  1  0
  5  4  1  0
  6  5  1  0
  5  8  1  6
  6  7  2  0
 13  6  1  0
  8  9  1  0
  9 10  1  0
 10 11  1  0
 11 12  1  0
 14 13  1  0
 15 14  1  0
 14 17  1  6
 15 16  2  0
 22 15  1  0
 17 18  1  0
 18 19  1  0
 19 20  1  0
 20 21  1  0
 23 22  1  0
 24 23  1  0
 23 26  1  1
 24 25  2  0
 33 24  1  0
 26 27  1  0
 27 28  1  0
 28 29  1  0
 29 30  1  0
 30 31  2  0
 30 32  1  0
 34 33  1  0
 35 34  1  0
 34 37  1  1
 35 36  2  0
 45 35  1  0
 37 38  1  0
 38 39  2  0
 38 40  1  0
 39 41  1  0
 40 42  2  0
 41 43  2  0
 42 43  1  0
 43 44  1  0
 46 45  1  0
 47 46  1  0
 46 49  1  6
 47 48  2  0
 51 47  1  0
 49 50  1  0
 52 51  1  0
 53 52  1  0
 52 55  1  1
 53 54  2  0
 63 53  1  0
 55 56  1  0
 56 57  1  0
 57 58  1  0
 58 59  1  0
 59 60  2  0
 59 61  1  0
 62 64  2  0
 62 65  1  0
 71 62  1  0
 65 63  1  0
 65 66  1  0
 65 70  1  1
 66 69  1  0
 67 68  1  0
 69 67  1  0
 68102  2  0
 72 71  1  0
 73 72  1  0
 72 75  1  6
 73 74  2  0
 80 73  1  0
 75 76  1  0
 76 77  1  0
 77 78  2  0
 77 79  1  0
 81 80  1  0
 82 81  1  0
 81 84  1  1
 82 83  2  0
 88 82  1  0
 84 85  1  0
 85 86  1  6
 85 87  1  0
 89 88  1  0
 90 89  1  0
 89 92  1  6
 90 91  2  0
 97 90  1  0
 92 93  1  0
 93 94  1  1
 93 95  1  0
 96 98  2  0
 99 96  1  0
 96105  1  0
 97 99  1  0
 99100  1  0
 99104  1  6
100103  1  0
102101  1  0
101103  1  0
105106  1  0
106107  1  0
106109  1  6
107108  2  0
107116  1  0
109110  1  0
110111  2  0
110112  1  0
111113  1  0
112114  2  0
113115  2  0
114115  1  0
116117  1  0
117118  1  0
117120  1  6
118119  2  0
118130  1  0
120121  1  0
121122  2  0
121123  1  0
122124  1  0
123125  2  0
123126  1  0
124125  1  0
125127  1  0
126128  2  0
127129  2  0
128129  1  0
M  CHG  4  12   1  21   1  31   1  60   1
M  END
$$$$
