
     RDKit          3D

130134  0  0  0  0  0  0  0  0999 V2000
  -24.2579  -23.3982   37.8339 C   0  0  0  0  0  0  0  0  0  0  0  0
  -23.8071  -24.5391   37.9502 O   0  0  0  0  0  0  0  0  0  0  0  0
  -25.2127  -22.7912   38.8287 C   0  0  0  0  0  0  0  0  0  0  0  0
  -23.8495  -22.5443   36.8320 N   0  0  0  0  0  0  0  0  0  0  0  0
  -24.0142  -22.8860   35.4218 C   0  0  2  0  0  0  0  0  0  0  0  0
  -23.5105  -21.6631   34.6424 C   0  0  0  0  0  0  0  0  0  0  0  0
  -24.1535  -21.1870   33.7043 O   0  0  0  0  0  0  0  0  0  0  0  0
  -25.4726  -23.2243   35.0340 C   0  0  0  0  0  0  0  0  0  0  0  0
  -25.6350  -24.6475   34.4735 C   0  0  0  0  0  0  0  0  0  0  0  0
  -24.4794  -25.6120   34.7635 C   0  0  0  0  0  0  0  0  0  0  0  0
  -24.1077  -25.6209   36.2360 C   0  0  0  0  0  0  0  0  0  0  0  0
  -23.5618  -26.9458   36.6126 N   0  0  0  0  0  4  0  0  0  0  0  0
  -22.3500  -21.1107   35.1529 N   0  0  0  0  0  0  0  0  0  0  0  0
  -21.7663  -19.9190   34.5270 C   0  0  2  0  0  0  0  0  0  0  0  0
  -20.8875  -20.3795   33.3543 C   0  0  0  0  0  0  0  0  0  0  0  0
  -20.2530  -21.4283   33.3977 O   0  0  0  0  0  0  0  0  0  0  0  0
  -21.0339  -19.0800   35.5823 C   0  0  0  0  0  0  0  0  0  0  0  0
  -21.8680  -18.3637   36.6617 C   0  0  0  0  0  0  0  0  0  0  0  0
  -21.1198  -17.5084   37.6849 C   0  0  0  0  0  0  0  0  0  0  0  0
  -19.6056  -17.6110   37.5956 C   0  0  0  0  0  0  0  0  0  0  0  0
  -19.2413  -18.2525   36.3095 N   0  0  0  0  0  4  0  0  0  0  0  0
  -20.8399  -19.5207   32.2859 N   0  0  0  0  0  0  0  0  0  0  0  0
  -19.9803  -19.7961   31.1443 C   0  0  2  0  0  0  0  0  0  0  0  0
  -18.5778  -19.2020   31.4053 C   0  0  0  0  0  0  0  0  0  0  0  0
  -17.5968  -19.4720   30.7147 O   0  0  0  0  0  0  0  0  0  0  0  0
  -20.5288  -19.1744   29.8498 C   0  0  0  0  0  0  0  0  0  0  0  0
  -19.9912  -19.8748   28.5858 C   0  0  0  0  0  0  0  0  0  0  0  0
  -18.9138  -20.9282   28.8047 C   0  0  0  0  0  0  0  0  0  0  0  0
  -19.3464  -22.2789   28.4180 N   0  0  0  0  0  0  0  0  0  0  0  0
  -18.7428  -22.9856   27.4255 C   0  0  0  0  0  0  0  0  0  0  0  0
  -19.3491  -23.9978   26.7993 N   0  0  0  0  0  4  0  0  0  0  0  0
  -17.5352  -22.6006   26.9908 N   0  0  0  0  0  0  0  0  0  0  0  0
  -18.5383  -18.3323   32.4794 N   0  0  0  0  0  0  0  0  0  0  0  0
  -17.3361  -17.5403   32.7719 C   0  0  2  0  0  0  0  0  0  0  0  0
  -16.3318  -18.6409   33.1644 C   0  0  0  0  0  0  0  0  0  0  0  0
  -16.6699  -19.7663   33.5189 O   0  0  0  0  0  0  0  0  0  0  0  0
  -17.5964  -16.4952   33.8736 C   0  0  0  0  0  0  0  0  0  0  0  0
  -18.1335  -15.1919   33.3243 C   0  0  0  0  0  0  0  0  0  0  0  0
  -19.4594  -15.0969   32.8789 C   0  0  0  0  0  0  0  0  0  0  0  0
  -17.3238  -14.0419   33.2660 C   0  0  0  0  0  0  0  0  0  0  0  0
  -19.9732  -13.8804   32.4278 C   0  0  0  0  0  0  0  0  0  0  0  0
  -17.8389  -12.8341   32.7988 C   0  0  0  0  0  0  0  0  0  0  0  0
  -19.1574  -12.7511   32.4088 C   0  0  0  0  0  0  0  0  0  0  0  0
  -19.6481  -11.5367   31.9919 O   0  0  0  0  0  0  0  0  0  0  0  0
  -15.0417  -18.1926   33.3342 N   0  0  0  0  0  0  0  0  0  0  0  0
  -13.9001  -19.0370   33.7180 C   0  0  2  0  0  0  0  0  0  0  0  0
  -14.1169  -19.2931   35.2215 C   0  0  0  0  0  0  0  0  0  0  0  0
  -14.7016  -18.4654   35.9323 O   0  0  0  0  0  0  0  0  0  0  0  0
  -12.5500  -18.4052   33.4049 C   0  0  0  0  0  0  0  0  0  0  0  0
  -12.3255  -17.2743   34.2544 O   0  0  0  0  0  0  0  0  0  0  0  0
  -13.6415  -20.4789   35.7473 N   0  0  0  0  0  0  0  0  0  0  0  0
  -13.7632  -20.6734   37.2005 C   0  0  2  0  0  0  0  0  0  0  0  0
  -12.5481  -19.9662   37.8138 C   0  0  0  0  0  0  0  0  0  0  0  0
  -11.4417  -20.1747   37.3415 O   0  0  0  0  0  0  0  0  0  0  0  0
  -13.7687  -22.1522   37.6102 C   0  0  0  0  0  0  0  0  0  0  0  0
  -14.8420  -22.5494   38.6301 C   0  0  0  0  0  0  0  0  0  0  0  0
  -14.8189  -24.0292   39.0250 C   0  0  0  0  0  0  0  0  0  0  0  0
  -13.9904  -24.9567   38.2115 N   0  0  0  0  0  0  0  0  0  0  0  0
  -14.3370  -25.9884   37.4320 C   0  0  0  0  0  0  0  0  0  0  0  0
  -15.5153  -26.5958   37.4801 N   0  0  0  0  0  4  0  0  0  0  0  0
  -13.4049  -26.4751   36.6064 N   0  0  0  0  0  0  0  0  0  0  0  0
  -14.9749  -18.0400   39.5944 C   0  0  0  0  0  0  0  0  0  0  0  0
  -12.8030  -19.1897   38.9205 N   0  0  0  0  0  0  0  0  0  0  0  0
  -16.2029  -18.1182   39.6621 O   0  0  0  0  0  0  0  0  0  0  0  0
  -14.0319  -19.2752   39.7275 C   0  0  1  0  0  0  0  0  0  0  0  0
  -13.5896  -19.3896   41.2321 C   0  0  0  0  0  0  0  0  0  0  0  0
  -12.2743  -18.3624   43.2174 C   0  0  0  0  0  0  0  0  0  0  0  0
  -11.0224  -19.1846   43.3930 C   0  0  0  0  0  0  0  0  0  0  0  0
  -12.7227  -18.2254   41.7576 C   0  0  0  0  0  0  0  0  0  0  0  0
  -14.8889  -20.5131   39.4192 C   0  0  0  0  0  0  0  0  0  0  0  0
  -14.4140  -16.7703   39.6255 N   0  0  0  0  0  0  0  0  0  0  0  0
  -13.8535  -16.2673   38.3678 C   0  0  2  0  0  0  0  0  0  0  0  0
  -12.4122  -15.7396   38.6407 C   0  0  0  0  0  0  0  0  0  0  0  0
  -11.4478  -16.5065   38.6538 O   0  0  0  0  0  0  0  0  0  0  0  0
  -14.7665  -15.2374   37.6742 C   0  0  0  0  0  0  0  0  0  0  0  0
  -16.2497  -15.4341   38.0653 C   0  0  0  0  0  0  0  0  0  0  0  0
  -16.7511  -16.7864   37.6245 C   0  0  0  0  0  0  0  0  0  0  0  0
  -16.6236  -17.2220   36.4843 O   0  0  0  0  0  0  0  0  0  0  0  0
  -17.2940  -17.5494   38.6335 N   0  0  0  0  0  0  0  0  0  0  0  0
  -12.2645  -14.3618   38.8056 N   0  0  0  0  0  0  0  0  0  0  0  0
  -10.9676  -13.6603   38.6463 C   0  0  2  0  0  0  0  0  0  0  0  0
  -10.1712  -14.2767   37.4484 C   0  0  0  0  0  0  0  0  0  0  0  0
  -10.7253  -14.9700   36.5914 O   0  0  0  0  0  0  0  0  0  0  0  0
  -10.1715  -13.6098   39.9672 C   0  0  0  0  0  0  0  0  0  0  0  0
   -8.6263  -13.6063   39.8491 C   0  0  1  0  0  0  0  0  0  0  0  0
   -7.9509  -14.5266   40.8597 C   0  0  0  0  0  0  0  0  0  0  0  0
   -8.2162  -14.0530   38.4325 C   0  0  0  0  0  0  0  0  0  0  0  0
   -8.7933  -14.1779   37.4290 N   0  0  0  0  0  0  0  0  0  0  0  0
   -8.0708  -15.4380   37.3180 C   0  0  2  0  0  0  0  0  0  0  0  0
   -7.4189  -15.7289   38.6749 C   0  0  0  0  0  0  0  0  0  0  0  0
   -7.3318  -14.8835   39.5633 O   0  0  0  0  0  0  0  0  0  0  0  0
   -7.0916  -15.4708   36.1309 C   0  0  0  0  0  0  0  0  0  0  0  0
   -7.7343  -15.9639   34.8185 C   0  0  1  0  0  0  0  0  0  0  0  0
   -7.4444  -17.4333   34.5368 C   0  0  0  0  0  0  0  0  0  0  0  0
   -9.2428  -15.7412   34.8361 C   0  0  0  0  0  0  0  0  0  0  0  0
   -5.4497  -18.6889   39.4983 C   0  0  0  0  0  0  0  0  0  0  0  0
   -6.9691  -17.0276   38.8219 N   0  0  0  0  0  0  0  0  0  0  0  0
   -4.6108  -19.2635   40.1972 O   0  0  0  0  0  0  0  0  0  0  0  0
   -6.5018  -17.6541   40.0744 C   0  0  1  0  0  0  0  0  0  0  0  0
   -7.6638  -18.3684   40.8348 C   0  0  0  0  0  0  0  0  0  0  0  0
   -9.2643  -17.4761   42.6799 C   0  0  0  0  0  0  0  0  0  0  0  0
   -9.7577  -18.7966   43.1682 C   0  0  0  0  0  0  0  0  0  0  0  0
   -8.8294  -17.4355   41.2088 C   0  0  0  0  0  0  0  0  0  0  0  0
   -5.7870  -16.7132   41.0703 C   0  0  0  0  0  0  0  0  0  0  0  0
   -5.6674  -18.9870   38.1797 N   0  0  0  0  0  0  0  0  0  0  0  0
   -6.8413  -18.6733   37.3643 C   0  0  2  0  0  0  0  0  0  0  0  0
   -8.1508  -18.8252   38.2136 C   0  0  0  0  0  0  0  0  0  0  0  0
   -8.5850  -19.9286   38.5500 O   0  0  0  0  0  0  0  0  0  0  0  0
   -6.8309  -19.5532   36.0877 C   0  0  0  0  0  0  0  0  0  0  0  0
   -7.5128  -18.9244   34.8842 C   0  0  0  0  0  0  0  0  0  0  0  0
   -7.9276  -17.5836   34.9116 C   0  0  0  0  0  0  0  0  0  0  0  0
   -7.6734  -19.6396   33.6872 C   0  0  0  0  0  0  0  0  0  0  0  0
   -8.4687  -16.9800   33.7787 C   0  0  0  0  0  0  0  0  0  0  0  0
   -8.1871  -19.0198   32.5392 C   0  0  0  0  0  0  0  0  0  0  0  0
   -8.6051  -17.6934   32.5965 C   0  0  0  0  0  0  0  0  0  0  0  0
   -8.7180  -17.6587   38.7297 N   0  0  0  0  0  0  0  0  0  0  0  0
  -10.1305  -17.6583   39.1814 C   0  0  2  0  0  0  0  0  0  0  0  0
  -11.0112  -16.9405   38.1244 C   0  0  0  0  0  0  0  0  0  0  0  0
  -10.6082  -16.7578   36.9755 O   0  0  0  0  0  0  0  0  0  0  0  0
  -10.2696  -17.0901   40.6136 C   0  0  0  0  0  0  0  0  0  0  0  0
   -9.0192  -17.3230   41.4321 C   0  0  0  0  0  0  0  0  0  0  0  0
   -7.8617  -17.9591   41.0245 C   0  0  0  0  0  0  0  0  0  0  0  0
   -8.7900  -16.9242   42.7859 C   0  0  0  0  0  0  0  0  0  0  0  0
   -6.9119  -17.8001   41.9851 N   0  0  0  0  0  0  0  0  0  0  0  0
   -7.4511  -17.1696   43.0736 C   0  0  0  0  0  0  0  0  0  0  0  0
   -9.6101  -16.3516   43.7858 C   0  0  0  0  0  0  0  0  0  0  0  0
   -6.8670  -16.8298   44.2961 C   0  0  0  0  0  0  0  0  0  0  0  0
   -9.0536  -16.0808   45.0372 C   0  0  0  0  0  0  0  0  0  0  0  0
   -7.6968  -16.2851   45.2756 C   0  0  0  0  0  0  0  0  0  0  0  0
  -12.3121  -16.6607   38.4338 N   0  0  0  0  0  0  0  0  0  0  0  0
  1  2  2  0
  1  3  1  0
  4  1  1  0
  5  4  1  0
  6  5  1  0
  5  8  1  1
  6  7  2  0
 13  6  1  0
  8  9  1  0
  9 10  1  0
 10 11  1  0
 11 12  1  0
 14 13  1  0
 15 14  1  0
 14 17  1  1
 15 16  2  0
 22 15  1  0
 17 18  1  0
 18 19  1  0
 19 20  1  0
 20 21  1  0
 23 22  1  0
 24 23  1  0
 23 26  1  6
 24 25  2  0
 33 24  1  0
 26 27  1  0
 27 28  1  0
 28 29  1  0
 29 30  1  0
 30 31  2  0
 30 32  1  0
 34 33  1  0
 35 34  1  0
 34 37  1  1
 35 36  2  0
 45 35  1  0
 37 38  1  0
 38 39  2  0
 38 40  1  0
 39 41  1  0
 40 42  2  0
 41 43  2  0
 42 43  1  0
 43 44  1  0
 46 45  1  0
 47 46  1  0
 46 49  1  1
 47 48  2  0
 51 47  1  0
 49 50  1  0
 52 51  1  0
 53 52  1  0
 52 55  1  6
 53 54  2  0
 63 53  1  0
 55 56  1  0
 56 57  1  0
 57 58  1  0
 58 59  1  0
 59 60  2  0
 59 61  1  0
 62 64  2  0
 62 65  1  0
 71 62  1  0
 65 63  1  0
 65 66  1  0
 65 70  1  6
 66 69  1  0
 67 68  1  0
 69 67  1  0
 68102  2  0
 72 71  1  0
 73 72  1  0
 72 75  1  1
 73 74  2  0
 80 73  1  0
 75 76  1  0
 76 77  1  0
 77 78  2  0
 77 79  1  0
 81 80  1  0
 82 81  1  0
 81 84  1  1
 82 83  2  0
 88 82  1  0
 84 85  1  0
 85 86  1  1
 85 87  1  0
 89 88  1  0
 90 89  1  0
 89 92  1  6
 90 91  2  0
 97 90  1  0
 92 93  1  0
 93 94  1  1
 93 95  1  0
 96 98  2  0
 99 96  1  0
 96105  1  0
 97 99  1  0
 99100  1  0
 99104  1  1
100103  1  0
102101  1  0
101103  1  0
105106  1  0
106107  1  0
106109  1  6
107108  2  0
107116  1  0
109110  1  0
110111  2  0
110112  1  0
111113  1  0
112114  2  0
113115  2  0
114115  1  0
116117  1  0
117118  1  0
117120  1  1
118119  2  0
118130  1  0
120121  1  0
121122  2  0
121123  1  0
122124  1  0
123125  2  0
123126  1  0
124125  1  0
125127  1  0
126128  2  0
127129  2  0
128129  1  0
M  CHG  4  12   1  21   1  31   1  60   1
M  END
$$$$
