
     RDKit          3D

130134  0  0  0  0  0  0  0  0999 V2000
  -13.5376  -21.4466   36.9590 C   0  0  0  0  0  0  0  0  0  0  0  0
  -13.5417  -20.6678   37.9140 O   0  0  0  0  0  0  0  0  0  0  0  0
  -12.2947  -22.1558   36.4879 C   0  0  0  0  0  0  0  0  0  0  0  0
  -14.6928  -21.8093   36.3005 N   0  0  0  0  0  0  0  0  0  0  0  0
  -15.4669  -22.9803   36.7032 C   0  0  2  0  0  0  0  0  0  0  0  0
  -15.1979  -24.0397   35.6253 C   0  0  0  0  0  0  0  0  0  0  0  0
  -14.2461  -24.8188   35.7104 O   0  0  0  0  0  0  0  0  0  0  0  0
  -16.9824  -22.7032   36.8374 C   0  0  0  0  0  0  0  0  0  0  0  0
  -17.3085  -21.6094   37.8685 C   0  0  0  0  0  0  0  0  0  0  0  0
  -16.1293  -21.1263   38.7206 C   0  0  0  0  0  0  0  0  0  0  0  0
  -16.5931  -20.3153   39.9179 C   0  0  0  0  0  0  0  0  0  0  0  0
  -15.5147  -19.3994   40.3576 N   0  0  0  0  0  4  0  0  0  0  0  0
  -16.1626  -24.0915   34.6357 N   0  0  0  0  0  0  0  0  0  0  0  0
  -16.0096  -25.0181   33.5084 C   0  0  2  0  0  0  0  0  0  0  0  0
  -17.2202  -24.8411   32.5794 C   0  0  0  0  0  0  0  0  0  0  0  0
  -18.3678  -25.0117   32.9771 O   0  0  0  0  0  0  0  0  0  0  0  0
  -15.8089  -26.4470   34.0298 C   0  0  0  0  0  0  0  0  0  0  0  0
  -16.6305  -26.9077   35.2490 C   0  0  0  0  0  0  0  0  0  0  0  0
  -16.8617  -28.4093   35.4222 C   0  0  0  0  0  0  0  0  0  0  0  0
  -17.6686  -28.7780   36.6569 C   0  0  0  0  0  0  0  0  0  0  0  0
  -17.8175  -30.2522   36.7124 N   0  0  0  0  0  4  0  0  0  0  0  0
  -16.9192  -24.5181   31.2808 N   0  0  0  0  0  0  0  0  0  0  0  0
  -17.5578  -23.3862   30.6258 C   0  0  2  0  0  0  0  0  0  0  0  0
  -17.5550  -22.1733   31.5832 C   0  0  0  0  0  0  0  0  0  0  0  0
  -16.9757  -22.1772   32.6679 O   0  0  0  0  0  0  0  0  0  0  0  0
  -19.0158  -23.6911   30.2456 C   0  0  0  0  0  0  0  0  0  0  0  0
  -19.1276  -24.8000   29.1802 C   0  0  0  0  0  0  0  0  0  0  0  0
  -20.5363  -25.1660   28.7326 C   0  0  0  0  0  0  0  0  0  0  0  0
  -20.5520  -26.0845   27.5849 N   0  0  0  0  0  0  0  0  0  0  0  0
  -20.9943  -27.3668   27.6786 C   0  0  0  0  0  0  0  0  0  0  0  0
  -21.0451  -28.1836   26.6228 N   0  0  0  0  0  4  0  0  0  0  0  0
  -21.3031  -27.8650   28.8836 N   0  0  0  0  0  0  0  0  0  0  0  0
  -18.2550  -21.0847   31.0965 N   0  0  0  0  0  0  0  0  0  0  0  0
  -18.5878  -19.9462   31.9631 C   0  0  2  0  0  0  0  0  0  0  0  0
  -17.2720  -19.7591   32.7425 C   0  0  0  0  0  0  0  0  0  0  0  0
  -16.8065  -20.6113   33.4932 O   0  0  0  0  0  0  0  0  0  0  0  0
  -19.8139  -20.2426   32.8477 C   0  0  0  0  0  0  0  0  0  0  0  0
  -21.0403  -20.6059   32.0398 C   0  0  0  0  0  0  0  0  0  0  0  0
  -22.2384  -20.9560   32.6783 C   0  0  0  0  0  0  0  0  0  0  0  0
  -21.0140  -20.5821   30.6326 C   0  0  0  0  0  0  0  0  0  0  0  0
  -23.3864  -21.2333   31.9350 C   0  0  0  0  0  0  0  0  0  0  0  0
  -22.1601  -20.8764   29.8961 C   0  0  0  0  0  0  0  0  0  0  0  0
  -23.3391  -21.1732   30.5437 C   0  0  0  0  0  0  0  0  0  0  0  0
  -24.4629  -21.4183   29.7912 O   0  0  0  0  0  0  0  0  0  0  0  0
  -16.7899  -18.4700   32.7341 N   0  0  0  0  0  0  0  0  0  0  0  0
  -15.7023  -17.9718   33.5899 C   0  0  2  0  0  0  0  0  0  0  0  0
  -16.4032  -17.6259   34.9173 C   0  0  0  0  0  0  0  0  0  0  0  0
  -17.5703  -17.9772   35.1334 O   0  0  0  0  0  0  0  0  0  0  0  0
  -14.9487  -16.7949   32.9840 C   0  0  0  0  0  0  0  0  0  0  0  0
  -15.8699  -15.7796   32.5699 O   0  0  0  0  0  0  0  0  0  0  0  0
  -15.6838  -16.9155   35.8588 N   0  0  0  0  0  0  0  0  0  0  0  0
  -16.1646  -16.9520   37.2486 C   0  0  2  0  0  0  0  0  0  0  0  0
  -14.9381  -16.6442   38.1169 C   0  0  0  0  0  0  0  0  0  0  0  0
  -13.8734  -17.1771   37.8467 O   0  0  0  0  0  0  0  0  0  0  0  0
  -16.7565  -18.3114   37.6440 C   0  0  0  0  0  0  0  0  0  0  0  0
  -18.2784  -18.4328   37.5058 C   0  0  0  0  0  0  0  0  0  0  0  0
  -18.8455  -19.7848   37.9496 C   0  0  0  0  0  0  0  0  0  0  0  0
  -18.9460  -20.0558   39.4073 N   0  0  0  0  0  0  0  0  0  0  0  0
  -19.9568  -19.8738   40.2660 C   0  0  0  0  0  0  0  0  0  0  0  0
  -19.9171  -19.0412   41.2979 N   0  0  0  0  0  4  0  0  0  0  0  0
  -21.0434  -20.6362   40.1066 N   0  0  0  0  0  0  0  0  0  0  0  0
  -17.1096  -14.5576   38.1571 C   0  0  0  0  0  0  0  0  0  0  0  0
  -15.1617  -15.8265   39.2004 N   0  0  0  0  0  0  0  0  0  0  0  0
  -18.3325  -14.4712   38.0313 O   0  0  0  0  0  0  0  0  0  0  0  0
  -16.4199  -15.1017   39.4459 C   0  0  1  0  0  0  0  0  0  0  0  0
  -16.0746  -13.8755   40.3675 C   0  0  0  0  0  0  0  0  0  0  0  0
  -14.6815  -11.7159   40.7170 C   0  0  0  0  0  0  0  0  0  0  0  0
  -13.6137  -12.0362   41.7324 C   0  0  0  0  0  0  0  0  0  0  0  0
  -15.0307  -12.8918   39.7970 C   0  0  0  0  0  0  0  0  0  0  0  0
  -17.4777  -15.9337   40.1881 C   0  0  0  0  0  0  0  0  0  0  0  0
  -16.3241  -13.9346   37.1965 N   0  0  0  0  0  0  0  0  0  0  0  0
  -15.6241  -14.8089   36.2507 C   0  0  2  0  0  0  0  0  0  0  0  0
  -14.1234  -14.3893   36.2019 C   0  0  0  0  0  0  0  0  0  0  0  0
  -13.3202  -14.8080   37.0373 O   0  0  0  0  0  0  0  0  0  0  0  0
  -16.2973  -14.8542   34.8651 C   0  0  0  0  0  0  0  0  0  0  0  0
  -17.6582  -14.1197   34.8670 C   0  0  0  0  0  0  0  0  0  0  0  0
  -18.5704  -14.6728   35.9331 C   0  0  0  0  0  0  0  0  0  0  0  0
  -18.1717  -15.2664   36.9304 O   0  0  0  0  0  0  0  0  0  0  0  0
  -19.9033  -14.3816   35.7496 N   0  0  0  0  0  0  0  0  0  0  0  0
  -13.7293  -13.5747   35.1396 N   0  0  0  0  0  0  0  0  0  0  0  0
  -12.3187  -13.4370   34.7030 C   0  0  2  0  0  0  0  0  0  0  0  0
  -11.5981  -14.8240   34.7814 C   0  0  0  0  0  0  0  0  0  0  0  0
  -12.2325  -15.8801   34.8455 O   0  0  0  0  0  0  0  0  0  0  0  0
  -11.5872  -12.3080   35.4588 C   0  0  0  0  0  0  0  0  0  0  0  0
  -11.1253  -11.0919   34.6166 C   0  0  1  0  0  0  0  0  0  0  0  0
  -10.6951  -11.4755   33.2051 C   0  0  0  0  0  0  0  0  0  0  0  0
  -12.2729  -10.0686   34.5155 C   0  0  0  0  0  0  0  0  0  0  0  0
  -10.2264  -14.8662   34.9411 N   0  0  0  0  0  0  0  0  0  0  0  0
   -9.7468  -15.6229   36.0899 C   0  0  2  0  0  0  0  0  0  0  0  0
   -9.2220  -14.6231   37.1272 C   0  0  0  0  0  0  0  0  0  0  0  0
   -9.0190  -13.4395   36.8635 O   0  0  0  0  0  0  0  0  0  0  0  0
   -8.7386  -16.7225   35.7114 C   0  0  0  0  0  0  0  0  0  0  0  0
   -8.5656  -16.8990   34.1890 C   0  0  1  0  0  0  0  0  0  0  0  0
   -8.5778  -18.3615   33.7608 C   0  0  0  0  0  0  0  0  0  0  0  0
   -9.6486  -16.1412   33.4285 C   0  0  0  0  0  0  0  0  0  0  0  0
   -7.8771  -15.4736   40.4113 C   0  0  0  0  0  0  0  0  0  0  0  0
   -9.0289  -15.1600   38.3861 N   0  0  0  0  0  0  0  0  0  0  0  0
   -7.1795  -15.1921   41.3893 O   0  0  0  0  0  0  0  0  0  0  0  0
   -8.7430  -14.4065   39.6231 C   0  0  1  0  0  0  0  0  0  0  0  0
  -10.0505  -14.0359   40.3922 C   0  0  0  0  0  0  0  0  0  0  0  0
  -11.5381  -11.9076   40.2512 C   0  0  0  0  0  0  0  0  0  0  0  0
  -12.2901  -12.1081   41.5241 C   0  0  0  0  0  0  0  0  0  0  0  0
  -11.0377  -13.1884   39.5700 C   0  0  0  0  0  0  0  0  0  0  0  0
   -7.9109  -13.1163   39.4468 C   0  0  0  0  0  0  0  0  0  0  0  0
   -8.1016  -16.7558   39.9865 N   0  0  0  0  0  0  0  0  0  0  0  0
   -8.6491  -17.2001   38.7042 C   0  0  2  0  0  0  0  0  0  0  0  0
   -9.5534  -18.4652   38.9071 C   0  0  0  0  0  0  0  0  0  0  0  0
  -10.7023  -18.3815   39.3454 O   0  0  0  0  0  0  0  0  0  0  0  0
   -7.4893  -17.4279   37.7008 C   0  0  0  0  0  0  0  0  0  0  0  0
   -6.9459  -16.1579   37.0679 C   0  0  0  0  0  0  0  0  0  0  0  0
   -5.8805  -15.4594   37.6575 C   0  0  0  0  0  0  0  0  0  0  0  0
   -7.4377  -15.6938   35.8380 C   0  0  0  0  0  0  0  0  0  0  0  0
   -5.3212  -14.3480   37.0310 C   0  0  0  0  0  0  0  0  0  0  0  0
   -6.8508  -14.5954   35.1937 C   0  0  0  0  0  0  0  0  0  0  0  0
   -5.8052  -13.9107   35.8064 C   0  0  0  0  0  0  0  0  0  0  0  0
   -9.0774  -19.6791   38.4082 N   0  0  0  0  0  0  0  0  0  0  0  0
   -9.9190  -20.8970   38.4943 C   0  0  2  0  0  0  0  0  0  0  0  0
  -10.0381  -21.3393   39.9770 C   0  0  0  0  0  0  0  0  0  0  0  0
  -10.9062  -20.8723   40.7147 O   0  0  0  0  0  0  0  0  0  0  0  0
   -9.4145  -22.0057   37.5408 C   0  0  0  0  0  0  0  0  0  0  0  0
  -10.1894  -23.2924   37.7189 C   0  0  0  0  0  0  0  0  0  0  0  0
  -11.3259  -23.6831   37.0360 C   0  0  0  0  0  0  0  0  0  0  0  0
   -9.8924  -24.3577   38.6251 C   0  0  0  0  0  0  0  0  0  0  0  0
  -11.6062  -24.9757   37.3538 N   0  0  0  0  0  0  0  0  0  0  0  0
  -10.7450  -25.4147   38.3227 C   0  0  0  0  0  0  0  0  0  0  0  0
   -8.9490  -24.5172   39.6667 C   0  0  0  0  0  0  0  0  0  0  0  0
  -10.6781  -26.6487   38.9734 C   0  0  0  0  0  0  0  0  0  0  0  0
   -8.9275  -25.7200   40.3750 C   0  0  0  0  0  0  0  0  0  0  0  0
   -9.7552  -26.7791   40.0108 C   0  0  0  0  0  0  0  0  0  0  0  0
   -9.2732  -22.3832   40.4147 N   0  0  0  0  0  0  0  0  0  0  0  0
  1  2  2  0
  1  3  1  0
  4  1  1  0
  5  4  1  0
  6  5  1  0
  5  8  1  6
  6  7  2  0
 13  6  1  0
  8  9  1  0
  9 10  1  0
 10 11  1  0
 11 12  1  0
 14 13  1  0
 15 14  1  0
 14 17  1  1
 15 16  2  0
 22 15  1  0
 17 18  1  0
 18 19  1  0
 19 20  1  0
 20 21  1  0
 23 22  1  0
 24 23  1  0
 23 26  1  1
 24 25  2  0
 33 24  1  0
 26 27  1  0
 27 28  1  0
 28 29  1  0
 29 30  1  0
 30 31  2  0
 30 32  1  0
 34 33  1  0
 35 34  1  0
 34 37  1  1
 35 36  2  0
 45 35  1  0
 37 38  1  0
 38 39  2  0
 38 40  1  0
 39 41  1  0
 40 42  2  0
 41 43  2  0
 42 43  1  0
 43 44  1  0
 46 45  1  0
 47 46  1  0
 46 49  1  6
 47 48  2  0
 51 47  1  0
 49 50  1  0
 52 51  1  0
 53 52  1  0
 52 55  1  1
 53 54  2  0
 63 53  1  0
 55 56  1  0
 56 57  1  0
 57 58  1  0
 58 59  1  0
 59 60  2  0
 59 61  1  0
 62 64  2  0
 62 65  1  0
 71 62  1  0
 65 63  1  0
 65 66  1  0
 65 70  1  1
 66 69  1  0
 67 68  1  0
 69 67  1  0
 68102  2  0
 72 71  1  0
 73 72  1  0
 72 75  1  6
 73 74  2  0
 80 73  1  0
 75 76  1  0
 76 77  1  0
 77 78  2  0
 77 79  1  0
 81 80  1  0
 82 81  1  0
 81 84  1  1
 82 83  2  0
 88 82  1  0
 84 85  1  0
 85 86  1  6
 85 87  1  0
 89 88  1  0
 90 89  1  0
 89 92  1  6
 90 91  2  0
 97 90  1  0
 92 93  1  0
 93 94  1  1
 93 95  1  0
 96 98  2  0
 99 96  1  0
 96105  1  0
 97 99  1  0
 99100  1  0
 99104  1  6
100103  1  0
102101  1  0
101103  1  0
105106  1  0
106107  1  0
106109  1  6
107108  2  0
107116  1  0
109110  1  0
110111  2  0
110112  1  0
111113  1  0
112114  2  0
113115  2  0
114115  1  0
116117  1  0
117118  1  0
117120  1  6
118119  2  0
118130  1  0
120121  1  0
121122  2  0
121123  1  0
122124  1  0
123125  2  0
123126  1  0
124125  1  0
125127  1  0
126128  2  0
127129  2  0
128129  1  0
M  CHG  4  12   1  21   1  31   1  60   1
M  END
$$$$
