
     RDKit          3D

 71 72  0  0  0  0  0  0  0  0999 V2000
   93.1055   29.5674  169.1636 C   0  0  1  0  0  0  0  0  0  0  0  0
   93.5034   30.1794  172.2872 C   0  0  0  0  0  0  0  0  0  0  0  0
   94.4547   29.9292  171.1138 C   0  0  2  0  0  0  0  0  0  0  0  0
   94.9162   31.2176  170.3836 C   0  0  1  0  0  0  0  0  0  0  0  0
   95.3132   30.7998  168.9578 C   0  0  1  0  0  0  0  0  0  0  0  0
   94.0763   30.2965  168.1906 C   0  0  1  0  0  0  0  0  0  0  0  0
   83.7682   13.8385  174.7191 C   0  0  0  0  0  0  0  0  0  0  0  0
   83.5196   15.3181  174.4695 C   0  0  0  0  0  0  0  0  0  0  0  0
   83.9875   15.7976  173.0930 C   0  0  0  0  0  0  0  0  0  0  0  0
   83.5681   17.2175  172.7033 C   0  0  0  0  0  0  0  0  0  0  0  0
   83.2282   18.1046  173.9011 C   0  0  0  0  0  0  0  0  0  0  0  0
   83.5716   19.5688  173.6183 C   0  0  0  0  0  0  0  0  0  0  0  0
   84.9756   19.9146  174.1177 C   0  0  0  0  0  0  0  0  0  0  0  0
   85.6727   20.9675  173.2555 C   0  0  0  0  0  0  0  0  0  0  0  0
   84.9295   21.2959  171.9571 C   0  0  0  0  0  0  0  0  0  0  0  0
   85.5812   22.4903  171.2574 C   0  0  0  0  0  0  0  0  0  0  0  0
   87.1108   22.4283  171.2978 C   0  0  0  0  0  0  0  0  0  0  0  0
   87.7491   23.4889  170.3916 C   0  0  0  0  0  0  0  0  0  0  0  0
   89.2812   23.4448  170.4342 C   0  0  0  0  0  0  0  0  0  0  0  0
   89.9583   24.8010  170.1933 C   0  0  0  0  0  0  0  0  0  0  0  0
   91.4953   24.7956  170.3237 C   0  0  1  0  0  0  0  0  0  0  0  0
   92.0649   23.7386  169.5529 O   0  0  0  0  0  0  0  0  0  0  0  0
   92.1080   26.1551  169.8870 C   0  0  1  0  0  0  0  0  0  0  0  0
   93.2291   26.4602  170.7267 O   0  0  0  0  0  0  0  0  0  0  0  0
   92.5403   26.1488  168.3951 C   0  0  2  0  0  0  0  0  0  0  0  0
   93.1068   27.5177  167.9541 C   0  0  0  0  0  0  0  0  0  0  0  0
   92.3088   28.5764  168.5065 O   0  0  0  0  0  0  0  0  0  0  0  0
   94.5420   29.4607  167.1160 O   0  0  0  0  0  0  0  0  0  0  0  0
   95.9169   31.8675  168.2133 O   0  0  0  0  0  0  0  0  0  0  0  0
   93.8448   28.9537  170.2275 O   0  0  0  0  0  0  0  0  0  0  0  0
   92.1735   29.8215  171.9032 O   0  0  0  0  0  0  0  0  0  0  0  0
   93.8261   32.1539  170.3140 O   0  0  0  0  0  0  0  0  0  0  0  0
   93.9957   33.3186  171.1232 C   0  0  0  0  0  0  0  0  0  0  0  0
   93.5889   34.5440  170.3485 C   0  0  0  0  0  0  0  0  0  0  0  0
   92.6730   35.4518  170.8883 C   0  0  0  0  0  0  0  0  0  0  0  0
   92.2748   36.5797  170.1641 C   0  0  0  0  0  0  0  0  0  0  0  0
   92.7805   36.8457  168.8790 C   0  0  0  0  0  0  0  0  0  0  0  0
   92.3114   38.0737  168.0761 C   0  0  2  0  0  0  0  0  0  0  0  0
   93.4791   38.8330  167.4055 C   0  0  0  0  0  0  0  0  0  0  0  0
   91.5704   39.1037  168.9610 C   0  0  0  0  0  0  0  0  0  0  0  0
   91.3483   37.5834  166.9762 C   0  0  0  0  0  0  0  0  0  0  0  0
   93.6846   35.9113  168.3435 C   0  0  0  0  0  0  0  0  0  0  0  0
   94.0883   34.7825  169.0667 C   0  0  0  0  0  0  0  0  0  0  0  0
   91.4546   25.7760  167.4647 N   0  0  0  0  0  0  0  0  0  0  0  0
   91.3935   24.5094  166.9220 C   0  0  0  0  0  0  0  0  0  0  0  0
   91.7034   23.4936  167.5352 O   0  0  0  0  0  0  0  0  0  0  0  0
   90.8764   24.4939  165.4956 C   0  0  0  0  0  0  0  0  0  0  0  0
   89.5509   23.7417  165.4016 C   0  0  0  0  0  0  0  0  0  0  0  0
   89.7197   22.3371  164.8196 C   0  0  0  0  0  0  0  0  0  0  0  0
   89.4416   22.3461  163.3167 C   0  0  0  0  0  0  0  0  0  0  0  0
   89.0448   20.9639  162.7914 C   0  0  0  0  0  0  0  0  0  0  0  0
   88.8135   20.9901  161.2775 C   0  0  0  0  0  0  0  0  0  0  0  0
   87.6651   21.9289  160.8802 C   0  0  0  0  0  0  0  0  0  0  0  0
   87.4143   21.9727  159.3706 C   0  0  0  0  0  0  0  0  0  0  0  0
   86.1937   22.8277  159.0155 C   0  0  0  0  0  0  0  0  0  0  0  0
   86.0065   23.9842  160.0028 C   0  0  0  0  0  0  0  0  0  0  0  0
   85.1052   25.0937  159.4482 C   0  0  0  0  0  0  0  0  0  0  0  0
   84.8186   26.2416  160.4238 C   0  0  0  0  0  0  0  0  0  0  0  0
   83.3476   26.6508  160.5010 C   0  0  0  0  0  0  0  0  0  0  0  0
   83.1224   27.7555  161.5381 C   0  0  0  0  0  0  0  0  0  0  0  0
   83.1345   27.1815  162.9545 C   0  0  0  0  0  0  0  0  0  0  0  0
   83.4203   28.2551  164.0064 C   0  0  0  0  0  0  0  0  0  0  0  0
   83.6386   27.6167  165.3772 C   0  0  0  0  0  0  0  0  0  0  0  0
   82.7086   26.4263  165.6163 C   0  0  0  0  0  0  0  0  0  0  0  0
   82.9364   25.8416  167.0114 C   0  0  0  0  0  0  0  0  0  0  0  0
   83.5631   26.8240  168.0035 C   0  0  0  0  0  0  0  0  0  0  0  0
   83.6032   26.2985  169.4411 C   0  0  0  0  0  0  0  0  0  0  0  0
   84.3564   27.2254  170.4027 C   0  0  0  0  0  0  0  0  0  0  0  0
   84.1087   26.8875  171.8766 C   0  0  0  0  0  0  0  0  0  0  0  0
   84.0961   28.1164  172.7879 C   0  0  0  0  0  0  0  0  0  0  0  0
   83.9534   27.7759  174.2633 C   0  0  0  0  0  0  0  0  0  0  0  0
  1  6  1  0
  1 27  1  6
  1 30  1  0
  3  2  1  1
  2 31  1  0
  3  4  1  0
 30  3  1  0
  5  4  1  0
  4 32  1  6
  6  5  1  0
  5 29  1  6
  6 28  1  6
  8  7  1  0
  9  8  1  0
 10  9  1  0
 11 10  1  0
 12 11  1  0
 13 12  1  0
 14 13  1  0
 15 14  1  0
 16 15  1  0
 17 16  1  0
 18 17  1  0
 19 18  1  0
 20 19  1  0
 21 20  1  0
 21 22  1  6
 23 21  1  0
 23 24  1  1
 25 23  1  0
 25 26  1  6
 25 44  1  0
 26 27  1  0
 32 33  1  0
 33 34  1  0
 34 35  2  0
 34 43  1  0
 35 36  1  0
 36 37  2  0
 37 38  1  0
 37 42  1  0
 38 39  1  6
 38 40  1  0
 38 41  1  0
 42 43  2  0
 44 45  1  0
 45 46  2  0
 45 47  1  0
 47 48  1  0
 48 49  1  0
 49 50  1  0
 50 51  1  0
 51 52  1  0
 52 53  1  0
 53 54  1  0
 54 55  1  0
 55 56  1  0
 56 57  1  0
 57 58  1  0
 58 59  1  0
 59 60  1  0
 60 61  1  0
 61 62  1  0
 62 63  1  0
 63 64  1  0
 64 65  1  0
 65 66  1  0
 66 67  1  0
 67 68  1  0
 68 69  1  0
 69 70  1  0
 70 71  1  0
M  END
$$$$
