
     RDKit          3D

 71 72  0  0  0  0  0  0  0  0999 V2000
   94.0131   28.2552  170.6587 C   0  0  1  0  0  0  0  0  0  0  0  0
   92.9230   27.7901  173.6396 C   0  0  0  0  0  0  0  0  0  0  0  0
   93.9088   27.0508  172.7308 C   0  0  2  0  0  0  0  0  0  0  0  0
   95.3856   27.4941  172.9009 C   0  0  1  0  0  0  0  0  0  0  0  0
   96.1036   27.1554  171.5837 C   0  0  1  0  0  0  0  0  0  0  0  0
   95.5332   28.0093  170.4360 C   0  0  1  0  0  0  0  0  0  0  0  0
   84.7326   32.5420  153.7962 C   0  0  0  0  0  0  0  0  0  0  0  0
   85.7562   31.6511  154.4832 C   0  0  0  0  0  0  0  0  0  0  0  0
   85.6879   31.7001  156.0119 C   0  0  0  0  0  0  0  0  0  0  0  0
   84.8696   30.5912  156.6787 C   0  0  0  0  0  0  0  0  0  0  0  0
   84.8733   30.6633  158.2058 C   0  0  0  0  0  0  0  0  0  0  0  0
   84.0924   29.4969  158.8152 C   0  0  0  0  0  0  0  0  0  0  0  0
   85.0347   28.4627  159.4339 C   0  0  0  0  0  0  0  0  0  0  0  0
   85.5863   28.8962  160.7924 C   0  0  0  0  0  0  0  0  0  0  0  0
   84.8325   28.3013  161.9857 C   0  0  0  0  0  0  0  0  0  0  0  0
   85.8177   27.7309  163.0079 C   0  0  0  0  0  0  0  0  0  0  0  0
   87.0317   28.6399  163.2201 C   0  0  0  0  0  0  0  0  0  0  0  0
   87.9806   28.0842  164.2899 C   0  0  0  0  0  0  0  0  0  0  0  0
   89.1882   28.9986  164.5281 C   0  0  0  0  0  0  0  0  0  0  0  0
   90.1638   28.4893  165.5979 C   0  0  0  0  0  0  0  0  0  0  0  0
   91.3673   29.4130  165.8766 C   0  0  1  0  0  0  0  0  0  0  0  0
   91.1568   30.7042  165.3071 O   0  0  0  0  0  0  0  0  0  0  0  0
   91.6404   29.5476  167.4003 C   0  0  1  0  0  0  0  0  0  0  0  0
   90.9484   30.6971  167.9051 O   0  0  0  0  0  0  0  0  0  0  0  0
   91.2140   28.2765  168.1848 C   0  0  2  0  0  0  0  0  0  0  0  0
   91.8984   28.1973  169.5685 C   0  0  0  0  0  0  0  0  0  0  0  0
   93.3035   28.4624  169.4332 O   0  0  0  0  0  0  0  0  0  0  0  0
   95.8269   27.3303  169.2020 O   0  0  0  0  0  0  0  0  0  0  0  0
   97.5216   27.3625  171.6543 O   0  0  0  0  0  0  0  0  0  0  0  0
   93.4339   27.1483  171.3617 O   0  0  0  0  0  0  0  0  0  0  0  0
   93.4286   27.8009  174.9770 O   0  0  0  0  0  0  0  0  0  0  0  0
   95.4447   28.9150  173.1180 O   0  0  0  0  0  0  0  0  0  0  0  0
   96.4423   29.3283  174.0530 C   0  0  0  0  0  0  0  0  0  0  0  0
   95.7865   29.8737  175.2939 C   0  0  0  0  0  0  0  0  0  0  0  0
   96.4629   29.8599  176.5172 C   0  0  0  0  0  0  0  0  0  0  0  0
   95.8503   30.3447  177.6770 C   0  0  0  0  0  0  0  0  0  0  0  0
   94.5443   30.8660  177.6567 C   0  0  0  0  0  0  0  0  0  0  0  0
   93.8661   31.3679  178.9455 C   0  0  2  0  0  0  0  0  0  0  0  0
   94.8754   31.6560  180.0806 C   0  0  0  0  0  0  0  0  0  0  0  0
   92.8525   30.3450  179.5103 C   0  0  0  0  0  0  0  0  0  0  0  0
   93.1167   32.6735  178.6113 C   0  0  0  0  0  0  0  0  0  0  0  0
   93.8715   30.8529  176.4221 C   0  0  0  0  0  0  0  0  0  0  0  0
   94.4825   30.3715  175.2580 C   0  0  0  0  0  0  0  0  0  0  0  0
   91.4833   27.0158  167.4626 N   0  0  0  0  0  0  0  0  0  0  0  0
   90.5711   25.9814  167.4833 C   0  0  0  0  0  0  0  0  0  0  0  0
   89.4065   26.1118  167.8451 O   0  0  0  0  0  0  0  0  0  0  0  0
   91.1446   24.6677  166.9858 C   0  0  0  0  0  0  0  0  0  0  0  0
   91.0485   23.5863  168.0595 C   0  0  0  0  0  0  0  0  0  0  0  0
   92.1031   23.7589  169.1541 C   0  0  0  0  0  0  0  0  0  0  0  0
   91.9571   22.6651  170.2118 C   0  0  0  0  0  0  0  0  0  0  0  0
   93.0133   22.7790  171.3143 C   0  0  0  0  0  0  0  0  0  0  0  0
   93.4358   21.3976  171.8238 C   0  0  0  0  0  0  0  0  0  0  0  0
   92.2427   20.5731  172.3281 C   0  0  0  0  0  0  0  0  0  0  0  0
   91.9361   20.7973  173.8111 C   0  0  0  0  0  0  0  0  0  0  0  0
   90.8658   19.8313  174.3291 C   0  0  0  0  0  0  0  0  0  0  0  0
   89.5295   20.5419  174.5665 C   0  0  0  0  0  0  0  0  0  0  0  0
   88.5068   20.2612  173.4591 C   0  0  0  0  0  0  0  0  0  0  0  0
   87.0434   20.4847  173.8591 C   0  0  0  0  0  0  0  0  0  0  0  0
   86.0396   20.2616  172.7276 C   0  0  0  0  0  0  0  0  0  0  0  0
   85.0869   21.4515  172.5752 C   0  0  0  0  0  0  0  0  0  0  0  0
   83.8963   21.3190  173.5242 C   0  0  0  0  0  0  0  0  0  0  0  0
   82.6338   20.8492  172.7989 C   0  0  0  0  0  0  0  0  0  0  0  0
   82.6921   19.3440  172.5434 C   0  0  0  0  0  0  0  0  0  0  0  0
   82.6577   18.5346  173.8406 C   0  0  0  0  0  0  0  0  0  0  0  0
   82.6615   17.0355  173.5359 C   0  0  0  0  0  0  0  0  0  0  0  0
   83.4043   16.1912  174.5738 C   0  0  0  0  0  0  0  0  0  0  0  0
   82.6323   14.9439  175.0126 C   0  0  0  0  0  0  0  0  0  0  0  0
   82.8149   14.6115  176.4984 C   0  0  0  0  0  0  0  0  0  0  0  0
   82.7937   13.1058  176.7816 C   0  0  0  0  0  0  0  0  0  0  0  0
   81.7277   12.6938  177.7988 C   0  0  0  0  0  0  0  0  0  0  0  0
   80.4377   13.4906  177.6819 C   0  0  0  0  0  0  0  0  0  0  0  0
  1  6  1  0
  1 27  1  6
  1 30  1  0
  3  2  1  1
  2 31  1  0
  3  4  1  0
 30  3  1  0
  5  4  1  0
  4 32  1  6
  6  5  1  0
  5 29  1  1
  6 28  1  6
  8  7  1  0
  9  8  1  0
 10  9  1  0
 11 10  1  0
 12 11  1  0
 13 12  1  0
 14 13  1  0
 15 14  1  0
 16 15  1  0
 17 16  1  0
 18 17  1  0
 19 18  1  0
 20 19  1  0
 21 20  1  0
 21 22  1  1
 23 21  1  0
 23 24  1  1
 25 23  1  0
 25 26  1  1
 25 44  1  0
 26 27  1  0
 32 33  1  0
 33 34  1  0
 34 35  2  0
 34 43  1  0
 35 36  1  0
 36 37  2  0
 37 38  1  0
 37 42  1  0
 38 39  1  1
 38 40  1  0
 38 41  1  0
 42 43  2  0
 44 45  1  0
 45 46  2  0
 45 47  1  0
 47 48  1  0
 48 49  1  0
 49 50  1  0
 50 51  1  0
 51 52  1  0
 52 53  1  0
 53 54  1  0
 54 55  1  0
 55 56  1  0
 56 57  1  0
 57 58  1  0
 58 59  1  0
 59 60  1  0
 60 61  1  0
 61 62  1  0
 62 63  1  0
 63 64  1  0
 64 65  1  0
 65 66  1  0
 66 67  1  0
 67 68  1  0
 68 69  1  0
 69 70  1  0
 70 71  1  0
M  END
$$$$
