
     RDKit          3D

 71 72  0  0  0  0  0  0  0  0999 V2000
   93.0294   27.2678  169.3319 C   0  0  1  0  0  0  0  0  0  0  0  0
   93.8614   30.0541  170.6865 C   0  0  0  0  0  0  0  0  0  0  0  0
   94.3978   29.2299  169.5128 C   0  0  2  0  0  0  0  0  0  0  0  0
   93.7889   29.6105  168.1378 C   0  0  1  0  0  0  0  0  0  0  0  0
   93.9301   28.3740  167.2342 C   0  0  1  0  0  0  0  0  0  0  0  0
   93.0656   27.2209  167.7771 C   0  0  1  0  0  0  0  0  0  0  0  0
   97.5471   19.5318  184.6803 C   0  0  0  0  0  0  0  0  0  0  0  0
   96.2902   19.6807  183.8368 C   0  0  0  0  0  0  0  0  0  0  0  0
   95.7808   18.3607  183.2523 C   0  0  0  0  0  0  0  0  0  0  0  0
   96.2351   18.0439  181.8250 C   0  0  0  0  0  0  0  0  0  0  0  0
   97.0657   16.7649  181.7178 C   0  0  0  0  0  0  0  0  0  0  0  0
   97.2070   16.3192  180.2608 C   0  0  0  0  0  0  0  0  0  0  0  0
   96.0338   16.8157  179.4137 C   0  0  0  0  0  0  0  0  0  0  0  0
   96.1499   16.4167  177.9423 C   0  0  0  0  0  0  0  0  0  0  0  0
   96.3578   17.6012  176.9937 C   0  0  0  0  0  0  0  0  0  0  0  0
   95.0296   18.3140  176.7320 C   0  0  0  0  0  0  0  0  0  0  0  0
   95.2098   19.6167  175.9473 C   0  0  0  0  0  0  0  0  0  0  0  0
   93.9151   20.0422  175.2427 C   0  0  0  0  0  0  0  0  0  0  0  0
   94.1138   21.2784  174.3574 C   0  0  0  0  0  0  0  0  0  0  0  0
   93.3103   22.5082  174.8017 C   0  0  0  0  0  0  0  0  0  0  0  0
   92.4641   23.1698  173.6947 C   0  0  1  0  0  0  0  0  0  0  0  0
   91.0739   23.0941  174.0069 O   0  0  0  0  0  0  0  0  0  0  0  0
   92.8743   24.6523  173.4744 C   0  0  1  0  0  0  0  0  0  0  0  0
   93.8773   25.0129  174.4331 O   0  0  0  0  0  0  0  0  0  0  0  0
   93.3929   24.9070  172.0326 C   0  0  2  0  0  0  0  0  0  0  0  0
   92.6235   26.0537  171.3381 C   0  0  0  0  0  0  0  0  0  0  0  0
   92.8158   25.9792  169.9168 O   0  0  0  0  0  0  0  0  0  0  0  0
   93.6029   25.9924  167.2554 O   0  0  0  0  0  0  0  0  0  0  0  0
   93.5541   28.6337  165.8740 O   0  0  0  0  0  0  0  0  0  0  0  0
   94.2521   27.8214  169.8356 O   0  0  0  0  0  0  0  0  0  0  0  0
   92.7344   30.8192  170.2518 O   0  0  0  0  0  0  0  0  0  0  0  0
   92.3933   29.9232  168.2939 O   0  0  0  0  0  0  0  0  0  0  0  0
   91.6230   29.7984  167.0976 C   0  0  0  0  0  0  0  0  0  0  0  0
   91.9603   30.9205  166.1520 C   0  0  0  0  0  0  0  0  0  0  0  0
   91.6932   32.2471  166.5027 C   0  0  0  0  0  0  0  0  0  0  0  0
   91.9839   33.2914  165.6194 C   0  0  0  0  0  0  0  0  0  0  0  0
   92.5569   33.0503  164.3579 C   0  0  0  0  0  0  0  0  0  0  0  0
   92.8438   34.2044  163.3788 C   0  0  2  0  0  0  0  0  0  0  0  0
   91.6365   34.5345  162.4714 C   0  0  0  0  0  0  0  0  0  0  0  0
   94.0281   33.8905  162.4345 C   0  0  0  0  0  0  0  0  0  0  0  0
   93.1916   35.4568  164.2086 C   0  0  0  0  0  0  0  0  0  0  0  0
   92.7996   31.7088  164.0135 C   0  0  0  0  0  0  0  0  0  0  0  0
   92.5130   30.6607  164.8964 C   0  0  0  0  0  0  0  0  0  0  0  0
   93.3323   23.7151  171.1614 N   0  0  0  0  0  0  0  0  0  0  0  0
   92.4620   23.6652  170.0925 C   0  0  0  0  0  0  0  0  0  0  0  0
   91.6586   24.5540  169.8305 O   0  0  0  0  0  0  0  0  0  0  0  0
   92.6165   22.4107  169.2531 C   0  0  0  0  0  0  0  0  0  0  0  0
   91.6468   22.4178  168.0735 C   0  0  0  0  0  0  0  0  0  0  0  0
   90.1915   22.2577  168.5167 C   0  0  0  0  0  0  0  0  0  0  0  0
   89.2635   22.2415  167.3024 C   0  0  0  0  0  0  0  0  0  0  0  0
   87.8643   21.7248  167.6478 C   0  0  0  0  0  0  0  0  0  0  0  0
   86.7790   22.6851  167.1513 C   0  0  0  0  0  0  0  0  0  0  0  0
   86.0994   23.4407  168.3024 C   0  0  0  0  0  0  0  0  0  0  0  0
   84.9905   24.3864  167.8338 C   0  0  0  0  0  0  0  0  0  0  0  0
   84.3755   25.1717  168.9966 C   0  0  0  0  0  0  0  0  0  0  0  0
   83.3426   26.1917  168.5069 C   0  0  0  0  0  0  0  0  0  0  0  0
   83.6226   26.6764  167.0794 C   0  0  0  0  0  0  0  0  0  0  0  0
   82.3891   27.1601  166.3074 C   0  0  0  0  0  0  0  0  0  0  0  0
   82.2850   26.6178  164.8818 C   0  0  0  0  0  0  0  0  0  0  0  0
   83.0119   27.5203  163.8799 C   0  0  0  0  0  0  0  0  0  0  0  0
   83.2317   26.7931  162.5537 C   0  0  0  0  0  0  0  0  0  0  0  0
   83.8131   27.7172  161.4820 C   0  0  0  0  0  0  0  0  0  0  0  0
   84.0387   26.9509  160.1796 C   0  0  0  0  0  0  0  0  0  0  0  0
   84.6600   27.8281  159.0916 C   0  0  0  0  0  0  0  0  0  0  0  0
   83.6898   28.9368  158.6799 C   0  0  0  0  0  0  0  0  0  0  0  0
   84.3504   30.0947  157.9281 C   0  0  0  0  0  0  0  0  0  0  0  0
   83.6852   31.4494  158.1862 C   0  0  0  0  0  0  0  0  0  0  0  0
   82.3878   31.6467  157.3930 C   0  0  0  0  0  0  0  0  0  0  0  0
   81.7368   33.0115  157.6405 C   0  0  0  0  0  0  0  0  0  0  0  0
   80.2108   32.9852  157.5339 C   0  0  0  0  0  0  0  0  0  0  0  0
   79.5576   34.3218  157.8495 C   0  0  0  0  0  0  0  0  0  0  0  0
  1  6  1  0
  1 27  1  1
  1 30  1  0
  3  2  1  1
  2 31  1  0
  3  4  1  0
 30  3  1  0
  5  4  1  0
  4 32  1  1
  6  5  1  0
  5 29  1  6
  6 28  1  1
  8  7  1  0
  9  8  1  0
 10  9  1  0
 11 10  1  0
 12 11  1  0
 13 12  1  0
 14 13  1  0
 15 14  1  0
 16 15  1  0
 17 16  1  0
 18 17  1  0
 19 18  1  0
 20 19  1  0
 21 20  1  0
 21 22  1  1
 23 21  1  0
 23 24  1  1
 25 23  1  0
 25 26  1  6
 25 44  1  0
 26 27  1  0
 32 33  1  0
 33 34  1  0
 34 35  2  0
 34 43  1  0
 35 36  1  0
 36 37  2  0
 37 38  1  0
 37 42  1  0
 38 39  1  6
 38 40  1  0
 38 41  1  0
 42 43  2  0
 44 45  1  0
 45 46  2  0
 45 47  1  0
 47 48  1  0
 48 49  1  0
 49 50  1  0
 50 51  1  0
 51 52  1  0
 52 53  1  0
 53 54  1  0
 54 55  1  0
 55 56  1  0
 56 57  1  0
 57 58  1  0
 58 59  1  0
 59 60  1  0
 60 61  1  0
 61 62  1  0
 62 63  1  0
 63 64  1  0
 64 65  1  0
 65 66  1  0
 66 67  1  0
 67 68  1  0
 68 69  1  0
 69 70  1  0
 70 71  1  0
M  END
$$$$
