
     RDKit          3D

 71 72  0  0  0  0  0  0  0  0999 V2000
   93.2185   27.2040  167.6671 C   0  0  1  0  0  0  0  0  0  0  0  0
   95.6925   28.8836  168.8284 C   0  0  0  0  0  0  0  0  0  0  0  0
   95.0300   27.5542  169.2003 C   0  0  2  0  0  0  0  0  0  0  0  0
   95.6637   26.3147  168.5160 C   0  0  1  0  0  0  0  0  0  0  0  0
   94.5791   25.2247  168.4834 C   0  0  1  0  0  0  0  0  0  0  0  0
   93.4158   25.6635  167.5746 C   0  0  1  0  0  0  0  0  0  0  0  0
   79.0553   36.8178  161.5348 C   0  0  0  0  0  0  0  0  0  0  0  0
   79.6730   35.4366  161.3792 C   0  0  0  0  0  0  0  0  0  0  0  0
   81.0699   35.4538  160.7528 C   0  0  0  0  0  0  0  0  0  0  0  0
   81.6741   34.0839  160.4326 C   0  0  0  0  0  0  0  0  0  0  0  0
   83.1527   33.9667  160.8032 C   0  0  0  0  0  0  0  0  0  0  0  0
   83.4028   32.7498  161.6966 C   0  0  0  0  0  0  0  0  0  0  0  0
   84.4381   31.8104  161.0754 C   0  0  0  0  0  0  0  0  0  0  0  0
   85.7652   31.7998  161.8347 C   0  0  0  0  0  0  0  0  0  0  0  0
   86.4967   30.4550  161.7851 C   0  0  0  0  0  0  0  0  0  0  0  0
   86.6684   29.8893  163.1962 C   0  0  0  0  0  0  0  0  0  0  0  0
   86.2558   28.4176  163.2903 C   0  0  0  0  0  0  0  0  0  0  0  0
   86.3894   27.8777  164.7201 C   0  0  0  0  0  0  0  0  0  0  0  0
   86.2267   28.9785  165.7751 C   0  0  0  0  0  0  0  0  0  0  0  0
   86.5504   28.5322  167.2075 C   0  0  0  0  0  0  0  0  0  0  0  0
   87.5900   29.4025  167.9431 C   0  0  1  0  0  0  0  0  0  0  0  0
   87.4772   29.2399  169.3562 O   0  0  0  0  0  0  0  0  0  0  0  0
   89.0373   29.0662  167.4882 C   0  0  1  0  0  0  0  0  0  0  0  0
   89.7568   30.2850  167.2607 O   0  0  0  0  0  0  0  0  0  0  0  0
   89.7862   28.1859  168.5260 C   0  0  2  0  0  0  0  0  0  0  0  0
   91.3164   28.3944  168.4602 C   0  0  0  0  0  0  0  0  0  0  0  0
   91.8709   27.6036  167.3972 O   0  0  0  0  0  0  0  0  0  0  0  0
   92.2518   24.9142  167.9668 O   0  0  0  0  0  0  0  0  0  0  0  0
   95.0755   23.9601  168.0220 O   0  0  0  0  0  0  0  0  0  0  0  0
   93.6013   27.6714  168.9671 O   0  0  0  0  0  0  0  0  0  0  0  0
   94.9713   29.4870  167.7513 O   0  0  0  0  0  0  0  0  0  0  0  0
   96.0415   26.6439  167.1674 O   0  0  0  0  0  0  0  0  0  0  0  0
   97.4422   26.5448  166.9060 C   0  0  0  0  0  0  0  0  0  0  0  0
   97.7295   26.9644  165.4888 C   0  0  0  0  0  0  0  0  0  0  0  0
   98.8568   26.4778  164.8204 C   0  0  0  0  0  0  0  0  0  0  0  0
   99.1405   26.8815  163.5120 C   0  0  0  0  0  0  0  0  0  0  0  0
   98.3068   27.7794  162.8217 C   0  0  0  0  0  0  0  0  0  0  0  0
   98.6450   28.2431  161.3922 C   0  0  2  0  0  0  0  0  0  0  0  0
   98.0956   29.6525  161.0736 C   0  0  0  0  0  0  0  0  0  0  0  0
   98.0660   27.2942  160.3165 C   0  0  0  0  0  0  0  0  0  0  0  0
  100.1804   28.2711  161.2520 C   0  0  0  0  0  0  0  0  0  0  0  0
   97.1890   28.2745  163.5164 C   0  0  0  0  0  0  0  0  0  0  0  0
   96.8998   27.8703  164.8253 C   0  0  0  0  0  0  0  0  0  0  0  0
   89.5098   26.7410  168.3875 N   0  0  0  0  0  0  0  0  0  0  0  0
   89.7937   25.8660  169.4152 C   0  0  0  0  0  0  0  0  0  0  0  0
   90.6045   26.1044  170.3039 O   0  0  0  0  0  0  0  0  0  0  0  0
   88.9805   24.5865  169.3536 C   0  0  0  0  0  0  0  0  0  0  0  0
   89.5388   23.5358  170.3107 C   0  0  0  0  0  0  0  0  0  0  0  0
   88.5992   23.2632  171.4866 C   0  0  0  0  0  0  0  0  0  0  0  0
   88.4925   21.7607  171.7461 C   0  0  0  0  0  0  0  0  0  0  0  0
   87.5153   21.4352  172.8789 C   0  0  0  0  0  0  0  0  0  0  0  0
   87.4951   19.9337  173.1810 C   0  0  0  0  0  0  0  0  0  0  0  0
   86.5323   19.5828  174.3246 C   0  0  0  0  0  0  0  0  0  0  0  0
   86.2877   18.0785  174.4695 C   0  0  0  0  0  0  0  0  0  0  0  0
   87.4671   17.3666  175.1397 C   0  0  0  0  0  0  0  0  0  0  0  0
   87.2325   15.8560  175.2409 C   0  0  0  0  0  0  0  0  0  0  0  0
   88.1991   15.1725  176.2154 C   0  0  0  0  0  0  0  0  0  0  0  0
   87.5279   14.4286  177.3763 C   0  0  0  0  0  0  0  0  0  0  0  0
   88.1062   13.0407  177.6537 C   0  0  0  0  0  0  0  0  0  0  0  0
   87.1332   12.1744  178.4597 C   0  0  0  0  0  0  0  0  0  0  0  0
   86.2628   11.3279  177.5314 C   0  0  0  0  0  0  0  0  0  0  0  0
   84.9742   10.8669  178.2153 C   0  0  0  0  0  0  0  0  0  0  0  0
   85.0644   11.0792  179.7256 C   0  0  0  0  0  0  0  0  0  0  0  0
   83.7207   11.4821  180.3351 C   0  0  0  0  0  0  0  0  0  0  0  0
   83.8864   11.8228  181.8172 C   0  0  0  0  0  0  0  0  0  0  0  0
   82.7879   12.7314  182.3737 C   0  0  0  0  0  0  0  0  0  0  0  0
   81.3739   12.2847  181.9923 C   0  0  0  0  0  0  0  0  0  0  0  0
   80.2810   13.2220  182.5198 C   0  0  0  0  0  0  0  0  0  0  0  0
   78.8668   12.7540  182.1605 C   0  0  0  0  0  0  0  0  0  0  0  0
   77.8568   13.8982  182.0544 C   0  0  0  0  0  0  0  0  0  0  0  0
   76.4747   13.4477  181.6074 C   0  0  0  0  0  0  0  0  0  0  0  0
  1  6  1  0
  1 27  1  1
  1 30  1  0
  3  2  1  6
  2 31  1  0
  3  4  1  0
 30  3  1  0
  5  4  1  0
  4 32  1  6
  6  5  1  0
  5 29  1  6
  6 28  1  1
  8  7  1  0
  9  8  1  0
 10  9  1  0
 11 10  1  0
 12 11  1  0
 13 12  1  0
 14 13  1  0
 15 14  1  0
 16 15  1  0
 17 16  1  0
 18 17  1  0
 19 18  1  0
 20 19  1  0
 21 20  1  0
 21 22  1  1
 23 21  1  0
 23 24  1  1
 25 23  1  0
 25 26  1  6
 25 44  1  0
 26 27  1  0
 32 33  1  0
 33 34  1  0
 34 35  2  0
 34 43  1  0
 35 36  1  0
 36 37  2  0
 37 38  1  0
 37 42  1  0
 38 39  1  6
 38 40  1  0
 38 41  1  0
 42 43  2  0
 44 45  1  0
 45 46  2  0
 45 47  1  0
 47 48  1  0
 48 49  1  0
 49 50  1  0
 50 51  1  0
 51 52  1  0
 52 53  1  0
 53 54  1  0
 54 55  1  0
 55 56  1  0
 56 57  1  0
 57 58  1  0
 58 59  1  0
 59 60  1  0
 60 61  1  0
 61 62  1  0
 62 63  1  0
 63 64  1  0
 64 65  1  0
 65 66  1  0
 66 67  1  0
 67 68  1  0
 68 69  1  0
 69 70  1  0
 70 71  1  0
M  END
$$$$
