
     RDKit          3D

 71 72  0  0  0  0  0  0  0  0999 V2000
   93.5713   26.8619  172.4139 C   0  0  1  0  0  0  0  0  0  0  0  0
   94.5592   24.6097  174.4735 C   0  0  0  0  0  0  0  0  0  0  0  0
   95.2440   25.4449  173.3882 C   0  0  2  0  0  0  0  0  0  0  0  0
   95.8657   26.7695  173.9030 C   0  0  1  0  0  0  0  0  0  0  0  0
   95.9415   27.7207  172.6967 C   0  0  1  0  0  0  0  0  0  0  0  0
   94.5229   28.0765  172.2143 C   0  0  1  0  0  0  0  0  0  0  0  0
   86.2135   15.2043  178.2452 C   0  0  0  0  0  0  0  0  0  0  0  0
   86.8072   15.6259  176.9099 C   0  0  0  0  0  0  0  0  0  0  0  0
   85.7685   15.7838  175.7965 C   0  0  0  0  0  0  0  0  0  0  0  0
   86.3231   16.1220  174.4101 C   0  0  0  0  0  0  0  0  0  0  0  0
   85.2441   16.2463  173.3341 C   0  0  0  0  0  0  0  0  0  0  0  0
   85.8192   16.8278  172.0407 C   0  0  0  0  0  0  0  0  0  0  0  0
   85.7076   18.3535  172.0221 C   0  0  0  0  0  0  0  0  0  0  0  0
   87.0414   19.0455  171.7396 C   0  0  0  0  0  0  0  0  0  0  0  0
   87.6425   18.6985  170.3741 C   0  0  0  0  0  0  0  0  0  0  0  0
   89.1400   18.4150  170.5075 C   0  0  0  0  0  0  0  0  0  0  0  0
   89.9547   19.6853  170.7674 C   0  0  0  0  0  0  0  0  0  0  0  0
   91.4580   19.4490  170.5727 C   0  0  0  0  0  0  0  0  0  0  0  0
   92.2857   20.7100  170.8484 C   0  0  0  0  0  0  0  0  0  0  0  0
   91.4496   21.9795  171.0604 C   0  0  0  0  0  0  0  0  0  0  0  0
   91.5169   23.0051  169.9102 C   0  0  1  0  0  0  0  0  0  0  0  0
   90.2351   23.5857  169.6742 O   0  0  0  0  0  0  0  0  0  0  0  0
   92.5552   24.1229  170.2048 C   0  0  1  0  0  0  0  0  0  0  0  0
   93.8548   23.6825  169.7899 O   0  0  0  0  0  0  0  0  0  0  0  0
   92.1908   25.4590  169.5012 C   0  0  2  0  0  0  0  0  0  0  0  0
   92.9304   26.6615  170.1307 C   0  0  0  0  0  0  0  0  0  0  0  0
   92.4848   26.8547  171.4823 O   0  0  0  0  0  0  0  0  0  0  0  0
   94.6244   28.5031  170.8439 O   0  0  0  0  0  0  0  0  0  0  0  0
   96.6489   28.9342  172.9892 O   0  0  0  0  0  0  0  0  0  0  0  0
   94.3064   25.6369  172.2957 O   0  0  0  0  0  0  0  0  0  0  0  0
   93.8076   23.5598  173.8593 O   0  0  0  0  0  0  0  0  0  0  0  0
   95.0136   27.3487  174.9070 O   0  0  0  0  0  0  0  0  0  0  0  0
   95.6971   27.7777  176.0855 C   0  0  0  0  0  0  0  0  0  0  0  0
   96.0279   26.5882  176.9473 C   0  0  0  0  0  0  0  0  0  0  0  0
   97.2898   25.9908  176.8763 C   0  0  0  0  0  0  0  0  0  0  0  0
   97.5951   24.8723  177.6580 C   0  0  0  0  0  0  0  0  0  0  0  0
   96.6551   24.3141  178.5428 C   0  0  0  0  0  0  0  0  0  0  0  0
   96.9900   23.0624  179.3759 C   0  0  2  0  0  0  0  0  0  0  0  0
   97.6631   21.9491  178.5409 C   0  0  0  0  0  0  0  0  0  0  0  0
   95.7309   22.4300  180.0144 C   0  0  0  0  0  0  0  0  0  0  0  0
   97.9560   23.4846  180.5013 C   0  0  0  0  0  0  0  0  0  0  0  0
   95.3846   24.9150  178.5860 C   0  0  0  0  0  0  0  0  0  0  0  0
   95.0762   26.0369  177.8073 C   0  0  0  0  0  0  0  0  0  0  0  0
   90.7430   25.7542  169.5024 N   0  0  0  0  0  0  0  0  0  0  0  0
   89.8344   24.8346  169.0214 C   0  0  0  0  0  0  0  0  0  0  0  0
   90.1248   23.9464  168.2272 O   0  0  0  0  0  0  0  0  0  0  0  0
   88.4412   25.0133  169.5954 C   0  0  0  0  0  0  0  0  0  0  0  0
   87.7113   26.1679  168.9128 C   0  0  0  0  0  0  0  0  0  0  0  0
   86.6591   25.6813  167.9149 C   0  0  0  0  0  0  0  0  0  0  0  0
   87.1686   25.8413  166.4828 C   0  0  0  0  0  0  0  0  0  0  0  0
   86.1679   25.3188  165.4487 C   0  0  0  0  0  0  0  0  0  0  0  0
   85.5376   26.4676  164.6554 C   0  0  0  0  0  0  0  0  0  0  0  0
   86.0895   26.5592  163.2254 C   0  0  0  0  0  0  0  0  0  0  0  0
   85.3833   27.6150  162.3708 C   0  0  0  0  0  0  0  0  0  0  0  0
   84.7326   27.0049  161.1253 C   0  0  0  0  0  0  0  0  0  0  0  0
   83.8007   28.0013  160.4283 C   0  0  0  0  0  0  0  0  0  0  0  0
   84.4891   28.7502  159.2810 C   0  0  0  0  0  0  0  0  0  0  0  0
   84.8642   30.2043  159.5915 C   0  0  0  0  0  0  0  0  0  0  0  0
   85.3420   31.0045  158.3795 C   0  0  0  0  0  0  0  0  0  0  0  0
   85.7361   32.4335  158.7661 C   0  0  0  0  0  0  0  0  0  0  0  0
   86.2794   33.1932  157.5563 C   0  0  0  0  0  0  0  0  0  0  0  0
   85.3781   34.3650  157.1624 C   0  0  0  0  0  0  0  0  0  0  0  0
   85.8525   34.9876  155.8503 C   0  0  0  0  0  0  0  0  0  0  0  0
   84.8539   34.7713  154.7123 C   0  0  0  0  0  0  0  0  0  0  0  0
   85.3765   35.3944  153.4167 C   0  0  0  0  0  0  0  0  0  0  0  0
   84.3981   35.3038  152.2434 C   0  0  0  0  0  0  0  0  0  0  0  0
   83.1549   36.1809  152.4153 C   0  0  0  0  0  0  0  0  0  0  0  0
   81.8466   35.4413  152.1109 C   0  0  0  0  0  0  0  0  0  0  0  0
   80.8616   35.4602  153.2845 C   0  0  0  0  0  0  0  0  0  0  0  0
   79.7824   34.3798  153.1896 C   0  0  0  0  0  0  0  0  0  0  0  0
   79.2542   33.9297  154.5428 C   0  0  0  0  0  0  0  0  0  0  0  0
  1  6  1  0
  1 27  1  6
  1 30  1  0
  3  2  1  1
  2 31  1  0
  3  4  1  0
 30  3  1  0
  5  4  1  0
  4 32  1  1
  6  5  1  0
  5 29  1  1
  6 28  1  6
  8  7  1  0
  9  8  1  0
 10  9  1  0
 11 10  1  0
 12 11  1  0
 13 12  1  0
 14 13  1  0
 15 14  1  0
 16 15  1  0
 17 16  1  0
 18 17  1  0
 19 18  1  0
 20 19  1  0
 21 20  1  0
 21 22  1  1
 23 21  1  0
 23 24  1  6
 25 23  1  0
 25 26  1  1
 25 44  1  0
 26 27  1  0
 32 33  1  0
 33 34  1  0
 34 35  2  0
 34 43  1  0
 35 36  1  0
 36 37  2  0
 37 38  1  0
 37 42  1  0
 38 39  1  6
 38 40  1  0
 38 41  1  0
 42 43  2  0
 44 45  1  0
 45 46  2  0
 45 47  1  0
 47 48  1  0
 48 49  1  0
 49 50  1  0
 50 51  1  0
 51 52  1  0
 52 53  1  0
 53 54  1  0
 54 55  1  0
 55 56  1  0
 56 57  1  0
 57 58  1  0
 58 59  1  0
 59 60  1  0
 60 61  1  0
 61 62  1  0
 62 63  1  0
 63 64  1  0
 64 65  1  0
 65 66  1  0
 66 67  1  0
 67 68  1  0
 68 69  1  0
 69 70  1  0
 70 71  1  0
M  END
$$$$
