
     RDKit          3D

 71 72  0  0  0  0  0  0  0  0999 V2000
   92.4001   24.6579  169.4957 C   0  0  1  0  0  0  0  0  0  0  0  0
   90.2064   24.7687  167.1578 C   0  0  0  0  0  0  0  0  0  0  0  0
   91.7177   25.0065  167.2225 C   0  0  2  0  0  0  0  0  0  0  0  0
   92.5728   23.7480  166.9203 C   0  0  1  0  0  0  0  0  0  0  0  0
   93.9357   23.9661  167.5987 C   0  0  1  0  0  0  0  0  0  0  0  0
   93.7643   24.0060  169.1287 C   0  0  1  0  0  0  0  0  0  0  0  0
   80.9977   33.3336  162.7502 C   0  0  0  0  0  0  0  0  0  0  0  0
   81.7367   33.5982  161.4474 C   0  0  0  0  0  0  0  0  0  0  0  0
   83.0373   32.8034  161.3047 C   0  0  0  0  0  0  0  0  0  0  0  0
   83.8388   33.0599  160.0257 C   0  0  0  0  0  0  0  0  0  0  0  0
   85.1573   32.2883  159.9659 C   0  0  0  0  0  0  0  0  0  0  0  0
   86.2809   33.0614  160.6598 C   0  0  0  0  0  0  0  0  0  0  0  0
   86.5018   32.5556  162.0866 C   0  0  0  0  0  0  0  0  0  0  0  0
   87.6125   33.3076  162.8204 C   0  0  0  0  0  0  0  0  0  0  0  0
   89.0206   32.7914  162.5091 C   0  0  0  0  0  0  0  0  0  0  0  0
   89.2131   31.3873  163.0855 C   0  0  0  0  0  0  0  0  0  0  0  0
   89.1989   31.3769  164.6168 C   0  0  0  0  0  0  0  0  0  0  0  0
   89.6018   30.0088  165.1820 C   0  0  0  0  0  0  0  0  0  0  0  0
   90.1408   30.1067  166.6142 C   0  0  0  0  0  0  0  0  0  0  0  0
   90.6381   28.7753  167.1935 C   0  0  0  0  0  0  0  0  0  0  0  0
   91.1702   28.8507  168.6394 C   0  0  1  0  0  0  0  0  0  0  0  0
   90.0989   29.0325  169.5641 O   0  0  0  0  0  0  0  0  0  0  0  0
   91.9796   27.5786  169.0147 C   0  0  1  0  0  0  0  0  0  0  0  0
   92.9870   27.3487  168.0210 O   0  0  0  0  0  0  0  0  0  0  0  0
   92.6287   27.6929  170.4213 C   0  0  2  0  0  0  0  0  0  0  0  0
   93.3430   26.3856  170.8336 C   0  0  0  0  0  0  0  0  0  0  0  0
   92.4188   25.2875  170.7809 O   0  0  0  0  0  0  0  0  0  0  0  0
   94.8968   24.7059  169.6745 O   0  0  0  0  0  0  0  0  0  0  0  0
   94.8913   22.9488  167.2663 O   0  0  0  0  0  0  0  0  0  0  0  0
   92.0320   25.6214  168.5001 O   0  0  0  0  0  0  0  0  0  0  0  0
   89.6878   25.3429  165.9555 O   0  0  0  0  0  0  0  0  0  0  0  0
   91.9443   22.5853  167.4884 O   0  0  0  0  0  0  0  0  0  0  0  0
   92.0462   21.4079  166.6863 C   0  0  0  0  0  0  0  0  0  0  0  0
   91.2193   21.5657  165.4379 C   0  0  0  0  0  0  0  0  0  0  0  0
   90.4062   22.6894  165.2639 C   0  0  0  0  0  0  0  0  0  0  0  0
   89.6192   22.8303  164.1167 C   0  0  0  0  0  0  0  0  0  0  0  0
   89.6201   21.8589  163.0997 C   0  0  0  0  0  0  0  0  0  0  0  0
   88.7253   22.0075  161.8546 C   0  0  2  0  0  0  0  0  0  0  0  0
   87.4159   21.1922  161.9569 C   0  0  0  0  0  0  0  0  0  0  0  0
   89.4352   21.5353  160.5639 C   0  0  0  0  0  0  0  0  0  0  0  0
   88.3648   23.4991  161.7032 C   0  0  0  0  0  0  0  0  0  0  0  0
   90.4278   20.7256  163.3009 C   0  0  0  0  0  0  0  0  0  0  0  0
   91.2196   20.5824  164.4466 C   0  0  0  0  0  0  0  0  0  0  0  0
   91.6722   28.0538  171.4882 N   0  0  0  0  0  0  0  0  0  0  0  0
   92.1089   28.3088  172.7714 C   0  0  0  0  0  0  0  0  0  0  0  0
   93.2927   28.3470  173.0896 O   0  0  0  0  0  0  0  0  0  0  0  0
   90.9770   28.5663  173.7486 C   0  0  0  0  0  0  0  0  0  0  0  0
   90.7023   27.3331  174.6061 C   0  0  0  0  0  0  0  0  0  0  0  0
   90.0445   26.2055  173.8087 C   0  0  0  0  0  0  0  0  0  0  0  0
   89.7344   25.0187  174.7205 C   0  0  0  0  0  0  0  0  0  0  0  0
   88.4631   25.2368  175.5452 C   0  0  0  0  0  0  0  0  0  0  0  0
   87.3294   24.3222  175.0710 C   0  0  0  0  0  0  0  0  0  0  0  0
   87.1738   23.0795  175.9595 C   0  0  0  0  0  0  0  0  0  0  0  0
   85.7176   22.7685  176.3150 C   0  0  0  0  0  0  0  0  0  0  0  0
   84.7537   23.1727  175.1949 C   0  0  0  0  0  0  0  0  0  0  0  0
   84.5662   22.0446  174.1754 C   0  0  0  0  0  0  0  0  0  0  0  0
   83.5853   22.4165  173.0572 C   0  0  0  0  0  0  0  0  0  0  0  0
   83.2923   21.2939  172.0546 C   0  0  0  0  0  0  0  0  0  0  0  0
   82.0594   20.4545  172.3909 C   0  0  0  0  0  0  0  0  0  0  0  0
   82.2746   18.9754  172.0551 C   0  0  0  0  0  0  0  0  0  0  0  0
   83.3191   18.3544  172.9819 C   0  0  0  0  0  0  0  0  0  0  0  0
   84.1705   17.3045  172.2652 C   0  0  0  0  0  0  0  0  0  0  0  0
   85.2085   16.7152  173.2190 C   0  0  0  0  0  0  0  0  0  0  0  0
   84.6139   15.6393  174.1290 C   0  0  0  0  0  0  0  0  0  0  0  0
   85.6952   15.0479  175.0351 C   0  0  0  0  0  0  0  0  0  0  0  0
   85.1905   13.9454  175.9689 C   0  0  0  0  0  0  0  0  0  0  0  0
   85.1615   14.3589  177.4428 C   0  0  0  0  0  0  0  0  0  0  0  0
   83.7598   14.7357  177.9374 C   0  0  0  0  0  0  0  0  0  0  0  0
   83.7813   15.5339  179.2452 C   0  0  0  0  0  0  0  0  0  0  0  0
   82.9961   14.8677  180.3767 C   0  0  0  0  0  0  0  0  0  0  0  0
   83.5384   13.5020  180.7689 C   0  0  0  0  0  0  0  0  0  0  0  0
  1  6  1  0
  1 27  1  1
  1 30  1  0
  3  2  1  1
  2 31  1  0
  3  4  1  0
 30  3  1  0
  5  4  1  0
  4 32  1  1
  6  5  1  0
  5 29  1  1
  6 28  1  1
  8  7  1  0
  9  8  1  0
 10  9  1  0
 11 10  1  0
 12 11  1  0
 13 12  1  0
 14 13  1  0
 15 14  1  0
 16 15  1  0
 17 16  1  0
 18 17  1  0
 19 18  1  0
 20 19  1  0
 21 20  1  0
 21 22  1  1
 23 21  1  0
 23 24  1  6
 25 23  1  0
 25 26  1  1
 25 44  1  0
 26 27  1  0
 32 33  1  0
 33 34  1  0
 34 35  2  0
 34 43  1  0
 35 36  1  0
 36 37  2  0
 37 38  1  0
 37 42  1  0
 38 39  1  1
 38 40  1  0
 38 41  1  0
 42 43  2  0
 44 45  1  0
 45 46  2  0
 45 47  1  0
 47 48  1  0
 48 49  1  0
 49 50  1  0
 50 51  1  0
 51 52  1  0
 52 53  1  0
 53 54  1  0
 54 55  1  0
 55 56  1  0
 56 57  1  0
 57 58  1  0
 58 59  1  0
 59 60  1  0
 60 61  1  0
 61 62  1  0
 62 63  1  0
 63 64  1  0
 64 65  1  0
 65 66  1  0
 66 67  1  0
 67 68  1  0
 68 69  1  0
 69 70  1  0
 70 71  1  0
M  END
$$$$
