
     RDKit          3D

 71 72  0  0  0  0  0  0  0  0999 V2000
   91.7234   29.4281  167.7345 C   0  0  1  0  0  0  0  0  0  0  0  0
   93.8078   30.7405  165.6795 C   0  0  0  0  0  0  0  0  0  0  0  0
   93.0287   29.4230  165.7218 C   0  0  2  0  0  0  0  0  0  0  0  0
   91.6572   29.4719  164.9988 C   0  0  1  0  0  0  0  0  0  0  0  0
   90.7864   28.3710  165.6274 C   0  0  1  0  0  0  0  0  0  0  0  0
   90.5003   28.7020  167.1040 C   0  0  1  0  0  0  0  0  0  0  0  0
   84.0441   22.5482  180.2046 C   0  0  0  0  0  0  0  0  0  0  0  0
   84.5172   21.1243  180.4532 C   0  0  0  0  0  0  0  0  0  0  0  0
   85.6518   20.6815  179.5258 C   0  0  0  0  0  0  0  0  0  0  0  0
   85.4962   21.0646  178.0516 C   0  0  0  0  0  0  0  0  0  0  0  0
   86.6386   20.5652  177.1668 C   0  0  0  0  0  0  0  0  0  0  0  0
   86.3902   20.9119  175.6971 C   0  0  0  0  0  0  0  0  0  0  0  0
   86.3413   19.6514  174.8316 C   0  0  0  0  0  0  0  0  0  0  0  0
   86.0134   19.9457  173.3675 C   0  0  0  0  0  0  0  0  0  0  0  0
   87.2377   19.9496  172.4471 C   0  0  0  0  0  0  0  0  0  0  0  0
   87.7641   21.3747  172.2664 C   0  0  0  0  0  0  0  0  0  0  0  0
   88.9976   21.4320  171.3607 C   0  0  0  0  0  0  0  0  0  0  0  0
   89.4578   22.8745  171.1136 C   0  0  0  0  0  0  0  0  0  0  0  0
   90.9524   23.0651  171.3979 C   0  0  0  0  0  0  0  0  0  0  0  0
   91.3968   24.5319  171.4807 C   0  0  0  0  0  0  0  0  0  0  0  0
   90.4701   25.5361  170.7651 C   0  0  1  0  0  0  0  0  0  0  0  0
   89.2155   25.6348  171.4374 O   0  0  0  0  0  0  0  0  0  0  0  0
   91.1250   26.9415  170.6631 C   0  0  1  0  0  0  0  0  0  0  0  0
   91.4453   27.4107  171.9792 O   0  0  0  0  0  0  0  0  0  0  0  0
   92.3975   26.9299  169.7724 C   0  0  2  0  0  0  0  0  0  0  0  0
   92.9179   28.3583  169.4932 C   0  0  0  0  0  0  0  0  0  0  0  0
   91.8206   29.2179  169.1469 O   0  0  0  0  0  0  0  0  0  0  0  0
   90.1630   27.4707  167.7676 O   0  0  0  0  0  0  0  0  0  0  0  0
   89.5382   28.1910  164.9431 O   0  0  0  0  0  0  0  0  0  0  0  0
   92.9341   28.9892  167.1046 O   0  0  0  0  0  0  0  0  0  0  0  0
   93.5388   31.4102  164.4452 O   0  0  0  0  0  0  0  0  0  0  0  0
   91.0352   30.7498  165.2221 O   0  0  0  0  0  0  0  0  0  0  0  0
   90.8175   31.5156  164.0363 C   0  0  0  0  0  0  0  0  0  0  0  0
   89.5387   31.0789  163.3721 C   0  0  0  0  0  0  0  0  0  0  0  0
   88.9036   29.8973  163.7657 C   0  0  0  0  0  0  0  0  0  0  0  0
   87.7278   29.4755  163.1373 C   0  0  0  0  0  0  0  0  0  0  0  0
   87.1405   30.2200  162.0987 C   0  0  0  0  0  0  0  0  0  0  0  0
   85.8629   29.7306  161.3908 C   0  0  2  0  0  0  0  0  0  0  0  0
   85.6573   30.3851  160.0054 C   0  0  0  0  0  0  0  0  0  0  0  0
   84.5867   30.0326  162.2113 C   0  0  0  0  0  0  0  0  0  0  0  0
   85.9790   28.2048  161.2010 C   0  0  0  0  0  0  0  0  0  0  0  0
   87.8039   31.3946  161.7020 C   0  0  0  0  0  0  0  0  0  0  0  0
   88.9795   31.8221  162.3308 C   0  0  0  0  0  0  0  0  0  0  0  0
   92.2084   26.2449  168.4769 N   0  0  0  0  0  0  0  0  0  0  0  0
   92.9917   25.1645  168.1283 C   0  0  0  0  0  0  0  0  0  0  0  0
   94.1415   25.0052  168.5240 O   0  0  0  0  0  0  0  0  0  0  0  0
   92.2785   24.1744  167.2264 C   0  0  0  0  0  0  0  0  0  0  0  0
   93.2533   23.1388  166.6707 C   0  0  0  0  0  0  0  0  0  0  0  0
   93.5404   22.0163  167.6694 C   0  0  0  0  0  0  0  0  0  0  0  0
   92.2334   21.4276  168.1996 C   0  0  0  0  0  0  0  0  0  0  0  0
   92.4264   20.0327  168.8003 C   0  0  0  0  0  0  0  0  0  0  0  0
   91.0919   19.4341  169.2555 C   0  0  0  0  0  0  0  0  0  0  0  0
   91.2496   18.0071  169.8003 C   0  0  0  0  0  0  0  0  0  0  0  0
   89.9270   17.3824  170.2520 C   0  0  0  0  0  0  0  0  0  0  0  0
   90.0919   15.9120  170.6489 C   0  0  0  0  0  0  0  0  0  0  0  0
   88.8410   15.3712  171.3487 C   0  0  0  0  0  0  0  0  0  0  0  0
   88.8094   15.7074  172.8444 C   0  0  0  0  0  0  0  0  0  0  0  0
   88.2053   14.6184  173.7391 C   0  0  0  0  0  0  0  0  0  0  0  0
   87.1973   15.1341  174.7664 C   0  0  0  0  0  0  0  0  0  0  0  0
   86.8655   14.0687  175.8159 C   0  0  0  0  0  0  0  0  0  0  0  0
   85.3539   13.8784  175.9379 C   0  0  0  0  0  0  0  0  0  0  0  0
   84.7936   14.5311  177.2030 C   0  0  0  0  0  0  0  0  0  0  0  0
   83.2673   14.5770  177.1506 C   0  0  0  0  0  0  0  0  0  0  0  0
   82.7513   15.7565  176.3251 C   0  0  0  0  0  0  0  0  0  0  0  0
   81.2233   15.7330  176.2559 C   0  0  0  0  0  0  0  0  0  0  0  0
   80.6161   16.9163  175.4989 C   0  0  0  0  0  0  0  0  0  0  0  0
   81.2159   18.2680  175.8954 C   0  0  0  0  0  0  0  0  0  0  0  0
   80.7482   19.4226  175.0013 C   0  0  0  0  0  0  0  0  0  0  0  0
   81.5421   19.5271  173.6948 C   0  0  0  0  0  0  0  0  0  0  0  0
   82.0547   20.9395  173.4066 C   0  0  0  0  0  0  0  0  0  0  0  0
   82.9561   21.0199  172.1844 C   0  0  0  0  0  0  0  0  0  0  0  0
  1  6  1  0
  1 27  1  1
  1 30  1  0
  3  2  1  1
  2 31  1  0
  3  4  1  0
 30  3  1  0
  5  4  1  0
  4 32  1  1
  6  5  1  0
  5 29  1  6
  6 28  1  1
  8  7  1  0
  9  8  1  0
 10  9  1  0
 11 10  1  0
 12 11  1  0
 13 12  1  0
 14 13  1  0
 15 14  1  0
 16 15  1  0
 17 16  1  0
 18 17  1  0
 19 18  1  0
 20 19  1  0
 21 20  1  0
 21 22  1  1
 23 21  1  0
 23 24  1  1
 25 23  1  0
 25 26  1  6
 25 44  1  0
 26 27  1  0
 32 33  1  0
 33 34  1  0
 34 35  2  0
 34 43  1  0
 35 36  1  0
 36 37  2  0
 37 38  1  0
 37 42  1  0
 38 39  1  6
 38 40  1  0
 38 41  1  0
 42 43  2  0
 44 45  1  0
 45 46  2  0
 45 47  1  0
 47 48  1  0
 48 49  1  0
 49 50  1  0
 50 51  1  0
 51 52  1  0
 52 53  1  0
 53 54  1  0
 54 55  1  0
 55 56  1  0
 56 57  1  0
 57 58  1  0
 58 59  1  0
 59 60  1  0
 60 61  1  0
 61 62  1  0
 62 63  1  0
 63 64  1  0
 64 65  1  0
 65 66  1  0
 66 67  1  0
 67 68  1  0
 68 69  1  0
 69 70  1  0
 70 71  1  0
M  END
$$$$
