
     RDKit          3D

 71 72  0  0  0  0  0  0  0  0999 V2000
   94.0852   28.5084  166.5352 C   0  0  1  0  0  0  0  0  0  0  0  0
   92.3246   31.1899  166.5336 C   0  0  0  0  0  0  0  0  0  0  0  0
   93.6338   30.7670  167.2056 C   0  0  2  0  0  0  0  0  0  0  0  0
   94.9076   31.1148  166.3916 C   0  0  1  0  0  0  0  0  0  0  0  0
   96.0043   30.1377  166.8475 C   0  0  1  0  0  0  0  0  0  0  0  0
   95.6272   28.6978  166.4520 C   0  0  1  0  0  0  0  0  0  0  0  0
   84.9083   15.0443  175.7739 C   0  0  0  0  0  0  0  0  0  0  0  0
   86.2984   14.4783  175.5275 C   0  0  0  0  0  0  0  0  0  0  0  0
   87.3426   15.5410  175.1756 C   0  0  0  0  0  0  0  0  0  0  0  0
   87.3717   16.7737  176.0832 C   0  0  0  0  0  0  0  0  0  0  0  0
   87.4779   18.0932  175.3183 C   0  0  0  0  0  0  0  0  0  0  0  0
   88.8587   18.7270  175.5007 C   0  0  0  0  0  0  0  0  0  0  0  0
   89.7233   18.5390  174.2527 C   0  0  0  0  0  0  0  0  0  0  0  0
   91.0266   19.3370  174.3045 C   0  0  0  0  0  0  0  0  0  0  0  0
   90.8752   20.7316  174.9196 C   0  0  0  0  0  0  0  0  0  0  0  0
   91.5844   21.7754  174.0547 C   0  0  0  0  0  0  0  0  0  0  0  0
   91.4103   23.1979  174.5944 C   0  0  0  0  0  0  0  0  0  0  0  0
   92.3150   24.1996  173.8652 C   0  0  0  0  0  0  0  0  0  0  0  0
   92.1164   24.1636  172.3452 C   0  0  0  0  0  0  0  0  0  0  0  0
   93.1000   25.0416  171.5595 C   0  0  0  0  0  0  0  0  0  0  0  0
   92.6982   26.5261  171.4403 C   0  0  1  0  0  0  0  0  0  0  0  0
   93.2232   27.2815  172.5310 O   0  0  0  0  0  0  0  0  0  0  0  0
   93.1784   27.1391  170.0957 C   0  0  1  0  0  0  0  0  0  0  0  0
   94.5936   27.3596  170.1550 O   0  0  0  0  0  0  0  0  0  0  0  0
   92.8259   26.2352  168.8826 C   0  0  2  0  0  0  0  0  0  0  0  0
   92.5293   27.0655  167.6129 C   0  0  0  0  0  0  0  0  0  0  0  0
   93.7105   27.1528  166.8006 O   0  0  0  0  0  0  0  0  0  0  0  0
   96.3592   27.8055  167.3112 O   0  0  0  0  0  0  0  0  0  0  0  0
   97.2909   30.4481  166.2933 O   0  0  0  0  0  0  0  0  0  0  0  0
   93.5394   29.3596  167.5514 O   0  0  0  0  0  0  0  0  0  0  0  0
   92.5266   32.4217  165.8363 O   0  0  0  0  0  0  0  0  0  0  0  0
   94.6562   30.9197  164.9885 O   0  0  0  0  0  0  0  0  0  0  0  0
   95.7084   31.3672  164.1325 C   0  0  0  0  0  0  0  0  0  0  0  0
   95.6919   32.8701  164.0434 C   0  0  0  0  0  0  0  0  0  0  0  0
   95.8360   33.6498  165.1948 C   0  0  0  0  0  0  0  0  0  0  0  0
   95.7991   35.0456  165.1208 C   0  0  0  0  0  0  0  0  0  0  0  0
   95.6236   35.7134  163.8955 C   0  0  0  0  0  0  0  0  0  0  0  0
   95.5521   37.2507  163.8285 C   0  0  2  0  0  0  0  0  0  0  0  0
   96.3394   37.8357  162.6337 C   0  0  0  0  0  0  0  0  0  0  0  0
   96.1254   37.9195  165.1001 C   0  0  0  0  0  0  0  0  0  0  0  0
   94.0702   37.6521  163.6841 C   0  0  0  0  0  0  0  0  0  0  0  0
   95.4596   34.9133  162.7510 C   0  0  0  0  0  0  0  0  0  0  0  0
   95.4992   33.5155  162.8204 C   0  0  0  0  0  0  0  0  0  0  0  0
   91.6785   25.3366  169.1262 N   0  0  0  0  0  0  0  0  0  0  0  0
   91.2967   24.4068  168.1816 C   0  0  0  0  0  0  0  0  0  0  0  0
   92.0684   23.5997  167.6744 O   0  0  0  0  0  0  0  0  0  0  0  0
   89.8168   24.4622  167.8514 C   0  0  0  0  0  0  0  0  0  0  0  0
   89.1828   23.0761  167.9431 C   0  0  0  0  0  0  0  0  0  0  0  0
   88.1120   22.9978  169.0328 C   0  0  0  0  0  0  0  0  0  0  0  0
   87.5069   21.5953  169.0853 C   0  0  0  0  0  0  0  0  0  0  0  0
   86.4229   21.4705  170.1593 C   0  0  0  0  0  0  0  0  0  0  0  0
   85.5111   20.2691  169.8917 C   0  0  0  0  0  0  0  0  0  0  0  0
   84.3804   20.1550  170.9244 C   0  0  0  0  0  0  0  0  0  0  0  0
   83.4451   18.9704  170.6688 C   0  0  0  0  0  0  0  0  0  0  0  0
   82.1948   19.0243  171.5526 C   0  0  0  0  0  0  0  0  0  0  0  0
   80.9389   19.3472  170.7368 C   0  0  0  0  0  0  0  0  0  0  0  0
   79.7754   19.8305  171.6108 C   0  0  0  0  0  0  0  0  0  0  0  0
   78.9101   18.7150  172.2095 C   0  0  0  0  0  0  0  0  0  0  0  0
   77.5826   18.4896  171.4854 C   0  0  0  0  0  0  0  0  0  0  0  0
   76.7885   17.3370  172.1079 C   0  0  0  0  0  0  0  0  0  0  0  0
   75.2976   17.4773  171.8023 C   0  0  0  0  0  0  0  0  0  0  0  0
   74.6622   16.1397  171.4177 C   0  0  0  0  0  0  0  0  0  0  0  0
   73.4305   15.8649  172.2788 C   0  0  0  0  0  0  0  0  0  0  0  0
   72.7601   14.5369  171.9236 C   0  0  0  0  0  0  0  0  0  0  0  0
   71.3334   14.7745  171.4254 C   0  0  0  0  0  0  0  0  0  0  0  0
   70.2546   14.5152  172.4794 C   0  0  0  0  0  0  0  0  0  0  0  0
   68.8976   14.1314  171.8832 C   0  0  0  0  0  0  0  0  0  0  0  0
   67.9190   13.5683  172.9208 C   0  0  0  0  0  0  0  0  0  0  0  0
   66.5384   13.2564  172.3337 C   0  0  0  0  0  0  0  0  0  0  0  0
   65.5581   12.6819  173.3582 C   0  0  0  0  0  0  0  0  0  0  0  0
   64.3467   12.0116  172.7289 C   0  0  0  0  0  0  0  0  0  0  0  0
  1  6  1  0
  1 27  1  1
  1 30  1  0
  3  2  1  6
  2 31  1  0
  3  4  1  0
 30  3  1  0
  5  4  1  0
  4 32  1  6
  6  5  1  0
  5 29  1  6
  6 28  1  1
  8  7  1  0
  9  8  1  0
 10  9  1  0
 11 10  1  0
 12 11  1  0
 13 12  1  0
 14 13  1  0
 15 14  1  0
 16 15  1  0
 17 16  1  0
 18 17  1  0
 19 18  1  0
 20 19  1  0
 21 20  1  0
 21 22  1  1
 23 21  1  0
 23 24  1  1
 25 23  1  0
 25 26  1  6
 25 44  1  0
 26 27  1  0
 32 33  1  0
 33 34  1  0
 34 35  2  0
 34 43  1  0
 35 36  1  0
 36 37  2  0
 37 38  1  0
 37 42  1  0
 38 39  1  6
 38 40  1  0
 38 41  1  0
 42 43  2  0
 44 45  1  0
 45 46  2  0
 45 47  1  0
 47 48  1  0
 48 49  1  0
 49 50  1  0
 50 51  1  0
 51 52  1  0
 52 53  1  0
 53 54  1  0
 54 55  1  0
 55 56  1  0
 56 57  1  0
 57 58  1  0
 58 59  1  0
 59 60  1  0
 60 61  1  0
 61 62  1  0
 62 63  1  0
 63 64  1  0
 64 65  1  0
 65 66  1  0
 66 67  1  0
 67 68  1  0
 68 69  1  0
 69 70  1  0
 70 71  1  0
M  END
$$$$
