
     RDKit          3D

 71 72  0  0  0  0  0  0  0  0999 V2000
   95.3768   27.9230  172.0757 C   0  0  1  0  0  0  0  0  0  0  0  0
   97.9593   26.0344  172.3084 C   0  0  0  0  0  0  0  0  0  0  0  0
   97.1192   26.5635  171.1427 C   0  0  2  0  0  0  0  0  0  0  0  0
   97.6394   27.8931  170.5362 C   0  0  1  0  0  0  0  0  0  0  0  0
   96.4351   28.5735  169.8639 C   0  0  1  0  0  0  0  0  0  0  0  0
   95.3917   28.9701  170.9250 C   0  0  1  0  0  0  0  0  0  0  0  0
   82.8928   30.9352  156.2932 C   0  0  0  0  0  0  0  0  0  0  0  0
   83.6532   29.7438  156.8551 C   0  0  0  0  0  0  0  0  0  0  0  0
   84.2775   30.0038  158.2285 C   0  0  0  0  0  0  0  0  0  0  0  0
   85.0234   28.8233  158.8564 C   0  0  0  0  0  0  0  0  0  0  0  0
   85.4162   29.0552  160.3155 C   0  0  0  0  0  0  0  0  0  0  0  0
   85.9510   27.7712  160.9537 C   0  0  0  0  0  0  0  0  0  0  0  0
   86.6430   28.0621  162.2866 C   0  0  0  0  0  0  0  0  0  0  0  0
   86.9536   26.7962  163.0859 C   0  0  0  0  0  0  0  0  0  0  0  0
   86.9632   27.0080  164.6029 C   0  0  0  0  0  0  0  0  0  0  0  0
   88.3986   27.1545  165.1115 C   0  0  0  0  0  0  0  0  0  0  0  0
   88.4724   27.8996  166.4474 C   0  0  0  0  0  0  0  0  0  0  0  0
   89.9121   27.9952  166.9688 C   0  0  0  0  0  0  0  0  0  0  0  0
   90.1426   29.2539  167.8135 C   0  0  0  0  0  0  0  0  0  0  0  0
   90.8554   28.9962  169.1481 C   0  0  0  0  0  0  0  0  0  0  0  0
   92.3947   28.9391  169.0657 C   0  0  1  0  0  0  0  0  0  0  0  0
   92.9225   30.1780  168.5941 O   0  0  0  0  0  0  0  0  0  0  0  0
   93.0253   28.5877  170.4416 C   0  0  1  0  0  0  0  0  0  0  0  0
   92.7652   29.6514  171.3667 O   0  0  0  0  0  0  0  0  0  0  0  0
   92.4882   27.2431  171.0042 C   0  0  2  0  0  0  0  0  0  0  0  0
   93.3038   26.7637  172.2266 C   0  0  0  0  0  0  0  0  0  0  0  0
   94.1067   27.8427  172.7305 O   0  0  0  0  0  0  0  0  0  0  0  0
   94.1237   29.1040  170.2584 O   0  0  0  0  0  0  0  0  0  0  0  0
   96.8025   29.7420  169.1166 O   0  0  0  0  0  0  0  0  0  0  0  0
   95.7323   26.6301  171.5685 O   0  0  0  0  0  0  0  0  0  0  0  0
   97.7913   24.6180  172.4086 O   0  0  0  0  0  0  0  0  0  0  0  0
   98.1368   28.7438  171.5844 O   0  0  0  0  0  0  0  0  0  0  0  0
   99.2454   29.5608  171.2054 C   0  0  0  0  0  0  0  0  0  0  0  0
  100.5345   28.8880  171.5962 C   0  0  0  0  0  0  0  0  0  0  0  0
  101.0637   29.0611  172.8785 C   0  0  0  0  0  0  0  0  0  0  0  0
  102.2718   28.4567  173.2396 C   0  0  0  0  0  0  0  0  0  0  0  0
  102.9916   27.6533  172.3370 C   0  0  0  0  0  0  0  0  0  0  0  0
  104.3377   27.0180  172.7337 C   0  0  2  0  0  0  0  0  0  0  0  0
  105.4329   27.2157  171.6608 C   0  0  0  0  0  0  0  0  0  0  0  0
  104.2202   25.4928  172.9633 C   0  0  0  0  0  0  0  0  0  0  0  0
  104.8085   27.6804  174.0442 C   0  0  0  0  0  0  0  0  0  0  0  0
  102.4551   27.5071  171.0455 C   0  0  0  0  0  0  0  0  0  0  0  0
  101.2441   28.1079  170.6812 C   0  0  0  0  0  0  0  0  0  0  0  0
   92.4623   26.1517  170.0084 N   0  0  0  0  0  0  0  0  0  0  0  0
   92.3973   24.8330  170.4075 C   0  0  0  0  0  0  0  0  0  0  0  0
   92.0781   24.4821  171.5384 O   0  0  0  0  0  0  0  0  0  0  0  0
   92.7332   23.8546  169.2975 C   0  0  0  0  0  0  0  0  0  0  0  0
   92.2229   22.4541  169.6286 C   0  0  0  0  0  0  0  0  0  0  0  0
   90.7029   22.4137  169.7952 C   0  0  0  0  0  0  0  0  0  0  0  0
   90.2130   20.9676  169.8667 C   0  0  0  0  0  0  0  0  0  0  0  0
   88.6900   20.8763  169.9944 C   0  0  0  0  0  0  0  0  0  0  0  0
   88.2831   20.1278  171.2674 C   0  0  0  0  0  0  0  0  0  0  0  0
   89.3116   19.0608  171.6694 C   0  0  0  0  0  0  0  0  0  0  0  0
   88.9272   18.2983  172.9400 C   0  0  0  0  0  0  0  0  0  0  0  0
   87.6476   17.4771  172.7524 C   0  0  0  0  0  0  0  0  0  0  0  0
   86.9413   17.2174  174.0869 C   0  0  0  0  0  0  0  0  0  0  0  0
   85.4162   17.3330  173.9799 C   0  0  0  0  0  0  0  0  0  0  0  0
   84.6379   16.7228  175.1518 C   0  0  0  0  0  0  0  0  0  0  0  0
   83.1178   16.7942  175.0042 C   0  0  0  0  0  0  0  0  0  0  0  0
   82.4062   16.4446  176.3150 C   0  0  0  0  0  0  0  0  0  0  0  0
   80.9566   16.0368  176.0540 C   0  0  0  0  0  0  0  0  0  0  0  0
   80.6622   14.6181  176.5453 C   0  0  0  0  0  0  0  0  0  0  0  0
   79.4999   14.6254  177.5369 C   0  0  0  0  0  0  0  0  0  0  0  0
   79.5547   13.4405  178.5023 C   0  0  0  0  0  0  0  0  0  0  0  0
   78.3351   13.4461  179.4257 C   0  0  0  0  0  0  0  0  0  0  0  0
   78.6825   13.4321  180.9161 C   0  0  0  0  0  0  0  0  0  0  0  0
   79.8643   12.5212  181.2594 C   0  0  0  0  0  0  0  0  0  0  0  0
   79.6109   11.6394  182.4880 C   0  0  0  0  0  0  0  0  0  0  0  0
   78.4328   12.1241  183.3396 C   0  0  0  0  0  0  0  0  0  0  0  0
   78.1432   11.2257  184.5437 C   0  0  0  0  0  0  0  0  0  0  0  0
   77.0458   11.7614  185.4501 C   0  0  0  0  0  0  0  0  0  0  0  0
  1  6  1  0
  1 27  1  6
  1 30  1  0
  3  2  1  1
  2 31  1  0
  3  4  1  0
 30  3  1  0
  5  4  1  0
  4 32  1  1
  6  5  1  0
  5 29  1  1
  6 28  1  6
  8  7  1  0
  9  8  1  0
 10  9  1  0
 11 10  1  0
 12 11  1  0
 13 12  1  0
 14 13  1  0
 15 14  1  0
 16 15  1  0
 17 16  1  0
 18 17  1  0
 19 18  1  0
 20 19  1  0
 21 20  1  0
 21 22  1  1
 23 21  1  0
 23 24  1  1
 25 23  1  0
 25 26  1  1
 25 44  1  0
 26 27  1  0
 32 33  1  0
 33 34  1  0
 34 35  2  0
 34 43  1  0
 35 36  1  0
 36 37  2  0
 37 38  1  0
 37 42  1  0
 38 39  1  6
 38 40  1  0
 38 41  1  0
 42 43  2  0
 44 45  1  0
 45 46  2  0
 45 47  1  0
 47 48  1  0
 48 49  1  0
 49 50  1  0
 50 51  1  0
 51 52  1  0
 52 53  1  0
 53 54  1  0
 54 55  1  0
 55 56  1  0
 56 57  1  0
 57 58  1  0
 58 59  1  0
 59 60  1  0
 60 61  1  0
 61 62  1  0
 62 63  1  0
 63 64  1  0
 64 65  1  0
 65 66  1  0
 66 67  1  0
 67 68  1  0
 68 69  1  0
 69 70  1  0
 70 71  1  0
M  END
$$$$
