
     RDKit          3D

 71 72  0  0  0  0  0  0  0  0999 V2000
   92.8897   23.1618  171.8415 C   0  0  1  0  0  0  0  0  0  0  0  0
   92.4057   20.1488  170.8526 C   0  0  0  0  0  0  0  0  0  0  0  0
   93.5121   20.8536  171.6423 C   0  0  2  0  0  0  0  0  0  0  0  0
   93.3188   20.8141  173.1809 C   0  0  1  0  0  0  0  0  0  0  0  0
   94.0942   22.0117  173.7550 C   0  0  1  0  0  0  0  0  0  0  0  0
   93.4565   23.3308  173.2805 C   0  0  1  0  0  0  0  0  0  0  0  0
   95.1192   39.8908  171.5545 C   0  0  0  0  0  0  0  0  0  0  0  0
   95.4317   38.5115  170.9949 C   0  0  0  0  0  0  0  0  0  0  0  0
   95.4139   37.4010  172.0485 C   0  0  0  0  0  0  0  0  0  0  0  0
   96.0382   36.0690  171.6241 C   0  0  0  0  0  0  0  0  0  0  0  0
   96.5745   35.2451  172.7950 C   0  0  0  0  0  0  0  0  0  0  0  0
   97.1811   33.9266  172.3098 C   0  0  0  0  0  0  0  0  0  0  0  0
   96.4928   32.7269  172.9634 C   0  0  0  0  0  0  0  0  0  0  0  0
   97.2575   31.4183  172.7623 C   0  0  0  0  0  0  0  0  0  0  0  0
   96.8800   30.3202  173.7613 C   0  0  0  0  0  0  0  0  0  0  0  0
   95.7077   29.4945  173.2279 C   0  0  0  0  0  0  0  0  0  0  0  0
   94.3502   30.0946  173.6052 C   0  0  0  0  0  0  0  0  0  0  0  0
   93.1853   29.2361  173.0956 C   0  0  0  0  0  0  0  0  0  0  0  0
   93.4546   28.6590  171.7008 C   0  0  0  0  0  0  0  0  0  0  0  0
   92.4162   27.6303  171.2326 C   0  0  0  0  0  0  0  0  0  0  0  0
   91.9901   27.7587  169.7557 C   0  0  1  0  0  0  0  0  0  0  0  0
   92.7985   28.7191  169.0774 O   0  0  0  0  0  0  0  0  0  0  0  0
   92.0675   26.3919  169.0204 C   0  0  1  0  0  0  0  0  0  0  0  0
   93.4241   25.9286  169.0249 O   0  0  0  0  0  0  0  0  0  0  0  0
   91.1346   25.3291  169.6631 C   0  0  2  0  0  0  0  0  0  0  0  0
   91.5566   24.9933  171.1117 C   0  0  0  0  0  0  0  0  0  0  0  0
   92.8615   24.3933  171.1126 O   0  0  0  0  0  0  0  0  0  0  0  0
   94.4581   24.3588  173.3825 O   0  0  0  0  0  0  0  0  0  0  0  0
   94.1394   22.0090  175.1891 O   0  0  0  0  0  0  0  0  0  0  0  0
   93.6663   22.1989  171.1171 O   0  0  0  0  0  0  0  0  0  0  0  0
   92.7095   20.2075  169.4566 O   0  0  0  0  0  0  0  0  0  0  0  0
   91.9234   20.9596  173.4996 O   0  0  0  0  0  0  0  0  0  0  0  0
   91.2483   19.7302  173.7697 C   0  0  0  0  0  0  0  0  0  0  0  0
   89.8182   20.0049  174.1527 C   0  0  0  0  0  0  0  0  0  0  0  0
   88.9332   18.9492  174.3909 C   0  0  0  0  0  0  0  0  0  0  0  0
   87.5985   19.1984  174.7251 C   0  0  0  0  0  0  0  0  0  0  0  0
   87.1007   20.5087  174.8397 C   0  0  0  0  0  0  0  0  0  0  0  0
   85.6210   20.7728  175.1767 C   0  0  2  0  0  0  0  0  0  0  0  0
   85.0759   22.0590  174.5146 C   0  0  0  0  0  0  0  0  0  0  0  0
   85.3859   20.9299  176.6975 C   0  0  0  0  0  0  0  0  0  0  0  0
   84.7963   19.5722  174.6704 C   0  0  0  0  0  0  0  0  0  0  0  0
   87.9994   21.5576  174.5764 C   0  0  0  0  0  0  0  0  0  0  0  0
   89.3373   21.3124  174.2448 C   0  0  0  0  0  0  0  0  0  0  0  0
   91.0588   24.0668  168.8989 N   0  0  0  0  0  0  0  0  0  0  0  0
   91.0180   24.0773  167.5202 C   0  0  0  0  0  0  0  0  0  0  0  0
   90.6347   25.0376  166.8607 O   0  0  0  0  0  0  0  0  0  0  0  0
   91.5226   22.7893  166.8968 C   0  0  0  0  0  0  0  0  0  0  0  0
   91.3177   22.7960  165.3837 C   0  0  0  0  0  0  0  0  0  0  0  0
   90.1454   21.9131  164.9520 C   0  0  0  0  0  0  0  0  0  0  0  0
   88.9428   22.7746  164.5679 C   0  0  0  0  0  0  0  0  0  0  0  0
   88.7425   22.8491  163.0519 C   0  0  0  0  0  0  0  0  0  0  0  0
   87.2581   22.7672  162.6827 C   0  0  0  0  0  0  0  0  0  0  0  0
   86.7324   24.0823  162.0893 C   0  0  0  0  0  0  0  0  0  0  0  0
   85.3449   24.4682  162.6085 C   0  0  0  0  0  0  0  0  0  0  0  0
   84.7959   25.7155  161.9085 C   0  0  0  0  0  0  0  0  0  0  0  0
   85.6662   26.9465  162.1814 C   0  0  0  0  0  0  0  0  0  0  0  0
   85.1950   28.1852  161.4102 C   0  0  0  0  0  0  0  0  0  0  0  0
   86.0942   29.4186  161.5570 C   0  0  0  0  0  0  0  0  0  0  0  0
   86.2826   30.2183  160.2676 C   0  0  0  0  0  0  0  0  0  0  0  0
   85.0192   30.1990  159.4015 C   0  0  0  0  0  0  0  0  0  0  0  0
   84.4516   31.6085  159.2374 C   0  0  0  0  0  0  0  0  0  0  0  0
   83.0401   31.5937  158.6474 C   0  0  0  0  0  0  0  0  0  0  0  0
   82.9375   32.5739  157.4799 C   0  0  0  0  0  0  0  0  0  0  0  0
   81.5750   33.2661  157.4229 C   0  0  0  0  0  0  0  0  0  0  0  0
   81.2308   33.8821  158.7801 C   0  0  0  0  0  0  0  0  0  0  0  0
   79.8488   34.5373  158.8341 C   0  0  0  0  0  0  0  0  0  0  0  0
   79.8999   36.0647  158.9280 C   0  0  0  0  0  0  0  0  0  0  0  0
   78.5550   36.6919  159.3139 C   0  0  0  0  0  0  0  0  0  0  0  0
   78.2375   37.9629  158.5191 C   0  0  0  0  0  0  0  0  0  0  0  0
   76.8429   38.5246  158.8029 C   0  0  0  0  0  0  0  0  0  0  0  0
   76.6696   39.9693  158.3609 C   0  0  0  0  0  0  0  0  0  0  0  0
  1  6  1  0
  1 27  1  6
  1 30  1  0
  3  2  1  6
  2 31  1  0
  3  4  1  0
 30  3  1  0
  5  4  1  0
  4 32  1  6
  6  5  1  0
  5 29  1  1
  6 28  1  6
  8  7  1  0
  9  8  1  0
 10  9  1  0
 11 10  1  0
 12 11  1  0
 13 12  1  0
 14 13  1  0
 15 14  1  0
 16 15  1  0
 17 16  1  0
 18 17  1  0
 19 18  1  0
 20 19  1  0
 21 20  1  0
 21 22  1  6
 23 21  1  0
 23 24  1  1
 25 23  1  0
 25 26  1  1
 25 44  1  0
 26 27  1  0
 32 33  1  0
 33 34  1  0
 34 35  2  0
 34 43  1  0
 35 36  1  0
 36 37  2  0
 37 38  1  0
 37 42  1  0
 38 39  1  6
 38 40  1  0
 38 41  1  0
 42 43  2  0
 44 45  1  0
 45 46  2  0
 45 47  1  0
 47 48  1  0
 48 49  1  0
 49 50  1  0
 50 51  1  0
 51 52  1  0
 52 53  1  0
 53 54  1  0
 54 55  1  0
 55 56  1  0
 56 57  1  0
 57 58  1  0
 58 59  1  0
 59 60  1  0
 60 61  1  0
 61 62  1  0
 62 63  1  0
 63 64  1  0
 64 65  1  0
 65 66  1  0
 66 67  1  0
 67 68  1  0
 68 69  1  0
 69 70  1  0
 70 71  1  0
M  END
$$$$
