
     RDKit          3D

 23 24  0  0  0  0  0  0  0  0999 V2000
   -8.4362   -0.9608   11.0983 C   0  0  0  0  0  0  0  0  0  0  0  0
   -2.1214    2.9058   10.3381 C   0  0  0  0  0  0  0  0  0  0  0  0
   -3.8705    4.5451   10.5822 C   0  0  0  0  0  0  0  0  0  0  0  0
   -6.9695   -3.0106   11.4784 C   0  0  0  0  0  0  0  0  0  0  0  0
   -5.6376   -2.5267   13.4876 C   0  0  0  0  0  0  0  0  0  0  0  0
   -6.1445   -0.7592   11.8054 C   0  0  1  0  0  0  0  0  0  0  0  0
   -7.5317   -0.1883   12.0308 C   0  0  0  0  0  0  0  0  0  0  0  0
   -2.5684    2.6875   11.7572 C   0  0  0  0  0  0  0  0  0  0  0  0
   -4.7816    3.5022   11.1496 C   0  0  0  0  0  0  0  0  0  0  0  0
   -4.0321    2.4173   11.8945 C   0  0  1  0  0  0  0  0  0  0  0  0
   -5.0337    0.1051   12.1128 C   0  0  0  0  0  0  0  0  0  0  0  0
   -8.2836   -2.4168   11.0556 C   0  0  2  0  0  0  0  0  0  0  0  0
   -2.9143    3.9082    9.7011 N   0  0  0  0  0  4  0  0  0  0  0  0
   -4.4630    1.1494   11.3720 N   0  0  0  0  0  0  0  0  0  0  0  0
   -8.5056   -2.8750    9.6776 N   0  0  0  0  0  4  0  0  0  0  0  0
   -6.2051   -2.0724   12.2999 N   0  0  0  0  0  0  0  0  0  0  0  0
   -9.6519   -6.0116    9.5807 O   0  0  0  0  0  0  0  0  0  0  0  0
   -4.8900   -3.5683   13.4769 O   0  0  0  0  0  0  0  0  0  0  0  0
   -4.4694   -0.1043   13.2473 O   0  0  0  0  0  0  0  0  0  0  0  0
   -7.6367   -6.1565   10.9802 O   0  0  0  0  0  0  0  0  0  0  0  0
   -9.4296   -4.4309   11.6570 O   0  0  0  0  0  0  0  0  0  0  0  0
   -7.9123   -4.0424    9.4351 O   0  0  0  0  0  0  0  0  0  0  0  0
   -8.6505   -5.2226   10.3767 S   0  0  2  0  0  6  0  0  0  0  0  0
  1  7  1  0
 12  1  1  0
  8  2  1  0
  2 13  1  0
  9  3  1  0
  3 13  1  0
 12  4  1  0
  4 16  1  0
 16  5  1  0
  5 18  2  0
  7  6  1  0
  6 11  1  1
 16  6  1  0
 10  8  1  0
 10  9  1  0
 10 14  1  6
 11 14  1  0
 11 19  2  0
 12 15  1  6
 22 15  1  0
 23 17  2  0
 23 20  2  0
 23 21  1  1
 22 23  1  0
M  CHG  2  13   1  15   1
M  END
$$$$
