
     RDKit          3D

 23 24  0  0  0  0  0  0  0  0999 V2000
   -7.9181   -0.1935   10.2052 C   0  0  0  0  0  0  0  0  0  0  0  0
   -1.9585    2.9977   10.4867 C   0  0  0  0  0  0  0  0  0  0  0  0
   -3.8492    3.9756    9.4718 C   0  0  0  0  0  0  0  0  0  0  0  0
   -7.7812   -1.3403   12.3367 C   0  0  0  0  0  0  0  0  0  0  0  0
   -5.8077   -2.8116   12.7014 C   0  0  0  0  0  0  0  0  0  0  0  0
   -5.6656   -0.8826   11.1100 C   0  0  1  0  0  0  0  0  0  0  0  0
   -6.4708   -0.4676    9.9075 C   0  0  0  0  0  0  0  0  0  0  0  0
   -2.6747    2.9462   11.7970 C   0  0  0  0  0  0  0  0  0  0  0  0
   -4.6896    3.6815   10.6652 C   0  0  0  0  0  0  0  0  0  0  0  0
   -4.1058    2.6058   11.5686 C   0  0  1  0  0  0  0  0  0  0  0  0
   -5.0356    0.3137   11.7258 C   0  0  0  0  0  0  0  0  0  0  0  0
   -8.5348   -1.3506   11.0017 C   0  0  2  0  0  0  0  0  0  0  0  0
   -2.4535    4.1971    9.7915 N   0  0  0  0  0  4  0  0  0  0  0  0
   -4.3489    1.3170   11.0119 N   0  0  0  0  0  0  0  0  0  0  0  0
   -8.2952   -2.5620   10.2680 N   0  0  0  0  0  4  0  0  0  0  0  0
   -6.4080   -1.6785   12.0455 N   0  0  0  0  0  0  0  0  0  0  0  0
   -9.2511   -5.9055   10.9169 O   0  0  0  0  0  0  0  0  0  0  0  0
   -4.8628   -3.4283   12.1900 O   0  0  0  0  0  0  0  0  0  0  0  0
   -5.1225    0.4366   12.9663 O   0  0  0  0  0  0  0  0  0  0  0  0
   -8.5186   -4.7624    8.9155 O   0  0  0  0  0  0  0  0  0  0  0  0
   -6.6808   -5.8501   10.3470 O   0  0  0  0  0  0  0  0  0  0  0  0
   -8.0347   -3.5825   11.1395 O   0  0  0  0  0  0  0  0  0  0  0  0
   -8.1584   -5.0536   10.3460 S   0  0  2  0  0  6  0  0  0  0  0  0
  1  7  1  1
 12  1  1  0
  2  8  1  1
 13  2  1  1
  9  3  1  1
  3 13  1  6
 12  4  1  0
  4 16  1  6
 16  5  1  0
  5 18  2  0
  7  6  1  6
  6 11  1  1
 16  6  1  0
  8 10  1  6
 10  9  1  0
 10 14  1  6
 11 14  1  0
 11 19  2  0
 12 15  1  6
 15 22  1  6
 23 17  2  0
 23 20  2  0
 23 21  1  6
 22 23  1  0
M  CHG  2  13   1  15   1
M  END
$$$$
