
     RDKit          3D

 23 24  0  0  0  0  0  0  0  0999 V2000
   -7.9989   -0.5751   10.4445 C   0  0  0  0  0  0  0  0  0  0  0  0
   -2.2366    2.9820   10.2254 C   0  0  0  0  0  0  0  0  0  0  0  0
   -4.0765    4.2095   11.0431 C   0  0  0  0  0  0  0  0  0  0  0  0
   -7.8722   -1.4523   12.7009 C   0  0  0  0  0  0  0  0  0  0  0  0
   -5.8014   -2.6873   13.3165 C   0  0  0  0  0  0  0  0  0  0  0  0
   -5.7443   -0.9490   11.5140 C   0  0  1  0  0  0  0  0  0  0  0  0
   -6.5204   -0.7496   10.2395 C   0  0  0  0  0  0  0  0  0  0  0  0
   -2.0809    2.3109   11.5512 C   0  0  0  0  0  0  0  0  0  0  0  0
   -4.1421    3.3677   12.2695 C   0  0  0  0  0  0  0  0  0  0  0  0
   -3.4243    2.0338   12.1293 C   0  0  1  0  0  0  0  0  0  0  0  0
   -5.2502    0.3621   12.0079 C   0  0  0  0  0  0  0  0  0  0  0  0
   -8.5542   -1.6840   11.3476 C   0  0  2  0  0  0  0  0  0  0  0  0
   -2.7378    4.3377   10.5042 N   0  0  0  0  0  4  0  0  0  0  0  0
   -4.2329    1.1203   11.3931 N   0  0  0  0  0  0  0  0  0  0  0  0
   -8.1757   -2.9451   10.7732 N   0  0  0  0  0  4  0  0  0  0  0  0
   -6.4623   -1.6961   12.5071 N   0  0  0  0  0  0  0  0  0  0  0  0
   -8.0771   -5.5693    9.1478 O   0  0  0  0  0  0  0  0  0  0  0  0
   -5.0209   -3.5112   12.8199 O   0  0  0  0  0  0  0  0  0  0  0  0
   -5.7764    0.8234   13.0432 O   0  0  0  0  0  0  0  0  0  0  0  0
   -7.9884   -5.6554   11.5631 O   0  0  0  0  0  0  0  0  0  0  0  0
  -10.2316   -6.2901   10.4792 O   0  0  0  0  0  0  0  0  0  0  0  0
   -9.2930   -3.6983   10.5430 O   0  0  0  0  0  0  0  0  0  0  0  0
   -8.8695   -5.3130   10.3937 S   0  0  2  0  0  6  0  0  0  0  0  0
  1  7  1  1
 12  1  1  0
  2  8  1  1
 13  2  1  1
  9  3  1  1
  3 13  1  6
 12  4  1  0
  4 16  1  6
 16  5  1  0
  5 18  2  0
  7  6  1  6
  6 11  1  1
 16  6  1  0
  8 10  1  6
 10  9  1  0
 10 14  1  6
 11 14  1  0
 11 19  2  0
 12 15  1  6
 15 22  1  6
 23 17  2  0
 23 20  2  0
 23 21  1  6
 22 23  1  0
M  CHG  2  13   1  15   1
M  END
$$$$
