
     RDKit          3D

 23 24  0  0  0  0  0  0  0  0999 V2000
   -8.6659   -0.5950   11.4142 C   0  0  0  0  0  0  0  0  0  0  0  0
   -1.7071    2.3031   10.9444 C   0  0  0  0  0  0  0  0  0  0  0  0
   -2.9633    3.6806    9.4179 C   0  0  0  0  0  0  0  0  0  0  0  0
   -7.5137   -2.7671   12.0860 C   0  0  0  0  0  0  0  0  0  0  0  0
   -5.8788   -2.1584   13.8185 C   0  0  0  0  0  0  0  0  0  0  0  0
   -6.3011   -0.6858   11.8529 C   0  0  1  0  0  0  0  0  0  0  0  0
   -7.5383    0.1630   12.0765 C   0  0  0  0  0  0  0  0  0  0  0  0
   -2.9437    2.6169   11.7404 C   0  0  0  0  0  0  0  0  0  0  0  0
   -4.1844    2.8494    9.6578 C   0  0  0  0  0  0  0  0  0  0  0  0
   -4.2167    2.2502   11.0483 C   0  0  1  0  0  0  0  0  0  0  0  0
   -5.0356    0.0022   11.8688 C   0  0  0  0  0  0  0  0  0  0  0  0
   -8.7571   -2.0346   11.6673 C   0  0  2  0  0  0  0  0  0  0  0  0
   -1.7867    2.8650    9.6340 N   0  0  0  0  0  4  0  0  0  0  0  0
   -4.4435    0.8373   10.9112 N   0  0  0  0  0  0  0  0  0  0  0  0
   -9.2219   -2.7010   10.4434 N   0  0  0  0  0  4  0  0  0  0  0  0
   -6.5104   -1.8451   12.6178 N   0  0  0  0  0  0  0  0  0  0  0  0
   -8.7416   -4.6202    8.2977 O   0  0  0  0  0  0  0  0  0  0  0  0
   -5.1180   -3.1883   13.8865 O   0  0  0  0  0  0  0  0  0  0  0  0
   -4.3286   -0.1677   12.9275 O   0  0  0  0  0  0  0  0  0  0  0  0
   -7.2946   -5.0547   10.2363 O   0  0  0  0  0  0  0  0  0  0  0  0
   -9.3762   -6.5499    9.9507 O   0  0  0  0  0  0  0  0  0  0  0  0
   -9.6407   -3.9436   10.6766 O   0  0  0  0  0  0  0  0  0  0  0  0
   -8.7181   -5.0006    9.7515 S   0  0  2  0  0  6  0  0  0  0  0  0
  1  7  1  0
 12  1  1  0
  8  2  1  0
  2 13  1  0
  9  3  1  0
  3 13  1  0
 12  4  1  0
  4 16  1  0
 16  5  1  0
  5 18  2  0
  7  6  1  0
  6 11  1  1
 16  6  1  0
 10  8  1  0
 10  9  1  0
 10 14  1  6
 11 14  1  0
 11 19  2  0
 12 15  1  6
 22 15  1  0
 23 17  2  0
 23 20  2  0
 23 21  1  6
 22 23  1  0
M  CHG  2  13   1  15   1
M  END
$$$$
