
     RDKit          3D

 23 24  0  0  0  0  0  0  0  0999 V2000
   -8.2571    0.0547   10.4776 C   0  0  0  0  0  0  0  0  0  0  0  0
   -2.5066    3.5051   10.1889 C   0  0  0  0  0  0  0  0  0  0  0  0
   -4.5180    4.5429   10.8506 C   0  0  0  0  0  0  0  0  0  0  0  0
   -8.0454   -1.0046   12.6479 C   0  0  0  0  0  0  0  0  0  0  0  0
   -5.9947   -2.3564   13.0481 C   0  0  0  0  0  0  0  0  0  0  0  0
   -5.9654   -0.4821   11.3868 C   0  0  1  0  0  0  0  0  0  0  0  0
   -6.7996   -0.1541   10.1772 C   0  0  0  0  0  0  0  0  0  0  0  0
   -2.3349    2.9382   11.5606 C   0  0  0  0  0  0  0  0  0  0  0  0
   -4.5404    3.7738   12.1254 C   0  0  0  0  0  0  0  0  0  0  0  0
   -3.6613    2.5325   12.1008 C   0  0  1  0  0  0  0  0  0  0  0  0
   -5.3948    0.7672   11.9532 C   0  0  0  0  0  0  0  0  0  0  0  0
   -8.8067   -1.1031   11.3209 C   0  0  2  0  0  0  0  0  0  0  0  0
   -3.1802    4.8028   10.3589 N   0  0  0  0  0  4  0  0  0  0  0  0
   -4.3177    1.4843   11.3933 N   0  0  0  0  0  0  0  0  0  0  0  0
   -8.5088   -2.3264   10.6293 N   0  0  0  0  0  4  0  0  0  0  0  0
   -6.6583   -1.2810   12.3570 N   0  0  0  0  0  0  0  0  0  0  0  0
   -8.1115   -4.5769    9.1833 O   0  0  0  0  0  0  0  0  0  0  0  0
   -5.0588   -2.9788   12.5273 O   0  0  0  0  0  0  0  0  0  0  0  0
   -5.9090    1.2119   13.0018 O   0  0  0  0  0  0  0  0  0  0  0  0
   -7.3856   -5.4910   11.3014 O   0  0  0  0  0  0  0  0  0  0  0  0
   -9.8549   -5.8563   10.6861 O   0  0  0  0  0  0  0  0  0  0  0  0
   -8.8536   -3.3921   11.4129 O   0  0  0  0  0  0  0  0  0  0  0  0
   -8.5352   -4.8226   10.5996 S   0  0  2  0  0  6  0  0  0  0  0  0
  1  7  1  1
 12  1  1  0
  2  8  1  1
 13  2  1  1
  9  3  1  1
  3 13  1  6
 12  4  1  0
  4 16  1  6
 16  5  1  0
  5 18  2  0
  7  6  1  6
  6 11  1  1
 16  6  1  0
  8 10  1  6
 10  9  1  0
 10 14  1  6
 11 14  1  0
 11 19  2  0
 12 15  1  6
 15 22  1  6
 23 17  2  0
 23 20  2  0
 23 21  1  6
 22 23  1  0
M  CHG  2  13   1  15   1
M  END
$$$$
