
     RDKit          3D

 23 24  0  0  0  0  0  0  0  0999 V2000
   -8.6615   -0.5476   11.1203 C   0  0  0  0  0  0  0  0  0  0  0  0
   -2.9440    3.0822    9.1004 C   0  0  0  0  0  0  0  0  0  0  0  0
   -3.4666    4.4553   11.0102 C   0  0  0  0  0  0  0  0  0  0  0  0
   -7.5830   -2.7292   11.8784 C   0  0  0  0  0  0  0  0  0  0  0  0
   -5.8792   -2.1017   13.5362 C   0  0  0  0  0  0  0  0  0  0  0  0
   -6.2918   -0.7166   11.5059 C   0  0  1  0  0  0  0  0  0  0  0  0
   -7.4863    0.1948   11.7138 C   0  0  0  0  0  0  0  0  0  0  0  0
   -2.4737    2.2290   10.2459 C   0  0  0  0  0  0  0  0  0  0  0  0
   -4.1339    3.2927   11.6754 C   0  0  0  0  0  0  0  0  0  0  0  0
   -3.5261    1.9648   11.2740 C   0  0  1  0  0  0  0  0  0  0  0  0
   -4.9988   -0.0836   11.4546 C   0  0  0  0  0  0  0  0  0  0  0  0
   -8.8056   -1.9669   11.4516 C   0  0  2  0  0  0  0  0  0  0  0  0
   -3.5458    4.2873    9.5743 N   0  0  0  0  0  4  0  0  0  0  0  0
   -4.5947    1.1082   10.8370 N   0  0  0  0  0  0  0  0  0  0  0  0
   -9.3298   -2.6757   10.2764 N   0  0  0  0  0  4  0  0  0  0  0  0
   -6.5287   -1.8246   12.3361 N   0  0  0  0  0  0  0  0  0  0  0  0
   -8.5864   -5.1520   11.4571 O   0  0  0  0  0  0  0  0  0  0  0  0
   -5.0239   -3.0553   13.5903 O   0  0  0  0  0  0  0  0  0  0  0  0
   -4.0576   -0.7005   12.0735 O   0  0  0  0  0  0  0  0  0  0  0  0
   -9.5434   -5.6320    9.2448 O   0  0  0  0  0  0  0  0  0  0  0  0
   -6.9728   -5.6291    9.4501 O   0  0  0  0  0  0  0  0  0  0  0  0
   -8.3697   -3.3018    9.5983 O   0  0  0  0  0  0  0  0  0  0  0  0
   -8.4277   -4.9379    9.9779 S   0  0  2  0  0  6  0  0  0  0  0  0
  1  7  1  0
 12  1  1  0
  8  2  1  0
  2 13  1  0
  9  3  1  0
  3 13  1  0
 12  4  1  0
  4 16  1  0
 16  5  1  0
  5 18  2  0
  7  6  1  0
  6 11  1  1
 16  6  1  0
 10  8  1  0
 10  9  1  0
 10 14  1  6
 11 14  1  0
 11 19  2  0
 12 15  1  6
 22 15  1  0
 23 17  2  0
 23 20  2  0
 23 21  1  6
 22 23  1  0
M  CHG  2  13   1  15   1
M  END
$$$$
