
     RDKit          3D

 23 24  0  0  0  0  0  0  0  0999 V2000
   -8.5467   -0.5107   11.3219 C   0  0  0  0  0  0  0  0  0  0  0  0
   -2.8155    2.8896    9.0721 C   0  0  0  0  0  0  0  0  0  0  0  0
   -3.3785    4.4391   10.8294 C   0  0  0  0  0  0  0  0  0  0  0  0
   -7.3872   -2.6855   11.9722 C   0  0  0  0  0  0  0  0  0  0  0  0
   -5.8178   -2.1036   13.7732 C   0  0  0  0  0  0  0  0  0  0  0  0
   -6.1963   -0.5832   11.8352 C   0  0  1  0  0  0  0  0  0  0  0  0
   -7.4516    0.2433   12.0409 C   0  0  0  0  0  0  0  0  0  0  0  0
   -2.2998    2.1855   10.2967 C   0  0  0  0  0  0  0  0  0  0  0  0
   -3.9907    3.3292   11.6249 C   0  0  0  0  0  0  0  0  0  0  0  0
   -3.3312    1.9915   11.3611 C   0  0  1  0  0  0  0  0  0  0  0  0
   -4.9415    0.1203   11.9111 C   0  0  0  0  0  0  0  0  0  0  0  0
   -8.6263   -1.9578   11.5330 C   0  0  2  0  0  0  0  0  0  0  0  0
   -3.4632    4.1135    9.4212 N   0  0  0  0  0  4  0  0  0  0  0  0
   -4.3666    1.0498   11.0333 N   0  0  0  0  0  0  0  0  0  0  0  0
   -9.0421   -2.5963   10.2770 N   0  0  0  0  0  4  0  0  0  0  0  0
   -6.4144   -1.7656   12.5613 N   0  0  0  0  0  0  0  0  0  0  0  0
   -8.3424   -5.1428    8.6255 O   0  0  0  0  0  0  0  0  0  0  0  0
   -5.0840   -3.1522   13.8496 O   0  0  0  0  0  0  0  0  0  0  0  0
   -4.2274   -0.1358   12.9474 O   0  0  0  0  0  0  0  0  0  0  0  0
   -7.1649   -4.7064   10.7382 O   0  0  0  0  0  0  0  0  0  0  0  0
   -9.0835   -6.4289   10.7832 O   0  0  0  0  0  0  0  0  0  0  0  0
   -9.6162   -3.7804   10.4819 O   0  0  0  0  0  0  0  0  0  0  0  0
   -8.5042   -4.9846   10.1113 S   0  0  2  0  0  6  0  0  0  0  0  0
  1  7  1  0
 12  1  1  0
  8  2  1  0
  2 13  1  0
  9  3  1  0
  3 13  1  0
 12  4  1  0
  4 16  1  0
 16  5  1  0
  5 18  2  0
  7  6  1  0
  6 11  1  1
 16  6  1  0
 10  8  1  0
 10  9  1  0
 10 14  1  6
 11 14  1  0
 11 19  2  0
 12 15  1  6
 22 15  1  0
 23 17  2  0
 23 20  2  0
 23 21  1  1
 22 23  1  0
M  CHG  2  13   1  15   1
M  END
$$$$
