
     RDKit          3D

 23 24  0  0  0  0  0  0  0  0999 V2000
   -8.2989   -0.6072   11.2373 C   0  0  0  0  0  0  0  0  0  0  0  0
   -2.3008    2.3969    8.8298 C   0  0  0  0  0  0  0  0  0  0  0  0
   -3.2026    4.1830   10.1724 C   0  0  0  0  0  0  0  0  0  0  0  0
   -7.1233   -2.7935   11.8164 C   0  0  0  0  0  0  0  0  0  0  0  0
   -5.5428   -2.2548   13.6210 C   0  0  0  0  0  0  0  0  0  0  0  0
   -5.9443   -0.6819   11.7302 C   0  0  1  0  0  0  0  0  0  0  0  0
   -7.2021    0.1317   11.9690 C   0  0  0  0  0  0  0  0  0  0  0  0
   -1.9378    1.9640   10.2234 C   0  0  0  0  0  0  0  0  0  0  0  0
   -3.8670    3.1861   11.0692 C   0  0  0  0  0  0  0  0  0  0  0  0
   -3.1052    1.8799   11.1531 C   0  0  1  0  0  0  0  0  0  0  0  0
   -4.6925    0.0257   11.8163 C   0  0  0  0  0  0  0  0  0  0  0  0
   -8.3696   -2.0601   11.4077 C   0  0  2  0  0  0  0  0  0  0  0  0
   -3.0578    3.6076    8.8518 N   0  0  0  0  0  4  0  0  0  0  0  0
   -4.0281    0.8154   10.8676 N   0  0  0  0  0  0  0  0  0  0  0  0
   -8.7920   -2.6649   10.1372 N   0  0  0  0  0  4  0  0  0  0  0  0
   -6.1506   -1.8856   12.4239 N   0  0  0  0  0  0  0  0  0  0  0  0
   -7.9992   -4.8621    8.2568 O   0  0  0  0  0  0  0  0  0  0  0  0
   -4.8555   -3.3357   13.6778 O   0  0  0  0  0  0  0  0  0  0  0  0
   -4.0788   -0.0738   12.9401 O   0  0  0  0  0  0  0  0  0  0  0  0
   -6.9152   -4.9387   10.4612 O   0  0  0  0  0  0  0  0  0  0  0  0
   -8.8888   -6.5477   10.0530 O   0  0  0  0  0  0  0  0  0  0  0  0
   -9.3193   -3.8758   10.3086 O   0  0  0  0  0  0  0  0  0  0  0  0
   -8.2299   -5.0190    9.7336 S   0  0  2  0  0  6  0  0  0  0  0  0
  1  7  1  0
 12  1  1  0
  8  2  1  0
  2 13  1  0
  9  3  1  0
  3 13  1  0
 12  4  1  0
  4 16  1  0
 16  5  1  0
  5 18  2  0
  7  6  1  0
  6 11  1  1
 16  6  1  0
 10  8  1  0
 10  9  1  0
 10 14  1  6
 11 14  1  0
 11 19  2  0
 12 15  1  6
 22 15  1  0
 23 17  2  0
 23 20  2  0
 23 21  1  6
 22 23  1  0
M  CHG  2  13   1  15   1
M  END
$$$$
