
     RDKit          3D

 23 24  0  0  0  0  0  0  0  0999 V2000
   -8.1576   -0.5532   10.4853 C   0  0  0  0  0  0  0  0  0  0  0  0
   -2.0314    2.9666    9.8258 C   0  0  0  0  0  0  0  0  0  0  0  0
   -3.9929    4.2646    9.9951 C   0  0  0  0  0  0  0  0  0  0  0  0
   -7.5534   -1.4783   12.6431 C   0  0  0  0  0  0  0  0  0  0  0  0
   -5.3130   -2.5460   12.8253 C   0  0  0  0  0  0  0  0  0  0  0  0
   -5.7237   -0.7600   11.1179 C   0  0  1  0  0  0  0  0  0  0  0  0
   -6.7318   -0.5932   10.0122 C   0  0  0  0  0  0  0  0  0  0  0  0
   -2.1394    2.5951   11.2689 C   0  0  0  0  0  0  0  0  0  0  0  0
   -4.2989    3.6967   11.3371 C   0  0  0  0  0  0  0  0  0  0  0  0
   -3.5706    2.3924   11.6246 C   0  0  1  0  0  0  0  0  0  0  0  0
   -5.2548    0.5748   11.5713 C   0  0  0  0  0  0  0  0  0  0  0  0
   -8.4490   -1.7306   11.4247 C   0  0  2  0  0  0  0  0  0  0  0  0
   -2.5744    4.3298    9.7078 N   0  0  0  0  0  4  0  0  0  0  0  0
   -4.2217    1.3137   10.9593 N   0  0  0  0  0  0  0  0  0  0  0  0
   -8.0812   -2.9377   10.7383 N   0  0  0  0  0  4  0  0  0  0  0  0
   -6.1871   -1.5937   12.1903 N   0  0  0  0  0  0  0  0  0  0  0  0
  -10.1884   -5.7282   10.2605 O   0  0  0  0  0  0  0  0  0  0  0  0
   -5.6804   -3.2052   13.8077 O   0  0  0  0  0  0  0  0  0  0  0  0
   -5.8189    1.0760   12.5674 O   0  0  0  0  0  0  0  0  0  0  0  0
   -9.0357   -5.2210    8.1958 O   0  0  0  0  0  0  0  0  0  0  0  0
   -7.5583   -5.5993   10.2655 O   0  0  0  0  0  0  0  0  0  0  0  0
   -9.1151   -3.3465    9.9429 O   0  0  0  0  0  0  0  0  0  0  0  0
   -9.0136   -4.9991    9.6828 S   0  0  2  0  0  6  0  0  0  0  0  0
  1  7  1  1
 12  1  1  0
  2  8  1  1
 13  2  1  1
  9  3  1  1
  3 13  1  6
 12  4  1  0
  4 16  1  6
 16  5  1  0
  5 18  2  0
  7  6  1  6
  6 11  1  1
 16  6  1  0
  8 10  1  6
 10  9  1  0
 10 14  1  6
 11 14  1  0
 11 19  2  0
 12 15  1  6
 15 22  1  6
 23 17  2  0
 23 20  2  0
 23 21  1  1
 22 23  1  0
M  CHG  2  13   1  15   1
M  END
$$$$
