
     RDKit          3D

 23 24  0  0  0  0  0  0  0  0999 V2000
   -8.3225   -0.5634   11.0365 C   0  0  0  0  0  0  0  0  0  0  0  0
   -2.5205    3.2458   10.7648 C   0  0  0  0  0  0  0  0  0  0  0  0
   -3.2771    2.5796    8.6330 C   0  0  0  0  0  0  0  0  0  0  0  0
   -7.8360   -1.1956   13.3258 C   0  0  0  0  0  0  0  0  0  0  0  0
   -5.7458   -2.4874   13.7193 C   0  0  0  0  0  0  0  0  0  0  0  0
   -5.9327   -0.9634   11.7404 C   0  0  1  0  0  0  0  0  0  0  0  0
   -6.9133   -0.8544   10.6032 C   0  0  0  0  0  0  0  0  0  0  0  0
   -3.9313    3.4401   11.2169 C   0  0  0  0  0  0  0  0  0  0  0  0
   -4.6806    2.4795    9.1200 C   0  0  0  0  0  0  0  0  0  0  0  0
   -4.7918    2.3747   10.6335 C   0  0  1  0  0  0  0  0  0  0  0  0
   -5.3007    0.3591   11.9830 C   0  0  0  0  0  0  0  0  0  0  0  0
   -8.7572   -1.5290   12.1466 C   0  0  2  0  0  0  0  0  0  0  0  0
   -2.4957    3.5800    9.3314 N   0  0  0  0  0  4  0  0  0  0  0  0
   -4.4936    1.0462   11.0534 N   0  0  0  0  0  0  0  0  0  0  0  0
   -8.5434   -2.8670   11.6696 N   0  0  0  0  0  4  0  0  0  0  0  0
   -6.4952   -1.5498   12.9234 N   0  0  0  0  0  0  0  0  0  0  0  0
   -7.8456   -5.3922   10.8130 O   0  0  0  0  0  0  0  0  0  0  0  0
   -4.8370   -3.1708   13.2276 O   0  0  0  0  0  0  0  0  0  0  0  0
   -5.5011    0.8987   13.0921 O   0  0  0  0  0  0  0  0  0  0  0  0
   -9.5249   -4.7520    9.1948 O   0  0  0  0  0  0  0  0  0  0  0  0
   -7.0745   -4.4846    8.4644 O   0  0  0  0  0  0  0  0  0  0  0  0
   -8.2559   -2.8373   10.3335 O   0  0  0  0  0  0  0  0  0  0  0  0
   -8.1668   -4.4008    9.7362 S   0  0  2  0  0  6  0  0  0  0  0  0
  1  7  1  1
 12  1  1  0
  2  8  1  1
 13  2  1  1
  9  3  1  1
  3 13  1  6
 12  4  1  0
  4 16  1  6
 16  5  1  0
  5 18  2  0
  7  6  1  6
  6 11  1  1
 16  6  1  0
  8 10  1  6
 10  9  1  0
 10 14  1  1
 11 14  1  0
 11 19  2  0
 12 15  1  6
 15 22  1  6
 23 17  2  0
 23 20  2  0
 23 21  1  6
 22 23  1  0
M  CHG  2  13   1  15   1
M  END
$$$$
