
     RDKit          3D

 23 24  0  0  0  0  0  0  0  0999 V2000
   -8.4710   -0.7011   11.1808 C   0  0  0  0  0  0  0  0  0  0  0  0
   -2.0885    2.3310    9.3193 C   0  0  0  0  0  0  0  0  0  0  0  0
   -3.2804    4.1996   10.2646 C   0  0  0  0  0  0  0  0  0  0  0  0
   -7.3791   -2.8873   11.9054 C   0  0  0  0  0  0  0  0  0  0  0  0
   -5.7359   -2.2837   13.6318 C   0  0  0  0  0  0  0  0  0  0  0  0
   -6.1112   -0.8442   11.6324 C   0  0  1  0  0  0  0  0  0  0  0  0
   -7.3265    0.0415   11.8315 C   0  0  0  0  0  0  0  0  0  0  0  0
   -2.1368    1.9739   10.7792 C   0  0  0  0  0  0  0  0  0  0  0  0
   -4.1927    3.2620   10.9915 C   0  0  0  0  0  0  0  0  0  0  0  0
   -3.5178    1.9547   11.3508 C   0  0  1  0  0  0  0  0  0  0  0  0
   -4.8281   -0.1895   11.6391 C   0  0  0  0  0  0  0  0  0  0  0  0
   -8.6011   -2.1319   11.4649 C   0  0  2  0  0  0  0  0  0  0  0  0
   -2.7904    3.5489    9.0677 N   0  0  0  0  0  4  0  0  0  0  0  0
   -4.3527    0.8855   10.8752 N   0  0  0  0  0  0  0  0  0  0  0  0
   -9.0783   -2.8127   10.2538 N   0  0  0  0  0  4  0  0  0  0  0  0
   -6.3541   -1.9805   12.4215 N   0  0  0  0  0  0  0  0  0  0  0  0
   -8.6210   -5.0307    8.3181 O   0  0  0  0  0  0  0  0  0  0  0  0
   -5.0710   -3.3735   13.7502 O   0  0  0  0  0  0  0  0  0  0  0  0
   -3.9752   -0.6559   12.4783 O   0  0  0  0  0  0  0  0  0  0  0  0
   -7.2732   -5.1880   10.3673 O   0  0  0  0  0  0  0  0  0  0  0  0
   -9.3649   -6.6876   10.2051 O   0  0  0  0  0  0  0  0  0  0  0  0
   -9.6176   -3.9999   10.5249 O   0  0  0  0  0  0  0  0  0  0  0  0
   -8.6715   -5.1917    9.8116 S   0  0  2  0  0  6  0  0  0  0  0  0
  1  7  1  0
 12  1  1  0
  8  2  1  0
  2 13  1  0
  9  3  1  0
  3 13  1  0
 12  4  1  0
  4 16  1  0
 16  5  1  0
  5 18  2  0
  7  6  1  0
  6 11  1  1
 16  6  1  0
 10  8  1  0
 10  9  1  0
 10 14  1  6
 11 14  1  0
 11 19  2  0
 12 15  1  6
 22 15  1  0
 23 17  2  0
 23 20  2  0
 23 21  1  6
 22 23  1  0
M  CHG  2  13   1  15   1
M  END
$$$$
