
     RDKit          3D

 23 24  0  0  0  0  0  0  0  0999 V2000
   -8.6974   -0.7854   11.3508 C   0  0  0  0  0  0  0  0  0  0  0  0
   -2.9366    2.5508    9.0565 C   0  0  0  0  0  0  0  0  0  0  0  0
   -3.2544    4.0560   10.9110 C   0  0  0  0  0  0  0  0  0  0  0  0
   -7.4197   -2.9101   11.9425 C   0  0  0  0  0  0  0  0  0  0  0  0
   -5.9319   -2.3087   13.8053 C   0  0  0  0  0  0  0  0  0  0  0  0
   -6.3597   -0.7347   11.9210 C   0  0  1  0  0  0  0  0  0  0  0  0
   -7.6686    0.0037   12.1275 C   0  0  0  0  0  0  0  0  0  0  0  0
   -2.3461    1.7760   10.2021 C   0  0  0  0  0  0  0  0  0  0  0  0
   -3.8459    2.9464   11.7225 C   0  0  0  0  0  0  0  0  0  0  0  0
   -3.2829    1.5902   11.3520 C   0  0  1  0  0  0  0  0  0  0  0  0
   -5.1534    0.0407   12.0575 C   0  0  0  0  0  0  0  0  0  0  0  0
   -8.6914   -2.2422   11.5012 C   0  0  2  0  0  0  0  0  0  0  0  0
   -3.4858    3.7896    9.5068 N   0  0  0  0  0  4  0  0  0  0  0  0
   -4.3909    0.7121   11.0916 N   0  0  0  0  0  0  0  0  0  0  0  0
   -9.0372   -2.8520   10.2102 N   0  0  0  0  0  4  0  0  0  0  0  0
   -6.5202   -1.9576   12.5930 N   0  0  0  0  0  0  0  0  0  0  0  0
   -7.7137   -6.0110   10.9320 O   0  0  0  0  0  0  0  0  0  0  0  0
   -5.1983   -3.3579   13.8752 O   0  0  0  0  0  0  0  0  0  0  0  0
   -4.6951    0.1422   13.2529 O   0  0  0  0  0  0  0  0  0  0  0  0
  -10.0274   -5.3016   10.5025 O   0  0  0  0  0  0  0  0  0  0  0  0
   -8.6053   -6.0051    8.4695 O   0  0  0  0  0  0  0  0  0  0  0  0
   -8.0872   -3.6773    9.7744 O   0  0  0  0  0  0  0  0  0  0  0  0
   -8.6128   -5.2588    9.9913 S   0  0  2  0  0  6  0  0  0  0  0  0
  1  7  1  0
 12  1  1  0
  8  2  1  0
  2 13  1  0
  9  3  1  0
  3 13  1  0
 12  4  1  0
  4 16  1  0
 16  5  1  0
  5 18  2  0
  7  6  1  0
  6 11  1  1
 16  6  1  0
 10  8  1  0
 10  9  1  0
 10 14  1  6
 11 14  1  0
 11 19  2  0
 12 15  1  6
 22 15  1  0
 23 17  2  0
 23 20  2  0
 23 21  1  6
 22 23  1  0
M  CHG  2  13   1  15   1
M  END
$$$$
