
     RDKit          3D

 23 24  0  0  0  0  0  0  0  0999 V2000
   -7.8323   -0.4669   10.4578 C   0  0  0  0  0  0  0  0  0  0  0  0
   -1.9055    3.1654   10.7692 C   0  0  0  0  0  0  0  0  0  0  0  0
   -3.9058    4.1643   10.0197 C   0  0  0  0  0  0  0  0  0  0  0  0
   -7.3912   -1.7903   12.4405 C   0  0  0  0  0  0  0  0  0  0  0  0
   -5.2005   -2.9658   12.5479 C   0  0  0  0  0  0  0  0  0  0  0  0
   -5.4496   -0.8856   11.1750 C   0  0  1  0  0  0  0  0  0  0  0  0
   -6.3819   -0.4804   10.0645 C   0  0  0  0  0  0  0  0  0  0  0  0
   -2.5058    2.9512   12.1206 C   0  0  0  0  0  0  0  0  0  0  0  0
   -4.6320    3.7158   11.2398 C   0  0  0  0  0  0  0  0  0  0  0  0
   -3.9394    2.5780   11.9746 C   0  0  1  0  0  0  0  0  0  0  0  0
   -4.9684    0.3248   11.8894 C   0  0  0  0  0  0  0  0  0  0  0  0
   -8.2173   -1.7812   11.1491 C   0  0  2  0  0  0  0  0  0  0  0  0
   -2.4959    4.4085   10.2466 N   0  0  0  0  0  4  0  0  0  0  0  0
   -4.1877    1.3440   11.3068 N   0  0  0  0  0  0  0  0  0  0  0  0
   -7.8456   -2.8590   10.2754 N   0  0  0  0  0  4  0  0  0  0  0  0
   -6.0039   -1.8790   12.0501 N   0  0  0  0  0  0  0  0  0  0  0  0
   -7.2585   -5.2041   11.6336 O   0  0  0  0  0  0  0  0  0  0  0  0
   -5.5062   -3.5738   13.5830 O   0  0  0  0  0  0  0  0  0  0  0  0
   -5.2799    0.4452   13.0936 O   0  0  0  0  0  0  0  0  0  0  0  0
   -9.5465   -5.9277   11.3331 O   0  0  0  0  0  0  0  0  0  0  0  0
   -7.9863   -6.2032    9.3084 O   0  0  0  0  0  0  0  0  0  0  0  0
   -8.8837   -3.7420   10.1685 O   0  0  0  0  0  0  0  0  0  0  0  0
   -8.3831   -5.2688   10.6452 S   0  0  2  0  0  6  0  0  0  0  0  0
  1  7  1  1
 12  1  1  0
  2  8  1  1
 13  2  1  1
  9  3  1  1
  3 13  1  6
 12  4  1  0
  4 16  1  6
 16  5  1  0
  5 18  2  0
  7  6  1  6
  6 11  1  1
 16  6  1  0
  8 10  1  6
 10  9  1  0
 10 14  1  6
 11 14  1  0
 11 19  2  0
 12 15  1  6
 15 22  1  6
 23 17  2  0
 23 20  2  0
 23 21  1  6
 22 23  1  0
M  CHG  2  13   1  15   1
M  END
$$$$
