
     RDKit          3D

 23 24  0  0  0  0  0  0  0  0999 V2000
   -8.5296   -0.4450   10.9613 C   0  0  0  0  0  0  0  0  0  0  0  0
   -2.7088    3.0386    8.8612 C   0  0  0  0  0  0  0  0  0  0  0  0
   -2.6801    4.3477   10.8839 C   0  0  0  0  0  0  0  0  0  0  0  0
   -7.2084   -2.5808   11.3971 C   0  0  0  0  0  0  0  0  0  0  0  0
   -5.7203   -2.0819   13.2896 C   0  0  0  0  0  0  0  0  0  0  0  0
   -6.1896   -0.3893   11.5217 C   0  0  1  0  0  0  0  0  0  0  0  0
   -7.5108    0.3077   11.7858 C   0  0  0  0  0  0  0  0  0  0  0  0
   -2.1692    2.0602    9.8676 C   0  0  0  0  0  0  0  0  0  0  0  0
   -3.3781    3.2460   11.6179 C   0  0  0  0  0  0  0  0  0  0  0  0
   -3.0484    1.8762   11.0624 C   0  0  1  0  0  0  0  0  0  0  0  0
   -4.9972    0.3978   11.7056 C   0  0  0  0  0  0  0  0  0  0  0  0
   -8.4952   -1.9084   11.0098 C   0  0  2  0  0  0  0  0  0  0  0  0
   -3.0373    4.2818    9.4824 N   0  0  0  0  0  4  0  0  0  0  0  0
   -4.2893    1.1998   10.7997 N   0  0  0  0  0  0  0  0  0  0  0  0
   -8.8378   -2.4335    9.6813 N   0  0  0  0  0  4  0  0  0  0  0  0
   -6.3228   -1.6588   12.1077 N   0  0  0  0  0  0  0  0  0  0  0  0
   -7.5594   -4.9492    8.6658 O   0  0  0  0  0  0  0  0  0  0  0  0
   -4.9719   -3.1230   13.2839 O   0  0  0  0  0  0  0  0  0  0  0  0
   -4.4946    0.3698   12.8872 O   0  0  0  0  0  0  0  0  0  0  0  0
   -7.5666   -4.6998   11.1109 O   0  0  0  0  0  0  0  0  0  0  0  0
   -9.3322   -6.2669   10.0730 O   0  0  0  0  0  0  0  0  0  0  0  0
   -9.5218   -3.5740    9.7535 O   0  0  0  0  0  0  0  0  0  0  0  0
   -8.4296   -4.8443    9.8867 S   0  0  2  0  0  6  0  0  0  0  0  0
  1  7  1  0
 12  1  1  0
  8  2  1  0
  2 13  1  0
  9  3  1  0
  3 13  1  0
 12  4  1  0
  4 16  1  0
 16  5  1  0
  5 18  2  0
  7  6  1  0
  6 11  1  1
 16  6  1  0
 10  8  1  0
 10  9  1  0
 10 14  1  6
 11 14  1  0
 11 19  2  0
 12 15  1  6
 22 15  1  0
 23 17  2  0
 23 20  2  0
 23 21  1  1
 22 23  1  0
M  CHG  2  13   1  15   1
M  END
$$$$
