
     RDKit          3D

 23 24  0  0  0  0  0  0  0  0999 V2000
   -8.5575   -0.6038   11.4060 C   0  0  0  0  0  0  0  0  0  0  0  0
   -2.9595    3.6402   10.5558 C   0  0  0  0  0  0  0  0  0  0  0  0
   -3.9062    3.4788    8.3459 C   0  0  0  0  0  0  0  0  0  0  0  0
   -7.3491   -2.6390   12.3517 C   0  0  0  0  0  0  0  0  0  0  0  0
   -5.7246   -1.7666   13.9780 C   0  0  0  0  0  0  0  0  0  0  0  0
   -6.1898   -0.5779   11.8376 C   0  0  1  0  0  0  0  0  0  0  0  0
   -7.4472    0.2626   11.9548 C   0  0  0  0  0  0  0  0  0  0  0  0
   -4.4076    3.3589   10.8480 C   0  0  0  0  0  0  0  0  0  0  0  0
   -4.5760    2.1929    8.7165 C   0  0  0  0  0  0  0  0  0  0  0  0
   -4.9277    2.1227   10.1879 C   0  0  1  0  0  0  0  0  0  0  0  0
   -4.9419    0.1368   11.7541 C   0  0  0  0  0  0  0  0  0  0  0  0
   -8.6118   -1.9990   11.8479 C   0  0  2  0  0  0  0  0  0  0  0  0
   -2.7123    3.6382    9.1494 N   0  0  0  0  0  4  0  0  0  0  0  0
   -4.3959    0.8923   10.7072 N   0  0  0  0  0  0  0  0  0  0  0  0
   -9.0637   -2.8328   10.7259 N   0  0  0  0  0  4  0  0  0  0  0  0
   -6.3676   -1.6305   12.7504 N   0  0  0  0  0  0  0  0  0  0  0  0
   -9.3321   -4.7049    8.4949 O   0  0  0  0  0  0  0  0  0  0  0  0
   -5.0256   -2.8146   14.2164 O   0  0  0  0  0  0  0  0  0  0  0  0
   -4.2036    0.0820   12.8036 O   0  0  0  0  0  0  0  0  0  0  0  0
   -7.1038   -4.8259    9.5247 O   0  0  0  0  0  0  0  0  0  0  0  0
   -8.8007   -6.6646   10.1490 O   0  0  0  0  0  0  0  0  0  0  0  0
   -9.1289   -4.1221   11.0531 O   0  0  0  0  0  0  0  0  0  0  0  0
   -8.5768   -5.0319    9.7525 S   0  0  2  0  0  6  0  0  0  0  0  0
  1  7  1  0
 12  1  1  0
  8  2  1  0
  2 13  1  0
  9  3  1  0
  3 13  1  0
 12  4  1  0
  4 16  1  0
 16  5  1  0
  5 18  2  0
  7  6  1  0
  6 11  1  1
 16  6  1  0
 10  8  1  0
 10  9  1  0
 10 14  1  1
 11 14  1  0
 11 19  2  0
 12 15  1  6
 22 15  1  0
 23 17  2  0
 23 20  2  0
 23 21  1  1
 22 23  1  0
M  CHG  2  13   1  15   1
M  END
$$$$
