
     RDKit          3D

 23 24  0  0  0  0  0  0  0  0999 V2000
   -8.4017   -0.0489   10.4604 C   0  0  0  0  0  0  0  0  0  0  0  0
   -2.6980    2.9915    9.7406 C   0  0  0  0  0  0  0  0  0  0  0  0
   -4.6004    4.2280   10.3829 C   0  0  0  0  0  0  0  0  0  0  0  0
   -8.2171   -1.2204   12.5747 C   0  0  0  0  0  0  0  0  0  0  0  0
   -6.3152   -2.8057   12.8237 C   0  0  0  0  0  0  0  0  0  0  0  0
   -6.1475   -0.8741   11.2380 C   0  0  1  0  0  0  0  0  0  0  0  0
   -6.9907   -0.4030   10.0831 C   0  0  0  0  0  0  0  0  0  0  0  0
   -2.5409    2.4863   11.1379 C   0  0  0  0  0  0  0  0  0  0  0  0
   -4.6557    3.5326   11.6984 C   0  0  0  0  0  0  0  0  0  0  0  0
   -3.8830    2.2225   11.7253 C   0  0  1  0  0  0  0  0  0  0  0  0
   -5.4172    0.2785   11.8255 C   0  0  0  0  0  0  0  0  0  0  0  0
   -9.0406   -1.1756   11.2825 C   0  0  2  0  0  0  0  0  0  0  0  0
   -3.2579    4.3483    9.8517 N   0  0  0  0  0  4  0  0  0  0  0  0
   -4.6405    1.1967   11.0897 N   0  0  0  0  0  0  0  0  0  0  0  0
   -8.9112   -2.3922   10.5299 N   0  0  0  0  0  4  0  0  0  0  0  0
   -6.8833   -1.6344   12.2077 N   0  0  0  0  0  0  0  0  0  0  0  0
   -8.7441   -6.0005   11.3638 O   0  0  0  0  0  0  0  0  0  0  0  0
   -5.0900   -2.9402   12.9486 O   0  0  0  0  0  0  0  0  0  0  0  0
   -5.4993    0.4433   13.0615 O   0  0  0  0  0  0  0  0  0  0  0  0
   -9.4141   -4.7530    9.4033 O   0  0  0  0  0  0  0  0  0  0  0  0
   -6.8849   -5.0323    9.7700 O   0  0  0  0  0  0  0  0  0  0  0  0
   -8.4413   -3.3864   11.3421 O   0  0  0  0  0  0  0  0  0  0  0  0
   -8.3848   -4.8324   10.4965 S   0  0  2  0  0  6  0  0  0  0  0  0
  1  7  1  1
 12  1  1  0
  2  8  1  1
 13  2  1  1
  9  3  1  1
  3 13  1  6
 12  4  1  0
  4 16  1  6
 16  5  1  0
  5 18  2  0
  7  6  1  6
  6 11  1  1
 16  6  1  0
  8 10  1  6
 10  9  1  0
 10 14  1  6
 11 14  1  0
 11 19  2  0
 12 15  1  6
 15 22  1  6
 23 17  2  0
 23 20  2  0
 23 21  1  6
 22 23  1  0
M  CHG  2  13   1  15   1
M  END
$$$$
