
     RDKit          3D

 23 24  0  0  0  0  0  0  0  0999 V2000
   -8.5652   -0.8780   11.0689 C   0  0  0  0  0  0  0  0  0  0  0  0
   -3.1199    2.6418    8.5864 C   0  0  0  0  0  0  0  0  0  0  0  0
   -4.1023    4.1888   10.1508 C   0  0  0  0  0  0  0  0  0  0  0  0
   -7.4799   -2.8714   12.2288 C   0  0  0  0  0  0  0  0  0  0  0  0
   -5.8942   -1.9280   13.8538 C   0  0  0  0  0  0  0  0  0  0  0  0
   -6.2193   -0.9017   11.6063 C   0  0  1  0  0  0  0  0  0  0  0  0
   -7.4465   -0.0101   11.5978 C   0  0  0  0  0  0  0  0  0  0  0  0
   -2.5870    2.1471    9.9027 C   0  0  0  0  0  0  0  0  0  0  0  0
   -4.5637    3.0485   11.0032 C   0  0  0  0  0  0  0  0  0  0  0  0
   -3.6498    1.8445   10.9092 C   0  0  1  0  0  0  0  0  0  0  0  0
   -4.9418   -0.2412   11.5240 C   0  0  0  0  0  0  0  0  0  0  0  0
   -8.6934   -2.2299   11.6176 C   0  0  2  0  0  0  0  0  0  0  0  0
   -4.0084    3.7434    8.7764 N   0  0  0  0  0  4  0  0  0  0  0  0
   -4.4634    0.7000   10.6018 N   0  0  0  0  0  0  0  0  0  0  0  0
   -9.1287   -3.1355   10.5460 N   0  0  0  0  0  4  0  0  0  0  0  0
   -6.4776   -1.8695   12.5909 N   0  0  0  0  0  0  0  0  0  0  0  0
   -8.3612   -4.1636    8.1221 O   0  0  0  0  0  0  0  0  0  0  0  0
   -5.1449   -2.9217   14.1622 O   0  0  0  0  0  0  0  0  0  0  0  0
   -4.0981   -0.5557   12.4399 O   0  0  0  0  0  0  0  0  0  0  0  0
   -7.5694   -6.2205    9.2096 O   0  0  0  0  0  0  0  0  0  0  0  0
  -10.1188   -5.8995    8.9918 O   0  0  0  0  0  0  0  0  0  0  0  0
   -8.6813   -4.3770   10.7254 O   0  0  0  0  0  0  0  0  0  0  0  0
   -8.6205   -5.1440    9.2313 S   0  0  2  0  0  6  0  0  0  0  0  0
  1  7  1  0
 12  1  1  0
  8  2  1  0
  2 13  1  0
  9  3  1  0
  3 13  1  0
 12  4  1  0
  4 16  1  0
 16  5  1  0
  5 18  2  0
  7  6  1  0
  6 11  1  1
 16  6  1  0
 10  8  1  0
 10  9  1  0
 10 14  1  6
 11 14  1  0
 11 19  2  0
 12 15  1  6
 22 15  1  0
 23 17  2  0
 23 20  2  0
 23 21  1  6
 22 23  1  0
M  CHG  2  13   1  15   1
M  END
$$$$
