
     RDKit          3D

 23 24  0  0  0  0  0  0  0  0999 V2000
   -8.4558   -0.7558   11.1290 C   0  0  0  0  0  0  0  0  0  0  0  0
   -3.2158    3.4326    9.1074 C   0  0  0  0  0  0  0  0  0  0  0  0
   -3.1022    4.3560   11.3300 C   0  0  0  0  0  0  0  0  0  0  0  0
   -6.9960   -2.8190   11.4597 C   0  0  0  0  0  0  0  0  0  0  0  0
   -5.4617   -2.2742   13.3021 C   0  0  0  0  0  0  0  0  0  0  0  0
   -6.1017   -0.5744   11.5958 C   0  0  1  0  0  0  0  0  0  0  0  0
   -7.4489    0.0377   11.9296 C   0  0  0  0  0  0  0  0  0  0  0  0
   -2.4211    2.3913    9.8460 C   0  0  0  0  0  0  0  0  0  0  0  0
   -3.5414    3.0467   11.9066 C   0  0  0  0  0  0  0  0  0  0  0  0
   -3.1034    1.8647   11.0672 C   0  0  1  0  0  0  0  0  0  0  0  0
   -4.9503    0.2775   11.7503 C   0  0  0  0  0  0  0  0  0  0  0  0
   -8.3346   -2.2153   11.1410 C   0  0  2  0  0  0  0  0  0  0  0  0
   -3.6270    4.4802    9.9863 N   0  0  0  0  0  4  0  0  0  0  0  0
   -4.2640    1.0569   10.8088 N   0  0  0  0  0  0  0  0  0  0  0  0
   -8.7013   -2.7309    9.8151 N   0  0  0  0  0  4  0  0  0  0  0  0
   -6.1365   -1.8619   12.1560 N   0  0  0  0  0  0  0  0  0  0  0  0
   -7.5704   -5.1758    8.8099 O   0  0  0  0  0  0  0  0  0  0  0  0
   -4.8647   -3.4089   13.3143 O   0  0  0  0  0  0  0  0  0  0  0  0
   -4.4682    0.3430   12.9389 O   0  0  0  0  0  0  0  0  0  0  0  0
   -7.9064   -5.3666   11.2371 O   0  0  0  0  0  0  0  0  0  0  0  0
   -9.6528   -6.4872    9.7059 O   0  0  0  0  0  0  0  0  0  0  0  0
   -9.5199   -3.7785    9.8927 O   0  0  0  0  0  0  0  0  0  0  0  0
   -8.5932   -5.1803    9.9113 S   0  0  2  0  0  6  0  0  0  0  0  0
  1  7  1  0
 12  1  1  0
  8  2  1  0
  2 13  1  0
  9  3  1  0
  3 13  1  0
 12  4  1  0
  4 16  1  0
 16  5  1  0
  5 18  2  0
  7  6  1  0
  6 11  1  1
 16  6  1  0
 10  8  1  0
 10  9  1  0
 10 14  1  6
 11 14  1  0
 11 19  2  0
 12 15  1  6
 22 15  1  0
 23 17  2  0
 23 20  2  0
 23 21  1  6
 22 23  1  0
M  CHG  2  13   1  15   1
M  END
$$$$
