
     RDKit          3D

 23 24  0  0  0  0  0  0  0  0999 V2000
   -7.7759   -0.7149   10.5033 C   0  0  0  0  0  0  0  0  0  0  0  0
   -1.9644    2.7681    9.9292 C   0  0  0  0  0  0  0  0  0  0  0  0
   -4.0400    3.7720    9.4340 C   0  0  0  0  0  0  0  0  0  0  0  0
   -7.5460   -1.4836   12.7909 C   0  0  0  0  0  0  0  0  0  0  0  0
   -5.4349   -2.6631   13.3779 C   0  0  0  0  0  0  0  0  0  0  0  0
   -5.4750   -1.0108   11.4958 C   0  0  1  0  0  0  0  0  0  0  0  0
   -6.3045   -0.8808   10.2463 C   0  0  0  0  0  0  0  0  0  0  0  0
   -2.3030    2.7600   11.3845 C   0  0  0  0  0  0  0  0  0  0  0  0
   -4.5341    3.5222   10.8162 C   0  0  0  0  0  0  0  0  0  0  0  0
   -3.7488    2.4504   11.5570 C   0  0  1  0  0  0  0  0  0  0  0  0
   -4.9798    0.3280   11.9077 C   0  0  0  0  0  0  0  0  0  0  0  0
   -8.2787   -1.7868   11.4789 C   0  0  2  0  0  0  0  0  0  0  0  0
   -2.6059    3.9654    9.3618 N   0  0  0  0  0  4  0  0  0  0  0  0
   -4.1563    1.1573   11.1191 N   0  0  0  0  0  0  0  0  0  0  0  0
   -7.9059   -3.0687   10.9486 N   0  0  0  0  0  4  0  0  0  0  0  0
   -6.1417   -1.7191   12.5511 N   0  0  0  0  0  0  0  0  0  0  0  0
   -7.2315   -4.9323    8.8580 O   0  0  0  0  0  0  0  0  0  0  0  0
   -4.4091   -3.2310   12.9779 O   0  0  0  0  0  0  0  0  0  0  0  0
   -5.3197    0.7464   13.0351 O   0  0  0  0  0  0  0  0  0  0  0  0
   -8.3041   -6.0906   10.6902 O   0  0  0  0  0  0  0  0  0  0  0  0
   -9.7523   -5.6526    8.6116 O   0  0  0  0  0  0  0  0  0  0  0  0
   -8.9852   -3.6442   10.3381 O   0  0  0  0  0  0  0  0  0  0  0  0
   -8.5246   -5.0774    9.6013 S   0  0  2  0  0  6  0  0  0  0  0  0
  1  7  1  1
 12  1  1  0
  2  8  1  1
 13  2  1  1
  9  3  1  1
  3 13  1  6
 12  4  1  0
  4 16  1  6
 16  5  1  0
  5 18  2  0
  7  6  1  6
  6 11  1  1
 16  6  1  0
  8 10  1  6
 10  9  1  0
 10 14  1  6
 11 14  1  0
 11 19  2  0
 12 15  1  6
 15 22  1  6
 23 17  2  0
 23 20  2  0
 23 21  1  6
 22 23  1  0
M  CHG  2  13   1  15   1
M  END
$$$$
