
     RDKit          3D

 23 24  0  0  0  0  0  0  0  0999 V2000
   -8.7322   -0.5484   11.2323 C   0  0  0  0  0  0  0  0  0  0  0  0
   -1.4382    1.8014    9.8786 C   0  0  0  0  0  0  0  0  0  0  0  0
   -2.2638    3.8862   10.7606 C   0  0  0  0  0  0  0  0  0  0  0  0
   -7.0014   -2.3798   11.6159 C   0  0  0  0  0  0  0  0  0  0  0  0
   -5.4781   -1.5202   13.3438 C   0  0  0  0  0  0  0  0  0  0  0  0
   -6.4053   -0.0347   11.5707 C   0  0  1  0  0  0  0  0  0  0  0  0
   -7.8066    0.4199   11.9325 C   0  0  0  0  0  0  0  0  0  0  0  0
   -1.6044    1.4870   11.3397 C   0  0  0  0  0  0  0  0  0  0  0  0
   -3.3680    3.1619   11.4647 C   0  0  0  0  0  0  0  0  0  0  0  0
   -2.9794    1.7531   11.8621 C   0  0  1  0  0  0  0  0  0  0  0  0
   -5.3707    0.9666   11.6161 C   0  0  0  0  0  0  0  0  0  0  0  0
   -8.4197   -1.9760   11.3273 C   0  0  2  0  0  0  0  0  0  0  0  0
   -1.8746    3.1299    9.5889 N   0  0  0  0  0  4  0  0  0  0  0  0
   -3.9948    0.8631   11.3688 N   0  0  0  0  0  0  0  0  0  0  0  0
   -8.7692   -2.6220   10.0550 N   0  0  0  0  0  4  0  0  0  0  0  0
   -6.2475   -1.2757   12.2094 N   0  0  0  0  0  0  0  0  0  0  0  0
   -9.2650   -6.0246    8.8356 O   0  0  0  0  0  0  0  0  0  0  0  0
   -4.5405   -2.3937   13.2996 O   0  0  0  0  0  0  0  0  0  0  0  0
   -5.7610    2.1491   11.9302 O   0  0  0  0  0  0  0  0  0  0  0  0
   -7.4401   -4.4041    8.5448 O   0  0  0  0  0  0  0  0  0  0  0  0
   -7.5152   -5.7214   10.7605 O   0  0  0  0  0  0  0  0  0  0  0  0
   -9.3647   -3.7993   10.2367 O   0  0  0  0  0  0  0  0  0  0  0  0
   -8.4183   -4.9920    9.5254 S   0  0  2  0  0  6  0  0  0  0  0  0
  1  7  1  0
 12  1  1  0
  8  2  1  0
  2 13  1  0
  9  3  1  0
  3 13  1  0
 12  4  1  0
  4 16  1  0
 16  5  1  0
  5 18  2  0
  7  6  1  0
  6 11  1  1
 16  6  1  0
 10  8  1  0
 10  9  1  0
 10 14  1  6
 11 14  1  0
 11 19  2  0
 12 15  1  6
 22 15  1  0
 23 17  2  0
 23 20  2  0
 23 21  1  1
 22 23  1  0
M  CHG  2  13   1  15   1
M  END
$$$$
