
     RDKit          3D

 23 24  0  0  0  0  0  0  0  0999 V2000
   -7.6722   -0.3996   10.4016 C   0  0  0  0  0  0  0  0  0  0  0  0
   -1.9325    3.1677   10.7296 C   0  0  0  0  0  0  0  0  0  0  0  0
   -3.8352    4.0373    9.6414 C   0  0  0  0  0  0  0  0  0  0  0  0
   -7.5577   -1.4045   12.6049 C   0  0  0  0  0  0  0  0  0  0  0  0
   -5.5056   -2.7034   13.1470 C   0  0  0  0  0  0  0  0  0  0  0  0
   -5.4230   -0.8673   11.4454 C   0  0  1  0  0  0  0  0  0  0  0  0
   -6.1967   -0.5846   10.1851 C   0  0  0  0  0  0  0  0  0  0  0  0
   -2.6751    3.1351   12.0258 C   0  0  0  0  0  0  0  0  0  0  0  0
   -4.6903    3.7537   10.8268 C   0  0  0  0  0  0  0  0  0  0  0  0
   -4.0871    2.7331   11.7801 C   0  0  1  0  0  0  0  0  0  0  0  0
   -4.9088    0.4063   12.0117 C   0  0  0  0  0  0  0  0  0  0  0  0
   -8.2438   -1.5492   11.2416 C   0  0  2  0  0  0  0  0  0  0  0  0
   -2.4561    4.3224    9.9818 N   0  0  0  0  0  4  0  0  0  0  0  0
   -4.2701    1.4173   11.2650 N   0  0  0  0  0  0  0  0  0  0  0  0
   -7.8847   -2.7814   10.5965 N   0  0  0  0  0  4  0  0  0  0  0  0
   -6.1517   -1.6583   12.3957 N   0  0  0  0  0  0  0  0  0  0  0  0
   -7.8792   -4.8462    8.7568 O   0  0  0  0  0  0  0  0  0  0  0  0
   -4.3910   -3.1370   12.8238 O   0  0  0  0  0  0  0  0  0  0  0  0
   -5.0547    0.5917   13.2389 O   0  0  0  0  0  0  0  0  0  0  0  0
   -7.4324   -5.9834   10.8439 O   0  0  0  0  0  0  0  0  0  0  0  0
   -9.8548   -6.0773    9.9879 O   0  0  0  0  0  0  0  0  0  0  0  0
   -8.7272   -3.7767   11.0069 O   0  0  0  0  0  0  0  0  0  0  0  0
   -8.4524   -5.1623   10.1048 S   0  0  2  0  0  6  0  0  0  0  0  0
  1  7  1  1
 12  1  1  0
  2  8  1  1
 13  2  1  1
  9  3  1  1
  3 13  1  6
 12  4  1  0
  4 16  1  6
 16  5  1  0
  5 18  2  0
  7  6  1  6
  6 11  1  1
 16  6  1  0
  8 10  1  6
 10  9  1  0
 10 14  1  6
 11 14  1  0
 11 19  2  0
 12 15  1  6
 15 22  1  6
 23 17  2  0
 23 20  2  0
 23 21  1  6
 22 23  1  0
M  CHG  2  13   1  15   1
M  END
$$$$
