
     RDKit          3D

 23 24  0  0  0  0  0  0  0  0999 V2000
   -8.4120   -1.0402   11.4045 C   0  0  0  0  0  0  0  0  0  0  0  0
   -1.7034    2.2362   10.8675 C   0  0  0  0  0  0  0  0  0  0  0  0
   -2.8960    3.4723    9.1776 C   0  0  0  0  0  0  0  0  0  0  0  0
   -7.1578   -3.0391   12.3681 C   0  0  0  0  0  0  0  0  0  0  0  0
   -5.5246   -2.1124   13.9551 C   0  0  0  0  0  0  0  0  0  0  0  0
   -6.0392   -0.9693   11.8012 C   0  0  1  0  0  0  0  0  0  0  0  0
   -7.3081   -0.1469   11.9220 C   0  0  0  0  0  0  0  0  0  0  0  0
   -3.0201    2.5095   11.5406 C   0  0  0  0  0  0  0  0  0  0  0  0
   -4.0856    2.5812    9.3519 C   0  0  0  0  0  0  0  0  0  0  0  0
   -4.2058    2.0397   10.7611 C   0  0  1  0  0  0  0  0  0  0  0  0
   -4.8042   -0.2366   11.6873 C   0  0  0  0  0  0  0  0  0  0  0  0
   -8.4377   -2.4281   11.8715 C   0  0  2  0  0  0  0  0  0  0  0  0
   -1.6995    2.7373    9.5303 N   0  0  0  0  0  4  0  0  0  0  0  0
   -4.3414    0.6114   10.6715 N   0  0  0  0  0  0  0  0  0  0  0  0
   -8.8920   -3.2886   10.7709 N   0  0  0  0  0  4  0  0  0  0  0  0
   -6.1870   -2.0083   12.7348 N   0  0  0  0  0  0  0  0  0  0  0  0
   -9.1506   -3.5725    7.4856 O   0  0  0  0  0  0  0  0  0  0  0  0
   -4.7153   -3.0860   14.1578 O   0  0  0  0  0  0  0  0  0  0  0  0
   -3.9892   -0.3727   12.6705 O   0  0  0  0  0  0  0  0  0  0  0  0
   -7.5412   -5.3383    8.0620 O   0  0  0  0  0  0  0  0  0  0  0  0
   -9.8085   -5.3525    9.2904 O   0  0  0  0  0  0  0  0  0  0  0  0
   -7.9615   -3.4321    9.8290 O   0  0  0  0  0  0  0  0  0  0  0  0
   -8.5850   -4.4004    8.6052 S   0  0  2  0  0  6  0  0  0  0  0  0
  1  7  1  0
 12  1  1  0
  8  2  1  0
  2 13  1  0
  9  3  1  0
  3 13  1  0
 12  4  1  0
  4 16  1  0
 16  5  1  0
  5 18  2  0
  7  6  1  0
  6 11  1  1
 16  6  1  0
 10  8  1  0
 10  9  1  0
 10 14  1  6
 11 14  1  0
 11 19  2  0
 12 15  1  6
 22 15  1  0
 23 17  2  0
 23 20  2  0
 23 21  1  1
 22 23  1  0
M  CHG  2  13   1  15   1
M  END
$$$$
