
     RDKit          3D

 23 24  0  0  0  0  0  0  0  0999 V2000
   -8.6629   -0.9986   11.6818 C   0  0  0  0  0  0  0  0  0  0  0  0
   -3.0011    2.1459    8.5561 C   0  0  0  0  0  0  0  0  0  0  0  0
   -3.5705    3.9853   10.0046 C   0  0  0  0  0  0  0  0  0  0  0  0
   -7.1786   -3.0371   12.0538 C   0  0  0  0  0  0  0  0  0  0  0  0
   -5.5037   -2.3596   13.7214 C   0  0  0  0  0  0  0  0  0  0  0  0
   -6.2794   -0.7929   11.9453 C   0  0  1  0  0  0  0  0  0  0  0  0
   -7.5967   -0.1506   12.3366 C   0  0  0  0  0  0  0  0  0  0  0  0
   -2.4330    1.7015    9.8756 C   0  0  0  0  0  0  0  0  0  0  0  0
   -4.1268    3.0306   11.0139 C   0  0  0  0  0  0  0  0  0  0  0  0
   -3.4312    1.6856   10.9882 C   0  0  1  0  0  0  0  0  0  0  0  0
   -5.1206    0.0628   11.9420 C   0  0  0  0  0  0  0  0  0  0  0  0
   -8.5391   -2.4534   11.7965 C   0  0  2  0  0  0  0  0  0  0  0  0
   -3.6792    3.3958    8.6867 N   0  0  0  0  0  4  0  0  0  0  0  0
   -4.4434    0.6710   10.8760 N   0  0  0  0  0  0  0  0  0  0  0  0
   -9.0091   -3.0676   10.5475 N   0  0  0  0  0  4  0  0  0  0  0  0
   -6.2679   -2.0334   12.6040 N   0  0  0  0  0  0  0  0  0  0  0  0
   -7.1520   -5.8089    8.7712 O   0  0  0  0  0  0  0  0  0  0  0  0
   -5.5704   -3.5415   14.2138 O   0  0  0  0  0  0  0  0  0  0  0  0
   -4.6206    0.3186   13.0970 O   0  0  0  0  0  0  0  0  0  0  0  0
   -8.4284   -5.9264   10.8682 O   0  0  0  0  0  0  0  0  0  0  0  0
   -9.7287   -5.3431    8.7190 O   0  0  0  0  0  0  0  0  0  0  0  0
   -8.0056   -3.5498    9.8167 O   0  0  0  0  0  0  0  0  0  0  0  0
   -8.2682   -5.1906    9.5655 S   0  0  2  0  0  6  0  0  0  0  0  0
  1  7  1  0
 12  1  1  0
  8  2  1  0
  2 13  1  0
  9  3  1  0
  3 13  1  0
 12  4  1  0
  4 16  1  0
 16  5  1  0
  5 18  2  0
  7  6  1  0
  6 11  1  1
 16  6  1  0
 10  8  1  0
 10  9  1  0
 10 14  1  6
 11 14  1  0
 11 19  2  0
 12 15  1  6
 22 15  1  0
 23 17  2  0
 23 20  2  0
 23 21  1  6
 22 23  1  0
M  CHG  2  13   1  15   1
M  END
$$$$
