
     RDKit          3D

 23 24  0  0  0  0  0  0  0  0999 V2000
   -8.4128   -0.6373   11.1449 C   0  0  0  0  0  0  0  0  0  0  0  0
   -2.5140    2.6152    8.9548 C   0  0  0  0  0  0  0  0  0  0  0  0
   -3.4451    4.2700   10.4382 C   0  0  0  0  0  0  0  0  0  0  0  0
   -7.3189   -2.8260   11.8591 C   0  0  0  0  0  0  0  0  0  0  0  0
   -5.7322   -2.2391   13.6431 C   0  0  0  0  0  0  0  0  0  0  0  0
   -6.0656   -0.7653   11.6614 C   0  0  1  0  0  0  0  0  0  0  0  0
   -7.2954    0.1041   11.8422 C   0  0  0  0  0  0  0  0  0  0  0  0
   -2.1460    2.0742   10.3088 C   0  0  0  0  0  0  0  0  0  0  0  0
   -4.0951    3.1923   11.2478 C   0  0  0  0  0  0  0  0  0  0  0  0
   -3.3131    1.8955   11.2254 C   0  0  1  0  0  0  0  0  0  0  0  0
   -4.7902   -0.0978   11.7174 C   0  0  0  0  0  0  0  0  0  0  0  0
   -8.5358   -2.0746   11.3980 C   0  0  2  0  0  0  0  0  0  0  0  0
   -3.2898    3.8080    9.0748 N   0  0  0  0  0  4  0  0  0  0  0  0
   -4.2190    0.8441   10.8506 N   0  0  0  0  0  0  0  0  0  0  0  0
   -8.9709   -2.7368   10.1610 N   0  0  0  0  0  4  0  0  0  0  0  0
   -6.3187   -1.9189   12.4216 N   0  0  0  0  0  0  0  0  0  0  0  0
   -9.1204   -6.4874   10.0160 O   0  0  0  0  0  0  0  0  0  0  0  0
   -4.9772   -3.2714   13.7343 O   0  0  0  0  0  0  0  0  0  0  0  0
   -4.0500   -0.4059   12.7207 O   0  0  0  0  0  0  0  0  0  0  0  0
   -8.0790   -4.9105    8.4445 O   0  0  0  0  0  0  0  0  0  0  0  0
   -7.0985   -5.0335   10.8264 O   0  0  0  0  0  0  0  0  0  0  0  0
   -9.5398   -3.9176   10.3971 O   0  0  0  0  0  0  0  0  0  0  0  0
   -8.4972   -5.1271    9.8736 S   0  0  2  0  0  6  0  0  0  0  0  0
  1  7  1  0
 12  1  1  0
  8  2  1  0
  2 13  1  0
  9  3  1  0
  3 13  1  0
 12  4  1  0
  4 16  1  0
 16  5  1  0
  5 18  2  0
  7  6  1  0
  6 11  1  1
 16  6  1  0
 10  8  1  0
 10  9  1  0
 10 14  1  6
 11 14  1  0
 11 19  2  0
 12 15  1  6
 22 15  1  0
 23 17  2  0
 23 20  2  0
 23 21  1  1
 22 23  1  0
M  CHG  2  13   1  15   1
M  END
$$$$
