
     RDKit          3D

 23 24  0  0  0  0  0  0  0  0999 V2000
   -8.8903   -0.6087   11.1783 C   0  0  0  0  0  0  0  0  0  0  0  0
   -2.6922    2.7375    9.6786 C   0  0  0  0  0  0  0  0  0  0  0  0
   -4.0570    4.4593   10.6677 C   0  0  0  0  0  0  0  0  0  0  0  0
   -7.5639   -2.7374   11.6327 C   0  0  0  0  0  0  0  0  0  0  0  0
   -6.2446   -2.2933   13.6594 C   0  0  0  0  0  0  0  0  0  0  0  0
   -6.6050   -0.5354   11.9301 C   0  0  1  0  0  0  0  0  0  0  0  0
   -7.9577    0.1262   12.1136 C   0  0  0  0  0  0  0  0  0  0  0  0
   -2.5966    2.4183   11.1450 C   0  0  0  0  0  0  0  0  0  0  0  0
   -4.7869    3.4311   11.4736 C   0  0  0  0  0  0  0  0  0  0  0  0
   -3.9223    2.2342   11.8106 C   0  0  1  0  0  0  0  0  0  0  0  0
   -5.4484    0.2641   12.2430 C   0  0  0  0  0  0  0  0  0  0  0  0
   -8.8290   -2.0720   11.1695 C   0  0  2  0  0  0  0  0  0  0  0  0
   -3.5647    3.8451    9.4525 N   0  0  0  0  0  4  0  0  0  0  0  0
   -4.6372    1.0518   11.4143 N   0  0  0  0  0  0  0  0  0  0  0  0
   -9.0518   -2.5460    9.7970 N   0  0  0  0  0  4  0  0  0  0  0  0
   -6.7583   -1.8310   12.4506 N   0  0  0  0  0  0  0  0  0  0  0  0
   -8.6002   -4.7668   11.8929 O   0  0  0  0  0  0  0  0  0  0  0  0
   -5.2755   -3.1328   13.6583 O   0  0  0  0  0  0  0  0  0  0  0  0
   -5.0961    0.2649   13.4781 O   0  0  0  0  0  0  0  0  0  0  0  0
  -10.4615   -5.0111   10.3065 O   0  0  0  0  0  0  0  0  0  0  0  0
   -8.3088   -6.3467    9.8245 O   0  0  0  0  0  0  0  0  0  0  0  0
   -8.3505   -3.6451    9.5255 O   0  0  0  0  0  0  0  0  0  0  0  0
   -8.9663   -4.9117   10.4423 S   0  0  2  0  0  6  0  0  0  0  0  0
  1  7  1  0
 12  1  1  0
  8  2  1  0
  2 13  1  0
  9  3  1  0
  3 13  1  0
 12  4  1  0
  4 16  1  0
 16  5  1  0
  5 18  2  0
  7  6  1  0
  6 11  1  1
 16  6  1  0
 10  8  1  0
 10  9  1  0
 10 14  1  6
 11 14  1  0
 11 19  2  0
 12 15  1  6
 22 15  1  0
 23 17  2  0
 23 20  2  0
 23 21  1  6
 22 23  1  0
M  CHG  2  13   1  15   1
M  END
$$$$
