
     RDKit          3D

 23 24  0  0  0  0  0  0  0  0999 V2000
   -7.8878   -0.0129   10.0633 C   0  0  0  0  0  0  0  0  0  0  0  0
   -2.5300    3.6841    9.8922 C   0  0  0  0  0  0  0  0  0  0  0  0
   -4.2186    4.6176   11.2481 C   0  0  0  0  0  0  0  0  0  0  0  0
   -7.7417   -1.2044   12.1696 C   0  0  0  0  0  0  0  0  0  0  0  0
   -5.7137   -2.5985   12.5386 C   0  0  0  0  0  0  0  0  0  0  0  0
   -5.6251   -0.6270   10.9961 C   0  0  1  0  0  0  0  0  0  0  0  0
   -6.4247   -0.2177    9.7880 C   0  0  0  0  0  0  0  0  0  0  0  0
   -2.1053    2.7941   11.0148 C   0  0  0  0  0  0  0  0  0  0  0  0
   -4.0246    3.5637   12.2819 C   0  0  0  0  0  0  0  0  0  0  0  0
   -3.3057    2.3281   11.7616 C   0  0  1  0  0  0  0  0  0  0  0  0
   -5.0590    0.5797   11.6522 C   0  0  0  0  0  0  0  0  0  0  0  0
   -8.4690   -1.2143   10.8201 C   0  0  2  0  0  0  0  0  0  0  0  0
   -3.0108    4.9300   10.5114 N   0  0  0  0  0  4  0  0  0  0  0  0
   -4.2106    1.5130   11.0221 N   0  0  0  0  0  0  0  0  0  0  0  0
   -8.1636   -2.3962   10.0629 N   0  0  0  0  0  4  0  0  0  0  0  0
   -6.3499   -1.4765   11.8978 N   0  0  0  0  0  0  0  0  0  0  0  0
   -8.1542   -5.5608    9.2788 O   0  0  0  0  0  0  0  0  0  0  0  0
   -4.4975   -2.8040   12.4235 O   0  0  0  0  0  0  0  0  0  0  0  0
   -5.3583    0.7790   12.8490 O   0  0  0  0  0  0  0  0  0  0  0  0
   -7.1734   -4.5936   11.2666 O   0  0  0  0  0  0  0  0  0  0  0  0
   -9.4624   -5.7272   11.5581 O   0  0  0  0  0  0  0  0  0  0  0  0
   -9.1513   -3.3241   10.2424 O   0  0  0  0  0  0  0  0  0  0  0  0
   -8.4723   -4.8261   10.5455 S   0  0  2  0  0  6  0  0  0  0  0  0
  1  7  1  1
 12  1  1  0
  2  8  1  1
 13  2  1  1
  9  3  1  1
  3 13  1  6
 12  4  1  0
  4 16  1  6
 16  5  1  0
  5 18  2  0
  7  6  1  6
  6 11  1  1
 16  6  1  0
  8 10  1  6
 10  9  1  0
 10 14  1  6
 11 14  1  0
 11 19  2  0
 12 15  1  6
 15 22  1  6
 23 17  2  0
 23 20  2  0
 23 21  1  1
 22 23  1  0
M  CHG  2  13   1  15   1
M  END
$$$$
