
     RDKit          3D

 23 24  0  0  0  0  0  0  0  0999 V2000
   -7.9632   -0.0811   10.5648 C   0  0  0  0  0  0  0  0  0  0  0  0
   -2.5363    3.9332   12.4471 C   0  0  0  0  0  0  0  0  0  0  0  0
   -1.7405    3.3846   10.2962 C   0  0  0  0  0  0  0  0  0  0  0  0
   -7.4883   -1.2861   12.6140 C   0  0  0  0  0  0  0  0  0  0  0  0
   -5.2973   -2.4579   12.7518 C   0  0  0  0  0  0  0  0  0  0  0  0
   -5.5685   -0.4618   11.2631 C   0  0  1  0  0  0  0  0  0  0  0  0
   -6.5200   -0.1208   10.1474 C   0  0  0  0  0  0  0  0  0  0  0  0
   -3.9398    3.9519   11.9352 C   0  0  0  0  0  0  0  0  0  0  0  0
   -3.1218    3.1089    9.8134 C   0  0  0  0  0  0  0  0  0  0  0  0
   -4.1192    2.8635   10.9355 C   0  0  1  0  0  0  0  0  0  0  0  0
   -5.0734    0.7876   11.8963 C   0  0  0  0  0  0  0  0  0  0  0  0
   -8.3373   -1.3515   11.3392 C   0  0  2  0  0  0  0  0  0  0  0  0
   -1.6849    4.3909   11.3370 N   0  0  0  0  0  4  0  0  0  0  0  0
   -3.9716    1.5383   11.4377 N   0  0  0  0  0  0  0  0  0  0  0  0
   -7.9823   -2.4798   10.5241 N   0  0  0  0  0  4  0  0  0  0  0  0
   -6.1083   -1.4006   12.2050 N   0  0  0  0  0  0  0  0  0  0  0  0
   -9.5085   -5.7706   11.5216 O   0  0  0  0  0  0  0  0  0  0  0  0
   -5.6979   -3.6297   12.7819 O   0  0  0  0  0  0  0  0  0  0  0  0
   -5.6796    1.2003   12.9081 O   0  0  0  0  0  0  0  0  0  0  0  0
   -7.9076   -5.5600    9.7211 O   0  0  0  0  0  0  0  0  0  0  0  0
   -7.1381   -4.7447   12.0347 O   0  0  0  0  0  0  0  0  0  0  0  0
   -9.0047   -3.3872   10.5261 O   0  0  0  0  0  0  0  0  0  0  0  0
   -8.4248   -4.8965   10.9674 S   0  0  2  0  0  6  0  0  0  0  0  0
  1  7  1  1
 12  1  1  0
  2  8  1  1
 13  2  1  1
  9  3  1  1
  3 13  1  6
 12  4  1  0
  4 16  1  6
 16  5  1  0
  5 18  2  0
  7  6  1  6
  6 11  1  1
 16  6  1  0
  8 10  1  6
 10  9  1  0
 10 14  1  1
 11 14  1  0
 11 19  2  0
 12 15  1  6
 15 22  1  6
 23 17  2  0
 23 20  2  0
 23 21  1  1
 22 23  1  0
M  CHG  2  13   1  15   1
M  END
$$$$
