
     RDKit          3D

 23 24  0  0  0  0  0  0  0  0999 V2000
   -7.8904   -0.2833   10.0760 C   0  0  0  0  0  0  0  0  0  0  0  0
   -1.8182    3.0244   10.1815 C   0  0  0  0  0  0  0  0  0  0  0  0
   -3.8341    4.2230    9.9360 C   0  0  0  0  0  0  0  0  0  0  0  0
   -7.7398   -1.2803   12.2807 C   0  0  0  0  0  0  0  0  0  0  0  0
   -5.6542   -2.5286   12.8142 C   0  0  0  0  0  0  0  0  0  0  0  0
   -5.6250   -0.6948   11.1083 C   0  0  1  0  0  0  0  0  0  0  0  0
   -6.4120   -0.4334    9.8517 C   0  0  0  0  0  0  0  0  0  0  0  0
   -2.1300    2.7730   11.6209 C   0  0  0  0  0  0  0  0  0  0  0  0
   -4.3179    3.7567   11.2647 C   0  0  0  0  0  0  0  0  0  0  0  0
   -3.5892    2.5237   11.7775 C   0  0  1  0  0  0  0  0  0  0  0  0
   -5.1383    0.5920   11.6691 C   0  0  0  0  0  0  0  0  0  0  0  0
   -8.4297   -1.4443   10.9215 C   0  0  2  0  0  0  0  0  0  0  0  0
   -2.3922    4.3407    9.8576 N   0  0  0  0  0  4  0  0  0  0  0  0
   -4.0862    1.3578   11.1265 N   0  0  0  0  0  0  0  0  0  0  0  0
   -8.0448   -2.6690   10.2770 N   0  0  0  0  0  4  0  0  0  0  0  0
   -6.3293   -1.5008   12.0643 N   0  0  0  0  0  0  0  0  0  0  0  0
   -7.2696   -5.6506    9.7695 O   0  0  0  0  0  0  0  0  0  0  0  0
   -4.7637   -3.2219   12.3032 O   0  0  0  0  0  0  0  0  0  0  0  0
   -5.7045    1.0240   12.6959 O   0  0  0  0  0  0  0  0  0  0  0  0
   -9.5387   -6.1019   10.4740 O   0  0  0  0  0  0  0  0  0  0  0  0
   -9.2637   -4.6694    8.3570 O   0  0  0  0  0  0  0  0  0  0  0  0
   -8.6754   -3.7221   10.8788 O   0  0  0  0  0  0  0  0  0  0  0  0
   -8.6426   -5.0580    9.8672 S   0  0  2  0  0  6  0  0  0  0  0  0
  1  7  1  1
 12  1  1  0
  2  8  1  1
 13  2  1  1
  9  3  1  1
  3 13  1  6
 12  4  1  0
  4 16  1  6
 16  5  1  0
  5 18  2  0
  7  6  1  6
  6 11  1  1
 16  6  1  0
  8 10  1  6
 10  9  1  0
 10 14  1  6
 11 14  1  0
 11 19  2  0
 12 15  1  6
 15 22  1  6
 23 17  2  0
 23 20  2  0
 23 21  1  6
 22 23  1  0
M  CHG  2  13   1  15   1
M  END
$$$$
