
     RDKit          3D

 23 24  0  0  0  0  0  0  0  0999 V2000
   -9.0255   -1.1648   11.4810 C   0  0  0  0  0  0  0  0  0  0  0  0
   -3.9893    2.0205    7.9491 C   0  0  0  0  0  0  0  0  0  0  0  0
   -4.6718    3.8184    9.4009 C   0  0  0  0  0  0  0  0  0  0  0  0
   -7.6967   -3.0004   12.6480 C   0  0  0  0  0  0  0  0  0  0  0  0
   -6.0490   -1.8481   14.0629 C   0  0  0  0  0  0  0  0  0  0  0  0
   -6.6462   -0.9920   11.7999 C   0  0  1  0  0  0  0  0  0  0  0  0
   -7.9324   -0.1897   11.8538 C   0  0  0  0  0  0  0  0  0  0  0  0
   -3.2510    1.7030    9.2201 C   0  0  0  0  0  0  0  0  0  0  0  0
   -5.0012    2.8349   10.4797 C   0  0  0  0  0  0  0  0  0  0  0  0
   -4.1346    1.5943   10.4208 C   0  0  1  0  0  0  0  0  0  0  0  0
   -5.4337   -0.2514   11.5624 C   0  0  0  0  0  0  0  0  0  0  0  0
   -9.0038   -2.4845   12.1157 C   0  0  2  0  0  0  0  0  0  0  0  0
   -4.8164    3.1729    8.1130 N   0  0  0  0  0  4  0  0  0  0  0  0
   -5.0056    0.4507   10.4271 N   0  0  0  0  0  0  0  0  0  0  0  0
   -9.4629   -3.4846   11.1424 N   0  0  0  0  0  4  0  0  0  0  0  0
   -6.7440   -1.9106   12.8580 N   0  0  0  0  0  0  0  0  0  0  0  0
   -9.4087   -5.6959    8.7472 O   0  0  0  0  0  0  0  0  0  0  0  0
   -5.2492   -2.7970   14.3851 O   0  0  0  0  0  0  0  0  0  0  0  0
   -4.6051   -0.2204   12.5432 O   0  0  0  0  0  0  0  0  0  0  0  0
   -8.9533   -3.3003    8.4408 O   0  0  0  0  0  0  0  0  0  0  0  0
   -6.9232   -4.8747    8.6652 O   0  0  0  0  0  0  0  0  0  0  0  0
   -8.5006   -4.3449   10.8149 O   0  0  0  0  0  0  0  0  0  0  0  0
   -8.5163   -4.5547    9.1476 S   0  0  2  0  0  6  0  0  0  0  0  0
  1  7  1  0
 12  1  1  0
  8  2  1  0
  2 13  1  0
  9  3  1  0
  3 13  1  0
 12  4  1  0
  4 16  1  0
 16  5  1  0
  5 18  2  0
  7  6  1  0
  6 11  1  1
 16  6  1  0
 10  8  1  0
 10  9  1  0
 10 14  1  6
 11 14  1  0
 11 19  2  0
 12 15  1  6
 22 15  1  0
 23 17  2  0
 23 20  2  0
 23 21  1  6
 22 23  1  0
M  CHG  2  13   1  15   1
M  END
$$$$
