
     RDKit          3D

 23 24  0  0  0  0  0  0  0  0999 V2000
   -8.1331   -0.2375   10.3334 C   0  0  0  0  0  0  0  0  0  0  0  0
   -2.5554    3.2255    9.9477 C   0  0  0  0  0  0  0  0  0  0  0  0
   -4.2935    4.3903   11.0355 C   0  0  0  0  0  0  0  0  0  0  0  0
   -8.0555   -1.1980   12.5579 C   0  0  0  0  0  0  0  0  0  0  0  0
   -6.0648   -2.5812   13.1205 C   0  0  0  0  0  0  0  0  0  0  0  0
   -5.9035   -0.7890   11.3782 C   0  0  1  0  0  0  0  0  0  0  0  0
   -6.6692   -0.4974   10.1151 C   0  0  0  0  0  0  0  0  0  0  0  0
   -2.2483    2.4843   11.2082 C   0  0  0  0  0  0  0  0  0  0  0  0
   -4.2171    3.4822   12.2130 C   0  0  0  0  0  0  0  0  0  0  0  0
   -3.5166    2.1642   11.9186 C   0  0  1  0  0  0  0  0  0  0  0  0
   -5.3263    0.4708   11.9140 C   0  0  0  0  0  0  0  0  0  0  0  0
   -8.7546   -1.3397   11.2009 C   0  0  2  0  0  0  0  0  0  0  0  0
   -3.0250    4.5595   10.3561 N   0  0  0  0  0  4  0  0  0  0  0  0
   -4.4014    1.2854   11.2295 N   0  0  0  0  0  0  0  0  0  0  0  0
   -8.4579   -2.6015   10.5819 N   0  0  0  0  0  4  0  0  0  0  0  0
   -6.6642   -1.5232   12.3488 N   0  0  0  0  0  0  0  0  0  0  0  0
   -9.3162   -5.3573    9.3262 O   0  0  0  0  0  0  0  0  0  0  0  0
   -5.0777   -3.2042   12.7055 O   0  0  0  0  0  0  0  0  0  0  0  0
   -5.6891    0.8316   13.0541 O   0  0  0  0  0  0  0  0  0  0  0  0
   -7.1518   -5.0426   10.3584 O   0  0  0  0  0  0  0  0  0  0  0  0
   -8.9018   -6.3211   11.7415 O   0  0  0  0  0  0  0  0  0  0  0  0
   -9.0681   -3.6083   11.2768 O   0  0  0  0  0  0  0  0  0  0  0  0
   -8.6297   -5.0916   10.6315 S   0  0  2  0  0  6  0  0  0  0  0  0
  1  7  1  1
 12  1  1  0
  2  8  1  1
 13  2  1  1
  9  3  1  1
  3 13  1  6
 12  4  1  0
  4 16  1  6
 16  5  1  0
  5 18  2  0
  7  6  1  6
  6 11  1  1
 16  6  1  0
  8 10  1  6
 10  9  1  0
 10 14  1  6
 11 14  1  0
 11 19  2  0
 12 15  1  6
 15 22  1  6
 23 17  2  0
 23 20  2  0
 23 21  1  1
 22 23  1  0
M  CHG  2  13   1  15   1
M  END
$$$$
