
     RDKit          3D

 23 24  0  0  0  0  0  0  0  0999 V2000
   -7.3777   -1.3457    9.7071 C   0  0  0  0  0  0  0  0  0  0  0  0
   -2.8192    3.2442   12.2458 C   0  0  0  0  0  0  0  0  0  0  0  0
   -2.8901    3.5832    9.9132 C   0  0  0  0  0  0  0  0  0  0  0  0
   -7.4566   -2.1831   11.9808 C   0  0  0  0  0  0  0  0  0  0  0  0
   -5.3271   -3.0398   12.9419 C   0  0  0  0  0  0  0  0  0  0  0  0
   -5.2872   -1.3216   11.1199 C   0  0  1  0  0  0  0  0  0  0  0  0
   -5.8776   -1.2620    9.7363 C   0  0  0  0  0  0  0  0  0  0  0  0
   -4.3108    3.1690   12.2913 C   0  0  0  0  0  0  0  0  0  0  0  0
   -4.3358    3.2297    9.8670 C   0  0  0  0  0  0  0  0  0  0  0  0
   -4.8097    2.4524   11.0857 C   0  0  1  0  0  0  0  0  0  0  0  0
   -5.1072    0.0563   11.6455 C   0  0  0  0  0  0  0  0  0  0  0  0
   -7.8696   -2.5321   10.5462 C   0  0  2  0  0  0  0  0  0  0  0  0
   -2.4853    4.1875   11.1662 N   0  0  0  0  0  4  0  0  0  0  0  0
   -4.4164    1.0873   10.9763 N   0  0  0  0  0  0  0  0  0  0  0  0
   -7.1965   -3.7098   10.0734 N   0  0  0  0  0  4  0  0  0  0  0  0
   -6.0130   -2.1796   12.0125 N   0  0  0  0  0  0  0  0  0  0  0  0
   -9.9200   -4.1017   11.9637 O   0  0  0  0  0  0  0  0  0  0  0  0
   -4.2866   -3.6333   12.6260 O   0  0  0  0  0  0  0  0  0  0  0  0
   -5.6053    0.3170   12.7615 O   0  0  0  0  0  0  0  0  0  0  0  0
   -9.8001   -3.6575    9.5894 O   0  0  0  0  0  0  0  0  0  0  0  0
  -10.1793   -6.1060   10.2756 O   0  0  0  0  0  0  0  0  0  0  0  0
   -7.7666   -4.8196   10.6320 O   0  0  0  0  0  0  0  0  0  0  0  0
   -9.4340   -4.6511   10.6569 S   0  0  2  0  0  6  0  0  0  0  0  0
  1  7  1  1
 12  1  1  0
  2  8  1  1
 13  2  1  1
  9  3  1  1
  3 13  1  6
 12  4  1  0
  4 16  1  6
 16  5  1  0
  5 18  2  0
  7  6  1  6
  6 11  1  1
 16  6  1  0
  8 10  1  6
 10  9  1  0
 10 14  1  6
 11 14  1  0
 11 19  2  0
 12 15  1  6
 15 22  1  6
 23 17  2  0
 23 20  2  0
 23 21  1  6
 22 23  1  0
M  CHG  2  13   1  15   1
M  END
$$$$
