
     RDKit          3D

 41 45  0  0  0  0  0  0  0  0999 V2000
   -0.2493   -7.4624    0.3812 C   0  0  0  0  0  0  0  0  0  0  0  0
   -1.1035   -6.9597   -0.7494 C   0  0  1  0  0  0  0  0  0  0  0  0
   -1.9149   -5.7747   -0.2127 C   0  0  0  0  0  0  0  0  0  0  0  0
   -1.4155   -4.5559   -0.7761 N   0  0  0  0  0  0  0  0  0  0  0  0
   -1.0193   -3.5034    0.0818 C   0  0  0  0  0  0  0  0  0  0  0  0
   -0.2503   -3.7661    1.0500 O   0  0  0  0  0  0  0  0  0  0  0  0
   -1.4975   -2.1062   -0.1470 C   0  0  0  0  0  0  0  0  0  0  0  0
   -0.5389   -1.4616   -1.1265 C   0  0  0  0  0  0  0  0  0  0  0  0
   -1.3128   -4.3704   -2.2141 C   0  0  0  0  0  0  0  0  0  0  0  0
   -1.1164   -5.7454   -2.8899 C   0  0  0  0  0  0  0  0  0  0  0  0
   -0.3585   -6.5027   -1.8734 N   0  0  0  0  0  0  0  0  0  0  0  0
    1.0154   -6.6561   -2.1501 C   0  0  0  0  0  0  0  0  0  0  0  0
    1.7177   -5.6469   -2.7488 N   0  0  0  0  0  0  0  0  0  0  0  0
    3.0211   -5.7401   -3.0345 C   0  0  0  0  0  0  0  0  0  0  0  0
    3.6464   -4.7777   -3.5950 O   0  0  0  0  0  0  0  0  0  0  0  0
    3.7110   -6.8507   -2.7400 N   0  0  0  0  0  0  0  0  0  0  0  0
    5.0933   -7.0036   -3.0364 C   0  0  0  0  0  0  0  0  0  0  0  0
    5.5590   -7.3928   -4.2890 C   0  0  0  0  0  0  0  0  0  0  0  0
    4.6153   -7.6712   -5.3815 C   0  0  0  0  0  0  0  0  0  0  0  0
    6.9110   -7.5239   -4.5259 C   0  0  0  0  0  0  0  0  0  0  0  0
    7.7803   -7.2611   -3.4965 C   0  0  0  0  0  0  0  0  0  0  0  0
    7.3406   -6.8824   -2.2755 N   0  0  0  0  0  0  0  0  0  0  0  0
    6.0076   -6.7521   -2.0377 C   0  0  0  0  0  0  0  0  0  0  0  0
    5.6455   -6.3384   -0.6581 C   0  0  1  0  0  0  0  0  0  0  0  0
    6.1863   -7.3465    0.3648 C   0  0  0  0  0  0  0  0  0  0  0  0
    6.1602   -4.9494   -0.3457 C   0  0  0  0  0  0  0  0  0  0  0  0
    3.0478   -7.8808   -2.1414 C   0  0  0  0  0  0  0  0  0  0  0  0
    3.7728   -9.0088   -1.8531 N   0  0  0  0  0  0  0  0  0  0  0  0
    1.7123   -7.7954   -1.8448 C   0  0  0  0  0  0  0  0  0  0  0  0
    1.1030   -8.8908   -1.2394 C   0  0  0  0  0  0  0  0  0  0  0  0
    1.8803   -9.9955   -0.9738 C   0  0  0  0  0  0  0  0  0  0  0  0
    1.3138  -11.0937   -0.3804 F   0  0  0  0  0  0  0  0  0  0  0  0
    3.2206  -10.0813   -1.2708 C   0  0  0  0  0  0  0  0  0  0  0  0
    3.9917  -11.2830   -0.9576 C   0  0  0  0  0  0  0  0  0  0  0  0
    4.8392  -11.3619    0.1519 C   0  0  0  0  0  0  0  0  0  0  0  0
    4.9033  -10.2546    0.9304 F   0  0  0  0  0  0  0  0  0  0  0  0
    5.5561  -12.5050    0.4199 C   0  0  0  0  0  0  0  0  0  0  0  0
    5.4646  -13.6084   -0.3929 C   0  0  0  0  0  0  0  0  0  0  0  0
    4.6221  -13.5588   -1.5135 C   0  0  0  0  0  0  0  0  0  0  0  0
    3.9118  -12.3963   -1.7605 C   0  0  0  0  0  0  0  0  0  0  0  0
    3.0880  -12.3803   -2.8772 O   0  0  0  0  0  0  0  0  0  0  0  0
  2  1  1  1
  2  3  1  0
  2 11  1  0
  3  4  1  0
  4  5  1  0
  4  9  1  0
  5  6  2  0
  5  7  1  0
  7  8  1  0
  9 10  1  0
 10 11  1  0
 11 12  1  0
 12 13  2  0
 12 29  1  0
 13 14  1  0
 14 15  2  0
 14 16  1  0
 16 17  1  0
 16 27  1  0
 17 18  2  0
 17 23  1  0
 18 19  1  0
 18 20  1  0
 20 21  2  0
 21 22  1  0
 22 23  2  0
 23 24  1  0
 24 25  1  1
 24 26  1  0
 27 28  1  0
 27 29  2  0
 28 33  2  0
 29 30  1  0
 30 31  2  0
 31 32  1  0
 31 33  1  0
 33 34  1  0
 34 35  2  0
 34 40  1  0
 35 36  1  0
 35 37  1  0
 37 38  2  0
 38 39  1  0
 39 40  2  0
 40 41  1  0
M  END
$$$$
