
     RDKit          3D

 41 45  0  0  0  0  0  0  0  0999 V2000
   -0.1486   -7.6291   -1.2868 C   0  0  0  0  0  0  0  0  0  0  0  0
   -0.8884   -6.3513   -1.5903 C   0  0  1  0  0  0  0  0  0  0  0  0
   -1.8026   -6.0258   -0.4477 C   0  0  0  0  0  0  0  0  0  0  0  0
   -2.4018   -4.7387   -0.6736 N   0  0  0  0  0  0  0  0  0  0  0  0
   -3.8039   -4.5735   -0.4634 C   0  0  0  0  0  0  0  0  0  0  0  0
   -4.4447   -5.5202    0.0559 O   0  0  0  0  0  0  0  0  0  0  0  0
   -4.5573   -3.3521   -0.8186 C   0  0  0  0  0  0  0  0  0  0  0  0
   -5.6311   -3.6929   -1.8304 C   0  0  0  0  0  0  0  0  0  0  0  0
   -1.6538   -3.5826   -1.1095 C   0  0  0  0  0  0  0  0  0  0  0  0
   -0.5021   -3.8988   -1.9859 C   0  0  0  0  0  0  0  0  0  0  0  0
   -0.0345   -5.2619   -1.9382 N   0  0  0  0  0  0  0  0  0  0  0  0
    1.3378   -5.4535   -2.2670 C   0  0  0  0  0  0  0  0  0  0  0  0
    1.8786   -4.7918   -3.3342 N   0  0  0  0  0  0  0  0  0  0  0  0
    3.1609   -4.9986   -3.6619 C   0  0  0  0  0  0  0  0  0  0  0  0
    3.6262   -4.3533   -4.6750 O   0  0  0  0  0  0  0  0  0  0  0  0
    3.8963   -5.8458   -2.9455 N   0  0  0  0  0  0  0  0  0  0  0  0
    5.2420   -6.0394   -3.3167 C   0  0  0  0  0  0  0  0  0  0  0  0
    6.1922   -5.1870   -2.7857 C   0  0  0  0  0  0  0  0  0  0  0  0
    5.8819   -4.0842   -1.8505 C   0  0  0  0  0  0  0  0  0  0  0  0
    7.4924   -5.4242   -3.1852 C   0  0  0  0  0  0  0  0  0  0  0  0
    7.7948   -6.4487   -4.0558 C   0  0  0  0  0  0  0  0  0  0  0  0
    6.8103   -7.2315   -4.5254 N   0  0  0  0  0  0  0  0  0  0  0  0
    5.5124   -7.0739   -4.1900 C   0  0  0  0  0  0  0  0  0  0  0  0
    4.4860   -7.9708   -4.7434 C   0  0  1  0  0  0  0  0  0  0  0  0
    4.4089   -7.7326   -6.2404 C   0  0  0  0  0  0  0  0  0  0  0  0
    4.8664   -9.4457   -4.6001 C   0  0  0  0  0  0  0  0  0  0  0  0
    3.4105   -6.5159   -1.8919 C   0  0  0  0  0  0  0  0  0  0  0  0
    4.2027   -7.3772   -1.1664 N   0  0  0  0  0  0  0  0  0  0  0  0
    2.0927   -6.3248   -1.5284 C   0  0  0  0  0  0  0  0  0  0  0  0
    1.6432   -7.0225   -0.4371 C   0  0  0  0  0  0  0  0  0  0  0  0
    2.4684   -7.8924    0.2843 C   0  0  0  0  0  0  0  0  0  0  0  0
    1.9805   -8.5641    1.3589 F   0  0  0  0  0  0  0  0  0  0  0  0
    3.7782   -8.0576   -0.1096 C   0  0  0  0  0  0  0  0  0  0  0  0
    4.6723   -8.9633    0.6298 C   0  0  0  0  0  0  0  0  0  0  0  0
    4.9442   -8.7658    1.9669 C   0  0  0  0  0  0  0  0  0  0  0  0
    4.3636   -7.7114    2.5910 F   0  0  0  0  0  0  0  0  0  0  0  0
    5.7903   -9.6219    2.6638 C   0  0  0  0  0  0  0  0  0  0  0  0
    6.3693  -10.6877    2.0100 C   0  0  0  0  0  0  0  0  0  0  0  0
    6.1167  -10.9138    0.6683 C   0  0  0  0  0  0  0  0  0  0  0  0
    5.2729  -10.0428    0.0131 C   0  0  0  0  0  0  0  0  0  0  0  0
    5.0269  -10.2781   -1.3306 O   0  0  0  0  0  0  0  0  0  0  0  0
  1  2  1  6
  2  3  1  0
  2 11  1  1
  3  4  1  6
  4  5  1  0
  9  4  1  1
  5  6  2  0
  7  5  1  1
  8  7  1  6
  9 10  1  0
 10 11  1  6
 11 12  1  0
 12 13  2  0
 12 29  1  0
 13 14  1  0
 14 15  2  0
 14 16  1  0
 16 17  1  0
 16 27  1  0
 17 18  2  0
 17 23  1  0
 19 18  1  6
 18 20  1  0
 20 21  2  0
 21 22  1  0
 22 23  2  0
 24 23  1  6
 25 24  1  6
 26 24  1  6
 27 28  1  0
 27 29  2  0
 28 33  2  0
 29 30  1  0
 30 31  2  0
 31 32  1  0
 31 33  1  0
 33 34  1  0
 34 35  2  0
 34 40  1  0
 35 36  1  0
 35 37  1  0
 37 38  2  0
 38 39  1  0
 39 40  2  0
 40 41  1  0
M  END
$$$$
