
     RDKit          3D

 41 45  0  0  0  0  0  0  0  0999 V2000
    2.6360   -4.0194   -3.2588 C   0  0  0  0  0  0  0  0  0  0  0  0
    1.1672   -3.9577   -2.9258 C   0  0  1  0  0  0  0  0  0  0  0  0
    0.3973   -3.5762   -4.1543 C   0  0  0  0  0  0  0  0  0  0  0  0
   -1.0104   -3.6541   -3.8731 N   0  0  0  0  0  0  0  0  0  0  0  0
   -1.8664   -2.5903   -4.2890 C   0  0  0  0  0  0  0  0  0  0  0  0
   -1.3615   -1.6321   -4.9242 O   0  0  0  0  0  0  0  0  0  0  0  0
   -3.3194   -2.5419   -4.0201 C   0  0  0  0  0  0  0  0  0  0  0  0
   -3.6840   -1.1933   -3.4358 C   0  0  0  0  0  0  0  0  0  0  0  0
   -1.6192   -4.7660   -3.1810 C   0  0  0  0  0  0  0  0  0  0  0  0
   -0.7437   -5.4075   -2.1729 C   0  0  0  0  0  0  0  0  0  0  0  0
    0.6673   -5.1445   -2.3107 N   0  0  0  0  0  0  0  0  0  0  0  0
    1.5339   -6.1459   -1.7869 C   0  0  0  0  0  0  0  0  0  0  0  0
    2.8187   -6.2384   -2.2448 N   0  0  0  0  0  0  0  0  0  0  0  0
    3.6223   -7.2017   -1.7749 C   0  0  0  0  0  0  0  0  0  0  0  0
    4.8241   -7.2497   -2.2361 O   0  0  0  0  0  0  0  0  0  0  0  0
    3.1625   -8.0592   -0.8666 N   0  0  0  0  0  0  0  0  0  0  0  0
    4.0344   -9.0599   -0.3926 C   0  0  0  0  0  0  0  0  0  0  0  0
    4.7506   -8.8047    0.7621 C   0  0  0  0  0  0  0  0  0  0  0  0
    4.6565   -7.5450    1.5310 C   0  0  0  0  0  0  0  0  0  0  0  0
    5.5883   -9.8204    1.1781 C   0  0  0  0  0  0  0  0  0  0  0  0
    5.6848  -10.9992    0.4708 C   0  0  0  0  0  0  0  0  0  0  0  0
    4.9529  -11.1660   -0.6423 N   0  0  0  0  0  0  0  0  0  0  0  0
    4.1086  -10.2290   -1.1230 C   0  0  0  0  0  0  0  0  0  0  0  0
    3.3368  -10.4811   -2.3497 C   0  0  1  0  0  0  0  0  0  0  0  0
    4.3174  -10.7137   -3.4847 C   0  0  0  0  0  0  0  0  0  0  0  0
    2.5204  -11.7723   -2.2662 C   0  0  0  0  0  0  0  0  0  0  0  0
    1.9121   -8.0075   -0.3880 C   0  0  0  0  0  0  0  0  0  0  0  0
    1.4725   -8.9046    0.5595 N   0  0  0  0  0  0  0  0  0  0  0  0
    1.0592   -7.0264   -0.8521 C   0  0  0  0  0  0  0  0  0  0  0  0
   -0.2064   -7.0052   -0.3250 C   0  0  0  0  0  0  0  0  0  0  0  0
   -0.6296   -7.9284    0.6376 C   0  0  0  0  0  0  0  0  0  0  0  0
   -1.8931   -7.8706    1.1314 F   0  0  0  0  0  0  0  0  0  0  0  0
    0.2504   -8.8937    1.0755 C   0  0  0  0  0  0  0  0  0  0  0  0
   -0.1635   -9.8776    2.0890 C   0  0  0  0  0  0  0  0  0  0  0  0
   -1.0120  -10.9170    1.7723 C   0  0  0  0  0  0  0  0  0  0  0  0
   -1.4587  -11.0148    0.4959 F   0  0  0  0  0  0  0  0  0  0  0  0
   -1.4030  -11.8452    2.7314 C   0  0  0  0  0  0  0  0  0  0  0  0
   -0.9364  -11.7275    4.0226 C   0  0  0  0  0  0  0  0  0  0  0  0
   -0.0834  -10.6957    4.3730 C   0  0  0  0  0  0  0  0  0  0  0  0
    0.2806   -9.7964    3.3938 C   0  0  0  0  0  0  0  0  0  0  0  0
    1.1351   -8.7665    3.7554 O   0  0  0  0  0  0  0  0  0  0  0  0
  1  2  1  6
  2  3  1  0
  2 11  1  6
  3  4  1  6
  4  5  1  0
  9  4  1  1
  5  6  2  0
  7  5  1  1
  8  7  1  6
  9 10  1  0
 10 11  1  6
 11 12  1  0
 12 13  2  0
 12 29  1  0
 13 14  1  0
 14 15  2  0
 14 16  1  0
 16 17  1  0
 16 27  1  0
 17 18  2  0
 17 23  1  0
 19 18  1  6
 18 20  1  0
 20 21  2  0
 21 22  1  0
 22 23  2  0
 24 23  1  1
 25 24  1  6
 26 24  1  6
 27 28  1  0
 27 29  2  0
 28 33  2  0
 29 30  1  0
 30 31  2  0
 31 32  1  0
 31 33  1  0
 33 34  1  0
 34 35  2  0
 34 40  1  0
 35 36  1  0
 35 37  1  0
 37 38  2  0
 38 39  1  0
 39 40  2  0
 40 41  1  0
M  END
$$$$
