
     RDKit          3D

 41 45  0  0  0  0  0  0  0  0999 V2000
   -1.6311   -6.6699   -2.2883 C   0  0  0  0  0  0  0  0  0  0  0  0
   -0.9470   -5.3488   -2.5063 C   0  0  1  0  0  0  0  0  0  0  0  0
   -1.5362   -4.3603   -1.4933 C   0  0  0  0  0  0  0  0  0  0  0  0
   -0.5644   -4.0734   -0.4807 N   0  0  0  0  0  0  0  0  0  0  0  0
   -0.8994   -4.2653    0.8800 C   0  0  0  0  0  0  0  0  0  0  0  0
   -0.3140   -5.1806    1.5262 O   0  0  0  0  0  0  0  0  0  0  0  0
   -1.9247   -3.4061    1.5461 C   0  0  0  0  0  0  0  0  0  0  0  0
   -1.1952   -2.2161    2.1342 C   0  0  0  0  0  0  0  0  0  0  0  0
    0.7607   -3.5804   -0.8182 C   0  0  0  0  0  0  0  0  0  0  0  0
    1.1454   -4.0839   -2.2268 C   0  0  0  0  0  0  0  0  0  0  0  0
    0.4617   -5.3907   -2.3036 N   0  0  0  0  0  0  0  0  0  0  0  0
    1.3035   -6.5108   -2.1474 C   0  0  0  0  0  0  0  0  0  0  0  0
    0.7938   -7.7769   -2.2328 N   0  0  0  0  0  0  0  0  0  0  0  0
    1.5469   -8.8733   -2.0915 C   0  0  0  0  0  0  0  0  0  0  0  0
    1.0377  -10.0416   -2.1767 O   0  0  0  0  0  0  0  0  0  0  0  0
    2.8626   -8.7771   -1.8550 N   0  0  0  0  0  0  0  0  0  0  0  0
    3.7023   -9.9118   -1.6832 C   0  0  0  0  0  0  0  0  0  0  0  0
    3.7164  -10.6716   -0.5171 C   0  0  0  0  0  0  0  0  0  0  0  0
    2.8436  -10.3198    0.6124 C   0  0  0  0  0  0  0  0  0  0  0  0
    4.5481  -11.7654   -0.4018 C   0  0  0  0  0  0  0  0  0  0  0  0
    5.3577  -12.0818   -1.4642 C   0  0  0  0  0  0  0  0  0  0  0  0
    5.3533  -11.3518   -2.6019 N   0  0  0  0  0  0  0  0  0  0  0  0
    4.5344  -10.2720   -2.7197 C   0  0  0  0  0  0  0  0  0  0  0  0
    4.6230   -9.5447   -4.0115 C   0  0  1  0  0  0  0  0  0  0  0  0
    6.0886   -9.3774   -4.4347 C   0  0  0  0  0  0  0  0  0  0  0  0
    3.8427  -10.2535   -5.0982 C   0  0  0  0  0  0  0  0  0  0  0  0
    3.4108   -7.5319   -1.7633 C   0  0  0  0  0  0  0  0  0  0  0  0
    4.7579   -7.4577   -1.5168 N   0  0  0  0  0  0  0  0  0  0  0  0
    2.6478   -6.4023   -1.9063 C   0  0  0  0  0  0  0  0  0  0  0  0
    3.2778   -5.1661   -1.7933 C   0  0  0  0  0  0  0  0  0  0  0  0
    4.6318   -5.1530   -1.5452 C   0  0  0  0  0  0  0  0  0  0  0  0
    5.2854   -3.9540   -1.4255 F   0  0  0  0  0  0  0  0  0  0  0  0
    5.3978   -6.2864   -1.4023 C   0  0  0  0  0  0  0  0  0  0  0  0
    6.8343   -6.2038   -1.1445 C   0  0  0  0  0  0  0  0  0  0  0  0
    7.3529   -5.7379    0.0677 C   0  0  0  0  0  0  0  0  0  0  0  0
    6.4421   -5.3682    1.0005 F   0  0  0  0  0  0  0  0  0  0  0  0
    8.7100   -5.6674    0.2808 C   0  0  0  0  0  0  0  0  0  0  0  0
    9.6030   -6.0519   -0.6894 C   0  0  0  0  0  0  0  0  0  0  0  0
    9.1121   -6.5238   -1.9159 C   0  0  0  0  0  0  0  0  0  0  0  0
    7.7418   -6.5846   -2.1046 C   0  0  0  0  0  0  0  0  0  0  0  0
    7.2896   -7.0557   -3.3292 O   0  0  0  0  0  0  0  0  0  0  0  0
  2  1  1  1
  2  3  1  0
  2 11  1  0
  3  4  1  0
  4  5  1  0
  4  9  1  0
  5  6  2  0
  5  7  1  0
  7  8  1  0
  9 10  1  0
 10 11  1  0
 11 12  1  0
 12 13  2  0
 12 29  1  0
 13 14  1  0
 14 15  2  0
 14 16  1  0
 16 17  1  0
 16 27  1  0
 17 18  2  0
 17 23  1  0
 18 19  1  0
 18 20  1  0
 20 21  2  0
 21 22  1  0
 22 23  2  0
 23 24  1  0
 24 25  1  6
 24 26  1  0
 27 28  1  0
 27 29  2  0
 28 33  2  0
 29 30  1  0
 30 31  2  0
 31 32  1  0
 31 33  1  0
 33 34  1  0
 34 35  2  0
 34 40  1  0
 35 36  1  0
 35 37  1  0
 37 38  2  0
 38 39  1  0
 39 40  2  0
 40 41  1  0
M  END
$$$$
