
     RDKit          3D

 41 45  0  0  0  0  0  0  0  0999 V2000
    2.9981  -12.2272   -0.3090 C   0  0  0  0  0  0  0  0  0  0  0  0
    1.6606  -11.7418    0.1771 C   0  0  1  0  0  0  0  0  0  0  0  0
    1.6529  -11.8862    1.7034 C   0  0  0  0  0  0  0  0  0  0  0  0
    1.7281  -10.5903    2.3092 N   0  0  0  0  0  0  0  0  0  0  0  0
    2.7505  -10.3189    3.2482 C   0  0  0  0  0  0  0  0  0  0  0  0
    3.8656  -10.8994    3.1164 O   0  0  0  0  0  0  0  0  0  0  0  0
    2.5225   -9.3657    4.3763 C   0  0  0  0  0  0  0  0  0  0  0  0
    3.2509   -8.0835    4.0306 C   0  0  0  0  0  0  0  0  0  0  0  0
    0.7707   -9.5450    1.9870 C   0  0  0  0  0  0  0  0  0  0  0  0
    0.2399   -9.7679    0.5538 C   0  0  0  0  0  0  0  0  0  0  0  0
    1.3978  -10.3768   -0.1315 N   0  0  0  0  0  0  0  0  0  0  0  0
    2.1009   -9.5097   -0.9925 C   0  0  0  0  0  0  0  0  0  0  0  0
    3.2300   -9.9376   -1.6346 N   0  0  0  0  0  0  0  0  0  0  0  0
    3.9350   -9.1567   -2.4606 C   0  0  0  0  0  0  0  0  0  0  0  0
    4.9861   -9.5886   -3.0438 O   0  0  0  0  0  0  0  0  0  0  0  0
    3.5575   -7.8933   -2.7006 N   0  0  0  0  0  0  0  0  0  0  0  0
    4.2809   -7.0200   -3.5586 C   0  0  0  0  0  0  0  0  0  0  0  0
    3.8858   -6.7459   -4.8648 C   0  0  0  0  0  0  0  0  0  0  0  0
    2.6759   -7.3669   -5.4235 C   0  0  0  0  0  0  0  0  0  0  0  0
    4.6215   -5.8887   -5.6556 C   0  0  0  0  0  0  0  0  0  0  0  0
    5.7488   -5.3165   -5.1209 C   0  0  0  0  0  0  0  0  0  0  0  0
    6.1430   -5.5748   -3.8539 N   0  0  0  0  0  0  0  0  0  0  0  0
    5.4202   -6.4199   -3.0706 C   0  0  0  0  0  0  0  0  0  0  0  0
    5.9552   -6.6316   -1.7014 C   0  0  1  0  0  0  0  0  0  0  0  0
    7.3839   -7.1885   -1.7628 C   0  0  0  0  0  0  0  0  0  0  0  0
    5.9274   -5.3512   -0.8941 C   0  0  0  0  0  0  0  0  0  0  0  0
    2.4360   -7.4277   -2.0805 C   0  0  0  0  0  0  0  0  0  0  0  0
    2.0710   -6.1309   -2.3377 N   0  0  0  0  0  0  0  0  0  0  0  0
    1.7068   -8.2196   -1.2321 C   0  0  0  0  0  0  0  0  0  0  0  0
    0.5770   -7.6717   -0.6310 C   0  0  0  0  0  0  0  0  0  0  0  0
    0.2595   -6.3652   -0.9264 C   0  0  0  0  0  0  0  0  0  0  0  0
   -0.8447   -5.7915   -0.3514 F   0  0  0  0  0  0  0  0  0  0  0  0
    0.9907   -5.5704   -1.7782 C   0  0  0  0  0  0  0  0  0  0  0  0
    0.5962   -4.1902   -2.0542 C   0  0  0  0  0  0  0  0  0  0  0  0
    0.7825   -3.1580   -1.1292 C   0  0  0  0  0  0  0  0  0  0  0  0
    1.3583   -3.5101    0.0458 F   0  0  0  0  0  0  0  0  0  0  0  0
    0.3976   -1.8686   -1.4149 C   0  0  0  0  0  0  0  0  0  0  0  0
   -0.1830   -1.5500   -2.6181 C   0  0  0  0  0  0  0  0  0  0  0  0
   -0.3826   -2.5647   -3.5660 C   0  0  0  0  0  0  0  0  0  0  0  0
    0.0137   -3.8540   -3.2534 C   0  0  0  0  0  0  0  0  0  0  0  0
   -0.1983   -4.8339   -4.2129 O   0  0  0  0  0  0  0  0  0  0  0  0
  2  1  1  1
  2  3  1  0
  2 11  1  0
  3  4  1  0
  4  5  1  0
  4  9  1  0
  5  6  2  0
  5  7  1  0
  7  8  1  0
  9 10  1  0
 10 11  1  0
 11 12  1  0
 12 13  2  0
 12 29  1  0
 13 14  1  0
 14 15  2  0
 14 16  1  0
 16 17  1  0
 16 27  1  0
 17 18  2  0
 17 23  1  0
 18 19  1  0
 18 20  1  0
 20 21  2  0
 21 22  1  0
 22 23  2  0
 23 24  1  0
 24 25  1  6
 24 26  1  0
 27 28  1  0
 27 29  2  0
 28 33  2  0
 29 30  1  0
 30 31  2  0
 31 32  1  0
 31 33  1  0
 33 34  1  0
 34 35  2  0
 34 40  1  0
 35 36  1  0
 35 37  1  0
 37 38  2  0
 38 39  1  0
 39 40  2  0
 40 41  1  0
M  END
$$$$
