
     RDKit          3D

 41 45  0  0  0  0  0  0  0  0999 V2000
    2.3720   -5.4805   -1.2815 C   0  0  0  0  0  0  0  0  0  0  0  0
    0.9837   -5.2726   -0.7323 C   0  0  1  0  0  0  0  0  0  0  0  0
    0.2523   -4.2899   -1.5964 C   0  0  0  0  0  0  0  0  0  0  0  0
   -1.1133   -4.1982   -1.1562 N   0  0  0  0  0  0  0  0  0  0  0  0
   -1.7153   -2.9126   -1.0080 C   0  0  0  0  0  0  0  0  0  0  0  0
   -0.9700   -1.9021   -1.0024 O   0  0  0  0  0  0  0  0  0  0  0  0
   -3.1694   -2.6901   -0.8602 C   0  0  0  0  0  0  0  0  0  0  0  0
   -3.9061   -3.3704   -1.9949 C   0  0  0  0  0  0  0  0  0  0  0  0
   -1.9253   -5.3524   -0.8490 C   0  0  0  0  0  0  0  0  0  0  0  0
   -1.1670   -6.5005   -0.3001 C   0  0  0  0  0  0  0  0  0  0  0  0
    0.2546   -6.4844   -0.5401 N   0  0  0  0  0  0  0  0  0  0  0  0
    0.8885   -7.7593   -0.5677 C   0  0  0  0  0  0  0  0  0  0  0  0
    2.2052   -7.8548   -0.9232 N   0  0  0  0  0  0  0  0  0  0  0  0
    2.7908   -9.0582   -0.9806 C   0  0  0  0  0  0  0  0  0  0  0  0
    4.0326   -9.0985   -1.3206 O   0  0  0  0  0  0  0  0  0  0  0  0
    2.0856  -10.1493   -0.6908 N   0  0  0  0  0  0  0  0  0  0  0  0
    2.7325  -11.3995   -0.7600 C   0  0  0  0  0  0  0  0  0  0  0  0
    3.3681  -11.8665    0.3755 C   0  0  0  0  0  0  0  0  0  0  0  0
    3.4094  -11.1338    1.6593 C   0  0  0  0  0  0  0  0  0  0  0  0
    3.9845  -13.0955    0.2481 C   0  0  0  0  0  0  0  0  0  0  0  0
    3.9529  -13.7886   -0.9426 C   0  0  0  0  0  0  0  0  0  0  0  0
    3.3126  -13.2624   -1.9988 N   0  0  0  0  0  0  0  0  0  0  0  0
    2.6829  -12.0690   -1.9664 C   0  0  0  0  0  0  0  0  0  0  0  0
    2.0001  -11.5544   -3.1634 C   0  0  1  0  0  0  0  0  0  0  0  0
    3.0568  -11.2016   -4.1943 C   0  0  0  0  0  0  0  0  0  0  0  0
    1.1331  -12.6186   -3.8391 C   0  0  0  0  0  0  0  0  0  0  0  0
    0.7941  -10.1052   -0.3371 C   0  0  0  0  0  0  0  0  0  0  0  0
    0.0972  -11.2533   -0.0336 N   0  0  0  0  0  0  0  0  0  0  0  0
    0.1616   -8.8802   -0.2685 C   0  0  0  0  0  0  0  0  0  0  0  0
   -1.1564   -8.8834    0.1092 C   0  0  0  0  0  0  0  0  0  0  0  0
   -1.8431  -10.0643    0.4128 C   0  0  0  0  0  0  0  0  0  0  0  0
   -3.1491  -10.0203    0.7818 F   0  0  0  0  0  0  0  0  0  0  0  0
   -1.1779  -11.2681    0.3321 C   0  0  0  0  0  0  0  0  0  0  0  0
   -1.8713  -12.5275    0.6475 C   0  0  0  0  0  0  0  0  0  0  0  0
   -1.1998  -13.5924    1.2095 C   0  0  0  0  0  0  0  0  0  0  0  0
    0.1235  -13.4519    1.4691 F   0  0  0  0  0  0  0  0  0  0  0  0
   -1.8563  -14.7821    1.5059 C   0  0  0  0  0  0  0  0  0  0  0  0
   -3.2017  -14.9031    1.2345 C   0  0  0  0  0  0  0  0  0  0  0  0
   -3.9048  -13.8529    0.6707 C   0  0  0  0  0  0  0  0  0  0  0  0
   -3.2182  -12.6906    0.3917 C   0  0  0  0  0  0  0  0  0  0  0  0
   -3.9317  -11.6450   -0.1732 O   0  0  0  0  0  0  0  0  0  0  0  0
  1  2  1  6
  2  3  1  0
  2 11  1  6
  3  4  1  6
  4  5  1  0
  9  4  1  1
  5  6  2  0
  7  5  1  1
  8  7  1  6
  9 10  1  0
 10 11  1  6
 11 12  1  0
 12 13  2  0
 12 29  1  0
 13 14  1  0
 14 15  2  0
 14 16  1  0
 16 17  1  0
 16 27  1  0
 17 18  2  0
 17 23  1  0
 19 18  1  6
 18 20  1  0
 20 21  2  0
 21 22  1  0
 22 23  2  0
 24 23  1  1
 25 24  1  6
 26 24  1  6
 27 28  1  0
 27 29  2  0
 28 33  2  0
 29 30  1  0
 30 31  2  0
 31 32  1  0
 31 33  1  0
 33 34  1  0
 34 35  2  0
 34 40  1  0
 35 36  1  0
 35 37  1  0
 37 38  2  0
 38 39  1  0
 39 40  2  0
 40 41  1  0
M  END
$$$$
