
     RDKit          3D

 41 45  0  0  0  0  0  0  0  0999 V2000
   -1.3202   -8.5079   -0.3619 C   0  0  0  0  0  0  0  0  0  0  0  0
   -1.1919   -7.1785   -1.0609 C   0  0  1  0  0  0  0  0  0  0  0  0
   -1.8486   -6.1175   -0.2299 C   0  0  0  0  0  0  0  0  0  0  0  0
   -1.6048   -4.8321   -0.8259 N   0  0  0  0  0  0  0  0  0  0  0  0
   -2.6844   -3.9085   -0.9621 C   0  0  0  0  0  0  0  0  0  0  0  0
   -3.7975   -4.2151   -0.4685 O   0  0  0  0  0  0  0  0  0  0  0  0
   -2.5781   -2.6044   -1.6505 C   0  0  0  0  0  0  0  0  0  0  0  0
   -3.3871   -2.6372   -2.9301 C   0  0  0  0  0  0  0  0  0  0  0  0
   -0.3075   -4.4142   -1.3039 C   0  0  0  0  0  0  0  0  0  0  0  0
    0.5304   -5.5166   -1.8303 C   0  0  0  0  0  0  0  0  0  0  0  0
    0.1487   -6.8448   -1.4188 N   0  0  0  0  0  0  0  0  0  0  0  0
    1.1978   -7.8076   -1.3974 C   0  0  0  0  0  0  0  0  0  0  0  0
    0.9000   -9.1380   -1.5006 N   0  0  0  0  0  0  0  0  0  0  0  0
    1.8851  -10.0440   -1.4471 C   0  0  0  0  0  0  0  0  0  0  0  0
    1.5562  -11.2853   -1.5482 O   0  0  0  0  0  0  0  0  0  0  0  0
    3.1444   -9.6407   -1.2944 N   0  0  0  0  0  0  0  0  0  0  0  0
    4.1568  -10.6199   -1.2431 C   0  0  0  0  0  0  0  0  0  0  0  0
    4.3575  -11.2857   -0.0482 C   0  0  0  0  0  0  0  0  0  0  0  0
    3.5732  -11.0332    1.1798 C   0  0  0  0  0  0  0  0  0  0  0  0
    5.3623  -12.2327   -0.0576 C   0  0  0  0  0  0  0  0  0  0  0  0
    6.1001  -12.4777   -1.1954 C   0  0  0  0  0  0  0  0  0  0  0  0
    5.8399  -11.7852   -2.3158 N   0  0  0  0  0  0  0  0  0  0  0  0
    4.8780  -10.8420   -2.3992 C   0  0  0  0  0  0  0  0  0  0  0  0
    4.6479  -10.1226   -3.6615 C   0  0  1  0  0  0  0  0  0  0  0  0
    5.9862   -9.6139   -4.1653 C   0  0  0  0  0  0  0  0  0  0  0  0
    4.1366  -11.0450   -4.7699 C   0  0  0  0  0  0  0  0  0  0  0  0
    3.4846   -8.3490   -1.1896 C   0  0  0  0  0  0  0  0  0  0  0  0
    4.7990   -7.9663   -1.0430 N   0  0  0  0  0  0  0  0  0  0  0  0
    2.4925   -7.3907   -1.2411 C   0  0  0  0  0  0  0  0  0  0  0  0
    2.8891   -6.0819   -1.1417 C   0  0  0  0  0  0  0  0  0  0  0  0
    4.2321   -5.7182   -0.9932 C   0  0  0  0  0  0  0  0  0  0  0  0
    4.5794   -4.4090   -0.8977 F   0  0  0  0  0  0  0  0  0  0  0  0
    5.1938   -6.7036   -0.9452 C   0  0  0  0  0  0  0  0  0  0  0  0
    6.6153   -6.3535   -0.7923 C   0  0  0  0  0  0  0  0  0  0  0  0
    7.5304   -6.6284   -1.7861 C   0  0  0  0  0  0  0  0  0  0  0  0
    7.0882   -7.2313   -2.9172 F   0  0  0  0  0  0  0  0  0  0  0  0
    8.8735   -6.2981   -1.6396 C   0  0  0  0  0  0  0  0  0  0  0  0
    9.3014   -5.6851   -0.4820 C   0  0  0  0  0  0  0  0  0  0  0  0
    8.4080   -5.3955    0.5344 C   0  0  0  0  0  0  0  0  0  0  0  0
    7.0857   -5.7388    0.3509 C   0  0  0  0  0  0  0  0  0  0  0  0
    6.1993   -5.4446    1.3753 O   0  0  0  0  0  0  0  0  0  0  0  0
  1  2  1  6
  2  3  1  0
  2 11  1  1
  3  4  1  6
  4  5  1  0
  9  4  1  1
  5  6  2  0
  7  5  1  1
  8  7  1  6
  9 10  1  0
 10 11  1  6
 11 12  1  0
 12 13  2  0
 12 29  1  0
 13 14  1  0
 14 15  2  0
 14 16  1  0
 16 17  1  0
 16 27  1  0
 17 18  2  0
 17 23  1  0
 19 18  1  6
 18 20  1  0
 20 21  2  0
 21 22  1  0
 22 23  2  0
 24 23  1  1
 25 24  1  6
 26 24  1  6
 27 28  1  0
 27 29  2  0
 28 33  2  0
 29 30  1  0
 30 31  2  0
 31 32  1  0
 31 33  1  0
 33 34  1  0
 34 35  2  0
 34 40  1  0
 35 36  1  0
 35 37  1  0
 37 38  2  0
 38 39  1  0
 39 40  2  0
 40 41  1  0
M  END
$$$$
