
     RDKit          3D

 41 45  0  0  0  0  0  0  0  0999 V2000
   -1.6426   -7.8516   -1.2404 C   0  0  0  0  0  0  0  0  0  0  0  0
   -1.2721   -6.4057   -1.4512 C   0  0  1  0  0  0  0  0  0  0  0  0
   -1.9500   -5.5650   -0.4116 C   0  0  0  0  0  0  0  0  0  0  0  0
   -1.4874   -4.2085   -0.5254 N   0  0  0  0  0  0  0  0  0  0  0  0
   -2.4348   -3.1415   -0.4904 C   0  0  0  0  0  0  0  0  0  0  0  0
   -3.6469   -3.4251   -0.3269 O   0  0  0  0  0  0  0  0  0  0  0  0
   -2.0806   -1.7133   -0.6344 C   0  0  0  0  0  0  0  0  0  0  0  0
   -2.7944   -1.1307   -1.8361 C   0  0  0  0  0  0  0  0  0  0  0  0
   -0.0947   -3.8570   -0.6765 C   0  0  0  0  0  0  0  0  0  0  0  0
    0.7070   -4.8557   -1.4210 C   0  0  0  0  0  0  0  0  0  0  0  0
    0.1352   -6.1763   -1.5113 N   0  0  0  0  0  0  0  0  0  0  0  0
    1.0676   -7.2409   -1.6705 C   0  0  0  0  0  0  0  0  0  0  0  0
    0.6209   -8.4907   -1.9985 N   0  0  0  0  0  0  0  0  0  0  0  0
    1.4960   -9.4981   -2.1154 C   0  0  0  0  0  0  0  0  0  0  0  0
    1.0285  -10.6577   -2.4255 O   0  0  0  0  0  0  0  0  0  0  0  0
    2.7919   -9.2729   -1.9115 N   0  0  0  0  0  0  0  0  0  0  0  0
    3.6858  -10.3545   -2.0435 C   0  0  0  0  0  0  0  0  0  0  0  0
    3.9375  -11.1300   -0.9271 C   0  0  0  0  0  0  0  0  0  0  0  0
    3.3246  -10.8939    0.3979 C   0  0  0  0  0  0  0  0  0  0  0  0
    4.8209  -12.1742   -1.1162 C   0  0  0  0  0  0  0  0  0  0  0  0
    5.3985  -12.4052   -2.3459 C   0  0  0  0  0  0  0  0  0  0  0  0
    5.0992  -11.6028   -3.3798 N   0  0  0  0  0  0  0  0  0  0  0  0
    4.2476  -10.5596   -3.2879 C   0  0  0  0  0  0  0  0  0  0  0  0
    3.9656   -9.7224   -4.4642 C   0  0  1  0  0  0  0  0  0  0  0  0
    5.2843   -9.1792   -4.9836 C   0  0  0  0  0  0  0  0  0  0  0  0
    3.3896  -10.5321   -5.6275 C   0  0  0  0  0  0  0  0  0  0  0  0
    3.2763   -8.0659   -1.5891 C   0  0  0  0  0  0  0  0  0  0  0  0
    4.6247   -7.8660   -1.3955 N   0  0  0  0  0  0  0  0  0  0  0  0
    2.4002   -7.0070   -1.4611 C   0  0  0  0  0  0  0  0  0  0  0  0
    2.9426   -5.7888   -1.1418 C   0  0  0  0  0  0  0  0  0  0  0  0
    4.3173   -5.6111   -0.9500 C   0  0  0  0  0  0  0  0  0  0  0  0
    4.8108   -4.3863   -0.6338 F   0  0  0  0  0  0  0  0  0  0  0  0
    5.1601   -6.6924   -1.0857 C   0  0  0  0  0  0  0  0  0  0  0  0
    6.6111   -6.5377   -0.8930 C   0  0  0  0  0  0  0  0  0  0  0  0
    7.1548   -6.4008    0.3665 C   0  0  0  0  0  0  0  0  0  0  0  0
    6.3167   -6.4139    1.4323 F   0  0  0  0  0  0  0  0  0  0  0  0
    8.5259   -6.2535    0.5468 C   0  0  0  0  0  0  0  0  0  0  0  0
    9.3596   -6.2436   -0.5503 C   0  0  0  0  0  0  0  0  0  0  0  0
    8.8455   -6.3789   -1.8280 C   0  0  0  0  0  0  0  0  0  0  0  0
    7.4814   -6.5225   -1.9647 C   0  0  0  0  0  0  0  0  0  0  0  0
    6.9768   -6.6569   -3.2487 O   0  0  0  0  0  0  0  0  0  0  0  0
  1  2  1  6
  2  3  1  0
  2 11  1  1
  3  4  1  6
  4  5  1  0
  9  4  1  1
  5  6  2  0
  7  5  1  1
  8  7  1  6
  9 10  1  0
 10 11  1  6
 11 12  1  0
 12 13  2  0
 12 29  1  0
 13 14  1  0
 14 15  2  0
 14 16  1  0
 16 17  1  0
 16 27  1  0
 17 18  2  0
 17 23  1  0
 19 18  1  6
 18 20  1  0
 20 21  2  0
 21 22  1  0
 22 23  2  0
 24 23  1  1
 25 24  1  6
 26 24  1  6
 27 28  1  0
 27 29  2  0
 28 33  2  0
 29 30  1  0
 30 31  2  0
 31 32  1  0
 31 33  1  0
 33 34  1  0
 34 35  2  0
 34 40  1  0
 35 36  1  0
 35 37  1  0
 37 38  2  0
 38 39  1  0
 39 40  2  0
 40 41  1  0
M  END
$$$$
