
     RDKit          3D

 41 45  0  0  0  0  0  0  0  0999 V2000
   -1.6314   -6.4121   -1.8663 C   0  0  0  0  0  0  0  0  0  0  0  0
   -0.9782   -6.4392   -0.5123 C   0  0  1  0  0  0  0  0  0  0  0  0
   -1.5670   -7.6310    0.2516 C   0  0  0  0  0  0  0  0  0  0  0  0
   -0.5814   -8.6645    0.3633 N   0  0  0  0  0  0  0  0  0  0  0  0
   -0.8857   -9.9688   -0.0914 C   0  0  0  0  0  0  0  0  0  0  0  0
    0.0315  -10.8386   -0.0991 O   0  0  0  0  0  0  0  0  0  0  0  0
   -2.2628  -10.3175   -0.5554 C   0  0  0  0  0  0  0  0  0  0  0  0
   -2.1292  -10.9093   -1.9432 C   0  0  0  0  0  0  0  0  0  0  0  0
    0.7268   -8.4066    0.9422 C   0  0  0  0  0  0  0  0  0  0  0  0
    1.0937   -6.9222    0.7248 C   0  0  0  0  0  0  0  0  0  0  0  0
    0.4348   -6.6084   -0.5592 N   0  0  0  0  0  0  0  0  0  0  0  0
    1.3016   -6.5354   -1.6686 C   0  0  0  0  0  0  0  0  0  0  0  0
    0.8021   -6.3282   -2.9247 N   0  0  0  0  0  0  0  0  0  0  0  0
    1.5789   -6.2517   -4.0110 C   0  0  0  0  0  0  0  0  0  0  0  0
    1.0787   -6.0578   -5.1701 O   0  0  0  0  0  0  0  0  0  0  0  0
    2.9097   -6.3775   -3.9139 N   0  0  0  0  0  0  0  0  0  0  0  0
    3.7761   -6.3180   -5.0400 C   0  0  0  0  0  0  0  0  0  0  0  0
    4.2757   -7.4544   -5.6697 C   0  0  0  0  0  0  0  0  0  0  0  0
    3.9204   -8.7946   -5.1806 C   0  0  0  0  0  0  0  0  0  0  0  0
    5.1111   -7.3423   -6.7609 C   0  0  0  0  0  0  0  0  0  0  0  0
    5.4344   -6.0848   -7.2063 C   0  0  0  0  0  0  0  0  0  0  0  0
    4.9559   -4.9736   -6.6034 N   0  0  0  0  0  0  0  0  0  0  0  0
    4.1316   -5.0797   -5.5265 C   0  0  0  0  0  0  0  0  0  0  0  0
    3.6764   -3.7913   -4.9448 C   0  0  1  0  0  0  0  0  0  0  0  0
    4.8799   -2.9231   -4.5539 C   0  0  0  0  0  0  0  0  0  0  0  0
    2.7790   -3.0392   -5.9045 C   0  0  0  0  0  0  0  0  0  0  0  0
    3.4484   -6.5845   -2.6785 C   0  0  0  0  0  0  0  0  0  0  0  0
    4.8117   -6.7143   -2.6037 N   0  0  0  0  0  0  0  0  0  0  0  0
    2.6612   -6.6647   -1.5593 C   0  0  0  0  0  0  0  0  0  0  0  0
    3.2833   -6.8840   -0.3335 C   0  0  0  0  0  0  0  0  0  0  0  0
    4.6544   -7.0065   -0.3194 C   0  0  0  0  0  0  0  0  0  0  0  0
    5.3012   -7.2253    0.8692 F   0  0  0  0  0  0  0  0  0  0  0  0
    5.4447   -6.9255   -1.4423 C   0  0  0  0  0  0  0  0  0  0  0  0
    6.8979   -7.0592   -1.3585 C   0  0  0  0  0  0  0  0  0  0  0  0
    7.5786   -8.1722   -1.8621 C   0  0  0  0  0  0  0  0  0  0  0  0
    6.8103   -9.1263   -2.4414 F   0  0  0  0  0  0  0  0  0  0  0  0
    8.9471   -8.2729   -1.7656 C   0  0  0  0  0  0  0  0  0  0  0  0
    9.6926   -7.2842   -1.1714 C   0  0  0  0  0  0  0  0  0  0  0  0
    9.0373   -6.1555   -0.6569 C   0  0  0  0  0  0  0  0  0  0  0  0
    7.6592   -6.0790   -0.7669 C   0  0  0  0  0  0  0  0  0  0  0  0
    7.0422   -4.9496   -0.2475 O   0  0  0  0  0  0  0  0  0  0  0  0
  2  1  1  6
  2  3  1  0
  2 11  1  0
  3  4  1  0
  4  5  1  0
  4  9  1  0
  5  6  2  0
  5  7  1  0
  7  8  1  0
  9 10  1  0
 10 11  1  0
 11 12  1  0
 12 13  2  0
 12 29  1  0
 13 14  1  0
 14 15  2  0
 14 16  1  0
 16 17  1  0
 16 27  1  0
 17 18  2  0
 17 23  1  0
 18 19  1  0
 18 20  1  0
 20 21  2  0
 21 22  1  0
 22 23  2  0
 23 24  1  0
 24 25  1  6
 24 26  1  0
 27 28  1  0
 27 29  2  0
 28 33  2  0
 29 30  1  0
 30 31  2  0
 31 32  1  0
 31 33  1  0
 33 34  1  0
 34 35  2  0
 34 40  1  0
 35 36  1  0
 35 37  1  0
 37 38  2  0
 38 39  1  0
 39 40  2  0
 40 41  1  0
M  END
$$$$
