
     RDKit          3D

 41 45  0  0  0  0  0  0  0  0999 V2000
    3.0257  -11.7616   -4.5213 C   0  0  0  0  0  0  0  0  0  0  0  0
    4.3113  -11.9573   -3.7664 C   0  0  1  0  0  0  0  0  0  0  0  0
    5.4146  -12.1963   -4.8038 C   0  0  0  0  0  0  0  0  0  0  0  0
    6.2686  -11.0482   -4.8703 N   0  0  0  0  0  0  0  0  0  0  0  0
    6.4902  -10.4166   -6.1163 C   0  0  0  0  0  0  0  0  0  0  0  0
    5.6097  -10.5245   -7.0169 O   0  0  0  0  0  0  0  0  0  0  0  0
    7.7392   -9.6360   -6.3691 C   0  0  0  0  0  0  0  0  0  0  0  0
    8.6314  -10.4931   -7.2428 C   0  0  0  0  0  0  0  0  0  0  0  0
    6.9221  -10.5184   -3.6848 C   0  0  0  0  0  0  0  0  0  0  0  0
    6.0677  -10.8534   -2.4425 C   0  0  0  0  0  0  0  0  0  0  0  0
    4.6917  -10.8340   -2.9785 N   0  0  0  0  0  0  0  0  0  0  0  0
    3.9421   -9.6868   -2.6472 C   0  0  0  0  0  0  0  0  0  0  0  0
    2.5803   -9.6902   -2.7716 N   0  0  0  0  0  0  0  0  0  0  0  0
    1.8217   -8.6299   -2.4724 C   0  0  0  0  0  0  0  0  0  0  0  0
    0.5515   -8.6673   -2.6010 O   0  0  0  0  0  0  0  0  0  0  0  0
    2.3750   -7.4930   -2.0279 N   0  0  0  0  0  0  0  0  0  0  0  0
    1.6132   -6.3350   -1.7104 C   0  0  0  0  0  0  0  0  0  0  0  0
    1.3532   -5.3255   -2.6327 C   0  0  0  0  0  0  0  0  0  0  0  0
    1.8719   -5.4181   -4.0052 C   0  0  0  0  0  0  0  0  0  0  0  0
    0.6061   -4.2231   -2.2751 C   0  0  0  0  0  0  0  0  0  0  0  0
    0.1285   -4.1499   -0.9902 C   0  0  0  0  0  0  0  0  0  0  0  0
    0.3742   -5.1236   -0.0853 N   0  0  0  0  0  0  0  0  0  0  0  0
    1.1110   -6.2127   -0.4340 C   0  0  0  0  0  0  0  0  0  0  0  0
    1.3205   -7.2108    0.6456 C   0  0  1  0  0  0  0  0  0  0  0  0
    2.1586   -6.6070    1.7805 C   0  0  0  0  0  0  0  0  0  0  0  0
    0.0026   -7.7246    1.1852 C   0  0  0  0  0  0  0  0  0  0  0  0
    3.7307   -7.4483   -1.8888 C   0  0  0  0  0  0  0  0  0  0  0  0
    4.2751   -6.2736   -1.4364 N   0  0  0  0  0  0  0  0  0  0  0  0
    4.5169   -8.5291   -2.1929 C   0  0  0  0  0  0  0  0  0  0  0  0
    5.8940   -8.4053   -2.0313 C   0  0  0  0  0  0  0  0  0  0  0  0
    6.3837   -7.2027   -1.5741 C   0  0  0  0  0  0  0  0  0  0  0  0
    7.7347   -7.0435   -1.4050 F   0  0  0  0  0  0  0  0  0  0  0  0
    5.5950   -6.1182   -1.2683 C   0  0  0  0  0  0  0  0  0  0  0  0
    6.1780   -4.8692   -0.7815 C   0  0  0  0  0  0  0  0  0  0  0  0
    7.4476   -4.4321   -1.1723 C   0  0  0  0  0  0  0  0  0  0  0  0
    8.1117   -5.2350   -2.0387 F   0  0  0  0  0  0  0  0  0  0  0  0
    7.9726   -3.2538   -0.6946 C   0  0  0  0  0  0  0  0  0  0  0  0
    7.2686   -2.4657    0.1827 C   0  0  0  0  0  0  0  0  0  0  0  0
    5.9921   -2.8785    0.5927 C   0  0  0  0  0  0  0  0  0  0  0  0
    5.4869   -4.0686    0.0970 C   0  0  0  0  0  0  0  0  0  0  0  0
    4.2218   -4.4480    0.5229 O   0  0  0  0  0  0  0  0  0  0  0  0
  2  1  1  6
  2  3  1  0
  2 11  1  0
  3  4  1  0
  4  5  1  0
  4  9  1  0
  5  6  2  0
  5  7  1  0
  7  8  1  0
  9 10  1  0
 10 11  1  0
 11 12  1  0
 12 13  2  0
 12 29  1  0
 13 14  1  0
 14 15  2  0
 14 16  1  0
 16 17  1  0
 16 27  1  0
 17 18  2  0
 17 23  1  0
 18 19  1  0
 18 20  1  0
 20 21  2  0
 21 22  1  0
 22 23  2  0
 23 24  1  0
 24 25  1  1
 24 26  1  0
 27 28  1  0
 27 29  2  0
 28 33  2  0
 29 30  1  0
 30 31  2  0
 31 32  1  0
 31 33  1  0
 33 34  1  0
 34 35  2  0
 34 40  1  0
 35 36  1  0
 35 37  1  0
 37 38  2  0
 38 39  1  0
 39 40  2  0
 40 41  1  0
M  END
$$$$
