
     RDKit          3D

 41 45  0  0  0  0  0  0  0  0999 V2000
   -0.8439   -8.0821   -2.1675 C   0  0  0  0  0  0  0  0  0  0  0  0
   -0.6201   -6.6020   -1.9900 C   0  0  1  0  0  0  0  0  0  0  0  0
   -1.4218   -6.1175   -0.8197 C   0  0  0  0  0  0  0  0  0  0  0  0
   -1.1007   -4.7396   -0.5647 N   0  0  0  0  0  0  0  0  0  0  0  0
   -2.1558   -3.8082   -0.3267 C   0  0  0  0  0  0  0  0  0  0  0  0
   -3.3408   -4.2139   -0.4153 O   0  0  0  0  0  0  0  0  0  0  0  0
   -1.9444   -2.3868    0.0206 C   0  0  0  0  0  0  0  0  0  0  0  0
   -3.2180   -1.8104    0.6026 C   0  0  0  0  0  0  0  0  0  0  0  0
    0.2519   -4.2341   -0.5358 C   0  0  0  0  0  0  0  0  0  0  0  0
    1.1821   -4.9338   -1.4521 C   0  0  0  0  0  0  0  0  0  0  0  0
    0.7565   -6.2357   -1.9024 N   0  0  0  0  0  0  0  0  0  0  0  0
    1.8012   -7.1347   -2.2608 C   0  0  0  0  0  0  0  0  0  0  0  0
    1.5117   -8.2567   -2.9864 N   0  0  0  0  0  0  0  0  0  0  0  0
    2.4904   -9.1180   -3.2943 C   0  0  0  0  0  0  0  0  0  0  0  0
    2.1697  -10.1610   -3.9788 O   0  0  0  0  0  0  0  0  0  0  0  0
    3.7352   -8.8732   -2.8914 N   0  0  0  0  0  0  0  0  0  0  0  0
    4.7411   -9.7992   -3.2332 C   0  0  0  0  0  0  0  0  0  0  0  0
    5.5254   -9.5287   -4.3392 C   0  0  0  0  0  0  0  0  0  0  0  0
    5.3732   -8.3253   -5.1851 C   0  0  0  0  0  0  0  0  0  0  0  0
    6.4932  -10.4708   -4.6257 C   0  0  0  0  0  0  0  0  0  0  0  0
    6.6455  -11.5962   -3.8452 C   0  0  0  0  0  0  0  0  0  0  0  0
    5.8404  -11.7827   -2.7870 N   0  0  0  0  0  0  0  0  0  0  0  0
    4.8684  -10.9161   -2.4318 C   0  0  0  0  0  0  0  0  0  0  0  0
    4.0235  -11.1851   -1.2580 C   0  0  1  0  0  0  0  0  0  0  0  0
    3.4474  -12.5820   -1.4015 C   0  0  0  0  0  0  0  0  0  0  0  0
    4.8309  -11.2255    0.0408 C   0  0  0  0  0  0  0  0  0  0  0  0
    4.0668   -7.7877   -2.1795 C   0  0  0  0  0  0  0  0  0  0  0  0
    5.3670   -7.5602   -1.7879 N   0  0  0  0  0  0  0  0  0  0  0  0
    3.0811   -6.8807   -1.8461 C   0  0  0  0  0  0  0  0  0  0  0  0
    3.4693   -5.7794   -1.1275 C   0  0  0  0  0  0  0  0  0  0  0  0
    4.7980   -5.5707   -0.7412 C   0  0  0  0  0  0  0  0  0  0  0  0
    5.1374   -4.4656   -0.0290 F   0  0  0  0  0  0  0  0  0  0  0  0
    5.7536   -6.4989   -1.0921 C   0  0  0  0  0  0  0  0  0  0  0  0
    7.1602   -6.3070   -0.7032 C   0  0  0  0  0  0  0  0  0  0  0  0
    7.5310   -6.2245    0.6221 C   0  0  0  0  0  0  0  0  0  0  0  0
    6.5638   -6.3270    1.5668 F   0  0  0  0  0  0  0  0  0  0  0  0
    8.8603   -6.0419    0.9878 C   0  0  0  0  0  0  0  0  0  0  0  0
    9.8273   -5.9410    0.0114 C   0  0  0  0  0  0  0  0  0  0  0  0
    9.4881   -6.0198   -1.3280 C   0  0  0  0  0  0  0  0  0  0  0  0
    8.1600   -6.2010   -1.6494 C   0  0  0  0  0  0  0  0  0  0  0  0
    7.8310   -6.2782   -2.9938 O   0  0  0  0  0  0  0  0  0  0  0  0
  1  2  1  6
  2  3  1  0
  2 11  1  1
  3  4  1  6
  4  5  1  0
  9  4  1  1
  5  6  2  0
  7  5  1  1
  8  7  1  6
  9 10  1  0
 10 11  1  6
 11 12  1  0
 12 13  2  0
 12 29  1  0
 13 14  1  0
 14 15  2  0
 14 16  1  0
 16 17  1  0
 16 27  1  0
 17 18  2  0
 17 23  1  0
 19 18  1  6
 18 20  1  0
 20 21  2  0
 21 22  1  0
 22 23  2  0
 24 23  1  6
 25 24  1  6
 26 24  1  6
 27 28  1  0
 27 29  2  0
 28 33  2  0
 29 30  1  0
 30 31  2  0
 31 32  1  0
 31 33  1  0
 33 34  1  0
 34 35  2  0
 34 40  1  0
 35 36  1  0
 35 37  1  0
 37 38  2  0
 38 39  1  0
 39 40  2  0
 40 41  1  0
M  END
$$$$
