
     RDKit          3D

 41 45  0  0  0  0  0  0  0  0999 V2000
   -2.4405   -7.7068   -0.1923 C   0  0  0  0  0  0  0  0  0  0  0  0
   -2.0693   -6.5780   -1.1198 C   0  0  1  0  0  0  0  0  0  0  0  0
   -2.7110   -5.3115   -0.6388 C   0  0  0  0  0  0  0  0  0  0  0  0
   -2.2452   -4.2120   -1.4394 N   0  0  0  0  0  0  0  0  0  0  0  0
   -3.1856   -3.2576   -1.9314 C   0  0  0  0  0  0  0  0  0  0  0  0
   -4.3813   -3.3524   -1.5601 O   0  0  0  0  0  0  0  0  0  0  0  0
   -2.8424   -2.1559   -2.8556 C   0  0  0  0  0  0  0  0  0  0  0  0
   -3.8197   -2.1389   -4.0122 C   0  0  0  0  0  0  0  0  0  0  0  0
   -0.8560   -4.0144   -1.7816 C   0  0  0  0  0  0  0  0  0  0  0  0
   -0.0824   -5.2688   -1.9312 C   0  0  0  0  0  0  0  0  0  0  0  0
   -0.6633   -6.4393   -1.3217 N   0  0  0  0  0  0  0  0  0  0  0  0
    0.2584   -7.4546   -0.9375 C   0  0  0  0  0  0  0  0  0  0  0  0
   -0.1576   -8.4802   -0.1348 N   0  0  0  0  0  0  0  0  0  0  0  0
    0.7187   -9.4164    0.2525 C   0  0  0  0  0  0  0  0  0  0  0  0
    0.2809  -10.3628    1.0087 O   0  0  0  0  0  0  0  0  0  0  0  0
    1.9858   -9.3396   -0.1479 N   0  0  0  0  0  0  0  0  0  0  0  0
    2.8814  -10.3414    0.2768 C   0  0  0  0  0  0  0  0  0  0  0  0
    3.7265  -10.0532    1.3324 C   0  0  0  0  0  0  0  0  0  0  0  0
    3.7469   -8.7569    2.0438 C   0  0  0  0  0  0  0  0  0  0  0  0
    4.5814  -11.0718    1.7040 C   0  0  0  0  0  0  0  0  0  0  0  0
    4.5720  -12.2844    1.0495 C   0  0  0  0  0  0  0  0  0  0  0  0
    3.7180  -12.4820    0.0325 N   0  0  0  0  0  0  0  0  0  0  0  0
    2.8475  -11.5449   -0.3988 C   0  0  0  0  0  0  0  0  0  0  0  0
    1.9394  -11.8318   -1.5199 C   0  0  1  0  0  0  0  0  0  0  0  0
    2.7807  -12.0549   -2.7634 C   0  0  0  0  0  0  0  0  0  0  0  0
    1.1730  -13.1415   -1.3249 C   0  0  0  0  0  0  0  0  0  0  0  0
    2.4392   -8.3544   -0.9347 C   0  0  0  0  0  0  0  0  0  0  0  0
    3.7547   -8.3114   -1.3388 N   0  0  0  0  0  0  0  0  0  0  0  0
    1.5610   -7.3742   -1.3511 C   0  0  0  0  0  0  0  0  0  0  0  0
    2.0672   -6.3933   -2.1645 C   0  0  0  0  0  0  0  0  0  0  0  0
    3.4088   -6.3716   -2.5616 C   0  0  0  0  0  0  0  0  0  0  0  0
    3.8674   -5.3798   -3.3677 F   0  0  0  0  0  0  0  0  0  0  0  0
    4.2552   -7.3670   -2.1247 C   0  0  0  0  0  0  0  0  0  0  0  0
    5.6711   -7.3739   -2.5269 C   0  0  0  0  0  0  0  0  0  0  0  0
    6.6663   -7.0054   -1.6469 C   0  0  0  0  0  0  0  0  0  0  0  0
    6.3093   -6.6354   -0.3923 F   0  0  0  0  0  0  0  0  0  0  0  0
    8.0036   -7.0113   -2.0289 C   0  0  0  0  0  0  0  0  0  0  0  0
    8.3444   -7.3915   -3.3087 C   0  0  0  0  0  0  0  0  0  0  0  0
    7.3693   -7.7672   -4.2161 C   0  0  0  0  0  0  0  0  0  0  0  0
    6.0556   -7.7479   -3.7991 C   0  0  0  0  0  0  0  0  0  0  0  0
    5.0868   -8.1256   -4.7157 O   0  0  0  0  0  0  0  0  0  0  0  0
  1  2  1  6
  2  3  1  0
  2 11  1  1
  3  4  1  6
  4  5  1  0
  9  4  1  1
  5  6  2  0
  7  5  1  1
  8  7  1  6
  9 10  1  0
 10 11  1  6
 11 12  1  0
 12 13  2  0
 12 29  1  0
 13 14  1  0
 14 15  2  0
 14 16  1  0
 16 17  1  0
 16 27  1  0
 17 18  2  0
 17 23  1  0
 19 18  1  6
 18 20  1  0
 20 21  2  0
 21 22  1  0
 22 23  2  0
 24 23  1  1
 25 24  1  6
 26 24  1  6
 27 28  1  0
 27 29  2  0
 28 33  2  0
 29 30  1  0
 30 31  2  0
 31 32  1  0
 31 33  1  0
 33 34  1  0
 34 35  2  0
 34 40  1  0
 35 36  1  0
 35 37  1  0
 37 38  2  0
 38 39  1  0
 39 40  2  0
 40 41  1  0
M  END
$$$$
