
     RDKit          3D

 41 45  0  0  0  0  0  0  0  0999 V2000
   -1.6209   -9.0820   -0.4796 C   0  0  0  0  0  0  0  0  0  0  0  0
   -0.6487  -10.1355   -0.0263 C   0  0  1  0  0  0  0  0  0  0  0  0
   -1.1330  -11.4745   -0.5949 C   0  0  0  0  0  0  0  0  0  0  0  0
   -0.2546  -11.8967   -1.6447 N   0  0  0  0  0  0  0  0  0  0  0  0
   -0.7877  -12.1976   -2.9198 C   0  0  0  0  0  0  0  0  0  0  0  0
   -1.8377  -11.6020   -3.2949 O   0  0  0  0  0  0  0  0  0  0  0  0
   -0.1272  -13.1995   -3.8103 C   0  0  0  0  0  0  0  0  0  0  0  0
   -1.1861  -14.2050   -4.2126 C   0  0  0  0  0  0  0  0  0  0  0  0
    1.1766  -12.0315   -1.4289 C   0  0  0  0  0  0  0  0  0  0  0  0
    1.6151  -11.0569   -0.3137 C   0  0  0  0  0  0  0  0  0  0  0  0
    0.6826   -9.9247   -0.4853 N   0  0  0  0  0  0  0  0  0  0  0  0
    1.2396   -8.7854   -1.1013 C   0  0  0  0  0  0  0  0  0  0  0  0
    0.4296   -7.8210   -1.6342 N   0  0  0  0  0  0  0  0  0  0  0  0
    0.9050   -6.7220   -2.2301 C   0  0  0  0  0  0  0  0  0  0  0  0
    0.1194   -5.8410   -2.7180 O   0  0  0  0  0  0  0  0  0  0  0  0
    2.2249   -6.5131   -2.3333 N   0  0  0  0  0  0  0  0  0  0  0  0
    2.7791   -5.3686   -2.9699 C   0  0  0  0  0  0  0  0  0  0  0  0
    2.8826   -4.1308   -2.3420 C   0  0  0  0  0  0  0  0  0  0  0  0
    2.4081   -3.9531   -0.9619 C   0  0  0  0  0  0  0  0  0  0  0  0
    3.4310   -3.0519   -3.0029 C   0  0  0  0  0  0  0  0  0  0  0  0
    3.8695   -3.2325   -4.2910 C   0  0  0  0  0  0  0  0  0  0  0  0
    3.7744   -4.4295   -4.9119 N   0  0  0  0  0  0  0  0  0  0  0  0
    3.2339   -5.4963   -4.2635 C   0  0  0  0  0  0  0  0  0  0  0  0
    3.1758   -6.7551   -5.0493 C   0  0  1  0  0  0  0  0  0  0  0  0
    2.0467   -6.6896   -6.0865 C   0  0  0  0  0  0  0  0  0  0  0  0
    4.4966   -7.0410   -5.7316 C   0  0  0  0  0  0  0  0  0  0  0  0
    3.0676   -7.4507   -1.8138 C   0  0  0  0  0  0  0  0  0  0  0  0
    4.4139   -7.2180   -1.9346 N   0  0  0  0  0  0  0  0  0  0  0  0
    2.5905   -8.5804   -1.2015 C   0  0  0  0  0  0  0  0  0  0  0  0
    3.5128   -9.4952   -0.7012 C   0  0  0  0  0  0  0  0  0  0  0  0
    4.8509   -9.2089   -0.8512 C   0  0  0  0  0  0  0  0  0  0  0  0
    5.7879  -10.0877   -0.3729 F   0  0  0  0  0  0  0  0  0  0  0  0
    5.3300   -8.0751   -1.4651 C   0  0  0  0  0  0  0  0  0  0  0  0
    6.7655   -7.8276   -1.5877 C   0  0  0  0  0  0  0  0  0  0  0  0
    7.6096   -7.7448   -0.4758 C   0  0  0  0  0  0  0  0  0  0  0  0
    7.0190   -7.9129    0.7322 F   0  0  0  0  0  0  0  0  0  0  0  0
    8.9566   -7.5068   -0.6212 C   0  0  0  0  0  0  0  0  0  0  0  0
    9.5194   -7.3421   -1.8633 C   0  0  0  0  0  0  0  0  0  0  0  0
    8.6974   -7.4199   -2.9973 C   0  0  0  0  0  0  0  0  0  0  0  0
    7.3450   -7.6604   -2.8232 C   0  0  0  0  0  0  0  0  0  0  0  0
    6.5601   -7.7310   -3.9655 O   0  0  0  0  0  0  0  0  0  0  0  0
  2  1  1  6
  2  3  1  0
  2 11  1  0
  3  4  1  0
  4  5  1  0
  4  9  1  0
  5  6  2  0
  5  7  1  0
  7  8  1  0
  9 10  1  0
 10 11  1  0
 11 12  1  0
 12 13  2  0
 12 29  1  0
 13 14  1  0
 14 15  2  0
 14 16  1  0
 16 17  1  0
 16 27  1  0
 17 18  2  0
 17 23  1  0
 18 19  1  0
 18 20  1  0
 20 21  2  0
 21 22  1  0
 22 23  2  0
 23 24  1  0
 24 25  1  6
 24 26  1  0
 27 28  1  0
 27 29  2  0
 28 33  2  0
 29 30  1  0
 30 31  2  0
 31 32  1  0
 31 33  1  0
 33 34  1  0
 34 35  2  0
 34 40  1  0
 35 36  1  0
 35 37  1  0
 37 38  2  0
 38 39  1  0
 39 40  2  0
 40 41  1  0
M  END
$$$$
