
     RDKit          3D

 41 45  0  0  0  0  0  0  0  0999 V2000
    0.8913   -7.5640    1.2247 C   0  0  0  0  0  0  0  0  0  0  0  0
    0.1292   -7.6129   -0.0706 C   0  0  1  0  0  0  0  0  0  0  0  0
   -0.9496   -6.5256   -0.0034 C   0  0  0  0  0  0  0  0  0  0  0  0
   -0.6030   -5.4497   -0.8833 N   0  0  0  0  0  0  0  0  0  0  0  0
   -0.5279   -4.1317   -0.3756 C   0  0  0  0  0  0  0  0  0  0  0  0
    0.3478   -3.3496   -0.8439 O   0  0  0  0  0  0  0  0  0  0  0  0
   -1.4627   -3.6673    0.6939 C   0  0  0  0  0  0  0  0  0  0  0  0
   -2.8667   -3.7730    0.1355 C   0  0  0  0  0  0  0  0  0  0  0  0
   -0.3330   -5.6790   -2.2931 C   0  0  0  0  0  0  0  0  0  0  0  0
    0.2010   -7.1162   -2.4798 C   0  0  0  0  0  0  0  0  0  0  0  0
    0.9313   -7.3587   -1.2192 N   0  0  0  0  0  0  0  0  0  0  0  0
    2.3354   -7.2880   -1.3239 C   0  0  0  0  0  0  0  0  0  0  0  0
    3.1249   -7.5626   -0.2415 N   0  0  0  0  0  0  0  0  0  0  0  0
    4.4606   -7.5095   -0.2856 C   0  0  0  0  0  0  0  0  0  0  0  0
    5.1679   -7.7717    0.7451 O   0  0  0  0  0  0  0  0  0  0  0  0
    5.0979   -7.1777   -1.4170 N   0  0  0  0  0  0  0  0  0  0  0  0
    6.5143   -7.0935   -1.5103 C   0  0  0  0  0  0  0  0  0  0  0  0
    7.2345   -5.9799   -1.0877 C   0  0  0  0  0  0  0  0  0  0  0  0
    6.5407   -4.8164   -0.5164 C   0  0  0  0  0  0  0  0  0  0  0  0
    8.6087   -5.9493   -1.1976 C   0  0  0  0  0  0  0  0  0  0  0  0
    9.2430   -7.0425   -1.7331 C   0  0  0  0  0  0  0  0  0  0  0  0
    8.5549   -8.1299   -2.1473 N   0  0  0  0  0  0  0  0  0  0  0  0
    7.1992   -8.1641   -2.0407 C   0  0  0  0  0  0  0  0  0  0  0  0
    6.5537   -9.4068   -2.5352 C   0  0  1  0  0  0  0  0  0  0  0  0
    6.6755   -9.5050   -4.0618 C   0  0  0  0  0  0  0  0  0  0  0  0
    7.1508  -10.6357   -1.8830 C   0  0  0  0  0  0  0  0  0  0  0  0
    4.3471   -6.8970   -2.5201 C   0  0  0  0  0  0  0  0  0  0  0  0
    5.0204   -6.5559   -3.6653 N   0  0  0  0  0  0  0  0  0  0  0  0
    2.9779   -6.9482   -2.4853 C   0  0  0  0  0  0  0  0  0  0  0  0
    2.2797   -6.6422   -3.6501 C   0  0  0  0  0  0  0  0  0  0  0  0
    3.0084   -6.3068   -4.7689 C   0  0  0  0  0  0  0  0  0  0  0  0
    2.3547   -5.9972   -5.9333 F   0  0  0  0  0  0  0  0  0  0  0  0
    4.3824   -6.2558   -4.8043 C   0  0  0  0  0  0  0  0  0  0  0  0
    5.0971   -5.8969   -6.0279 C   0  0  0  0  0  0  0  0  0  0  0  0
    5.6749   -4.6374   -6.2166 C   0  0  0  0  0  0  0  0  0  0  0  0
    5.5385   -3.7618   -5.1915 F   0  0  0  0  0  0  0  0  0  0  0  0
    6.3383   -4.3262   -7.3807 C   0  0  0  0  0  0  0  0  0  0  0  0
    6.4564   -5.2412   -8.3982 C   0  0  0  0  0  0  0  0  0  0  0  0
    5.8869   -6.5131   -8.2374 C   0  0  0  0  0  0  0  0  0  0  0  0
    5.2245   -6.8007   -7.0561 C   0  0  0  0  0  0  0  0  0  0  0  0
    4.6724   -8.0677   -6.9295 O   0  0  0  0  0  0  0  0  0  0  0  0
  2  1  1  1
  2  3  1  0
  2 11  1  0
  3  4  1  0
  4  5  1  0
  4  9  1  0
  5  6  2  0
  5  7  1  0
  7  8  1  0
  9 10  1  0
 10 11  1  0
 11 12  1  0
 12 13  2  0
 12 29  1  0
 13 14  1  0
 14 15  2  0
 14 16  1  0
 16 17  1  0
 16 27  1  0
 17 18  2  0
 17 23  1  0
 18 19  1  0
 18 20  1  0
 20 21  2  0
 21 22  1  0
 22 23  2  0
 23 24  1  0
 24 25  1  6
 24 26  1  0
 27 28  1  0
 27 29  2  0
 28 33  2  0
 29 30  1  0
 30 31  2  0
 31 32  1  0
 31 33  1  0
 33 34  1  0
 34 35  2  0
 34 40  1  0
 35 36  1  0
 35 37  1  0
 37 38  2  0
 38 39  1  0
 39 40  2  0
 40 41  1  0
M  END
$$$$
