
     RDKit          3D

 41 45  0  0  0  0  0  0  0  0999 V2000
    0.4260  -11.9344    1.8533 C   0  0  0  0  0  0  0  0  0  0  0  0
    1.6643  -12.3675    1.1185 C   0  0  1  0  0  0  0  0  0  0  0  0
    1.3837  -13.7582    0.5371 C   0  0  0  0  0  0  0  0  0  0  0  0
    1.2374  -13.6641   -0.8847 N   0  0  0  0  0  0  0  0  0  0  0  0
    0.0673  -14.1680   -1.4991 C   0  0  0  0  0  0  0  0  0  0  0  0
   -0.1924  -13.8213   -2.6867 O   0  0  0  0  0  0  0  0  0  0  0  0
   -0.8481  -15.0922   -0.7635 C   0  0  0  0  0  0  0  0  0  0  0  0
   -2.0027  -14.2587   -0.2475 C   0  0  0  0  0  0  0  0  0  0  0  0
    2.2699  -13.0679   -1.7163 C   0  0  0  0  0  0  0  0  0  0  0  0
    3.0506  -12.0256   -0.8859 C   0  0  0  0  0  0  0  0  0  0  0  0
    2.0219  -11.5097    0.0397 N   0  0  0  0  0  0  0  0  0  0  0  0
    1.5182  -10.2335   -0.2847 C   0  0  0  0  0  0  0  0  0  0  0  0
    0.3423   -9.7949    0.2586 N   0  0  0  0  0  0  0  0  0  0  0  0
   -0.1806   -8.5948   -0.0157 C   0  0  0  0  0  0  0  0  0  0  0  0
   -1.2820   -8.2170    0.5092 O   0  0  0  0  0  0  0  0  0  0  0  0
    0.4384   -7.7510   -0.8530 N   0  0  0  0  0  0  0  0  0  0  0  0
   -0.0841   -6.4713   -1.1871 C   0  0  0  0  0  0  0  0  0  0  0  0
   -1.0365   -6.2809   -2.1841 C   0  0  0  0  0  0  0  0  0  0  0  0
   -1.5504   -7.4243   -2.9522 C   0  0  0  0  0  0  0  0  0  0  0  0
   -1.5133   -5.0185   -2.4678 C   0  0  0  0  0  0  0  0  0  0  0  0
   -1.0243   -3.9604   -1.7429 C   0  0  0  0  0  0  0  0  0  0  0  0
   -0.0992   -4.1322   -0.7723 N   0  0  0  0  0  0  0  0  0  0  0  0
    0.3738   -5.3759   -0.4894 C   0  0  0  0  0  0  0  0  0  0  0  0
    1.3916   -5.4385    0.5903 C   0  0  1  0  0  0  0  0  0  0  0  0
    2.6976   -4.7720    0.1372 C   0  0  0  0  0  0  0  0  0  0  0  0
    0.8874   -4.7900    1.8620 C   0  0  0  0  0  0  0  0  0  0  0  0
    1.6146   -8.1498   -1.4158 C   0  0  0  0  0  0  0  0  0  0  0  0
    2.2281   -7.2718   -2.2725 N   0  0  0  0  0  0  0  0  0  0  0  0
    2.1587   -9.3775   -1.1416 C   0  0  0  0  0  0  0  0  0  0  0  0
    3.3592   -9.7164   -1.7594 C   0  0  0  0  0  0  0  0  0  0  0  0
    3.9289   -8.7956   -2.6094 C   0  0  0  0  0  0  0  0  0  0  0  0
    5.1099   -9.0956   -3.2373 F   0  0  0  0  0  0  0  0  0  0  0  0
    3.3835   -7.5632   -2.8844 C   0  0  0  0  0  0  0  0  0  0  0  0
    4.0425   -6.6277   -3.7940 C   0  0  0  0  0  0  0  0  0  0  0  0
    3.7346   -6.5644   -5.1567 C   0  0  0  0  0  0  0  0  0  0  0  0
    2.7798   -7.4226   -5.5904 F   0  0  0  0  0  0  0  0  0  0  0  0
    4.3741   -5.6763   -5.9901 C   0  0  0  0  0  0  0  0  0  0  0  0
    5.3372   -4.8210   -5.5131 C   0  0  0  0  0  0  0  0  0  0  0  0
    5.6671   -4.8615   -4.1503 C   0  0  0  0  0  0  0  0  0  0  0  0
    5.0086   -5.7647   -3.3332 C   0  0  0  0  0  0  0  0  0  0  0  0
    5.3590   -5.7793   -1.9905 O   0  0  0  0  0  0  0  0  0  0  0  0
  2  1  1  6
  2  3  1  0
  2 11  1  0
  3  4  1  0
  4  5  1  0
  4  9  1  0
  5  6  2  0
  5  7  1  0
  7  8  1  0
  9 10  1  0
 10 11  1  0
 11 12  1  0
 12 13  2  0
 12 29  1  0
 13 14  1  0
 14 15  2  0
 14 16  1  0
 16 17  1  0
 16 27  1  0
 17 18  2  0
 17 23  1  0
 18 19  1  0
 18 20  1  0
 20 21  2  0
 21 22  1  0
 22 23  2  0
 23 24  1  0
 24 25  1  6
 24 26  1  0
 27 28  1  0
 27 29  2  0
 28 33  2  0
 29 30  1  0
 30 31  2  0
 31 32  1  0
 31 33  1  0
 33 34  1  0
 34 35  2  0
 34 40  1  0
 35 36  1  0
 35 37  1  0
 37 38  2  0
 38 39  1  0
 39 40  2  0
 40 41  1  0
M  END
$$$$
