
     RDKit          3D

 41 45  0  0  0  0  0  0  0  0999 V2000
    3.4022   -5.8194   -3.4996 C   0  0  0  0  0  0  0  0  0  0  0  0
    4.8372   -6.1424   -3.1700 C   0  0  1  0  0  0  0  0  0  0  0  0
    5.5541   -4.8806   -2.7941 C   0  0  0  0  0  0  0  0  0  0  0  0
    6.8806   -5.2064   -2.3456 N   0  0  0  0  0  0  0  0  0  0  0  0
    7.9878   -4.4438   -2.8251 C   0  0  0  0  0  0  0  0  0  0  0  0
    7.7556   -3.3535   -3.4027 O   0  0  0  0  0  0  0  0  0  0  0  0
    9.4009   -4.8555   -2.6850 C   0  0  0  0  0  0  0  0  0  0  0  0
    9.8119   -4.7765   -1.2297 C   0  0  0  0  0  0  0  0  0  0  0  0
    7.1627   -6.2804   -1.4220 C   0  0  0  0  0  0  0  0  0  0  0  0
    6.2381   -7.4328   -1.5291 C   0  0  0  0  0  0  0  0  0  0  0  0
    4.9843   -7.1704   -2.1910 N   0  0  0  0  0  0  0  0  0  0  0  0
    3.8990   -8.0093   -1.8082 C   0  0  0  0  0  0  0  0  0  0  0  0
    4.0777   -9.3632   -1.7446 N   0  0  0  0  0  0  0  0  0  0  0  0
    3.0469  -10.1532   -1.4164 C   0  0  0  0  0  0  0  0  0  0  0  0
    3.2629  -11.4223   -1.3698 O   0  0  0  0  0  0  0  0  0  0  0  0
    1.8589   -9.6128   -1.1551 N   0  0  0  0  0  0  0  0  0  0  0  0
    0.7960  -10.4724   -0.8120 C   0  0  0  0  0  0  0  0  0  0  0  0
   -0.1360  -10.7753   -1.7871 C   0  0  0  0  0  0  0  0  0  0  0  0
   -0.0848  -10.2525   -3.1695 C   0  0  0  0  0  0  0  0  0  0  0  0
   -1.1540  -11.6210   -1.3934 C   0  0  0  0  0  0  0  0  0  0  0  0
   -1.2130  -12.1153   -0.1084 C   0  0  0  0  0  0  0  0  0  0  0  0
   -0.2656  -11.7706    0.7783 N   0  0  0  0  0  0  0  0  0  0  0  0
    0.7651  -10.9508    0.4827 C   0  0  0  0  0  0  0  0  0  0  0  0
    1.7679  -10.6166    1.5057 C   0  0  1  0  0  0  0  0  0  0  0  0
    1.0346  -10.1612    2.7541 C   0  0  0  0  0  0  0  0  0  0  0  0
    2.5743  -11.8390    1.9486 C   0  0  0  0  0  0  0  0  0  0  0  0
    1.6362   -8.2925   -1.2040 C   0  0  0  0  0  0  0  0  0  0  0  0
    0.3967   -7.7663   -0.9173 N   0  0  0  0  0  0  0  0  0  0  0  0
    2.6781   -7.4513   -1.5391 C   0  0  0  0  0  0  0  0  0  0  0  0
    2.4063   -6.1077   -1.5647 C   0  0  0  0  0  0  0  0  0  0  0  0
    1.1374   -5.5971   -1.2692 C   0  0  0  0  0  0  0  0  0  0  0  0
    0.9130   -4.2585   -1.3078 F   0  0  0  0  0  0  0  0  0  0  0  0
    0.1224   -6.4685   -0.9398 C   0  0  0  0  0  0  0  0  0  0  0  0
   -1.2227   -5.9627   -0.6211 C   0  0  0  0  0  0  0  0  0  0  0  0
   -1.7632   -6.1120    0.6383 C   0  0  0  0  0  0  0  0  0  0  0  0
   -1.0216   -6.7383    1.5850 F   0  0  0  0  0  0  0  0  0  0  0  0
   -3.0348   -5.6346    0.9374 C   0  0  0  0  0  0  0  0  0  0  0  0
   -3.7710   -5.0005   -0.0396 C   0  0  0  0  0  0  0  0  0  0  0  0
   -3.2572   -4.8345   -1.3138 C   0  0  0  0  0  0  0  0  0  0  0  0
   -1.9935   -5.3217   -1.5704 C   0  0  0  0  0  0  0  0  0  0  0  0
   -1.4885   -5.1505   -2.8499 O   0  0  0  0  0  0  0  0  0  0  0  0
  1  2  1  6
  2  3  1  0
  2 11  1  1
  3  4  1  6
  4  5  1  0
  9  4  1  1
  5  6  2  0
  7  5  1  1
  8  7  1  6
  9 10  1  0
 10 11  1  6
 11 12  1  0
 12 13  2  0
 12 29  1  0
 13 14  1  0
 14 15  2  0
 14 16  1  0
 16 17  1  0
 16 27  1  0
 17 18  2  0
 17 23  1  0
 19 18  1  6
 18 20  1  0
 20 21  2  0
 21 22  1  0
 22 23  2  0
 24 23  1  6
 25 24  1  6
 26 24  1  6
 27 28  1  0
 27 29  2  0
 28 33  2  0
 29 30  1  0
 30 31  2  0
 31 32  1  0
 31 33  1  0
 33 34  1  0
 34 35  2  0
 34 40  1  0
 35 36  1  0
 35 37  1  0
 37 38  2  0
 38 39  1  0
 39 40  2  0
 40 41  1  0
M  END
$$$$
