
     RDKit          3D

 41 45  0  0  0  0  0  0  0  0999 V2000
   -2.7185   -6.8703   -0.3423 C   0  0  0  0  0  0  0  0  0  0  0  0
   -2.1955   -5.7517   -1.2069 C   0  0  1  0  0  0  0  0  0  0  0  0
   -2.8156   -4.4584   -0.7707 C   0  0  0  0  0  0  0  0  0  0  0  0
   -2.2132   -3.3757   -1.5000 N   0  0  0  0  0  0  0  0  0  0  0  0
   -3.0468   -2.3657   -2.0676 C   0  0  0  0  0  0  0  0  0  0  0  0
   -4.2851   -2.4346   -1.8713 O   0  0  0  0  0  0  0  0  0  0  0  0
   -2.5451   -1.2346   -2.8767 C   0  0  0  0  0  0  0  0  0  0  0  0
   -1.7567   -1.7633   -4.0565 C   0  0  0  0  0  0  0  0  0  0  0  0
   -0.7878   -3.2493   -1.6957 C   0  0  0  0  0  0  0  0  0  0  0  0
   -0.0699   -4.5417   -1.7886 C   0  0  0  0  0  0  0  0  0  0  0  0
   -0.7709   -5.6867   -1.2625 N   0  0  0  0  0  0  0  0  0  0  0  0
    0.0520   -6.7552   -0.8051 C   0  0  0  0  0  0  0  0  0  0  0  0
   -0.4840   -7.7345   -0.0159 N   0  0  0  0  0  0  0  0  0  0  0  0
    0.2990   -8.7208    0.4406 C   0  0  0  0  0  0  0  0  0  0  0  0
   -0.2503   -9.6205    1.1809 O   0  0  0  0  0  0  0  0  0  0  0  0
    1.5911   -8.7385    0.1213 N   0  0  0  0  0  0  0  0  0  0  0  0
    2.3864   -9.7909    0.6173 C   0  0  0  0  0  0  0  0  0  0  0  0
    2.9709   -9.6342    1.8604 C   0  0  0  0  0  0  0  0  0  0  0  0
    2.8113   -8.4287    2.7020 C   0  0  0  0  0  0  0  0  0  0  0  0
    3.7386  -10.6968    2.2939 C   0  0  0  0  0  0  0  0  0  0  0  0
    3.8950  -11.8258    1.5194 C   0  0  0  0  0  0  0  0  0  0  0  0
    3.2917  -11.8968    0.3221 N   0  0  0  0  0  0  0  0  0  0  0  0
    2.5234  -10.9082   -0.1820 C   0  0  0  0  0  0  0  0  0  0  0  0
    1.8919  -11.0555   -1.5025 C   0  0  1  0  0  0  0  0  0  0  0  0
    2.9228  -11.6299   -2.4570 C   0  0  0  0  0  0  0  0  0  0  0  0
    0.7551  -12.0793   -1.4907 C   0  0  0  0  0  0  0  0  0  0  0  0
    2.1606   -7.8017   -0.6490 C   0  0  0  0  0  0  0  0  0  0  0  0
    3.4987   -7.8565   -0.9684 N   0  0  0  0  0  0  0  0  0  0  0  0
    1.3806   -6.7719   -1.1353 C   0  0  0  0  0  0  0  0  0  0  0  0
    2.0039   -5.8435   -1.9287 C   0  0  0  0  0  0  0  0  0  0  0  0
    3.3662   -5.9212   -2.2392 C   0  0  0  0  0  0  0  0  0  0  0  0
    3.9424   -4.9785   -3.0285 F   0  0  0  0  0  0  0  0  0  0  0  0
    4.1121   -6.9637   -1.7343 C   0  0  0  0  0  0  0  0  0  0  0  0
    5.5466   -7.0750   -2.0445 C   0  0  0  0  0  0  0  0  0  0  0  0
    6.0098   -7.9869   -2.9689 C   0  0  0  0  0  0  0  0  0  0  0  0
    5.1073   -8.7839   -3.5924 F   0  0  0  0  0  0  0  0  0  0  0  0
    7.3658   -8.0916   -3.2601 C   0  0  0  0  0  0  0  0  0  0  0  0
    8.2658   -7.2713   -2.6153 C   0  0  0  0  0  0  0  0  0  0  0  0
    7.8332   -6.3454   -1.6822 C   0  0  0  0  0  0  0  0  0  0  0  0
    6.4816   -6.2726   -1.4216 C   0  0  0  0  0  0  0  0  0  0  0  0
    6.0590   -5.3421   -0.4851 O   0  0  0  0  0  0  0  0  0  0  0  0
  1  2  1  6
  2  3  1  0
  2 11  1  1
  3  4  1  6
  4  5  1  0
  9  4  1  1
  5  6  2  0
  7  5  1  1
  8  7  1  6
  9 10  1  0
 10 11  1  6
 11 12  1  0
 12 13  2  0
 12 29  1  0
 13 14  1  0
 14 15  2  0
 14 16  1  0
 16 17  1  0
 16 27  1  0
 17 18  2  0
 17 23  1  0
 19 18  1  6
 18 20  1  0
 20 21  2  0
 21 22  1  0
 22 23  2  0
 24 23  1  1
 25 24  1  6
 26 24  1  6
 27 28  1  0
 27 29  2  0
 28 33  2  0
 29 30  1  0
 30 31  2  0
 31 32  1  0
 31 33  1  0
 33 34  1  0
 34 35  2  0
 34 40  1  0
 35 36  1  0
 35 37  1  0
 37 38  2  0
 38 39  1  0
 39 40  2  0
 40 41  1  0
M  END
$$$$
