
     RDKit          3D

 41 45  0  0  0  0  0  0  0  0999 V2000
    0.5709   -4.2413   -2.2446 C   0  0  0  0  0  0  0  0  0  0  0  0
   -0.0657   -4.7597   -0.9849 C   0  0  1  0  0  0  0  0  0  0  0  0
   -1.5845   -4.6942   -1.1841 C   0  0  0  0  0  0  0  0  0  0  0  0
   -2.1063   -6.0191   -1.3397 N   0  0  0  0  0  0  0  0  0  0  0  0
   -2.8830   -6.3320   -2.4797 C   0  0  0  0  0  0  0  0  0  0  0  0
   -2.9139   -7.5296   -2.8833 O   0  0  0  0  0  0  0  0  0  0  0  0
   -3.6538   -5.2718   -3.1972 C   0  0  0  0  0  0  0  0  0  0  0  0
   -2.7972   -4.0227   -3.2002 C   0  0  0  0  0  0  0  0  0  0  0  0
   -1.8628   -7.0525   -0.3468 C   0  0  0  0  0  0  0  0  0  0  0  0
   -0.5280   -6.7593    0.3730 C   0  0  0  0  0  0  0  0  0  0  0  0
    0.2750   -6.1085   -0.6819 N   0  0  0  0  0  0  0  0  0  0  0  0
    1.2671   -6.9256   -1.2613 C   0  0  0  0  0  0  0  0  0  0  0  0
    0.9595   -8.1852   -1.6958 N   0  0  0  0  0  0  0  0  0  0  0  0
    1.8616   -9.0017   -2.2514 C   0  0  0  0  0  0  0  0  0  0  0  0
    1.5400  -10.1730   -2.6460 O   0  0  0  0  0  0  0  0  0  0  0  0
    3.1343   -8.6126   -2.4101 N   0  0  0  0  0  0  0  0  0  0  0  0
    4.1328   -9.4485   -2.9815 C   0  0  0  0  0  0  0  0  0  0  0  0
    4.5153   -9.3639   -4.3171 C   0  0  0  0  0  0  0  0  0  0  0  0
    3.8834   -8.3841   -5.2128 C   0  0  0  0  0  0  0  0  0  0  0  0
    5.4915  -10.1965   -4.8219 C   0  0  0  0  0  0  0  0  0  0  0  0
    6.0725  -11.1066   -3.9743 C   0  0  0  0  0  0  0  0  0  0  0  0
    5.7097  -11.1987   -2.6753 N   0  0  0  0  0  0  0  0  0  0  0  0
    4.7469  -10.3792   -2.1734 C   0  0  0  0  0  0  0  0  0  0  0  0
    4.4283  -10.5783   -0.7366 C   0  0  1  0  0  0  0  0  0  0  0  0
    4.0940  -12.0501   -0.4590 C   0  0  0  0  0  0  0  0  0  0  0  0
    5.5693  -10.1253    0.1494 C   0  0  0  0  0  0  0  0  0  0  0  0
    3.4825   -7.3628   -1.9905 C   0  0  0  0  0  0  0  0  0  0  0  0
    4.7909   -6.9877   -2.1591 N   0  0  0  0  0  0  0  0  0  0  0  0
    2.5657   -6.5187   -1.4198 C   0  0  0  0  0  0  0  0  0  0  0  0
    2.9978   -5.2603   -1.0104 C   0  0  0  0  0  0  0  0  0  0  0  0
    4.3222   -4.9389   -1.2047 C   0  0  0  0  0  0  0  0  0  0  0  0
    4.7839   -3.7094   -0.8120 F   0  0  0  0  0  0  0  0  0  0  0  0
    5.2422   -5.7855   -1.7780 C   0  0  0  0  0  0  0  0  0  0  0  0
    6.6349   -5.3807   -1.9609 C   0  0  0  0  0  0  0  0  0  0  0  0
    7.4633   -5.0383   -0.8875 C   0  0  0  0  0  0  0  0  0  0  0  0
    6.9000   -5.1074    0.3431 F   0  0  0  0  0  0  0  0  0  0  0  0
    8.7694   -4.6572   -1.0900 C   0  0  0  0  0  0  0  0  0  0  0  0
    9.3054   -4.5995   -2.3533 C   0  0  0  0  0  0  0  0  0  0  0  0
    8.4984   -4.9375   -3.4498 C   0  0  0  0  0  0  0  0  0  0  0  0
    7.1873   -5.3177   -3.2184 C   0  0  0  0  0  0  0  0  0  0  0  0
    6.4161   -5.6452   -4.3247 O   0  0  0  0  0  0  0  0  0  0  0  0
  2  1  1  6
  2  3  1  0
  2 11  1  0
  3  4  1  0
  4  5  1  0
  4  9  1  0
  5  6  2  0
  5  7  1  0
  7  8  1  0
  9 10  1  0
 10 11  1  0
 11 12  1  0
 12 13  2  0
 12 29  1  0
 13 14  1  0
 14 15  2  0
 14 16  1  0
 16 17  1  0
 16 27  1  0
 17 18  2  0
 17 23  1  0
 18 19  1  0
 18 20  1  0
 20 21  2  0
 21 22  1  0
 22 23  2  0
 23 24  1  0
 24 25  1  6
 24 26  1  0
 27 28  1  0
 27 29  2  0
 28 33  2  0
 29 30  1  0
 30 31  2  0
 31 32  1  0
 31 33  1  0
 33 34  1  0
 34 35  2  0
 34 40  1  0
 35 36  1  0
 35 37  1  0
 37 38  2  0
 38 39  1  0
 39 40  2  0
 40 41  1  0
M  END
$$$$
