
     RDKit          3D

 41 45  0  0  0  0  0  0  0  0999 V2000
    5.4377  -10.5448   -2.8574 C   0  0  0  0  0  0  0  0  0  0  0  0
    5.8675   -9.3380   -2.0630 C   0  0  1  0  0  0  0  0  0  0  0  0
    6.6239   -8.4017   -2.9566 C   0  0  0  0  0  0  0  0  0  0  0  0
    6.9114   -7.1906   -2.2372 N   0  0  0  0  0  0  0  0  0  0  0  0
    8.2231   -6.6318   -2.3047 C   0  0  0  0  0  0  0  0  0  0  0  0
    9.0490   -7.1431   -3.1004 O   0  0  0  0  0  0  0  0  0  0  0  0
    8.6770   -5.4816   -1.4942 C   0  0  0  0  0  0  0  0  0  0  0  0
    9.7513   -5.9331   -0.5272 C   0  0  0  0  0  0  0  0  0  0  0  0
    5.9324   -6.4948   -1.4351 C   0  0  0  0  0  0  0  0  0  0  0  0
    4.9307   -7.3792   -0.7957 C   0  0  0  0  0  0  0  0  0  0  0  0
    4.7974   -8.6940   -1.3724 N   0  0  0  0  0  0  0  0  0  0  0  0
    3.5265   -9.3139   -1.2036 C   0  0  0  0  0  0  0  0  0  0  0  0
    3.4294  -10.6776   -1.2181 N   0  0  0  0  0  0  0  0  0  0  0  0
    2.2288  -11.2582   -1.0922 C   0  0  0  0  0  0  0  0  0  0  0  0
    2.1869  -12.5455   -1.1121 O   0  0  0  0  0  0  0  0  0  0  0  0
    1.1420  -10.5023   -0.9539 N   0  0  0  0  0  0  0  0  0  0  0  0
   -0.1053  -11.1451   -0.8228 C   0  0  0  0  0  0  0  0  0  0  0  0
   -0.5705  -11.4083    0.4523 C   0  0  0  0  0  0  0  0  0  0  0  0
    0.1615  -11.0550    1.6877 C   0  0  0  0  0  0  0  0  0  0  0  0
   -1.7967  -12.0397    0.5186 C   0  0  0  0  0  0  0  0  0  0  0  0
   -2.4889  -12.3739   -0.6251 C   0  0  0  0  0  0  0  0  0  0  0  0
   -1.9648  -12.0818   -1.8262 N   0  0  0  0  0  0  0  0  0  0  0  0
   -0.7741  -11.4667   -1.9870 C   0  0  0  0  0  0  0  0  0  0  0  0
   -0.2616  -11.1771   -3.3351 C   0  0  1  0  0  0  0  0  0  0  0  0
   -0.0457  -12.4976   -4.0516 C   0  0  0  0  0  0  0  0  0  0  0  0
   -1.2813  -10.4269   -4.1944 C   0  0  0  0  0  0  0  0  0  0  0  0
    1.1877   -9.1634   -0.9333 C   0  0  0  0  0  0  0  0  0  0  0  0
    0.0444   -8.4121   -0.7779 N   0  0  0  0  0  0  0  0  0  0  0  0
    2.4099   -8.5346   -1.0606 C   0  0  0  0  0  0  0  0  0  0  0  0
    2.4090   -7.1641   -1.0219 C   0  0  0  0  0  0  0  0  0  0  0  0
    1.2329   -6.4227   -0.8629 C   0  0  0  0  0  0  0  0  0  0  0  0
    1.2789   -5.0660   -0.8311 F   0  0  0  0  0  0  0  0  0  0  0  0
    0.0318   -7.0861   -0.7398 C   0  0  0  0  0  0  0  0  0  0  0  0
   -1.2225   -6.3351   -0.5687 C   0  0  0  0  0  0  0  0  0  0  0  0
   -1.4842   -5.2016   -1.3085 C   0  0  0  0  0  0  0  0  0  0  0  0
   -0.5540   -4.7919   -2.2058 F   0  0  0  0  0  0  0  0  0  0  0  0
   -2.6694   -4.4926   -1.1447 C   0  0  0  0  0  0  0  0  0  0  0  0
   -3.6015   -4.9271   -0.2276 C   0  0  0  0  0  0  0  0  0  0  0  0
   -3.3693   -6.0612    0.5307 C   0  0  0  0  0  0  0  0  0  0  0  0
   -2.1827   -6.7360    0.3389 C   0  0  0  0  0  0  0  0  0  0  0  0
   -1.9599   -7.8704    1.1037 O   0  0  0  0  0  0  0  0  0  0  0  0
  1  2  1  6
  2  3  1  0
  2 11  1  6
  3  4  1  6
  4  5  1  0
  9  4  1  1
  5  6  2  0
  7  5  1  1
  8  7  1  6
  9 10  1  0
 10 11  1  6
 11 12  1  0
 12 13  2  0
 12 29  1  0
 13 14  1  0
 14 15  2  0
 14 16  1  0
 16 17  1  0
 16 27  1  0
 17 18  2  0
 17 23  1  0
 19 18  1  6
 18 20  1  0
 20 21  2  0
 21 22  1  0
 22 23  2  0
 24 23  1  1
 25 24  1  6
 26 24  1  6
 27 28  1  0
 27 29  2  0
 28 33  2  0
 29 30  1  0
 30 31  2  0
 31 32  1  0
 31 33  1  0
 33 34  1  0
 34 35  2  0
 34 40  1  0
 35 36  1  0
 35 37  1  0
 37 38  2  0
 38 39  1  0
 39 40  2  0
 40 41  1  0
M  END
$$$$
