
     RDKit          3D

 41 45  0  0  0  0  0  0  0  0999 V2000
    0.5104   -7.3929   -7.1800 C   0  0  0  0  0  0  0  0  0  0  0  0
    1.8735   -6.9929   -7.6730 C   0  0  1  0  0  0  0  0  0  0  0  0
    1.7013   -5.7059   -8.4882 C   0  0  0  0  0  0  0  0  0  0  0  0
    2.2440   -4.5989   -7.7589 N   0  0  0  0  0  0  0  0  0  0  0  0
    1.4330   -3.4686   -7.5035 C   0  0  0  0  0  0  0  0  0  0  0  0
    0.1766   -3.6071   -7.5178 O   0  0  0  0  0  0  0  0  0  0  0  0
    2.0438   -2.1340   -7.2221 C   0  0  0  0  0  0  0  0  0  0  0  0
    1.4225   -1.1468   -8.1882 C   0  0  0  0  0  0  0  0  0  0  0  0
    3.6163   -4.6052   -7.2793 C   0  0  0  0  0  0  0  0  0  0  0  0
    4.0621   -6.0642   -7.0378 C   0  0  0  0  0  0  0  0  0  0  0  0
    2.8059   -6.7256   -6.6307 N   0  0  0  0  0  0  0  0  0  0  0  0
    2.6943   -6.9887   -5.2502 C   0  0  0  0  0  0  0  0  0  0  0  0
    1.5022   -7.3948   -4.7172 N   0  0  0  0  0  0  0  0  0  0  0  0
    1.3410   -7.6567   -3.4154 C   0  0  0  0  0  0  0  0  0  0  0  0
    0.2126   -8.0336   -2.9508 O   0  0  0  0  0  0  0  0  0  0  0  0
    2.3630   -7.5300   -2.5577 N   0  0  0  0  0  0  0  0  0  0  0  0
    2.2384   -7.7825   -1.1639 C   0  0  0  0  0  0  0  0  0  0  0  0
    2.6260   -8.9831   -0.5760 C   0  0  0  0  0  0  0  0  0  0  0  0
    3.1909  -10.0658   -1.3947 C   0  0  0  0  0  0  0  0  0  0  0  0
    2.4866   -9.1771    0.7821 C   0  0  0  0  0  0  0  0  0  0  0  0
    1.9575   -8.1578    1.5339 C   0  0  0  0  0  0  0  0  0  0  0  0
    1.5772   -6.9872    0.9748 N   0  0  0  0  0  0  0  0  0  0  0  0
    1.7129   -6.7919   -0.3645 C   0  0  0  0  0  0  0  0  0  0  0  0
    1.2543   -5.4706   -0.8640 C   0  0  1  0  0  0  0  0  0  0  0  0
   -0.2737   -5.3617   -0.7712 C   0  0  0  0  0  0  0  0  0  0  0  0
    1.9065   -4.3363   -0.1024 C   0  0  0  0  0  0  0  0  0  0  0  0
    3.5698   -7.1279   -3.0490 C   0  0  0  0  0  0  0  0  0  0  0  0
    4.5999   -7.0012   -2.1525 N   0  0  0  0  0  0  0  0  0  0  0  0
    3.7452   -6.8569   -4.3811 C   0  0  0  0  0  0  0  0  0  0  0  0
    5.0050   -6.4450   -4.8068 C   0  0  0  0  0  0  0  0  0  0  0  0
    6.0005   -6.3356   -3.8624 C   0  0  0  0  0  0  0  0  0  0  0  0
    7.2531   -5.9307   -4.2446 F   0  0  0  0  0  0  0  0  0  0  0  0
    5.8249   -6.6082   -2.5257 C   0  0  0  0  0  0  0  0  0  0  0  0
    6.9263   -6.4770   -1.5735 C   0  0  0  0  0  0  0  0  0  0  0  0
    7.4917   -7.5793   -0.9248 C   0  0  0  0  0  0  0  0  0  0  0  0
    6.9607   -8.7871   -1.2338 F   0  0  0  0  0  0  0  0  0  0  0  0
    8.5252   -7.4253   -0.0302 C   0  0  0  0  0  0  0  0  0  0  0  0
    9.0377   -6.1838    0.2573 C   0  0  0  0  0  0  0  0  0  0  0  0
    8.4906   -5.0592   -0.3783 C   0  0  0  0  0  0  0  0  0  0  0  0
    7.4510   -5.2419   -1.2744 C   0  0  0  0  0  0  0  0  0  0  0  0
    6.9325   -4.1088   -1.8853 O   0  0  0  0  0  0  0  0  0  0  0  0
  2  1  1  1
  2  3  1  0
  2 11  1  0
  3  4  1  0
  4  5  1  0
  4  9  1  0
  5  6  2  0
  5  7  1  0
  7  8  1  0
  9 10  1  0
 10 11  1  0
 11 12  1  0
 12 13  2  0
 12 29  1  0
 13 14  1  0
 14 15  2  0
 14 16  1  0
 16 17  1  0
 16 27  1  0
 17 18  2  0
 17 23  1  0
 18 19  1  0
 18 20  1  0
 20 21  2  0
 21 22  1  0
 22 23  2  0
 23 24  1  0
 24 25  1  1
 24 26  1  0
 27 28  1  0
 27 29  2  0
 28 33  2  0
 29 30  1  0
 30 31  2  0
 31 32  1  0
 31 33  1  0
 33 34  1  0
 34 35  2  0
 34 40  1  0
 35 36  1  0
 35 37  1  0
 37 38  2  0
 38 39  1  0
 39 40  2  0
 40 41  1  0
M  END
$$$$
