
     RDKit          3D

 41 45  0  0  0  0  0  0  0  0999 V2000
    3.2630  -12.8268   -2.8010 C   0  0  0  0  0  0  0  0  0  0  0  0
    2.0701  -12.7086   -1.8933 C   0  0  1  0  0  0  0  0  0  0  0  0
    2.3708  -13.5371   -0.6388 C   0  0  0  0  0  0  0  0  0  0  0  0
    2.6108  -12.6615    0.4692 N   0  0  0  0  0  0  0  0  0  0  0  0
    3.8122  -12.7835    1.2056 C   0  0  0  0  0  0  0  0  0  0  0  0
    4.8483  -13.1994    0.6126 O   0  0  0  0  0  0  0  0  0  0  0  0
    3.8618  -12.4295    2.6566 C   0  0  0  0  0  0  0  0  0  0  0  0
    3.0080  -13.4418    3.3918 C   0  0  0  0  0  0  0  0  0  0  0  0
    1.6422  -11.6513    0.8621 C   0  0  0  0  0  0  0  0  0  0  0  0
    0.8219  -11.2269   -0.3759 C   0  0  0  0  0  0  0  0  0  0  0  0
    1.7942  -11.3750   -1.4775 N   0  0  0  0  0  0  0  0  0  0  0  0
    2.3337  -10.1650   -1.9595 C   0  0  0  0  0  0  0  0  0  0  0  0
    3.3448  -10.1761   -2.8802 N   0  0  0  0  0  0  0  0  0  0  0  0
    3.8930   -9.0584   -3.3694 C   0  0  0  0  0  0  0  0  0  0  0  0
    4.8370   -9.1052   -4.2285 O   0  0  0  0  0  0  0  0  0  0  0  0
    3.4661   -7.8523   -2.9701 N   0  0  0  0  0  0  0  0  0  0  0  0
    4.0260   -6.6363   -3.4496 C   0  0  0  0  0  0  0  0  0  0  0  0
    3.4822   -5.9217   -4.5131 C   0  0  0  0  0  0  0  0  0  0  0  0
    2.2788   -6.4106   -5.2018 C   0  0  0  0  0  0  0  0  0  0  0  0
    4.0623   -4.7452   -4.9382 C   0  0  0  0  0  0  0  0  0  0  0  0
    5.1856   -4.3010   -4.2861 C   0  0  0  0  0  0  0  0  0  0  0  0
    5.7234   -4.9859   -3.2520 N   0  0  0  0  0  0  0  0  0  0  0  0
    5.1542   -6.1470   -2.8297 C   0  0  0  0  0  0  0  0  0  0  0  0
    5.8378   -6.8130   -1.6918 C   0  0  1  0  0  0  0  0  0  0  0  0
    7.2605   -7.2295   -2.0887 C   0  0  0  0  0  0  0  0  0  0  0  0
    5.8763   -5.9181   -0.4712 C   0  0  0  0  0  0  0  0  0  0  0  0
    2.4584   -7.7972   -2.0532 C   0  0  0  0  0  0  0  0  0  0  0  0
    2.0406   -6.5526   -1.6563 N   0  0  0  0  0  0  0  0  0  0  0  0
    1.8902   -8.9365   -1.5456 C   0  0  0  0  0  0  0  0  0  0  0  0
    0.8702   -8.7999   -0.6081 C   0  0  0  0  0  0  0  0  0  0  0  0
    0.4927   -7.5261   -0.2476 C   0  0  0  0  0  0  0  0  0  0  0  0
   -0.5067   -7.3530    0.6745 F   0  0  0  0  0  0  0  0  0  0  0  0
    1.0622   -6.3826   -0.7573 C   0  0  0  0  0  0  0  0  0  0  0  0
    0.6112   -5.0575   -0.3359 C   0  0  0  0  0  0  0  0  0  0  0  0
   -0.6528   -4.5567   -0.6630 C   0  0  0  0  0  0  0  0  0  0  0  0
   -1.4455   -5.3767   -1.3948 F   0  0  0  0  0  0  0  0  0  0  0  0
   -1.0490   -3.3039   -0.2559 C   0  0  0  0  0  0  0  0  0  0  0  0
   -0.2171   -2.5012    0.4857 C   0  0  0  0  0  0  0  0  0  0  0  0
    1.0572   -2.9768    0.8292 C   0  0  0  0  0  0  0  0  0  0  0  0
    1.4312   -4.2412    0.4069 C   0  0  0  0  0  0  0  0  0  0  0  0
    2.6982   -4.6811    0.7633 O   0  0  0  0  0  0  0  0  0  0  0  0
  2  1  1  6
  2  3  1  0
  2 11  1  0
  3  4  1  0
  4  5  1  0
  4  9  1  0
  5  6  2  0
  5  7  1  0
  7  8  1  0
  9 10  1  0
 10 11  1  0
 11 12  1  0
 12 13  2  0
 12 29  1  0
 13 14  1  0
 14 15  2  0
 14 16  1  0
 16 17  1  0
 16 27  1  0
 17 18  2  0
 17 23  1  0
 18 19  1  0
 18 20  1  0
 20 21  2  0
 21 22  1  0
 22 23  2  0
 23 24  1  0
 24 25  1  6
 24 26  1  0
 27 28  1  0
 27 29  2  0
 28 33  2  0
 29 30  1  0
 30 31  2  0
 31 32  1  0
 31 33  1  0
 33 34  1  0
 34 35  2  0
 34 40  1  0
 35 36  1  0
 35 37  1  0
 37 38  2  0
 38 39  1  0
 39 40  2  0
 40 41  1  0
M  END
$$$$
