
     RDKit          3D

 41 45  0  0  0  0  0  0  0  0999 V2000
   -1.9369  -10.3692   -0.1728 C   0  0  0  0  0  0  0  0  0  0  0  0
   -0.8530  -11.4029   -0.0403 C   0  0  1  0  0  0  0  0  0  0  0  0
   -1.2168  -12.5638   -0.9733 C   0  0  0  0  0  0  0  0  0  0  0  0
   -0.3291  -12.5732   -2.0975 N   0  0  0  0  0  0  0  0  0  0  0  0
   -0.8635  -12.5474   -3.4068 C   0  0  0  0  0  0  0  0  0  0  0  0
   -0.0920  -12.2822   -4.3724 O   0  0  0  0  0  0  0  0  0  0  0  0
   -2.3111  -12.8272   -3.6500 C   0  0  0  0  0  0  0  0  0  0  0  0
   -2.9951  -12.8437   -2.2987 C   0  0  0  0  0  0  0  0  0  0  0  0
    1.1136  -12.6165   -1.9252 C   0  0  0  0  0  0  0  0  0  0  0  0
    1.4827  -11.9645   -0.5745 C   0  0  0  0  0  0  0  0  0  0  0  0
    0.4380  -10.9330   -0.4144 N   0  0  0  0  0  0  0  0  0  0  0  0
    0.8623   -9.6136   -0.6729 C   0  0  0  0  0  0  0  0  0  0  0  0
   -0.0387   -8.5849   -0.6763 N   0  0  0  0  0  0  0  0  0  0  0  0
    0.3096   -7.3160   -0.9163 C   0  0  0  0  0  0  0  0  0  0  0  0
   -0.5585   -6.3791   -0.9123 O   0  0  0  0  0  0  0  0  0  0  0  0
    1.5847   -6.9899   -1.1694 N   0  0  0  0  0  0  0  0  0  0  0  0
    2.0023   -5.6587   -1.4445 C   0  0  0  0  0  0  0  0  0  0  0  0
    2.3551   -4.7560   -0.4456 C   0  0  0  0  0  0  0  0  0  0  0  0
    2.3053   -5.1528    0.9692 C   0  0  0  0  0  0  0  0  0  0  0  0
    2.7563   -3.4761   -0.7656 C   0  0  0  0  0  0  0  0  0  0  0  0
    2.7976   -3.1195   -2.0905 C   0  0  0  0  0  0  0  0  0  0  0  0
    2.4574   -3.9870   -3.0698 N   0  0  0  0  0  0  0  0  0  0  0  0
    2.0610   -5.2504   -2.7584 C   0  0  0  0  0  0  0  0  0  0  0  0
    1.7054   -6.1089   -3.9169 C   0  0  1  0  0  0  0  0  0  0  0  0
    0.3169   -5.7378   -4.4548 C   0  0  0  0  0  0  0  0  0  0  0  0
    2.7382   -6.0039   -5.0188 C   0  0  0  0  0  0  0  0  0  0  0  0
    2.5152   -7.9866   -1.1746 C   0  0  0  0  0  0  0  0  0  0  0  0
    3.8128   -7.6303   -1.4401 N   0  0  0  0  0  0  0  0  0  0  0  0
    2.1685   -9.2900   -0.9302 C   0  0  0  0  0  0  0  0  0  0  0  0
    3.1733  -10.2530   -0.9588 C   0  0  0  0  0  0  0  0  0  0  0  0
    4.4571   -9.8369   -1.2307 C   0  0  0  0  0  0  0  0  0  0  0  0
    5.4720  -10.7576   -1.2694 F   0  0  0  0  0  0  0  0  0  0  0  0
    4.8054   -8.5290   -1.4754 C   0  0  0  0  0  0  0  0  0  0  0  0
    6.1902   -8.1518   -1.7530 C   0  0  0  0  0  0  0  0  0  0  0  0
    6.9187   -8.7011   -2.8128 C   0  0  0  0  0  0  0  0  0  0  0  0
    6.2629   -9.6070   -3.5780 F   0  0  0  0  0  0  0  0  0  0  0  0
    8.2223   -8.3300   -3.0479 C   0  0  0  0  0  0  0  0  0  0  0  0
    8.8537   -7.4074   -2.2500 C   0  0  0  0  0  0  0  0  0  0  0  0
    8.1480   -6.8391   -1.1791 C   0  0  0  0  0  0  0  0  0  0  0  0
    6.8372   -7.2300   -0.9644 C   0  0  0  0  0  0  0  0  0  0  0  0
    6.1678   -6.6490    0.1034 O   0  0  0  0  0  0  0  0  0  0  0  0
  2  1  1  6
  2  3  1  0
  2 11  1  0
  3  4  1  0
  4  5  1  0
  4  9  1  0
  5  6  2  0
  5  7  1  0
  7  8  1  0
  9 10  1  0
 10 11  1  0
 11 12  1  0
 12 13  2  0
 12 29  1  0
 13 14  1  0
 14 15  2  0
 14 16  1  0
 16 17  1  0
 16 27  1  0
 17 18  2  0
 17 23  1  0
 18 19  1  0
 18 20  1  0
 20 21  2  0
 21 22  1  0
 22 23  2  0
 23 24  1  0
 24 25  1  6
 24 26  1  0
 27 28  1  0
 27 29  2  0
 28 33  2  0
 29 30  1  0
 30 31  2  0
 31 32  1  0
 31 33  1  0
 33 34  1  0
 34 35  2  0
 34 40  1  0
 35 36  1  0
 35 37  1  0
 37 38  2  0
 38 39  1  0
 39 40  2  0
 40 41  1  0
M  END
$$$$
