
     RDKit          3D

 41 45  0  0  0  0  0  0  0  0999 V2000
   -0.7945   -6.1616   -3.2724 C   0  0  0  0  0  0  0  0  0  0  0  0
   -0.4622   -5.1838   -2.1743 C   0  0  1  0  0  0  0  0  0  0  0  0
   -1.6491   -5.0326   -1.2711 C   0  0  0  0  0  0  0  0  0  0  0  0
   -1.2870   -4.2110   -0.1483 N   0  0  0  0  0  0  0  0  0  0  0  0
   -2.1663   -3.1657    0.2657 C   0  0  0  0  0  0  0  0  0  0  0  0
   -1.8101   -2.4288    1.2178 O   0  0  0  0  0  0  0  0  0  0  0  0
   -3.4784   -2.8905   -0.3576 C   0  0  0  0  0  0  0  0  0  0  0  0
   -3.4429   -1.5407   -1.0430 C   0  0  0  0  0  0  0  0  0  0  0  0
   -0.0626   -4.3849    0.5978 C   0  0  0  0  0  0  0  0  0  0  0  0
    1.0772   -4.8769   -0.2105 C   0  0  0  0  0  0  0  0  0  0  0  0
    0.7327   -5.5038   -1.4624 N   0  0  0  0  0  0  0  0  0  0  0  0
    1.6670   -6.4625   -1.9481 C   0  0  0  0  0  0  0  0  0  0  0  0
    1.2343   -7.4935   -2.7349 N   0  0  0  0  0  0  0  0  0  0  0  0
    2.1092   -8.4128   -3.1636 C   0  0  0  0  0  0  0  0  0  0  0  0
    1.6552   -9.3657   -3.9019 O   0  0  0  0  0  0  0  0  0  0  0  0
    3.3914   -8.3137   -2.8199 N   0  0  0  0  0  0  0  0  0  0  0  0
    4.2855   -9.2971   -3.2887 C   0  0  0  0  0  0  0  0  0  0  0  0
    4.4547  -10.4384   -2.5270 C   0  0  0  0  0  0  0  0  0  0  0  0
    3.7533  -10.6904   -1.2497 C   0  0  0  0  0  0  0  0  0  0  0  0
    5.3426  -11.3655   -3.0355 C   0  0  0  0  0  0  0  0  0  0  0  0
    6.0023  -11.1428   -4.2247 C   0  0  0  0  0  0  0  0  0  0  0  0
    5.7800  -10.0057   -4.9030 N   0  0  0  0  0  0  0  0  0  0  0  0
    4.9306   -9.0445   -4.4829 C   0  0  0  0  0  0  0  0  0  0  0  0
    4.7357   -7.8230   -5.2790 C   0  0  1  0  0  0  0  0  0  0  0  0
    6.0999   -7.3242   -5.7193 C   0  0  0  0  0  0  0  0  0  0  0  0
    3.9784   -8.0937   -6.5805 C   0  0  0  0  0  0  0  0  0  0  0  0
    3.8617   -7.3217   -2.0519 C   0  0  0  0  0  0  0  0  0  0  0  0
    5.1967   -7.2440   -1.7240 N   0  0  0  0  0  0  0  0  0  0  0  0
    2.9854   -6.3584   -1.5941 C   0  0  0  0  0  0  0  0  0  0  0  0
    3.5140   -5.3564   -0.8216 C   0  0  0  0  0  0  0  0  0  0  0  0
    4.8752   -5.2994   -0.5022 C   0  0  0  0  0  0  0  0  0  0  0  0
    5.3552   -4.2887    0.2671 F   0  0  0  0  0  0  0  0  0  0  0  0
    5.7186   -6.2797   -0.9771 C   0  0  0  0  0  0  0  0  0  0  0  0
    7.1557   -6.2466   -0.6610 C   0  0  0  0  0  0  0  0  0  0  0  0
    7.6233   -6.6159    0.5822 C   0  0  0  0  0  0  0  0  0  0  0  0
    6.7230   -7.0155    1.5139 F   0  0  0  0  0  0  0  0  0  0  0  0
    8.9815   -6.5829    0.8797 C   0  0  0  0  0  0  0  0  0  0  0  0
    9.8794   -6.1743   -0.0824 C   0  0  0  0  0  0  0  0  0  0  0  0
    9.4424   -5.7972   -1.3402 C   0  0  0  0  0  0  0  0  0  0  0  0
    8.0886   -5.8437   -1.5956 C   0  0  0  0  0  0  0  0  0  0  0  0
    7.6616   -5.4635   -2.8584 O   0  0  0  0  0  0  0  0  0  0  0  0
  1  2  1  6
  2  3  1  0
  2 11  1  1
  3  4  1  6
  4  5  1  0
  9  4  1  1
  5  6  2  0
  7  5  1  1
  8  7  1  6
  9 10  1  0
 10 11  1  6
 11 12  1  0
 12 13  2  0
 12 29  1  0
 13 14  1  0
 14 15  2  0
 14 16  1  0
 16 17  1  0
 16 27  1  0
 17 18  2  0
 17 23  1  0
 19 18  1  6
 18 20  1  0
 20 21  2  0
 21 22  1  0
 22 23  2  0
 24 23  1  6
 25 24  1  6
 26 24  1  6
 27 28  1  0
 27 29  2  0
 28 33  2  0
 29 30  1  0
 30 31  2  0
 31 32  1  0
 31 33  1  0
 33 34  1  0
 34 35  2  0
 34 40  1  0
 35 36  1  0
 35 37  1  0
 37 38  2  0
 38 39  1  0
 39 40  2  0
 40 41  1  0
M  END
$$$$
