
     RDKit          3D

 41 45  0  0  0  0  0  0  0  0999 V2000
   -1.3855  -11.2860    1.9557 C   0  0  0  0  0  0  0  0  0  0  0  0
    0.0541  -11.7116    2.0405 C   0  0  1  0  0  0  0  0  0  0  0  0
    0.1425  -13.1297    1.4645 C   0  0  0  0  0  0  0  0  0  0  0  0
    0.8003  -13.0916    0.1926 N   0  0  0  0  0  0  0  0  0  0  0  0
    0.1608  -13.6494   -0.9390 C   0  0  0  0  0  0  0  0  0  0  0  0
   -1.0964  -13.5563   -1.0333 O   0  0  0  0  0  0  0  0  0  0  0  0
    0.9506  -14.3368   -2.0053 C   0  0  0  0  0  0  0  0  0  0  0  0
    0.1646  -14.2103   -3.2938 C   0  0  0  0  0  0  0  0  0  0  0  0
    2.1181  -12.4982    0.0369 C   0  0  0  0  0  0  0  0  0  0  0  0
    2.3121  -11.4052    1.1109 C   0  0  0  0  0  0  0  0  0  0  0  0
    0.9426  -10.8843    1.2966 N   0  0  0  0  0  0  0  0  0  0  0  0
    0.6960   -9.6350    0.6915 C   0  0  0  0  0  0  0  0  0  0  0  0
   -0.5283   -9.0376    0.8113 N   0  0  0  0  0  0  0  0  0  0  0  0
   -0.8158   -7.8547    0.2572 C   0  0  0  0  0  0  0  0  0  0  0  0
   -1.9708   -7.3254    0.3886 O   0  0  0  0  0  0  0  0  0  0  0  0
    0.1033   -7.1885   -0.4553 N   0  0  0  0  0  0  0  0  0  0  0  0
   -0.1581   -5.9358   -1.0755 C   0  0  0  0  0  0  0  0  0  0  0  0
    0.2263   -4.7208   -0.5158 C   0  0  0  0  0  0  0  0  0  0  0  0
    0.9328   -4.6842    0.7730 C   0  0  0  0  0  0  0  0  0  0  0  0
   -0.0490   -3.5329   -1.1595 C   0  0  0  0  0  0  0  0  0  0  0  0
   -0.7094   -3.5823   -2.3618 C   0  0  0  0  0  0  0  0  0  0  0  0
   -1.0881   -4.7558   -2.9158 N   0  0  0  0  0  0  0  0  0  0  0  0
   -0.8186   -5.9300   -2.2839 C   0  0  0  0  0  0  0  0  0  0  0  0
   -1.2894   -7.1517   -2.9848 C   0  0  1  0  0  0  0  0  0  0  0  0
   -2.6620   -6.9081   -3.6264 C   0  0  0  0  0  0  0  0  0  0  0  0
   -0.2951   -7.6041   -4.0330 C   0  0  0  0  0  0  0  0  0  0  0  0
    1.3378   -7.7495   -0.5983 C   0  0  0  0  0  0  0  0  0  0  0  0
    2.2610   -7.0519   -1.3347 N   0  0  0  0  0  0  0  0  0  0  0  0
    1.6424   -8.9612   -0.0347 C   0  0  0  0  0  0  0  0  0  0  0  0
    2.9223   -9.4728   -0.2298 C   0  0  0  0  0  0  0  0  0  0  0  0
    3.8066   -8.7288   -0.9778 C   0  0  0  0  0  0  0  0  0  0  0  0
    5.0750   -9.2021   -1.1927 F   0  0  0  0  0  0  0  0  0  0  0  0
    3.5014   -7.5125   -1.5430 C   0  0  0  0  0  0  0  0  0  0  0  0
    4.4892   -6.7692   -2.3232 C   0  0  0  0  0  0  0  0  0  0  0  0
    4.4070   -6.6450   -3.7136 C   0  0  0  0  0  0  0  0  0  0  0  0
    3.3491   -7.2533   -4.3028 F   0  0  0  0  0  0  0  0  0  0  0  0
    5.3537   -5.9424   -4.4225 C   0  0  0  0  0  0  0  0  0  0  0  0
    6.4125   -5.3386   -3.7895 C   0  0  0  0  0  0  0  0  0  0  0  0
    6.5214   -5.4460   -2.3950 C   0  0  0  0  0  0  0  0  0  0  0  0
    5.5552   -6.1588   -1.7055 C   0  0  0  0  0  0  0  0  0  0  0  0
    5.6927   -6.2460   -0.3273 O   0  0  0  0  0  0  0  0  0  0  0  0
  2  1  1  6
  2  3  1  0
  2 11  1  0
  3  4  1  0
  4  5  1  0
  4  9  1  0
  5  6  2  0
  5  7  1  0
  7  8  1  0
  9 10  1  0
 10 11  1  0
 11 12  1  0
 12 13  2  0
 12 29  1  0
 13 14  1  0
 14 15  2  0
 14 16  1  0
 16 17  1  0
 16 27  1  0
 17 18  2  0
 17 23  1  0
 18 19  1  0
 18 20  1  0
 20 21  2  0
 21 22  1  0
 22 23  2  0
 23 24  1  0
 24 25  1  6
 24 26  1  0
 27 28  1  0
 27 29  2  0
 28 33  2  0
 29 30  1  0
 30 31  2  0
 31 32  1  0
 31 33  1  0
 33 34  1  0
 34 35  2  0
 34 40  1  0
 35 36  1  0
 35 37  1  0
 37 38  2  0
 38 39  1  0
 39 40  2  0
 40 41  1  0
M  END
$$$$
