
     RDKit          3D

 41 45  0  0  0  0  0  0  0  0999 V2000
    1.9064  -13.1745   -2.1352 C   0  0  0  0  0  0  0  0  0  0  0  0
    0.4842  -12.7327   -1.9277 C   0  0  1  0  0  0  0  0  0  0  0  0
   -0.0438  -13.4696   -0.6912 C   0  0  0  0  0  0  0  0  0  0  0  0
   -0.1773  -12.5477    0.3970 N   0  0  0  0  0  0  0  0  0  0  0  0
    0.4640  -12.8247    1.6269 C   0  0  0  0  0  0  0  0  0  0  0  0
    0.6078  -11.8863    2.4616 O   0  0  0  0  0  0  0  0  0  0  0  0
    0.9642  -14.1979    1.9388 C   0  0  0  0  0  0  0  0  0  0  0  0
   -0.1444  -14.9193    2.6768 C   0  0  0  0  0  0  0  0  0  0  0  0
   -0.9656  -11.3329    0.2705 C   0  0  0  0  0  0  0  0  0  0  0  0
   -0.9761  -10.8871   -1.2083 C   0  0  0  0  0  0  0  0  0  0  0  0
    0.3450  -11.3352   -1.6931 N   0  0  0  0  0  0  0  0  0  0  0  0
    1.3011  -10.3101   -1.8424 C   0  0  0  0  0  0  0  0  0  0  0  0
    2.5919  -10.6112   -2.1794 N   0  0  0  0  0  0  0  0  0  0  0  0
    3.5383   -9.6785   -2.3327 C   0  0  0  0  0  0  0  0  0  0  0  0
    4.7349   -9.9952   -2.6477 O   0  0  0  0  0  0  0  0  0  0  0  0
    3.2570   -8.3797   -2.1591 N   0  0  0  0  0  0  0  0  0  0  0  0
    4.2310   -7.3527   -2.2964 C   0  0  0  0  0  0  0  0  0  0  0  0
    4.3829   -6.6065   -3.4615 C   0  0  0  0  0  0  0  0  0  0  0  0
    3.5224   -6.8597   -4.6264 C   0  0  0  0  0  0  0  0  0  0  0  0
    5.3417   -5.6189   -3.5428 C   0  0  0  0  0  0  0  0  0  0  0  0
    6.1381   -5.3937   -2.4477 C   0  0  0  0  0  0  0  0  0  0  0  0
    6.0005   -6.1116   -1.3105 N   0  0  0  0  0  0  0  0  0  0  0  0
    5.0560   -7.0869   -1.2263 C   0  0  0  0  0  0  0  0  0  0  0  0
    5.0045   -7.8120    0.0687 C   0  0  1  0  0  0  0  0  0  0  0  0
    6.3863   -8.3779    0.4232 C   0  0  0  0  0  0  0  0  0  0  0  0
    4.5047   -6.9169    1.1827 C   0  0  0  0  0  0  0  0  0  0  0  0
    1.9809   -8.0366   -1.8229 C   0  0  0  0  0  0  0  0  0  0  0  0
    1.7172   -6.7024   -1.6463 N   0  0  0  0  0  0  0  0  0  0  0  0
    1.0039   -8.9847   -1.6632 C   0  0  0  0  0  0  0  0  0  0  0  0
   -0.2740   -8.5579   -1.3132 C   0  0  0  0  0  0  0  0  0  0  0  0
   -0.4798   -7.2067   -1.1492 C   0  0  0  0  0  0  0  0  0  0  0  0
   -1.7249   -6.7499   -0.8024 F   0  0  0  0  0  0  0  0  0  0  0  0
    0.5001   -6.2550   -1.3100 C   0  0  0  0  0  0  0  0  0  0  0  0
    0.2146   -4.8333   -1.1260 C   0  0  0  0  0  0  0  0  0  0  0  0
   -0.1518   -3.9987   -2.1867 C   0  0  0  0  0  0  0  0  0  0  0  0
   -0.2329   -4.5871   -3.4047 F   0  0  0  0  0  0  0  0  0  0  0  0
   -0.4109   -2.6630   -1.9844 C   0  0  0  0  0  0  0  0  0  0  0  0
   -0.3186   -2.1024   -0.7339 C   0  0  0  0  0  0  0  0  0  0  0  0
    0.0469   -2.9149    0.3497 C   0  0  0  0  0  0  0  0  0  0  0  0
    0.3022   -4.2560    0.1188 C   0  0  0  0  0  0  0  0  0  0  0  0
    0.6617   -5.0316    1.2120 O   0  0  0  0  0  0  0  0  0  0  0  0
  2  1  1  1
  2  3  1  0
  2 11  1  0
  3  4  1  0
  4  5  1  0
  4  9  1  0
  5  6  2  0
  5  7  1  0
  7  8  1  0
  9 10  1  0
 10 11  1  0
 11 12  1  0
 12 13  2  0
 12 29  1  0
 13 14  1  0
 14 15  2  0
 14 16  1  0
 16 17  1  0
 16 27  1  0
 17 18  2  0
 17 23  1  0
 18 19  1  0
 18 20  1  0
 20 21  2  0
 21 22  1  0
 22 23  2  0
 23 24  1  0
 24 25  1  1
 24 26  1  0
 27 28  1  0
 27 29  2  0
 28 33  2  0
 29 30  1  0
 30 31  2  0
 31 32  1  0
 31 33  1  0
 33 34  1  0
 34 35  2  0
 34 40  1  0
 35 36  1  0
 35 37  1  0
 37 38  2  0
 38 39  1  0
 39 40  2  0
 40 41  1  0
M  END
$$$$
