
     RDKit          3D

 41 45  0  0  0  0  0  0  0  0999 V2000
    4.6387   -5.7683   -4.9435 C   0  0  0  0  0  0  0  0  0  0  0  0
    5.0070   -7.2081   -4.7148 C   0  0  1  0  0  0  0  0  0  0  0  0
    6.5269   -7.2621   -4.5205 C   0  0  0  0  0  0  0  0  0  0  0  0
    6.8262   -7.5390   -3.1472 N   0  0  0  0  0  0  0  0  0  0  0  0
    7.6776   -6.6660   -2.4305 C   0  0  0  0  0  0  0  0  0  0  0  0
    7.3892   -6.3847   -1.2323 O   0  0  0  0  0  0  0  0  0  0  0  0
    8.8955   -6.0844   -3.0721 C   0  0  0  0  0  0  0  0  0  0  0  0
    8.4846   -4.7667   -3.6958 C   0  0  0  0  0  0  0  0  0  0  0  0
    6.2803   -8.7044   -2.4714 C   0  0  0  0  0  0  0  0  0  0  0  0
    4.9350   -9.0868   -3.1268 C   0  0  0  0  0  0  0  0  0  0  0  0
    4.4008   -7.7799   -3.5604 N   0  0  0  0  0  0  0  0  0  0  0  0
    3.3652   -7.2653   -2.7539 C   0  0  0  0  0  0  0  0  0  0  0  0
    2.7876   -6.0624   -3.0533 N   0  0  0  0  0  0  0  0  0  0  0  0
    1.8033   -5.5281   -2.3220 C   0  0  0  0  0  0  0  0  0  0  0  0
    1.2865   -4.4015   -2.6301 O   0  0  0  0  0  0  0  0  0  0  0  0
    1.3297   -6.1619   -1.2402 N   0  0  0  0  0  0  0  0  0  0  0  0
    0.2953   -5.6288   -0.4229 C   0  0  0  0  0  0  0  0  0  0  0  0
    0.5479   -4.8772    0.7210 C   0  0  0  0  0  0  0  0  0  0  0  0
    1.9294   -4.6008    1.1413 C   0  0  0  0  0  0  0  0  0  0  0  0
   -0.4917   -4.3802    1.4783 C   0  0  0  0  0  0  0  0  0  0  0  0
   -1.7763   -4.6464    1.0741 C   0  0  0  0  0  0  0  0  0  0  0  0
   -2.0346   -5.3751   -0.0348 N   0  0  0  0  0  0  0  0  0  0  0  0
   -1.0119   -5.8673   -0.7845 C   0  0  0  0  0  0  0  0  0  0  0  0
   -1.4188   -6.6581   -1.9739 C   0  0  1  0  0  0  0  0  0  0  0  0
   -1.6999   -8.1146   -1.5805 C   0  0  0  0  0  0  0  0  0  0  0  0
   -2.6328   -6.0552   -2.6483 C   0  0  0  0  0  0  0  0  0  0  0  0
    1.8782   -7.3650   -0.9074 C   0  0  0  0  0  0  0  0  0  0  0  0
    1.3808   -7.9934    0.2056 N   0  0  0  0  0  0  0  0  0  0  0  0
    2.8873   -7.9210   -1.6499 C   0  0  0  0  0  0  0  0  0  0  0  0
    3.4010   -9.1494   -1.2438 C   0  0  0  0  0  0  0  0  0  0  0  0
    2.8629   -9.7330   -0.1192 C   0  0  0  0  0  0  0  0  0  0  0  0
    3.3453  -10.9415    0.3118 F   0  0  0  0  0  0  0  0  0  0  0  0
    1.8499   -9.1756    0.6258 C   0  0  0  0  0  0  0  0  0  0  0  0
    1.3184   -9.8503    1.8087 C   0  0  0  0  0  0  0  0  0  0  0  0
    0.8252  -11.1583    1.7675 C   0  0  0  0  0  0  0  0  0  0  0  0
    0.8718  -11.7729    0.5608 F   0  0  0  0  0  0  0  0  0  0  0  0
    0.3272  -11.7667    2.8962 C   0  0  0  0  0  0  0  0  0  0  0  0
    0.2969  -11.1111    4.1028 C   0  0  0  0  0  0  0  0  0  0  0  0
    0.7850   -9.7979    4.1748 C   0  0  0  0  0  0  0  0  0  0  0  0
    1.2807   -9.2087    3.0241 C   0  0  0  0  0  0  0  0  0  0  0  0
    1.7554   -7.9089    3.1299 O   0  0  0  0  0  0  0  0  0  0  0  0
  2  1  1  1
  2  3  1  0
  2 11  1  0
  3  4  1  0
  4  5  1  0
  4  9  1  0
  5  6  2  0
  5  7  1  0
  7  8  1  0
  9 10  1  0
 10 11  1  0
 11 12  1  0
 12 13  2  0
 12 29  1  0
 13 14  1  0
 14 15  2  0
 14 16  1  0
 16 17  1  0
 16 27  1  0
 17 18  2  0
 17 23  1  0
 18 19  1  0
 18 20  1  0
 20 21  2  0
 21 22  1  0
 22 23  2  0
 23 24  1  0
 24 25  1  1
 24 26  1  0
 27 28  1  0
 27 29  2  0
 28 33  2  0
 29 30  1  0
 30 31  2  0
 31 32  1  0
 31 33  1  0
 33 34  1  0
 34 35  2  0
 34 40  1  0
 35 36  1  0
 35 37  1  0
 37 38  2  0
 38 39  1  0
 39 40  2  0
 40 41  1  0
M  END
$$$$
