
     RDKit          3D

 41 45  0  0  0  0  0  0  0  0999 V2000
    1.0940   -4.2352   -0.7846 C   0  0  0  0  0  0  0  0  0  0  0  0
    0.3315   -5.2914   -0.0337 C   0  0  1  0  0  0  0  0  0  0  0  0
   -1.1219   -5.2325   -0.5183 C   0  0  0  0  0  0  0  0  0  0  0  0
   -1.4060   -6.3809   -1.3261 N   0  0  0  0  0  0  0  0  0  0  0  0
   -1.9168   -6.2036   -2.6332 C   0  0  0  0  0  0  0  0  0  0  0  0
   -1.6110   -7.0466   -3.5241 O   0  0  0  0  0  0  0  0  0  0  0  0
   -2.8008   -5.0441   -2.9604 C   0  0  0  0  0  0  0  0  0  0  0  0
   -4.0726   -5.2119   -2.1552 C   0  0  0  0  0  0  0  0  0  0  0  0
   -1.1887   -7.7301   -0.8307 C   0  0  0  0  0  0  0  0  0  0  0  0
   -0.0585   -7.7078    0.2218 C   0  0  0  0  0  0  0  0  0  0  0  0
    0.8105   -6.6136   -0.2564 N   0  0  0  0  0  0  0  0  0  0  0  0
    1.9986   -7.0330   -0.8890 C   0  0  0  0  0  0  0  0  0  0  0  0
    2.0590   -8.2488   -1.5123 N   0  0  0  0  0  0  0  0  0  0  0  0
    3.1601   -8.6956   -2.1262 C   0  0  0  0  0  0  0  0  0  0  0  0
    3.1819   -9.8373   -2.6983 O   0  0  0  0  0  0  0  0  0  0  0  0
    4.2769   -7.9554   -2.1581 N   0  0  0  0  0  0  0  0  0  0  0  0
    5.4763   -8.3921   -2.7851 C   0  0  0  0  0  0  0  0  0  0  0  0
    6.4752   -9.0837   -2.1060 C   0  0  0  0  0  0  0  0  0  0  0  0
    6.3269   -9.3947   -0.6767 C   0  0  0  0  0  0  0  0  0  0  0  0
    7.6192   -9.4878   -2.7613 C   0  0  0  0  0  0  0  0  0  0  0  0
    7.7442   -9.1902   -4.0954 C   0  0  0  0  0  0  0  0  0  0  0  0
    6.7813   -8.5191   -4.7661 N   0  0  0  0  0  0  0  0  0  0  0  0
    5.6513   -8.1185   -4.1233 C   0  0  0  0  0  0  0  0  0  0  0  0
    4.6697   -7.3838   -4.9613 C   0  0  1  0  0  0  0  0  0  0  0  0
    5.3527   -6.2220   -5.6953 C   0  0  0  0  0  0  0  0  0  0  0  0
    3.9940   -8.3048   -5.9549 C   0  0  0  0  0  0  0  0  0  0  0  0
    4.2585   -6.7357   -1.5488 C   0  0  0  0  0  0  0  0  0  0  0  0
    5.4137   -5.9975   -1.5906 N   0  0  0  0  0  0  0  0  0  0  0  0
    3.1355   -6.2688   -0.9168 C   0  0  0  0  0  0  0  0  0  0  0  0
    3.1954   -5.0166   -0.3118 C   0  0  0  0  0  0  0  0  0  0  0  0
    4.3811   -4.3212   -0.3856 C   0  0  0  0  0  0  0  0  0  0  0  0
    4.4778   -3.0858    0.2006 F   0  0  0  0  0  0  0  0  0  0  0  0
    5.5081   -4.7892   -1.0202 C   0  0  0  0  0  0  0  0  0  0  0  0
    6.7363   -3.9978   -1.0673 C   0  0  0  0  0  0  0  0  0  0  0  0
    7.7295   -4.0960   -0.0878 C   0  0  0  0  0  0  0  0  0  0  0  0
    7.4907   -4.9767    0.9140 F   0  0  0  0  0  0  0  0  0  0  0  0
    8.8737   -3.3356   -0.1559 C   0  0  0  0  0  0  0  0  0  0  0  0
    9.0805   -2.4533   -1.1880 C   0  0  0  0  0  0  0  0  0  0  0  0
    8.1016   -2.3331   -2.1855 C   0  0  0  0  0  0  0  0  0  0  0  0
    6.9593   -3.1100   -2.0932 C   0  0  0  0  0  0  0  0  0  0  0  0
    6.0107   -2.9665   -3.0960 O   0  0  0  0  0  0  0  0  0  0  0  0
  2  1  1  6
  2  3  1  0
  2 11  1  0
  3  4  1  0
  4  5  1  0
  4  9  1  0
  5  6  2  0
  5  7  1  0
  7  8  1  0
  9 10  1  0
 10 11  1  0
 11 12  1  0
 12 13  2  0
 12 29  1  0
 13 14  1  0
 14 15  2  0
 14 16  1  0
 16 17  1  0
 16 27  1  0
 17 18  2  0
 17 23  1  0
 18 19  1  0
 18 20  1  0
 20 21  2  0
 21 22  1  0
 22 23  2  0
 23 24  1  0
 24 25  1  6
 24 26  1  0
 27 28  1  0
 27 29  2  0
 28 33  2  0
 29 30  1  0
 30 31  2  0
 31 32  1  0
 31 33  1  0
 33 34  1  0
 34 35  2  0
 34 40  1  0
 35 36  1  0
 35 37  1  0
 37 38  2  0
 38 39  1  0
 39 40  2  0
 40 41  1  0
M  END
$$$$
