
     RDKit          3D

 41 45  0  0  0  0  0  0  0  0999 V2000
   -2.1736   -7.5375   -0.3947 C   0  0  0  0  0  0  0  0  0  0  0  0
   -1.7460   -6.3304   -1.1900 C   0  0  1  0  0  0  0  0  0  0  0  0
   -2.1364   -5.0868   -0.4495 C   0  0  0  0  0  0  0  0  0  0  0  0
   -1.6060   -3.9411   -1.1372 N   0  0  0  0  0  0  0  0  0  0  0  0
   -2.4445   -2.8070   -1.3561 C   0  0  0  0  0  0  0  0  0  0  0  0
   -1.9240   -1.6649   -1.3217 O   0  0  0  0  0  0  0  0  0  0  0  0
   -3.8963   -2.8885   -1.6236 C   0  0  0  0  0  0  0  0  0  0  0  0
   -4.1298   -3.0937   -3.1057 C   0  0  0  0  0  0  0  0  0  0  0  0
   -0.2498   -3.8705   -1.6288 C   0  0  0  0  0  0  0  0  0  0  0  0
    0.3090   -5.1728   -2.0602 C   0  0  0  0  0  0  0  0  0  0  0  0
   -0.3663   -6.3423   -1.5550 N   0  0  0  0  0  0  0  0  0  0  0  0
    0.4328   -7.5162   -1.4480 C   0  0  0  0  0  0  0  0  0  0  0  0
   -0.1659   -8.7285   -1.2456 N   0  0  0  0  0  0  0  0  0  0  0  0
    0.5891   -9.8269   -1.1123 C   0  0  0  0  0  0  0  0  0  0  0  0
   -0.0194  -10.9463   -0.9227 O   0  0  0  0  0  0  0  0  0  0  0  0
    1.9149   -9.7278   -1.1784 N   0  0  0  0  0  0  0  0  0  0  0  0
    2.6795  -10.9030   -1.0351 C   0  0  0  0  0  0  0  0  0  0  0  0
    3.1534  -11.5142   -2.1810 C   0  0  0  0  0  0  0  0  0  0  0  0
    2.9072  -11.0088   -3.5488 C   0  0  0  0  0  0  0  0  0  0  0  0
    3.8952  -12.6612   -1.9790 C   0  0  0  0  0  0  0  0  0  0  0  0
    4.1321  -13.1423   -0.7096 C   0  0  0  0  0  0  0  0  0  0  0  0
    3.6343  -12.4868    0.3511 N   0  0  0  0  0  0  0  0  0  0  0  0
    2.8993  -11.3593    0.2492 C   0  0  0  0  0  0  0  0  0  0  0  0
    2.3863  -10.6931    1.4563 C   0  0  1  0  0  0  0  0  0  0  0  0
    1.6062  -11.7147    2.2635 C   0  0  0  0  0  0  0  0  0  0  0  0
    3.5102  -10.2335    2.3870 C   0  0  0  0  0  0  0  0  0  0  0  0
    2.5460   -8.5625   -1.3757 C   0  0  0  0  0  0  0  0  0  0  0  0
    3.9194   -8.4978   -1.4493 N   0  0  0  0  0  0  0  0  0  0  0  0
    1.7962   -7.4122   -1.5171 C   0  0  0  0  0  0  0  0  0  0  0  0
    2.4847   -6.2456   -1.7291 C   0  0  0  0  0  0  0  0  0  0  0  0
    3.8817   -6.2057   -1.8000 C   0  0  0  0  0  0  0  0  0  0  0  0
    4.5223   -5.0272   -2.0107 F   0  0  0  0  0  0  0  0  0  0  0  0
    4.5957   -7.3748   -1.6534 C   0  0  0  0  0  0  0  0  0  0  0  0
    6.0658   -7.3667   -1.7255 C   0  0  0  0  0  0  0  0  0  0  0  0
    6.8241   -6.6951   -0.7902 C   0  0  0  0  0  0  0  0  0  0  0  0
    6.1805   -6.0389    0.2066 F   0  0  0  0  0  0  0  0  0  0  0  0
    8.2131   -6.6875   -0.8605 C   0  0  0  0  0  0  0  0  0  0  0  0
    8.8467   -7.3616   -1.8816 C   0  0  0  0  0  0  0  0  0  0  0  0
    8.1145   -8.0455   -2.8362 C   0  0  0  0  0  0  0  0  0  0  0  0
    6.7402   -8.0290   -2.7318 C   0  0  0  0  0  0  0  0  0  0  0  0
    6.0163   -8.7168   -3.6933 O   0  0  0  0  0  0  0  0  0  0  0  0
  1  2  1  6
  2  3  1  0
  2 11  1  1
  3  4  1  6
  4  5  1  0
  9  4  1  1
  5  6  2  0
  7  5  1  1
  8  7  1  6
  9 10  1  0
 10 11  1  6
 11 12  1  0
 12 13  2  0
 12 29  1  0
 13 14  1  0
 14 15  2  0
 14 16  1  0
 16 17  1  0
 16 27  1  0
 17 18  2  0
 17 23  1  0
 19 18  1  6
 18 20  1  0
 20 21  2  0
 21 22  1  0
 22 23  2  0
 24 23  1  6
 25 24  1  6
 26 24  1  6
 27 28  1  0
 27 29  2  0
 28 33  2  0
 29 30  1  0
 30 31  2  0
 31 32  1  0
 31 33  1  0
 33 34  1  0
 34 35  2  0
 34 40  1  0
 35 36  1  0
 35 37  1  0
 37 38  2  0
 38 39  1  0
 39 40  2  0
 40 41  1  0
M  END
$$$$
