
     RDKit          3D

 41 45  0  0  0  0  0  0  0  0999 V2000
    0.2123   -6.5291   -6.0021 C   0  0  0  0  0  0  0  0  0  0  0  0
    0.3566   -5.1021   -5.5384 C   0  0  1  0  0  0  0  0  0  0  0  0
   -0.9597   -4.3996   -5.6835 C   0  0  0  0  0  0  0  0  0  0  0  0
   -0.8590   -3.0841   -5.1123 N   0  0  0  0  0  0  0  0  0  0  0  0
   -1.3806   -1.9674   -5.8321 C   0  0  0  0  0  0  0  0  0  0  0  0
   -2.0599   -2.1881   -6.8648 O   0  0  0  0  0  0  0  0  0  0  0  0
   -1.1734   -0.5574   -5.4389 C   0  0  0  0  0  0  0  0  0  0  0  0
   -0.3089    0.1366   -6.4704 C   0  0  0  0  0  0  0  0  0  0  0  0
   -0.2487   -2.8226   -3.8297 C   0  0  0  0  0  0  0  0  0  0  0  0
    0.8626   -3.7401   -3.4868 C   0  0  0  0  0  0  0  0  0  0  0  0
    0.9044   -4.9770   -4.2265 N   0  0  0  0  0  0  0  0  0  0  0  0
    1.5345   -6.0690   -3.5642 C   0  0  0  0  0  0  0  0  0  0  0  0
    0.8100   -7.1882   -3.2613 N   0  0  0  0  0  0  0  0  0  0  0  0
    1.3959   -8.2009   -2.6091 C   0  0  0  0  0  0  0  0  0  0  0  0
    0.6735   -9.2342   -2.3451 O   0  0  0  0  0  0  0  0  0  0  0  0
    2.6777   -8.1082   -2.2623 N   0  0  0  0  0  0  0  0  0  0  0  0
    3.2636   -9.1920   -1.5779 C   0  0  0  0  0  0  0  0  0  0  0  0
    4.4053   -9.7586   -2.1134 C   0  0  0  0  0  0  0  0  0  0  0  0
    5.0501   -9.2953   -3.3611 C   0  0  0  0  0  0  0  0  0  0  0  0
    4.9340  -10.8163   -1.4005 C   0  0  0  0  0  0  0  0  0  0  0  0
    4.3430  -11.2573   -0.2363 C   0  0  0  0  0  0  0  0  0  0  0  0
    3.2339  -10.6501    0.2151 N   0  0  0  0  0  0  0  0  0  0  0  0
    2.6480   -9.6101   -0.4150 C   0  0  0  0  0  0  0  0  0  0  0  0
    1.4330   -8.9927    0.1386 C   0  0  1  0  0  0  0  0  0  0  0  0
    0.3927  -10.0822    0.3242 C   0  0  0  0  0  0  0  0  0  0  0  0
    1.6590   -8.4234    1.5405 C   0  0  0  0  0  0  0  0  0  0  0  0
    3.4275   -7.0326   -2.5378 C   0  0  0  0  0  0  0  0  0  0  0  0
    4.7540   -6.9744   -2.1735 N   0  0  0  0  0  0  0  0  0  0  0  0
    2.8532   -5.9720   -3.2091 C   0  0  0  0  0  0  0  0  0  0  0  0
    3.6620   -4.8984   -3.4797 C   0  0  0  0  0  0  0  0  0  0  0  0
    5.0080   -4.8632   -3.0987 C   0  0  0  0  0  0  0  0  0  0  0  0
    5.7720   -3.7783   -3.3867 F   0  0  0  0  0  0  0  0  0  0  0  0
    5.5453   -5.9409   -2.4294 C   0  0  0  0  0  0  0  0  0  0  0  0
    6.9584   -5.9357   -2.0174 C   0  0  0  0  0  0  0  0  0  0  0  0
    7.3154   -5.8746   -0.6872 C   0  0  0  0  0  0  0  0  0  0  0  0
    6.3281   -5.8210    0.2406 F   0  0  0  0  0  0  0  0  0  0  0  0
    8.6511   -5.8686   -0.2997 C   0  0  0  0  0  0  0  0  0  0  0  0
    9.6385   -5.9244   -1.2592 C   0  0  0  0  0  0  0  0  0  0  0  0
    9.3135   -5.9866   -2.6029 C   0  0  0  0  0  0  0  0  0  0  0  0
    7.9785   -5.9904   -2.9462 C   0  0  0  0  0  0  0  0  0  0  0  0
    7.6639   -6.0525   -4.2947 O   0  0  0  0  0  0  0  0  0  0  0  0
  1  2  1  6
  2  3  1  0
  2 11  1  1
  3  4  1  6
  4  5  1  0
  9  4  1  1
  5  6  2  0
  7  5  1  1
  8  7  1  6
  9 10  1  0
 10 11  1  6
 11 12  1  0
 12 13  2  0
 12 29  1  0
 13 14  1  0
 14 15  2  0
 14 16  1  0
 16 17  1  0
 16 27  1  0
 17 18  2  0
 17 23  1  0
 19 18  1  6
 18 20  1  0
 20 21  2  0
 21 22  1  0
 22 23  2  0
 24 23  1  1
 25 24  1  6
 26 24  1  6
 27 28  1  0
 27 29  2  0
 28 33  2  0
 29 30  1  0
 30 31  2  0
 31 32  1  0
 31 33  1  0
 33 34  1  0
 34 35  2  0
 34 40  1  0
 35 36  1  0
 35 37  1  0
 37 38  2  0
 38 39  1  0
 39 40  2  0
 40 41  1  0
M  END
$$$$
