
     RDKit          3D

 41 45  0  0  0  0  0  0  0  0999 V2000
   -0.5012   -6.0789   -2.9586 C   0  0  0  0  0  0  0  0  0  0  0  0
   -0.7594   -5.0903   -1.8504 C   0  0  1  0  0  0  0  0  0  0  0  0
   -2.1788   -4.6152   -1.9324 C   0  0  0  0  0  0  0  0  0  0  0  0
   -2.4650   -3.7825   -0.7959 N   0  0  0  0  0  0  0  0  0  0  0  0
   -3.1497   -2.5453   -0.9903 C   0  0  0  0  0  0  0  0  0  0  0  0
   -3.3725   -1.8230    0.0123 O   0  0  0  0  0  0  0  0  0  0  0  0
   -3.6168   -2.0537   -2.3040 C   0  0  0  0  0  0  0  0  0  0  0  0
   -5.0427   -1.5583   -2.1842 C   0  0  0  0  0  0  0  0  0  0  0  0
   -2.0922   -4.1314    0.5551 C   0  0  0  0  0  0  0  0  0  0  0  0
   -0.8423   -4.9199    0.6565 C   0  0  0  0  0  0  0  0  0  0  0  0
   -0.4175   -5.5788   -0.5537 N   0  0  0  0  0  0  0  0  0  0  0  0
    0.3725   -6.7496   -0.3721 C   0  0  0  0  0  0  0  0  0  0  0  0
   -0.1479   -7.8223    0.2970 N   0  0  0  0  0  0  0  0  0  0  0  0
    0.6080   -8.9101    0.4956 C   0  0  0  0  0  0  0  0  0  0  0  0
    0.0750   -9.8955    1.1315 O   0  0  0  0  0  0  0  0  0  0  0  0
    1.8582   -8.9368    0.0393 N   0  0  0  0  0  0  0  0  0  0  0  0
    2.6258  -10.0971    0.2644 C   0  0  0  0  0  0  0  0  0  0  0  0
    3.4668  -10.1178    1.3615 C   0  0  0  0  0  0  0  0  0  0  0  0
    3.6092   -8.9959    2.3143 C   0  0  0  0  0  0  0  0  0  0  0  0
    4.1936  -11.2796    1.5308 C   0  0  0  0  0  0  0  0  0  0  0  0
    4.0698  -12.3324    0.6503 C   0  0  0  0  0  0  0  0  0  0  0  0
    3.2287  -12.2298   -0.3911 N   0  0  0  0  0  0  0  0  0  0  0  0
    2.4792  -11.1341   -0.6352 C   0  0  0  0  0  0  0  0  0  0  0  0
    1.5775  -11.0922   -1.7967 C   0  0  1  0  0  0  0  0  0  0  0  0
    2.3972  -11.3815   -3.0410 C   0  0  0  0  0  0  0  0  0  0  0  0
    0.5248  -12.2016   -1.7540 C   0  0  0  0  0  0  0  0  0  0  0  0
    2.4108   -7.9109   -0.6220 C   0  0  0  0  0  0  0  0  0  0  0  0
    3.7042   -7.9763   -1.0895 N   0  0  0  0  0  0  0  0  0  0  0  0
    1.6579   -6.7753   -0.8429 C   0  0  0  0  0  0  0  0  0  0  0  0
    2.2611   -5.7563   -1.5342 C   0  0  0  0  0  0  0  0  0  0  0  0
    3.5777   -5.8470   -1.9993 C   0  0  0  0  0  0  0  0  0  0  0  0
    4.1355   -4.8124   -2.6791 F   0  0  0  0  0  0  0  0  0  0  0  0
    4.2978   -6.9966   -1.7586 C   0  0  0  0  0  0  0  0  0  0  0  0
    5.6839   -7.1240   -2.2370 C   0  0  0  0  0  0  0  0  0  0  0  0
    6.0170   -8.0145   -3.2355 C   0  0  0  0  0  0  0  0  0  0  0  0
    5.0312   -8.7748   -3.7725 F   0  0  0  0  0  0  0  0  0  0  0  0
    7.3275   -8.1345   -3.6856 C   0  0  0  0  0  0  0  0  0  0  0  0
    8.3137   -7.3514   -3.1263 C   0  0  0  0  0  0  0  0  0  0  0  0
    8.0124   -6.4478   -2.1224 C   0  0  0  0  0  0  0  0  0  0  0  0
    6.7020   -6.3588   -1.7040 C   0  0  0  0  0  0  0  0  0  0  0  0
    6.4110   -5.4509   -0.6978 O   0  0  0  0  0  0  0  0  0  0  0  0
  1  2  1  6
  2  3  1  0
  2 11  1  1
  3  4  1  6
  4  5  1  0
  9  4  1  1
  5  6  2  0
  7  5  1  1
  8  7  1  6
  9 10  1  0
 10 11  1  6
 11 12  1  0
 12 13  2  0
 12 29  1  0
 13 14  1  0
 14 15  2  0
 14 16  1  0
 16 17  1  0
 16 27  1  0
 17 18  2  0
 17 23  1  0
 19 18  1  6
 18 20  1  0
 20 21  2  0
 21 22  1  0
 22 23  2  0
 24 23  1  1
 25 24  1  6
 26 24  1  6
 27 28  1  0
 27 29  2  0
 28 33  2  0
 29 30  1  0
 30 31  2  0
 31 32  1  0
 31 33  1  0
 33 34  1  0
 34 35  2  0
 34 40  1  0
 35 36  1  0
 35 37  1  0
 37 38  2  0
 38 39  1  0
 39 40  2  0
 40 41  1  0
M  END
$$$$
