
     RDKit          3D

 41 45  0  0  0  0  0  0  0  0999 V2000
    2.9936   -4.6543   -3.8313 C   0  0  0  0  0  0  0  0  0  0  0  0
    3.7192   -5.3731   -4.9400 C   0  0  1  0  0  0  0  0  0  0  0  0
    4.8331   -4.5064   -5.4452 C   0  0  0  0  0  0  0  0  0  0  0  0
    5.6100   -5.2455   -6.4028 N   0  0  0  0  0  0  0  0  0  0  0  0
    5.9821   -4.6223   -7.6318 C   0  0  0  0  0  0  0  0  0  0  0  0
    6.6873   -5.2735   -8.4412 O   0  0  0  0  0  0  0  0  0  0  0  0
    5.5886   -3.2506   -8.0182 C   0  0  0  0  0  0  0  0  0  0  0  0
    5.1473   -3.2369   -9.4667 C   0  0  0  0  0  0  0  0  0  0  0  0
    6.0427   -6.6069   -6.1895 C   0  0  0  0  0  0  0  0  0  0  0  0
    5.1078   -7.4222   -5.3798 C   0  0  0  0  0  0  0  0  0  0  0  0
    4.1606   -6.6826   -4.5831 N   0  0  0  0  0  0  0  0  0  0  0  0
    3.6874   -7.3467   -3.4156 C   0  0  0  0  0  0  0  0  0  0  0  0
    4.4671   -8.2924   -2.8099 N   0  0  0  0  0  0  0  0  0  0  0  0
    4.0068   -8.9395   -1.7312 C   0  0  0  0  0  0  0  0  0  0  0  0
    4.7766   -9.8222   -1.1949 O   0  0  0  0  0  0  0  0  0  0  0  0
    2.7950   -8.6556   -1.2590 N   0  0  0  0  0  0  0  0  0  0  0  0
    2.3417   -9.3541   -0.1220 C   0  0  0  0  0  0  0  0  0  0  0  0
    1.8706  -10.6423   -0.2952 C   0  0  0  0  0  0  0  0  0  0  0  0
    1.8144  -11.3325   -1.6019 C   0  0  0  0  0  0  0  0  0  0  0  0
    1.4398  -11.2765    0.8532 C   0  0  0  0  0  0  0  0  0  0  0  0
    1.4873  -10.6446    2.0768 C   0  0  0  0  0  0  0  0  0  0  0  0
    1.9601   -9.3906    2.1572 N   0  0  0  0  0  0  0  0  0  0  0  0
    2.4023   -8.6940    1.0890 C   0  0  0  0  0  0  0  0  0  0  0  0
    2.9082   -7.3223    1.2520 C   0  0  1  0  0  0  0  0  0  0  0  0
    1.9042   -6.5449    2.0835 C   0  0  0  0  0  0  0  0  0  0  0  0
    4.2065   -7.2752    2.0599 C   0  0  0  0  0  0  0  0  0  0  0  0
    1.9958   -7.7371   -1.8182 C   0  0  0  0  0  0  0  0  0  0  0  0
    0.7516   -7.4609   -1.2972 N   0  0  0  0  0  0  0  0  0  0  0  0
    2.4411   -7.0527   -2.9311 C   0  0  0  0  0  0  0  0  0  0  0  0
    1.5940   -6.1141   -3.4616 C   0  0  0  0  0  0  0  0  0  0  0  0
    0.3336   -5.8514   -2.9135 C   0  0  0  0  0  0  0  0  0  0  0  0
   -0.4732   -4.9132   -3.4726 F   0  0  0  0  0  0  0  0  0  0  0  0
   -0.0761   -6.5557   -1.8026 C   0  0  0  0  0  0  0  0  0  0  0  0
   -1.3950   -6.3009   -1.2008 C   0  0  0  0  0  0  0  0  0  0  0  0
   -1.7082   -5.0732   -0.6575 C   0  0  0  0  0  0  0  0  0  0  0  0
   -0.7676   -4.0973   -0.6919 F   0  0  0  0  0  0  0  0  0  0  0  0
   -2.9545   -4.8345   -0.0883 C   0  0  0  0  0  0  0  0  0  0  0  0
   -3.8960   -5.8403   -0.0646 C   0  0  0  0  0  0  0  0  0  0  0  0
   -3.6131   -7.0840   -0.6016 C   0  0  0  0  0  0  0  0  0  0  0  0
   -2.3667   -7.2808   -1.1565 C   0  0  0  0  0  0  0  0  0  0  0  0
   -2.0935   -8.5301   -1.6912 O   0  0  0  0  0  0  0  0  0  0  0  0
  1  2  1  6
  2  3  1  0
  2 11  1  1
  3  4  1  6
  4  5  1  0
  9  4  1  1
  5  6  2  0
  7  5  1  1
  8  7  1  6
  9 10  1  0
 10 11  1  6
 11 12  1  0
 12 13  2  0
 12 29  1  0
 13 14  1  0
 14 15  2  0
 14 16  1  0
 16 17  1  0
 16 27  1  0
 17 18  2  0
 17 23  1  0
 19 18  1  6
 18 20  1  0
 20 21  2  0
 21 22  1  0
 22 23  2  0
 24 23  1  1
 25 24  1  6
 26 24  1  6
 27 28  1  0
 27 29  2  0
 28 33  2  0
 29 30  1  0
 30 31  2  0
 31 32  1  0
 31 33  1  0
 33 34  1  0
 34 35  2  0
 34 40  1  0
 35 36  1  0
 35 37  1  0
 37 38  2  0
 38 39  1  0
 39 40  2  0
 40 41  1  0
M  END
$$$$
