
     RDKit          3D

 41 45  0  0  0  0  0  0  0  0999 V2000
   -0.6264   -6.7280   -4.1572 C   0  0  0  0  0  0  0  0  0  0  0  0
   -0.2061   -5.3327   -3.7868 C   0  0  1  0  0  0  0  0  0  0  0  0
   -1.4012   -4.6679   -3.0937 C   0  0  0  0  0  0  0  0  0  0  0  0
   -1.1299   -4.5315   -1.6938 N   0  0  0  0  0  0  0  0  0  0  0  0
   -2.0410   -5.0654   -0.7527 C   0  0  0  0  0  0  0  0  0  0  0  0
   -2.3509   -6.2882   -0.8339 O   0  0  0  0  0  0  0  0  0  0  0  0
   -2.6291   -4.2054    0.3186 C   0  0  0  0  0  0  0  0  0  0  0  0
   -1.5556   -3.2247    0.7426 C   0  0  0  0  0  0  0  0  0  0  0  0
    0.0600   -3.8480   -1.2142 C   0  0  0  0  0  0  0  0  0  0  0  0
    1.1771   -3.9712   -2.2737 C   0  0  0  0  0  0  0  0  0  0  0  0
    0.8985   -5.2843   -2.8897 N   0  0  0  0  0  0  0  0  0  0  0  0
    1.7625   -6.3233   -2.4880 C   0  0  0  0  0  0  0  0  0  0  0  0
    1.2983   -7.6047   -2.3751 N   0  0  0  0  0  0  0  0  0  0  0  0
    2.0740   -8.6268   -1.9974 C   0  0  0  0  0  0  0  0  0  0  0  0
    1.6074   -9.8119   -1.9017 O   0  0  0  0  0  0  0  0  0  0  0  0
    3.3684   -8.4359   -1.7068 N   0  0  0  0  0  0  0  0  0  0  0  0
    4.2298   -9.4867   -1.2874 C   0  0  0  0  0  0  0  0  0  0  0  0
    4.2935   -9.9311    0.0301 C   0  0  0  0  0  0  0  0  0  0  0  0
    3.4534   -9.3133    1.0665 C   0  0  0  0  0  0  0  0  0  0  0  0
    5.1445  -10.9564    0.3849 C   0  0  0  0  0  0  0  0  0  0  0  0
    5.9231  -11.5235   -0.5931 C   0  0  0  0  0  0  0  0  0  0  0  0
    5.8705  -11.1008   -1.8760 N   0  0  0  0  0  0  0  0  0  0  0  0
    5.0325  -10.0895   -2.2302 C   0  0  0  0  0  0  0  0  0  0  0  0
    5.0677   -9.7076   -3.6649 C   0  0  1  0  0  0  0  0  0  0  0  0
    6.2042   -8.7104   -3.9279 C   0  0  0  0  0  0  0  0  0  0  0  0
    5.2215  -10.9222   -4.5555 C   0  0  0  0  0  0  0  0  0  0  0  0
    3.8713   -7.1725   -1.8077 C   0  0  0  0  0  0  0  0  0  0  0  0
    5.1970   -7.0001   -1.5016 N   0  0  0  0  0  0  0  0  0  0  0  0
    3.0848   -6.1184   -2.1935 C   0  0  0  0  0  0  0  0  0  0  0  0
    3.6681   -4.8566   -2.2671 C   0  0  0  0  0  0  0  0  0  0  0  0
    5.0025   -4.7438   -1.9482 C   0  0  0  0  0  0  0  0  0  0  0  0
    5.6101   -3.5165   -2.0072 F   0  0  0  0  0  0  0  0  0  0  0  0
    5.7921   -5.8015   -1.5616 C   0  0  0  0  0  0  0  0  0  0  0  0
    7.2061   -5.6153   -1.2408 C   0  0  0  0  0  0  0  0  0  0  0  0
    8.2302   -6.1556   -2.0250 C   0  0  0  0  0  0  0  0  0  0  0  0
    7.8361   -6.8638   -3.1110 F   0  0  0  0  0  0  0  0  0  0  0  0
    9.5526   -5.9674   -1.6966 C   0  0  0  0  0  0  0  0  0  0  0  0
    9.9134   -5.2425   -0.5871 C   0  0  0  0  0  0  0  0  0  0  0  0
    8.9078   -4.6881    0.2187 C   0  0  0  0  0  0  0  0  0  0  0  0
    7.5846   -4.8926   -0.1342 C   0  0  0  0  0  0  0  0  0  0  0  0
    6.6148   -4.3310    0.6844 O   0  0  0  0  0  0  0  0  0  0  0  0
  2  1  1  1
  2  3  1  0
  2 11  1  0
  3  4  1  0
  4  5  1  0
  4  9  1  0
  5  6  2  0
  5  7  1  0
  7  8  1  0
  9 10  1  0
 10 11  1  0
 11 12  1  0
 12 13  2  0
 12 29  1  0
 13 14  1  0
 14 15  2  0
 14 16  1  0
 16 17  1  0
 16 27  1  0
 17 18  2  0
 17 23  1  0
 18 19  1  0
 18 20  1  0
 20 21  2  0
 21 22  1  0
 22 23  2  0
 23 24  1  0
 24 25  1  1
 24 26  1  0
 27 28  1  0
 27 29  2  0
 28 33  2  0
 29 30  1  0
 30 31  2  0
 31 32  1  0
 31 33  1  0
 33 34  1  0
 34 35  2  0
 34 40  1  0
 35 36  1  0
 35 37  1  0
 37 38  2  0
 38 39  1  0
 39 40  2  0
 40 41  1  0
M  END
$$$$
