
     RDKit          3D

138143  0  0  0  0  0  0  0  0999 V2000
   12.5902   22.2598   21.7321 C   0  0  0  0  0  0  0  0  0  0  0  0
   11.8704   23.1666   22.1151 O   0  0  0  0  0  0  0  0  0  0  0  0
   12.9417   22.0742   20.2764 C   0  0  0  0  0  0  0  0  0  0  0  0
   13.1017   21.2790   22.5535 N   0  0  0  0  0  0  0  0  0  0  0  0
   13.9988   20.2311   22.0772 C   0  0  2  0  0  0  0  0  0  0  0  0
   13.3762   19.6326   20.7910 C   0  0  0  0  0  0  0  0  0  0  0  0
   12.2662   19.0842   20.8269 O   0  0  0  0  0  0  0  0  0  0  0  0
   14.2479   19.0571   23.0597 C   0  0  1  0  0  0  0  0  0  0  0  0
   15.3464   18.1038   22.5933 C   0  0  0  0  0  0  0  0  0  0  0  0
   14.5214   19.5115   24.4978 C   0  0  0  0  0  0  0  0  0  0  0  0
   14.1470   19.6385   19.6463 N   0  0  0  0  0  0  0  0  0  0  0  0
   13.7454   19.1715   18.3190 C   0  0  2  0  0  0  0  0  0  0  0  0
   13.7956   17.6208   18.2470 C   0  0  0  0  0  0  0  0  0  0  0  0
   14.6552   16.9599   18.8279 O   0  0  0  0  0  0  0  0  0  0  0  0
   14.8323   19.7516   17.4175 C   0  0  0  0  0  0  0  0  0  0  0  0
   16.0875   19.6283   18.2819 C   0  0  0  0  0  0  0  0  0  0  0  0
   15.5840   19.8436   19.7082 C   0  0  0  0  0  0  0  0  0  0  0  0
   12.8468   17.0263   17.4291 N   0  0  0  0  0  0  0  0  0  0  0  0
   12.8339   15.5590   17.2955 C   0  0  2  0  0  0  0  0  0  0  0  0
   12.9536   15.0948   15.8307 C   0  0  0  0  0  0  0  0  0  0  0  0
   12.7467   15.8663   14.9025 O   0  0  0  0  0  0  0  0  0  0  0  0
   11.5529   14.9719   17.9117 C   0  0  0  0  0  0  0  0  0  0  0  0
   11.4587   13.4622   17.6864 C   0  0  0  0  0  0  0  0  0  0  0  0
   11.0121   12.6059   19.2346 S   0  0  0  0  0  0  0  0  0  0  0  0
    9.2823   12.2327   18.8808 C   0  0  0  0  0  0  0  0  0  0  0  0
   13.4200   13.7989   15.6435 N   0  0  0  0  0  0  0  0  0  0  0  0
   14.2228   13.5216   14.4434 C   0  0  2  0  0  0  0  0  0  0  0  0
   15.6114   14.1671   14.5748 C   0  0  0  0  0  0  0  0  0  0  0  0
   16.4793   13.9833   13.7168 O   0  0  0  0  0  0  0  0  0  0  0  0
   13.5595   14.1320   13.2018 C   0  0  0  0  0  0  0  0  0  0  0  0
   12.0843   13.7832   13.0000 C   0  0  0  0  0  0  0  0  0  0  0  0
   11.3694   14.7377   12.0587 C   0  0  0  0  0  0  0  0  0  0  0  0
   11.0551   14.0685   10.7829 N   0  0  0  0  0  0  0  0  0  0  0  0
   11.9233   13.3003   10.1129 C   0  0  0  0  0  0  0  0  0  0  0  0
   13.1187   12.9800   10.6122 N   0  0  0  0  0  4  0  0  0  0  0  0
   11.5899   12.8453    8.8876 N   0  0  0  0  0  0  0  0  0  0  0  0
   15.8148   14.8489   15.7554 N   0  0  0  0  0  0  0  0  0  0  0  0
   17.0739   15.5105   16.0709 C   0  0  2  0  0  0  0  0  0  0  0  0
   17.9152   14.6016   17.0012 C   0  0  0  0  0  0  0  0  0  0  0  0
   19.0510   14.9410   17.3556 O   0  0  0  0  0  0  0  0  0  0  0  0
   16.8222   16.9199   16.5714 C   0  0  0  0  0  0  0  0  0  0  0  0
   17.3121   13.4704   17.5135 N   0  0  0  0  0  0  0  0  0  0  0  0
   17.9622   12.6065   18.5023 C   0  0  2  0  0  0  0  0  0  0  0  0
   17.0095   11.4639   18.9697 C   0  0  0  0  0  0  0  0  0  0  0  0
   16.3472   10.7966   18.1721 O   0  0  0  0  0  0  0  0  0  0  0  0
   18.4261   13.3764   19.7570 C   0  0  0  0  0  0  0  0  0  0  0  0
   19.5134   14.4465   19.5942 C   0  0  0  0  0  0  0  0  0  0  0  0
   20.9211   14.0000   19.9831 C   0  0  0  0  0  0  0  0  0  0  0  0
   21.9750   14.9192   19.5670 N   0  0  0  0  0  0  0  0  0  0  0  0
   22.1763   16.1372   20.0869 C   0  0  0  0  0  0  0  0  0  0  0  0
   22.0891   16.3448   21.4091 N   0  0  0  0  0  4  0  0  0  0  0  0
   22.4633   17.1707   19.3102 N   0  0  0  0  0  0  0  0  0  0  0  0
   16.8452   11.3236   20.3335 N   0  0  0  0  0  0  0  0  0  0  0  0
   15.8648   10.3710   20.8783 C   0  0  2  0  0  0  0  0  0  0  0  0
   15.9676   10.4539   22.4170 C   0  0  0  0  0  0  0  0  0  0  0  0
   17.0528   10.4994   22.9760 O   0  0  0  0  0  0  0  0  0  0  0  0
   16.1519    8.9493   20.3768 C   0  0  0  0  0  0  0  0  0  0  0  0
   16.9924    8.7571   19.1105 C   0  0  0  0  0  0  0  0  0  0  0  0
   16.2146    8.8417   17.8085 C   0  0  0  0  0  0  0  0  0  0  0  0
   15.5455    9.8233   17.4914 O   0  0  0  0  0  0  0  0  0  0  0  0
   16.2691    7.7475   16.9968 N   0  0  0  0  0  0  0  0  0  0  0  0
   14.7633   10.3879   23.0710 N   0  0  0  0  0  0  0  0  0  0  0  0
   14.6261   10.3495   24.5299 C   0  0  2  0  0  0  0  0  0  0  0  0
   15.8359    9.5342   25.0885 C   0  0  0  0  0  0  0  0  0  0  0  0
   16.8934    9.4386   24.4547 O   0  0  0  0  0  0  0  0  0  0  0  0
   13.3079    9.6068   24.8384 C   0  0  0  0  0  0  0  0  0  0  0  0
   11.9817   10.3340   24.5526 C   0  0  1  0  0  0  0  0  0  0  0  0
   11.1987   10.6298   25.8303 C   0  0  0  0  0  0  0  0  0  0  0  0
   12.2794   11.6596   23.8376 C   0  0  0  0  0  0  0  0  0  0  0  0
   15.6759    8.7912   26.2522 N   0  0  0  0  0  0  0  0  0  0  0  0
   16.6260    7.6984   26.5509 C   0  0  2  0  0  0  0  0  0  0  0  0
   16.6714    6.4536   25.6221 C   0  0  0  0  0  0  0  0  0  0  0  0
   15.6923    6.0791   24.9822 O   0  0  0  0  0  0  0  0  0  0  0  0
   16.2670    7.2390   27.9762 C   0  0  0  0  0  0  0  0  0  0  0  0
   15.1427    8.1638   28.4278 C   0  0  0  0  0  0  0  0  0  0  0  0
   15.2756    9.3639   27.5236 C   0  0  0  0  0  0  0  0  0  0  0  0
   17.8297    5.7178   25.6828 N   0  0  0  0  0  0  0  0  0  0  0  0
   19.1168    6.3736   25.8855 C   0  0  2  0  0  0  0  0  0  0  0  0
   20.0651    5.5633   26.7914 C   0  0  0  0  0  0  0  0  0  0  0  0
   20.5745    4.4982   26.4084 O   0  0  0  0  0  0  0  0  0  0  0  0
   18.8726    7.7411   26.5198 C   0  0  0  0  0  0  0  0  0  0  0  0
   20.4317    6.1346   27.9943 N   0  0  0  0  0  0  0  0  0  0  0  0
   21.4136    5.4940   28.8728 C   0  0  2  0  0  0  0  0  0  0  0  0
   20.8751    4.1447   29.3977 C   0  0  0  0  0  0  0  0  0  0  0  0
   20.0336    4.0576   30.2978 O   0  0  0  0  0  0  0  0  0  0  0  0
   21.7635    6.4286   30.0505 C   0  0  0  0  0  0  0  0  0  0  0  0
   20.6120    6.9154   30.7472 O   0  0  0  0  0  0  0  0  0  0  0  0
   21.4237    3.0332   28.7836 N   0  0  0  0  0  0  0  0  0  0  0  0
   22.0276    1.9245   29.5251 C   0  0  2  0  0  0  0  0  0  0  0  0
   21.3430    1.5666   30.8678 C   0  0  0  0  0  0  0  0  0  0  0  0
   21.5368    0.4533   31.3525 O   0  0  0  0  0  0  0  0  0  0  0  0
   23.5509    2.0074   29.6834 C   0  0  0  0  0  0  0  0  0  0  0  0
   24.0245    1.6139   31.0599 C   0  0  0  0  0  0  0  0  0  0  0  0
   25.3347    1.8765   31.4698 C   0  0  0  0  0  0  0  0  0  0  0  0
   23.1553    0.9708   31.9514 C   0  0  0  0  0  0  0  0  0  0  0  0
   25.7636    1.5406   32.7536 C   0  0  0  0  0  0  0  0  0  0  0  0
   23.5847    0.6216   33.2331 C   0  0  0  0  0  0  0  0  0  0  0  0
   24.8810    0.9219   33.6364 C   0  0  0  0  0  0  0  0  0  0  0  0
   20.6652    2.5858   31.4961 N   0  0  0  0  0  0  0  0  0  0  0  0
   20.7870    2.9181   32.9381 C   0  0  2  0  0  0  0  0  0  0  0  0
   22.3133    3.1263   33.2962 C   0  0  0  0  0  0  0  0  0  0  0  0
   23.2309    2.4762   32.8018 O   0  0  0  0  0  0  0  0  0  0  0  0
   20.1270    1.8280   33.8212 C   0  0  0  0  0  0  0  0  0  0  0  0
   20.3034    1.9304   35.3047 C   0  0  0  0  0  0  0  0  0  0  0  0
   19.7415    2.8922   36.1181 C   0  0  0  0  0  0  0  0  0  0  0  0
   21.1295    1.1122   36.1337 C   0  0  0  0  0  0  0  0  0  0  0  0
   20.1257    2.6457   37.4099 N   0  0  0  0  0  0  0  0  0  0  0  0
   20.9961    1.5793   37.4447 C   0  0  0  0  0  0  0  0  0  0  0  0
   21.9901    0.0185   35.9050 C   0  0  0  0  0  0  0  0  0  0  0  0
   21.6505    0.9975   38.5383 C   0  0  0  0  0  0  0  0  0  0  0  0
   22.6685   -0.5677   36.9775 C   0  0  0  0  0  0  0  0  0  0  0  0
   22.5042   -0.0772   38.2763 C   0  0  0  0  0  0  0  0  0  0  0  0
   22.5758    4.0554   34.2914 N   0  0  0  0  0  0  0  0  0  0  0  0
   21.8494    5.3422   34.3898 C   0  0  2  0  0  0  0  0  0  0  0  0
   22.5872    6.6524   33.9127 C   0  0  0  0  0  0  0  0  0  0  0  0
   23.6982    6.6854   33.3849 O   0  0  0  0  0  0  0  0  0  0  0  0
   21.2146    5.5811   35.7740 C   0  0  0  0  0  0  0  0  0  0  0  0
   22.0195    6.5293   36.6586 C   0  0  0  0  0  0  0  0  0  0  0  0
   23.2492    5.8991   37.3280 C   0  0  0  0  0  0  0  0  0  0  0  0
   22.9860    5.1862   38.3371 O   0  0  0  0  0  1  0  0  0  0  0  0
   24.3790    6.1790   36.8354 O   0  0  0  0  0  0  0  0  0  0  0  0
   21.8615    7.8118   34.1745 N   0  0  0  0  0  0  0  0  0  0  0  0
   22.0973    8.7313   35.2992 C   0  0  2  0  0  0  0  0  0  0  0  0
   23.6296    8.7742   35.4692 C   0  0  0  0  0  0  0  0  0  0  0  0
   24.3106    7.7678   35.6736 O   0  0  0  0  0  0  0  0  0  0  0  0
   21.5544    8.1992   36.6394 C   0  0  0  0  0  0  0  0  0  0  0  0
   22.0964    8.9151   37.8572 C   0  0  0  0  0  0  0  0  0  0  0  0
   21.7430   10.3941   37.9232 C   0  0  0  0  0  0  0  0  0  0  0  0
   21.7009   10.9549   39.0509 O   0  0  0  0  0  1  0  0  0  0  0  0
   21.5105   10.9244   36.7973 O   0  0  0  0  0  0  0  0  0  0  0  0
   24.1910   10.0651   35.2738 N   0  0  0  0  0  0  0  0  0  0  0  0
   25.5420   10.2321   35.8187 C   0  0  2  0  0  0  0  0  0  0  0  0
   26.4962    9.0836   35.4601 C   0  0  0  0  0  0  0  0  0  0  0  0
   27.4211    9.1961   34.6567 O   0  0  0  0  0  0  0  0  0  0  0  0
   25.3420   10.5713   37.2902 C   0  0  0  0  0  0  0  0  0  0  0  0
   23.9167   11.1496   37.3507 C   0  0  0  0  0  0  0  0  0  0  0  0
   23.3833   11.0798   35.9224 C   0  0  0  0  0  0  0  0  0  0  0  0
   26.3225    7.9097   36.1299 N   0  0  0  0  0  0  0  0  0  0  0  0
  1  2  2  0
  1  3  1  0
  1  4  1  0
  5  4  1  1
  5  6  1  0
  5  8  1  0
  6  7  2  0
  6 11  1  0
  8  9  1  6
  8 10  1  0
 11 12  1  0
 11 17  1  0
 12 13  1  1
 12 15  1  0
 13 14  2  0
 13 18  1  0
 15 16  1  0
 16 17  1  0
 18 19  1  0
 19 20  1  0
 19 22  1  6
 20 21  2  0
 20 26  1  0
 22 23  1  0
 23 24  1  0
 24 25  1  0
 26 27  1  0
 27 28  1  0
 27 30  1  6
 28 29  2  0
 28 37  1  0
 30 31  1  0
 31 32  1  0
 32 33  1  0
 33 34  1  0
 34 35  2  0
 34 36  1  0
 37 38  1  0
 38 39  1  0
 38 41  1  1
 39 40  2  0
 39 42  1  0
 42 43  1  0
 43 44  1  0
 43 46  1  1
 44 45  2  0
 44 53  1  0
 46 47  1  0
 47 48  1  0
 48 49  1  0
 49 50  1  0
 50 51  2  0
 50 52  1  0
 53 54  1  0
 54 55  1  0
 54 57  1  6
 55 56  2  0
 55 62  1  0
 57 58  1  0
 58 59  1  0
 59 60  2  0
 59 61  1  0
 62 63  1  0
 63 64  1  0
 63 66  1  6
 64 65  2  0
 64 70  1  0
 66 67  1  0
 67 68  1  1
 67 69  1  0
 70 71  1  0
 70 76  1  0
 71 72  1  6
 71 74  1  0
 72 73  2  0
 72 77  1  0
 74 75  1  0
 75 76  1  0
 77 78  1  0
 78 79  1  0
 78 81  1  1
 79 80  2  0
 79 82  1  0
 82 83  1  0
 83 84  1  0
 83 86  1  1
 84 85  2  0
 84 88  1  0
 86 87  1  0
 88 89  1  0
 89 90  1  0
 89 92  1  1
 90 91  2  0
 90 99  1  0
 92 93  1  0
 93 94  2  0
 93 95  1  0
 94 96  1  0
 95 97  2  0
 96 98  2  0
 97 98  1  0
 99100  1  0
100101  1  0
100103  1  1
101102  2  0
101113  1  0
103104  1  0
104105  2  0
104106  1  0
105107  1  0
106108  2  0
106109  1  0
107108  1  0
108110  1  0
109111  2  0
110112  2  0
111112  1  0
113114  1  0
114115  1  0
114117  1  1
115116  2  0
115122  1  0
117118  1  0
118119  1  0
119120  1  0
119121  2  0
122123  1  0
123124  1  0
123126  1  1
124125  2  0
124131  1  0
126127  1  0
127128  1  0
128129  1  0
128130  2  0
131132  1  0
131137  1  0
132133  1  1
132135  1  0
133134  2  0
133138  1  0
135136  1  0
136137  1  0
M  CHG  4  35   1  51   1 120  -1 129  -1
M  END
$$$$
