
     RDKit          3D

138143  0  0  0  0  0  0  0  0999 V2000
   28.7923   17.4900   23.2153 C   0  0  0  0  0  0  0  0  0  0  0  0
   29.2966   17.6745   24.3101 O   0  0  0  0  0  0  0  0  0  0  0  0
   29.5309   16.7949   22.0980 C   0  0  0  0  0  0  0  0  0  0  0  0
   27.5425   17.9433   22.8533 N   0  0  0  0  0  0  0  0  0  0  0  0
   26.7332   18.8087   23.7052 C   0  0  2  0  0  0  0  0  0  0  0  0
   25.3153   18.1897   23.7867 C   0  0  0  0  0  0  0  0  0  0  0  0
   24.6080   18.1042   22.7734 O   0  0  0  0  0  0  0  0  0  0  0  0
   26.5711   20.2731   23.2207 C   0  0  1  0  0  0  0  0  0  0  0  0
   25.8915   21.1761   24.2481 C   0  0  0  0  0  0  0  0  0  0  0  0
   27.8831   20.9090   22.7478 C   0  0  0  0  0  0  0  0  0  0  0  0
   24.8400   17.8452   25.0357 N   0  0  0  0  0  0  0  0  0  0  0  0
   23.4927   17.3751   25.3597 C   0  0  2  0  0  0  0  0  0  0  0  0
   22.4935   18.5636   25.3969 C   0  0  0  0  0  0  0  0  0  0  0  0
   22.7089   19.5879   26.0429 O   0  0  0  0  0  0  0  0  0  0  0  0
   23.6634   16.8180   26.7707 C   0  0  0  0  0  0  0  0  0  0  0  0
   24.6569   17.7952   27.4002 C   0  0  0  0  0  0  0  0  0  0  0  0
   25.5647   18.2061   26.2420 C   0  0  0  0  0  0  0  0  0  0  0  0
   21.3060   18.3719   24.7072 N   0  0  0  0  0  0  0  0  0  0  0  0
   20.3460   19.4854   24.6094 C   0  0  2  0  0  0  0  0  0  0  0  0
   18.8883   19.0339   24.8255 C   0  0  0  0  0  0  0  0  0  0  0  0
   18.4176   18.0917   24.2007 O   0  0  0  0  0  0  0  0  0  0  0  0
   20.4651   20.1825   23.2437 C   0  0  0  0  0  0  0  0  0  0  0  0
   21.0449   19.2475   22.1814 C   0  0  0  0  0  0  0  0  0  0  0  0
   19.9085   17.8572   21.8567 S   0  0  0  0  0  0  0  0  0  0  0  0
   20.3155   17.5366   20.1281 C   0  0  0  0  0  0  0  0  0  0  0  0
   18.1995   19.6818   25.8441 N   0  0  0  0  0  0  0  0  0  0  0  0
   16.9593   19.0657   26.3381 C   0  0  2  0  0  0  0  0  0  0  0  0
   15.7381   19.7759   25.7331 C   0  0  0  0  0  0  0  0  0  0  0  0
   14.6374   19.7286   26.2895 O   0  0  0  0  0  0  0  0  0  0  0  0
   16.8564   19.2150   27.8617 C   0  0  0  0  0  0  0  0  0  0  0  0
   17.0753   20.6277   28.4050 C   0  0  0  0  0  0  0  0  0  0  0  0
   18.0624   21.4370   27.5811 C   0  0  0  0  0  0  0  0  0  0  0  0
   18.2712   22.7670   28.1826 N   0  0  0  0  0  0  0  0  0  0  0  0
   19.2210   23.0322   29.0883 C   0  0  0  0  0  0  0  0  0  0  0  0
   20.5114   22.7836   28.8563 N   0  0  0  0  0  4  0  0  0  0  0  0
   18.8659   23.5538   30.2806 N   0  0  0  0  0  0  0  0  0  0  0  0
   15.9639   20.3496   24.5001 N   0  0  0  0  0  0  0  0  0  0  0  0
   14.9068   20.9897   23.7285 C   0  0  2  0  0  0  0  0  0  0  0  0
   13.5803   20.9348   24.5264 C   0  0  0  0  0  0  0  0  0  0  0  0
   13.5072   21.4194   25.6625 O   0  0  0  0  0  0  0  0  0  0  0  0
   14.8587   20.4235   22.3224 C   0  0  0  0  0  0  0  0  0  0  0  0
   12.4625   20.4408   23.8843 N   0  0  0  0  0  0  0  0  0  0  0  0
   11.5883   19.4295   24.4840 C   0  0  2  0  0  0  0  0  0  0  0  0
   10.3159   19.1929   23.6138 C   0  0  0  0  0  0  0  0  0  0  0  0
    9.9712   19.9811   22.7307 O   0  0  0  0  0  0  0  0  0  0  0  0
   11.1231   19.8077   25.9063 C   0  0  0  0  0  0  0  0  0  0  0  0
   10.8342   21.2836   26.2095 C   0  0  0  0  0  0  0  0  0  0  0  0
    9.3533   21.6497   26.2800 C   0  0  0  0  0  0  0  0  0  0  0  0
    8.6874   21.2101   27.5015 N   0  0  0  0  0  0  0  0  0  0  0  0
    7.4369   20.7338   27.5615 C   0  0  0  0  0  0  0  0  0  0  0  0
    6.9230   20.0185   26.5500 N   0  0  0  0  0  4  0  0  0  0  0  0
    6.6720   20.9587   28.6189 N   0  0  0  0  0  0  0  0  0  0  0  0
    9.5211   18.1218   23.9707 N   0  0  0  0  0  0  0  0  0  0  0  0
    8.6396   17.4783   22.9835 C   0  0  2  0  0  0  0  0  0  0  0  0
    9.3298   16.1644   22.5564 C   0  0  0  0  0  0  0  0  0  0  0  0
    9.9047   15.4591   23.3714 O   0  0  0  0  0  0  0  0  0  0  0  0
    8.4064   18.4016   21.7799 C   0  0  0  0  0  0  0  0  0  0  0  0
    9.3371   19.5988   21.5629 C   0  0  0  0  0  0  0  0  0  0  0  0
    8.6451   20.8714   21.1059 C   0  0  0  0  0  0  0  0  0  0  0  0
    7.7734   21.4332   21.7665 O   0  0  0  0  0  0  0  0  0  0  0  0
    9.0208   21.3641   19.8913 N   0  0  0  0  0  0  0  0  0  0  0  0
    9.3051   15.9229   21.2061 N   0  0  0  0  0  0  0  0  0  0  0  0
    9.9658   14.7808   20.5674 C   0  0  2  0  0  0  0  0  0  0  0  0
   10.4885   13.8499   21.7079 C   0  0  0  0  0  0  0  0  0  0  0  0
   11.2094   14.2858   22.6131 O   0  0  0  0  0  0  0  0  0  0  0  0
   11.1582   15.3429   19.7634 C   0  0  0  0  0  0  0  0  0  0  0  0
   11.9765   14.3654   18.9008 C   0  0  1  0  0  0  0  0  0  0  0  0
   11.5869   14.4323   17.4254 C   0  0  0  0  0  0  0  0  0  0  0  0
   13.4678   14.7053   19.0338 C   0  0  0  0  0  0  0  0  0  0  0  0
   10.2529   12.4822   21.6308 N   0  0  0  0  0  0  0  0  0  0  0  0
   10.7625   11.5975   22.7002 C   0  0  2  0  0  0  0  0  0  0  0  0
   12.2964   11.4418   22.8933 C   0  0  0  0  0  0  0  0  0  0  0  0
   12.8084   11.3388   24.0048 O   0  0  0  0  0  0  0  0  0  0  0  0
   10.1600   10.2143   22.3916 C   0  0  0  0  0  0  0  0  0  0  0  0
    9.2783   10.4219   21.1658 C   0  0  0  0  0  0  0  0  0  0  0  0
    9.0069   11.9058   21.1619 C   0  0  0  0  0  0  0  0  0  0  0  0
   13.0487   11.5786   21.7522 N   0  0  0  0  0  0  0  0  0  0  0  0
   14.1592   10.6723   21.4811 C   0  0  2  0  0  0  0  0  0  0  0  0
   14.1673    9.4416   22.4095 C   0  0  0  0  0  0  0  0  0  0  0  0
   13.1458    9.0793   23.0144 O   0  0  0  0  0  0  0  0  0  0  0  0
   15.4681   11.4381   21.6607 C   0  0  0  0  0  0  0  0  0  0  0  0
   15.3188    8.6794   22.4385 N   0  0  0  0  0  0  0  0  0  0  0  0
   15.3994    7.4532   23.2362 C   0  0  2  0  0  0  0  0  0  0  0  0
   16.8512    6.9272   23.2796 C   0  0  0  0  0  0  0  0  0  0  0  0
   17.2811    6.0670   22.5043 O   0  0  0  0  0  0  0  0  0  0  0  0
   14.4547    6.3786   22.6570 C   0  0  0  0  0  0  0  0  0  0  0  0
   14.5928    6.2075   21.2428 O   0  0  0  0  0  0  0  0  0  0  0  0
   17.6335    7.4911   24.2713 N   0  0  0  0  0  0  0  0  0  0  0  0
   17.7478    6.9288   25.6183 C   0  0  2  0  0  0  0  0  0  0  0  0
   17.8100    5.3829   25.6946 C   0  0  0  0  0  0  0  0  0  0  0  0
   16.8857    4.7795   26.2365 O   0  0  0  0  0  0  0  0  0  0  0  0
   16.7553    7.4956   26.6412 C   0  0  0  0  0  0  0  0  0  0  0  0
   17.1209    7.1640   28.0660 C   0  0  0  0  0  0  0  0  0  0  0  0
   17.4903    8.1694   28.9641 C   0  0  0  0  0  0  0  0  0  0  0  0
   17.1009    5.8357   28.5121 C   0  0  0  0  0  0  0  0  0  0  0  0
   17.7983    7.8663   30.2901 C   0  0  0  0  0  0  0  0  0  0  0  0
   17.4208    5.5270   29.8354 C   0  0  0  0  0  0  0  0  0  0  0  0
   17.7521    6.5434   30.7245 C   0  0  0  0  0  0  0  0  0  0  0  0
   18.8475    4.7814   25.0201 N   0  0  0  0  0  0  0  0  0  0  0  0
   20.2834    5.1032   25.2188 C   0  0  2  0  0  0  0  0  0  0  0  0
   21.0718    3.7746   25.5566 C   0  0  0  0  0  0  0  0  0  0  0  0
   21.6383    3.5637   26.6260 O   0  0  0  0  0  0  0  0  0  0  0  0
   20.4680    6.1829   26.3161 C   0  0  0  0  0  0  0  0  0  0  0  0
   21.1229    7.4713   25.9242 C   0  0  0  0  0  0  0  0  0  0  0  0
   20.6227    8.7343   26.1627 C   0  0  0  0  0  0  0  0  0  0  0  0
   22.3301    7.6335   25.1788 C   0  0  0  0  0  0  0  0  0  0  0  0
   21.5099    9.6528   25.6665 N   0  0  0  0  0  0  0  0  0  0  0  0
   22.5497    9.0068   25.0359 C   0  0  0  0  0  0  0  0  0  0  0  0
   23.2639    6.7500   24.5988 C   0  0  0  0  0  0  0  0  0  0  0  0
   23.6617    9.5426   24.3730 C   0  0  0  0  0  0  0  0  0  0  0  0
   24.3720    7.2603   23.9163 C   0  0  0  0  0  0  0  0  0  0  0  0
   24.5619    8.6405   23.8004 C   0  0  0  0  0  0  0  0  0  0  0  0
   21.1691    2.8544   24.5240 N   0  0  0  0  0  0  0  0  0  0  0  0
   20.9154    1.4086   24.7205 C   0  0  2  0  0  0  0  0  0  0  0  0
   19.7192    0.9830   25.6568 C   0  0  0  0  0  0  0  0  0  0  0  0
   18.7379    1.6804   25.9108 O   0  0  0  0  0  0  0  0  0  0  0  0
   22.1792    0.6129   25.1020 C   0  0  0  0  0  0  0  0  0  0  0  0
   21.9567   -0.3739   26.2448 C   0  0  0  0  0  0  0  0  0  0  0  0
   23.2102   -1.1429   26.6862 C   0  0  0  0  0  0  0  0  0  0  0  0
   23.2168   -2.3626   26.3575 O   0  0  0  0  0  1  0  0  0  0  0  0
   24.0741   -0.5022   27.3499 O   0  0  0  0  0  0  0  0  0  0  0  0
   19.8876   -0.2823   26.2138 N   0  0  0  0  0  0  0  0  0  0  0  0
   18.8098   -1.2479   26.4817 C   0  0  2  0  0  0  0  0  0  0  0  0
   18.4561   -1.8480   25.1056 C   0  0  0  0  0  0  0  0  0  0  0  0
   18.9948   -1.4874   24.0577 O   0  0  0  0  0  0  0  0  0  0  0  0
   17.5125   -0.5831   26.9807 C   0  0  0  0  0  0  0  0  0  0  0  0
   17.7239    0.4651   28.0511 C   0  0  0  0  0  0  0  0  0  0  0  0
   17.5961    1.8993   27.5576 C   0  0  0  0  0  0  0  0  0  0  0  0
   17.7682    2.8383   28.3800 O   0  0  0  0  0  1  0  0  0  0  0  0
   17.3103    2.0031   26.3285 O   0  0  0  0  0  0  0  0  0  0  0  0
   17.5233   -2.9182   25.1708 N   0  0  0  0  0  0  0  0  0  0  0  0
   17.9804   -4.1652   24.5496 C   0  0  2  0  0  0  0  0  0  0  0  0
   19.4075   -4.5654   24.9512 C   0  0  0  0  0  0  0  0  0  0  0  0
   19.8210   -5.7237   24.9209 O   0  0  0  0  0  0  0  0  0  0  0  0
   17.6634   -4.0147   23.0672 C   0  0  0  0  0  0  0  0  0  0  0  0
   16.5330   -2.9705   23.0303 C   0  0  0  0  0  0  0  0  0  0  0  0
   16.2944   -2.5706   24.4839 C   0  0  0  0  0  0  0  0  0  0  0  0
   20.2546   -3.5547   25.2944 N   0  0  0  0  0  0  0  0  0  0  0  0
  1  2  2  0
  1  3  1  0
  1  4  1  0
  5  4  1  6
  5  6  1  0
  5  8  1  0
  6  7  2  0
  6 11  1  0
  8  9  1  1
  8 10  1  0
 11 12  1  0
 11 17  1  0
 12 13  1  1
 12 15  1  0
 13 14  2  0
 13 18  1  0
 15 16  1  0
 16 17  1  0
 18 19  1  0
 19 20  1  0
 19 22  1  6
 20 21  2  0
 20 26  1  0
 22 23  1  0
 23 24  1  0
 24 25  1  0
 26 27  1  0
 27 28  1  0
 27 30  1  1
 28 29  2  0
 28 37  1  0
 30 31  1  0
 31 32  1  0
 32 33  1  0
 33 34  1  0
 34 35  2  0
 34 36  1  0
 37 38  1  0
 38 39  1  0
 38 41  1  6
 39 40  2  0
 39 42  1  0
 42 43  1  0
 43 44  1  0
 43 46  1  1
 44 45  2  0
 44 53  1  0
 46 47  1  0
 47 48  1  0
 48 49  1  0
 49 50  1  0
 50 51  2  0
 50 52  1  0
 53 54  1  0
 54 55  1  0
 54 57  1  6
 55 56  2  0
 55 62  1  0
 57 58  1  0
 58 59  1  0
 59 60  2  0
 59 61  1  0
 62 63  1  0
 63 64  1  0
 63 66  1  1
 64 65  2  0
 64 70  1  0
 66 67  1  0
 67 68  1  6
 67 69  1  0
 70 71  1  0
 70 76  1  0
 71 72  1  6
 71 74  1  0
 72 73  2  0
 72 77  1  0
 74 75  1  0
 75 76  1  0
 77 78  1  0
 78 79  1  0
 78 81  1  1
 79 80  2  0
 79 82  1  0
 82 83  1  0
 83 84  1  0
 83 86  1  6
 84 85  2  0
 84 88  1  0
 86 87  1  0
 88 89  1  0
 89 90  1  0
 89 92  1  1
 90 91  2  0
 90 99  1  0
 92 93  1  0
 93 94  2  0
 93 95  1  0
 94 96  1  0
 95 97  2  0
 96 98  2  0
 97 98  1  0
 99100  1  0
100101  1  0
100103  1  1
101102  2  0
101113  1  0
103104  1  0
104105  2  0
104106  1  0
105107  1  0
106108  2  0
106109  1  0
107108  1  0
108110  1  0
109111  2  0
110112  2  0
111112  1  0
113114  1  0
114115  1  0
114117  1  1
115116  2  0
115122  1  0
117118  1  0
118119  1  0
119120  1  0
119121  2  0
122123  1  0
123124  1  0
123126  1  6
124125  2  0
124131  1  0
126127  1  0
127128  1  0
128129  1  0
128130  2  0
131132  1  0
131137  1  0
132133  1  6
132135  1  0
133134  2  0
133138  1  0
135136  1  0
136137  1  0
M  CHG  4  35   1  51   1 120  -1 129  -1
M  END
$$$$
