
     RDKit          3D

138143  0  0  0  0  0  0  0  0999 V2000
   24.9643    3.3134   35.8811 C   0  0  0  0  0  0  0  0  0  0  0  0
   25.1932    2.2016   36.3265 O   0  0  0  0  0  0  0  0  0  0  0  0
   24.8726    4.5305   36.7683 C   0  0  0  0  0  0  0  0  0  0  0  0
   24.7006    3.5756   34.5543 N   0  0  0  0  0  0  0  0  0  0  0  0
   24.5662    4.9280   34.0228 C   0  0  2  0  0  0  0  0  0  0  0  0
   23.3676    4.9269   33.0413 C   0  0  0  0  0  0  0  0  0  0  0  0
   23.3771    4.1993   32.0389 O   0  0  0  0  0  0  0  0  0  0  0  0
   25.7951    5.4757   33.2509 C   0  0  1  0  0  0  0  0  0  0  0  0
   25.5861    6.8885   32.7096 C   0  0  0  0  0  0  0  0  0  0  0  0
   27.1000    5.4071   34.0521 C   0  0  0  0  0  0  0  0  0  0  0  0
   22.3555    5.8371   33.2687 N   0  0  0  0  0  0  0  0  0  0  0  0
   20.9880    5.7716   32.7524 C   0  0  2  0  0  0  0  0  0  0  0  0
   20.9435    6.2168   31.2650 C   0  0  0  0  0  0  0  0  0  0  0  0
   21.2641    7.3482   30.9041 O   0  0  0  0  0  0  0  0  0  0  0  0
   20.2578    6.8041   33.6077 C   0  0  0  0  0  0  0  0  0  0  0  0
   21.3070    7.9036   33.7763 C   0  0  0  0  0  0  0  0  0  0  0  0
   22.6358    7.1510   33.8218 C   0  0  0  0  0  0  0  0  0  0  0  0
   20.4539    5.2768   30.3709 N   0  0  0  0  0  0  0  0  0  0  0  0
   20.4610    5.5861   28.9304 C   0  0  2  0  0  0  0  0  0  0  0  0
   19.8003    6.9414   28.6104 C   0  0  0  0  0  0  0  0  0  0  0  0
   20.4694    7.9057   28.2612 O   0  0  0  0  0  0  0  0  0  0  0  0
   19.7529    4.4755   28.1362 C   0  0  0  0  0  0  0  0  0  0  0  0
   20.6374    3.2367   27.9869 C   0  0  0  0  0  0  0  0  0  0  0  0
   19.7324    1.8963   27.1420 S   0  0  0  0  0  0  0  0  0  0  0  0
   18.3748    1.6710   28.3093 C   0  0  0  0  0  0  0  0  0  0  0  0
   18.4106    6.9560   28.6302 N   0  0  0  0  0  0  0  0  0  0  0  0
   17.7286    8.1985   28.2398 C   0  0  2  0  0  0  0  0  0  0  0  0
   18.3908    8.7949   26.9876 C   0  0  0  0  0  0  0  0  0  0  0  0
   19.5201    8.4402   26.6382 O   0  0  0  0  0  0  0  0  0  0  0  0
   17.8468    9.2477   29.3531 C   0  0  0  0  0  0  0  0  0  0  0  0
   16.6651    9.3222   30.3210 C   0  0  0  0  0  0  0  0  0  0  0  0
   15.6652    8.1947   30.1289 C   0  0  0  0  0  0  0  0  0  0  0  0
   16.0504    7.0185   30.9306 N   0  0  0  0  0  0  0  0  0  0  0  0
   15.5948    6.7802   32.1669 C   0  0  0  0  0  0  0  0  0  0  0  0
   15.8822    7.5807   33.1951 N   0  0  0  0  0  4  0  0  0  0  0  0
   14.8329    5.6894   32.3883 N   0  0  0  0  0  0  0  0  0  0  0  0
   17.6708    9.8056   26.3874 N   0  0  0  0  0  0  0  0  0  0  0  0
   17.8197   10.1429   24.9779 C   0  0  2  0  0  0  0  0  0  0  0  0
   17.2210   11.5476   24.7177 C   0  0  0  0  0  0  0  0  0  0  0  0
   16.7666   11.8433   23.6055 O   0  0  0  0  0  0  0  0  0  0  0  0
   17.2872    9.0230   24.1049 C   0  0  0  0  0  0  0  0  0  0  0  0
   17.1025   12.4062   25.7922 N   0  0  0  0  0  0  0  0  0  0  0  0
   18.1118   13.4196   26.1098 C   0  0  2  0  0  0  0  0  0  0  0  0
   17.5289   14.8601   25.9790 C   0  0  0  0  0  0  0  0  0  0  0  0
   17.0326   15.4548   26.9382 O   0  0  0  0  0  0  0  0  0  0  0  0
   19.3564   13.3304   25.2013 C   0  0  0  0  0  0  0  0  0  0  0  0
   20.5259   12.4462   25.6531 C   0  0  0  0  0  0  0  0  0  0  0  0
   21.4101   13.0524   26.7406 C   0  0  0  0  0  0  0  0  0  0  0  0
   22.6607   13.6184   26.2463 N   0  0  0  0  0  0  0  0  0  0  0  0
   23.8825   13.2151   26.6189 C   0  0  0  0  0  0  0  0  0  0  0  0
   24.8000   12.8634   25.7061 N   0  0  0  0  0  4  0  0  0  0  0  0
   24.2174   13.1488   27.8985 N   0  0  0  0  0  0  0  0  0  0  0  0
   17.4780   15.3861   24.7034 N   0  0  0  0  0  0  0  0  0  0  0  0
   18.7084   15.8067   24.0144 C   0  0  2  0  0  0  0  0  0  0  0  0
   18.7844   17.3447   24.1331 C   0  0  0  0  0  0  0  0  0  0  0  0
   19.8586   17.9262   24.1290 O   0  0  0  0  0  0  0  0  0  0  0  0
   18.6880   15.3619   22.5457 C   0  0  0  0  0  0  0  0  0  0  0  0
   19.3135   16.2674   21.4801 C   0  0  0  0  0  0  0  0  0  0  0  0
   19.2183   15.7410   20.0584 C   0  0  0  0  0  0  0  0  0  0  0  0
   18.1468   15.5295   19.4937 O   0  0  0  0  0  0  0  0  0  0  0  0
   20.3985   15.4819   19.4268 N   0  0  0  0  0  0  0  0  0  0  0  0
   17.5728   17.9602   24.3217 N   0  0  0  0  0  0  0  0  0  0  0  0
   17.3341   19.0072   25.3195 C   0  0  2  0  0  0  0  0  0  0  0  0
   15.8677   19.5091   25.1238 C   0  0  0  0  0  0  0  0  0  0  0  0
   15.2566   20.0783   26.0358 O   0  0  0  0  0  0  0  0  0  0  0  0
   18.3239   20.1526   25.0155 C   0  0  0  0  0  0  0  0  0  0  0  0
   18.1174   21.4990   25.7321 C   0  0  1  0  0  0  0  0  0  0  0  0
   17.3497   21.3432   27.0433 C   0  0  0  0  0  0  0  0  0  0  0  0
   19.4874   22.1235   26.0329 C   0  0  0  0  0  0  0  0  0  0  0  0
   15.1906   19.1906   23.9525 N   0  0  0  0  0  0  0  0  0  0  0  0
   15.1846   20.1566   22.8332 C   0  0  2  0  0  0  0  0  0  0  0  0
   14.4717   21.5255   23.0124 C   0  0  0  0  0  0  0  0  0  0  0  0
   13.9595   22.1242   22.0704 O   0  0  0  0  0  0  0  0  0  0  0  0
   14.5236   19.4042   21.6633 C   0  0  0  0  0  0  0  0  0  0  0  0
   14.2407   18.0031   22.1922 C   0  0  0  0  0  0  0  0  0  0  0  0
   15.1768   17.8634   23.3668 C   0  0  0  0  0  0  0  0  0  0  0  0
   14.5856   22.0877   24.2605 N   0  0  0  0  0  0  0  0  0  0  0  0
   14.1141   23.4455   24.5097 C   0  0  2  0  0  0  0  0  0  0  0  0
   12.6503   23.6596   24.0758 C   0  0  0  0  0  0  0  0  0  0  0  0
   11.7049   23.4166   24.8425 O   0  0  0  0  0  0  0  0  0  0  0  0
   15.0063   24.4196   23.7435 C   0  0  0  0  0  0  0  0  0  0  0  0
   12.4356   24.2581   22.8497 N   0  0  0  0  0  0  0  0  0  0  0  0
   11.0806   24.4855   22.3411 C   0  0  2  0  0  0  0  0  0  0  0  0
   10.6744   23.3667   21.3565 C   0  0  0  0  0  0  0  0  0  0  0  0
   11.4851   22.5806   20.8560 O   0  0  0  0  0  0  0  0  0  0  0  0
   10.9950   25.8649   21.6535 C   0  0  0  0  0  0  0  0  0  0  0  0
   11.9807   26.7915   22.1207 O   0  0  0  0  0  0  0  0  0  0  0  0
    9.3222   23.3232   21.0681 N   0  0  0  0  0  0  0  0  0  0  0  0
    8.7947   23.2986   19.7025 C   0  0  2  0  0  0  0  0  0  0  0  0
    9.6015   22.4492   18.6891 C   0  0  0  0  0  0  0  0  0  0  0  0
   10.8177   22.3473   18.8384 O   0  0  0  0  0  0  0  0  0  0  0  0
    8.4456   24.6740   19.1203 C   0  0  0  0  0  0  0  0  0  0  0  0
    7.4584   25.4400   19.9643 C   0  0  0  0  0  0  0  0  0  0  0  0
    6.1239   25.5676   19.5686 C   0  0  0  0  0  0  0  0  0  0  0  0
    7.8673   26.0431   21.1612 C   0  0  0  0  0  0  0  0  0  0  0  0
    5.2039   26.2496   20.3646 C   0  0  0  0  0  0  0  0  0  0  0  0
    6.9521   26.7375   21.9544 C   0  0  0  0  0  0  0  0  0  0  0  0
    5.6207   26.8247   21.5631 C   0  0  0  0  0  0  0  0  0  0  0  0
    8.8665   21.7505   17.7592 N   0  0  0  0  0  0  0  0  0  0  0  0
    9.3912   21.2693   16.4562 C   0  0  2  0  0  0  0  0  0  0  0  0
    8.4137   21.7286   15.3009 C   0  0  0  0  0  0  0  0  0  0  0  0
    8.4922   22.8094   14.7222 O   0  0  0  0  0  0  0  0  0  0  0  0
    9.5943   19.7323   16.4681 C   0  0  0  0  0  0  0  0  0  0  0  0
   10.1882   19.0974   15.2488 C   0  0  0  0  0  0  0  0  0  0  0  0
   11.4655   19.3073   14.7725 C   0  0  0  0  0  0  0  0  0  0  0  0
    9.5345   18.2278   14.3238 C   0  0  0  0  0  0  0  0  0  0  0  0
   11.6396   18.5440   13.6482 N   0  0  0  0  0  0  0  0  0  0  0  0
   10.4661   17.8947   13.3360 C   0  0  0  0  0  0  0  0  0  0  0  0
    8.2353   17.6898   14.2168 C   0  0  0  0  0  0  0  0  0  0  0  0
   10.1798   17.0342   12.2681 C   0  0  0  0  0  0  0  0  0  0  0  0
    7.9197   16.8432   13.1501 C   0  0  0  0  0  0  0  0  0  0  0  0
    8.8805   16.5269   12.1851 C   0  0  0  0  0  0  0  0  0  0  0  0
    7.3732   20.8587   15.0128 N   0  0  0  0  0  0  0  0  0  0  0  0
    7.1738   20.2754   13.6661 C   0  0  2  0  0  0  0  0  0  0  0  0
    8.0382   20.8414   12.4741 C   0  0  0  0  0  0  0  0  0  0  0  0
    8.3350   22.0249   12.3160 O   0  0  0  0  0  0  0  0  0  0  0  0
    5.6931   20.2057   13.2437 C   0  0  0  0  0  0  0  0  0  0  0  0
    4.8112   21.2390   13.9392 C   0  0  0  0  0  0  0  0  0  0  0  0
    3.9645   20.6902   15.0965 C   0  0  0  0  0  0  0  0  0  0  0  0
    4.5666   19.8621   15.8364 O   0  0  0  0  0  1  0  0  0  0  0  0
    2.7664   21.0854   15.1705 O   0  0  0  0  0  0  0  0  0  0  0  0
    8.4267   19.8573   11.5683 N   0  0  0  0  0  0  0  0  0  0  0  0
    8.2403   19.9175   10.1097 C   0  0  2  0  0  0  0  0  0  0  0  0
    7.6779   18.5357    9.7188 C   0  0  0  0  0  0  0  0  0  0  0  0
    7.9327   17.9866    8.6455 O   0  0  0  0  0  0  0  0  0  0  0  0
    9.5658   20.0506    9.3357 C   0  0  0  0  0  0  0  0  0  0  0  0
    9.6879   21.3239    8.5275 C   0  0  0  0  0  0  0  0  0  0  0  0
    8.6747   22.3987    8.8949 C   0  0  0  0  0  0  0  0  0  0  0  0
    7.4589   22.1973    8.6321 O   0  0  0  0  0  1  0  0  0  0  0  0
    9.1789   23.4252    9.4380 O   0  0  0  0  0  0  0  0  0  0  0  0
    6.9186   17.9151   10.7475 N   0  0  0  0  0  0  0  0  0  0  0  0
    5.6287   17.3714   10.3108 C   0  0  2  0  0  0  0  0  0  0  0  0
    5.7157   16.5413    9.0219 C   0  0  0  0  0  0  0  0  0  0  0  0
    4.8003   16.4610    8.2039 O   0  0  0  0  0  0  0  0  0  0  0  0
    4.6640   18.5497   10.3466 C   0  0  0  0  0  0  0  0  0  0  0  0
    5.3052   19.5284   11.3468 C   0  0  0  0  0  0  0  0  0  0  0  0
    6.6037   18.8646   11.7972 C   0  0  0  0  0  0  0  0  0  0  0  0
    6.9038   15.9240    8.7686 N   0  0  0  0  0  0  0  0  0  0  0  0
  1  2  2  0
  1  3  1  0
  1  4  1  0
  5  4  1  6
  5  6  1  0
  5  8  1  0
  6  7  2  0
  6 11  1  0
  8  9  1  1
  8 10  1  0
 11 12  1  0
 11 17  1  0
 12 13  1  6
 12 15  1  0
 13 14  2  0
 13 18  1  0
 15 16  1  0
 16 17  1  0
 18 19  1  0
 19 20  1  0
 19 22  1  6
 20 21  2  0
 20 26  1  0
 22 23  1  0
 23 24  1  0
 24 25  1  0
 26 27  1  0
 27 28  1  0
 27 30  1  1
 28 29  2  0
 28 37  1  0
 30 31  1  0
 31 32  1  0
 32 33  1  0
 33 34  1  0
 34 35  2  0
 34 36  1  0
 37 38  1  0
 38 39  1  0
 38 41  1  6
 39 40  2  0
 39 42  1  0
 42 43  1  0
 43 44  1  0
 43 46  1  6
 44 45  2  0
 44 53  1  0
 46 47  1  0
 47 48  1  0
 48 49  1  0
 49 50  1  0
 50 51  2  0
 50 52  1  0
 53 54  1  0
 54 55  1  0
 54 57  1  6
 55 56  2  0
 55 62  1  0
 57 58  1  0
 58 59  1  0
 59 60  2  0
 59 61  1  0
 62 63  1  0
 63 64  1  0
 63 66  1  6
 64 65  2  0
 64 70  1  0
 66 67  1  0
 67 68  1  1
 67 69  1  0
 70 71  1  0
 70 76  1  0
 71 72  1  1
 71 74  1  0
 72 73  2  0
 72 77  1  0
 74 75  1  0
 75 76  1  0
 77 78  1  0
 78 79  1  0
 78 81  1  6
 79 80  2  0
 79 82  1  0
 82 83  1  0
 83 84  1  0
 83 86  1  6
 84 85  2  0
 84 88  1  0
 86 87  1  0
 88 89  1  0
 89 90  1  0
 89 92  1  6
 90 91  2  0
 90 99  1  0
 92 93  1  0
 93 94  2  0
 93 95  1  0
 94 96  1  0
 95 97  2  0
 96 98  2  0
 97 98  1  0
 99100  1  0
100101  1  0
100103  1  1
101102  2  0
101113  1  0
103104  1  0
104105  2  0
104106  1  0
105107  1  0
106108  2  0
106109  1  0
107108  1  0
108110  1  0
109111  2  0
110112  2  0
111112  1  0
113114  1  0
114115  1  0
114117  1  6
115116  2  0
115122  1  0
117118  1  0
118119  1  0
119120  1  0
119121  2  0
122123  1  0
123124  1  0
123126  1  6
124125  2  0
124131  1  0
126127  1  0
127128  1  0
128129  1  0
128130  2  0
131132  1  0
131137  1  0
132133  1  6
132135  1  0
133134  2  0
133138  1  0
135136  1  0
136137  1  0
M  CHG  4  35   1  51   1 120  -1 129  -1
M  END
$$$$
