
     RDKit          3D

138143  0  0  0  0  0  0  0  0999 V2000
   22.2380   -0.5441   32.2448 C   0  0  0  0  0  0  0  0  0  0  0  0
   22.5590   -1.6788   32.5551 O   0  0  0  0  0  0  0  0  0  0  0  0
   23.2568    0.5483   32.0312 C   0  0  0  0  0  0  0  0  0  0  0  0
   20.9343   -0.1157   32.1212 N   0  0  0  0  0  0  0  0  0  0  0  0
   20.4917    0.7901   31.0661 C   0  0  2  0  0  0  0  0  0  0  0  0
   21.2354    2.1348   31.2628 C   0  0  0  0  0  0  0  0  0  0  0  0
   22.3013    2.3555   30.6715 O   0  0  0  0  0  0  0  0  0  0  0  0
   18.9726    1.1020   31.0368 C   0  0  1  0  0  0  0  0  0  0  0  0
   18.5780    2.0718   29.9249 C   0  0  0  0  0  0  0  0  0  0  0  0
   18.0926   -0.1516   30.9783 C   0  0  0  0  0  0  0  0  0  0  0  0
   20.7253    3.0161   32.1942 N   0  0  0  0  0  0  0  0  0  0  0  0
   21.1641    4.3923   32.4282 C   0  0  2  0  0  0  0  0  0  0  0  0
   22.4818    4.4134   33.2502 C   0  0  0  0  0  0  0  0  0  0  0  0
   23.3496    3.5500   33.1296 O   0  0  0  0  0  0  0  0  0  0  0  0
   20.0324    4.9639   33.2787 C   0  0  0  0  0  0  0  0  0  0  0  0
   19.6451    3.7786   34.1636 C   0  0  0  0  0  0  0  0  0  0  0  0
   19.8690    2.5567   33.2742 C   0  0  0  0  0  0  0  0  0  0  0  0
   22.5921    5.4340   34.1822 N   0  0  0  0  0  0  0  0  0  0  0  0
   23.5140    6.5519   33.9152 C   0  0  2  0  0  0  0  0  0  0  0  0
   23.5349    7.5900   35.0543 C   0  0  0  0  0  0  0  0  0  0  0  0
   23.5928    7.2426   36.2271 O   0  0  0  0  0  0  0  0  0  0  0  0
   23.1458    7.2521   32.5962 C   0  0  0  0  0  0  0  0  0  0  0  0
   24.3056    7.2245   31.5996 C   0  0  0  0  0  0  0  0  0  0  0  0
   25.8056    6.5330   32.3751 S   0  0  0  0  0  0  0  0  0  0  0  0
   25.2033    4.8775   32.7660 C   0  0  0  0  0  0  0  0  0  0  0  0
   23.6033    8.9206   34.6584 N   0  0  0  0  0  0  0  0  0  0  0  0
   23.6320    9.9512   35.7064 C   0  0  2  0  0  0  0  0  0  0  0  0
   22.8689   11.2012   35.2406 C   0  0  0  0  0  0  0  0  0  0  0  0
   22.7226   12.1705   35.9906 O   0  0  0  0  0  0  0  0  0  0  0  0
   25.0755   10.3864   35.9911 C   0  0  0  0  0  0  0  0  0  0  0  0
   25.3042   11.8949   36.0946 C   0  0  0  0  0  0  0  0  0  0  0  0
   26.5795   12.3530   35.4078 C   0  0  0  0  0  0  0  0  0  0  0  0
   27.0576   11.3255   34.4644 N   0  0  0  0  0  0  0  0  0  0  0  0
   28.1736   11.4481   33.7347 C   0  0  0  0  0  0  0  0  0  0  0  0
   28.1679   11.3321   32.4053 N   0  0  0  0  0  4  0  0  0  0  0  0
   29.3459   11.6818   34.3597 N   0  0  0  0  0  0  0  0  0  0  0  0
   22.2921   11.0866   33.9939 N   0  0  0  0  0  0  0  0  0  0  0  0
   21.4440   12.1255   33.4246 C   0  0  2  0  0  0  0  0  0  0  0  0
   20.0055   11.9786   33.9796 C   0  0  0  0  0  0  0  0  0  0  0  0
   19.5073   10.8592   34.1521 O   0  0  0  0  0  0  0  0  0  0  0  0
   21.5729   12.1472   31.9137 C   0  0  0  0  0  0  0  0  0  0  0  0
   19.3516   13.1247   34.3853 N   0  0  0  0  0  0  0  0  0  0  0  0
   18.8432   14.1219   33.4398 C   0  0  2  0  0  0  0  0  0  0  0  0
   18.0819   13.4459   32.2585 C   0  0  0  0  0  0  0  0  0  0  0  0
   17.9080   14.0170   31.1798 O   0  0  0  0  0  0  0  0  0  0  0  0
   19.9602   15.0014   32.8390 C   0  0  0  0  0  0  0  0  0  0  0  0
   19.7647   16.5231   32.8327 C   0  0  0  0  0  0  0  0  0  0  0  0
   19.4248   17.1241   31.4706 C   0  0  0  0  0  0  0  0  0  0  0  0
   20.5853   17.3755   30.6228 N   0  0  0  0  0  0  0  0  0  0  0  0
   21.2956   18.5112   30.6162 C   0  0  0  0  0  0  0  0  0  0  0  0
   21.6365   19.1171   31.7631 N   0  0  0  0  0  4  0  0  0  0  0  0
   21.6777   19.0693   29.4776 N   0  0  0  0  0  0  0  0  0  0  0  0
   17.4976   12.2239   32.5266 N   0  0  0  0  0  0  0  0  0  0  0  0
   16.1115   12.1445   33.0142 C   0  0  2  0  0  0  0  0  0  0  0  0
   15.2140   12.7478   31.9117 C   0  0  0  0  0  0  0  0  0  0  0  0
   14.5706   13.7674   32.1087 O   0  0  0  0  0  0  0  0  0  0  0  0
   15.9564   12.9064   34.3374 C   0  0  0  0  0  0  0  0  0  0  0  0
   16.5566   14.3097   34.4684 C   0  0  0  0  0  0  0  0  0  0  0  0
   16.7028   14.8115   35.8946 C   0  0  0  0  0  0  0  0  0  0  0  0
   17.4100   15.7707   36.1973 O   0  0  0  0  0  0  0  0  0  0  0  0
   16.0210   14.1222   36.8534 N   0  0  0  0  0  0  0  0  0  0  0  0
   15.1496   12.0033   30.7611 N   0  0  0  0  0  0  0  0  0  0  0  0
   15.6354   12.4677   29.4584 C   0  0  2  0  0  0  0  0  0  0  0  0
   14.6659   11.9007   28.3725 C   0  0  0  0  0  0  0  0  0  0  0  0
   14.1623   10.7770   28.4850 O   0  0  0  0  0  0  0  0  0  0  0  0
   17.0455   11.8690   29.2645 C   0  0  0  0  0  0  0  0  0  0  0  0
   18.0020   12.5691   28.2826 C   0  0  1  0  0  0  0  0  0  0  0  0
   19.3896   11.9307   28.2744 C   0  0  0  0  0  0  0  0  0  0  0  0
   17.4140   12.4911   26.8665 C   0  0  0  0  0  0  0  0  0  0  0  0
   14.4725   12.6133   27.1950 N   0  0  0  0  0  0  0  0  0  0  0  0
   14.8220   14.0492   27.1508 C   0  0  2  0  0  0  0  0  0  0  0  0
   14.0256   15.0542   28.0284 C   0  0  0  0  0  0  0  0  0  0  0  0
   14.5597   15.7127   28.9167 O   0  0  0  0  0  0  0  0  0  0  0  0
   14.6645   14.4507   25.6725 C   0  0  0  0  0  0  0  0  0  0  0  0
   14.2797   13.1683   24.9441 C   0  0  0  0  0  0  0  0  0  0  0  0
   14.7360   12.0723   25.8748 C   0  0  0  0  0  0  0  0  0  0  0  0
   12.6644   15.0437   27.8444 N   0  0  0  0  0  0  0  0  0  0  0  0
   12.0552   15.8059   26.7600 C   0  0  2  0  0  0  0  0  0  0  0  0
   12.3732   17.3125   26.8355 C   0  0  0  0  0  0  0  0  0  0  0  0
   13.4199   17.7287   27.3570 O   0  0  0  0  0  0  0  0  0  0  0  0
   10.5414   15.6145   26.8203 C   0  0  0  0  0  0  0  0  0  0  0  0
   11.5132   18.1735   26.1823 N   0  0  0  0  0  0  0  0  0  0  0  0
   12.0165   19.2103   25.2778 C   0  0  2  0  0  0  0  0  0  0  0  0
   11.6452   18.8826   23.8146 C   0  0  0  0  0  0  0  0  0  0  0  0
   12.2793   19.3110   22.8450 O   0  0  0  0  0  0  0  0  0  0  0  0
   13.5466   19.3492   25.4267 C   0  0  0  0  0  0  0  0  0  0  0  0
   14.1164   20.3112   24.5331 O   0  0  0  0  0  0  0  0  0  0  0  0
   10.5305   18.0755   23.6754 N   0  0  0  0  0  0  0  0  0  0  0  0
    9.8918   17.8071   22.3855 C   0  0  2  0  0  0  0  0  0  0  0  0
   10.8445   17.3652   21.2467 C   0  0  0  0  0  0  0  0  0  0  0  0
   11.7481   18.1249   20.9030 O   0  0  0  0  0  0  0  0  0  0  0  0
    8.9212   18.8939   21.9069 C   0  0  0  0  0  0  0  0  0  0  0  0
    7.4748   18.5427   22.1482 C   0  0  0  0  0  0  0  0  0  0  0  0
    7.1260   17.4344   22.9253 C   0  0  0  0  0  0  0  0  0  0  0  0
    6.4534   19.3228   21.5897 C   0  0  0  0  0  0  0  0  0  0  0  0
    5.7885   17.1277   23.1742 C   0  0  0  0  0  0  0  0  0  0  0  0
    5.1132   19.0114   21.8261 C   0  0  0  0  0  0  0  0  0  0  0  0
    4.7844   17.9260   22.6304 C   0  0  0  0  0  0  0  0  0  0  0  0
   10.6887   16.0773   20.7881 N   0  0  0  0  0  0  0  0  0  0  0  0
   11.4263   15.4950   19.6386 C   0  0  2  0  0  0  0  0  0  0  0  0
   11.8637   16.6572   18.6594 C   0  0  0  0  0  0  0  0  0  0  0  0
   12.5868   17.5955   18.9847 O   0  0  0  0  0  0  0  0  0  0  0  0
   10.5770   14.4168   18.9173 C   0  0  0  0  0  0  0  0  0  0  0  0
   11.1832   13.7274   17.7342 C   0  0  0  0  0  0  0  0  0  0  0  0
   11.9993   12.6165   17.7802 C   0  0  0  0  0  0  0  0  0  0  0  0
   11.0936   14.1242   16.3653 C   0  0  0  0  0  0  0  0  0  0  0  0
   12.3418   12.2769   16.4979 N   0  0  0  0  0  0  0  0  0  0  0  0
   11.8237   13.1978   15.6148 C   0  0  0  0  0  0  0  0  0  0  0  0
   10.4695   15.1869   15.6796 C   0  0  0  0  0  0  0  0  0  0  0  0
   11.9395   13.2590   14.2199 C   0  0  0  0  0  0  0  0  0  0  0  0
   10.5857   15.2801   14.2896 C   0  0  0  0  0  0  0  0  0  0  0  0
   11.3186   14.3301   13.5721 C   0  0  0  0  0  0  0  0  0  0  0  0
   11.3087   16.6139   17.3895 N   0  0  0  0  0  0  0  0  0  0  0  0
   12.0739   16.1700   16.2017 C   0  0  2  0  0  0  0  0  0  0  0  0
   13.5728   15.7228   16.4060 C   0  0  0  0  0  0  0  0  0  0  0  0
   13.9533   14.5584   16.5215 O   0  0  0  0  0  0  0  0  0  0  0  0
   11.9837   17.1503   15.0156 C   0  0  0  0  0  0  0  0  0  0  0  0
   10.5645   17.6342   14.7309 C   0  0  0  0  0  0  0  0  0  0  0  0
   10.2953   19.0988   15.1051 C   0  0  0  0  0  0  0  0  0  0  0  0
    9.0721   19.4129   15.1362 O   0  0  0  0  0  1  0  0  0  0  0  0
   11.3023   19.8358   15.3050 O   0  0  0  0  0  0  0  0  0  0  0  0
   14.4566   16.7968   16.4754 N   0  0  0  0  0  0  0  0  0  0  0  0
   15.8793   16.7578   16.1006 C   0  0  2  0  0  0  0  0  0  0  0  0
   16.6480   16.7699   17.4376 C   0  0  0  0  0  0  0  0  0  0  0  0
   16.8053   15.7632   18.1304 O   0  0  0  0  0  0  0  0  0  0  0  0
   16.3428   18.0232   15.3538 C   0  0  0  0  0  0  0  0  0  0  0  0
   16.4348   17.8596   13.8524 C   0  0  0  0  0  0  0  0  0  0  0  0
   17.6414   18.5394   13.2209 C   0  0  0  0  0  0  0  0  0  0  0  0
   17.5607   19.7624   12.9284 O   0  0  0  0  0  1  0  0  0  0  0  0
   18.6341   17.7747   13.0401 O   0  0  0  0  0  0  0  0  0  0  0  0
   17.2370   18.0256   17.7475 N   0  0  0  0  0  0  0  0  0  0  0  0
   18.4779   17.9427   18.5243 C   0  0  2  0  0  0  0  0  0  0  0  0
   19.4761   16.9103   17.9807 C   0  0  0  0  0  0  0  0  0  0  0  0
   20.4739   16.5409   18.5985 O   0  0  0  0  0  0  0  0  0  0  0  0
   18.0346   17.8226   19.9767 C   0  0  0  0  0  0  0  0  0  0  0  0
   16.6206   18.4311   19.9882 C   0  0  0  0  0  0  0  0  0  0  0  0
   16.3342   18.8337   18.5441 C   0  0  0  0  0  0  0  0  0  0  0  0
   19.1804   16.3459   16.7762 N   0  0  0  0  0  0  0  0  0  0  0  0
  1  2  2  0
  1  3  1  0
  1  4  1  0
  5  4  1  1
  5  6  1  0
  5  8  1  0
  6  7  2  0
  6 11  1  0
  8  9  1  6
  8 10  1  0
 11 12  1  0
 11 17  1  0
 12 13  1  1
 12 15  1  0
 13 14  2  0
 13 18  1  0
 15 16  1  0
 16 17  1  0
 18 19  1  0
 19 20  1  0
 19 22  1  6
 20 21  2  0
 20 26  1  0
 22 23  1  0
 23 24  1  0
 24 25  1  0
 26 27  1  0
 27 28  1  0
 27 30  1  6
 28 29  2  0
 28 37  1  0
 30 31  1  0
 31 32  1  0
 32 33  1  0
 33 34  1  0
 34 35  2  0
 34 36  1  0
 37 38  1  0
 38 39  1  0
 38 41  1  6
 39 40  2  0
 39 42  1  0
 42 43  1  0
 43 44  1  0
 43 46  1  6
 44 45  2  0
 44 53  1  0
 46 47  1  0
 47 48  1  0
 48 49  1  0
 49 50  1  0
 50 51  2  0
 50 52  1  0
 53 54  1  0
 54 55  1  0
 54 57  1  1
 55 56  2  0
 55 62  1  0
 57 58  1  0
 58 59  1  0
 59 60  2  0
 59 61  1  0
 62 63  1  0
 63 64  1  0
 63 66  1  6
 64 65  2  0
 64 70  1  0
 66 67  1  0
 67 68  1  6
 67 69  1  0
 70 71  1  0
 70 76  1  0
 71 72  1  1
 71 74  1  0
 72 73  2  0
 72 77  1  0
 74 75  1  0
 75 76  1  0
 77 78  1  0
 78 79  1  0
 78 81  1  1
 79 80  2  0
 79 82  1  0
 82 83  1  0
 83 84  1  0
 83 86  1  6
 84 85  2  0
 84 88  1  0
 86 87  1  0
 88 89  1  0
 89 90  1  0
 89 92  1  6
 90 91  2  0
 90 99  1  0
 92 93  1  0
 93 94  2  0
 93 95  1  0
 94 96  1  0
 95 97  2  0
 96 98  2  0
 97 98  1  0
 99100  1  0
100101  1  0
100103  1  6
101102  2  0
101113  1  0
103104  1  0
104105  2  0
104106  1  0
105107  1  0
106108  2  0
106109  1  0
107108  1  0
108110  1  0
109111  2  0
110112  2  0
111112  1  0
113114  1  0
114115  1  0
114117  1  6
115116  2  0
115122  1  0
117118  1  0
118119  1  0
119120  1  0
119121  2  0
122123  1  0
123124  1  0
123126  1  6
124125  2  0
124131  1  0
126127  1  0
127128  1  0
128129  1  0
128130  2  0
131132  1  0
131137  1  0
132133  1  6
132135  1  0
133134  2  0
133138  1  0
135136  1  0
136137  1  0
M  CHG  4  35   1  51   1 120  -1 129  -1
M  END
$$$$
