
     RDKit          3D

138143  0  0  0  0  0  0  0  0999 V2000
   25.2775    1.0039   40.1495 C   0  0  0  0  0  0  0  0  0  0  0  0
   26.2105    1.3468   40.8559 O   0  0  0  0  0  0  0  0  0  0  0  0
   24.0851    0.2604   40.6993 C   0  0  0  0  0  0  0  0  0  0  0  0
   25.2319    1.1893   38.7849 N   0  0  0  0  0  0  0  0  0  0  0  0
   25.1291    2.5062   38.1645 C   0  0  2  0  0  0  0  0  0  0  0  0
   23.7415    2.5933   37.4811 C   0  0  0  0  0  0  0  0  0  0  0  0
   23.0622    1.5724   37.3063 O   0  0  0  0  0  0  0  0  0  0  0  0
   26.1964    2.8304   37.0867 C   0  0  1  0  0  0  0  0  0  0  0  0
   26.1536    4.2820   36.6138 C   0  0  0  0  0  0  0  0  0  0  0  0
   27.6221    2.4556   37.5065 C   0  0  0  0  0  0  0  0  0  0  0  0
   23.3503    3.8201   36.9847 N   0  0  0  0  0  0  0  0  0  0  0  0
   22.0225    4.1784   36.4852 C   0  0  2  0  0  0  0  0  0  0  0  0
   21.8094    3.6214   35.0511 C   0  0  0  0  0  0  0  0  0  0  0  0
   22.4610    2.6782   34.6051 O   0  0  0  0  0  0  0  0  0  0  0  0
   22.0871    5.7026   36.4275 C   0  0  0  0  0  0  0  0  0  0  0  0
   23.5259    5.9615   35.9793 C   0  0  0  0  0  0  0  0  0  0  0  0
   24.3285    4.8310   36.6213 C   0  0  0  0  0  0  0  0  0  0  0  0
   20.8809    4.2986   34.2753 N   0  0  0  0  0  0  0  0  0  0  0  0
   20.6995    3.9043   32.8672 C   0  0  2  0  0  0  0  0  0  0  0  0
   20.9911    5.0561   31.8855 C   0  0  0  0  0  0  0  0  0  0  0  0
   20.1330    5.8844   31.6075 O   0  0  0  0  0  0  0  0  0  0  0  0
   19.2711    3.3851   32.6317 C   0  0  0  0  0  0  0  0  0  0  0  0
   19.2400    1.8624   32.4916 C   0  0  0  0  0  0  0  0  0  0  0  0
   19.8640    1.3528   30.8543 S   0  0  0  0  0  0  0  0  0  0  0  0
   19.5158   -0.4158   30.9396 C   0  0  0  0  0  0  0  0  0  0  0  0
   22.3045    5.1540   31.4415 N   0  0  0  0  0  0  0  0  0  0  0  0
   22.5343    5.3156   29.9984 C   0  0  2  0  0  0  0  0  0  0  0  0
   21.1925    5.3587   29.2503 C   0  0  0  0  0  0  0  0  0  0  0  0
   20.6204    4.3179   28.9146 O   0  0  0  0  0  0  0  0  0  0  0  0
   23.3196    4.1200   29.4433 C   0  0  0  0  0  0  0  0  0  0  0  0
   24.6997    4.4432   28.8691 C   0  0  0  0  0  0  0  0  0  0  0  0
   25.0403    5.9224   28.9326 C   0  0  0  0  0  0  0  0  0  0  0  0
   26.3450    6.1813   28.2963 N   0  0  0  0  0  0  0  0  0  0  0  0
   27.3865    5.3428   28.3683 C   0  0  0  0  0  0  0  0  0  0  0  0
   28.6011    5.7510   28.7406 N   0  0  0  0  0  4  0  0  0  0  0  0
   27.2109    4.0461   28.0409 N   0  0  0  0  0  0  0  0  0  0  0  0
   20.7701    6.6254   28.9079 N   0  0  0  0  0  0  0  0  0  0  0  0
   19.5704    6.8638   28.1164 C   0  0  2  0  0  0  0  0  0  0  0  0
   19.9593    7.0252   26.6259 C   0  0  0  0  0  0  0  0  0  0  0  0
   20.1418    6.0322   25.9106 O   0  0  0  0  0  0  0  0  0  0  0  0
   18.7554    7.9940   28.7152 C   0  0  0  0  0  0  0  0  0  0  0  0
   19.9753    8.3011   26.0990 N   0  0  0  0  0  0  0  0  0  0  0  0
   19.9676    8.5615   24.6572 C   0  0  2  0  0  0  0  0  0  0  0  0
   18.5824    9.1014   24.1864 C   0  0  0  0  0  0  0  0  0  0  0  0
   17.5227    8.6862   24.6605 O   0  0  0  0  0  0  0  0  0  0  0  0
   20.2935    7.3061   23.8204 C   0  0  0  0  0  0  0  0  0  0  0  0
   21.1950    6.2311   24.4411 C   0  0  0  0  0  0  0  0  0  0  0  0
   21.6110    5.1107   23.4906 C   0  0  0  0  0  0  0  0  0  0  0  0
   21.8800    5.5541   22.1269 N   0  0  0  0  0  0  0  0  0  0  0  0
   22.9028    5.1304   21.3729 C   0  0  0  0  0  0  0  0  0  0  0  0
   23.7750    6.0007   20.8431 N   0  0  0  0  0  4  0  0  0  0  0  0
   23.0794    3.8412   21.1264 N   0  0  0  0  0  0  0  0  0  0  0  0
   18.5974    9.9752   23.1174 N   0  0  0  0  0  0  0  0  0  0  0  0
   17.6117   11.0636   23.0227 C   0  0  2  0  0  0  0  0  0  0  0  0
   17.7293   11.6514   21.5994 C   0  0  0  0  0  0  0  0  0  0  0  0
   18.6581   11.3489   20.8659 O   0  0  0  0  0  0  0  0  0  0  0  0
   17.8787   12.1331   24.0906 C   0  0  0  0  0  0  0  0  0  0  0  0
   17.0103   13.3947   24.1207 C   0  0  0  0  0  0  0  0  0  0  0  0
   15.9155   13.3917   25.1738 C   0  0  0  0  0  0  0  0  0  0  0  0
   16.0903   12.9809   26.3194 O   0  0  0  0  0  0  0  0  0  0  0  0
   14.6935   13.8510   24.7802 N   0  0  0  0  0  0  0  0  0  0  0  0
   16.7670   12.5779   21.2863 N   0  0  0  0  0  0  0  0  0  0  0  0
   16.2994   12.8421   19.9224 C   0  0  2  0  0  0  0  0  0  0  0  0
   15.3371   14.0708   19.9916 C   0  0  0  0  0  0  0  0  0  0  0  0
   14.1497   13.9394   20.3108 O   0  0  0  0  0  0  0  0  0  0  0  0
   15.5184   11.5913   19.4643 C   0  0  0  0  0  0  0  0  0  0  0  0
   14.8237   11.6325   18.0914 C   0  0  1  0  0  0  0  0  0  0  0  0
   15.8236   11.5971   16.9372 C   0  0  0  0  0  0  0  0  0  0  0  0
   13.8834   10.4252   17.9676 C   0  0  0  0  0  0  0  0  0  0  0  0
   15.7865   15.3118   19.5561 N   0  0  0  0  0  0  0  0  0  0  0  0
   15.0997   15.9766   18.4281 C   0  0  2  0  0  0  0  0  0  0  0  0
   15.1535   15.3301   17.0162 C   0  0  0  0  0  0  0  0  0  0  0  0
   16.2006   14.9161   16.5260 O   0  0  0  0  0  0  0  0  0  0  0  0
   15.7275   17.3808   18.3532 C   0  0  0  0  0  0  0  0  0  0  0  0
   16.7171   17.4434   19.5108 C   0  0  0  0  0  0  0  0  0  0  0  0
   16.2469   16.3592   20.4483 C   0  0  0  0  0  0  0  0  0  0  0  0
   13.9843   15.3910   16.2978 N   0  0  0  0  0  0  0  0  0  0  0  0
   13.2858   14.1704   15.9103 C   0  0  2  0  0  0  0  0  0  0  0  0
   11.7521   14.3133   15.9725 C   0  0  0  0  0  0  0  0  0  0  0  0
   11.0017   13.3512   15.7445 O   0  0  0  0  0  0  0  0  0  0  0  0
   13.7176   13.0437   16.8464 C   0  0  0  0  0  0  0  0  0  0  0  0
   11.2472   15.5177   16.4222 N   0  0  0  0  0  0  0  0  0  0  0  0
    9.8116   15.8058   16.3753 C   0  0  2  0  0  0  0  0  0  0  0  0
    9.1969   15.7382   17.7908 C   0  0  0  0  0  0  0  0  0  0  0  0
    9.7061   15.1009   18.7184 O   0  0  0  0  0  0  0  0  0  0  0  0
    9.1002   14.8128   15.4316 C   0  0  0  0  0  0  0  0  0  0  0  0
    7.8745   14.3034   15.9670 O   0  0  0  0  0  0  0  0  0  0  0  0
    8.0153   16.4431   17.9346 N   0  0  0  0  0  0  0  0  0  0  0  0
    7.1552   16.3329   19.1143 C   0  0  2  0  0  0  0  0  0  0  0  0
    7.5902   15.2791   20.1630 C   0  0  0  0  0  0  0  0  0  0  0  0
    7.5893   14.0916   19.8441 O   0  0  0  0  0  0  0  0  0  0  0  0
    5.6551   16.2291   18.8124 C   0  0  0  0  0  0  0  0  0  0  0  0
    4.8299   15.8860   20.0269 C   0  0  0  0  0  0  0  0  0  0  0  0
    3.4539   16.1306   20.0515 C   0  0  0  0  0  0  0  0  0  0  0  0
    5.4341   15.3188   21.1569 C   0  0  0  0  0  0  0  0  0  0  0  0
    2.6856   15.7847   21.1628 C   0  0  0  0  0  0  0  0  0  0  0  0
    4.6704   14.9827   22.2762 C   0  0  0  0  0  0  0  0  0  0  0  0
    3.2971   15.2008   22.2701 C   0  0  0  0  0  0  0  0  0  0  0  0
    8.0817   15.7694   21.3509 N   0  0  0  0  0  0  0  0  0  0  0  0
    9.0341   16.9026   21.4676 C   0  0  2  0  0  0  0  0  0  0  0  0
    8.2464   18.2631   21.2959 C   0  0  0  0  0  0  0  0  0  0  0  0
    7.8871   18.7182   20.2129 O   0  0  0  0  0  0  0  0  0  0  0  0
   10.1911   16.7684   20.4442 C   0  0  0  0  0  0  0  0  0  0  0  0
   11.5630   17.1763   20.8846 C   0  0  0  0  0  0  0  0  0  0  0  0
   12.3792   18.0829   20.2411 C   0  0  0  0  0  0  0  0  0  0  0  0
   12.3025   16.6602   21.9919 C   0  0  0  0  0  0  0  0  0  0  0  0
   13.5448   18.1974   20.9518 N   0  0  0  0  0  0  0  0  0  0  0  0
   13.5356   17.3189   22.0121 C   0  0  0  0  0  0  0  0  0  0  0  0
   12.0547   15.6886   22.9837 C   0  0  0  0  0  0  0  0  0  0  0  0
   14.5182   17.0812   22.9820 C   0  0  0  0  0  0  0  0  0  0  0  0
   13.0269   15.4203   23.9516 C   0  0  0  0  0  0  0  0  0  0  0  0
   14.2458   16.1049   23.9439 C   0  0  0  0  0  0  0  0  0  0  0  0
    8.0414   18.9898   22.4588 N   0  0  0  0  0  0  0  0  0  0  0  0
    9.1279   19.7395   23.1302 C   0  0  2  0  0  0  0  0  0  0  0  0
   10.1450   20.5424   22.2304 C   0  0  0  0  0  0  0  0  0  0  0  0
   11.0033   20.0353   21.5093 O   0  0  0  0  0  0  0  0  0  0  0  0
    9.9035   18.8978   24.1626 C   0  0  0  0  0  0  0  0  0  0  0  0
   10.7136   17.7640   23.5401 C   0  0  0  0  0  0  0  0  0  0  0  0
   12.2159   18.0473   23.3977 C   0  0  0  0  0  0  0  0  0  0  0  0
   12.5971   19.1243   23.9369 O   0  0  0  0  0  1  0  0  0  0  0  0
   12.8991   17.2120   22.7399 O   0  0  0  0  0  0  0  0  0  0  0  0
   10.0029   21.9228   22.3474 N   0  0  0  0  0  0  0  0  0  0  0  0
    8.7306   22.6593   22.2790 C   0  0  2  0  0  0  0  0  0  0  0  0
    9.0660   23.9744   21.5464 C   0  0  0  0  0  0  0  0  0  0  0  0
   10.1865   24.4866   21.5660 O   0  0  0  0  0  0  0  0  0  0  0  0
    8.2046   23.0875   23.6624 C   0  0  0  0  0  0  0  0  0  0  0  0
    8.9850   22.5183   24.8270 C   0  0  0  0  0  0  0  0  0  0  0  0
    8.7635   21.0310   25.0624 C   0  0  0  0  0  0  0  0  0  0  0  0
    8.6950   20.2654   24.0639 O   0  0  0  0  0  1  0  0  0  0  0  0
    8.6579   20.7072   26.2818 O   0  0  0  0  0  0  0  0  0  0  0  0
    7.9911   24.4877   20.7713 N   0  0  0  0  0  0  0  0  0  0  0  0
    8.3253   24.7625   19.3703 C   0  0  2  0  0  0  0  0  0  0  0  0
    9.0899   23.6207   18.6850 C   0  0  0  0  0  0  0  0  0  0  0  0
   10.2487   23.3166   18.9648 O   0  0  0  0  0  0  0  0  0  0  0  0
    8.9517   26.1511   19.3722 C   0  0  0  0  0  0  0  0  0  0  0  0
    8.4032   26.8075   20.6520 C   0  0  0  0  0  0  0  0  0  0  0  0
    7.5241   25.7492   21.3130 C   0  0  0  0  0  0  0  0  0  0  0  0
    8.4012   22.8846   17.7681 N   0  0  0  0  0  0  0  0  0  0  0  0
  1  2  2  0
  1  3  1  0
  1  4  1  0
  5  4  1  6
  5  6  1  0
  5  8  1  0
  6  7  2  0
  6 11  1  0
  8  9  1  1
  8 10  1  0
 11 12  1  0
 11 17  1  0
 12 13  1  6
 12 15  1  0
 13 14  2  0
 13 18  1  0
 15 16  1  0
 16 17  1  0
 18 19  1  0
 19 20  1  0
 19 22  1  1
 20 21  2  0
 20 26  1  0
 22 23  1  0
 23 24  1  0
 24 25  1  0
 26 27  1  0
 27 28  1  0
 27 30  1  6
 28 29  2  0
 28 37  1  0
 30 31  1  0
 31 32  1  0
 32 33  1  0
 33 34  1  0
 34 35  2  0
 34 36  1  0
 37 38  1  0
 38 39  1  0
 38 41  1  1
 39 40  2  0
 39 42  1  0
 42 43  1  0
 43 44  1  0
 43 46  1  6
 44 45  2  0
 44 53  1  0
 46 47  1  0
 47 48  1  0
 48 49  1  0
 49 50  1  0
 50 51  2  0
 50 52  1  0
 53 54  1  0
 54 55  1  0
 54 57  1  1
 55 56  2  0
 55 62  1  0
 57 58  1  0
 58 59  1  0
 59 60  2  0
 59 61  1  0
 62 63  1  0
 63 64  1  0
 63 66  1  1
 64 65  2  0
 64 70  1  0
 66 67  1  0
 67 68  1  6
 67 69  1  0
 70 71  1  0
 70 76  1  0
 71 72  1  6
 71 74  1  0
 72 73  2  0
 72 77  1  0
 74 75  1  0
 75 76  1  0
 77 78  1  0
 78 79  1  0
 78 81  1  1
 79 80  2  0
 79 82  1  0
 82 83  1  0
 83 84  1  0
 83 86  1  6
 84 85  2  0
 84 88  1  0
 86 87  1  0
 88 89  1  0
 89 90  1  0
 89 92  1  6
 90 91  2  0
 90 99  1  0
 92 93  1  0
 93 94  2  0
 93 95  1  0
 94 96  1  0
 95 97  2  0
 96 98  2  0
 97 98  1  0
 99100  1  0
100101  1  0
100103  1  6
101102  2  0
101113  1  0
103104  1  0
104105  2  0
104106  1  0
105107  1  0
106108  2  0
106109  1  0
107108  1  0
108110  1  0
109111  2  0
110112  2  0
111112  1  0
113114  1  0
114115  1  0
114117  1  6
115116  2  0
115122  1  0
117118  1  0
118119  1  0
119120  1  0
119121  2  0
122123  1  0
123124  1  0
123126  1  1
124125  2  0
124131  1  0
126127  1  0
127128  1  0
128129  1  0
128130  2  0
131132  1  0
131137  1  0
132133  1  1
132135  1  0
133134  2  0
133138  1  0
135136  1  0
136137  1  0
M  CHG  4  35   1  51   1 120  -1 129  -1
M  END
$$$$
