
     RDKit          3D

138143  0  0  0  0  0  0  0  0999 V2000
   -8.3347   10.2362    1.2226 C   0  0  0  0  0  0  0  0  0  0  0  0
   -9.3950   10.1550    0.6259 O   0  0  0  0  0  0  0  0  0  0  0  0
   -7.0431    9.7191    0.6383 C   0  0  0  0  0  0  0  0  0  0  0  0
   -8.2024   10.7359    2.4998 N   0  0  0  0  0  0  0  0  0  0  0  0
   -8.0666   12.1604    2.7860 C   0  0  2  0  0  0  0  0  0  0  0  0
   -8.9821   12.4834    3.9933 C   0  0  0  0  0  0  0  0  0  0  0  0
  -10.0849   13.0201    3.8196 O   0  0  0  0  0  0  0  0  0  0  0  0
   -8.4633   13.1215    1.6350 C   0  0  1  0  0  0  0  0  0  0  0  0
   -8.3164   14.5963    2.0037 C   0  0  0  0  0  0  0  0  0  0  0  0
   -7.7324   12.8330    0.3189 C   0  0  0  0  0  0  0  0  0  0  0  0
   -8.4774   12.2526    5.2569 N   0  0  0  0  0  0  0  0  0  0  0  0
   -9.2113   12.3339    6.5201 C   0  0  2  0  0  0  0  0  0  0  0  0
   -9.3936   13.8146    6.9520 C   0  0  0  0  0  0  0  0  0  0  0  0
   -9.9484   14.6478    6.2371 O   0  0  0  0  0  0  0  0  0  0  0  0
   -8.2696   11.6374    7.4993 C   0  0  0  0  0  0  0  0  0  0  0  0
   -6.8897   12.0794    7.0108 C   0  0  0  0  0  0  0  0  0  0  0  0
   -7.0455   12.1904    5.4950 C   0  0  0  0  0  0  0  0  0  0  0  0
   -8.8306   14.1584    8.1716 N   0  0  0  0  0  0  0  0  0  0  0  0
   -7.7728   13.3039    8.7390 C   0  0  2  0  0  0  0  0  0  0  0  0
   -6.4361   14.0508    8.9147 C   0  0  0  0  0  0  0  0  0  0  0  0
   -5.3997   13.6185    8.4263 O   0  0  0  0  0  0  0  0  0  0  0  0
   -7.5499   12.0635    7.8574 C   0  0  0  0  0  0  0  0  0  0  0  0
   -6.4792   11.1409    8.4417 C   0  0  0  0  0  0  0  0  0  0  0  0
   -7.1530    9.4686    8.7232 S   0  0  0  0  0  0  0  0  0  0  0  0
   -8.2355    9.3372    7.2853 C   0  0  0  0  0  0  0  0  0  0  0  0
   -6.5120   15.2843    9.5508 N   0  0  0  0  0  0  0  0  0  0  0  0
   -5.8486   16.4309    8.9131 C   0  0  2  0  0  0  0  0  0  0  0  0
   -6.3751   17.7459    9.5095 C   0  0  0  0  0  0  0  0  0  0  0  0
   -7.5261   18.1288    9.2821 O   0  0  0  0  0  0  0  0  0  0  0  0
   -6.1596   16.4629    7.4109 C   0  0  0  0  0  0  0  0  0  0  0  0
   -6.6534   17.8034    6.8652 C   0  0  0  0  0  0  0  0  0  0  0  0
   -5.8551   18.2900    5.6677 C   0  0  0  0  0  0  0  0  0  0  0  0
   -6.6901   18.2861    4.4523 N   0  0  0  0  0  0  0  0  0  0  0  0
   -7.3768   19.3508    4.0190 C   0  0  0  0  0  0  0  0  0  0  0  0
   -8.6129   19.2452    3.5273 N   0  0  0  0  0  4  0  0  0  0  0  0
   -6.7997   20.5691    4.0650 N   0  0  0  0  0  0  0  0  0  0  0  0
   -5.4327   18.4773   10.2002 N   0  0  0  0  0  0  0  0  0  0  0  0
   -5.7595   19.7108   10.9033 C   0  0  2  0  0  0  0  0  0  0  0  0
   -5.4211   20.9237   10.0014 C   0  0  0  0  0  0  0  0  0  0  0  0
   -4.2486   21.2882    9.8485 O   0  0  0  0  0  0  0  0  0  0  0  0
   -5.1335   19.7163   12.2846 C   0  0  0  0  0  0  0  0  0  0  0  0
   -6.4507   21.5011    9.2856 N   0  0  0  0  0  0  0  0  0  0  0  0
   -6.4461   22.9124    8.8921 C   0  0  2  0  0  0  0  0  0  0  0  0
   -6.2760   23.8451   10.1302 C   0  0  0  0  0  0  0  0  0  0  0  0
   -5.8819   23.4219   11.2191 O   0  0  0  0  0  0  0  0  0  0  0  0
   -7.7370   23.3336    8.1583 C   0  0  0  0  0  0  0  0  0  0  0  0
   -8.6470   22.2337    7.5963 C   0  0  0  0  0  0  0  0  0  0  0  0
   -9.8250   22.7344    6.7634 C   0  0  0  0  0  0  0  0  0  0  0  0
  -10.1259   24.1503    6.9459 N   0  0  0  0  0  0  0  0  0  0  0  0
  -10.7429   24.6691    8.0158 C   0  0  0  0  0  0  0  0  0  0  0  0
  -10.1071   24.7791    9.1915 N   0  0  0  0  0  4  0  0  0  0  0  0
  -11.9984   25.0842    7.9436 N   0  0  0  0  0  0  0  0  0  0  0  0
   -6.7145   25.1459    9.9813 N   0  0  0  0  0  0  0  0  0  0  0  0
   -6.2688   26.1997   10.9066 C   0  0  2  0  0  0  0  0  0  0  0  0
   -7.5366   26.9402   11.3857 C   0  0  0  0  0  0  0  0  0  0  0  0
   -7.4824   27.7733   12.2775 O   0  0  0  0  0  0  0  0  0  0  0  0
   -5.2940   27.1585   10.2094 C   0  0  0  0  0  0  0  0  0  0  0  0
   -5.8041   28.0487    9.0717 C   0  0  0  0  0  0  0  0  0  0  0  0
   -5.9372   29.5205    9.4228 C   0  0  0  0  0  0  0  0  0  0  0  0
   -5.3030   30.4049    8.8505 O   0  0  0  0  0  0  0  0  0  0  0  0
   -6.7908   29.8269   10.4410 N   0  0  0  0  0  0  0  0  0  0  0  0
   -8.6987   26.5212   10.7887 N   0  0  0  0  0  0  0  0  0  0  0  0
  -10.0205   27.0770   11.0927 C   0  0  2  0  0  0  0  0  0  0  0  0
  -10.1349   27.1788   12.6474 C   0  0  0  0  0  0  0  0  0  0  0  0
  -10.0444   26.1759   13.3650 O   0  0  0  0  0  0  0  0  0  0  0  0
  -11.0646   26.0738   10.5561 C   0  0  0  0  0  0  0  0  0  0  0  0
  -12.3435   25.8467   11.3818 C   0  0  1  0  0  0  0  0  0  0  0  0
  -13.5434   25.4980   10.5033 C   0  0  0  0  0  0  0  0  0  0  0  0
  -12.1052   24.6974   12.3715 C   0  0  0  0  0  0  0  0  0  0  0  0
  -10.4796   28.3948   13.2256 N   0  0  0  0  0  0  0  0  0  0  0  0
  -10.8763   28.4338   14.6494 C   0  0  2  0  0  0  0  0  0  0  0  0
  -12.1805   27.7172   15.0965 C   0  0  0  0  0  0  0  0  0  0  0  0
  -12.3022   27.2165   16.2113 O   0  0  0  0  0  0  0  0  0  0  0  0
  -10.9942   29.9316   14.9875 C   0  0  0  0  0  0  0  0  0  0  0  0
  -10.5911   30.6663   13.7145 C   0  0  0  0  0  0  0  0  0  0  0  0
   -9.7967   29.6429   12.9417 C   0  0  0  0  0  0  0  0  0  0  0  0
  -13.1254   27.5508   14.1136 N   0  0  0  0  0  0  0  0  0  0  0  0
  -14.5136   27.2644   14.4583 C   0  0  2  0  0  0  0  0  0  0  0  0
  -14.6698   26.6811   15.8768 C   0  0  0  0  0  0  0  0  0  0  0  0
  -14.8173   27.4153   16.8668 O   0  0  0  0  0  0  0  0  0  0  0  0
  -15.0708   26.2651   13.4468 C   0  0  0  0  0  0  0  0  0  0  0  0
  -14.7733   25.3083   15.9879 N   0  0  0  0  0  0  0  0  0  0  0  0
  -15.1733   24.6751   17.2470 C   0  0  2  0  0  0  0  0  0  0  0  0
  -13.9697   24.5706   18.2096 C   0  0  0  0  0  0  0  0  0  0  0  0
  -12.8412   24.9863   17.9273 O   0  0  0  0  0  0  0  0  0  0  0  0
  -15.7671   23.2766   16.9741 C   0  0  0  0  0  0  0  0  0  0  0  0
  -16.7172   23.2650   15.9037 O   0  0  0  0  0  0  0  0  0  0  0  0
  -14.2554   23.9586   19.4168 N   0  0  0  0  0  0  0  0  0  0  0  0
  -13.3987   22.9351   20.0186 C   0  0  2  0  0  0  0  0  0  0  0  0
  -13.9245   22.3132   21.3363 C   0  0  0  0  0  0  0  0  0  0  0  0
  -13.3793   22.6208   22.3947 O   0  0  0  0  0  0  0  0  0  0  0  0
  -11.9189   23.3203   20.1383 C   0  0  0  0  0  0  0  0  0  0  0  0
  -11.0395   22.6045   19.1444 C   0  0  0  0  0  0  0  0  0  0  0  0
  -11.1659   21.2282   18.9358 C   0  0  0  0  0  0  0  0  0  0  0  0
  -10.0736   23.3109   18.4152 C   0  0  0  0  0  0  0  0  0  0  0  0
  -10.3739   20.5717   17.9942 C   0  0  0  0  0  0  0  0  0  0  0  0
   -9.2701   22.6549   17.4808 C   0  0  0  0  0  0  0  0  0  0  0  0
   -9.4334   21.2918   17.2608 C   0  0  0  0  0  0  0  0  0  0  0  0
  -15.0675   21.5537   21.2373 N   0  0  0  0  0  0  0  0  0  0  0  0
  -15.2185   20.3648   20.3608 C   0  0  2  0  0  0  0  0  0  0  0  0
  -15.2030   19.0577   21.2508 C   0  0  0  0  0  0  0  0  0  0  0  0
  -15.7940   18.0206   20.9606 O   0  0  0  0  0  0  0  0  0  0  0  0
  -14.1215   20.3344   19.2655 C   0  0  0  0  0  0  0  0  0  0  0  0
  -14.3469   19.4526   18.0764 C   0  0  0  0  0  0  0  0  0  0  0  0
  -14.0275   19.7633   16.7711 C   0  0  0  0  0  0  0  0  0  0  0  0
  -14.9897   18.1776   18.0575 C   0  0  0  0  0  0  0  0  0  0  0  0
  -14.3747   18.7033   15.9758 N   0  0  0  0  0  0  0  0  0  0  0  0
  -14.9896   17.7310   16.7326 C   0  0  0  0  0  0  0  0  0  0  0  0
  -15.5835   17.3517   19.0344 C   0  0  0  0  0  0  0  0  0  0  0  0
  -15.5225   16.4971   16.3373 C   0  0  0  0  0  0  0  0  0  0  0  0
  -16.1384   16.1239   18.6620 C   0  0  0  0  0  0  0  0  0  0  0  0
  -16.1131   15.7077   17.3275 C   0  0  0  0  0  0  0  0  0  0  0  0
  -14.5340   19.1623   22.4607 N   0  0  0  0  0  0  0  0  0  0  0  0
  -15.1672   19.7300   23.6732 C   0  0  2  0  0  0  0  0  0  0  0  0
  -16.6799   19.3828   23.9555 C   0  0  0  0  0  0  0  0  0  0  0  0
  -17.2994   18.4528   23.4405 O   0  0  0  0  0  0  0  0  0  0  0  0
  -14.9486   21.2485   23.8226 C   0  0  0  0  0  0  0  0  0  0  0  0
  -14.5193   21.9331   22.5278 C   0  0  0  0  0  0  0  0  0  0  0  0
  -14.0328   23.3799   22.6938 C   0  0  0  0  0  0  0  0  0  0  0  0
  -14.9555   24.2426   22.7052 O   0  0  0  0  0  1  0  0  0  0  0  0
  -12.7842   23.5622   22.7650 O   0  0  0  0  0  0  0  0  0  0  0  0
  -17.2839   20.2661   24.8467 N   0  0  0  0  0  0  0  0  0  0  0  0
  -18.1785   19.8860   25.9519 C   0  0  2  0  0  0  0  0  0  0  0  0
  -17.3124   19.0227   26.8916 C   0  0  0  0  0  0  0  0  0  0  0  0
  -17.6042   18.8141   28.0704 O   0  0  0  0  0  0  0  0  0  0  0  0
  -19.3335   18.9687   25.5067 C   0  0  0  0  0  0  0  0  0  0  0  0
  -19.0598   17.4920   25.6901 C   0  0  0  0  0  0  0  0  0  0  0  0
  -19.8248   16.8510   26.8394 C   0  0  0  0  0  0  0  0  0  0  0  0
  -19.1858   16.1658   27.6820 O   0  0  0  0  0  1  0  0  0  0  0  0
  -21.0710   17.0737   26.8233 O   0  0  0  0  0  0  0  0  0  0  0  0
  -16.2009   18.4146   26.2476 N   0  0  0  0  0  0  0  0  0  0  0  0
  -15.3844   17.5606   27.1159 C   0  0  2  0  0  0  0  0  0  0  0  0
  -16.2080   16.5890   27.9735 C   0  0  0  0  0  0  0  0  0  0  0  0
  -15.8195   15.4645   28.2869 O   0  0  0  0  0  0  0  0  0  0  0  0
  -14.4228   18.5084   27.8213 C   0  0  0  0  0  0  0  0  0  0  0  0
  -14.3521   19.7318   26.8896 C   0  0  0  0  0  0  0  0  0  0  0  0
  -15.2941   19.4206   25.7296 C   0  0  0  0  0  0  0  0  0  0  0  0
  -17.3994   17.0487   28.4489 N   0  0  0  0  0  0  0  0  0  0  0  0
  1  2  2  0
  1  3  1  0
  1  4  1  0
  5  4  1  6
  5  6  1  0
  5  8  1  0
  6  7  2  0
  6 11  1  0
  8  9  1  1
  8 10  1  0
 11 12  1  0
 11 17  1  0
 12 13  1  1
 12 15  1  0
 13 14  2  0
 13 18  1  0
 15 16  1  0
 16 17  1  0
 18 19  1  0
 19 20  1  0
 19 22  1  6
 20 21  2  0
 20 26  1  0
 22 23  1  0
 23 24  1  0
 24 25  1  0
 26 27  1  0
 27 28  1  0
 27 30  1  6
 28 29  2  0
 28 37  1  0
 30 31  1  0
 31 32  1  0
 32 33  1  0
 33 34  1  0
 34 35  2  0
 34 36  1  0
 37 38  1  0
 38 39  1  0
 38 41  1  1
 39 40  2  0
 39 42  1  0
 42 43  1  0
 43 44  1  0
 43 46  1  1
 44 45  2  0
 44 53  1  0
 46 47  1  0
 47 48  1  0
 48 49  1  0
 49 50  1  0
 50 51  2  0
 50 52  1  0
 53 54  1  0
 54 55  1  0
 54 57  1  6
 55 56  2  0
 55 62  1  0
 57 58  1  0
 58 59  1  0
 59 60  2  0
 59 61  1  0
 62 63  1  0
 63 64  1  0
 63 66  1  1
 64 65  2  0
 64 70  1  0
 66 67  1  0
 67 68  1  6
 67 69  1  0
 70 71  1  0
 70 76  1  0
 71 72  1  6
 71 74  1  0
 72 73  2  0
 72 77  1  0
 74 75  1  0
 75 76  1  0
 77 78  1  0
 78 79  1  0
 78 81  1  6
 79 80  2  0
 79 82  1  0
 82 83  1  0
 83 84  1  0
 83 86  1  6
 84 85  2  0
 84 88  1  0
 86 87  1  0
 88 89  1  0
 89 90  1  0
 89 92  1  1
 90 91  2  0
 90 99  1  0
 92 93  1  0
 93 94  2  0
 93 95  1  0
 94 96  1  0
 95 97  2  0
 96 98  2  0
 97 98  1  0
 99100  1  0
100101  1  0
100103  1  6
101102  2  0
101113  1  0
103104  1  0
104105  2  0
104106  1  0
105107  1  0
106108  2  0
106109  1  0
107108  1  0
108110  1  0
109111  2  0
110112  2  0
111112  1  0
113114  1  0
114115  1  0
114117  1  6
115116  2  0
115122  1  0
117118  1  0
118119  1  0
119120  1  0
119121  2  0
122123  1  0
123124  1  0
123126  1  6
124125  2  0
124131  1  0
126127  1  0
127128  1  0
128129  1  0
128130  2  0
131132  1  0
131137  1  0
132133  1  1
132135  1  0
133134  2  0
133138  1  0
135136  1  0
136137  1  0
M  CHG  4  35   1  51   1 120  -1 129  -1
M  END
$$$$
