
     RDKit          3D

138143  0  0  0  0  0  0  0  0999 V2000
   22.0291    0.3864   37.0040 C   0  0  0  0  0  0  0  0  0  0  0  0
   20.8622    0.5856   37.2969 O   0  0  0  0  0  0  0  0  0  0  0  0
   22.6589   -0.9813   37.1012 C   0  0  0  0  0  0  0  0  0  0  0  0
   22.9103    1.3748   36.6233 N   0  0  0  0  0  0  0  0  0  0  0  0
   22.5291    2.7788   36.5088 C   0  0  2  0  0  0  0  0  0  0  0  0
   23.2294    3.3516   35.2511 C   0  0  0  0  0  0  0  0  0  0  0  0
   24.4599    3.2790   35.1294 O   0  0  0  0  0  0  0  0  0  0  0  0
   22.9176    3.6841   37.7068 C   0  0  1  0  0  0  0  0  0  0  0  0
   22.4847    5.1379   37.5288 C   0  0  0  0  0  0  0  0  0  0  0  0
   22.4292    3.1516   39.0585 C   0  0  0  0  0  0  0  0  0  0  0  0
   22.4481    4.0329   34.3401 N   0  0  0  0  0  0  0  0  0  0  0  0
   22.8609    4.5146   33.0215 C   0  0  2  0  0  0  0  0  0  0  0  0
   23.6990    5.8157   33.1528 C   0  0  0  0  0  0  0  0  0  0  0  0
   23.2478    6.8445   33.6538 O   0  0  0  0  0  0  0  0  0  0  0  0
   21.5280    4.8412   32.3526 C   0  0  0  0  0  0  0  0  0  0  0  0
   20.7008    5.4050   33.5085 C   0  0  0  0  0  0  0  0  0  0  0  0
   21.1774    4.6198   34.7294 C   0  0  0  0  0  0  0  0  0  0  0  0
   24.9728    5.7673   32.6072 N   0  0  0  0  0  0  0  0  0  0  0  0
   25.8084    6.9807   32.6290 C   0  0  2  0  0  0  0  0  0  0  0  0
   25.1288    8.1825   31.9437 C   0  0  0  0  0  0  0  0  0  0  0  0
   24.6865    9.1182   32.5982 O   0  0  0  0  0  0  0  0  0  0  0  0
   27.1659    6.7136   31.9574 C   0  0  0  0  0  0  0  0  0  0  0  0
   26.9994    6.2861   30.4984 C   0  0  0  0  0  0  0  0  0  0  0  0
   27.7124    7.5350   29.3753 S   0  0  0  0  0  0  0  0  0  0  0  0
   28.0011    8.8684   30.5565 C   0  0  0  0  0  0  0  0  0  0  0  0
   25.1611    8.1836   30.5542 N   0  0  0  0  0  0  0  0  0  0  0  0
   24.5165    9.3020   29.8505 C   0  0  2  0  0  0  0  0  0  0  0  0
   23.0303    8.9914   29.6124 C   0  0  0  0  0  0  0  0  0  0  0  0
   22.6595    7.8494   29.3266 O   0  0  0  0  0  0  0  0  0  0  0  0
   25.1583    9.5096   28.4724 C   0  0  0  0  0  0  0  0  0  0  0  0
   25.0466    8.3301   27.5054 C   0  0  0  0  0  0  0  0  0  0  0  0
   25.1060    8.7481   26.0460 C   0  0  0  0  0  0  0  0  0  0  0  0
   26.2003    9.7119   25.8273 N   0  0  0  0  0  0  0  0  0  0  0  0
   27.0419    9.6576   24.7872 C   0  0  0  0  0  0  0  0  0  0  0  0
   26.8375    8.8411   23.7517 N   0  0  0  0  0  4  0  0  0  0  0  0
   28.1404   10.4403   24.7882 N   0  0  0  0  0  0  0  0  0  0  0  0
   22.2051   10.0953   29.6375 N   0  0  0  0  0  0  0  0  0  0  0  0
   22.2042   11.0969   28.5795 C   0  0  2  0  0  0  0  0  0  0  0  0
   20.9898   10.8616   27.6474 C   0  0  0  0  0  0  0  0  0  0  0  0
   20.5279   11.7865   26.9677 O   0  0  0  0  0  0  0  0  0  0  0  0
   23.5595   11.1538   27.9013 C   0  0  0  0  0  0  0  0  0  0  0  0
   20.5234    9.5694   27.5112 N   0  0  0  0  0  0  0  0  0  0  0  0
   19.4322    9.2143   26.6003 C   0  0  2  0  0  0  0  0  0  0  0  0
   18.0569    9.7090   27.1440 C   0  0  0  0  0  0  0  0  0  0  0  0
   17.7996    9.7317   28.3496 O   0  0  0  0  0  0  0  0  0  0  0  0
   19.3245    7.6936   26.3591 C   0  0  0  0  0  0  0  0  0  0  0  0
   20.0598    7.0937   25.1537 C   0  0  0  0  0  0  0  0  0  0  0  0
   21.5170    6.7157   25.4098 C   0  0  0  0  0  0  0  0  0  0  0  0
   21.6950    5.6707   26.4124 N   0  0  0  0  0  0  0  0  0  0  0  0
   22.0531    4.4079   26.1452 C   0  0  0  0  0  0  0  0  0  0  0  0
   21.8512    3.8771   24.9302 N   0  0  0  0  0  4  0  0  0  0  0  0
   22.6128    3.6473   27.0737 N   0  0  0  0  0  0  0  0  0  0  0  0
   17.0930    9.9975   26.1984 N   0  0  0  0  0  0  0  0  0  0  0  0
   16.7408   11.3916   25.8855 C   0  0  2  0  0  0  0  0  0  0  0  0
   16.7787   11.5284   24.3476 C   0  0  0  0  0  0  0  0  0  0  0  0
   17.3968   10.7319   23.6578 O   0  0  0  0  0  0  0  0  0  0  0  0
   17.7217   12.3634   26.5553 C   0  0  0  0  0  0  0  0  0  0  0  0
   17.9091   12.3098   28.0747 C   0  0  0  0  0  0  0  0  0  0  0  0
   18.1681   10.9231   28.6380 C   0  0  0  0  0  0  0  0  0  0  0  0
   19.2975   10.4937   28.8659 O   0  0  0  0  0  0  0  0  0  0  0  0
   17.0715   10.1445   28.8623 N   0  0  0  0  0  0  0  0  0  0  0  0
   16.1421   12.6419   23.8606 N   0  0  0  0  0  0  0  0  0  0  0  0
   15.3917   12.6699   22.6018 C   0  0  2  0  0  0  0  0  0  0  0  0
   14.1960   13.6563   22.7961 C   0  0  0  0  0  0  0  0  0  0  0  0
   13.4388   13.5638   23.7694 O   0  0  0  0  0  0  0  0  0  0  0  0
   14.8575   11.2407   22.3646 C   0  0  0  0  0  0  0  0  0  0  0  0
   13.3330   11.0369   22.3042 C   0  0  1  0  0  0  0  0  0  0  0  0
   12.8162   10.9695   20.8684 C   0  0  0  0  0  0  0  0  0  0  0  0
   12.9721    9.7282   23.0211 C   0  0  0  0  0  0  0  0  0  0  0  0
   13.8953   14.5669   21.7901 N   0  0  0  0  0  0  0  0  0  0  0  0
   12.7291   15.4620   21.9473 C   0  0  2  0  0  0  0  0  0  0  0  0
   11.3005   14.8521   21.9844 C   0  0  0  0  0  0  0  0  0  0  0  0
   10.7682   14.3723   20.9872 O   0  0  0  0  0  0  0  0  0  0  0  0
   12.8180   16.4414   20.7622 C   0  0  0  0  0  0  0  0  0  0  0  0
   14.0950   16.0639   20.0207 C   0  0  0  0  0  0  0  0  0  0  0  0
   14.8991   15.3054   21.0472 C   0  0  0  0  0  0  0  0  0  0  0  0
   10.6201   15.0224   23.1655 N   0  0  0  0  0  0  0  0  0  0  0  0
   11.2419   15.7163   24.2879 C   0  0  2  0  0  0  0  0  0  0  0  0
   11.0766   17.2471   24.2107 C   0  0  0  0  0  0  0  0  0  0  0  0
   10.2789   17.8508   24.9455 O   0  0  0  0  0  0  0  0  0  0  0  0
   12.7310   15.3782   24.3054 C   0  0  0  0  0  0  0  0  0  0  0  0
   11.9454   17.9360   23.3870 N   0  0  0  0  0  0  0  0  0  0  0  0
   12.5897   19.1756   23.8278 C   0  0  2  0  0  0  0  0  0  0  0  0
   11.8995   20.4029   23.1928 C   0  0  0  0  0  0  0  0  0  0  0  0
   12.0528   21.5552   23.6107 O   0  0  0  0  0  0  0  0  0  0  0  0
   14.0898   19.1539   23.4644 C   0  0  0  0  0  0  0  0  0  0  0  0
   14.7908   20.3281   23.8868 O   0  0  0  0  0  0  0  0  0  0  0  0
   11.0800   20.1051   22.1188 N   0  0  0  0  0  0  0  0  0  0  0  0
   11.3497   20.5624   20.7543 C   0  0  2  0  0  0  0  0  0  0  0  0
   10.9482   19.5782   19.6276 C   0  0  0  0  0  0  0  0  0  0  0  0
   11.4783   19.6939   18.5241 O   0  0  0  0  0  0  0  0  0  0  0  0
   12.7602   21.1206   20.5273 C   0  0  0  0  0  0  0  0  0  0  0  0
   12.9993   21.5625   19.1055 C   0  0  0  0  0  0  0  0  0  0  0  0
   12.9260   22.9129   18.7523 C   0  0  0  0  0  0  0  0  0  0  0  0
   13.2947   20.6206   18.1109 C   0  0  0  0  0  0  0  0  0  0  0  0
   13.1777   23.3247   17.4439 C   0  0  0  0  0  0  0  0  0  0  0  0
   13.5348   21.0277   16.7973 C   0  0  0  0  0  0  0  0  0  0  0  0
   13.4922   22.3786   16.4708 C   0  0  0  0  0  0  0  0  0  0  0  0
   10.1133   18.5463   19.9896 N   0  0  0  0  0  0  0  0  0  0  0  0
    8.8035   18.2565   19.3531 C   0  0  2  0  0  0  0  0  0  0  0  0
    8.2186   19.5905   18.7372 C   0  0  0  0  0  0  0  0  0  0  0  0
    8.8742   20.3842   18.0668 O   0  0  0  0  0  0  0  0  0  0  0  0
    7.8233   17.6043   20.3621 C   0  0  0  0  0  0  0  0  0  0  0  0
    6.4444   17.2734   19.8809 C   0  0  0  0  0  0  0  0  0  0  0  0
    5.2825   17.9080   20.2675 C   0  0  0  0  0  0  0  0  0  0  0  0
    6.0687   16.2110   19.0037 C   0  0  0  0  0  0  0  0  0  0  0  0
    4.2319   17.3306   19.6044 N   0  0  0  0  0  0  0  0  0  0  0  0
    4.6810   16.2729   18.8455 C   0  0  0  0  0  0  0  0  0  0  0  0
    6.7672   15.1894   18.3272 C   0  0  0  0  0  0  0  0  0  0  0  0
    3.9603   15.3915   18.0291 C   0  0  0  0  0  0  0  0  0  0  0  0
    6.0681   14.2863   17.5212 C   0  0  0  0  0  0  0  0  0  0  0  0
    4.6805   14.3843   17.3816 C   0  0  0  0  0  0  0  0  0  0  0  0
    6.9029   19.8783   19.0668 N   0  0  0  0  0  0  0  0  0  0  0  0
    6.2000   21.0786   18.5584 C   0  0  2  0  0  0  0  0  0  0  0  0
    4.7580   21.3899   19.1175 C   0  0  0  0  0  0  0  0  0  0  0  0
    3.8789   20.5511   19.3110 O   0  0  0  0  0  0  0  0  0  0  0  0
    6.1901   21.1750   17.0201 C   0  0  0  0  0  0  0  0  0  0  0  0
    7.4388   21.8358   16.4425 C   0  0  0  0  0  0  0  0  0  0  0  0
    8.0944   21.0727   15.2826 C   0  0  0  0  0  0  0  0  0  0  0  0
    8.5803   21.8115   14.3805 O   0  0  0  0  0  1  0  0  0  0  0  0
    8.0520   19.8104   15.3278 O   0  0  0  0  0  0  0  0  0  0  0  0
    4.5474   22.7459   19.3550 N   0  0  0  0  0  0  0  0  0  0  0  0
    4.1184   23.3322   20.6349 C   0  0  2  0  0  0  0  0  0  0  0  0
    2.5777   23.3555   20.5703 C   0  0  0  0  0  0  0  0  0  0  0  0
    1.8747   23.8063   21.4764 O   0  0  0  0  0  0  0  0  0  0  0  0
    4.5407   24.8051   20.7969 C   0  0  0  0  0  0  0  0  0  0  0  0
    3.4848   25.6884   21.4248 C   0  0  0  0  0  0  0  0  0  0  0  0
    2.5919   26.4064   20.4229 C   0  0  0  0  0  0  0  0  0  0  0  0
    2.2762   25.8092   19.3592 O   0  0  0  0  0  1  0  0  0  0  0  0
    2.2544   27.5759   20.7712 O   0  0  0  0  0  0  0  0  0  0  0  0
    2.0499   22.8978   19.3327 N   0  0  0  0  0  0  0  0  0  0  0  0
    0.6999   23.3822   19.0281 C   0  0  2  0  0  0  0  0  0  0  0  0
    0.5221   24.8906   19.2546 C   0  0  0  0  0  0  0  0  0  0  0  0
    0.7187   25.7352   18.3819 O   0  0  0  0  0  0  0  0  0  0  0  0
   -0.2415   22.4280   19.7517 C   0  0  0  0  0  0  0  0  0  0  0  0
    0.5886   21.1434   19.9257 C   0  0  0  0  0  0  0  0  0  0  0  0
    1.9549   21.4509   19.3188 C   0  0  0  0  0  0  0  0  0  0  0  0
    0.0612   25.2774   20.4772 N   0  0  0  0  0  0  0  0  0  0  0  0
  1  2  2  0
  1  3  1  0
  1  4  1  0
  5  4  1  1
  5  6  1  0
  5  8  1  0
  6  7  2  0
  6 11  1  0
  8  9  1  6
  8 10  1  0
 11 12  1  0
 11 17  1  0
 12 13  1  1
 12 15  1  0
 13 14  2  0
 13 18  1  0
 15 16  1  0
 16 17  1  0
 18 19  1  0
 19 20  1  0
 19 22  1  6
 20 21  2  0
 20 26  1  0
 22 23  1  0
 23 24  1  0
 24 25  1  0
 26 27  1  0
 27 28  1  0
 27 30  1  6
 28 29  2  0
 28 37  1  0
 30 31  1  0
 31 32  1  0
 32 33  1  0
 33 34  1  0
 34 35  2  0
 34 36  1  0
 37 38  1  0
 38 39  1  0
 38 41  1  6
 39 40  2  0
 39 42  1  0
 42 43  1  0
 43 44  1  0
 43 46  1  1
 44 45  2  0
 44 53  1  0
 46 47  1  0
 47 48  1  0
 48 49  1  0
 49 50  1  0
 50 51  2  0
 50 52  1  0
 53 54  1  0
 54 55  1  0
 54 57  1  1
 55 56  2  0
 55 62  1  0
 57 58  1  0
 58 59  1  0
 59 60  2  0
 59 61  1  0
 62 63  1  0
 63 64  1  0
 63 66  1  1
 64 65  2  0
 64 70  1  0
 66 67  1  0
 67 68  1  6
 67 69  1  0
 70 71  1  0
 70 76  1  0
 71 72  1  6
 71 74  1  0
 72 73  2  0
 72 77  1  0
 74 75  1  0
 75 76  1  0
 77 78  1  0
 78 79  1  0
 78 81  1  6
 79 80  2  0
 79 82  1  0
 82 83  1  0
 83 84  1  0
 83 86  1  6
 84 85  2  0
 84 88  1  0
 86 87  1  0
 88 89  1  0
 89 90  1  0
 89 92  1  1
 90 91  2  0
 90 99  1  0
 92 93  1  0
 93 94  2  0
 93 95  1  0
 94 96  1  0
 95 97  2  0
 96 98  2  0
 97 98  1  0
 99100  1  0
100101  1  0
100103  1  1
101102  2  0
101113  1  0
103104  1  0
104105  2  0
104106  1  0
105107  1  0
106108  2  0
106109  1  0
107108  1  0
108110  1  0
109111  2  0
110112  2  0
111112  1  0
113114  1  0
114115  1  0
114117  1  6
115116  2  0
115122  1  0
117118  1  0
118119  1  0
119120  1  0
119121  2  0
122123  1  0
123124  1  0
123126  1  6
124125  2  0
124131  1  0
126127  1  0
127128  1  0
128129  1  0
128130  2  0
131132  1  0
131137  1  0
132133  1  1
132135  1  0
133134  2  0
133138  1  0
135136  1  0
136137  1  0
M  CHG  4  35   1  51   1 120  -1 129  -1
M  END
$$$$
