
     RDKit          3D

138143  0  0  0  0  0  0  0  0999 V2000
   24.3060   -3.7823   29.5632 C   0  0  0  0  0  0  0  0  0  0  0  0
   23.1609   -3.7723   29.9822 O   0  0  0  0  0  0  0  0  0  0  0  0
   25.2585   -4.9151   29.8571 C   0  0  0  0  0  0  0  0  0  0  0  0
   24.8757   -2.7534   28.8454 N   0  0  0  0  0  0  0  0  0  0  0  0
   25.7549   -2.9735   27.7016 C   0  0  2  0  0  0  0  0  0  0  0  0
   26.1539   -1.5838   27.1452 C   0  0  0  0  0  0  0  0  0  0  0  0
   26.9209   -1.4914   26.1770 O   0  0  0  0  0  0  0  0  0  0  0  0
   25.1458   -3.7838   26.5277 C   0  0  1  0  0  0  0  0  0  0  0  0
   26.0215   -3.7827   25.2764 C   0  0  0  0  0  0  0  0  0  0  0  0
   24.7718   -5.2212   26.9067 C   0  0  0  0  0  0  0  0  0  0  0  0
   25.7137   -0.4708   27.8321 N   0  0  0  0  0  0  0  0  0  0  0  0
   24.3969   -0.2834   28.4418 C   0  0  2  0  0  0  0  0  0  0  0  0
   23.3385    0.0662   27.3601 C   0  0  0  0  0  0  0  0  0  0  0  0
   23.0687   -0.6926   26.4303 O   0  0  0  0  0  0  0  0  0  0  0  0
   24.6148    0.9303   29.3420 C   0  0  0  0  0  0  0  0  0  0  0  0
   25.5653    1.7963   28.5144 C   0  0  0  0  0  0  0  0  0  0  0  0
   26.4351    0.7886   27.7647 C   0  0  0  0  0  0  0  0  0  0  0  0
   22.7605    1.3218   27.4688 N   0  0  0  0  0  0  0  0  0  0  0  0
   21.7905    1.7551   26.4478 C   0  0  2  0  0  0  0  0  0  0  0  0
   20.4620    0.9773   26.5226 C   0  0  0  0  0  0  0  0  0  0  0  0
   20.4470   -0.2429   26.6246 O   0  0  0  0  0  0  0  0  0  0  0  0
   22.3877    1.6068   25.0383 C   0  0  0  0  0  0  0  0  0  0  0  0
   22.3223    2.9197   24.2566 C   0  0  0  0  0  0  0  0  0  0  0  0
   23.9117    3.2549   23.4252 S   0  0  0  0  0  0  0  0  0  0  0  0
   23.3030    4.0763   21.9381 C   0  0  0  0  0  0  0  0  0  0  0  0
   19.3102    1.7529   26.5856 N   0  0  0  0  0  0  0  0  0  0  0  0
   18.9507    2.3495   27.8803 C   0  0  2  0  0  0  0  0  0  0  0  0
   18.9179    3.8818   27.7661 C   0  0  0  0  0  0  0  0  0  0  0  0
   19.9229    4.5567   28.0061 O   0  0  0  0  0  0  0  0  0  0  0  0
   20.0022    2.0007   28.9419 C   0  0  0  0  0  0  0  0  0  0  0  0
   19.6942    2.4793   30.3613 C   0  0  0  0  0  0  0  0  0  0  0  0
   20.7161    2.0107   31.3832 C   0  0  0  0  0  0  0  0  0  0  0  0
   21.8993    1.4439   30.7102 N   0  0  0  0  0  0  0  0  0  0  0  0
   22.9262    0.8820   31.3604 C   0  0  0  0  0  0  0  0  0  0  0  0
   24.1243    1.4652   31.4325 N   0  0  0  0  0  4  0  0  0  0  0  0
   22.7534   -0.3185   31.9507 N   0  0  0  0  0  0  0  0  0  0  0  0
   17.6736    4.4074   27.4913 N   0  0  0  0  0  0  0  0  0  0  0  0
   17.4171    5.8413   27.4661 C   0  0  2  0  0  0  0  0  0  0  0  0
   18.7465    6.5990   27.2254 C   0  0  0  0  0  0  0  0  0  0  0  0
   19.4002    7.0436   28.1771 O   0  0  0  0  0  0  0  0  0  0  0  0
   16.6271    6.2609   28.6908 C   0  0  0  0  0  0  0  0  0  0  0  0
   19.2322    6.6530   25.9343 N   0  0  0  0  0  0  0  0  0  0  0  0
   20.1726    7.6830   25.4857 C   0  0  2  0  0  0  0  0  0  0  0  0
   20.0333    8.9849   26.3328 C   0  0  0  0  0  0  0  0  0  0  0  0
   19.0840    9.1696   27.0976 O   0  0  0  0  0  0  0  0  0  0  0  0
   19.9812    8.0632   24.0020 C   0  0  0  0  0  0  0  0  0  0  0  0
   21.0769    7.6705   23.0026 C   0  0  0  0  0  0  0  0  0  0  0  0
   20.8627    8.1780   21.5783 C   0  0  0  0  0  0  0  0  0  0  0  0
   20.8789    9.6316   21.4540 N   0  0  0  0  0  0  0  0  0  0  0  0
   20.1979   10.4740   22.2420 C   0  0  0  0  0  0  0  0  0  0  0  0
   20.2545   10.3655   23.5776 N   0  0  0  0  0  4  0  0  0  0  0  0
   19.4473   11.4346   21.7248 N   0  0  0  0  0  0  0  0  0  0  0  0
   20.9595    9.9784   26.0847 N   0  0  0  0  0  0  0  0  0  0  0  0
   20.8930   11.2631   26.7992 C   0  0  2  0  0  0  0  0  0  0  0  0
   21.9780   12.1740   26.1842 C   0  0  0  0  0  0  0  0  0  0  0  0
   22.9906   12.4583   26.8056 O   0  0  0  0  0  0  0  0  0  0  0  0
   21.1226   11.0611   28.3032 C   0  0  0  0  0  0  0  0  0  0  0  0
   22.5361   11.2175   28.8727 C   0  0  0  0  0  0  0  0  0  0  0  0
   23.4387   12.1580   28.0928 C   0  0  0  0  0  0  0  0  0  0  0  0
   23.3192   13.3813   28.1265 O   0  0  0  0  0  0  0  0  0  0  0  0
   24.3945   11.5754   27.3143 N   0  0  0  0  0  0  0  0  0  0  0  0
   21.6611   12.6803   24.9490 N   0  0  0  0  0  0  0  0  0  0  0  0
   20.4422   13.4439   24.6665 C   0  0  2  0  0  0  0  0  0  0  0  0
   20.4873   13.8486   23.1583 C   0  0  0  0  0  0  0  0  0  0  0  0
   20.1677   14.9844   22.7883 O   0  0  0  0  0  0  0  0  0  0  0  0
   20.4896   14.7099   25.5493 C   0  0  0  0  0  0  0  0  0  0  0  0
   19.2929   15.6764   25.4961 C   0  0  1  0  0  0  0  0  0  0  0  0
   18.1365   15.2125   26.3796 C   0  0  0  0  0  0  0  0  0  0  0  0
   19.7475   17.0654   25.9665 C   0  0  0  0  0  0  0  0  0  0  0  0
   20.7595   12.8778   22.2016 N   0  0  0  0  0  0  0  0  0  0  0  0
   20.7811   13.2547   20.7721 C   0  0  2  0  0  0  0  0  0  0  0  0
   19.4679   13.7274   20.0892 C   0  0  0  0  0  0  0  0  0  0  0  0
   18.4633   13.0225   20.0452 O   0  0  0  0  0  0  0  0  0  0  0  0
   21.2964   12.0021   20.0393 C   0  0  0  0  0  0  0  0  0  0  0  0
   21.5954   10.9866   21.1358 C   0  0  0  0  0  0  0  0  0  0  0  0
   21.7461   11.8288   22.3782 C   0  0  0  0  0  0  0  0  0  0  0  0
   19.5550   14.9186   19.4107 N   0  0  0  0  0  0  0  0  0  0  0  0
   19.6085   14.9413   17.9531 C   0  0  2  0  0  0  0  0  0  0  0  0
   18.6357   13.9373   17.3031 C   0  0  0  0  0  0  0  0  0  0  0  0
   18.6813   13.6842   16.0887 O   0  0  0  0  0  0  0  0  0  0  0  0
   21.0324   14.6092   17.5124 C   0  0  0  0  0  0  0  0  0  0  0  0
   17.8001   13.2307   18.1458 N   0  0  0  0  0  0  0  0  0  0  0  0
   16.7004   12.4178   17.6204 C   0  0  2  0  0  0  0  0  0  0  0  0
   15.3929   12.7095   18.3896 C   0  0  0  0  0  0  0  0  0  0  0  0
   14.5784   11.8321   18.6937 O   0  0  0  0  0  0  0  0  0  0  0  0
   17.0558   10.9185   17.7123 C   0  0  0  0  0  0  0  0  0  0  0  0
   15.9187   10.0812   17.9452 O   0  0  0  0  0  0  0  0  0  0  0  0
   15.1995   14.0431   18.7019 N   0  0  0  0  0  0  0  0  0  0  0  0
   14.6105   14.4929   19.9647 C   0  0  2  0  0  0  0  0  0  0  0  0
   14.7210   16.0113   20.2508 C   0  0  0  0  0  0  0  0  0  0  0  0
   15.6334   16.6473   19.7265 O   0  0  0  0  0  0  0  0  0  0  0  0
   15.0087   13.6661   21.1937 C   0  0  0  0  0  0  0  0  0  0  0  0
   14.4528   14.2173   22.4824 C   0  0  0  0  0  0  0  0  0  0  0  0
   13.4790   13.5176   23.2007 C   0  0  0  0  0  0  0  0  0  0  0  0
   14.9024   15.4482   22.9791 C   0  0  0  0  0  0  0  0  0  0  0  0
   12.9875   14.0125   24.4084 C   0  0  0  0  0  0  0  0  0  0  0  0
   14.4035   15.9529   24.1813 C   0  0  0  0  0  0  0  0  0  0  0  0
   13.4607   15.2269   24.9006 C   0  0  0  0  0  0  0  0  0  0  0  0
   13.6937   16.5704   20.9754 N   0  0  0  0  0  0  0  0  0  0  0  0
   12.3383   16.8534   20.4394 C   0  0  2  0  0  0  0  0  0  0  0  0
   11.4775   17.5709   21.5553 C   0  0  0  0  0  0  0  0  0  0  0  0
   10.3793   18.0833   21.3540 O   0  0  0  0  0  0  0  0  0  0  0  0
   11.6585   15.5583   19.9249 C   0  0  0  0  0  0  0  0  0  0  0  0
   10.2145   15.6354   19.5359 C   0  0  0  0  0  0  0  0  0  0  0  0
    9.1446   15.3088   20.3425 C   0  0  0  0  0  0  0  0  0  0  0  0
    9.6831   15.9845   18.2572 C   0  0  0  0  0  0  0  0  0  0  0  0
    7.9894   15.5201   19.6369 N   0  0  0  0  0  0  0  0  0  0  0  0
    8.2902   15.9077   18.3503 C   0  0  0  0  0  0  0  0  0  0  0  0
   10.2443   16.3538   17.0172 C   0  0  0  0  0  0  0  0  0  0  0  0
    7.4310   16.2065   17.2848 C   0  0  0  0  0  0  0  0  0  0  0  0
    9.4083   16.6389   15.9337 C   0  0  0  0  0  0  0  0  0  0  0  0
    8.0190   16.5584   16.0672 C   0  0  0  0  0  0  0  0  0  0  0  0
   12.0747   17.6723   22.8025 N   0  0  0  0  0  0  0  0  0  0  0  0
   11.5190   17.0128   24.0065 C   0  0  2  0  0  0  0  0  0  0  0  0
   10.5618   17.8504   24.9396 C   0  0  0  0  0  0  0  0  0  0  0  0
   10.8545   18.2688   26.0590 O   0  0  0  0  0  0  0  0  0  0  0  0
   12.5871   16.3049   24.8632 C   0  0  0  0  0  0  0  0  0  0  0  0
   12.8177   16.9663   26.2193 C   0  0  0  0  0  0  0  0  0  0  0  0
   14.1839   17.6482   26.3803 C   0  0  0  0  0  0  0  0  0  0  0  0
   14.3507   18.6622   25.6456 O   0  0  0  0  0  1  0  0  0  0  0  0
   14.9998   17.1183   27.1870 O   0  0  0  0  0  0  0  0  0  0  0  0
    9.3032   18.0593   24.3812 N   0  0  0  0  0  0  0  0  0  0  0  0
    8.4770   19.2634   24.5637 C   0  0  2  0  0  0  0  0  0  0  0  0
    8.4627   19.5145   26.0853 C   0  0  0  0  0  0  0  0  0  0  0  0
    8.3712   20.6398   26.5790 O   0  0  0  0  0  0  0  0  0  0  0  0
    7.0019   19.0496   24.1732 C   0  0  0  0  0  0  0  0  0  0  0  0
    6.1573   18.4190   25.2586 C   0  0  0  0  0  0  0  0  0  0  0  0
    4.7074   18.1775   24.8633 C   0  0  0  0  0  0  0  0  0  0  0  0
    4.4294   18.0413   23.6418 O   0  0  0  0  0  1  0  0  0  0  0  0
    3.9003   18.1467   25.8383 O   0  0  0  0  0  0  0  0  0  0  0  0
    8.4686   18.3241   26.8617 N   0  0  0  0  0  0  0  0  0  0  0  0
    8.0022   18.4929   28.2416 C   0  0  2  0  0  0  0  0  0  0  0  0
    6.6996   19.2979   28.3564 C   0  0  0  0  0  0  0  0  0  0  0  0
    6.0586   19.4054   29.4010 O   0  0  0  0  0  0  0  0  0  0  0  0
    9.2194   18.9750   29.0203 C   0  0  0  0  0  0  0  0  0  0  0  0
   10.4161   18.4896   28.1827 C   0  0  0  0  0  0  0  0  0  0  0  0
    9.8117   17.7881   26.9694 C   0  0  0  0  0  0  0  0  0  0  0  0
    6.2919   19.9678   27.2420 N   0  0  0  0  0  0  0  0  0  0  0  0
  1  2  2  0
  1  3  1  0
  1  4  1  0
  5  4  1  1
  5  6  1  0
  5  8  1  0
  6  7  2  0
  6 11  1  0
  8  9  1  6
  8 10  1  0
 11 12  1  0
 11 17  1  0
 12 13  1  6
 12 15  1  0
 13 14  2  0
 13 18  1  0
 15 16  1  0
 16 17  1  0
 18 19  1  0
 19 20  1  0
 19 22  1  6
 20 21  2  0
 20 26  1  0
 22 23  1  0
 23 24  1  0
 24 25  1  0
 26 27  1  0
 27 28  1  0
 27 30  1  1
 28 29  2  0
 28 37  1  0
 30 31  1  0
 31 32  1  0
 32 33  1  0
 33 34  1  0
 34 35  2  0
 34 36  1  0
 37 38  1  0
 38 39  1  0
 38 41  1  1
 39 40  2  0
 39 42  1  0
 42 43  1  0
 43 44  1  0
 43 46  1  6
 44 45  2  0
 44 53  1  0
 46 47  1  0
 47 48  1  0
 48 49  1  0
 49 50  1  0
 50 51  2  0
 50 52  1  0
 53 54  1  0
 54 55  1  0
 54 57  1  1
 55 56  2  0
 55 62  1  0
 57 58  1  0
 58 59  1  0
 59 60  2  0
 59 61  1  0
 62 63  1  0
 63 64  1  0
 63 66  1  1
 64 65  2  0
 64 70  1  0
 66 67  1  0
 67 68  1  1
 67 69  1  0
 70 71  1  0
 70 76  1  0
 71 72  1  6
 71 74  1  0
 72 73  2  0
 72 77  1  0
 74 75  1  0
 75 76  1  0
 77 78  1  0
 78 79  1  0
 78 81  1  1
 79 80  2  0
 79 82  1  0
 82 83  1  0
 83 84  1  0
 83 86  1  1
 84 85  2  0
 84 88  1  0
 86 87  1  0
 88 89  1  0
 89 90  1  0
 89 92  1  1
 90 91  2  0
 90 99  1  0
 92 93  1  0
 93 94  2  0
 93 95  1  0
 94 96  1  0
 95 97  2  0
 96 98  2  0
 97 98  1  0
 99100  1  0
100101  1  0
100103  1  1
101102  2  0
101113  1  0
103104  1  0
104105  2  0
104106  1  0
105107  1  0
106108  2  0
106109  1  0
107108  1  0
108110  1  0
109111  2  0
110112  2  0
111112  1  0
113114  1  0
114115  1  0
114117  1  1
115116  2  0
115122  1  0
117118  1  0
118119  1  0
119120  1  0
119121  2  0
122123  1  0
123124  1  0
123126  1  1
124125  2  0
124131  1  0
126127  1  0
127128  1  0
128129  1  0
128130  2  0
131132  1  0
131137  1  0
132133  1  6
132135  1  0
133134  2  0
133138  1  0
135136  1  0
136137  1  0
M  CHG  4  35   1  51   1 120  -1 129  -1
M  END
$$$$
