
     RDKit          3D

138143  0  0  0  0  0  0  0  0999 V2000
   22.8463    8.7509   40.2845 C   0  0  0  0  0  0  0  0  0  0  0  0
   22.1134    8.2833   39.4295 O   0  0  0  0  0  0  0  0  0  0  0  0
   24.1730    8.1234   40.6354 C   0  0  0  0  0  0  0  0  0  0  0  0
   22.5287    9.8430   41.0623 N   0  0  0  0  0  0  0  0  0  0  0  0
   23.4524   10.4249   42.0308 C   0  0  2  0  0  0  0  0  0  0  0  0
   23.5389   11.9439   41.7391 C   0  0  0  0  0  0  0  0  0  0  0  0
   24.4319   12.6322   42.2520 O   0  0  0  0  0  0  0  0  0  0  0  0
   24.8990    9.8661   42.0047 C   0  0  1  0  0  0  0  0  0  0  0  0
   25.5511    9.9460   40.6259 C   0  0  0  0  0  0  0  0  0  0  0  0
   25.8167   10.4968   43.0580 C   0  0  0  0  0  0  0  0  0  0  0  0
   22.5301   12.5076   40.9847 N   0  0  0  0  0  0  0  0  0  0  0  0
   21.6790   11.8228   40.0111 C   0  0  2  0  0  0  0  0  0  0  0  0
   22.4429   11.6028   38.6768 C   0  0  0  0  0  0  0  0  0  0  0  0
   23.4947   10.9681   38.6146 O   0  0  0  0  0  0  0  0  0  0  0  0
   20.5531   12.8288   39.7853 C   0  0  0  0  0  0  0  0  0  0  0  0
   21.2850   14.1703   39.8392 C   0  0  0  0  0  0  0  0  0  0  0  0
   22.4000   13.9492   40.8601 C   0  0  0  0  0  0  0  0  0  0  0  0
   21.8992   12.2255   37.5636 N   0  0  0  0  0  0  0  0  0  0  0  0
   22.2600   11.7367   36.2212 C   0  0  2  0  0  0  0  0  0  0  0  0
   21.5849   12.5426   35.0941 C   0  0  0  0  0  0  0  0  0  0  0  0
   20.3661   12.5720   34.9787 O   0  0  0  0  0  0  0  0  0  0  0  0
   21.8952   10.2500   36.0719 C   0  0  0  0  0  0  0  0  0  0  0  0
   21.8813    9.8168   34.6052 C   0  0  0  0  0  0  0  0  0  0  0  0
   21.2389   11.1549   33.5438 S   0  0  0  0  0  0  0  0  0  0  0  0
   19.5504   11.2503   34.1733 C   0  0  0  0  0  0  0  0  0  0  0  0
   22.4349   13.3130   34.3093 N   0  0  0  0  0  0  0  0  0  0  0  0
   23.1469   14.4267   34.9527 C   0  0  2  0  0  0  0  0  0  0  0  0
   23.6516   15.4163   33.8906 C   0  0  0  0  0  0  0  0  0  0  0  0
   23.3420   16.6101   33.9389 O   0  0  0  0  0  0  0  0  0  0  0  0
   24.3792   13.9108   35.7073 C   0  0  0  0  0  0  0  0  0  0  0  0
   24.4863   14.3387   37.1716 C   0  0  0  0  0  0  0  0  0  0  0  0
   25.6743   15.2461   37.4421 C   0  0  0  0  0  0  0  0  0  0  0  0
   26.2605   14.9522   38.7628 N   0  0  0  0  0  0  0  0  0  0  0  0
   26.7416   13.7524   39.1121 C   0  0  0  0  0  0  0  0  0  0  0  0
   26.2348   13.0542   40.1301 N   0  0  0  0  0  4  0  0  0  0  0  0
   27.7811   13.2352   38.4255 N   0  0  0  0  0  0  0  0  0  0  0  0
   24.3603   14.8361   32.8605 N   0  0  0  0  0  0  0  0  0  0  0  0
   23.7691   13.8590   31.9559 C   0  0  2  0  0  0  0  0  0  0  0  0
   22.8193   14.5798   30.9673 C   0  0  0  0  0  0  0  0  0  0  0  0
   22.5491   15.7785   31.1127 O   0  0  0  0  0  0  0  0  0  0  0  0
   23.1637   12.7094   32.7383 C   0  0  0  0  0  0  0  0  0  0  0  0
   22.3870   13.8765   29.8608 N   0  0  0  0  0  0  0  0  0  0  0  0
   22.6472   14.3217   28.4894 C   0  0  2  0  0  0  0  0  0  0  0  0
   21.3179   14.5822   27.7166 C   0  0  0  0  0  0  0  0  0  0  0  0
   21.3034   14.8691   26.5177 O   0  0  0  0  0  0  0  0  0  0  0  0
   23.4736   13.3031   27.6759 C   0  0  0  0  0  0  0  0  0  0  0  0
   24.4890   13.8370   26.6573 C   0  0  0  0  0  0  0  0  0  0  0  0
   25.8345   13.1149   26.6486 C   0  0  0  0  0  0  0  0  0  0  0  0
   25.8449   11.8632   27.3982 N   0  0  0  0  0  0  0  0  0  0  0  0
   26.2925   10.6926   26.9254 C   0  0  0  0  0  0  0  0  0  0  0  0
   26.8399   10.6071   25.7040 N   0  0  0  0  0  4  0  0  0  0  0  0
   26.2038    9.5868   27.6487 N   0  0  0  0  0  0  0  0  0  0  0  0
   20.1639   14.6040   28.4743 N   0  0  0  0  0  0  0  0  0  0  0  0
   19.2947   15.7913   28.4857 C   0  0  2  0  0  0  0  0  0  0  0  0
   17.8691   15.3058   28.1434 C   0  0  0  0  0  0  0  0  0  0  0  0
   17.6883   14.3276   27.4344 O   0  0  0  0  0  0  0  0  0  0  0  0
   19.7860   16.8342   27.4726 C   0  0  0  0  0  0  0  0  0  0  0  0
   20.6584   17.9963   27.9573 C   0  0  0  0  0  0  0  0  0  0  0  0
   19.9431   19.0098   28.8340 C   0  0  0  0  0  0  0  0  0  0  0  0
   20.5259   19.9286   29.4067 O   0  0  0  0  0  0  0  0  0  0  0  0
   18.5986   18.8403   28.9847 N   0  0  0  0  0  0  0  0  0  0  0  0
   16.8651   16.1050   28.6288 N   0  0  0  0  0  0  0  0  0  0  0  0
   15.5161   16.1606   28.0582 C   0  0  2  0  0  0  0  0  0  0  0  0
   15.2057   17.6595   27.7458 C   0  0  0  0  0  0  0  0  0  0  0  0
   15.1912   18.5124   28.6410 O   0  0  0  0  0  0  0  0  0  0  0  0
   14.5472   15.6408   29.1423 C   0  0  0  0  0  0  0  0  0  0  0  0
   14.9572   15.7985   30.6174 C   0  0  1  0  0  0  0  0  0  0  0  0
   13.8783   15.2938   31.5736 C   0  0  0  0  0  0  0  0  0  0  0  0
   16.2486   15.0066   30.8674 C   0  0  0  0  0  0  0  0  0  0  0  0
   14.8056   18.0181   26.4640 N   0  0  0  0  0  0  0  0  0  0  0  0
   14.3932   19.4126   26.1969 C   0  0  2  0  0  0  0  0  0  0  0  0
   13.1151   19.9730   26.8801 C   0  0  0  0  0  0  0  0  0  0  0  0
   13.1336   20.4478   28.0125 O   0  0  0  0  0  0  0  0  0  0  0  0
   14.2106   19.4869   24.6696 C   0  0  0  0  0  0  0  0  0  0  0  0
   14.5961   18.1073   24.1489 C   0  0  0  0  0  0  0  0  0  0  0  0
   15.4396   17.5250   25.2558 C   0  0  0  0  0  0  0  0  0  0  0  0
   11.9433   19.7638   26.1945 N   0  0  0  0  0  0  0  0  0  0  0  0
   11.9424   19.0395   24.9283 C   0  0  2  0  0  0  0  0  0  0  0  0
   11.0415   19.6966   23.8638 C   0  0  0  0  0  0  0  0  0  0  0  0
   11.3212   19.6434   22.6556 O   0  0  0  0  0  0  0  0  0  0  0  0
   11.4530   17.6153   25.1820 C   0  0  0  0  0  0  0  0  0  0  0  0
    9.8425   20.2312   24.2931 N   0  0  0  0  0  0  0  0  0  0  0  0
    8.5681   19.8095   23.7063 C   0  0  2  0  0  0  0  0  0  0  0  0
    8.4231   20.3576   22.2694 C   0  0  0  0  0  0  0  0  0  0  0  0
    9.0808   21.3114   21.8411 O   0  0  0  0  0  0  0  0  0  0  0  0
    7.3932   20.2876   24.5859 C   0  0  0  0  0  0  0  0  0  0  0  0
    6.1169   19.8434   24.1146 O   0  0  0  0  0  0  0  0  0  0  0  0
    7.4820   19.6985   21.4990 N   0  0  0  0  0  0  0  0  0  0  0  0
    7.8235   18.9326   20.2988 C   0  0  2  0  0  0  0  0  0  0  0  0
    6.7176   18.8568   19.2168 C   0  0  0  0  0  0  0  0  0  0  0  0
    7.0089   19.1266   18.0530 O   0  0  0  0  0  0  0  0  0  0  0  0
    8.4340   17.5513   20.5662 C   0  0  0  0  0  0  0  0  0  0  0  0
    8.6771   16.7586   19.3067 C   0  0  0  0  0  0  0  0  0  0  0  0
    8.5308   17.3491   18.0482 C   0  0  0  0  0  0  0  0  0  0  0  0
    9.0499   15.4097   19.3792 C   0  0  0  0  0  0  0  0  0  0  0  0
    8.7858   16.6246   16.8842 C   0  0  0  0  0  0  0  0  0  0  0  0
    9.2937   14.6776   18.2158 C   0  0  0  0  0  0  0  0  0  0  0  0
    9.1775   15.2905   16.9732 C   0  0  0  0  0  0  0  0  0  0  0  0
    5.5024   18.3551   19.6226 N   0  0  0  0  0  0  0  0  0  0  0  0
    4.3505   19.1831   20.0612 C   0  0  2  0  0  0  0  0  0  0  0  0
    4.4362   20.6016   19.3675 C   0  0  0  0  0  0  0  0  0  0  0  0
    3.6901   21.5418   19.6292 O   0  0  0  0  0  0  0  0  0  0  0  0
    4.2984   19.2948   21.6068 C   0  0  0  0  0  0  0  0  0  0  0  0
    3.0989   19.9497   22.2190 C   0  0  0  0  0  0  0  0  0  0  0  0
    1.9171   19.3193   22.5479 C   0  0  0  0  0  0  0  0  0  0  0  0
    2.9263   21.3380   22.5056 C   0  0  0  0  0  0  0  0  0  0  0  0
    1.0683   20.2465   23.0927 N   0  0  0  0  0  0  0  0  0  0  0  0
    1.6498   21.4941   23.0543 C   0  0  0  0  0  0  0  0  0  0  0  0
    3.7246   22.4899   22.3483 C   0  0  0  0  0  0  0  0  0  0  0  0
    1.1414   22.7286   23.4789 C   0  0  0  0  0  0  0  0  0  0  0  0
    3.2325   23.7359   22.7474 C   0  0  0  0  0  0  0  0  0  0  0  0
    1.9531   23.8516   23.2991 C   0  0  0  0  0  0  0  0  0  0  0  0
    5.3743   20.7190   18.3532 N   0  0  0  0  0  0  0  0  0  0  0  0
    5.2088   21.6602   17.2218 C   0  0  2  0  0  0  0  0  0  0  0  0
    3.7795   22.2786   16.9706 C   0  0  0  0  0  0  0  0  0  0  0  0
    2.8981   22.3901   17.8218 O   0  0  0  0  0  0  0  0  0  0  0  0
    5.7820   21.1264   15.8943 C   0  0  0  0  0  0  0  0  0  0  0  0
    6.3511   19.7142   15.9997 C   0  0  0  0  0  0  0  0  0  0  0  0
    7.6571   19.4856   15.2254 C   0  0  0  0  0  0  0  0  0  0  0  0
    8.4056   20.5007   15.1536 O   0  0  0  0  0  1  0  0  0  0  0  0
    7.8324   18.3413   14.7184 O   0  0  0  0  0  0  0  0  0  0  0  0
    3.5826   22.6756   15.6503 N   0  0  0  0  0  0  0  0  0  0  0  0
    2.6118   23.6848   15.1975 C   0  0  2  0  0  0  0  0  0  0  0  0
    3.4424   24.7150   14.4053 C   0  0  0  0  0  0  0  0  0  0  0  0
    4.6428   24.9069   14.6069 O   0  0  0  0  0  0  0  0  0  0  0  0
    1.9791   24.4782   16.3570 C   0  0  0  0  0  0  0  0  0  0  0  0
    0.4695   24.3953   16.4151 C   0  0  0  0  0  0  0  0  0  0  0  0
   -0.1621   23.6452   15.2510 C   0  0  0  0  0  0  0  0  0  0  0  0
   -0.9235   24.2750   14.4690 O   0  0  0  0  0  1  0  0  0  0  0  0
    0.1474   22.4189   15.1928 O   0  0  0  0  0  0  0  0  0  0  0  0
    2.7190   25.3515   13.3607 N   0  0  0  0  0  0  0  0  0  0  0  0
    3.5067   26.2920   12.5577 C   0  0  2  0  0  0  0  0  0  0  0  0
    4.8669   25.7335   12.1148 C   0  0  0  0  0  0  0  0  0  0  0  0
    5.4544   24.8296   12.7075 O   0  0  0  0  0  0  0  0  0  0  0  0
    3.4831   27.6015   13.3356 C   0  0  0  0  0  0  0  0  0  0  0  0
    2.2197   27.4956   14.2086 C   0  0  0  0  0  0  0  0  0  0  0  0
    1.6181   26.1277   13.8976 C   0  0  0  0  0  0  0  0  0  0  0  0
    5.3949   26.2428   10.9665 N   0  0  0  0  0  0  0  0  0  0  0  0
  1  2  2  0
  1  3  1  0
  1  4  1  0
  5  4  1  6
  5  6  1  0
  5  8  1  0
  6  7  2  0
  6 11  1  0
  8  9  1  6
  8 10  1  0
 11 12  1  0
 11 17  1  0
 12 13  1  6
 12 15  1  0
 13 14  2  0
 13 18  1  0
 15 16  1  0
 16 17  1  0
 18 19  1  0
 19 20  1  0
 19 22  1  1
 20 21  2  0
 20 26  1  0
 22 23  1  0
 23 24  1  0
 24 25  1  0
 26 27  1  0
 27 28  1  0
 27 30  1  6
 28 29  2  0
 28 37  1  0
 30 31  1  0
 31 32  1  0
 32 33  1  0
 33 34  1  0
 34 35  2  0
 34 36  1  0
 37 38  1  0
 38 39  1  0
 38 41  1  1
 39 40  2  0
 39 42  1  0
 42 43  1  0
 43 44  1  0
 43 46  1  6
 44 45  2  0
 44 53  1  0
 46 47  1  0
 47 48  1  0
 48 49  1  0
 49 50  1  0
 50 51  2  0
 50 52  1  0
 53 54  1  0
 54 55  1  0
 54 57  1  6
 55 56  2  0
 55 62  1  0
 57 58  1  0
 58 59  1  0
 59 60  2  0
 59 61  1  0
 62 63  1  0
 63 64  1  0
 63 66  1  1
 64 65  2  0
 64 70  1  0
 66 67  1  0
 67 68  1  1
 67 69  1  0
 70 71  1  0
 70 76  1  0
 71 72  1  1
 71 74  1  0
 72 73  2  0
 72 77  1  0
 74 75  1  0
 75 76  1  0
 77 78  1  0
 78 79  1  0
 78 81  1  1
 79 80  2  0
 79 82  1  0
 82 83  1  0
 83 84  1  0
 83 86  1  1
 84 85  2  0
 84 88  1  0
 86 87  1  0
 88 89  1  0
 89 90  1  0
 89 92  1  1
 90 91  2  0
 90 99  1  0
 92 93  1  0
 93 94  2  0
 93 95  1  0
 94 96  1  0
 95 97  2  0
 96 98  2  0
 97 98  1  0
 99100  1  0
100101  1  0
100103  1  1
101102  2  0
101113  1  0
103104  1  0
104105  2  0
104106  1  0
105107  1  0
106108  2  0
106109  1  0
107108  1  0
108110  1  0
109111  2  0
110112  2  0
111112  1  0
113114  1  0
114115  1  0
114117  1  6
115116  2  0
115122  1  0
117118  1  0
118119  1  0
119120  1  0
119121  2  0
122123  1  0
123124  1  0
123126  1  1
124125  2  0
124131  1  0
126127  1  0
127128  1  0
128129  1  0
128130  2  0
131132  1  0
131137  1  0
132133  1  1
132135  1  0
133134  2  0
133138  1  0
135136  1  0
136137  1  0
M  CHG  4  35   1  51   1 120  -1 129  -1
M  END
$$$$
