
     RDKit          3D

138143  0  0  0  0  0  0  0  0999 V2000
   26.1804   -3.4340   39.3932 C   0  0  0  0  0  0  0  0  0  0  0  0
   27.0784   -3.8212   40.1216 O   0  0  0  0  0  0  0  0  0  0  0  0
   24.8339   -4.1137   39.3480 C   0  0  0  0  0  0  0  0  0  0  0  0
   26.3059   -2.3963   38.4955 N   0  0  0  0  0  0  0  0  0  0  0  0
   26.8100   -2.5761   37.1379 C   0  0  2  0  0  0  0  0  0  0  0  0
   26.5449   -1.2609   36.3634 C   0  0  0  0  0  0  0  0  0  0  0  0
   26.9851   -1.1080   35.2157 O   0  0  0  0  0  0  0  0  0  0  0  0
   26.1652   -3.7291   36.3251 C   0  0  1  0  0  0  0  0  0  0  0  0
   26.6736   -3.8105   34.8872 C   0  0  0  0  0  0  0  0  0  0  0  0
   26.2869   -5.0978   37.0043 C   0  0  0  0  0  0  0  0  0  0  0  0
   25.9029   -0.2417   37.0369 N   0  0  0  0  0  0  0  0  0  0  0  0
   24.6335    0.3862   36.6691 C   0  0  2  0  0  0  0  0  0  0  0  0
   24.8395    1.3946   35.5058 C   0  0  0  0  0  0  0  0  0  0  0  0
   25.9361    1.5835   34.9816 O   0  0  0  0  0  0  0  0  0  0  0  0
   24.2591    1.1509   37.9363 C   0  0  0  0  0  0  0  0  0  0  0  0
   25.6140    1.6477   38.4418 C   0  0  0  0  0  0  0  0  0  0  0  0
   26.5903    0.5394   38.0509 C   0  0  0  0  0  0  0  0  0  0  0  0
   23.7187    2.1224   35.1361 N   0  0  0  0  0  0  0  0  0  0  0  0
   23.2237    2.0226   33.7519 C   0  0  2  0  0  0  0  0  0  0  0  0
   23.8108    3.1102   32.8311 C   0  0  0  0  0  0  0  0  0  0  0  0
   23.5481    3.1375   31.6353 O   0  0  0  0  0  0  0  0  0  0  0  0
   21.6882    2.1045   33.7204 C   0  0  0  0  0  0  0  0  0  0  0  0
   21.1396    1.8756   32.3113 C   0  0  0  0  0  0  0  0  0  0  0  0
   21.3136    0.1246   31.8282 S   0  0  0  0  0  0  0  0  0  0  0  0
   22.7915    0.2443   30.7996 C   0  0  0  0  0  0  0  0  0  0  0  0
   24.5465    4.1054   33.4638 N   0  0  0  0  0  0  0  0  0  0  0  0
   24.2378    5.5049   33.1361 C   0  0  2  0  0  0  0  0  0  0  0  0
   24.4820    5.7647   31.6411 C   0  0  0  0  0  0  0  0  0  0  0  0
   25.2710    5.0674   30.9974 O   0  0  0  0  0  0  0  0  0  0  0  0
   25.1598    6.4536   33.9132 C   0  0  0  0  0  0  0  0  0  0  0  0
   24.5482    7.1007   35.1566 C   0  0  0  0  0  0  0  0  0  0  0  0
   23.2700    7.8673   34.8620 C   0  0  0  0  0  0  0  0  0  0  0  0
   23.4952    9.3188   34.9910 N   0  0  0  0  0  0  0  0  0  0  0  0
   23.6242   10.1466   33.9464 C   0  0  0  0  0  0  0  0  0  0  0  0
   24.6783   10.9528   33.8065 N   0  0  0  0  0  4  0  0  0  0  0  0
   22.6534   10.1810   33.0105 N   0  0  0  0  0  0  0  0  0  0  0  0
   23.8429    6.8801   31.1435 N   0  0  0  0  0  0  0  0  0  0  0  0
   23.8846    7.2429   29.7331 C   0  0  2  0  0  0  0  0  0  0  0  0
   24.5446    8.6356   29.5780 C   0  0  0  0  0  0  0  0  0  0  0  0
   24.5202    9.4520   30.5074 O   0  0  0  0  0  0  0  0  0  0  0  0
   22.5140    7.0847   29.1035 C   0  0  0  0  0  0  0  0  0  0  0  0
   25.2588    8.8848   28.4232 N   0  0  0  0  0  0  0  0  0  0  0  0
   25.8747   10.1834   28.1389 C   0  0  2  0  0  0  0  0  0  0  0  0
   24.9838   11.3568   28.6500 C   0  0  0  0  0  0  0  0  0  0  0  0
   24.7971   11.5616   29.8514 O   0  0  0  0  0  0  0  0  0  0  0  0
   26.1316   10.4075   26.6335 C   0  0  0  0  0  0  0  0  0  0  0  0
   27.5833   10.5325   26.1533 C   0  0  0  0  0  0  0  0  0  0  0  0
   28.6409   10.1956   27.2021 C   0  0  0  0  0  0  0  0  0  0  0  0
   28.3968    8.9469   27.9162 N   0  0  0  0  0  0  0  0  0  0  0  0
   29.2982    8.3127   28.6773 C   0  0  0  0  0  0  0  0  0  0  0  0
   30.5731    8.7265   28.7244 N   0  0  0  0  0  4  0  0  0  0  0  0
   28.9571    7.2576   29.4014 N   0  0  0  0  0  0  0  0  0  0  0  0
   24.3075   12.0768   27.6852 N   0  0  0  0  0  0  0  0  0  0  0  0
   22.8365   12.0866   27.6482 C   0  0  2  0  0  0  0  0  0  0  0  0
   22.3507   11.6275   29.0404 C   0  0  0  0  0  0  0  0  0  0  0  0
   23.1050   11.0633   29.8182 O   0  0  0  0  0  0  0  0  0  0  0  0
   22.3145   11.1591   26.5425 C   0  0  0  0  0  0  0  0  0  0  0  0
   21.0072   10.3918   26.7637 C   0  0  0  0  0  0  0  0  0  0  0  0
   20.7325    9.2926   25.7520 C   0  0  0  0  0  0  0  0  0  0  0  0
   19.7120    8.6069   25.7695 O   0  0  0  0  0  0  0  0  0  0  0  0
   21.6991    9.0742   24.8155 N   0  0  0  0  0  0  0  0  0  0  0  0
   21.0143   11.8342   29.2722 N   0  0  0  0  0  0  0  0  0  0  0  0
   20.0264   10.7564   29.3780 C   0  0  2  0  0  0  0  0  0  0  0  0
   18.6788   11.3045   28.8087 C   0  0  0  0  0  0  0  0  0  0  0  0
   18.6096   11.7823   27.6702 O   0  0  0  0  0  0  0  0  0  0  0  0
   19.8682   10.4370   30.8804 C   0  0  0  0  0  0  0  0  0  0  0  0
   20.6555   11.2910   31.8903 C   0  0  1  0  0  0  0  0  0  0  0  0
   22.0703   11.6006   31.4051 C   0  0  0  0  0  0  0  0  0  0  0  0
   19.9107   12.6140   32.1180 C   0  0  0  0  0  0  0  0  0  0  0  0
   17.5698   11.3820   29.6428 N   0  0  0  0  0  0  0  0  0  0  0  0
   16.2476   11.7008   29.0630 C   0  0  2  0  0  0  0  0  0  0  0  0
   16.0125   13.0979   28.4250 C   0  0  0  0  0  0  0  0  0  0  0  0
   16.7325   13.5390   27.5333 O   0  0  0  0  0  0  0  0  0  0  0  0
   15.2504   11.5121   30.2213 C   0  0  0  0  0  0  0  0  0  0  0  0
   16.0873   11.0309   31.4008 C   0  0  0  0  0  0  0  0  0  0  0  0
   17.3379   10.4840   30.7584 C   0  0  0  0  0  0  0  0  0  0  0  0
   15.0436   13.8629   29.0273 N   0  0  0  0  0  0  0  0  0  0  0  0
   13.9639   14.4490   28.2407 C   0  0  2  0  0  0  0  0  0  0  0  0
   14.3668   14.7153   26.7767 C   0  0  0  0  0  0  0  0  0  0  0  0
   15.4995   14.4332   26.3546 O   0  0  0  0  0  0  0  0  0  0  0  0
   13.5492   15.7680   28.8891 C   0  0  0  0  0  0  0  0  0  0  0  0
   13.3778   15.1556   25.9190 N   0  0  0  0  0  0  0  0  0  0  0  0
   13.6709   16.1073   24.8445 C   0  0  2  0  0  0  0  0  0  0  0  0
   13.2861   15.5129   23.4716 C   0  0  0  0  0  0  0  0  0  0  0  0
   13.0909   14.3070   23.2887 O   0  0  0  0  0  0  0  0  0  0  0  0
   15.1664   16.4894   24.8654 C   0  0  0  0  0  0  0  0  0  0  0  0
   15.9683   15.6819   23.9975 O   0  0  0  0  0  0  0  0  0  0  0  0
   13.1892   16.4440   22.4531 N   0  0  0  0  0  0  0  0  0  0  0  0
   11.9629   16.6658   21.6846 C   0  0  2  0  0  0  0  0  0  0  0  0
   11.5068   15.4815   20.7964 C   0  0  0  0  0  0  0  0  0  0  0  0
   11.4322   14.3609   21.2971 O   0  0  0  0  0  0  0  0  0  0  0  0
   11.9159   17.9897   20.9115 C   0  0  0  0  0  0  0  0  0  0  0  0
   10.5688   18.2653   20.2924 C   0  0  0  0  0  0  0  0  0  0  0  0
   10.4328   19.1906   19.2536 C   0  0  0  0  0  0  0  0  0  0  0  0
    9.4265   17.5986   20.7553 C   0  0  0  0  0  0  0  0  0  0  0  0
    9.1923   19.4226   18.6602 C   0  0  0  0  0  0  0  0  0  0  0  0
    8.1807   17.8376   20.1723 C   0  0  0  0  0  0  0  0  0  0  0  0
    8.0695   18.7354   19.1164 C   0  0  0  0  0  0  0  0  0  0  0  0
   11.0831   15.8006   19.5269 N   0  0  0  0  0  0  0  0  0  0  0  0
    9.7016   16.2178   19.1773 C   0  0  2  0  0  0  0  0  0  0  0  0
    9.7346   17.0497   17.8328 C   0  0  0  0  0  0  0  0  0  0  0  0
    9.5790   18.2669   17.7727 O   0  0  0  0  0  0  0  0  0  0  0  0
    9.0473   17.0132   20.3363 C   0  0  0  0  0  0  0  0  0  0  0  0
    7.6185   17.4319   20.1758 C   0  0  0  0  0  0  0  0  0  0  0  0
    7.1421   18.7227   20.2705 C   0  0  0  0  0  0  0  0  0  0  0  0
    6.4887   16.5829   19.9712 C   0  0  0  0  0  0  0  0  0  0  0  0
    5.7894   18.7024   20.0539 N   0  0  0  0  0  0  0  0  0  0  0  0
    5.3596   17.4039   19.8949 C   0  0  0  0  0  0  0  0  0  0  0  0
    6.3038   15.1901   19.8490 C   0  0  0  0  0  0  0  0  0  0  0  0
    4.0658   16.9132   19.6754 C   0  0  0  0  0  0  0  0  0  0  0  0
    5.0201   14.6747   19.6478 C   0  0  0  0  0  0  0  0  0  0  0  0
    3.9155   15.5281   19.5696 C   0  0  0  0  0  0  0  0  0  0  0  0
    9.8712   16.3073   16.6698 N   0  0  0  0  0  0  0  0  0  0  0  0
   10.3224   14.8967   16.6751 C   0  0  2  0  0  0  0  0  0  0  0  0
   10.5071   14.1687   15.2878 C   0  0  0  0  0  0  0  0  0  0  0  0
    9.6165   13.5837   14.6727 O   0  0  0  0  0  0  0  0  0  0  0  0
    9.5076   13.9982   17.6262 C   0  0  0  0  0  0  0  0  0  0  0  0
   10.3720   13.1740   18.5764 C   0  0  0  0  0  0  0  0  0  0  0  0
   11.2478   12.1128   17.8952 C   0  0  0  0  0  0  0  0  0  0  0  0
   12.1287   11.6041   18.6442 O   0  0  0  0  0  1  0  0  0  0  0  0
   11.0284   11.8850   16.6715 O   0  0  0  0  0  0  0  0  0  0  0  0
   11.8162   14.2215   14.8155 N   0  0  0  0  0  0  0  0  0  0  0  0
   12.4400   15.3797   14.1556 C   0  0  2  0  0  0  0  0  0  0  0  0
   13.9495   15.0644   14.1321 C   0  0  0  0  0  0  0  0  0  0  0  0
   14.8084   15.8658   14.5039 O   0  0  0  0  0  0  0  0  0  0  0  0
   12.3094   16.6818   14.9690 C   0  0  0  0  0  0  0  0  0  0  0  0
   11.4185   17.7255   14.3316 C   0  0  0  0  0  0  0  0  0  0  0  0
   11.9245   18.2493   12.9950 C   0  0  0  0  0  0  0  0  0  0  0  0
   11.4024   19.2927   12.5189 O   0  0  0  0  0  1  0  0  0  0  0  0
   12.8449   17.5511   12.4771 O   0  0  0  0  0  0  0  0  0  0  0  0
   14.2498   13.7339   13.7329 N   0  0  0  0  0  0  0  0  0  0  0  0
   15.5760   13.5616   13.1315 C   0  0  2  0  0  0  0  0  0  0  0  0
   16.7037   14.2371   13.9251 C   0  0  0  0  0  0  0  0  0  0  0  0
   16.6125   15.3656   14.4064 O   0  0  0  0  0  0  0  0  0  0  0  0
   15.4026   13.9339   11.6646 C   0  0  0  0  0  0  0  0  0  0  0  0
   13.9009   13.7235   11.3999 C   0  0  0  0  0  0  0  0  0  0  0  0
   13.3073   13.2730   12.7319 C   0  0  0  0  0  0  0  0  0  0  0  0
   17.8277   13.4984   14.1441 N   0  0  0  0  0  0  0  0  0  0  0  0
  1  2  2  0
  1  3  1  0
  1  4  1  0
  5  4  1  1
  5  6  1  0
  5  8  1  0
  6  7  2  0
  6 11  1  0
  8  9  1  6
  8 10  1  0
 11 12  1  0
 11 17  1  0
 12 13  1  6
 12 15  1  0
 13 14  2  0
 13 18  1  0
 15 16  1  0
 16 17  1  0
 18 19  1  0
 19 20  1  0
 19 22  1  1
 20 21  2  0
 20 26  1  0
 22 23  1  0
 23 24  1  0
 24 25  1  0
 26 27  1  0
 27 28  1  0
 27 30  1  1
 28 29  2  0
 28 37  1  0
 30 31  1  0
 31 32  1  0
 32 33  1  0
 33 34  1  0
 34 35  2  0
 34 36  1  0
 37 38  1  0
 38 39  1  0
 38 41  1  1
 39 40  2  0
 39 42  1  0
 42 43  1  0
 43 44  1  0
 43 46  1  6
 44 45  2  0
 44 53  1  0
 46 47  1  0
 47 48  1  0
 48 49  1  0
 49 50  1  0
 50 51  2  0
 50 52  1  0
 53 54  1  0
 54 55  1  0
 54 57  1  6
 55 56  2  0
 55 62  1  0
 57 58  1  0
 58 59  1  0
 59 60  2  0
 59 61  1  0
 62 63  1  0
 63 64  1  0
 63 66  1  1
 64 65  2  0
 64 70  1  0
 66 67  1  0
 67 68  1  6
 67 69  1  0
 70 71  1  0
 70 76  1  0
 71 72  1  1
 71 74  1  0
 72 73  2  0
 72 77  1  0
 74 75  1  0
 75 76  1  0
 77 78  1  0
 78 79  1  0
 78 81  1  1
 79 80  2  0
 79 82  1  0
 82 83  1  0
 83 84  1  0
 83 86  1  6
 84 85  2  0
 84 88  1  0
 86 87  1  0
 88 89  1  0
 89 90  1  0
 89 92  1  6
 90 91  2  0
 90 99  1  0
 92 93  1  0
 93 94  2  0
 93 95  1  0
 94 96  1  0
 95 97  2  0
 96 98  2  0
 97 98  1  0
 99100  1  0
100101  1  0
100103  1  1
101102  2  0
101113  1  0
103104  1  0
104105  2  0
104106  1  0
105107  1  0
106108  2  0
106109  1  0
107108  1  0
108110  1  0
109111  2  0
110112  2  0
111112  1  0
113114  1  0
114115  1  0
114117  1  1
115116  2  0
115122  1  0
117118  1  0
118119  1  0
119120  1  0
119121  2  0
122123  1  0
123124  1  0
123126  1  1
124125  2  0
124131  1  0
126127  1  0
127128  1  0
128129  1  0
128130  2  0
131132  1  0
131137  1  0
132133  1  1
132135  1  0
133134  2  0
133138  1  0
135136  1  0
136137  1  0
M  CHG  4  35   1  51   1 120  -1 129  -1
M  END
$$$$
