
     RDKit          3D

138143  0  0  0  0  0  0  0  0999 V2000
   11.8317   13.2900   36.2116 C   0  0  0  0  0  0  0  0  0  0  0  0
   10.7693   12.6927   36.2522 O   0  0  0  0  0  0  0  0  0  0  0  0
   12.4954   13.6597   34.9078 C   0  0  0  0  0  0  0  0  0  0  0  0
   12.5701   13.6311   37.3237 N   0  0  0  0  0  0  0  0  0  0  0  0
   12.2072   14.7303   38.2124 C   0  0  2  0  0  0  0  0  0  0  0  0
   12.5704   16.0527   37.4917 C   0  0  0  0  0  0  0  0  0  0  0  0
   13.4500   16.0718   36.6197 O   0  0  0  0  0  0  0  0  0  0  0  0
   12.9162   14.7459   39.5919 C   0  0  1  0  0  0  0  0  0  0  0  0
   12.3963   15.8381   40.5243 C   0  0  0  0  0  0  0  0  0  0  0  0
   12.8932   13.3898   40.3059 C   0  0  0  0  0  0  0  0  0  0  0  0
   11.9600   17.2089   37.9334 N   0  0  0  0  0  0  0  0  0  0  0  0
   12.2579   18.5749   37.5018 C   0  0  2  0  0  0  0  0  0  0  0  0
   13.5523   19.0940   38.1855 C   0  0  0  0  0  0  0  0  0  0  0  0
   13.7769   18.9321   39.3840 O   0  0  0  0  0  0  0  0  0  0  0  0
   11.0608   19.3611   38.0305 C   0  0  0  0  0  0  0  0  0  0  0  0
   10.7754   18.6794   39.3692 C   0  0  0  0  0  0  0  0  0  0  0  0
   11.1336   17.2138   39.1283 C   0  0  0  0  0  0  0  0  0  0  0  0
   14.4142   19.8138   37.3721 N   0  0  0  0  0  0  0  0  0  0  0  0
   15.7616   20.1428   37.8692 C   0  0  2  0  0  0  0  0  0  0  0  0
   16.8660   19.3119   37.1868 C   0  0  0  0  0  0  0  0  0  0  0  0
   18.0471   19.4793   37.4633 O   0  0  0  0  0  0  0  0  0  0  0  0
   15.8400   19.9394   39.3916 C   0  0  0  0  0  0  0  0  0  0  0  0
   15.9428   21.2723   40.1346 C   0  0  0  0  0  0  0  0  0  0  0  0
   14.4980   22.3259   39.7713 S   0  0  0  0  0  0  0  0  0  0  0  0
   15.3486   23.8199   39.2227 C   0  0  0  0  0  0  0  0  0  0  0  0
   16.4260   18.2991   36.3427 N   0  0  0  0  0  0  0  0  0  0  0  0
   17.3584   17.7982   35.3224 C   0  0  2  0  0  0  0  0  0  0  0  0
   18.5257   17.0552   35.9912 C   0  0  0  0  0  0  0  0  0  0  0  0
   19.0471   17.4910   37.0215 O   0  0  0  0  0  0  0  0  0  0  0  0
   17.9635   18.9645   34.5301 C   0  0  0  0  0  0  0  0  0  0  0  0
   19.4742   19.1515   34.6765 C   0  0  0  0  0  0  0  0  0  0  0  0
   19.8575   19.9789   35.8916 C   0  0  0  0  0  0  0  0  0  0  0  0
   20.5266   21.2264   35.4788 N   0  0  0  0  0  0  0  0  0  0  0  0
   21.5560   21.2697   34.6236 C   0  0  0  0  0  0  0  0  0  0  0  0
   21.9609   20.1936   33.9463 N   0  0  0  0  0  4  0  0  0  0  0  0
   22.2175   22.4321   34.4486 N   0  0  0  0  0  0  0  0  0  0  0  0
   18.9842   15.9616   35.2883 N   0  0  0  0  0  0  0  0  0  0  0  0
   19.2592   14.6803   35.9249 C   0  0  2  0  0  0  0  0  0  0  0  0
   19.7708   13.6758   34.8627 C   0  0  0  0  0  0  0  0  0  0  0  0
   20.0930   12.5258   35.1858 O   0  0  0  0  0  0  0  0  0  0  0  0
   18.0662   14.2282   36.7449 C   0  0  0  0  0  0  0  0  0  0  0  0
   19.7387   14.0663   33.5389 N   0  0  0  0  0  0  0  0  0  0  0  0
   19.2343   13.1996   32.4707 C   0  0  2  0  0  0  0  0  0  0  0  0
   18.9824   14.0050   31.1593 C   0  0  0  0  0  0  0  0  0  0  0  0
   17.8875   14.0072   30.5927 O   0  0  0  0  0  0  0  0  0  0  0  0
   17.9170   12.4892   32.8480 C   0  0  0  0  0  0  0  0  0  0  0  0
   17.7876   10.9896   32.5511 C   0  0  0  0  0  0  0  0  0  0  0  0
   18.6886   10.0859   33.3900 C   0  0  0  0  0  0  0  0  0  0  0  0
   18.5381    8.6629   33.1052 N   0  0  0  0  0  0  0  0  0  0  0  0
   19.4765    7.8933   32.5383 C   0  0  0  0  0  0  0  0  0  0  0  0
   20.6137    8.4270   32.0685 N   0  0  0  0  0  4  0  0  0  0  0  0
   19.3064    6.5850   32.4226 N   0  0  0  0  0  0  0  0  0  0  0  0
   20.0857   14.6115   30.5922 N   0  0  0  0  0  0  0  0  0  0  0  0
   20.3985   14.4206   29.1671 C   0  0  2  0  0  0  0  0  0  0  0  0
   19.1275   13.8478   28.5026 C   0  0  0  0  0  0  0  0  0  0  0  0
   18.0742   13.7703   29.1164 O   0  0  0  0  0  0  0  0  0  0  0  0
   21.5926   13.4719   28.9951 C   0  0  0  0  0  0  0  0  0  0  0  0
   21.3838   12.1240   28.2976 C   0  0  0  0  0  0  0  0  0  0  0  0
   22.6617   11.4094   27.8931 C   0  0  0  0  0  0  0  0  0  0  0  0
   22.6804   10.2465   27.4942 O   0  0  0  0  0  0  0  0  0  0  0  0
   23.8194   12.1189   28.0173 N   0  0  0  0  0  0  0  0  0  0  0  0
   19.3167   13.3745   27.2288 N   0  0  0  0  0  0  0  0  0  0  0  0
   19.0925   14.1711   26.0189 C   0  0  2  0  0  0  0  0  0  0  0  0
   20.3862   15.0105   25.7695 C   0  0  0  0  0  0  0  0  0  0  0  0
   20.4382   16.2115   26.0592 O   0  0  0  0  0  0  0  0  0  0  0  0
   17.9060   15.1141   26.3144 C   0  0  0  0  0  0  0  0  0  0  0  0
   16.6396   14.9793   25.4500 C   0  0  1  0  0  0  0  0  0  0  0  0
   15.5490   15.9642   25.8666 C   0  0  0  0  0  0  0  0  0  0  0  0
   17.0040   15.2380   23.9812 C   0  0  0  0  0  0  0  0  0  0  0  0
   21.4500   14.4334   25.0862 N   0  0  0  0  0  0  0  0  0  0  0  0
   21.8236   13.0326   25.3763 C   0  0  2  0  0  0  0  0  0  0  0  0
   22.3749   12.6670   26.7823 C   0  0  0  0  0  0  0  0  0  0  0  0
   23.0257   13.4611   27.4562 O   0  0  0  0  0  0  0  0  0  0  0  0
   22.8874   12.6787   24.3206 C   0  0  0  0  0  0  0  0  0  0  0  0
   23.0111   13.9171   23.4407 C   0  0  0  0  0  0  0  0  0  0  0  0
   21.7209   14.6614   23.6792 C   0  0  0  0  0  0  0  0  0  0  0  0
   22.2151   11.3539   27.1523 N   0  0  0  0  0  0  0  0  0  0  0  0
   21.0539   10.5921   26.7058 C   0  0  2  0  0  0  0  0  0  0  0  0
   20.3597   11.2220   25.4819 C   0  0  0  0  0  0  0  0  0  0  0  0
   20.4910   12.4262   25.2108 O   0  0  0  0  0  0  0  0  0  0  0  0
   20.0532   10.5100   27.8564 C   0  0  0  0  0  0  0  0  0  0  0  0
   19.6950   10.3683   24.6234 N   0  0  0  0  0  0  0  0  0  0  0  0
   20.0271    8.9429   24.5599 C   0  0  2  0  0  0  0  0  0  0  0  0
   18.7444    8.0832   24.6022 C   0  0  0  0  0  0  0  0  0  0  0  0
   17.7822    8.3416   25.3325 O   0  0  0  0  0  0  0  0  0  0  0  0
   20.9679    8.5634   25.7234 C   0  0  0  0  0  0  0  0  0  0  0  0
   21.1017    7.1499   25.9041 O   0  0  0  0  0  0  0  0  0  0  0  0
   18.7644    6.9859   23.7601 N   0  0  0  0  0  0  0  0  0  0  0  0
   17.6057    6.5585   22.9736 C   0  0  2  0  0  0  0  0  0  0  0  0
   17.3996    5.0271   22.8646 C   0  0  0  0  0  0  0  0  0  0  0  0
   16.4793    4.5077   23.4933 O   0  0  0  0  0  0  0  0  0  0  0  0
   17.4694    7.2358   21.6043 C   0  0  0  0  0  0  0  0  0  0  0  0
   16.3766    6.6373   20.7549 C   0  0  0  0  0  0  0  0  0  0  0  0
   15.1370    6.3064   21.3097 C   0  0  0  0  0  0  0  0  0  0  0  0
   16.5902    6.3976   19.3909 C   0  0  0  0  0  0  0  0  0  0  0  0
   14.1160    5.7819   20.5178 C   0  0  0  0  0  0  0  0  0  0  0  0
   15.5747    5.8608   18.5974 C   0  0  0  0  0  0  0  0  0  0  0  0
   14.3361    5.5701   19.1585 C   0  0  0  0  0  0  0  0  0  0  0  0
   18.1918    4.3698   21.9517 N   0  0  0  0  0  0  0  0  0  0  0  0
   19.5030    3.7473   22.2646 C   0  0  2  0  0  0  0  0  0  0  0  0
   20.1804    4.5344   23.4573 C   0  0  0  0  0  0  0  0  0  0  0  0
   19.6810    5.5125   24.0079 O   0  0  0  0  0  0  0  0  0  0  0  0
   20.4128    3.6987   21.0101 C   0  0  0  0  0  0  0  0  0  0  0  0
   21.8685    3.4127   21.2144 C   0  0  0  0  0  0  0  0  0  0  0  0
   22.5006    3.2839   22.4335 C   0  0  0  0  0  0  0  0  0  0  0  0
   22.8739    3.2940   20.2073 C   0  0  0  0  0  0  0  0  0  0  0  0
   23.8249    3.0143   22.2087 N   0  0  0  0  0  0  0  0  0  0  0  0
   24.0859    3.0414   20.8569 C   0  0  0  0  0  0  0  0  0  0  0  0
   22.8832    3.3828   18.7998 C   0  0  0  0  0  0  0  0  0  0  0  0
   25.2956    2.8450   20.1780 C   0  0  0  0  0  0  0  0  0  0  0  0
   24.0811    3.2088   18.1007 C   0  0  0  0  0  0  0  0  0  0  0  0
   25.2726    2.9503   18.7849 C   0  0  0  0  0  0  0  0  0  0  0  0
   21.4496    4.1064   23.8159 N   0  0  0  0  0  0  0  0  0  0  0  0
   21.7680    2.6813   24.0630 C   0  0  2  0  0  0  0  0  0  0  0  0
   22.8773    2.3406   25.1316 C   0  0  0  0  0  0  0  0  0  0  0  0
   24.0034    2.8355   25.1637 O   0  0  0  0  0  0  0  0  0  0  0  0
   22.0304    1.8812   22.7720 C   0  0  0  0  0  0  0  0  0  0  0  0
   23.4303    1.2771   22.7029 C   0  0  0  0  0  0  0  0  0  0  0  0
   23.8162    0.4043   23.9057 C   0  0  0  0  0  0  0  0  0  0  0  0
   23.0221    0.4846   24.8848 O   0  0  0  0  0  1  0  0  0  0  0  0
   24.8845   -0.2645   23.8119 O   0  0  0  0  0  0  0  0  0  0  0  0
   22.4698    1.3773   26.0511 N   0  0  0  0  0  0  0  0  0  0  0  0
   22.0612    1.6411   27.4401 C   0  0  2  0  0  0  0  0  0  0  0  0
   21.3412    0.3565   27.8984 C   0  0  0  0  0  0  0  0  0  0  0  0
   20.2102    0.0490   27.5181 O   0  0  0  0  0  0  0  0  0  0  0  0
   21.0095    2.7609   27.5587 C   0  0  0  0  0  0  0  0  0  0  0  0
   21.5586    4.1540   27.3420 C   0  0  0  0  0  0  0  0  0  0  0  0
   21.6219    5.0055   28.6020 C   0  0  0  0  0  0  0  0  0  0  0  0
   22.5831    5.8085   28.7402 O   0  0  0  0  0  1  0  0  0  0  0  0
   20.6720    4.8041   29.4145 O   0  0  0  0  0  0  0  0  0  0  0  0
   22.1385   -0.4834   28.7221 N   0  0  0  0  0  0  0  0  0  0  0  0
   21.4736   -1.7128   29.1655 C   0  0  2  0  0  0  0  0  0  0  0  0
   20.7503   -2.4621   28.0371 C   0  0  0  0  0  0  0  0  0  0  0  0
   20.5601   -3.6776   28.0432 O   0  0  0  0  0  0  0  0  0  0  0  0
   20.6707   -1.3129   30.3967 C   0  0  0  0  0  0  0  0  0  0  0  0
   21.3833   -0.0507   30.9147 C   0  0  0  0  0  0  0  0  0  0  0  0
   22.5264    0.2072   29.9367 C   0  0  0  0  0  0  0  0  0  0  0  0
   20.2497   -1.7054   27.0204 N   0  0  0  0  0  0  0  0  0  0  0  0
  1  2  2  0
  1  3  1  0
  1  4  1  0
  5  4  1  6
  5  6  1  0
  5  8  1  0
  6  7  2  0
  6 11  1  0
  8  9  1  1
  8 10  1  0
 11 12  1  0
 11 17  1  0
 12 13  1  1
 12 15  1  0
 13 14  2  0
 13 18  1  0
 15 16  1  0
 16 17  1  0
 18 19  1  0
 19 20  1  0
 19 22  1  1
 20 21  2  0
 20 26  1  0
 22 23  1  0
 23 24  1  0
 24 25  1  0
 26 27  1  0
 27 28  1  0
 27 30  1  1
 28 29  2  0
 28 37  1  0
 30 31  1  0
 31 32  1  0
 32 33  1  0
 33 34  1  0
 34 35  2  0
 34 36  1  0
 37 38  1  0
 38 39  1  0
 38 41  1  6
 39 40  2  0
 39 42  1  0
 42 43  1  0
 43 44  1  0
 43 46  1  1
 44 45  2  0
 44 53  1  0
 46 47  1  0
 47 48  1  0
 48 49  1  0
 49 50  1  0
 50 51  2  0
 50 52  1  0
 53 54  1  0
 54 55  1  0
 54 57  1  1
 55 56  2  0
 55 62  1  0
 57 58  1  0
 58 59  1  0
 59 60  2  0
 59 61  1  0
 62 63  1  0
 63 64  1  0
 63 66  1  1
 64 65  2  0
 64 70  1  0
 66 67  1  0
 67 68  1  1
 67 69  1  0
 70 71  1  0
 70 76  1  0
 71 72  1  1
 71 74  1  0
 72 73  2  0
 72 77  1  0
 74 75  1  0
 75 76  1  0
 77 78  1  0
 78 79  1  0
 78 81  1  1
 79 80  2  0
 79 82  1  0
 82 83  1  0
 83 84  1  0
 83 86  1  1
 84 85  2  0
 84 88  1  0
 86 87  1  0
 88 89  1  0
 89 90  1  0
 89 92  1  6
 90 91  2  0
 90 99  1  0
 92 93  1  0
 93 94  2  0
 93 95  1  0
 94 96  1  0
 95 97  2  0
 96 98  2  0
 97 98  1  0
 99100  1  0
100101  1  0
100103  1  6
101102  2  0
101113  1  0
103104  1  0
104105  2  0
104106  1  0
105107  1  0
106108  2  0
106109  1  0
107108  1  0
108110  1  0
109111  2  0
110112  2  0
111112  1  0
113114  1  0
114115  1  0
114117  1  6
115116  2  0
115122  1  0
117118  1  0
118119  1  0
119120  1  0
119121  2  0
122123  1  0
123124  1  0
123126  1  6
124125  2  0
124131  1  0
126127  1  0
127128  1  0
128129  1  0
128130  2  0
131132  1  0
131137  1  0
132133  1  6
132135  1  0
133134  2  0
133138  1  0
135136  1  0
136137  1  0
M  CHG  4  35   1  51   1 120  -1 129  -1
M  END
$$$$
