
     RDKit          3D

138143  0  0  0  0  0  0  0  0999 V2000
   24.8962   -2.5738   29.9658 C   0  0  0  0  0  0  0  0  0  0  0  0
   25.8233   -3.3516   30.1156 O   0  0  0  0  0  0  0  0  0  0  0  0
   23.8577   -2.7609   28.8871 C   0  0  0  0  0  0  0  0  0  0  0  0
   24.7272   -1.4211   30.7015 N   0  0  0  0  0  0  0  0  0  0  0  0
   23.4152   -0.8794   31.0401 C   0  0  2  0  0  0  0  0  0  0  0  0
   23.6295    0.5524   31.5915 C   0  0  0  0  0  0  0  0  0  0  0  0
   24.7685    1.0339   31.6638 O   0  0  0  0  0  0  0  0  0  0  0  0
   22.6126   -1.6700   32.1062 C   0  0  1  0  0  0  0  0  0  0  0  0
   21.4088   -0.9010   32.6469 C   0  0  0  0  0  0  0  0  0  0  0  0
   22.1790   -3.0628   31.6357 C   0  0  0  0  0  0  0  0  0  0  0  0
   22.5276    1.2149   32.0931 N   0  0  0  0  0  0  0  0  0  0  0  0
   21.6023    2.0653   31.3437 C   0  0  2  0  0  0  0  0  0  0  0  0
   22.2277    3.4647   31.0926 C   0  0  0  0  0  0  0  0  0  0  0  0
   22.4393    4.2665   32.0011 O   0  0  0  0  0  0  0  0  0  0  0  0
   20.4249    2.2066   32.3051 C   0  0  0  0  0  0  0  0  0  0  0  0
   21.1117    2.2817   33.6692 C   0  0  0  0  0  0  0  0  0  0  0  0
   22.3354    1.3787   33.5239 C   0  0  0  0  0  0  0  0  0  0  0  0
   22.4732    3.7837   29.7657 N   0  0  0  0  0  0  0  0  0  0  0  0
   23.2857    4.9724   29.4528 C   0  0  2  0  0  0  0  0  0  0  0  0
   22.7029    6.2658   30.0552 C   0  0  0  0  0  0  0  0  0  0  0  0
   21.5246    6.5615   29.9014 O   0  0  0  0  0  0  0  0  0  0  0  0
   23.4318    5.1412   27.9311 C   0  0  0  0  0  0  0  0  0  0  0  0
   24.5246    4.2335   27.3648 C   0  0  0  0  0  0  0  0  0  0  0  0
   24.6901    4.4706   25.5631 S   0  0  0  0  0  0  0  0  0  0  0  0
   26.2031    5.4537   25.5294 C   0  0  0  0  0  0  0  0  0  0  0  0
   23.5627    6.9948   30.8684 N   0  0  0  0  0  0  0  0  0  0  0  0
   23.1874    8.3756   31.2058 C   0  0  2  0  0  0  0  0  0  0  0  0
   23.2784    9.2687   29.9584 C   0  0  0  0  0  0  0  0  0  0  0  0
   24.3729    9.5810   29.4811 O   0  0  0  0  0  0  0  0  0  0  0  0
   24.1557    8.9557   32.2451 C   0  0  0  0  0  0  0  0  0  0  0  0
   23.5055    9.5771   33.4819 C   0  0  0  0  0  0  0  0  0  0  0  0
   24.1647   10.8761   33.9130 C   0  0  0  0  0  0  0  0  0  0  0  0
   23.1458   11.8820   34.2656 N   0  0  0  0  0  0  0  0  0  0  0  0
   23.3729   12.9125   35.0898 C   0  0  0  0  0  0  0  0  0  0  0  0
   24.4101   12.9341   35.9291 N   0  0  0  0  0  4  0  0  0  0  0  0
   22.5206   13.9581   35.0861 N   0  0  0  0  0  0  0  0  0  0  0  0
   22.0675    9.7565   29.5159 N   0  0  0  0  0  0  0  0  0  0  0  0
   21.1567   10.4943   30.3812 C   0  0  2  0  0  0  0  0  0  0  0  0
   21.2245   12.0025   30.0352 C   0  0  0  0  0  0  0  0  0  0  0  0
   21.1384   12.3848   28.8616 O   0  0  0  0  0  0  0  0  0  0  0  0
   21.3985   10.1359   31.8349 C   0  0  0  0  0  0  0  0  0  0  0  0
   21.2610   12.9023   31.0816 N   0  0  0  0  0  0  0  0  0  0  0  0
   21.2964   14.3526   30.8766 C   0  0  2  0  0  0  0  0  0  0  0  0
   19.8588   14.9566   30.8535 C   0  0  0  0  0  0  0  0  0  0  0  0
   18.8545   14.2514   30.7353 O   0  0  0  0  0  0  0  0  0  0  0  0
   21.9978   14.7545   29.5617 C   0  0  0  0  0  0  0  0  0  0  0  0
   23.3447   15.4837   29.6483 C   0  0  0  0  0  0  0  0  0  0  0  0
   24.5727   14.5938   29.4692 C   0  0  0  0  0  0  0  0  0  0  0  0
   24.9587   14.3825   28.0781 N   0  0  0  0  0  0  0  0  0  0  0  0
   26.2216   14.3018   27.6390 C   0  0  0  0  0  0  0  0  0  0  0  0
   26.4916   13.9022   26.3875 N   0  0  0  0  0  4  0  0  0  0  0  0
   27.2388   14.6107   28.4288 N   0  0  0  0  0  0  0  0  0  0  0  0
   19.7743   16.3347   30.8406 N   0  0  0  0  0  0  0  0  0  0  0  0
   18.5643   17.0179   31.3247 C   0  0  2  0  0  0  0  0  0  0  0  0
   18.1704   18.0494   30.2449 C   0  0  0  0  0  0  0  0  0  0  0  0
   18.8685   19.0263   30.0201 O   0  0  0  0  0  0  0  0  0  0  0  0
   18.8278   17.6984   32.6749 C   0  0  0  0  0  0  0  0  0  0  0  0
   19.1599   16.8355   33.8963 C   0  0  0  0  0  0  0  0  0  0  0  0
   17.9540   16.2612   34.6198 C   0  0  0  0  0  0  0  0  0  0  0  0
   17.7120   16.4905   35.8033 O   0  0  0  0  0  0  0  0  0  0  0  0
   17.1441   15.4401   33.8924 N   0  0  0  0  0  0  0  0  0  0  0  0
   16.9593   17.8102   29.6460 N   0  0  0  0  0  0  0  0  0  0  0  0
   16.5116   18.4686   28.4153 C   0  0  2  0  0  0  0  0  0  0  0  0
   15.2935   19.3725   28.7893 C   0  0  0  0  0  0  0  0  0  0  0  0
   14.1798   18.8867   29.0189 O   0  0  0  0  0  0  0  0  0  0  0  0
   16.0580   17.3537   27.4480 C   0  0  0  0  0  0  0  0  0  0  0  0
   15.4144   17.7692   26.1130 C   0  0  1  0  0  0  0  0  0  0  0  0
   16.4281   18.3847   25.1504 C   0  0  0  0  0  0  0  0  0  0  0  0
   14.7906   16.5331   25.4497 C   0  0  0  0  0  0  0  0  0  0  0  0
   15.4289   20.7545   28.7301 N   0  0  0  0  0  0  0  0  0  0  0  0
   14.2542   21.6103   29.0014 C   0  0  2  0  0  0  0  0  0  0  0  0
   13.0417   21.5694   28.0305 C   0  0  0  0  0  0  0  0  0  0  0  0
   12.9735   22.2905   27.0388 O   0  0  0  0  0  0  0  0  0  0  0  0
   14.8093   23.0462   29.0390 C   0  0  0  0  0  0  0  0  0  0  0  0
   16.3133   22.9034   28.8370 C   0  0  0  0  0  0  0  0  0  0  0  0
   16.5949   21.4700   29.2133 C   0  0  0  0  0  0  0  0  0  0  0  0
   11.9898   20.7855   28.4376 N   0  0  0  0  0  0  0  0  0  0  0  0
   10.7773   20.6919   27.6319 C   0  0  2  0  0  0  0  0  0  0  0  0
   10.7044   21.7708   26.5332 C   0  0  0  0  0  0  0  0  0  0  0  0
    9.8828   22.6995   26.5903 O   0  0  0  0  0  0  0  0  0  0  0  0
    9.5678   20.8386   28.5526 C   0  0  0  0  0  0  0  0  0  0  0  0
   11.6760   21.7405   25.5520 N   0  0  0  0  0  0  0  0  0  0  0  0
   11.4026   22.2217   24.1955 C   0  0  2  0  0  0  0  0  0  0  0  0
   10.9812   21.0524   23.2783 C   0  0  0  0  0  0  0  0  0  0  0  0
   10.3475   20.0720   23.6821 O   0  0  0  0  0  0  0  0  0  0  0  0
   12.6466   22.9337   23.6227 C   0  0  0  0  0  0  0  0  0  0  0  0
   13.7090   23.0670   24.5725 O   0  0  0  0  0  0  0  0  0  0  0  0
   11.3839   21.1857   21.9616 N   0  0  0  0  0  0  0  0  0  0  0  0
   10.8672   20.3486   20.8772 C   0  0  2  0  0  0  0  0  0  0  0  0
    9.4273   20.6750   20.4084 C   0  0  0  0  0  0  0  0  0  0  0  0
    9.1644   21.8249   20.0612 O   0  0  0  0  0  0  0  0  0  0  0  0
   11.0565   18.8401   21.0796 C   0  0  0  0  0  0  0  0  0  0  0  0
   10.7626   18.0357   19.8385 C   0  0  0  0  0  0  0  0  0  0  0  0
   10.2400   18.6465   18.6950 C   0  0  0  0  0  0  0  0  0  0  0  0
   11.0051   16.6557   19.8145 C   0  0  0  0  0  0  0  0  0  0  0  0
    9.9974   17.9082   17.5370 C   0  0  0  0  0  0  0  0  0  0  0  0
   10.7516   15.9109   18.6613 C   0  0  0  0  0  0  0  0  0  0  0  0
   10.2647   16.5409   17.5214 C   0  0  0  0  0  0  0  0  0  0  0  0
    8.5700   19.6058   20.2858 N   0  0  0  0  0  0  0  0  0  0  0  0
    8.9416   18.2862   19.7154 C   0  0  2  0  0  0  0  0  0  0  0  0
    9.1872   18.4427   18.1610 C   0  0  0  0  0  0  0  0  0  0  0  0
    9.1951   19.5200   17.5705 O   0  0  0  0  0  0  0  0  0  0  0  0
    7.8625   17.2177   20.0280 C   0  0  0  0  0  0  0  0  0  0  0  0
    6.5209   17.6956   20.4909 C   0  0  0  0  0  0  0  0  0  0  0  0
    5.3555   17.6616   19.7539 C   0  0  0  0  0  0  0  0  0  0  0  0
    6.2129   18.3323   21.7314 C   0  0  0  0  0  0  0  0  0  0  0  0
    4.3428   18.1749   20.5206 N   0  0  0  0  0  0  0  0  0  0  0  0
    4.8441   18.6173   21.7244 C   0  0  0  0  0  0  0  0  0  0  0  0
    6.9611   18.7065   22.8668 C   0  0  0  0  0  0  0  0  0  0  0  0
    4.1804   19.2270   22.7970 C   0  0  0  0  0  0  0  0  0  0  0  0
    6.3250   19.3329   23.9424 C   0  0  0  0  0  0  0  0  0  0  0  0
    4.9523   19.5951   23.9020 C   0  0  0  0  0  0  0  0  0  0  0  0
    9.3181   17.2589   17.4510 N   0  0  0  0  0  0  0  0  0  0  0  0
    8.1734   16.3552   17.1935 C   0  0  2  0  0  0  0  0  0  0  0  0
    8.0403   15.7121   15.7592 C   0  0  0  0  0  0  0  0  0  0  0  0
    7.8630   16.3409   14.7165 O   0  0  0  0  0  0  0  0  0  0  0  0
    6.8173   16.9499   17.6215 C   0  0  0  0  0  0  0  0  0  0  0  0
    6.5804   18.3649   17.1012 C   0  0  0  0  0  0  0  0  0  0  0  0
    6.8090   18.5444   15.5936 C   0  0  0  0  0  0  0  0  0  0  0  0
    7.2679   17.5223   15.0101 O   0  0  0  0  0  1  0  0  0  0  0  0
    6.5546   19.6818   15.1046 O   0  0  0  0  0  0  0  0  0  0  0  0
    8.1146   14.3216   15.7771 N   0  0  0  0  0  0  0  0  0  0  0  0
    6.9637   13.4053   15.8210 C   0  0  2  0  0  0  0  0  0  0  0  0
    6.1693   13.6953   14.5313 C   0  0  0  0  0  0  0  0  0  0  0  0
    4.9894   13.3727   14.3830 O   0  0  0  0  0  0  0  0  0  0  0  0
    5.9904   13.7118   16.9754 C   0  0  0  0  0  0  0  0  0  0  0  0
    4.5398   13.4207   16.6586 C   0  0  0  0  0  0  0  0  0  0  0  0
    3.5679   13.8023   17.7660 C   0  0  0  0  0  0  0  0  0  0  0  0
    2.3728   14.0576   17.4588 O   0  0  0  0  0  1  0  0  0  0  0  0
    4.0827   13.8336   18.9223 O   0  0  0  0  0  0  0  0  0  0  0  0
    6.8943   14.4509   13.5704 N   0  0  0  0  0  0  0  0  0  0  0  0
    6.2907   14.4796   12.2345 C   0  0  2  0  0  0  0  0  0  0  0  0
    4.7847   14.7792   12.2463 C   0  0  0  0  0  0  0  0  0  0  0  0
    4.0655   14.6014   13.2286 O   0  0  0  0  0  0  0  0  0  0  0  0
    6.7672   13.2041   11.5514 C   0  0  0  0  0  0  0  0  0  0  0  0
    8.0584   12.8362   12.3044 C   0  0  0  0  0  0  0  0  0  0  0  0
    8.2239   13.9030   13.3834 C   0  0  0  0  0  0  0  0  0  0  0  0
    4.2593   15.3285   11.1154 N   0  0  0  0  0  0  0  0  0  0  0  0
  1  2  2  0
  1  3  1  0
  1  4  1  0
  5  4  1  1
  5  6  1  0
  5  8  1  0
  6  7  2  0
  6 11  1  0
  8  9  1  6
  8 10  1  0
 11 12  1  0
 11 17  1  0
 12 13  1  1
 12 15  1  0
 13 14  2  0
 13 18  1  0
 15 16  1  0
 16 17  1  0
 18 19  1  0
 19 20  1  0
 19 22  1  6
 20 21  2  0
 20 26  1  0
 22 23  1  0
 23 24  1  0
 24 25  1  0
 26 27  1  0
 27 28  1  0
 27 30  1  1
 28 29  2  0
 28 37  1  0
 30 31  1  0
 31 32  1  0
 32 33  1  0
 33 34  1  0
 34 35  2  0
 34 36  1  0
 37 38  1  0
 38 39  1  0
 38 41  1  1
 39 40  2  0
 39 42  1  0
 42 43  1  0
 43 44  1  0
 43 46  1  6
 44 45  2  0
 44 53  1  0
 46 47  1  0
 47 48  1  0
 48 49  1  0
 49 50  1  0
 50 51  2  0
 50 52  1  0
 53 54  1  0
 54 55  1  0
 54 57  1  1
 55 56  2  0
 55 62  1  0
 57 58  1  0
 58 59  1  0
 59 60  2  0
 59 61  1  0
 62 63  1  0
 63 64  1  0
 63 66  1  6
 64 65  2  0
 64 70  1  0
 66 67  1  0
 67 68  1  6
 67 69  1  0
 70 71  1  0
 70 76  1  0
 71 72  1  6
 71 74  1  0
 72 73  2  0
 72 77  1  0
 74 75  1  0
 75 76  1  0
 77 78  1  0
 78 79  1  0
 78 81  1  1
 79 80  2  0
 79 82  1  0
 82 83  1  0
 83 84  1  0
 83 86  1  6
 84 85  2  0
 84 88  1  0
 86 87  1  0
 88 89  1  0
 89 90  1  0
 89 92  1  1
 90 91  2  0
 90 99  1  0
 92 93  1  0
 93 94  2  0
 93 95  1  0
 94 96  1  0
 95 97  2  0
 96 98  2  0
 97 98  1  0
 99100  1  0
100101  1  0
100103  1  6
101102  2  0
101113  1  0
103104  1  0
104105  2  0
104106  1  0
105107  1  0
106108  2  0
106109  1  0
107108  1  0
108110  1  0
109111  2  0
110112  2  0
111112  1  0
113114  1  0
114115  1  0
114117  1  6
115116  2  0
115122  1  0
117118  1  0
118119  1  0
119120  1  0
119121  2  0
122123  1  0
123124  1  0
123126  1  1
124125  2  0
124131  1  0
126127  1  0
127128  1  0
128129  1  0
128130  2  0
131132  1  0
131137  1  0
132133  1  1
132135  1  0
133134  2  0
133138  1  0
135136  1  0
136137  1  0
M  CHG  4  35   1  51   1 120  -1 129  -1
M  END
$$$$
