
     RDKit          3D

138143  0  0  0  0  0  0  0  0999 V2000
    9.6939   14.6971   19.1793 C   0  0  0  0  0  0  0  0  0  0  0  0
   10.2507   13.9984   20.0092 O   0  0  0  0  0  0  0  0  0  0  0  0
   10.1397   14.7421   17.7384 C   0  0  0  0  0  0  0  0  0  0  0  0
    8.6587   15.5606   19.4646 N   0  0  0  0  0  0  0  0  0  0  0  0
    7.7645   16.0949   18.4426 C   0  0  2  0  0  0  0  0  0  0  0  0
    6.7755   17.0584   19.1450 C   0  0  0  0  0  0  0  0  0  0  0  0
    5.9026   16.6180   19.9055 O   0  0  0  0  0  0  0  0  0  0  0  0
    6.9201   15.0483   17.6697 C   0  0  1  0  0  0  0  0  0  0  0  0
    6.9730   13.6539   18.2907 C   0  0  0  0  0  0  0  0  0  0  0  0
    5.4632   15.4748   17.4579 C   0  0  0  0  0  0  0  0  0  0  0  0
    6.8372   18.3949   18.8065 N   0  0  0  0  0  0  0  0  0  0  0  0
    7.9314   19.3215   19.0985 C   0  0  2  0  0  0  0  0  0  0  0  0
    7.8758   19.7831   20.5804 C   0  0  0  0  0  0  0  0  0  0  0  0
    6.8253   19.8306   21.2187 O   0  0  0  0  0  0  0  0  0  0  0  0
    7.6161   20.5077   18.1907 C   0  0  0  0  0  0  0  0  0  0  0  0
    6.0894   20.5742   18.2423 C   0  0  0  0  0  0  0  0  0  0  0  0
    5.6539   19.1153   18.3688 C   0  0  0  0  0  0  0  0  0  0  0  0
    9.0798   20.2048   21.1239 N   0  0  0  0  0  0  0  0  0  0  0  0
   10.1620   19.2236   21.3164 C   0  0  2  0  0  0  0  0  0  0  0  0
   11.2503   19.7221   22.2873 C   0  0  0  0  0  0  0  0  0  0  0  0
   11.8944   20.7363   22.0503 O   0  0  0  0  0  0  0  0  0  0  0  0
   10.8096   18.8628   19.9688 C   0  0  0  0  0  0  0  0  0  0  0  0
   12.0218   17.9485   20.1520 C   0  0  0  0  0  0  0  0  0  0  0  0
   13.0728   17.9647   18.6604 S   0  0  0  0  0  0  0  0  0  0  0  0
   12.1320   16.8289   17.6204 C   0  0  0  0  0  0  0  0  0  0  0  0
   11.3620   19.0205   23.4819 N   0  0  0  0  0  0  0  0  0  0  0  0
   10.2519   19.1116   24.4414 C   0  0  2  0  0  0  0  0  0  0  0  0
   10.5740   18.2945   25.7026 C   0  0  0  0  0  0  0  0  0  0  0  0
    9.6776   17.9360   26.4715 O   0  0  0  0  0  0  0  0  0  0  0  0
    8.9715   18.5197   23.8378 C   0  0  0  0  0  0  0  0  0  0  0  0
    7.8954   19.5324   23.4438 C   0  0  0  0  0  0  0  0  0  0  0  0
    6.9953   19.9268   24.6024 C   0  0  0  0  0  0  0  0  0  0  0  0
    7.0304   21.3860   24.8121 N   0  0  0  0  0  0  0  0  0  0  0  0
    8.0739   22.0356   25.3431 C   0  0  0  0  0  0  0  0  0  0  0  0
    9.0971   21.3917   25.9082 N   0  0  0  0  0  4  0  0  0  0  0  0
    8.0893   23.3842   25.3219 N   0  0  0  0  0  0  0  0  0  0  0  0
   11.9201   18.1103   25.9353 N   0  0  0  0  0  0  0  0  0  0  0  0
   12.6071   18.7064   27.0735 C   0  0  2  0  0  0  0  0  0  0  0  0
   13.5043   19.8697   26.5829 C   0  0  0  0  0  0  0  0  0  0  0  0
   13.2612   21.0367   26.9144 O   0  0  0  0  0  0  0  0  0  0  0  0
   13.2993   17.6363   27.8956 C   0  0  0  0  0  0  0  0  0  0  0  0
   14.6429   19.5488   25.8711 N   0  0  0  0  0  0  0  0  0  0  0  0
   14.6045   19.1095   24.4739 C   0  0  2  0  0  0  0  0  0  0  0  0
   14.7896   20.3110   23.4971 C   0  0  0  0  0  0  0  0  0  0  0  0
   14.9565   20.1502   22.2861 O   0  0  0  0  0  0  0  0  0  0  0  0
   13.2836   18.4013   24.1050 C   0  0  0  0  0  0  0  0  0  0  0  0
   13.3569   16.9962   23.4935 C   0  0  0  0  0  0  0  0  0  0  0  0
   14.7530   16.5526   23.0619 C   0  0  0  0  0  0  0  0  0  0  0  0
   15.0810   15.1779   23.4242 N   0  0  0  0  0  0  0  0  0  0  0  0
   14.6720   14.0924   22.7542 C   0  0  0  0  0  0  0  0  0  0  0  0
   14.8736   13.9820   21.4329 N   0  0  0  0  0  4  0  0  0  0  0  0
   14.0543   13.1001   23.3767 N   0  0  0  0  0  0  0  0  0  0  0  0
   14.8882   21.5607   24.0759 N   0  0  0  0  0  0  0  0  0  0  0  0
   15.9318   21.8466   25.0732 C   0  0  2  0  0  0  0  0  0  0  0  0
   15.3727   21.4082   26.4444 C   0  0  0  0  0  0  0  0  0  0  0  0
   14.5029   22.0548   27.0079 O   0  0  0  0  0  0  0  0  0  0  0  0
   16.2922   23.3384   25.0701 C   0  0  0  0  0  0  0  0  0  0  0  0
   15.3737   24.3324   25.7879 C   0  0  0  0  0  0  0  0  0  0  0  0
   14.6052   25.2687   24.8714 C   0  0  0  0  0  0  0  0  0  0  0  0
   13.8068   26.1062   25.2875 O   0  0  0  0  0  0  0  0  0  0  0  0
   14.8228   25.1223   23.5333 N   0  0  0  0  0  0  0  0  0  0  0  0
   15.9893   20.3074   26.9835 N   0  0  0  0  0  0  0  0  0  0  0  0
   16.3157   20.1675   28.4056 C   0  0  2  0  0  0  0  0  0  0  0  0
   17.5140   19.1707   28.5109 C   0  0  0  0  0  0  0  0  0  0  0  0
   17.4363   18.0229   28.0573 O   0  0  0  0  0  0  0  0  0  0  0  0
   15.0724   19.5654   29.0955 C   0  0  0  0  0  0  0  0  0  0  0  0
   15.2140   19.0777   30.5485 C   0  0  1  0  0  0  0  0  0  0  0  0
   16.5694   18.4229   30.8080 C   0  0  0  0  0  0  0  0  0  0  0  0
   15.0532   20.2735   31.4979 C   0  0  0  0  0  0  0  0  0  0  0  0
   18.6368   19.5324   29.2459 N   0  0  0  0  0  0  0  0  0  0  0  0
   19.7819   18.6005   29.3260 C   0  0  2  0  0  0  0  0  0  0  0  0
   19.6041   17.2357   30.0472 C   0  0  0  0  0  0  0  0  0  0  0  0
   19.6515   17.1312   31.2699 O   0  0  0  0  0  0  0  0  0  0  0  0
   20.8914   19.3956   30.0389 C   0  0  0  0  0  0  0  0  0  0  0  0
   20.3072   20.7837   30.2732 C   0  0  0  0  0  0  0  0  0  0  0  0
   19.1819   20.8767   29.2729 C   0  0  0  0  0  0  0  0  0  0  0  0
   19.5419   16.1394   29.2220 N   0  0  0  0  0  0  0  0  0  0  0  0
   19.6216   14.7904   29.7713 C   0  0  2  0  0  0  0  0  0  0  0  0
   19.5841   13.6984   28.6837 C   0  0  0  0  0  0  0  0  0  0  0  0
   19.7008   13.9783   27.4800 O   0  0  0  0  0  0  0  0  0  0  0  0
   18.4466   14.5821   30.7243 C   0  0  0  0  0  0  0  0  0  0  0  0
   19.5501   12.3845   29.1081 N   0  0  0  0  0  0  0  0  0  0  0  0
   20.3757   11.3570   28.4688 C   0  0  2  0  0  0  0  0  0  0  0  0
   19.5762   10.6231   27.3695 C   0  0  0  0  0  0  0  0  0  0  0  0
   18.8249    9.6708   27.6030 O   0  0  0  0  0  0  0  0  0  0  0  0
   20.8870   10.3527   29.5237 C   0  0  0  0  0  0  0  0  0  0  0  0
   21.3934   10.9826   30.7049 O   0  0  0  0  0  0  0  0  0  0  0  0
   19.7799   11.1128   26.0920 N   0  0  0  0  0  0  0  0  0  0  0  0
   19.8041   10.2604   24.9017 C   0  0  2  0  0  0  0  0  0  0  0  0
   18.9689    8.9591   24.9939 C   0  0  0  0  0  0  0  0  0  0  0  0
   19.5340    7.9147   25.3128 O   0  0  0  0  0  0  0  0  0  0  0  0
   21.2018    9.9839   24.3338 C   0  0  0  0  0  0  0  0  0  0  0  0
   22.2417   10.9613   24.8206 C   0  0  0  0  0  0  0  0  0  0  0  0
   23.5721   10.8597   24.4041 C   0  0  0  0  0  0  0  0  0  0  0  0
   21.8893   11.9882   25.7067 C   0  0  0  0  0  0  0  0  0  0  0  0
   24.5274   11.7822   24.8298 C   0  0  0  0  0  0  0  0  0  0  0  0
   22.8456   12.9061   26.1451 C   0  0  0  0  0  0  0  0  0  0  0  0
   24.1570   12.8110   25.6930 C   0  0  0  0  0  0  0  0  0  0  0  0
   17.6086    9.0968   24.8402 N   0  0  0  0  0  0  0  0  0  0  0  0
   16.6528    7.9663   24.7250 C   0  0  2  0  0  0  0  0  0  0  0  0
   17.2142    6.7271   25.5315 C   0  0  0  0  0  0  0  0  0  0  0  0
   16.8851    6.4486   26.6819 O   0  0  0  0  0  0  0  0  0  0  0  0
   16.3771    7.6159   23.2401 C   0  0  0  0  0  0  0  0  0  0  0  0
   15.6118    8.6076   22.4196 C   0  0  0  0  0  0  0  0  0  0  0  0
   16.1607    9.6244   21.6667 C   0  0  0  0  0  0  0  0  0  0  0  0
   14.1927    8.7329   22.3205 C   0  0  0  0  0  0  0  0  0  0  0  0
   15.1435   10.3083   21.0546 N   0  0  0  0  0  0  0  0  0  0  0  0
   13.9285    9.8012   21.4581 C   0  0  0  0  0  0  0  0  0  0  0  0
   13.0950    8.0497   22.8836 C   0  0  0  0  0  0  0  0  0  0  0  0
   12.6332   10.2035   21.1070 C   0  0  0  0  0  0  0  0  0  0  0  0
   11.7927    8.4440   22.5632 C   0  0  0  0  0  0  0  0  0  0  0  0
   11.5678    9.5130   21.6907 C   0  0  0  0  0  0  0  0  0  0  0  0
   18.1933    5.9852   24.8886 N   0  0  0  0  0  0  0  0  0  0  0  0
   18.8372    4.8071   25.5137 C   0  0  2  0  0  0  0  0  0  0  0  0
   20.3740    4.8941   25.8593 C   0  0  0  0  0  0  0  0  0  0  0  0
   21.2332    5.3986   25.1373 O   0  0  0  0  0  0  0  0  0  0  0  0
   18.5480    3.4874   24.7716 C   0  0  0  0  0  0  0  0  0  0  0  0
   19.6119    2.4162   24.9953 C   0  0  0  0  0  0  0  0  0  0  0  0
   20.3226    1.9371   23.7214 C   0  0  0  0  0  0  0  0  0  0  0  0
   20.3963    0.6814   23.6058 O   0  0  0  0  0  1  0  0  0  0  0  0
   20.7838    2.8265   22.9509 O   0  0  0  0  0  0  0  0  0  0  0  0
   20.6913    4.3055   27.0809 N   0  0  0  0  0  0  0  0  0  0  0  0
   21.9937    4.3967   27.7602 C   0  0  2  0  0  0  0  0  0  0  0  0
   22.9452    3.5155   26.9255 C   0  0  0  0  0  0  0  0  0  0  0  0
   22.5496    2.7380   26.0553 O   0  0  0  0  0  0  0  0  0  0  0  0
   21.9872    3.7685   29.1670 C   0  0  0  0  0  0  0  0  0  0  0  0
   21.7195    4.7521   30.2852 C   0  0  0  0  0  0  0  0  0  0  0  0
   22.7624    4.7395   31.3937 C   0  0  0  0  0  0  0  0  0  0  0  0
   23.9170    4.3082   31.1315 O   0  0  0  0  0  1  0  0  0  0  0  0
   22.3431    5.1710   32.5077 O   0  0  0  0  0  0  0  0  0  0  0  0
   24.3218    3.7532   27.1867 N   0  0  0  0  0  0  0  0  0  0  0  0
   24.7221    3.5508   28.5827 C   0  0  2  0  0  0  0  0  0  0  0  0
   24.1959    2.2422   29.1899 C   0  0  0  0  0  0  0  0  0  0  0  0
   23.6580    2.1751   30.2944 O   0  0  0  0  0  0  0  0  0  0  0  0
   24.3899    4.8589   29.2891 C   0  0  0  0  0  0  0  0  0  0  0  0
   24.3769    5.9026   28.1576 C   0  0  0  0  0  0  0  0  0  0  0  0
   24.6735    5.1257   26.8777 C   0  0  0  0  0  0  0  0  0  0  0  0
   24.2874    1.1255   28.4145 N   0  0  0  0  0  0  0  0  0  0  0  0
  1  2  2  0
  1  3  1  0
  1  4  1  0
  5  4  1  1
  5  6  1  0
  5  8  1  0
  6  7  2  0
  6 11  1  0
  8  9  1  1
  8 10  1  0
 11 12  1  0
 11 17  1  0
 12 13  1  1
 12 15  1  0
 13 14  2  0
 13 18  1  0
 15 16  1  0
 16 17  1  0
 18 19  1  0
 19 20  1  0
 19 22  1  6
 20 21  2  0
 20 26  1  0
 22 23  1  0
 23 24  1  0
 24 25  1  0
 26 27  1  0
 27 28  1  0
 27 30  1  6
 28 29  2  0
 28 37  1  0
 30 31  1  0
 31 32  1  0
 32 33  1  0
 33 34  1  0
 34 35  2  0
 34 36  1  0
 37 38  1  0
 38 39  1  0
 38 41  1  6
 39 40  2  0
 39 42  1  0
 42 43  1  0
 43 44  1  0
 43 46  1  6
 44 45  2  0
 44 53  1  0
 46 47  1  0
 47 48  1  0
 48 49  1  0
 49 50  1  0
 50 51  2  0
 50 52  1  0
 53 54  1  0
 54 55  1  0
 54 57  1  1
 55 56  2  0
 55 62  1  0
 57 58  1  0
 58 59  1  0
 59 60  2  0
 59 61  1  0
 62 63  1  0
 63 64  1  0
 63 66  1  1
 64 65  2  0
 64 70  1  0
 66 67  1  0
 67 68  1  6
 67 69  1  0
 70 71  1  0
 70 76  1  0
 71 72  1  1
 71 74  1  0
 72 73  2  0
 72 77  1  0
 74 75  1  0
 75 76  1  0
 77 78  1  0
 78 79  1  0
 78 81  1  1
 79 80  2  0
 79 82  1  0
 82 83  1  0
 83 84  1  0
 83 86  1  1
 84 85  2  0
 84 88  1  0
 86 87  1  0
 88 89  1  0
 89 90  1  0
 89 92  1  1
 90 91  2  0
 90 99  1  0
 92 93  1  0
 93 94  2  0
 93 95  1  0
 94 96  1  0
 95 97  2  0
 96 98  2  0
 97 98  1  0
 99100  1  0
100101  1  0
100103  1  6
101102  2  0
101113  1  0
103104  1  0
104105  2  0
104106  1  0
105107  1  0
106108  2  0
106109  1  0
107108  1  0
108110  1  0
109111  2  0
110112  2  0
111112  1  0
113114  1  0
114115  1  0
114117  1  6
115116  2  0
115122  1  0
117118  1  0
118119  1  0
119120  1  0
119121  2  0
122123  1  0
123124  1  0
123126  1  1
124125  2  0
124131  1  0
126127  1  0
127128  1  0
128129  1  0
128130  2  0
131132  1  0
131137  1  0
132133  1  1
132135  1  0
133134  2  0
133138  1  0
135136  1  0
136137  1  0
M  CHG  4  35   1  51   1 120  -1 129  -1
M  END
$$$$
