
     RDKit          3D

138143  0  0  0  0  0  0  0  0999 V2000
    1.8677   21.3151   16.8315 C   0  0  0  0  0  0  0  0  0  0  0  0
    1.7601   20.3969   16.0364 O   0  0  0  0  0  0  0  0  0  0  0  0
    1.4795   22.7305   16.4806 C   0  0  0  0  0  0  0  0  0  0  0  0
    2.4075   21.1867   18.0927 N   0  0  0  0  0  0  0  0  0  0  0  0
    3.3538   22.1454   18.6538 C   0  0  2  0  0  0  0  0  0  0  0  0
    4.7793   21.6687   18.2786 C   0  0  0  0  0  0  0  0  0  0  0  0
    5.7664   22.0944   18.8939 O   0  0  0  0  0  0  0  0  0  0  0  0
    3.3129   22.3117   20.1954 C   0  0  1  0  0  0  0  0  0  0  0  0
    4.5277   23.0497   20.7544 C   0  0  0  0  0  0  0  0  0  0  0  0
    2.0219   22.9615   20.7058 C   0  0  0  0  0  0  0  0  0  0  0  0
    4.9085   20.8486   17.1762 N   0  0  0  0  0  0  0  0  0  0  0  0
    5.6571   19.5934   17.1027 C   0  0  2  0  0  0  0  0  0  0  0  0
    7.1795   19.8719   16.9726 C   0  0  0  0  0  0  0  0  0  0  0  0
    7.6290   20.7636   16.2544 O   0  0  0  0  0  0  0  0  0  0  0  0
    5.1466   18.9753   15.8035 C   0  0  0  0  0  0  0  0  0  0  0  0
    4.9723   20.1943   14.8969 C   0  0  0  0  0  0  0  0  0  0  0  0
    4.5459   21.3117   15.8477 C   0  0  0  0  0  0  0  0  0  0  0  0
    8.0102   19.0061   17.6676 N   0  0  0  0  0  0  0  0  0  0  0  0
    9.4623   19.2557   17.6729 C   0  0  2  0  0  0  0  0  0  0  0  0
   10.2500   18.1645   18.4241 C   0  0  0  0  0  0  0  0  0  0  0  0
   10.5474   18.2969   19.6046 O   0  0  0  0  0  0  0  0  0  0  0  0
    9.7721   20.6269   18.2969 C   0  0  0  0  0  0  0  0  0  0  0  0
    9.9251   20.5341   19.8158 C   0  0  0  0  0  0  0  0  0  0  0  0
    8.2923   20.4205   20.6225 S   0  0  0  0  0  0  0  0  0  0  0  0
    7.6900   18.8980   19.8637 C   0  0  0  0  0  0  0  0  0  0  0  0
   10.4882   16.9938   17.7138 N   0  0  0  0  0  0  0  0  0  0  0  0
   10.3523   15.7151   18.4265 C   0  0  2  0  0  0  0  0  0  0  0  0
   11.6839   15.3374   19.0945 C   0  0  0  0  0  0  0  0  0  0  0  0
   12.7336   15.9063   18.7818 O   0  0  0  0  0  0  0  0  0  0  0  0
   10.0069   14.5879   17.4446 C   0  0  0  0  0  0  0  0  0  0  0  0
   10.7745   13.2800   17.6411 C   0  0  0  0  0  0  0  0  0  0  0  0
   10.2286   12.4335   18.7784 C   0  0  0  0  0  0  0  0  0  0  0  0
    9.3957   11.3357   18.2535 N   0  0  0  0  0  0  0  0  0  0  0  0
    9.8947   10.2261   17.6945 C   0  0  0  0  0  0  0  0  0  0  0  0
   10.2583   10.1803   16.4113 N   0  0  0  0  0  4  0  0  0  0  0  0
   10.0224    9.1120   18.4441 N   0  0  0  0  0  0  0  0  0  0  0  0
   11.6058   14.2658   19.9581 N   0  0  0  0  0  0  0  0  0  0  0  0
   11.8026   14.4020   21.3952 C   0  0  2  0  0  0  0  0  0  0  0  0
   11.6904   13.0101   22.0654 C   0  0  0  0  0  0  0  0  0  0  0  0
   12.2310   12.7900   23.1564 O   0  0  0  0  0  0  0  0  0  0  0  0
   10.8973   15.4824   21.9550 C   0  0  0  0  0  0  0  0  0  0  0  0
   10.8730   12.0717   21.4679 N   0  0  0  0  0  0  0  0  0  0  0  0
   10.7207   10.7102   21.9874 C   0  0  2  0  0  0  0  0  0  0  0  0
   12.1058   10.0629   22.2945 C   0  0  0  0  0  0  0  0  0  0  0  0
   12.3241    9.4503   23.3420 O   0  0  0  0  0  0  0  0  0  0  0  0
    9.9704    9.7779   21.0126 C   0  0  0  0  0  0  0  0  0  0  0  0
    8.4367    9.7671   21.0505 C   0  0  0  0  0  0  0  0  0  0  0  0
    7.8035    8.3803   21.1391 C   0  0  0  0  0  0  0  0  0  0  0  0
    8.5042    7.3543   20.3742 N   0  0  0  0  0  0  0  0  0  0  0  0
    8.9206    6.1818   20.8702 C   0  0  0  0  0  0  0  0  0  0  0  0
   10.0461    6.1013   21.5952 N   0  0  0  0  0  4  0  0  0  0  0  0
    8.2351    5.0691   20.6558 N   0  0  0  0  0  0  0  0  0  0  0  0
   13.1167   10.3229   21.3906 N   0  0  0  0  0  0  0  0  0  0  0  0
   14.3569    9.5310   21.4019 C   0  0  2  0  0  0  0  0  0  0  0  0
   15.5066   10.4947   21.0348 C   0  0  0  0  0  0  0  0  0  0  0  0
   15.5891   10.9831   19.9182 O   0  0  0  0  0  0  0  0  0  0  0  0
   14.2672    8.3665   20.4064 C   0  0  0  0  0  0  0  0  0  0  0  0
   13.0084    7.4938   20.3861 C   0  0  0  0  0  0  0  0  0  0  0  0
   12.1253    7.6746   19.1635 C   0  0  0  0  0  0  0  0  0  0  0  0
   11.4173    6.7770   18.7108 O   0  0  0  0  0  0  0  0  0  0  0  0
   12.1698    8.8954   18.5578 N   0  0  0  0  0  0  0  0  0  0  0  0
   16.4372   10.6726   22.0271 N   0  0  0  0  0  0  0  0  0  0  0  0
   16.1731   11.3923   23.2765 C   0  0  2  0  0  0  0  0  0  0  0  0
   17.5359   11.9694   23.7767 C   0  0  0  0  0  0  0  0  0  0  0  0
   17.6032   12.6649   24.7968 O   0  0  0  0  0  0  0  0  0  0  0  0
   15.6410   10.3553   24.2892 C   0  0  0  0  0  0  0  0  0  0  0  0
   15.3442   10.8283   25.7236 C   0  0  1  0  0  0  0  0  0  0  0  0
   14.2371   11.8797   25.7671 C   0  0  0  0  0  0  0  0  0  0  0  0
   14.9143    9.6228   26.5715 C   0  0  0  0  0  0  0  0  0  0  0  0
   18.6705   11.8133   22.9891 N   0  0  0  0  0  0  0  0  0  0  0  0
   19.6913   10.8169   23.3779 C   0  0  2  0  0  0  0  0  0  0  0  0
   20.4898   11.0191   24.6954 C   0  0  0  0  0  0  0  0  0  0  0  0
   21.6282   11.4796   24.7060 O   0  0  0  0  0  0  0  0  0  0  0  0
   20.6821   10.7833   22.1994 C   0  0  0  0  0  0  0  0  0  0  0  0
   20.1132   11.7478   21.1655 C   0  0  0  0  0  0  0  0  0  0  0  0
   18.6561   11.8615   21.5392 C   0  0  0  0  0  0  0  0  0  0  0  0
   19.8972   10.5097   25.8251 N   0  0  0  0  0  0  0  0  0  0  0  0
   20.6116   10.4949   27.0968 C   0  0  2  0  0  0  0  0  0  0  0  0
   21.9486    9.7310   27.0231 C   0  0  0  0  0  0  0  0  0  0  0  0
   23.0280   10.2874   27.2804 O   0  0  0  0  0  0  0  0  0  0  0  0
   19.7212    9.8366   28.1484 C   0  0  0  0  0  0  0  0  0  0  0  0
   21.8875    8.3710   26.7902 N   0  0  0  0  0  0  0  0  0  0  0  0
   23.1043    7.5623   26.6821 C   0  0  2  0  0  0  0  0  0  0  0  0
   24.3587    8.4637   26.6874 C   0  0  0  0  0  0  0  0  0  0  0  0
   24.3229    9.6690   26.9555 O   0  0  0  0  0  0  0  0  0  0  0  0
   23.0620    6.7064   25.3982 C   0  0  0  0  0  0  0  0  0  0  0  0
   24.3592    6.4276   24.8617 O   0  0  0  0  0  0  0  0  0  0  0  0
   25.5319    7.8116   26.3532 N   0  0  0  0  0  0  0  0  0  0  0  0
   26.7864    7.9935   27.0861 C   0  0  2  0  0  0  0  0  0  0  0  0
   27.9673    7.1053   26.6213 C   0  0  0  0  0  0  0  0  0  0  0  0
   28.2381    7.0607   25.4227 O   0  0  0  0  0  0  0  0  0  0  0  0
   26.6495    7.9802   28.6136 C   0  0  0  0  0  0  0  0  0  0  0  0
   25.3635    7.3506   29.0865 C   0  0  0  0  0  0  0  0  0  0  0  0
   25.3675    6.1134   29.7370 C   0  0  0  0  0  0  0  0  0  0  0  0
   24.1383    7.9971   28.8751 C   0  0  0  0  0  0  0  0  0  0  0  0
   24.1815    5.5458   30.2019 C   0  0  0  0  0  0  0  0  0  0  0  0
   22.9476    7.4260   29.3278 C   0  0  0  0  0  0  0  0  0  0  0  0
   22.9737    6.2114   30.0040 C   0  0  0  0  0  0  0  0  0  0  0  0
   28.7225    6.5276   27.6157 N   0  0  0  0  0  0  0  0  0  0  0  0
   28.1747    5.6974   28.7182 C   0  0  2  0  0  0  0  0  0  0  0  0
   27.8470    6.6269   29.9550 C   0  0  0  0  0  0  0  0  0  0  0  0
   28.6527    7.3999   30.4674 O   0  0  0  0  0  0  0  0  0  0  0  0
   29.1505    4.5528   29.0946 C   0  0  0  0  0  0  0  0  0  0  0  0
   29.0236    3.2565   28.3557 C   0  0  0  0  0  0  0  0  0  0  0  0
   28.0399    2.9437   27.4410 C   0  0  0  0  0  0  0  0  0  0  0  0
   29.8378    2.0933   28.5085 C   0  0  0  0  0  0  0  0  0  0  0  0
   28.2681    1.6755   26.9757 N   0  0  0  0  0  0  0  0  0  0  0  0
   29.3453    1.1224   27.6313 C   0  0  0  0  0  0  0  0  0  0  0  0
   30.9468    1.7576   29.3124 C   0  0  0  0  0  0  0  0  0  0  0  0
   29.9159   -0.1497   27.4937 C   0  0  0  0  0  0  0  0  0  0  0  0
   31.5225    0.4881   29.2067 C   0  0  0  0  0  0  0  0  0  0  0  0
   31.0065   -0.4544   28.3124 C   0  0  0  0  0  0  0  0  0  0  0  0
   26.5863    6.4671   30.5095 N   0  0  0  0  0  0  0  0  0  0  0  0
   26.1323    7.2398   31.6885 C   0  0  2  0  0  0  0  0  0  0  0  0
   26.7183    6.8552   33.1018 C   0  0  0  0  0  0  0  0  0  0  0  0
   26.8159    7.6222   34.0589 O   0  0  0  0  0  0  0  0  0  0  0  0
   24.5990    7.3674   31.7818 C   0  0  0  0  0  0  0  0  0  0  0  0
   23.8943    7.2528   30.4329 C   0  0  0  0  0  0  0  0  0  0  0  0
   22.7590    8.2623   30.2105 C   0  0  0  0  0  0  0  0  0  0  0  0
   21.7861    7.8141   29.5409 O   0  0  0  0  0  1  0  0  0  0  0  0
   22.9231    9.4249   30.6782 O   0  0  0  0  0  0  0  0  0  0  0  0
   27.1576    5.5353   33.1679 N   0  0  0  0  0  0  0  0  0  0  0  0
   27.9684    4.9583   34.2522 C   0  0  2  0  0  0  0  0  0  0  0  0
   27.0449    4.9561   35.4875 C   0  0  0  0  0  0  0  0  0  0  0  0
   27.4269    4.6221   36.6104 O   0  0  0  0  0  0  0  0  0  0  0  0
   29.1694    5.8403   34.6442 C   0  0  0  0  0  0  0  0  0  0  0  0
   28.7941    7.1132   35.3710 C   0  0  0  0  0  0  0  0  0  0  0  0
   29.2066    7.1432   36.8358 C   0  0  0  0  0  0  0  0  0  0  0  0
   29.8257    6.1529   37.3090 O   0  0  0  0  0  1  0  0  0  0  0  0
   28.8637    8.1950   37.4516 O   0  0  0  0  0  0  0  0  0  0  0  0
   25.7431    5.4642   35.2294 N   0  0  0  0  0  0  0  0  0  0  0  0
   24.8193    5.3817   36.3652 C   0  0  2  0  0  0  0  0  0  0  0  0
   25.4240    5.8767   37.6871 C   0  0  0  0  0  0  0  0  0  0  0  0
   26.4662    6.5268   37.7547 O   0  0  0  0  0  0  0  0  0  0  0  0
   24.2488    3.9701   36.3165 C   0  0  0  0  0  0  0  0  0  0  0  0
   24.4246    3.5457   34.8473 C   0  0  0  0  0  0  0  0  0  0  0  0
   25.1062    4.7241   34.1573 C   0  0  0  0  0  0  0  0  0  0  0  0
   24.7131    5.6206   38.8210 N   0  0  0  0  0  0  0  0  0  0  0  0
  1  2  2  0
  1  3  1  0
  1  4  1  0
  5  4  1  1
  5  6  1  0
  5  8  1  0
  6  7  2  0
  6 11  1  0
  8  9  1  6
  8 10  1  0
 11 12  1  0
 11 17  1  0
 12 13  1  6
 12 15  1  0
 13 14  2  0
 13 18  1  0
 15 16  1  0
 16 17  1  0
 18 19  1  0
 19 20  1  0
 19 22  1  1
 20 21  2  0
 20 26  1  0
 22 23  1  0
 23 24  1  0
 24 25  1  0
 26 27  1  0
 27 28  1  0
 27 30  1  6
 28 29  2  0
 28 37  1  0
 30 31  1  0
 31 32  1  0
 32 33  1  0
 33 34  1  0
 34 35  2  0
 34 36  1  0
 37 38  1  0
 38 39  1  0
 38 41  1  1
 39 40  2  0
 39 42  1  0
 42 43  1  0
 43 44  1  0
 43 46  1  6
 44 45  2  0
 44 53  1  0
 46 47  1  0
 47 48  1  0
 48 49  1  0
 49 50  1  0
 50 51  2  0
 50 52  1  0
 53 54  1  0
 54 55  1  0
 54 57  1  6
 55 56  2  0
 55 62  1  0
 57 58  1  0
 58 59  1  0
 59 60  2  0
 59 61  1  0
 62 63  1  0
 63 64  1  0
 63 66  1  1
 64 65  2  0
 64 70  1  0
 66 67  1  0
 67 68  1  6
 67 69  1  0
 70 71  1  0
 70 76  1  0
 71 72  1  1
 71 74  1  0
 72 73  2  0
 72 77  1  0
 74 75  1  0
 75 76  1  0
 77 78  1  0
 78 79  1  0
 78 81  1  1
 79 80  2  0
 79 82  1  0
 82 83  1  0
 83 84  1  0
 83 86  1  6
 84 85  2  0
 84 88  1  0
 86 87  1  0
 88 89  1  0
 89 90  1  0
 89 92  1  1
 90 91  2  0
 90 99  1  0
 92 93  1  0
 93 94  2  0
 93 95  1  0
 94 96  1  0
 95 97  2  0
 96 98  2  0
 97 98  1  0
 99100  1  0
100101  1  0
100103  1  1
101102  2  0
101113  1  0
103104  1  0
104105  2  0
104106  1  0
105107  1  0
106108  2  0
106109  1  0
107108  1  0
108110  1  0
109111  2  0
110112  2  0
111112  1  0
113114  1  0
114115  1  0
114117  1  1
115116  2  0
115122  1  0
117118  1  0
118119  1  0
119120  1  0
119121  2  0
122123  1  0
123124  1  0
123126  1  1
124125  2  0
124131  1  0
126127  1  0
127128  1  0
128129  1  0
128130  2  0
131132  1  0
131137  1  0
132133  1  1
132135  1  0
133134  2  0
133138  1  0
135136  1  0
136137  1  0
M  CHG  4  35   1  51   1 120  -1 129  -1
M  END
$$$$
