
     RDKit          3D

138143  0  0  0  0  0  0  0  0999 V2000
   19.5230   21.3590   37.5393 C   0  0  0  0  0  0  0  0  0  0  0  0
   18.9448   21.0143   38.5561 O   0  0  0  0  0  0  0  0  0  0  0  0
   19.6003   22.8036   37.1102 C   0  0  0  0  0  0  0  0  0  0  0  0
   20.1031   20.4853   36.6456 N   0  0  0  0  0  0  0  0  0  0  0  0
   20.8777   20.9275   35.4905 C   0  0  2  0  0  0  0  0  0  0  0  0
   21.3547   19.6613   34.7359 C   0  0  0  0  0  0  0  0  0  0  0  0
   22.5355   19.5507   34.3783 O   0  0  0  0  0  0  0  0  0  0  0  0
   22.1352   21.7787   35.8062 C   0  0  1  0  0  0  0  0  0  0  0  0
   23.0718   21.1186   36.8160 C   0  0  0  0  0  0  0  0  0  0  0  0
   22.9190   22.1972   34.5572 C   0  0  0  0  0  0  0  0  0  0  0  0
   20.3998   18.7278   34.3879 N   0  0  0  0  0  0  0  0  0  0  0  0
   20.6350   17.3311   34.0206 C   0  0  2  0  0  0  0  0  0  0  0  0
   21.1495   17.2298   32.5586 C   0  0  0  0  0  0  0  0  0  0  0  0
   20.4462   17.5117   31.5896 O   0  0  0  0  0  0  0  0  0  0  0  0
   19.2370   16.7234   34.1043 C   0  0  0  0  0  0  0  0  0  0  0  0
   18.3478   17.8523   33.5817 C   0  0  0  0  0  0  0  0  0  0  0  0
   19.0435   19.1279   34.0541 C   0  0  0  0  0  0  0  0  0  0  0  0
   22.4362   16.7355   32.4074 N   0  0  0  0  0  0  0  0  0  0  0  0
   22.9695   16.5284   31.0497 C   0  0  2  0  0  0  0  0  0  0  0  0
   23.1526   15.0375   30.7043 C   0  0  0  0  0  0  0  0  0  0  0  0
   24.0957   14.3953   31.1489 O   0  0  0  0  0  0  0  0  0  0  0  0
   24.3127   17.2581   30.8801 C   0  0  0  0  0  0  0  0  0  0  0  0
   24.8850   17.0676   29.4746 C   0  0  0  0  0  0  0  0  0  0  0  0
   26.5141   17.8763   29.3268 S   0  0  0  0  0  0  0  0  0  0  0  0
   25.9894   19.4976   28.7330 C   0  0  0  0  0  0  0  0  0  0  0  0
   22.1274   14.4577   29.9662 N   0  0  0  0  0  0  0  0  0  0  0  0
   22.1925   13.0108   29.7140 C   0  0  2  0  0  0  0  0  0  0  0  0
   21.0756   12.5916   28.7450 C   0  0  0  0  0  0  0  0  0  0  0  0
   19.8984   12.8864   28.9694 O   0  0  0  0  0  0  0  0  0  0  0  0
   21.9741   12.2292   31.0161 C   0  0  0  0  0  0  0  0  0  0  0  0
   20.9047   11.1374   30.9617 C   0  0  0  0  0  0  0  0  0  0  0  0
   19.5517   11.6022   31.4731 C   0  0  0  0  0  0  0  0  0  0  0  0
   19.7176   12.5348   32.6031 N   0  0  0  0  0  0  0  0  0  0  0  0
   18.6945   13.0812   33.2722 C   0  0  0  0  0  0  0  0  0  0  0  0
   18.1061   14.2095   32.8703 N   0  0  0  0  0  4  0  0  0  0  0  0
   18.2501   12.4839   34.3970 N   0  0  0  0  0  0  0  0  0  0  0  0
   21.4934   11.7894   27.7048 N   0  0  0  0  0  0  0  0  0  0  0  0
   20.9804   11.9344   26.3489 C   0  0  2  0  0  0  0  0  0  0  0  0
   19.4440   12.1253   26.3964 C   0  0  0  0  0  0  0  0  0  0  0  0
   18.9462   13.0866   26.9956 O   0  0  0  0  0  0  0  0  0  0  0  0
   21.4815   10.8060   25.4682 C   0  0  0  0  0  0  0  0  0  0  0  0
   18.6646   11.2627   25.6519 N   0  0  0  0  0  0  0  0  0  0  0  0
   17.2067   11.3841   25.5711 C   0  0  2  0  0  0  0  0  0  0  0  0
   16.5640   11.4471   26.9905 C   0  0  0  0  0  0  0  0  0  0  0  0
   16.9412   12.2523   27.8446 O   0  0  0  0  0  0  0  0  0  0  0  0
   16.5500   10.2145   24.8076 C   0  0  0  0  0  0  0  0  0  0  0  0
   16.1691   10.4275   23.3368 C   0  0  0  0  0  0  0  0  0  0  0  0
   14.8388   11.1430   23.1122 C   0  0  0  0  0  0  0  0  0  0  0  0
   14.9724   12.5407   22.7157 N   0  0  0  0  0  0  0  0  0  0  0  0
   14.1546   13.1758   21.8659 C   0  0  0  0  0  0  0  0  0  0  0  0
   14.3907   14.4448   21.5014 N   0  0  0  0  0  4  0  0  0  0  0  0
   13.0886   12.5703   21.3650 N   0  0  0  0  0  0  0  0  0  0  0  0
   15.6385   10.4663   27.2872 N   0  0  0  0  0  0  0  0  0  0  0  0
   14.4308   10.7835   28.0658 C   0  0  2  0  0  0  0  0  0  0  0  0
   13.3596    9.7421   27.6744 C   0  0  0  0  0  0  0  0  0  0  0  0
   12.2834    9.6960   28.2504 O   0  0  0  0  0  0  0  0  0  0  0  0
   13.9531   12.2117   27.7699 C   0  0  0  0  0  0  0  0  0  0  0  0
   13.0709   12.9335   28.7934 C   0  0  0  0  0  0  0  0  0  0  0  0
   12.2540   12.0194   29.6901 C   0  0  0  0  0  0  0  0  0  0  0  0
   11.7923   10.9456   29.3083 O   0  0  0  0  0  0  0  0  0  0  0  0
   12.0259   12.4604   30.9600 N   0  0  0  0  0  0  0  0  0  0  0  0
   13.7579    8.8534   26.7079 N   0  0  0  0  0  0  0  0  0  0  0  0
   13.4638    7.4179   26.7459 C   0  0  2  0  0  0  0  0  0  0  0  0
   13.8943    6.8195   25.3685 C   0  0  0  0  0  0  0  0  0  0  0  0
   14.6543    7.4337   24.6108 O   0  0  0  0  0  0  0  0  0  0  0  0
   11.9364    7.2762   26.9233 C   0  0  0  0  0  0  0  0  0  0  0  0
   11.4161    6.5500   28.1766 C   0  0  1  0  0  0  0  0  0  0  0  0
   11.8103    7.2686   29.4655 C   0  0  0  0  0  0  0  0  0  0  0  0
    9.8848    6.4633   28.1078 C   0  0  0  0  0  0  0  0  0  0  0  0
   13.3072    5.6398   24.9264 N   0  0  0  0  0  0  0  0  0  0  0  0
   13.9727    4.8515   23.8674 C   0  0  2  0  0  0  0  0  0  0  0  0
   14.1116    5.4548   22.4422 C   0  0  0  0  0  0  0  0  0  0  0  0
   15.1993    5.5687   21.8835 O   0  0  0  0  0  0  0  0  0  0  0  0
   13.1608    3.5462   23.7747 C   0  0  0  0  0  0  0  0  0  0  0  0
   12.0919    3.6575   24.8555 C   0  0  0  0  0  0  0  0  0  0  0  0
   12.6415    4.6948   25.8030 C   0  0  0  0  0  0  0  0  0  0  0  0
   12.9602    5.9875   21.9155 N   0  0  0  0  0  0  0  0  0  0  0  0
   12.9366    6.5036   20.5513 C   0  0  2  0  0  0  0  0  0  0  0  0
   13.9796    7.6136   20.3134 C   0  0  0  0  0  0  0  0  0  0  0  0
   15.1879    7.4238   20.5251 O   0  0  0  0  0  0  0  0  0  0  0  0
   11.5441    7.0615   20.2654 C   0  0  0  0  0  0  0  0  0  0  0  0
   13.5354    8.7837   19.7291 N   0  0  0  0  0  0  0  0  0  0  0  0
   14.4754    9.8094   19.2703 C   0  0  2  0  0  0  0  0  0  0  0  0
   13.7158   11.0521   18.7558 C   0  0  0  0  0  0  0  0  0  0  0  0
   14.1869   11.8353   17.9248 O   0  0  0  0  0  0  0  0  0  0  0  0
   15.3867    9.2388   18.1628 C   0  0  0  0  0  0  0  0  0  0  0  0
   14.8940    9.4865   16.8420 O   0  0  0  0  0  0  0  0  0  0  0  0
   12.4618   11.2263   19.3132 N   0  0  0  0  0  0  0  0  0  0  0  0
   12.1987   12.1453   20.4223 C   0  0  2  0  0  0  0  0  0  0  0  0
   12.8861   13.5298   20.3209 C   0  0  0  0  0  0  0  0  0  0  0  0
   13.3606   14.0307   21.3387 O   0  0  0  0  0  0  0  0  0  0  0  0
   12.3760   11.5385   21.8197 C   0  0  0  0  0  0  0  0  0  0  0  0
   11.3331   10.5008   22.1503 C   0  0  0  0  0  0  0  0  0  0  0  0
   11.7027    9.2347   22.6131 C   0  0  0  0  0  0  0  0  0  0  0  0
    9.9710   10.7897   21.9925 C   0  0  0  0  0  0  0  0  0  0  0  0
   10.7373    8.2857   22.9483 C   0  0  0  0  0  0  0  0  0  0  0  0
    9.0020    9.8379   22.3150 C   0  0  0  0  0  0  0  0  0  0  0  0
    9.3864    8.5957   22.8073 C   0  0  0  0  0  0  0  0  0  0  0  0
   13.0355   14.0438   19.0534 N   0  0  0  0  0  0  0  0  0  0  0  0
   12.9111   15.4818   18.7050 C   0  0  2  0  0  0  0  0  0  0  0  0
   14.3053   16.0116   18.1792 C   0  0  0  0  0  0  0  0  0  0  0  0
   14.4544   17.0672   17.5687 O   0  0  0  0  0  0  0  0  0  0  0  0
   12.3940   16.3070   19.9116 C   0  0  0  0  0  0  0  0  0  0  0  0
   10.9439   16.6804   19.9314 C   0  0  0  0  0  0  0  0  0  0  0  0
   10.4011   17.8309   19.3985 C   0  0  0  0  0  0  0  0  0  0  0  0
    9.8778   15.9661   20.5580 C   0  0  0  0  0  0  0  0  0  0  0  0
    9.0468   17.8067   19.6041 N   0  0  0  0  0  0  0  0  0  0  0  0
    8.7033   16.6908   20.3342 C   0  0  0  0  0  0  0  0  0  0  0  0
    9.7875   14.7732   21.3047 C   0  0  0  0  0  0  0  0  0  0  0  0
    7.4451   16.2753   20.7893 C   0  0  0  0  0  0  0  0  0  0  0  0
    8.5460   14.3470   21.7854 C   0  0  0  0  0  0  0  0  0  0  0  0
    7.3917   15.0950   21.5352 C   0  0  0  0  0  0  0  0  0  0  0  0
   15.3832   15.1614   18.3732 N   0  0  0  0  0  0  0  0  0  0  0  0
   16.4339   15.4267   19.3826 C   0  0  2  0  0  0  0  0  0  0  0  0
   17.8272   15.9713   18.8818 C   0  0  0  0  0  0  0  0  0  0  0  0
   18.7928   16.2128   19.6051 O   0  0  0  0  0  0  0  0  0  0  0  0
   16.6571   14.2521   20.3554 C   0  0  0  0  0  0  0  0  0  0  0  0
   18.0228   13.5874   20.2057 C   0  0  0  0  0  0  0  0  0  0  0  0
   18.7628   13.3296   21.5261 C   0  0  0  0  0  0  0  0  0  0  0  0
   19.9515   13.7564   21.5500 O   0  0  0  0  0  1  0  0  0  0  0  0
   18.1350   12.6991   22.4237 O   0  0  0  0  0  0  0  0  0  0  0  0
   17.8637   16.1904   17.5070 N   0  0  0  0  0  0  0  0  0  0  0  0
   18.2116   15.1844   16.4908 C   0  0  2  0  0  0  0  0  0  0  0  0
   17.2889   15.4872   15.2926 C   0  0  0  0  0  0  0  0  0  0  0  0
   16.8601   14.6127   14.5379 O   0  0  0  0  0  0  0  0  0  0  0  0
   17.8624   13.7462   16.9193 C   0  0  0  0  0  0  0  0  0  0  0  0
   19.0647   12.8537   17.1365 C   0  0  0  0  0  0  0  0  0  0  0  0
   19.2582   11.7911   16.0640 C   0  0  0  0  0  0  0  0  0  0  0  0
   20.1739   10.9390   16.2167 O   0  0  0  0  0  1  0  0  0  0  0  0
   18.4552   11.8831   15.0895 O   0  0  0  0  0  0  0  0  0  0  0  0
   16.9041   16.8520   15.1975 N   0  0  0  0  0  0  0  0  0  0  0  0
   16.6430   17.3190   13.8323 C   0  0  2  0  0  0  0  0  0  0  0  0
   15.7539   16.3690   13.0168 C   0  0  0  0  0  0  0  0  0  0  0  0
   15.8793   15.1451   13.0287 O   0  0  0  0  0  0  0  0  0  0  0  0
   18.0078   17.6923   13.2681 C   0  0  0  0  0  0  0  0  0  0  0  0
   18.8646   17.9730   14.5157 C   0  0  0  0  0  0  0  0  0  0  0  0
   17.9491   17.7170   15.7098 C   0  0  0  0  0  0  0  0  0  0  0  0
   14.7426   16.9372   12.3019 N   0  0  0  0  0  0  0  0  0  0  0  0
  1  2  2  0
  1  3  1  0
  1  4  1  0
  5  4  1  1
  5  6  1  0
  5  8  1  0
  6  7  2  0
  6 11  1  0
  8  9  1  1
  8 10  1  0
 11 12  1  0
 11 17  1  0
 12 13  1  6
 12 15  1  0
 13 14  2  0
 13 18  1  0
 15 16  1  0
 16 17  1  0
 18 19  1  0
 19 20  1  0
 19 22  1  1
 20 21  2  0
 20 26  1  0
 22 23  1  0
 23 24  1  0
 24 25  1  0
 26 27  1  0
 27 28  1  0
 27 30  1  1
 28 29  2  0
 28 37  1  0
 30 31  1  0
 31 32  1  0
 32 33  1  0
 33 34  1  0
 34 35  2  0
 34 36  1  0
 37 38  1  0
 38 39  1  0
 38 41  1  6
 39 40  2  0
 39 42  1  0
 42 43  1  0
 43 44  1  0
 43 46  1  1
 44 45  2  0
 44 53  1  0
 46 47  1  0
 47 48  1  0
 48 49  1  0
 49 50  1  0
 50 51  2  0
 50 52  1  0
 53 54  1  0
 54 55  1  0
 54 57  1  6
 55 56  2  0
 55 62  1  0
 57 58  1  0
 58 59  1  0
 59 60  2  0
 59 61  1  0
 62 63  1  0
 63 64  1  0
 63 66  1  6
 64 65  2  0
 64 70  1  0
 66 67  1  0
 67 68  1  1
 67 69  1  0
 70 71  1  0
 70 76  1  0
 71 72  1  6
 71 74  1  0
 72 73  2  0
 72 77  1  0
 74 75  1  0
 75 76  1  0
 77 78  1  0
 78 79  1  0
 78 81  1  1
 79 80  2  0
 79 82  1  0
 82 83  1  0
 83 84  1  0
 83 86  1  6
 84 85  2  0
 84 88  1  0
 86 87  1  0
 88 89  1  0
 89 90  1  0
 89 92  1  1
 90 91  2  0
 90 99  1  0
 92 93  1  0
 93 94  2  0
 93 95  1  0
 94 96  1  0
 95 97  2  0
 96 98  2  0
 97 98  1  0
 99100  1  0
100101  1  0
100103  1  1
101102  2  0
101113  1  0
103104  1  0
104105  2  0
104106  1  0
105107  1  0
106108  2  0
106109  1  0
107108  1  0
108110  1  0
109111  2  0
110112  2  0
111112  1  0
113114  1  0
114115  1  0
114117  1  6
115116  2  0
115122  1  0
117118  1  0
118119  1  0
119120  1  0
119121  2  0
122123  1  0
123124  1  0
123126  1  1
124125  2  0
124131  1  0
126127  1  0
127128  1  0
128129  1  0
128130  2  0
131132  1  0
131137  1  0
132133  1  6
132135  1  0
133134  2  0
133138  1  0
135136  1  0
136137  1  0
M  CHG  4  35   1  51   1 120  -1 129  -1
M  END
$$$$
