
     RDKit          3D

138143  0  0  0  0  0  0  0  0999 V2000
   32.5981    9.3706   25.8072 C   0  0  0  0  0  0  0  0  0  0  0  0
   33.2980   10.2943   25.4277 O   0  0  0  0  0  0  0  0  0  0  0  0
   32.3835    8.1311   24.9739 C   0  0  0  0  0  0  0  0  0  0  0  0
   31.8815    9.3762   26.9840 N   0  0  0  0  0  0  0  0  0  0  0  0
   31.7609    8.2055   27.8469 C   0  0  2  0  0  0  0  0  0  0  0  0
   30.2960    8.1434   28.3473 C   0  0  0  0  0  0  0  0  0  0  0  0
   29.7060    9.1761   28.6933 O   0  0  0  0  0  0  0  0  0  0  0  0
   32.6777    8.1911   29.0979 C   0  0  1  0  0  0  0  0  0  0  0  0
   32.5645    6.9046   29.9132 C   0  0  0  0  0  0  0  0  0  0  0  0
   34.1482    8.4854   28.7810 C   0  0  0  0  0  0  0  0  0  0  0  0
   29.7237    6.8961   28.4934 N   0  0  0  0  0  0  0  0  0  0  0  0
   28.4275    6.5943   29.1016 C   0  0  2  0  0  0  0  0  0  0  0  0
   28.5268    6.6405   30.6509 C   0  0  0  0  0  0  0  0  0  0  0  0
   29.1591    5.8067   31.2975 O   0  0  0  0  0  0  0  0  0  0  0  0
   28.1765    5.1556   28.6570 C   0  0  0  0  0  0  0  0  0  0  0  0
   29.5746    4.5386   28.7097 C   0  0  0  0  0  0  0  0  0  0  0  0
   30.5060    5.6845   28.3178 C   0  0  0  0  0  0  0  0  0  0  0  0
   27.8000    7.6462   31.2698 N   0  0  0  0  0  0  0  0  0  0  0  0
   28.4416    8.4474   32.3269 C   0  0  2  0  0  0  0  0  0  0  0  0
   27.4732    9.4525   32.9808 C   0  0  0  0  0  0  0  0  0  0  0  0
   27.7683   10.0341   34.0173 O   0  0  0  0  0  0  0  0  0  0  0  0
   29.6582    9.2040   31.7675 C   0  0  0  0  0  0  0  0  0  0  0  0
   30.7649    9.3450   32.8136 C   0  0  0  0  0  0  0  0  0  0  0  0
   30.9256    7.8135   33.7925 S   0  0  0  0  0  0  0  0  0  0  0  0
   29.8059    6.7464   32.8629 C   0  0  0  0  0  0  0  0  0  0  0  0
   26.3180    9.7346   32.2613 N   0  0  0  0  0  0  0  0  0  0  0  0
   26.4298   10.6306   31.1011 C   0  0  2  0  0  0  0  0  0  0  0  0
   25.1970   10.4806   30.1957 C   0  0  0  0  0  0  0  0  0  0  0  0
   25.3150   10.4264   28.9683 O   0  0  0  0  0  0  0  0  0  0  0  0
   27.6557   10.2621   30.2552 C   0  0  0  0  0  0  0  0  0  0  0  0
   27.4168   10.1710   28.7475 C   0  0  0  0  0  0  0  0  0  0  0  0
   27.5260   11.5134   28.0444 C   0  0  0  0  0  0  0  0  0  0  0  0
   27.7135   11.3248   26.5940 N   0  0  0  0  0  0  0  0  0  0  0  0
   28.1253   10.1771   26.0409 C   0  0  0  0  0  0  0  0  0  0  0  0
   29.3884    9.7572   26.1361 N   0  0  0  0  0  4  0  0  0  0  0  0
   27.2428    9.4249   25.3520 N   0  0  0  0  0  0  0  0  0  0  0  0
   23.9908   10.5261   30.8613 N   0  0  0  0  0  0  0  0  0  0  0  0
   22.7135   10.5973   30.1640 C   0  0  2  0  0  0  0  0  0  0  0  0
   21.6655    9.7423   30.9187 C   0  0  0  0  0  0  0  0  0  0  0  0
   22.0185    8.7859   31.6198 O   0  0  0  0  0  0  0  0  0  0  0  0
   22.8938   10.2786   28.6922 C   0  0  0  0  0  0  0  0  0  0  0  0
   20.3488   10.1554   30.8797 N   0  0  0  0  0  0  0  0  0  0  0  0
   19.5474   10.1282   29.6535 C   0  0  2  0  0  0  0  0  0  0  0  0
   18.1822   10.8552   29.8528 C   0  0  0  0  0  0  0  0  0  0  0  0
   18.0284   11.7380   30.6996 O   0  0  0  0  0  0  0  0  0  0  0  0
   19.2510    8.6948   29.1636 C   0  0  0  0  0  0  0  0  0  0  0  0
   18.2039    7.8683   29.9214 C   0  0  0  0  0  0  0  0  0  0  0  0
   18.7568    6.6591   30.6724 C   0  0  0  0  0  0  0  0  0  0  0  0
   20.0768    6.2298   30.2228 N   0  0  0  0  0  0  0  0  0  0  0  0
   21.1068    5.9506   31.0325 C   0  0  0  0  0  0  0  0  0  0  0  0
   20.9098    5.3509   32.2159 N   0  0  0  0  0  4  0  0  0  0  0  0
   22.3474    6.2619   30.6890 N   0  0  0  0  0  0  0  0  0  0  0  0
   17.1173   10.3687   29.1209 N   0  0  0  0  0  0  0  0  0  0  0  0
   16.3127   11.2665   28.2770 C   0  0  2  0  0  0  0  0  0  0  0  0
   16.5417   10.8295   26.8135 C   0  0  0  0  0  0  0  0  0  0  0  0
   17.4073   10.0174   26.5249 O   0  0  0  0  0  0  0  0  0  0  0  0
   16.7249   12.7291   28.4924 C   0  0  0  0  0  0  0  0  0  0  0  0
   15.6389   13.7955   28.6658 C   0  0  0  0  0  0  0  0  0  0  0  0
   15.1620   13.9953   30.0941 C   0  0  0  0  0  0  0  0  0  0  0  0
   15.8860   13.8187   31.0721 O   0  0  0  0  0  0  0  0  0  0  0  0
   13.8587   14.3631   30.2530 N   0  0  0  0  0  0  0  0  0  0  0  0
   15.7601   11.4854   25.8962 N   0  0  0  0  0  0  0  0  0  0  0  0
   14.9810   10.8101   24.8543 C   0  0  2  0  0  0  0  0  0  0  0  0
   14.2295   11.9162   24.0465 C   0  0  0  0  0  0  0  0  0  0  0  0
   13.9870   13.0219   24.5441 O   0  0  0  0  0  0  0  0  0  0  0  0
   13.9595    9.9025   25.5733 C   0  0  0  0  0  0  0  0  0  0  0  0
   14.4744    8.6090   26.2297 C   0  0  1  0  0  0  0  0  0  0  0  0
   13.3579    7.8280   26.9200 C   0  0  0  0  0  0  0  0  0  0  0  0
   15.1083    7.7170   25.1528 C   0  0  0  0  0  0  0  0  0  0  0  0
   13.7045   11.6074   22.7972 N   0  0  0  0  0  0  0  0  0  0  0  0
   13.3520   12.7023   21.8683 C   0  0  2  0  0  0  0  0  0  0  0  0
   12.2010   13.6770   22.2418 C   0  0  0  0  0  0  0  0  0  0  0  0
   11.6876   14.4290   21.4177 O   0  0  0  0  0  0  0  0  0  0  0  0
   12.9957   12.0005   20.5446 C   0  0  0  0  0  0  0  0  0  0  0  0
   13.2297   10.5160   20.7985 C   0  0  0  0  0  0  0  0  0  0  0  0
   14.1594   10.4938   21.9862 C   0  0  0  0  0  0  0  0  0  0  0  0
   11.9026   13.7474   23.5807 N   0  0  0  0  0  0  0  0  0  0  0  0
   10.5610   14.1086   24.0251 C   0  0  2  0  0  0  0  0  0  0  0  0
    9.7220   14.7733   22.9156 C   0  0  0  0  0  0  0  0  0  0  0  0
    8.8056   14.1630   22.3424 O   0  0  0  0  0  0  0  0  0  0  0  0
   10.6809   15.0740   25.2023 C   0  0  0  0  0  0  0  0  0  0  0  0
    9.9403   16.1160   22.6766 N   0  0  0  0  0  0  0  0  0  0  0  0
    8.8612   17.0978   22.8103 C   0  0  2  0  0  0  0  0  0  0  0  0
    8.5873   17.7924   21.4581 C   0  0  0  0  0  0  0  0  0  0  0  0
    7.4499   18.0356   21.0421 O   0  0  0  0  0  0  0  0  0  0  0  0
    9.2224   18.1419   23.8883 C   0  0  0  0  0  0  0  0  0  0  0  0
    8.2292   18.2648   24.9115 O   0  0  0  0  0  0  0  0  0  0  0  0
    9.7251   18.1113   20.7390 N   0  0  0  0  0  0  0  0  0  0  0  0
   10.9664   17.3390   20.8196 C   0  0  2  0  0  0  0  0  0  0  0  0
   11.0266   16.0748   19.9266 C   0  0  0  0  0  0  0  0  0  0  0  0
   11.3466   15.0035   20.4383 O   0  0  0  0  0  0  0  0  0  0  0  0
   11.4469   17.0357   22.2443 C   0  0  0  0  0  0  0  0  0  0  0  0
   11.9279   15.6170   22.4164 C   0  0  0  0  0  0  0  0  0  0  0  0
   13.1722   15.3466   22.9929 C   0  0  0  0  0  0  0  0  0  0  0  0
   11.1330   14.5430   21.9939 C   0  0  0  0  0  0  0  0  0  0  0  0
   13.6036   14.0337   23.1805 C   0  0  0  0  0  0  0  0  0  0  0  0
   11.5670   13.2276   22.1684 C   0  0  0  0  0  0  0  0  0  0  0  0
   12.7923   12.9760   22.7757 C   0  0  0  0  0  0  0  0  0  0  0  0
   10.5801   16.2212   18.6334 N   0  0  0  0  0  0  0  0  0  0  0  0
   11.0601   17.2593   17.6865 C   0  0  2  0  0  0  0  0  0  0  0  0
    9.9437   18.3669   17.5200 C   0  0  0  0  0  0  0  0  0  0  0  0
   10.0284   19.3188   16.7480 O   0  0  0  0  0  0  0  0  0  0  0  0
   11.4635   16.6326   16.3269 C   0  0  0  0  0  0  0  0  0  0  0  0
   12.3129   15.3996   16.3515 C   0  0  0  0  0  0  0  0  0  0  0  0
   11.8507   14.1053   16.4664 C   0  0  0  0  0  0  0  0  0  0  0  0
   13.7394   15.3344   16.3349 C   0  0  0  0  0  0  0  0  0  0  0  0
   12.9262   13.2570   16.4401 N   0  0  0  0  0  0  0  0  0  0  0  0
   14.0949   13.9833   16.3873 C   0  0  0  0  0  0  0  0  0  0  0  0
   14.7754   16.2901   16.2879 C   0  0  0  0  0  0  0  0  0  0  0  0
   15.4225   13.5363   16.3663 C   0  0  0  0  0  0  0  0  0  0  0  0
   16.1086   15.8698   16.2845 C   0  0  0  0  0  0  0  0  0  0  0  0
   16.4252   14.5088   16.3305 C   0  0  0  0  0  0  0  0  0  0  0  0
    8.8574   18.2586   18.3748 N   0  0  0  0  0  0  0  0  0  0  0  0
    8.1154   19.4401   18.8716 C   0  0  2  0  0  0  0  0  0  0  0  0
    6.9476   20.0149   17.9803 C   0  0  0  0  0  0  0  0  0  0  0  0
    7.0392   20.2845   16.7833 O   0  0  0  0  0  0  0  0  0  0  0  0
    9.0338   20.5916   19.3262 C   0  0  0  0  0  0  0  0  0  0  0  0
    8.7475   21.9146   18.6212 C   0  0  0  0  0  0  0  0  0  0  0  0
    9.6146   23.0936   19.0854 C   0  0  0  0  0  0  0  0  0  0  0  0
   10.4091   22.8177   20.0279 O   0  0  0  0  0  1  0  0  0  0  0  0
    9.4261   24.2058   18.5155 O   0  0  0  0  0  0  0  0  0  0  0  0
    5.7708   20.2257   18.6947 N   0  0  0  0  0  0  0  0  0  0  0  0
    4.4141   20.2273   18.1244 C   0  0  2  0  0  0  0  0  0  0  0  0
    4.4856   21.1866   16.9189 C   0  0  0  0  0  0  0  0  0  0  0  0
    5.3055   21.0595   16.0079 O   0  0  0  0  0  0  0  0  0  0  0  0
    3.3619   20.8394   19.0690 C   0  0  0  0  0  0  0  0  0  0  0  0
    3.8824   21.1626   20.4524 C   0  0  0  0  0  0  0  0  0  0  0  0
    3.2709   20.3219   21.5641 C   0  0  0  0  0  0  0  0  0  0  0  0
    3.9262   20.1593   22.6281 O   0  0  0  0  0  1  0  0  0  0  0  0
    2.1292   19.8480   21.2903 O   0  0  0  0  0  0  0  0  0  0  0  0
    3.4601   22.1705   16.9090 N   0  0  0  0  0  0  0  0  0  0  0  0
    3.3774   22.9537   15.6722 C   0  0  2  0  0  0  0  0  0  0  0  0
    3.4238   22.0980   14.3980 C   0  0  0  0  0  0  0  0  0  0  0  0
    3.1885   22.5409   13.2746 O   0  0  0  0  0  0  0  0  0  0  0  0
    4.4059   24.0660   15.8322 C   0  0  0  0  0  0  0  0  0  0  0  0
    4.5811   24.1975   17.3559 C   0  0  0  0  0  0  0  0  0  0  0  0
    3.6675   23.1390   17.9681 C   0  0  0  0  0  0  0  0  0  0  0  0
    3.8098   20.7994   14.5446 N   0  0  0  0  0  0  0  0  0  0  0  0
  1  2  2  0
  1  3  1  0
  1  4  1  0
  5  4  1  1
  5  6  1  0
  5  8  1  0
  6  7  2  0
  6 11  1  0
  8  9  1  6
  8 10  1  0
 11 12  1  0
 11 17  1  0
 12 13  1  1
 12 15  1  0
 13 14  2  0
 13 18  1  0
 15 16  1  0
 16 17  1  0
 18 19  1  0
 19 20  1  0
 19 22  1  6
 20 21  2  0
 20 26  1  0
 22 23  1  0
 23 24  1  0
 24 25  1  0
 26 27  1  0
 27 28  1  0
 27 30  1  6
 28 29  2  0
 28 37  1  0
 30 31  1  0
 31 32  1  0
 32 33  1  0
 33 34  1  0
 34 35  2  0
 34 36  1  0
 37 38  1  0
 38 39  1  0
 38 41  1  6
 39 40  2  0
 39 42  1  0
 42 43  1  0
 43 44  1  0
 43 46  1  1
 44 45  2  0
 44 53  1  0
 46 47  1  0
 47 48  1  0
 48 49  1  0
 49 50  1  0
 50 51  2  0
 50 52  1  0
 53 54  1  0
 54 55  1  0
 54 57  1  6
 55 56  2  0
 55 62  1  0
 57 58  1  0
 58 59  1  0
 59 60  2  0
 59 61  1  0
 62 63  1  0
 63 64  1  0
 63 66  1  1
 64 65  2  0
 64 70  1  0
 66 67  1  0
 67 68  1  6
 67 69  1  0
 70 71  1  0
 70 76  1  0
 71 72  1  1
 71 74  1  0
 72 73  2  0
 72 77  1  0
 74 75  1  0
 75 76  1  0
 77 78  1  0
 78 79  1  0
 78 81  1  1
 79 80  2  0
 79 82  1  0
 82 83  1  0
 83 84  1  0
 83 86  1  1
 84 85  2  0
 84 88  1  0
 86 87  1  0
 88 89  1  0
 89 90  1  0
 89 92  1  1
 90 91  2  0
 90 99  1  0
 92 93  1  0
 93 94  2  0
 93 95  1  0
 94 96  1  0
 95 97  2  0
 96 98  2  0
 97 98  1  0
 99100  1  0
100101  1  0
100103  1  6
101102  2  0
101113  1  0
103104  1  0
104105  2  0
104106  1  0
105107  1  0
106108  2  0
106109  1  0
107108  1  0
108110  1  0
109111  2  0
110112  2  0
111112  1  0
113114  1  0
114115  1  0
114117  1  6
115116  2  0
115122  1  0
117118  1  0
118119  1  0
119120  1  0
119121  2  0
122123  1  0
123124  1  0
123126  1  1
124125  2  0
124131  1  0
126127  1  0
127128  1  0
128129  1  0
128130  2  0
131132  1  0
131137  1  0
132133  1  6
132135  1  0
133134  2  0
133138  1  0
135136  1  0
136137  1  0
M  CHG  4  35   1  51   1 120  -1 129  -1
M  END
$$$$
