
     RDKit          3D

138143  0  0  0  0  0  0  0  0999 V2000
   -0.6459   35.3695    8.8517 C   0  0  0  0  0  0  0  0  0  0  0  0
   -1.5794   34.6688    8.4986 O   0  0  0  0  0  0  0  0  0  0  0  0
   -0.8534   36.7016    9.5294 C   0  0  0  0  0  0  0  0  0  0  0  0
    0.6784   35.0683    8.6188 N   0  0  0  0  0  0  0  0  0  0  0  0
    1.1084   33.8592    7.9241 C   0  0  2  0  0  0  0  0  0  0  0  0
    0.8943   32.6656    8.8882 C   0  0  0  0  0  0  0  0  0  0  0  0
    1.0853   32.7987   10.1048 O   0  0  0  0  0  0  0  0  0  0  0  0
    2.5927   33.8301    7.4748 C   0  0  1  0  0  0  0  0  0  0  0  0
    2.9624   32.5682    6.6977 C   0  0  0  0  0  0  0  0  0  0  0  0
    3.0176   35.0753    6.6886 C   0  0  0  0  0  0  0  0  0  0  0  0
    0.5941   31.4398    8.3297 N   0  0  0  0  0  0  0  0  0  0  0  0
    0.4040   30.1766    9.0433 C   0  0  2  0  0  0  0  0  0  0  0  0
    1.7736   29.5658    9.4474 C   0  0  0  0  0  0  0  0  0  0  0  0
    2.0805   29.3487   10.6187 O   0  0  0  0  0  0  0  0  0  0  0  0
   -0.2488   29.2902    7.9857 C   0  0  0  0  0  0  0  0  0  0  0  0
    0.4618   29.7197    6.7017 C   0  0  0  0  0  0  0  0  0  0  0  0
    0.7304   31.2104    6.9016 C   0  0  0  0  0  0  0  0  0  0  0  0
    2.6615   29.3402    8.4065 N   0  0  0  0  0  0  0  0  0  0  0  0
    4.0585   28.9915    8.7189 C   0  0  2  0  0  0  0  0  0  0  0  0
    4.3467   28.9921   10.2330 C   0  0  0  0  0  0  0  0  0  0  0  0
    3.9431   29.8955   10.9545 O   0  0  0  0  0  0  0  0  0  0  0  0
    5.0264   29.9590    8.0169 C   0  0  0  0  0  0  0  0  0  0  0  0
    6.4193   29.9201    8.6472 C   0  0  0  0  0  0  0  0  0  0  0  0
    7.5559   31.0456    7.7692 S   0  0  0  0  0  0  0  0  0  0  0  0
    6.8171   30.9915    6.1236 C   0  0  0  0  0  0  0  0  0  0  0  0
    4.9798   27.8581   10.7282 N   0  0  0  0  0  0  0  0  0  0  0  0
    4.8590   27.5732   12.1654 C   0  0  2  0  0  0  0  0  0  0  0  0
    6.2333   27.2121   12.7508 C   0  0  0  0  0  0  0  0  0  0  0  0
    6.7187   26.0899   12.5827 O   0  0  0  0  0  0  0  0  0  0  0  0
    3.9408   26.3660   12.3974 C   0  0  0  0  0  0  0  0  0  0  0  0
    3.1128   26.4010   13.6827 C   0  0  0  0  0  0  0  0  0  0  0  0
    3.8795   26.9566   14.8708 C   0  0  0  0  0  0  0  0  0  0  0  0
    2.9536   27.3312   15.9555 N   0  0  0  0  0  0  0  0  0  0  0  0
    3.0999   26.9372   17.2268 C   0  0  0  0  0  0  0  0  0  0  0  0
    2.1261   26.3128   17.8922 N   0  0  0  0  0  4  0  0  0  0  0  0
    4.2613   27.1900   17.8644 N   0  0  0  0  0  0  0  0  0  0  0  0
    6.7911   28.1914   13.5446 N   0  0  0  0  0  0  0  0  0  0  0  0
    8.1178   28.0618   14.1326 C   0  0  2  0  0  0  0  0  0  0  0  0
    8.3263   26.6062   14.6194 C   0  0  0  0  0  0  0  0  0  0  0  0
    7.8092   25.6588   14.0146 O   0  0  0  0  0  0  0  0  0  0  0  0
    8.3481   29.1465   15.1673 C   0  0  0  0  0  0  0  0  0  0  0  0
    9.1995   26.3967   15.6679 N   0  0  0  0  0  0  0  0  0  0  0  0
    9.4764   25.0650   16.2124 C   0  0  2  0  0  0  0  0  0  0  0  0
   10.5119   25.1332   17.3765 C   0  0  0  0  0  0  0  0  0  0  0  0
   11.6973   24.8346   17.2163 O   0  0  0  0  0  0  0  0  0  0  0  0
   10.0234   24.0863   15.1517 C   0  0  0  0  0  0  0  0  0  0  0  0
    9.2406   23.9190   13.8429 C   0  0  0  0  0  0  0  0  0  0  0  0
    9.7481   22.8090   12.9252 C   0  0  0  0  0  0  0  0  0  0  0  0
    8.6931   21.9818   12.3493 N   0  0  0  0  0  0  0  0  0  0  0  0
    8.8759   20.7589   11.8341 C   0  0  0  0  0  0  0  0  0  0  0  0
    9.8012   19.9298   12.3393 N   0  0  0  0  0  4  0  0  0  0  0  0
    8.1511   20.3358   10.8096 N   0  0  0  0  0  0  0  0  0  0  0  0
   10.0065   25.4197   18.6291 N   0  0  0  0  0  0  0  0  0  0  0  0
   10.0116   24.4022   19.6922 C   0  0  2  0  0  0  0  0  0  0  0  0
   11.4045   23.7358   19.6672 C   0  0  0  0  0  0  0  0  0  0  0  0
   12.2169   24.0028   18.7949 O   0  0  0  0  0  0  0  0  0  0  0  0
    8.8972   23.3720   19.4637 C   0  0  0  0  0  0  0  0  0  0  0  0
    7.4543   23.8557   19.2886 C   0  0  0  0  0  0  0  0  0  0  0  0
    7.2957   25.3615   19.1669 C   0  0  0  0  0  0  0  0  0  0  0  0
    7.7073   26.1486   20.0172 O   0  0  0  0  0  0  0  0  0  0  0  0
    6.6394   25.8153   18.0613 N   0  0  0  0  0  0  0  0  0  0  0  0
   11.5974   22.7865   20.6389 N   0  0  0  0  0  0  0  0  0  0  0  0
   10.6206   22.4799   21.6879 C   0  0  2  0  0  0  0  0  0  0  0  0
   11.4218   22.0244   22.9493 C   0  0  0  0  0  0  0  0  0  0  0  0
   10.8615   21.4620   23.8974 O   0  0  0  0  0  0  0  0  0  0  0  0
    9.7544   21.3119   21.1686 C   0  0  0  0  0  0  0  0  0  0  0  0
    8.9255   20.5134   22.1905 C   0  0  1  0  0  0  0  0  0  0  0  0
    8.8020   19.0397   21.8083 C   0  0  0  0  0  0  0  0  0  0  0  0
    9.5960   20.6118   23.5682 C   0  0  0  0  0  0  0  0  0  0  0  0
   12.7606   22.3780   23.0687 N   0  0  0  0  0  0  0  0  0  0  0  0
   13.7567   21.3403   23.4106 C   0  0  2  0  0  0  0  0  0  0  0  0
   13.6925   20.6521   24.8022 C   0  0  0  0  0  0  0  0  0  0  0  0
   13.9023   21.2654   25.8453 O   0  0  0  0  0  0  0  0  0  0  0  0
   15.1220   22.0380   23.2665 C   0  0  0  0  0  0  0  0  0  0  0  0
   14.8060   23.4489   22.7845 C   0  0  0  0  0  0  0  0  0  0  0  0
   13.4224   23.3292   22.1957 C   0  0  0  0  0  0  0  0  0  0  0  0
   13.5353   19.2878   24.7757 N   0  0  0  0  0  0  0  0  0  0  0  0
   14.0439   18.4599   25.8638 C   0  0  2  0  0  0  0  0  0  0  0  0
   15.5754   18.5476   26.0168 C   0  0  0  0  0  0  0  0  0  0  0  0
   16.2761   19.1496   25.1878 O   0  0  0  0  0  0  0  0  0  0  0  0
   13.6543   17.0080   25.5946 C   0  0  0  0  0  0  0  0  0  0  0  0
   16.1241   18.0458   27.1808 N   0  0  0  0  0  0  0  0  0  0  0  0
   17.1825   18.7647   27.8944 C   0  0  2  0  0  0  0  0  0  0  0  0
   18.3973   17.8424   28.1385 C   0  0  0  0  0  0  0  0  0  0  0  0
   19.4731   18.2480   28.5900 O   0  0  0  0  0  0  0  0  0  0  0  0
   16.6443   19.3117   29.2338 C   0  0  0  0  0  0  0  0  0  0  0  0
   17.5941   20.1187   29.9373 O   0  0  0  0  0  0  0  0  0  0  0  0
   18.1869   16.5185   27.7968 N   0  0  0  0  0  0  0  0  0  0  0  0
   19.2001   15.6897   27.1409 C   0  0  2  0  0  0  0  0  0  0  0  0
   18.8999   15.3048   25.6708 C   0  0  0  0  0  0  0  0  0  0  0  0
   19.7249   15.5891   24.8044 O   0  0  0  0  0  0  0  0  0  0  0  0
   19.6609   14.4714   27.9507 C   0  0  0  0  0  0  0  0  0  0  0  0
   20.7537   13.6873   27.2689 C   0  0  0  0  0  0  0  0  0  0  0  0
   21.3718   12.6109   27.9116 C   0  0  0  0  0  0  0  0  0  0  0  0
   21.1719   14.0312   25.9764 C   0  0  0  0  0  0  0  0  0  0  0  0
   22.3608   11.8664   27.2692 C   0  0  0  0  0  0  0  0  0  0  0  0
   22.1705   13.2961   25.3349 C   0  0  0  0  0  0  0  0  0  0  0  0
   22.7501   12.2066   25.9755 C   0  0  0  0  0  0  0  0  0  0  0  0
   17.7750   14.5413   25.4590 N   0  0  0  0  0  0  0  0  0  0  0  0
   16.4147   14.8896   25.9415 C   0  0  2  0  0  0  0  0  0  0  0  0
   16.2859   14.4896   27.4661 C   0  0  0  0  0  0  0  0  0  0  0  0
   17.1816   13.9556   28.1154 O   0  0  0  0  0  0  0  0  0  0  0  0
   15.3229   14.2164   25.0704 C   0  0  0  0  0  0  0  0  0  0  0  0
   13.8908   14.4687   25.4283 C   0  0  0  0  0  0  0  0  0  0  0  0
   13.0183   13.5424   25.9601 C   0  0  0  0  0  0  0  0  0  0  0  0
   13.1496   15.6719   25.2231 C   0  0  0  0  0  0  0  0  0  0  0  0
   11.8076   14.1518   26.1594 N   0  0  0  0  0  0  0  0  0  0  0  0
   11.8521   15.4466   25.6926 C   0  0  0  0  0  0  0  0  0  0  0  0
   13.4451   16.9378   24.6761 C   0  0  0  0  0  0  0  0  0  0  0  0
   10.8468   16.4222   25.6717 C   0  0  0  0  0  0  0  0  0  0  0  0
   12.4536   17.9220   24.6272 C   0  0  0  0  0  0  0  0  0  0  0  0
   11.1689   17.6618   25.1134 C   0  0  0  0  0  0  0  0  0  0  0  0
   15.0417   14.7020   28.0401 N   0  0  0  0  0  0  0  0  0  0  0  0
   14.5716   13.9442   29.2225 C   0  0  2  0  0  0  0  0  0  0  0  0
   14.5100   12.3711   29.1227 C   0  0  0  0  0  0  0  0  0  0  0  0
   13.9265   11.6348   29.9173 O   0  0  0  0  0  0  0  0  0  0  0  0
   13.2471   14.4778   29.8030 C   0  0  0  0  0  0  0  0  0  0  0  0
   12.9466   15.9215   29.4097 C   0  0  0  0  0  0  0  0  0  0  0  0
   11.4540   16.2764   29.3498 C   0  0  0  0  0  0  0  0  0  0  0  0
   10.6787   15.3212   29.6368 O   0  0  0  0  0  1  0  0  0  0  0  0
   11.1560   17.4516   28.9929 O   0  0  0  0  0  0  0  0  0  0  0  0
   15.2211   11.8664   28.0368 N   0  0  0  0  0  0  0  0  0  0  0  0
   15.2986   10.4482   27.6513 C   0  0  2  0  0  0  0  0  0  0  0  0
   16.8033   10.1619   27.4713 C   0  0  0  0  0  0  0  0  0  0  0  0
   17.6721   10.6634   28.1868 O   0  0  0  0  0  0  0  0  0  0  0  0
   14.6628   10.1592   26.2779 C   0  0  0  0  0  0  0  0  0  0  0  0
   15.3881    9.1082   25.4665 C   0  0  0  0  0  0  0  0  0  0  0  0
   14.5236    7.9229   25.0609 C   0  0  0  0  0  0  0  0  0  0  0  0
   15.0812    6.9177   24.5446 O   0  0  0  0  0  1  0  0  0  0  0  0
   13.2873    8.0798   25.2842 O   0  0  0  0  0  0  0  0  0  0  0  0
   17.0859    9.1954   26.4684 N   0  0  0  0  0  0  0  0  0  0  0  0
   17.6360    7.9338   26.9741 C   0  0  2  0  0  0  0  0  0  0  0  0
   16.8697    7.3675   28.1782 C   0  0  0  0  0  0  0  0  0  0  0  0
   16.3996    8.0682   29.0735 O   0  0  0  0  0  0  0  0  0  0  0  0
   19.1322    8.1790   27.1214 C   0  0  0  0  0  0  0  0  0  0  0  0
   19.4190    9.3383   26.1502 C   0  0  0  0  0  0  0  0  0  0  0  0
   18.0712    9.7003   25.5319 C   0  0  0  0  0  0  0  0  0  0  0  0
   16.6618    6.0209   28.1951 N   0  0  0  0  0  0  0  0  0  0  0  0
  1  2  2  0
  1  3  1  0
  1  4  1  0
  5  4  1  1
  5  6  1  0
  5  8  1  0
  6  7  2  0
  6 11  1  0
  8  9  1  6
  8 10  1  0
 11 12  1  0
 11 17  1  0
 12 13  1  6
 12 15  1  0
 13 14  2  0
 13 18  1  0
 15 16  1  0
 16 17  1  0
 18 19  1  0
 19 20  1  0
 19 22  1  6
 20 21  2  0
 20 26  1  0
 22 23  1  0
 23 24  1  0
 24 25  1  0
 26 27  1  0
 27 28  1  0
 27 30  1  6
 28 29  2  0
 28 37  1  0
 30 31  1  0
 31 32  1  0
 32 33  1  0
 33 34  1  0
 34 35  2  0
 34 36  1  0
 37 38  1  0
 38 39  1  0
 38 41  1  1
 39 40  2  0
 39 42  1  0
 42 43  1  0
 43 44  1  0
 43 46  1  6
 44 45  2  0
 44 53  1  0
 46 47  1  0
 47 48  1  0
 48 49  1  0
 49 50  1  0
 50 51  2  0
 50 52  1  0
 53 54  1  0
 54 55  1  0
 54 57  1  6
 55 56  2  0
 55 62  1  0
 57 58  1  0
 58 59  1  0
 59 60  2  0
 59 61  1  0
 62 63  1  0
 63 64  1  0
 63 66  1  6
 64 65  2  0
 64 70  1  0
 66 67  1  0
 67 68  1  6
 67 69  1  0
 70 71  1  0
 70 76  1  0
 71 72  1  1
 71 74  1  0
 72 73  2  0
 72 77  1  0
 74 75  1  0
 75 76  1  0
 77 78  1  0
 78 79  1  0
 78 81  1  6
 79 80  2  0
 79 82  1  0
 82 83  1  0
 83 84  1  0
 83 86  1  1
 84 85  2  0
 84 88  1  0
 86 87  1  0
 88 89  1  0
 89 90  1  0
 89 92  1  1
 90 91  2  0
 90 99  1  0
 92 93  1  0
 93 94  2  0
 93 95  1  0
 94 96  1  0
 95 97  2  0
 96 98  2  0
 97 98  1  0
 99100  1  0
100101  1  0
100103  1  6
101102  2  0
101113  1  0
103104  1  0
104105  2  0
104106  1  0
105107  1  0
106108  2  0
106109  1  0
107108  1  0
108110  1  0
109111  2  0
110112  2  0
111112  1  0
113114  1  0
114115  1  0
114117  1  6
115116  2  0
115122  1  0
117118  1  0
118119  1  0
119120  1  0
119121  2  0
122123  1  0
123124  1  0
123126  1  6
124125  2  0
124131  1  0
126127  1  0
127128  1  0
128129  1  0
128130  2  0
131132  1  0
131137  1  0
132133  1  1
132135  1  0
133134  2  0
133138  1  0
135136  1  0
136137  1  0
M  CHG  4  35   1  51   1 120  -1 129  -1
M  END
$$$$
