
     RDKit          3D

138143  0  0  0  0  0  0  0  0999 V2000
   30.9924    8.6811   40.7615 C   0  0  0  0  0  0  0  0  0  0  0  0
   29.9284    9.0864   40.3248 O   0  0  0  0  0  0  0  0  0  0  0  0
   31.9626    9.5867   41.4796 C   0  0  0  0  0  0  0  0  0  0  0  0
   31.4563    7.3943   40.5962 N   0  0  0  0  0  0  0  0  0  0  0  0
   31.0285    6.5295   39.5014 C   0  0  2  0  0  0  0  0  0  0  0  0
   29.6712    7.0680   38.9840 C   0  0  0  0  0  0  0  0  0  0  0  0
   28.6947    7.1425   39.7423 O   0  0  0  0  0  0  0  0  0  0  0  0
   30.8257    5.0344   39.8612 C   0  0  1  0  0  0  0  0  0  0  0  0
   30.5065    4.1609   38.6497 C   0  0  0  0  0  0  0  0  0  0  0  0
   31.9933    4.4323   40.6509 C   0  0  0  0  0  0  0  0  0  0  0  0
   29.5686    7.3522   37.6374 N   0  0  0  0  0  0  0  0  0  0  0  0
   28.3833    7.8455   36.9354 C   0  0  2  0  0  0  0  0  0  0  0  0
   27.3761    6.6900   36.6851 C   0  0  0  0  0  0  0  0  0  0  0  0
   26.6279    6.2638   37.5635 O   0  0  0  0  0  0  0  0  0  0  0  0
   28.9559    8.3110   35.5990 C   0  0  0  0  0  0  0  0  0  0  0  0
   30.0350    7.2661   35.3132 C   0  0  0  0  0  0  0  0  0  0  0  0
   30.5748    6.8962   36.6937 C   0  0  0  0  0  0  0  0  0  0  0  0
   27.4183    6.1192   35.4221 N   0  0  0  0  0  0  0  0  0  0  0  0
   26.8942    4.7550   35.2342 C   0  0  2  0  0  0  0  0  0  0  0  0
   25.3926    4.7380   34.8871 C   0  0  0  0  0  0  0  0  0  0  0  0
   24.5401    4.6836   35.7645 O   0  0  0  0  0  0  0  0  0  0  0  0
   27.1343    3.9061   36.4940 C   0  0  0  0  0  0  0  0  0  0  0  0
   27.6255    2.5010   36.1426 C   0  0  0  0  0  0  0  0  0  0  0  0
   26.4522    1.6702   35.0189 S   0  0  0  0  0  0  0  0  0  0  0  0
   27.2884    0.0815   34.8360 C   0  0  0  0  0  0  0  0  0  0  0  0
   25.0810    4.9065   33.5431 N   0  0  0  0  0  0  0  0  0  0  0  0
   23.6612    4.9791   33.1684 C   0  0  2  0  0  0  0  0  0  0  0  0
   23.5158    4.9572   31.6386 C   0  0  0  0  0  0  0  0  0  0  0  0
   24.1381    5.7546   30.9314 O   0  0  0  0  0  0  0  0  0  0  0  0
   23.0436    6.2950   33.6594 C   0  0  0  0  0  0  0  0  0  0  0  0
   24.0135    7.4685   33.8036 C   0  0  0  0  0  0  0  0  0  0  0  0
   23.3301    8.7583   34.2249 C   0  0  0  0  0  0  0  0  0  0  0  0
   22.3595    9.1886   33.2015 N   0  0  0  0  0  0  0  0  0  0  0  0
   21.1234    9.6187   33.4839 C   0  0  0  0  0  0  0  0  0  0  0  0
   20.0379    9.0604   32.9447 N   0  0  0  0  0  4  0  0  0  0  0  0
   20.9655   10.6587   34.3284 N   0  0  0  0  0  0  0  0  0  0  0  0
   22.5725    4.0693   31.1673 N   0  0  0  0  0  0  0  0  0  0  0  0
   22.5412    3.6222   29.7810 C   0  0  2  0  0  0  0  0  0  0  0  0
   22.2508    4.8302   28.8560 C   0  0  0  0  0  0  0  0  0  0  0  0
   23.0213    5.1157   27.9309 O   0  0  0  0  0  0  0  0  0  0  0  0
   21.6141    2.4318   29.6279 C   0  0  0  0  0  0  0  0  0  0  0  0
   21.0524    5.4950   29.0221 N   0  0  0  0  0  0  0  0  0  0  0  0
   20.2281    5.9336   27.8930 C   0  0  2  0  0  0  0  0  0  0  0  0
   21.1008    6.2230   26.6334 C   0  0  0  0  0  0  0  0  0  0  0  0
   21.9839    7.0833   26.6326 O   0  0  0  0  0  0  0  0  0  0  0  0
   19.4140    7.2072   28.2052 C   0  0  0  0  0  0  0  0  0  0  0  0
   18.9462    7.4370   29.6481 C   0  0  0  0  0  0  0  0  0  0  0  0
   19.0395    8.8818   30.1340 C   0  0  0  0  0  0  0  0  0  0  0  0
   18.3436    9.8429   29.2851 N   0  0  0  0  0  0  0  0  0  0  0  0
   18.0354   11.0964   29.6430 C   0  0  0  0  0  0  0  0  0  0  0  0
   17.6269   11.9921   28.7322 N   0  0  0  0  0  4  0  0  0  0  0  0
   18.1290   11.4873   30.9049 N   0  0  0  0  0  0  0  0  0  0  0  0
   20.7465    5.5565   25.4772 N   0  0  0  0  0  0  0  0  0  0  0  0
   20.0478    6.2588   24.3891 C   0  0  2  0  0  0  0  0  0  0  0  0
   19.7291    5.2036   23.3074 C   0  0  0  0  0  0  0  0  0  0  0  0
   19.8808    4.0110   23.5243 O   0  0  0  0  0  0  0  0  0  0  0  0
   20.9189    7.3893   23.8246 C   0  0  0  0  0  0  0  0  0  0  0  0
   22.2738    7.0484   23.1963 C   0  0  0  0  0  0  0  0  0  0  0  0
   22.2347    6.7746   21.7027 C   0  0  0  0  0  0  0  0  0  0  0  0
   22.8756    7.4320   20.8849 O   0  0  0  0  0  0  0  0  0  0  0  0
   21.4199    5.7611   21.2925 N   0  0  0  0  0  0  0  0  0  0  0  0
   19.3535    5.7274   22.0962 N   0  0  0  0  0  0  0  0  0  0  0  0
   17.9693    6.0523   21.7398 C   0  0  2  0  0  0  0  0  0  0  0  0
   17.8823    7.6042   21.5833 C   0  0  0  0  0  0  0  0  0  0  0  0
   18.1478    8.3605   22.5250 O   0  0  0  0  0  0  0  0  0  0  0  0
   17.0821    5.5949   22.9179 C   0  0  0  0  0  0  0  0  0  0  0  0
   16.8836    4.0837   23.1324 C   0  0  1  0  0  0  0  0  0  0  0  0
   15.6443    3.7775   23.9710 C   0  0  0  0  0  0  0  0  0  0  0  0
   16.7379    3.3972   21.7668 C   0  0  0  0  0  0  0  0  0  0  0  0
   17.3674    8.1415   20.4095 N   0  0  0  0  0  0  0  0  0  0  0  0
   17.0280    9.5796   20.3583 C   0  0  2  0  0  0  0  0  0  0  0  0
   15.8779   10.1230   21.2506 C   0  0  0  0  0  0  0  0  0  0  0  0
   14.7202    9.7293   21.1367 O   0  0  0  0  0  0  0  0  0  0  0  0
   16.6808    9.8531   18.8831 C   0  0  0  0  0  0  0  0  0  0  0  0
   16.9062    8.5290   18.1626 C   0  0  0  0  0  0  0  0  0  0  0  0
   17.8250    7.7667   19.0847 C   0  0  0  0  0  0  0  0  0  0  0  0
   16.2148   11.1758   22.0660 N   0  0  0  0  0  0  0  0  0  0  0  0
   15.2196   11.7868   22.9401 C   0  0  2  0  0  0  0  0  0  0  0  0
   14.0557   12.4324   22.1621 C   0  0  0  0  0  0  0  0  0  0  0  0
   13.9043   13.6639   22.1263 O   0  0  0  0  0  0  0  0  0  0  0  0
   15.9054   12.8574   23.7860 C   0  0  0  0  0  0  0  0  0  0  0  0
   13.2664   11.5966   21.3967 N   0  0  0  0  0  0  0  0  0  0  0  0
   11.9336   12.0082   20.9490 C   0  0  2  0  0  0  0  0  0  0  0  0
   11.3599   13.0990   21.8801 C   0  0  0  0  0  0  0  0  0  0  0  0
   11.9222   13.4659   22.9169 O   0  0  0  0  0  0  0  0  0  0  0  0
   10.9880   10.7890   20.9019 C   0  0  0  0  0  0  0  0  0  0  0  0
   10.8351   10.1429   22.1698 O   0  0  0  0  0  0  0  0  0  0  0  0
   10.1511   13.6273   21.4639 N   0  0  0  0  0  0  0  0  0  0  0  0
    9.7778   15.0288   21.6641 C   0  0  2  0  0  0  0  0  0  0  0  0
    9.2686   15.7719   20.4039 C   0  0  0  0  0  0  0  0  0  0  0  0
    8.8418   16.9186   20.5252 O   0  0  0  0  0  0  0  0  0  0  0  0
   10.8104   15.8697   22.4250 C   0  0  0  0  0  0  0  0  0  0  0  0
   11.0299   15.3978   23.8403 C   0  0  0  0  0  0  0  0  0  0  0  0
    9.9568   14.9739   24.6294 C   0  0  0  0  0  0  0  0  0  0  0  0
   12.3187   15.3822   24.3903 C   0  0  0  0  0  0  0  0  0  0  0  0
   10.1637   14.5082   25.9276 C   0  0  0  0  0  0  0  0  0  0  0  0
   12.5281   14.9286   25.6939 C   0  0  0  0  0  0  0  0  0  0  0  0
   11.4538   14.4775   26.4526 C   0  0  0  0  0  0  0  0  0  0  0  0
    9.4594   15.1316   19.2011 N   0  0  0  0  0  0  0  0  0  0  0  0
   10.2927   15.6543   18.0888 C   0  0  2  0  0  0  0  0  0  0  0  0
    9.3951   15.8107   16.7963 C   0  0  0  0  0  0  0  0  0  0  0  0
    9.1610   14.8992   16.0066 O   0  0  0  0  0  0  0  0  0  0  0  0
   11.5221   14.7441   17.8353 C   0  0  0  0  0  0  0  0  0  0  0  0
   12.7097   15.3496   17.1532 C   0  0  0  0  0  0  0  0  0  0  0  0
   12.9878   15.2765   15.8043 C   0  0  0  0  0  0  0  0  0  0  0  0
   13.7974   16.0416   17.7676 C   0  0  0  0  0  0  0  0  0  0  0  0
   14.1508   15.9596   15.5638 N   0  0  0  0  0  0  0  0  0  0  0  0
   14.6810   16.4147   16.7504 C   0  0  0  0  0  0  0  0  0  0  0  0
   14.1308   16.3869   19.0937 C   0  0  0  0  0  0  0  0  0  0  0  0
   15.8597   17.1357   16.9821 C   0  0  0  0  0  0  0  0  0  0  0  0
   15.3107   17.0904   19.3526 C   0  0  0  0  0  0  0  0  0  0  0  0
   16.1664   17.4526   18.3079 C   0  0  0  0  0  0  0  0  0  0  0  0
    8.9311   17.0915   16.5381 N   0  0  0  0  0  0  0  0  0  0  0  0
    8.1537   17.4259   15.3227 C   0  0  2  0  0  0  0  0  0  0  0  0
    7.7691   18.9359   15.0767 C   0  0  0  0  0  0  0  0  0  0  0  0
    8.1033   19.5995   14.0959 O   0  0  0  0  0  0  0  0  0  0  0  0
    6.9091   16.5372   15.1299 C   0  0  0  0  0  0  0  0  0  0  0  0
    5.7159   16.9663   15.9792 C   0  0  0  0  0  0  0  0  0  0  0  0
    4.6109   17.7063   15.2118 C   0  0  0  0  0  0  0  0  0  0  0  0
    4.7724   17.7312   13.9592 O   0  0  0  0  0  1  0  0  0  0  0  0
    3.6899   18.2351   15.8970 O   0  0  0  0  0  0  0  0  0  0  0  0
    7.0168   19.4819   16.1137 N   0  0  0  0  0  0  0  0  0  0  0  0
    7.5619   20.0472   17.3585 C   0  0  2  0  0  0  0  0  0  0  0  0
    8.7494   20.9256   16.9151 C   0  0  0  0  0  0  0  0  0  0  0  0
    8.6684   21.7557   16.0081 O   0  0  0  0  0  0  0  0  0  0  0  0
    8.1700   18.9820   18.2909 C   0  0  0  0  0  0  0  0  0  0  0  0
    7.2636   18.5604   19.4267 C   0  0  0  0  0  0  0  0  0  0  0  0
    7.2691   17.0651   19.7107 C   0  0  0  0  0  0  0  0  0  0  0  0
    7.1545   16.6769   20.9040 O   0  0  0  0  0  1  0  0  0  0  0  0
    7.4025   16.3403   18.6812 O   0  0  0  0  0  0  0  0  0  0  0  0
    9.9147   20.7563   17.7108 N   0  0  0  0  0  0  0  0  0  0  0  0
   10.1764   21.8507   18.6509 C   0  0  2  0  0  0  0  0  0  0  0  0
    8.9396   22.2824   19.4521 C   0  0  0  0  0  0  0  0  0  0  0  0
    8.3086   21.5235   20.1867 O   0  0  0  0  0  0  0  0  0  0  0  0
   10.9161   22.9074   17.8404 C   0  0  0  0  0  0  0  0  0  0  0  0
   11.5402   22.1172   16.6761 C   0  0  0  0  0  0  0  0  0  0  0  0
   11.0979   20.6703   16.8769 C   0  0  0  0  0  0  0  0  0  0  0  0
    8.5848   23.5956   19.3730 N   0  0  0  0  0  0  0  0  0  0  0  0
  1  2  2  0
  1  3  1  0
  1  4  1  0
  5  4  1  1
  5  6  1  0
  5  8  1  0
  6  7  2  0
  6 11  1  0
  8  9  1  6
  8 10  1  0
 11 12  1  0
 11 17  1  0
 12 13  1  6
 12 15  1  0
 13 14  2  0
 13 18  1  0
 15 16  1  0
 16 17  1  0
 18 19  1  0
 19 20  1  0
 19 22  1  1
 20 21  2  0
 20 26  1  0
 22 23  1  0
 23 24  1  0
 24 25  1  0
 26 27  1  0
 27 28  1  0
 27 30  1  6
 28 29  2  0
 28 37  1  0
 30 31  1  0
 31 32  1  0
 32 33  1  0
 33 34  1  0
 34 35  2  0
 34 36  1  0
 37 38  1  0
 38 39  1  0
 38 41  1  1
 39 40  2  0
 39 42  1  0
 42 43  1  0
 43 44  1  0
 43 46  1  1
 44 45  2  0
 44 53  1  0
 46 47  1  0
 47 48  1  0
 48 49  1  0
 49 50  1  0
 50 51  2  0
 50 52  1  0
 53 54  1  0
 54 55  1  0
 54 57  1  6
 55 56  2  0
 55 62  1  0
 57 58  1  0
 58 59  1  0
 59 60  2  0
 59 61  1  0
 62 63  1  0
 63 64  1  0
 63 66  1  1
 64 65  2  0
 64 70  1  0
 66 67  1  0
 67 68  1  1
 67 69  1  0
 70 71  1  0
 70 76  1  0
 71 72  1  1
 71 74  1  0
 72 73  2  0
 72 77  1  0
 74 75  1  0
 75 76  1  0
 77 78  1  0
 78 79  1  0
 78 81  1  6
 79 80  2  0
 79 82  1  0
 82 83  1  0
 83 84  1  0
 83 86  1  1
 84 85  2  0
 84 88  1  0
 86 87  1  0
 88 89  1  0
 89 90  1  0
 89 92  1  6
 90 91  2  0
 90 99  1  0
 92 93  1  0
 93 94  2  0
 93 95  1  0
 94 96  1  0
 95 97  2  0
 96 98  2  0
 97 98  1  0
 99100  1  0
100101  1  0
100103  1  6
101102  2  0
101113  1  0
103104  1  0
104105  2  0
104106  1  0
105107  1  0
106108  2  0
106109  1  0
107108  1  0
108110  1  0
109111  2  0
110112  2  0
111112  1  0
113114  1  0
114115  1  0
114117  1  1
115116  2  0
115122  1  0
117118  1  0
118119  1  0
119120  1  0
119121  2  0
122123  1  0
123124  1  0
123126  1  1
124125  2  0
124131  1  0
126127  1  0
127128  1  0
128129  1  0
128130  2  0
131132  1  0
131137  1  0
132133  1  6
132135  1  0
133134  2  0
133138  1  0
135136  1  0
136137  1  0
M  CHG  4  35   1  51   1 120  -1 129  -1
M  END
$$$$
