
     RDKit          3D

138143  0  0  0  0  0  0  0  0999 V2000
   25.1235    5.2282   29.3394 C   0  0  0  0  0  0  0  0  0  0  0  0
   25.8574    4.3705   28.8782 O   0  0  0  0  0  0  0  0  0  0  0  0
   24.4999    6.2989   28.4783 C   0  0  0  0  0  0  0  0  0  0  0  0
   24.8366    5.3608   30.6805 N   0  0  0  0  0  0  0  0  0  0  0  0
   23.8825    6.3371   31.1966 C   0  0  2  0  0  0  0  0  0  0  0  0
   23.6686    7.4072   30.0970 C   0  0  0  0  0  0  0  0  0  0  0  0
   24.6312    8.0372   29.6379 O   0  0  0  0  0  0  0  0  0  0  0  0
   24.3097    7.0811   32.4888 C   0  0  1  0  0  0  0  0  0  0  0  0
   23.2041    7.9586   33.0723 C   0  0  0  0  0  0  0  0  0  0  0  0
   24.8706    6.1524   33.5715 C   0  0  0  0  0  0  0  0  0  0  0  0
   22.3694    7.7012   29.7365 N   0  0  0  0  0  0  0  0  0  0  0  0
   21.9347    8.7402   28.8024 C   0  0  2  0  0  0  0  0  0  0  0  0
   21.9763   10.1369   29.4806 C   0  0  0  0  0  0  0  0  0  0  0  0
   22.3569   10.2977   30.6392 O   0  0  0  0  0  0  0  0  0  0  0  0
   20.4822    8.3577   28.5292 C   0  0  0  0  0  0  0  0  0  0  0  0
   20.0068    7.8484   29.8904 C   0  0  0  0  0  0  0  0  0  0  0  0
   21.2432    7.1865   30.4966 C   0  0  0  0  0  0  0  0  0  0  0  0
   21.4927   11.1895   28.7185 N   0  0  0  0  0  0  0  0  0  0  0  0
   21.6891   12.5695   29.1958 C   0  0  2  0  0  0  0  0  0  0  0  0
   20.4705   13.4723   28.9211 C   0  0  0  0  0  0  0  0  0  0  0  0
   19.3309   13.0841   29.1453 O   0  0  0  0  0  0  0  0  0  0  0  0
   22.9385   13.1916   28.5497 C   0  0  0  0  0  0  0  0  0  0  0  0
   24.2245   12.5609   29.0858 C   0  0  0  0  0  0  0  0  0  0  0  0
   24.7612   13.3942   30.6179 S   0  0  0  0  0  0  0  0  0  0  0  0
   26.2407   14.2247   30.0033 C   0  0  0  0  0  0  0  0  0  0  0  0
   20.7589   14.7724   28.5231 N   0  0  0  0  0  0  0  0  0  0  0  0
   19.6492   15.6089   28.0433 C   0  0  2  0  0  0  0  0  0  0  0  0
   20.0418   17.0936   28.1014 C   0  0  0  0  0  0  0  0  0  0  0  0
   21.0805   17.4956   27.5697 O   0  0  0  0  0  0  0  0  0  0  0  0
   18.4184   15.4343   28.9427 C   0  0  0  0  0  0  0  0  0  0  0  0
   18.6945   14.8886   30.3443 C   0  0  0  0  0  0  0  0  0  0  0  0
   18.4621   13.3915   30.4576 C   0  0  0  0  0  0  0  0  0  0  0  0
   17.0187   13.0931   30.5000 N   0  0  0  0  0  0  0  0  0  0  0  0
   16.1497   13.7364   31.2898 C   0  0  0  0  0  0  0  0  0  0  0  0
   16.5118   14.7767   32.0431 N   0  0  0  0  0  4  0  0  0  0  0  0
   14.8696   13.3142   31.3406 N   0  0  0  0  0  0  0  0  0  0  0  0
   19.2085   17.8748   28.8730 N   0  0  0  0  0  0  0  0  0  0  0  0
   19.2883   19.3295   28.8858 C   0  0  2  0  0  0  0  0  0  0  0  0
   18.2049   19.8973   29.8359 C   0  0  0  0  0  0  0  0  0  0  0  0
   17.9653   19.3486   30.9187 O   0  0  0  0  0  0  0  0  0  0  0  0
   19.2803   19.8740   27.4703 C   0  0  0  0  0  0  0  0  0  0  0  0
   17.6085   21.0936   29.4908 N   0  0  0  0  0  0  0  0  0  0  0  0
   18.2208   22.3937   29.7761 C   0  0  2  0  0  0  0  0  0  0  0  0
   17.7386   23.4805   28.7670 C   0  0  0  0  0  0  0  0  0  0  0  0
   18.0711   23.4648   27.5799 O   0  0  0  0  0  0  0  0  0  0  0  0
   19.7629   22.3534   29.7245 C   0  0  0  0  0  0  0  0  0  0  0  0
   20.5458   23.4085   30.5168 C   0  0  0  0  0  0  0  0  0  0  0  0
   20.0812   24.8481   30.3077 C   0  0  0  0  0  0  0  0  0  0  0  0
   20.9112   25.6150   29.3850 N   0  0  0  0  0  0  0  0  0  0  0  0
   20.6114   26.8352   28.9206 C   0  0  0  0  0  0  0  0  0  0  0  0
   20.4320   27.8664   29.7592 N   0  0  0  0  0  4  0  0  0  0  0  0
   20.4802   27.0566   27.6216 N   0  0  0  0  0  0  0  0  0  0  0  0
   17.0257   24.5364   29.2993 N   0  0  0  0  0  0  0  0  0  0  0  0
   15.5581   24.4815   29.3916 C   0  0  2  0  0  0  0  0  0  0  0  0
   15.0809   23.4620   28.3343 C   0  0  0  0  0  0  0  0  0  0  0  0
   15.4999   23.4985   27.1874 O   0  0  0  0  0  0  0  0  0  0  0  0
   14.9459   25.8671   29.1451 C   0  0  0  0  0  0  0  0  0  0  0  0
   13.6049   25.9739   28.4123 C   0  0  0  0  0  0  0  0  0  0  0  0
   12.3850   26.0220   29.3161 C   0  0  0  0  0  0  0  0  0  0  0  0
   12.1869   26.9267   30.1249 O   0  0  0  0  0  0  0  0  0  0  0  0
   11.5093   24.9824   29.2097 N   0  0  0  0  0  0  0  0  0  0  0  0
   14.1116   22.5973   28.7761 N   0  0  0  0  0  0  0  0  0  0  0  0
   13.3118   21.7446   27.8919 C   0  0  2  0  0  0  0  0  0  0  0  0
   12.5757   22.6834   26.8832 C   0  0  0  0  0  0  0  0  0  0  0  0
   11.7914   23.5562   27.2733 O   0  0  0  0  0  0  0  0  0  0  0  0
   12.2785   21.0188   28.7806 C   0  0  0  0  0  0  0  0  0  0  0  0
   12.7066   19.7115   29.4710 C   0  0  1  0  0  0  0  0  0  0  0  0
   13.5987   18.8521   28.5773 C   0  0  0  0  0  0  0  0  0  0  0  0
   13.4748   20.0503   30.7564 C   0  0  0  0  0  0  0  0  0  0  0  0
   12.6984   22.4456   25.5193 N   0  0  0  0  0  0  0  0  0  0  0  0
   12.5341   23.5674   24.5703 C   0  0  2  0  0  0  0  0  0  0  0  0
   11.1498   24.2618   24.4444 C   0  0  0  0  0  0  0  0  0  0  0  0
   10.5175   24.6426   25.4259 O   0  0  0  0  0  0  0  0  0  0  0  0
   12.9225   22.9864   23.1981 C   0  0  0  0  0  0  0  0  0  0  0  0
   13.3477   21.5489   23.4735 C   0  0  0  0  0  0  0  0  0  0  0  0
   13.6801   21.5451   24.9449 C   0  0  0  0  0  0  0  0  0  0  0  0
   10.6170   24.2838   23.1785 N   0  0  0  0  0  0  0  0  0  0  0  0
    9.1926   24.5247   22.9758 C   0  0  2  0  0  0  0  0  0  0  0  0
    8.3948   23.2276   22.7352 C   0  0  0  0  0  0  0  0  0  0  0  0
    7.3024   23.2386   22.1459 O   0  0  0  0  0  0  0  0  0  0  0  0
    9.0208   25.4441   21.7687 C   0  0  0  0  0  0  0  0  0  0  0  0
    9.0040   22.0374   23.0815 N   0  0  0  0  0  0  0  0  0  0  0  0
    8.3288   20.7521   22.8855 C   0  0  2  0  0  0  0  0  0  0  0  0
    9.0625   19.9095   21.8188 C   0  0  0  0  0  0  0  0  0  0  0  0
    8.8987   20.0663   20.6045 O   0  0  0  0  0  0  0  0  0  0  0  0
    6.8589   20.9806   22.4733 C   0  0  0  0  0  0  0  0  0  0  0  0
    6.5776   20.5698   21.1315 O   0  0  0  0  0  0  0  0  0  0  0  0
    9.9143   18.9499   22.3356 N   0  0  0  0  0  0  0  0  0  0  0  0
   10.8057   18.1386   21.5044 C   0  0  2  0  0  0  0  0  0  0  0  0
   11.5640   17.0080   22.2433 C   0  0  0  0  0  0  0  0  0  0  0  0
   12.3685   17.3114   23.1224 O   0  0  0  0  0  0  0  0  0  0  0  0
   11.7486   18.9387   20.5972 C   0  0  0  0  0  0  0  0  0  0  0  0
   12.6184   18.0638   19.7302 C   0  0  0  0  0  0  0  0  0  0  0  0
   12.2417   17.7507   18.4211 C   0  0  0  0  0  0  0  0  0  0  0  0
   13.8209   17.5443   20.2282 C   0  0  0  0  0  0  0  0  0  0  0  0
   13.0611   16.9671   17.6090 C   0  0  0  0  0  0  0  0  0  0  0  0
   14.6377   16.7491   19.4224 C   0  0  0  0  0  0  0  0  0  0  0  0
   14.2646   16.4765   18.1110 C   0  0  0  0  0  0  0  0  0  0  0  0
   11.1759   15.7212   21.9488 N   0  0  0  0  0  0  0  0  0  0  0  0
    9.7945   15.1993   22.1034 C   0  0  2  0  0  0  0  0  0  0  0  0
    9.4892   14.1821   20.9316 C   0  0  0  0  0  0  0  0  0  0  0  0
    8.6509   13.2866   20.9987 O   0  0  0  0  0  0  0  0  0  0  0  0
    8.7621   16.3550   22.1527 C   0  0  0  0  0  0  0  0  0  0  0  0
    7.3329   16.0027   22.4278 C   0  0  0  0  0  0  0  0  0  0  0  0
    6.8839   15.2084   23.4620 C   0  0  0  0  0  0  0  0  0  0  0  0
    6.1917   16.3546   21.6448 C   0  0  0  0  0  0  0  0  0  0  0  0
    5.5183   15.1293   23.3865 N   0  0  0  0  0  0  0  0  0  0  0  0
    5.0711   15.7988   22.2693 C   0  0  0  0  0  0  0  0  0  0  0  0
    5.9919   17.0872   20.4564 C   0  0  0  0  0  0  0  0  0  0  0  0
    3.7648   15.9589   21.7888 C   0  0  0  0  0  0  0  0  0  0  0  0
    4.6999   17.2455   19.9469 C   0  0  0  0  0  0  0  0  0  0  0  0
    3.6024   16.6808   20.6036 C   0  0  0  0  0  0  0  0  0  0  0  0
   10.2964   14.2973   19.8101 N   0  0  0  0  0  0  0  0  0  0  0  0
    9.7460   14.5205   18.4535 C   0  0  2  0  0  0  0  0  0  0  0  0
    8.9151   15.8361   18.1940 C   0  0  0  0  0  0  0  0  0  0  0  0
    9.2177   16.9556   18.6053 O   0  0  0  0  0  0  0  0  0  0  0  0
    8.9770   13.3053   17.8987 C   0  0  0  0  0  0  0  0  0  0  0  0
    7.4775   13.3525   18.1794 C   0  0  0  0  0  0  0  0  0  0  0  0
    6.7859   11.9823   18.2219 C   0  0  0  0  0  0  0  0  0  0  0  0
    5.6227   11.9696   17.7294 O   0  0  0  0  0  1  0  0  0  0  0  0
    7.4208   11.0341   18.7651 O   0  0  0  0  0  0  0  0  0  0  0  0
    7.7543   15.6106   17.4584 N   0  0  0  0  0  0  0  0  0  0  0  0
    6.4033   15.4554   18.0210 C   0  0  2  0  0  0  0  0  0  0  0  0
    5.8889   14.1110   17.4672 C   0  0  0  0  0  0  0  0  0  0  0  0
    5.5302   13.1803   18.1907 O   0  0  0  0  0  0  0  0  0  0  0  0
    5.4088   16.5140   17.5067 C   0  0  0  0  0  0  0  0  0  0  0  0
    5.2284   16.5186   16.0045 C   0  0  0  0  0  0  0  0  0  0  0  0
    4.6486   15.2297   15.4392 C   0  0  0  0  0  0  0  0  0  0  0  0
    3.8111   14.5904   16.1303 O   0  0  0  0  0  1  0  0  0  0  0  0
    5.0918   14.9177   14.2950 O   0  0  0  0  0  0  0  0  0  0  0  0
    5.7778   14.0807   16.0507 N   0  0  0  0  0  0  0  0  0  0  0  0
    5.7728   12.7355   15.4674 C   0  0  2  0  0  0  0  0  0  0  0  0
    4.8271   11.7589   16.1815 C   0  0  0  0  0  0  0  0  0  0  0  0
    4.0562   12.0955   17.0793 O   0  0  0  0  0  0  0  0  0  0  0  0
    7.2406   12.3508   15.3336 C   0  0  0  0  0  0  0  0  0  0  0  0
    7.9792   13.7007   15.2929 C   0  0  0  0  0  0  0  0  0  0  0  0
    6.8960   14.7669   15.4331 C   0  0  0  0  0  0  0  0  0  0  0  0
    4.8197   10.4725   15.7321 N   0  0  0  0  0  0  0  0  0  0  0  0
  1  2  2  0
  1  3  1  0
  1  4  1  0
  5  4  1  6
  5  6  1  0
  5  8  1  0
  6  7  2  0
  6 11  1  0
  8  9  1  1
  8 10  1  0
 11 12  1  0
 11 17  1  0
 12 13  1  1
 12 15  1  0
 13 14  2  0
 13 18  1  0
 15 16  1  0
 16 17  1  0
 18 19  1  0
 19 20  1  0
 19 22  1  6
 20 21  2  0
 20 26  1  0
 22 23  1  0
 23 24  1  0
 24 25  1  0
 26 27  1  0
 27 28  1  0
 27 30  1  1
 28 29  2  0
 28 37  1  0
 30 31  1  0
 31 32  1  0
 32 33  1  0
 33 34  1  0
 34 35  2  0
 34 36  1  0
 37 38  1  0
 38 39  1  0
 38 41  1  6
 39 40  2  0
 39 42  1  0
 42 43  1  0
 43 44  1  0
 43 46  1  6
 44 45  2  0
 44 53  1  0
 46 47  1  0
 47 48  1  0
 48 49  1  0
 49 50  1  0
 50 51  2  0
 50 52  1  0
 53 54  1  0
 54 55  1  0
 54 57  1  6
 55 56  2  0
 55 62  1  0
 57 58  1  0
 58 59  1  0
 59 60  2  0
 59 61  1  0
 62 63  1  0
 63 64  1  0
 63 66  1  1
 64 65  2  0
 64 70  1  0
 66 67  1  0
 67 68  1  6
 67 69  1  0
 70 71  1  0
 70 76  1  0
 71 72  1  6
 71 74  1  0
 72 73  2  0
 72 77  1  0
 74 75  1  0
 75 76  1  0
 77 78  1  0
 78 79  1  0
 78 81  1  6
 79 80  2  0
 79 82  1  0
 82 83  1  0
 83 84  1  0
 83 86  1  6
 84 85  2  0
 84 88  1  0
 86 87  1  0
 88 89  1  0
 89 90  1  0
 89 92  1  1
 90 91  2  0
 90 99  1  0
 92 93  1  0
 93 94  2  0
 93 95  1  0
 94 96  1  0
 95 97  2  0
 96 98  2  0
 97 98  1  0
 99100  1  0
100101  1  0
100103  1  6
101102  2  0
101113  1  0
103104  1  0
104105  2  0
104106  1  0
105107  1  0
106108  2  0
106109  1  0
107108  1  0
108110  1  0
109111  2  0
110112  2  0
111112  1  0
113114  1  0
114115  1  0
114117  1  1
115116  2  0
115122  1  0
117118  1  0
118119  1  0
119120  1  0
119121  2  0
122123  1  0
123124  1  0
123126  1  6
124125  2  0
124131  1  0
126127  1  0
127128  1  0
128129  1  0
128130  2  0
131132  1  0
131137  1  0
132133  1  1
132135  1  0
133134  2  0
133138  1  0
135136  1  0
136137  1  0
M  CHG  4  35   1  51   1 120  -1 129  -1
M  END
$$$$
