
     RDKit          3D

138143  0  0  0  0  0  0  0  0999 V2000
   32.2828   -5.8095   27.6534 C   0  0  0  0  0  0  0  0  0  0  0  0
   33.2946   -6.3695   27.2667 O   0  0  0  0  0  0  0  0  0  0  0  0
   32.0721   -5.4424   29.1018 C   0  0  0  0  0  0  0  0  0  0  0  0
   31.2065   -5.5127   26.8459 N   0  0  0  0  0  0  0  0  0  0  0  0
   31.1793   -5.8081   25.4170 C   0  0  2  0  0  0  0  0  0  0  0  0
   32.1351   -4.8107   24.7158 C   0  0  0  0  0  0  0  0  0  0  0  0
   32.0236   -3.5922   24.9090 O   0  0  0  0  0  0  0  0  0  0  0  0
   29.7952   -5.6841   24.7279 C   0  0  1  0  0  0  0  0  0  0  0  0
   29.8733   -5.0959   23.3206 C   0  0  0  0  0  0  0  0  0  0  0  0
   29.0038   -6.9966   24.7062 C   0  0  0  0  0  0  0  0  0  0  0  0
   33.0289   -5.3217   23.7970 N   0  0  0  0  0  0  0  0  0  0  0  0
   33.9491   -4.5580   22.9537 C   0  0  2  0  0  0  0  0  0  0  0  0
   33.1945   -3.9316   21.7494 C   0  0  0  0  0  0  0  0  0  0  0  0
   32.6113   -4.6136   20.9080 O   0  0  0  0  0  0  0  0  0  0  0  0
   34.9052   -5.6331   22.4432 C   0  0  0  0  0  0  0  0  0  0  0  0
   33.9816   -6.8344   22.2377 C   0  0  0  0  0  0  0  0  0  0  0  0
   32.9379   -6.6996   23.3452 C   0  0  0  0  0  0  0  0  0  0  0  0
   33.2746   -2.5515   21.6422 N   0  0  0  0  0  0  0  0  0  0  0  0
   32.2413   -1.8307   20.8781 C   0  0  2  0  0  0  0  0  0  0  0  0
   31.1091   -1.2903   21.7734 C   0  0  0  0  0  0  0  0  0  0  0  0
   30.6734   -1.9478   22.7101 O   0  0  0  0  0  0  0  0  0  0  0  0
   31.6409   -2.7392   19.7921 C   0  0  0  0  0  0  0  0  0  0  0  0
   32.6945   -3.1701   18.7707 C   0  0  0  0  0  0  0  0  0  0  0  0
   31.9589   -4.2619   17.5071 S   0  0  0  0  0  0  0  0  0  0  0  0
   32.9180   -5.7598   17.8123 C   0  0  0  0  0  0  0  0  0  0  0  0
   30.7102    0.0169   21.5205 N   0  0  0  0  0  0  0  0  0  0  0  0
   29.9709    0.7282   22.5735 C   0  0  2  0  0  0  0  0  0  0  0  0
   29.2411    1.9432   21.9794 C   0  0  0  0  0  0  0  0  0  0  0  0
   28.8284    2.8520   22.7055 O   0  0  0  0  0  0  0  0  0  0  0  0
   30.9366    1.2617   23.6398 C   0  0  0  0  0  0  0  0  0  0  0  0
   32.4004    1.3729   23.2114 C   0  0  0  0  0  0  0  0  0  0  0  0
   33.3224    0.4546   23.9956 C   0  0  0  0  0  0  0  0  0  0  0  0
   33.2984    0.7980   25.4294 N   0  0  0  0  0  0  0  0  0  0  0  0
   34.0937    1.7201   25.9862 C   0  0  0  0  0  0  0  0  0  0  0  0
   34.9605    2.4361   25.2675 N   0  0  0  0  0  4  0  0  0  0  0  0
   34.0309    1.9253   27.3180 N   0  0  0  0  0  0  0  0  0  0  0  0
   29.0048    1.8608   20.6238 N   0  0  0  0  0  0  0  0  0  0  0  0
   28.3223    2.9128   19.8822 C   0  0  2  0  0  0  0  0  0  0  0  0
   28.2562    4.1950   20.7487 C   0  0  0  0  0  0  0  0  0  0  0  0
   28.6727    4.1910   21.9137 O   0  0  0  0  0  0  0  0  0  0  0  0
   26.9980    2.4082   19.3423 C   0  0  0  0  0  0  0  0  0  0  0  0
   27.8335    5.3610   20.1422 N   0  0  0  0  0  0  0  0  0  0  0  0
   27.8921    6.6648   20.8079 C   0  0  2  0  0  0  0  0  0  0  0  0
   26.4633    7.2066   21.1190 C   0  0  0  0  0  0  0  0  0  0  0  0
   26.0652    8.2898   20.6849 O   0  0  0  0  0  0  0  0  0  0  0  0
   28.6290    7.7319   19.9708 C   0  0  0  0  0  0  0  0  0  0  0  0
   30.1631    7.7260   19.9712 C   0  0  0  0  0  0  0  0  0  0  0  0
   30.8028    6.3453   20.0991 C   0  0  0  0  0  0  0  0  0  0  0  0
   32.2611    6.3566   20.0533 N   0  0  0  0  0  0  0  0  0  0  0  0
   32.9974    7.2345   19.3595 C   0  0  0  0  0  0  0  0  0  0  0  0
   33.1398    8.4996   19.7815 N   0  0  0  0  0  4  0  0  0  0  0  0
   33.6020    6.8793   18.2360 N   0  0  0  0  0  0  0  0  0  0  0  0
   25.7117    6.4718   22.0144 N   0  0  0  0  0  0  0  0  0  0  0  0
   24.7104    5.5041   21.5386 C   0  0  2  0  0  0  0  0  0  0  0  0
   23.5665    5.4971   22.5761 C   0  0  0  0  0  0  0  0  0  0  0  0
   22.5692    4.8110   22.4120 O   0  0  0  0  0  0  0  0  0  0  0  0
   25.3322    4.1093   21.3859 C   0  0  0  0  0  0  0  0  0  0  0  0
   24.4370    2.9288   20.9966 C   0  0  0  0  0  0  0  0  0  0  0  0
   24.3920    1.7993   22.0113 C   0  0  0  0  0  0  0  0  0  0  0  0
   24.6121    0.6260   21.7167 O   0  0  0  0  0  0  0  0  0  0  0  0
   24.0646    2.1441   23.2892 N   0  0  0  0  0  0  0  0  0  0  0  0
   23.7404    6.3714   23.6191 N   0  0  0  0  0  0  0  0  0  0  0  0
   22.9289    7.5753   23.8209 C   0  0  2  0  0  0  0  0  0  0  0  0
   23.5016    8.3169   25.0709 C   0  0  0  0  0  0  0  0  0  0  0  0
   24.4046    9.1548   24.9627 O   0  0  0  0  0  0  0  0  0  0  0  0
   21.4870    7.1031   24.1080 C   0  0  0  0  0  0  0  0  0  0  0  0
   20.5323    6.9209   22.9145 C   0  0  1  0  0  0  0  0  0  0  0  0
   19.0892    7.2726   23.2708 C   0  0  0  0  0  0  0  0  0  0  0  0
   20.9909    7.8250   21.7615 C   0  0  0  0  0  0  0  0  0  0  0  0
   23.0858    7.9314   26.3399 N   0  0  0  0  0  0  0  0  0  0  0  0
   22.5886    8.9563   27.2823 C   0  0  2  0  0  0  0  0  0  0  0  0
   23.5635   10.0476   27.8047 C   0  0  0  0  0  0  0  0  0  0  0  0
   24.4077    9.8126   28.6650 O   0  0  0  0  0  0  0  0  0  0  0  0
   22.0470    8.1607   28.4844 C   0  0  0  0  0  0  0  0  0  0  0  0
   22.2256    6.6936   28.1117 C   0  0  0  0  0  0  0  0  0  0  0  0
   22.3439    6.7138   26.6079 C   0  0  0  0  0  0  0  0  0  0  0  0
   23.3174   11.3205   27.3509 N   0  0  0  0  0  0  0  0  0  0  0  0
   24.1492   12.4377   27.7843 C   0  0  2  0  0  0  0  0  0  0  0  0
   23.9778   12.7659   29.2808 C   0  0  0  0  0  0  0  0  0  0  0  0
   24.8951   13.2792   29.9411 O   0  0  0  0  0  0  0  0  0  0  0  0
   23.7791   13.6692   26.9606 C   0  0  0  0  0  0  0  0  0  0  0  0
   22.7211   12.5907   29.8264 N   0  0  0  0  0  0  0  0  0  0  0  0
   21.8896   11.4393   29.4673 C   0  0  2  0  0  0  0  0  0  0  0  0
   20.5644   11.9048   28.8244 C   0  0  0  0  0  0  0  0  0  0  0  0
   20.5098   12.7555   27.9305 O   0  0  0  0  0  0  0  0  0  0  0  0
   21.6081   10.5762   30.7157 C   0  0  0  0  0  0  0  0  0  0  0  0
   20.3266   10.8292   31.3006 O   0  0  0  0  0  0  0  0  0  0  0  0
   19.4343   11.2978   29.3421 N   0  0  0  0  0  0  0  0  0  0  0  0
   18.3806   10.7203   28.5055 C   0  0  2  0  0  0  0  0  0  0  0  0
   17.1569   10.1536   29.2677 C   0  0  0  0  0  0  0  0  0  0  0  0
   16.6854   10.8052   30.1978 O   0  0  0  0  0  0  0  0  0  0  0  0
   18.8717    9.7376   27.4352 C   0  0  0  0  0  0  0  0  0  0  0  0
   18.4681   10.1354   26.0378 C   0  0  0  0  0  0  0  0  0  0  0  0
   17.1895    9.8481   25.5515 C   0  0  0  0  0  0  0  0  0  0  0  0
   19.3752   10.7974   25.1995 C   0  0  0  0  0  0  0  0  0  0  0  0
   16.8060   10.2434   24.2702 C   0  0  0  0  0  0  0  0  0  0  0  0
   18.9991   11.1835   23.9117 C   0  0  0  0  0  0  0  0  0  0  0  0
   17.7117   10.9208   23.4567 C   0  0  0  0  0  0  0  0  0  0  0  0
   16.5962    9.0076   28.7525 N   0  0  0  0  0  0  0  0  0  0  0  0
   16.6685    7.6701   29.3931 C   0  0  2  0  0  0  0  0  0  0  0  0
   17.1707    7.8343   30.8836 C   0  0  0  0  0  0  0  0  0  0  0  0
   17.6667    8.8644   31.3331 O   0  0  0  0  0  0  0  0  0  0  0  0
   17.5714    6.7079   28.5788 C   0  0  0  0  0  0  0  0  0  0  0  0
   17.1844    6.4199   27.1612 C   0  0  0  0  0  0  0  0  0  0  0  0
   16.0220    5.7993   26.7539 C   0  0  0  0  0  0  0  0  0  0  0  0
   17.9625    6.6617   25.9885 C   0  0  0  0  0  0  0  0  0  0  0  0
   16.0258    5.7267   25.3858 N   0  0  0  0  0  0  0  0  0  0  0  0
   17.2125    6.2224   24.8934 C   0  0  0  0  0  0  0  0  0  0  0  0
   19.2397    7.2058   25.7405 C   0  0  0  0  0  0  0  0  0  0  0  0
   17.6554    6.3232   23.5681 C   0  0  0  0  0  0  0  0  0  0  0  0
   19.7117    7.3002   24.4281 C   0  0  0  0  0  0  0  0  0  0  0  0
   18.9295    6.8567   23.3575 C   0  0  0  0  0  0  0  0  0  0  0  0
   17.0991    6.6952   31.6709 N   0  0  0  0  0  0  0  0  0  0  0  0
   18.2494    6.2020   32.4627 C   0  0  2  0  0  0  0  0  0  0  0  0
   19.2654    7.2619   33.0398 C   0  0  0  0  0  0  0  0  0  0  0  0
   20.4594    7.3269   32.7500 O   0  0  0  0  0  0  0  0  0  0  0  0
   19.0260    5.0654   31.7693 C   0  0  0  0  0  0  0  0  0  0  0  0
   20.1950    4.5339   32.5941 C   0  0  0  0  0  0  0  0  0  0  0  0
   19.8041    3.5561   33.7115 C   0  0  0  0  0  0  0  0  0  0  0  0
   20.0761    3.9601   34.8771 O   0  0  0  0  0  1  0  0  0  0  0  0
   19.2936    2.4548   33.3596 O   0  0  0  0  0  0  0  0  0  0  0  0
   18.6822    8.1305   33.9591 N   0  0  0  0  0  0  0  0  0  0  0  0
   18.1050    7.7404   35.2554 C   0  0  2  0  0  0  0  0  0  0  0  0
   19.3168    7.4745   36.1716 C   0  0  0  0  0  0  0  0  0  0  0  0
   20.1778    6.6304   35.9174 O   0  0  0  0  0  0  0  0  0  0  0  0
   17.3378    6.4054   35.1986 C   0  0  0  0  0  0  0  0  0  0  0  0
   17.2834    5.6638   36.5163 C   0  0  0  0  0  0  0  0  0  0  0  0
   16.1336    4.6729   36.6305 C   0  0  0  0  0  0  0  0  0  0  0  0
   15.9263    4.1143   37.7408 O   0  0  0  0  0  1  0  0  0  0  0  0
   15.4872    4.4997   35.5557 O   0  0  0  0  0  0  0  0  0  0  0  0
   19.3981    8.3562   37.2832 N   0  0  0  0  0  0  0  0  0  0  0  0
   20.1221    7.8169   38.4386 C   0  0  2  0  0  0  0  0  0  0  0  0
   21.4609    7.1595   38.0734 C   0  0  0  0  0  0  0  0  0  0  0  0
   21.5691    6.2554   37.2460 O   0  0  0  0  0  0  0  0  0  0  0  0
   19.0970    6.9898   39.2039 C   0  0  0  0  0  0  0  0  0  0  0  0
   17.7425    7.5817   38.7746 C   0  0  0  0  0  0  0  0  0  0  0  0
   18.0744    8.6861   37.7747 C   0  0  0  0  0  0  0  0  0  0  0  0
   22.5767    7.6684   38.6673 N   0  0  0  0  0  0  0  0  0  0  0  0
  1  2  2  0
  1  3  1  0
  1  4  1  0
  5  4  1  1
  5  6  1  0
  5  8  1  0
  6  7  2  0
  6 11  1  0
  8  9  1  6
  8 10  1  0
 11 12  1  0
 11 17  1  0
 12 13  1  6
 12 15  1  0
 13 14  2  0
 13 18  1  0
 15 16  1  0
 16 17  1  0
 18 19  1  0
 19 20  1  0
 19 22  1  6
 20 21  2  0
 20 26  1  0
 22 23  1  0
 23 24  1  0
 24 25  1  0
 26 27  1  0
 27 28  1  0
 27 30  1  1
 28 29  2  0
 28 37  1  0
 30 31  1  0
 31 32  1  0
 32 33  1  0
 33 34  1  0
 34 35  2  0
 34 36  1  0
 37 38  1  0
 38 39  1  0
 38 41  1  1
 39 40  2  0
 39 42  1  0
 42 43  1  0
 43 44  1  0
 43 46  1  6
 44 45  2  0
 44 53  1  0
 46 47  1  0
 47 48  1  0
 48 49  1  0
 49 50  1  0
 50 51  2  0
 50 52  1  0
 53 54  1  0
 54 55  1  0
 54 57  1  1
 55 56  2  0
 55 62  1  0
 57 58  1  0
 58 59  1  0
 59 60  2  0
 59 61  1  0
 62 63  1  0
 63 64  1  0
 63 66  1  1
 64 65  2  0
 64 70  1  0
 66 67  1  0
 67 68  1  1
 67 69  1  0
 70 71  1  0
 70 76  1  0
 71 72  1  1
 71 74  1  0
 72 73  2  0
 72 77  1  0
 74 75  1  0
 75 76  1  0
 77 78  1  0
 78 79  1  0
 78 81  1  6
 79 80  2  0
 79 82  1  0
 82 83  1  0
 83 84  1  0
 83 86  1  1
 84 85  2  0
 84 88  1  0
 86 87  1  0
 88 89  1  0
 89 90  1  0
 89 92  1  1
 90 91  2  0
 90 99  1  0
 92 93  1  0
 93 94  2  0
 93 95  1  0
 94 96  1  0
 95 97  2  0
 96 98  2  0
 97 98  1  0
 99100  1  0
100101  1  0
100103  1  6
101102  2  0
101113  1  0
103104  1  0
104105  2  0
104106  1  0
105107  1  0
106108  2  0
106109  1  0
107108  1  0
108110  1  0
109111  2  0
110112  2  0
111112  1  0
113114  1  0
114115  1  0
114117  1  6
115116  2  0
115122  1  0
117118  1  0
118119  1  0
119120  1  0
119121  2  0
122123  1  0
123124  1  0
123126  1  6
124125  2  0
124131  1  0
126127  1  0
127128  1  0
128129  1  0
128130  2  0
131132  1  0
131137  1  0
132133  1  6
132135  1  0
133134  2  0
133138  1  0
135136  1  0
136137  1  0
M  CHG  4  35   1  51   1 120  -1 129  -1
M  END
$$$$
