
     RDKit          3D

138143  0  0  0  0  0  0  0  0999 V2000
   16.7763    5.0467   26.5715 C   0  0  0  0  0  0  0  0  0  0  0  0
   16.0898    4.0581   26.7678 O   0  0  0  0  0  0  0  0  0  0  0  0
   16.5854    5.9294   25.3627 C   0  0  0  0  0  0  0  0  0  0  0  0
   17.8284    5.4294   27.3746 N   0  0  0  0  0  0  0  0  0  0  0  0
   18.5698    6.6706   27.1758 C   0  0  2  0  0  0  0  0  0  0  0  0
   19.8642    6.5820   28.0223 C   0  0  0  0  0  0  0  0  0  0  0  0
   20.6622    7.5289   28.0508 O   0  0  0  0  0  0  0  0  0  0  0  0
   17.8337    7.9710   27.5915 C   0  0  1  0  0  0  0  0  0  0  0  0
   17.2219    7.8968   28.9889 C   0  0  0  0  0  0  0  0  0  0  0  0
   18.6979    9.2303   27.4619 C   0  0  0  0  0  0  0  0  0  0  0  0
   20.1392    5.3811   28.6443 N   0  0  0  0  0  0  0  0  0  0  0  0
   20.1176    5.1163   30.0832 C   0  0  2  0  0  0  0  0  0  0  0  0
   21.4024    5.6677   30.7597 C   0  0  0  0  0  0  0  0  0  0  0  0
   22.1644    6.4492   30.1924 O   0  0  0  0  0  0  0  0  0  0  0  0
   20.1338    3.5909   30.1427 C   0  0  0  0  0  0  0  0  0  0  0  0
   21.0550    3.2188   28.9803 C   0  0  0  0  0  0  0  0  0  0  0  0
   20.7870    4.2949   27.9294 C   0  0  0  0  0  0  0  0  0  0  0  0
   21.6756    5.1710   32.0251 N   0  0  0  0  0  0  0  0  0  0  0  0
   22.1443    6.0955   33.0722 C   0  0  2  0  0  0  0  0  0  0  0  0
   23.6813    6.1439   33.1776 C   0  0  0  0  0  0  0  0  0  0  0  0
   24.2347    6.6965   34.1199 O   0  0  0  0  0  0  0  0  0  0  0  0
   21.5532    5.7085   34.4383 C   0  0  0  0  0  0  0  0  0  0  0  0
   20.1173    6.2112   34.5948 C   0  0  0  0  0  0  0  0  0  0  0  0
   19.1763    5.1327   35.7266 S   0  0  0  0  0  0  0  0  0  0  0  0
   20.4085    3.8437   36.0037 C   0  0  0  0  0  0  0  0  0  0  0  0
   24.3763    5.4272   32.2105 N   0  0  0  0  0  0  0  0  0  0  0  0
   25.7984    5.1431   32.4522 C   0  0  2  0  0  0  0  0  0  0  0  0
   26.3593    4.2566   31.3291 C   0  0  0  0  0  0  0  0  0  0  0  0
   26.4256    3.0314   31.4621 O   0  0  0  0  0  0  0  0  0  0  0  0
   25.9750    4.3695   33.7654 C   0  0  0  0  0  0  0  0  0  0  0  0
   26.7043    3.0301   33.6521 C   0  0  0  0  0  0  0  0  0  0  0  0
   27.4079    2.6240   34.9359 C   0  0  0  0  0  0  0  0  0  0  0  0
   27.7290    3.8117   35.7487 N   0  0  0  0  0  0  0  0  0  0  0  0
   27.5743    3.8669   37.0775 C   0  0  0  0  0  0  0  0  0  0  0  0
   27.9370    2.8612   37.8760 N   0  0  0  0  0  4  0  0  0  0  0  0
   27.0211    4.9659   37.6304 N   0  0  0  0  0  0  0  0  0  0  0  0
   26.8642    4.9518   30.2511 N   0  0  0  0  0  0  0  0  0  0  0  0
   26.0115    5.6701   29.3132 C   0  0  2  0  0  0  0  0  0  0  0  0
   26.2463    7.1936   29.4652 C   0  0  0  0  0  0  0  0  0  0  0  0
   25.7301    7.8213   30.3981 O   0  0  0  0  0  0  0  0  0  0  0  0
   24.5736    5.2049   29.4398 C   0  0  0  0  0  0  0  0  0  0  0  0
   27.1407    7.7964   28.6034 N   0  0  0  0  0  0  0  0  0  0  0  0
   26.7495    8.8595   27.6743 C   0  0  2  0  0  0  0  0  0  0  0  0
   25.2013    9.0441   27.6442 C   0  0  0  0  0  0  0  0  0  0  0  0
   24.4286    8.0846   27.5971 O   0  0  0  0  0  0  0  0  0  0  0  0
   27.2209    8.5947   26.2287 C   0  0  0  0  0  0  0  0  0  0  0  0
   26.7984    9.5816   25.1327 C   0  0  0  0  0  0  0  0  0  0  0  0
   27.2274    9.1973   23.7184 C   0  0  0  0  0  0  0  0  0  0  0  0
   26.7289    7.8996   23.2754 N   0  0  0  0  0  0  0  0  0  0  0  0
   26.2865    7.6317   22.0398 C   0  0  0  0  0  0  0  0  0  0  0  0
   25.3006    6.7452   21.8382 N   0  0  0  0  0  4  0  0  0  0  0  0
   26.8125    8.2317   20.9827 N   0  0  0  0  0  0  0  0  0  0  0  0
   24.7417   10.3420   27.5405 N   0  0  0  0  0  0  0  0  0  0  0  0
   23.8187   10.8948   28.5444 C   0  0  2  0  0  0  0  0  0  0  0  0
   22.5074   11.2396   27.8050 C   0  0  0  0  0  0  0  0  0  0  0  0
   21.9041   12.2758   28.0388 O   0  0  0  0  0  0  0  0  0  0  0  0
   24.4236   12.1364   29.2136 C   0  0  0  0  0  0  0  0  0  0  0  0
   25.4755   12.9561   28.4595 C   0  0  0  0  0  0  0  0  0  0  0  0
   24.9370   14.1833   27.7445 C   0  0  0  0  0  0  0  0  0  0  0  0
   24.5328   15.1806   28.3393 O   0  0  0  0  0  0  0  0  0  0  0  0
   24.8954   14.1230   26.3830 N   0  0  0  0  0  0  0  0  0  0  0  0
   22.0617   10.2610   26.9529 N   0  0  0  0  0  0  0  0  0  0  0  0
   20.9206    9.3862   27.2377 C   0  0  2  0  0  0  0  0  0  0  0  0
   19.6286   10.2573   27.1252 C   0  0  0  0  0  0  0  0  0  0  0  0
   18.9316   10.5033   28.1165 O   0  0  0  0  0  0  0  0  0  0  0  0
   21.0889    8.8853   28.6886 C   0  0  0  0  0  0  0  0  0  0  0  0
   21.0785    7.3664   28.9373 C   0  0  1  0  0  0  0  0  0  0  0  0
   19.6741    6.8378   29.2225 C   0  0  0  0  0  0  0  0  0  0  0  0
   21.6336    6.6504   27.6978 C   0  0  0  0  0  0  0  0  0  0  0  0
   19.1799   10.6489   25.8694 N   0  0  0  0  0  0  0  0  0  0  0  0
   19.0251   12.0887   25.5713 C   0  0  2  0  0  0  0  0  0  0  0  0
   17.9576   12.9152   26.3405 C   0  0  0  0  0  0  0  0  0  0  0  0
   18.1434   13.3193   27.4852 O   0  0  0  0  0  0  0  0  0  0  0  0
   18.7079   12.1505   24.0657 C   0  0  0  0  0  0  0  0  0  0  0  0
   18.7601   10.7060   23.5820 C   0  0  0  0  0  0  0  0  0  0  0  0
   19.5796   10.0011   24.6342 C   0  0  0  0  0  0  0  0  0  0  0  0
   16.7414   13.0322   25.7127 N   0  0  0  0  0  0  0  0  0  0  0  0
   16.3041   14.3150   25.1730 C   0  0  2  0  0  0  0  0  0  0  0  0
   16.2141   15.4167   26.2477 C   0  0  0  0  0  0  0  0  0  0  0  0
   17.1597   15.6505   27.0170 O   0  0  0  0  0  0  0  0  0  0  0  0
   14.9294   14.1317   24.5339 C   0  0  0  0  0  0  0  0  0  0  0  0
   15.0926   16.2227   26.2341 N   0  0  0  0  0  0  0  0  0  0  0  0
   13.8400   15.7731   25.6217 C   0  0  2  0  0  0  0  0  0  0  0  0
   14.0413   14.4218   24.9009 C   0  0  0  0  0  0  0  0  0  0  0  0
   15.0972   13.7824   24.9477 O   0  0  0  0  0  0  0  0  0  0  0  0
   13.3188   16.8380   24.6332 C   0  0  0  0  0  0  0  0  0  0  0  0
   12.0810   17.4299   25.0407 O   0  0  0  0  0  0  0  0  0  0  0  0
   12.9412   13.9879   24.1833 N   0  0  0  0  0  0  0  0  0  0  0  0
   12.8653   14.0431   22.7221 C   0  0  2  0  0  0  0  0  0  0  0  0
   11.7840   13.1428   22.0742 C   0  0  0  0  0  0  0  0  0  0  0  0
   11.7704   11.9441   22.3478 O   0  0  0  0  0  0  0  0  0  0  0  0
   14.2108   13.9020   21.9997 C   0  0  0  0  0  0  0  0  0  0  0  0
   15.2326   14.9155   22.4498 C   0  0  0  0  0  0  0  0  0  0  0  0
   16.3349   14.5301   23.2180 C   0  0  0  0  0  0  0  0  0  0  0  0
   15.0888   16.2668   22.1075 C   0  0  0  0  0  0  0  0  0  0  0  0
   17.2962   15.4622   23.6078 C   0  0  0  0  0  0  0  0  0  0  0  0
   16.0423   17.2050   22.5068 C   0  0  0  0  0  0  0  0  0  0  0  0
   17.1510   16.7983   23.2408 C   0  0  0  0  0  0  0  0  0  0  0  0
   10.8202   13.7866   21.3328 N   0  0  0  0  0  0  0  0  0  0  0  0
   10.7894   15.2485   21.0747 C   0  0  2  0  0  0  0  0  0  0  0  0
   10.2023   15.9880   22.3433 C   0  0  0  0  0  0  0  0  0  0  0  0
   10.0378   15.4528   23.4368 O   0  0  0  0  0  0  0  0  0  0  0  0
    9.9849   15.5729   19.7896 C   0  0  0  0  0  0  0  0  0  0  0  0
   10.2654   14.7564   18.5660 C   0  0  0  0  0  0  0  0  0  0  0  0
    9.5967   14.8515   17.3635 C   0  0  0  0  0  0  0  0  0  0  0  0
   11.2107   13.6940   18.4360 C   0  0  0  0  0  0  0  0  0  0  0  0
   10.1468   13.9516   16.4892 N   0  0  0  0  0  0  0  0  0  0  0  0
   11.1177   13.2120   17.1269 C   0  0  0  0  0  0  0  0  0  0  0  0
   12.1388   13.0807   19.3028 C   0  0  0  0  0  0  0  0  0  0  0  0
   11.9182   12.1746   16.6310 C   0  0  0  0  0  0  0  0  0  0  0  0
   12.9361   12.0313   18.8368 C   0  0  0  0  0  0  0  0  0  0  0  0
   12.8197   11.5812   17.5183 C   0  0  0  0  0  0  0  0  0  0  0  0
    9.7891   17.2956   22.1391 N   0  0  0  0  0  0  0  0  0  0  0  0
    8.8258   17.6688   21.0780 C   0  0  2  0  0  0  0  0  0  0  0  0
    8.4635   19.1943   20.9039 C   0  0  0  0  0  0  0  0  0  0  0  0
    7.3420   19.6292   20.6448 O   0  0  0  0  0  0  0  0  0  0  0  0
    7.5329   16.8299   21.1039 C   0  0  0  0  0  0  0  0  0  0  0  0
    6.6549   17.1003   22.3226 C   0  0  0  0  0  0  0  0  0  0  0  0
    5.8693   18.4185   22.2719 C   0  0  0  0  0  0  0  0  0  0  0  0
    5.4506   18.8199   23.3941 O   0  0  0  0  0  1  0  0  0  0  0  0
    5.6935   18.9399   21.1341 O   0  0  0  0  0  0  0  0  0  0  0  0
    9.5648   20.0348   21.0453 N   0  0  0  0  0  0  0  0  0  0  0  0
   10.3595   20.2024   22.2726 C   0  0  2  0  0  0  0  0  0  0  0  0
   11.7016   19.5005   21.9817 C   0  0  0  0  0  0  0  0  0  0  0  0
   12.1664   18.6158   22.7026 O   0  0  0  0  0  0  0  0  0  0  0  0
    9.7656   19.4579   23.4838 C   0  0  0  0  0  0  0  0  0  0  0  0
    9.2099   20.3655   24.5593 C   0  0  0  0  0  0  0  0  0  0  0  0
    8.9093   21.7819   24.0899 C   0  0  0  0  0  0  0  0  0  0  0  0
    9.3507   22.1531   22.9696 O   0  0  0  0  0  1  0  0  0  0  0  0
    8.2296   22.4681   24.9086 O   0  0  0  0  0  0  0  0  0  0  0  0
   12.3033   19.9009   20.7580 N   0  0  0  0  0  0  0  0  0  0  0  0
   13.5850   20.5973   20.9070 C   0  0  2  0  0  0  0  0  0  0  0  0
   14.5549   19.9008   21.8724 C   0  0  0  0  0  0  0  0  0  0  0  0
   14.3160   19.7288   23.0670 O   0  0  0  0  0  0  0  0  0  0  0  0
   13.2221   22.0526   21.1737 C   0  0  0  0  0  0  0  0  0  0  0  0
   11.8092   22.2008   20.5810 C   0  0  0  0  0  0  0  0  0  0  0  0
   11.4430   20.8214   20.0400 C   0  0  0  0  0  0  0  0  0  0  0  0
   15.7038   19.4029   21.3350 N   0  0  0  0  0  0  0  0  0  0  0  0
  1  2  2  0
  1  3  1  0
  1  4  1  0
  5  4  1  1
  5  6  1  0
  5  8  1  0
  6  7  2  0
  6 11  1  0
  8  9  1  1
  8 10  1  0
 11 12  1  0
 11 17  1  0
 12 13  1  1
 12 15  1  0
 13 14  2  0
 13 18  1  0
 15 16  1  0
 16 17  1  0
 18 19  1  0
 19 20  1  0
 19 22  1  1
 20 21  2  0
 20 26  1  0
 22 23  1  0
 23 24  1  0
 24 25  1  0
 26 27  1  0
 27 28  1  0
 27 30  1  1
 28 29  2  0
 28 37  1  0
 30 31  1  0
 31 32  1  0
 32 33  1  0
 33 34  1  0
 34 35  2  0
 34 36  1  0
 37 38  1  0
 38 39  1  0
 38 41  1  1
 39 40  2  0
 39 42  1  0
 42 43  1  0
 43 44  1  0
 43 46  1  6
 44 45  2  0
 44 53  1  0
 46 47  1  0
 47 48  1  0
 48 49  1  0
 49 50  1  0
 50 51  2  0
 50 52  1  0
 53 54  1  0
 54 55  1  0
 54 57  1  6
 55 56  2  0
 55 62  1  0
 57 58  1  0
 58 59  1  0
 59 60  2  0
 59 61  1  0
 62 63  1  0
 63 64  1  0
 63 66  1  1
 64 65  2  0
 64 70  1  0
 66 67  1  0
 67 68  1  6
 67 69  1  0
 70 71  1  0
 70 76  1  0
 71 72  1  1
 71 74  1  0
 72 73  2  0
 72 77  1  0
 74 75  1  0
 75 76  1  0
 77 78  1  0
 78 79  1  0
 78 81  1  1
 79 80  2  0
 79 82  1  0
 82 83  1  0
 83 84  1  0
 83 86  1  6
 84 85  2  0
 84 88  1  0
 86 87  1  0
 88 89  1  0
 89 90  1  0
 89 92  1  6
 90 91  2  0
 90 99  1  0
 92 93  1  0
 93 94  2  0
 93 95  1  0
 94 96  1  0
 95 97  2  0
 96 98  2  0
 97 98  1  0
 99100  1  0
100101  1  0
100103  1  6
101102  2  0
101113  1  0
103104  1  0
104105  2  0
104106  1  0
105107  1  0
106108  2  0
106109  1  0
107108  1  0
108110  1  0
109111  2  0
110112  2  0
111112  1  0
113114  1  0
114115  1  0
114117  1  1
115116  2  0
115122  1  0
117118  1  0
118119  1  0
119120  1  0
119121  2  0
122123  1  0
123124  1  0
123126  1  1
124125  2  0
124131  1  0
126127  1  0
127128  1  0
128129  1  0
128130  2  0
131132  1  0
131137  1  0
132133  1  1
132135  1  0
133134  2  0
133138  1  0
135136  1  0
136137  1  0
M  CHG  4  35   1  51   1 120  -1 129  -1
M  END
$$$$
