
     RDKit          3D

138143  0  0  0  0  0  0  0  0999 V2000
   -2.0159   13.3944   26.4436 C   0  0  0  0  0  0  0  0  0  0  0  0
   -2.6722   13.2825   25.4219 O   0  0  0  0  0  0  0  0  0  0  0  0
   -2.3445   12.6216   27.6974 C   0  0  0  0  0  0  0  0  0  0  0  0
   -0.9622   14.2693   26.5939 N   0  0  0  0  0  0  0  0  0  0  0  0
   -0.7443   15.4106   25.7109 C   0  0  2  0  0  0  0  0  0  0  0  0
    0.7618   15.4402   25.3492 C   0  0  0  0  0  0  0  0  0  0  0  0
    1.6191   15.5463   26.2370 O   0  0  0  0  0  0  0  0  0  0  0  0
   -1.1056   16.7992   26.3000 C   0  0  1  0  0  0  0  0  0  0  0  0
   -0.5956   17.9639   25.4539 C   0  0  0  0  0  0  0  0  0  0  0  0
   -2.6018   16.9715   26.5848 C   0  0  0  0  0  0  0  0  0  0  0  0
    1.0967   15.4546   24.0105 N   0  0  0  0  0  0  0  0  0  0  0  0
    2.4452   15.3967   23.4456 C   0  0  2  0  0  0  0  0  0  0  0  0
    3.1417   16.7809   23.5511 C   0  0  0  0  0  0  0  0  0  0  0  0
    2.6372   17.8101   23.1048 O   0  0  0  0  0  0  0  0  0  0  0  0
    2.1789   15.0792   21.9763 C   0  0  0  0  0  0  0  0  0  0  0  0
    0.9089   15.8792   21.6843 C   0  0  0  0  0  0  0  0  0  0  0  0
    0.1287   15.8381   22.9972 C   0  0  0  0  0  0  0  0  0  0  0  0
    4.4048   16.7759   24.1232 N   0  0  0  0  0  0  0  0  0  0  0  0
    5.1382   18.0473   24.2525 C   0  0  2  0  0  0  0  0  0  0  0  0
    6.1091   18.2950   23.0814 C   0  0  0  0  0  0  0  0  0  0  0  0
    6.3550   17.4156   22.2654 O   0  0  0  0  0  0  0  0  0  0  0  0
    5.9187   18.0880   25.5772 C   0  0  0  0  0  0  0  0  0  0  0  0
    6.4771   19.4833   25.8605 C   0  0  0  0  0  0  0  0  0  0  0  0
    5.1240   20.6719   26.1536 S   0  0  0  0  0  0  0  0  0  0  0  0
    4.8000   21.1804   24.4528 C   0  0  0  0  0  0  0  0  0  0  0  0
    6.5813   19.5958   22.9525 N   0  0  0  0  0  0  0  0  0  0  0  0
    7.3147   19.9449   21.7271 C   0  0  2  0  0  0  0  0  0  0  0  0
    7.7987   21.4019   21.7967 C   0  0  0  0  0  0  0  0  0  0  0  0
    6.9991   22.3393   21.7248 O   0  0  0  0  0  0  0  0  0  0  0  0
    6.3964   19.8347   20.5029 C   0  0  0  0  0  0  0  0  0  0  0  0
    6.0222   21.1583   19.8345 C   0  0  0  0  0  0  0  0  0  0  0  0
    5.1529   20.9787   18.6015 C   0  0  0  0  0  0  0  0  0  0  0  0
    5.9699   20.5568   17.4487 N   0  0  0  0  0  0  0  0  0  0  0  0
    5.8907   21.1190   16.2361 C   0  0  0  0  0  0  0  0  0  0  0  0
    5.6439   22.4202   16.0726 N   0  0  0  0  0  4  0  0  0  0  0  0
    6.0500   20.3472   15.1414 N   0  0  0  0  0  0  0  0  0  0  0  0
    9.1690   21.5474   21.8312 N   0  0  0  0  0  0  0  0  0  0  0  0
    9.8492   22.3181   22.8637 C   0  0  2  0  0  0  0  0  0  0  0  0
    9.8927   23.8099   22.4493 C   0  0  0  0  0  0  0  0  0  0  0  0
    9.0824   24.2608   21.6303 O   0  0  0  0  0  0  0  0  0  0  0  0
   11.1845   21.6855   23.2053 C   0  0  0  0  0  0  0  0  0  0  0  0
   10.7793   24.6362   23.1104 N   0  0  0  0  0  0  0  0  0  0  0  0
   10.9058   26.0641   22.8073 C   0  0  2  0  0  0  0  0  0  0  0  0
   12.2083   26.3589   22.0019 C   0  0  0  0  0  0  0  0  0  0  0  0
   13.2583   26.6930   22.5549 O   0  0  0  0  0  0  0  0  0  0  0  0
   10.9253   26.9456   24.0741 C   0  0  0  0  0  0  0  0  0  0  0  0
   10.5079   28.4162   23.9444 C   0  0  0  0  0  0  0  0  0  0  0  0
   10.0038   28.8240   22.5617 C   0  0  0  0  0  0  0  0  0  0  0  0
    8.6779   29.4328   22.5656 N   0  0  0  0  0  0  0  0  0  0  0  0
    8.1884   30.2049   21.5866 C   0  0  0  0  0  0  0  0  0  0  0  0
    7.9700   29.7069   20.3605 N   0  0  0  0  0  4  0  0  0  0  0  0
    7.9099   31.4819   21.8005 N   0  0  0  0  0  0  0  0  0  0  0  0
   12.0912   26.3540   20.6261 N   0  0  0  0  0  0  0  0  0  0  0  0
   13.0781   25.6517   19.7904 C   0  0  2  0  0  0  0  0  0  0  0  0
   12.5279   25.6579   18.3474 C   0  0  0  0  0  0  0  0  0  0  0  0
   12.2542   24.6161   17.7712 O   0  0  0  0  0  0  0  0  0  0  0  0
   13.2975   24.2194   20.2964 C   0  0  0  0  0  0  0  0  0  0  0  0
   13.7310   23.1336   19.3066 C   0  0  0  0  0  0  0  0  0  0  0  0
   15.0406   22.4438   19.6481 C   0  0  0  0  0  0  0  0  0  0  0  0
   15.5836   21.6318   18.9014 O   0  0  0  0  0  0  0  0  0  0  0  0
   15.5905   22.7500   20.8576 N   0  0  0  0  0  0  0  0  0  0  0  0
   12.4608   26.9010   17.7706 N   0  0  0  0  0  0  0  0  0  0  0  0
   11.7827   27.1777   16.5008 C   0  0  2  0  0  0  0  0  0  0  0  0
   12.1691   26.0338   15.5095 C   0  0  0  0  0  0  0  0  0  0  0  0
   13.3344   25.8847   15.1237 O   0  0  0  0  0  0  0  0  0  0  0  0
   12.3299   28.5256   15.9830 C   0  0  0  0  0  0  0  0  0  0  0  0
   11.3369   29.5162   15.3493 C   0  0  1  0  0  0  0  0  0  0  0  0
   10.0616   28.8269   14.8681 C   0  0  0  0  0  0  0  0  0  0  0  0
   10.9602   30.5831   16.3871 C   0  0  0  0  0  0  0  0  0  0  0  0
   11.1654   25.2553   14.9452 N   0  0  0  0  0  0  0  0  0  0  0  0
   11.5159   24.2599   13.9097 C   0  0  2  0  0  0  0  0  0  0  0  0
   12.0700   24.7466   12.5420 C   0  0  0  0  0  0  0  0  0  0  0  0
   12.1194   25.9365   12.2426 O   0  0  0  0  0  0  0  0  0  0  0  0
   10.2177   23.4689   13.6640 C   0  0  0  0  0  0  0  0  0  0  0  0
    9.2018   24.0453   14.6432 C   0  0  0  0  0  0  0  0  0  0  0  0
   10.0516   24.7095   15.6978 C   0  0  0  0  0  0  0  0  0  0  0  0
   12.3577   23.7531   11.6381 N   0  0  0  0  0  0  0  0  0  0  0  0
   12.9232   24.0768   10.3331 C   0  0  2  0  0  0  0  0  0  0  0  0
   11.9111   24.7665    9.3968 C   0  0  0  0  0  0  0  0  0  0  0  0
   11.0756   24.1135    8.7518 O   0  0  0  0  0  0  0  0  0  0  0  0
   13.4057   22.7850    9.6769 C   0  0  0  0  0  0  0  0  0  0  0  0
   11.8815   26.1474    9.4053 N   0  0  0  0  0  0  0  0  0  0  0  0
   11.7106   26.9122    8.1675 C   0  0  2  0  0  0  0  0  0  0  0  0
   12.6497   26.3775    7.0638 C   0  0  0  0  0  0  0  0  0  0  0  0
   13.5143   25.5197    7.2700 O   0  0  0  0  0  0  0  0  0  0  0  0
   11.9815   28.4098    8.4258 C   0  0  0  0  0  0  0  0  0  0  0  0
   13.3276   28.7992    8.1343 O   0  0  0  0  0  0  0  0  0  0  0  0
   12.4524   26.9492    5.8197 N   0  0  0  0  0  0  0  0  0  0  0  0
   11.1771   26.8879    5.1031 C   0  0  2  0  0  0  0  0  0  0  0  0
   10.9198   28.0367    4.0963 C   0  0  0  0  0  0  0  0  0  0  0  0
   10.2442   28.9989    4.4564 O   0  0  0  0  0  0  0  0  0  0  0  0
    9.9497   26.6411    5.9891 C   0  0  0  0  0  0  0  0  0  0  0  0
    8.7403   26.1878    5.2108 C   0  0  0  0  0  0  0  0  0  0  0  0
    7.8077   27.1124    4.7321 C   0  0  0  0  0  0  0  0  0  0  0  0
    8.5293   24.8255    4.9592 C   0  0  0  0  0  0  0  0  0  0  0  0
    6.7058   26.6958    3.9857 C   0  0  0  0  0  0  0  0  0  0  0  0
    7.4205   24.4035    4.2233 C   0  0  0  0  0  0  0  0  0  0  0  0
    6.5215   25.3398    3.7246 C   0  0  0  0  0  0  0  0  0  0  0  0
   11.5898   27.9566    2.8972 N   0  0  0  0  0  0  0  0  0  0  0  0
   12.3895   29.0565    2.3012 C   0  0  2  0  0  0  0  0  0  0  0  0
   12.9889   29.9500    3.4602 C   0  0  0  0  0  0  0  0  0  0  0  0
   13.0756   29.5903    4.6316 O   0  0  0  0  0  0  0  0  0  0  0  0
   11.5411   29.8891    1.3057 C   0  0  0  0  0  0  0  0  0  0  0  0
   11.4137   29.3813   -0.0972 C   0  0  0  0  0  0  0  0  0  0  0  0
   10.3407   28.6792   -0.6052 C   0  0  0  0  0  0  0  0  0  0  0  0
   12.3906   29.4614   -1.1357 C   0  0  0  0  0  0  0  0  0  0  0  0
   10.5898   28.4009   -1.9234 N   0  0  0  0  0  0  0  0  0  0  0  0
   11.8475   28.8442   -2.2665 C   0  0  0  0  0  0  0  0  0  0  0  0
   13.6939   29.9915   -1.2325 C   0  0  0  0  0  0  0  0  0  0  0  0
   12.5216   28.7540   -3.4914 C   0  0  0  0  0  0  0  0  0  0  0  0
   14.3942   29.8976   -2.4387 C   0  0  0  0  0  0  0  0  0  0  0  0
   13.8150   29.2793   -3.5508 C   0  0  0  0  0  0  0  0  0  0  0  0
   13.3524   31.2384    3.0990 N   0  0  0  0  0  0  0  0  0  0  0  0
   14.7544   31.6176    2.8094 C   0  0  2  0  0  0  0  0  0  0  0  0
   15.5127   30.8456    1.6615 C   0  0  0  0  0  0  0  0  0  0  0  0
   15.9626   29.7043    1.7552 O   0  0  0  0  0  0  0  0  0  0  0  0
   15.6434   31.6776    4.0671 C   0  0  0  0  0  0  0  0  0  0  0  0
   15.7139   33.0653    4.6985 C   0  0  0  0  0  0  0  0  0  0  0  0
   14.4559   33.9248    4.5088 C   0  0  0  0  0  0  0  0  0  0  0  0
   13.6612   33.4986    3.6242 O   0  0  0  0  0  1  0  0  0  0  0  0
   14.3603   34.9684    5.2153 O   0  0  0  0  0  0  0  0  0  0  0  0
   15.6600   31.6025    0.5018 N   0  0  0  0  0  0  0  0  0  0  0  0
   16.2413   31.1235   -0.7626 C   0  0  2  0  0  0  0  0  0  0  0  0
   15.9942   32.2605   -1.7750 C   0  0  0  0  0  0  0  0  0  0  0  0
   14.8803   32.5210   -2.2329 O   0  0  0  0  0  0  0  0  0  0  0  0
   15.5068   29.8984   -1.3400 C   0  0  0  0  0  0  0  0  0  0  0  0
   16.1501   29.3159   -2.5795 C   0  0  0  0  0  0  0  0  0  0  0  0
   15.7426   27.8808   -2.8813 C   0  0  0  0  0  0  0  0  0  0  0  0
   14.5152   27.5998   -2.9323 O   0  0  0  0  0  1  0  0  0  0  0  0
   16.7153   27.0874   -3.0467 O   0  0  0  0  0  0  0  0  0  0  0  0
   17.1506   33.0373   -2.0564 N   0  0  0  0  0  0  0  0  0  0  0  0
   17.0049   33.9623   -3.1847 C   0  0  2  0  0  0  0  0  0  0  0  0
   15.7063   34.7808   -3.1454 C   0  0  0  0  0  0  0  0  0  0  0  0
   15.5518   35.7741   -2.4360 O   0  0  0  0  0  0  0  0  0  0  0  0
   17.2954   33.1292   -4.4265 C   0  0  0  0  0  0  0  0  0  0  0  0
   18.1508   31.9617   -3.9023 C   0  0  0  0  0  0  0  0  0  0  0  0
   18.2722   32.1837   -2.3971 C   0  0  0  0  0  0  0  0  0  0  0  0
   14.7143   34.3992   -3.9981 N   0  0  0  0  0  0  0  0  0  0  0  0
  1  2  2  0
  1  3  1  0
  1  4  1  0
  5  4  1  1
  5  6  1  0
  5  8  1  0
  6  7  2  0
  6 11  1  0
  8  9  1  6
  8 10  1  0
 11 12  1  0
 11 17  1  0
 12 13  1  6
 12 15  1  0
 13 14  2  0
 13 18  1  0
 15 16  1  0
 16 17  1  0
 18 19  1  0
 19 20  1  0
 19 22  1  1
 20 21  2  0
 20 26  1  0
 22 23  1  0
 23 24  1  0
 24 25  1  0
 26 27  1  0
 27 28  1  0
 27 30  1  6
 28 29  2  0
 28 37  1  0
 30 31  1  0
 31 32  1  0
 32 33  1  0
 33 34  1  0
 34 35  2  0
 34 36  1  0
 37 38  1  0
 38 39  1  0
 38 41  1  6
 39 40  2  0
 39 42  1  0
 42 43  1  0
 43 44  1  0
 43 46  1  1
 44 45  2  0
 44 53  1  0
 46 47  1  0
 47 48  1  0
 48 49  1  0
 49 50  1  0
 50 51  2  0
 50 52  1  0
 53 54  1  0
 54 55  1  0
 54 57  1  1
 55 56  2  0
 55 62  1  0
 57 58  1  0
 58 59  1  0
 59 60  2  0
 59 61  1  0
 62 63  1  0
 63 64  1  0
 63 66  1  6
 64 65  2  0
 64 70  1  0
 66 67  1  0
 67 68  1  1
 67 69  1  0
 70 71  1  0
 70 76  1  0
 71 72  1  6
 71 74  1  0
 72 73  2  0
 72 77  1  0
 74 75  1  0
 75 76  1  0
 77 78  1  0
 78 79  1  0
 78 81  1  6
 79 80  2  0
 79 82  1  0
 82 83  1  0
 83 84  1  0
 83 86  1  1
 84 85  2  0
 84 88  1  0
 86 87  1  0
 88 89  1  0
 89 90  1  0
 89 92  1  1
 90 91  2  0
 90 99  1  0
 92 93  1  0
 93 94  2  0
 93 95  1  0
 94 96  1  0
 95 97  2  0
 96 98  2  0
 97 98  1  0
 99100  1  0
100101  1  0
100103  1  6
101102  2  0
101113  1  0
103104  1  0
104105  2  0
104106  1  0
105107  1  0
106108  2  0
106109  1  0
107108  1  0
108110  1  0
109111  2  0
110112  2  0
111112  1  0
113114  1  0
114115  1  0
114117  1  1
115116  2  0
115122  1  0
117118  1  0
118119  1  0
119120  1  0
119121  2  0
122123  1  0
123124  1  0
123126  1  6
124125  2  0
124131  1  0
126127  1  0
127128  1  0
128129  1  0
128130  2  0
131132  1  0
131137  1  0
132133  1  6
132135  1  0
133134  2  0
133138  1  0
135136  1  0
136137  1  0
M  CHG  4  35   1  51   1 120  -1 129  -1
M  END
$$$$
