
     RDKit          3D

138143  0  0  0  0  0  0  0  0999 V2000
   26.0130    9.5095   39.1330 C   0  0  0  0  0  0  0  0  0  0  0  0
   25.0837    9.3393   39.9039 O   0  0  0  0  0  0  0  0  0  0  0  0
   27.3970    9.8731   39.6118 C   0  0  0  0  0  0  0  0  0  0  0  0
   25.8987    9.4585   37.7608 N   0  0  0  0  0  0  0  0  0  0  0  0
   27.0345    9.6333   36.8614 C   0  0  2  0  0  0  0  0  0  0  0  0
   26.8540   10.9924   36.1401 C   0  0  0  0  0  0  0  0  0  0  0  0
   25.7288   11.3721   35.7879 O   0  0  0  0  0  0  0  0  0  0  0  0
   27.2024    8.5476   35.7664 C   0  0  1  0  0  0  0  0  0  0  0  0
   27.7826    9.0915   34.4625 C   0  0  0  0  0  0  0  0  0  0  0  0
   28.0071    7.3292   36.2325 C   0  0  0  0  0  0  0  0  0  0  0  0
   27.9941   11.6983   35.8139 N   0  0  0  0  0  0  0  0  0  0  0  0
   28.1117   13.1491   35.6645 C   0  0  2  0  0  0  0  0  0  0  0  0
   27.5355   13.6061   34.2964 C   0  0  0  0  0  0  0  0  0  0  0  0
   27.9639   14.5895   33.6944 O   0  0  0  0  0  0  0  0  0  0  0  0
   29.6231   13.3643   35.6700 C   0  0  0  0  0  0  0  0  0  0  0  0
   30.1391   12.1450   34.9050 C   0  0  0  0  0  0  0  0  0  0  0  0
   29.1666   11.0276   35.2790 C   0  0  0  0  0  0  0  0  0  0  0  0
   26.4576   12.8731   33.8235 N   0  0  0  0  0  0  0  0  0  0  0  0
   25.8388   13.2543   32.5418 C   0  0  2  0  0  0  0  0  0  0  0  0
   24.6172   12.3830   32.1895 C   0  0  0  0  0  0  0  0  0  0  0  0
   24.7517   11.2898   31.6543 O   0  0  0  0  0  0  0  0  0  0  0  0
   26.8668   13.1733   31.4007 C   0  0  0  0  0  0  0  0  0  0  0  0
   26.8766   11.7907   30.7469 C   0  0  0  0  0  0  0  0  0  0  0  0
   26.9912   10.4803   32.0115 S   0  0  0  0  0  0  0  0  0  0  0  0
   27.9653   11.3512   33.2562 C   0  0  0  0  0  0  0  0  0  0  0  0
   23.3869   12.8636   32.6226 N   0  0  0  0  0  0  0  0  0  0  0  0
   22.2765   11.9075   32.7420 C   0  0  2  0  0  0  0  0  0  0  0  0
   21.0383   12.4394   32.0032 C   0  0  0  0  0  0  0  0  0  0  0  0
   20.4072   13.4065   32.4388 O   0  0  0  0  0  0  0  0  0  0  0  0
   21.8791   11.7284   34.2131 C   0  0  0  0  0  0  0  0  0  0  0  0
   21.2844   10.3674   34.5774 C   0  0  0  0  0  0  0  0  0  0  0  0
   21.0261    9.4864   33.3670 C   0  0  0  0  0  0  0  0  0  0  0  0
   20.3877    8.2210   33.7740 N   0  0  0  0  0  0  0  0  0  0  0  0
   19.9601    7.2925   32.9092 C   0  0  0  0  0  0  0  0  0  0  0  0
   19.0399    7.5589   31.9803 N   0  0  0  0  0  4  0  0  0  0  0  0
   20.4616    6.0426   32.9847 N   0  0  0  0  0  0  0  0  0  0  0  0
   20.6561   11.6863   30.9138 N   0  0  0  0  0  0  0  0  0  0  0  0
   20.8791   12.1235   29.5420 C   0  0  2  0  0  0  0  0  0  0  0  0
   21.1069   10.8872   28.6371 C   0  0  0  0  0  0  0  0  0  0  0  0
   21.3872   11.0249   27.4399 O   0  0  0  0  0  0  0  0  0  0  0  0
   21.9575   13.1887   29.4931 C   0  0  0  0  0  0  0  0  0  0  0  0
   21.1065    9.6428   29.2350 N   0  0  0  0  0  0  0  0  0  0  0  0
   21.3166    8.4036   28.4820 C   0  0  2  0  0  0  0  0  0  0  0  0
   20.7318    8.5109   27.0403 C   0  0  0  0  0  0  0  0  0  0  0  0
   19.5191    8.5808   26.8294 O   0  0  0  0  0  0  0  0  0  0  0  0
   20.6752    7.1746   29.1606 C   0  0  0  0  0  0  0  0  0  0  0  0
   21.2308    5.7847   28.8245 C   0  0  0  0  0  0  0  0  0  0  0  0
   20.1834    4.7555   28.4054 C   0  0  0  0  0  0  0  0  0  0  0  0
   19.3029    4.3258   29.4865 N   0  0  0  0  0  0  0  0  0  0  0  0
   18.3100    5.0622   30.0023 C   0  0  0  0  0  0  0  0  0  0  0  0
   18.2088    6.3711   29.7275 N   0  0  0  0  0  4  0  0  0  0  0  0
   17.4030    4.5198   30.8005 N   0  0  0  0  0  0  0  0  0  0  0  0
   21.6354    8.3916   26.0031 N   0  0  0  0  0  0  0  0  0  0  0  0
   21.7605    7.1295   25.2568 C   0  0  2  0  0  0  0  0  0  0  0  0
   21.4335    7.4476   23.7814 C   0  0  0  0  0  0  0  0  0  0  0  0
   21.8738    6.7583   22.8741 O   0  0  0  0  0  0  0  0  0  0  0  0
   20.8076    6.0674   25.8218 C   0  0  0  0  0  0  0  0  0  0  0  0
   20.1296    5.0835   24.8632 C   0  0  0  0  0  0  0  0  0  0  0  0
   18.8504    5.5942   24.2229 C   0  0  0  0  0  0  0  0  0  0  0  0
   18.2145    6.5482   24.6670 O   0  0  0  0  0  0  0  0  0  0  0  0
   18.4108    4.9191   23.1228 N   0  0  0  0  0  0  0  0  0  0  0  0
   20.6958    8.5896   23.5967 N   0  0  0  0  0  0  0  0  0  0  0  0
   19.9249    8.8779   22.3838 C   0  0  2  0  0  0  0  0  0  0  0  0
   18.5155    9.3764   22.8373 C   0  0  0  0  0  0  0  0  0  0  0  0
   17.9353    8.8691   23.8043 O   0  0  0  0  0  0  0  0  0  0  0  0
   19.7858    7.5475   21.6123 C   0  0  0  0  0  0  0  0  0  0  0  0
   20.0801    7.5510   20.1015 C   0  0  1  0  0  0  0  0  0  0  0  0
   19.2908    6.4758   19.3572 C   0  0  0  0  0  0  0  0  0  0  0  0
   19.7128    8.9241   19.5212 C   0  0  0  0  0  0  0  0  0  0  0  0
   17.8426   10.3118   22.0600 N   0  0  0  0  0  0  0  0  0  0  0  0
   16.7061   11.0561   22.6434 C   0  0  2  0  0  0  0  0  0  0  0  0
   15.4168   10.2867   23.0436 C   0  0  0  0  0  0  0  0  0  0  0  0
   15.4150    9.0758   23.2484 O   0  0  0  0  0  0  0  0  0  0  0  0
   16.3417   12.1159   21.5872 C   0  0  0  0  0  0  0  0  0  0  0  0
   17.3590   11.9360   20.4665 C   0  0  0  0  0  0  0  0  0  0  0  0
   18.5020   11.2073   21.1283 C   0  0  0  0  0  0  0  0  0  0  0  0
   14.2579   11.0230   23.0049 N   0  0  0  0  0  0  0  0  0  0  0  0
   13.0898   10.5326   22.2817 C   0  0  2  0  0  0  0  0  0  0  0  0
   12.2027   11.6696   21.7368 C   0  0  0  0  0  0  0  0  0  0  0  0
   11.5171   12.3759   22.4930 O   0  0  0  0  0  0  0  0  0  0  0  0
   12.2604    9.6654   23.2264 C   0  0  0  0  0  0  0  0  0  0  0  0
   12.3024   11.9588   20.3899 N   0  0  0  0  0  0  0  0  0  0  0  0
   12.5673   10.9083   19.4038 C   0  0  2  0  0  0  0  0  0  0  0  0
   12.7333   11.5158   17.9933 C   0  0  0  0  0  0  0  0  0  0  0  0
   12.6315   10.8525   16.9562 O   0  0  0  0  0  0  0  0  0  0  0  0
   11.4245    9.8707   19.4118 C   0  0  0  0  0  0  0  0  0  0  0  0
   10.1254   10.4596   19.2939 O   0  0  0  0  0  0  0  0  0  0  0  0
   13.0196   12.8691   17.9844 N   0  0  0  0  0  0  0  0  0  0  0  0
   12.0367   13.8936   17.6265 C   0  0  2  0  0  0  0  0  0  0  0  0
   12.5887   15.3356   17.5029 C   0  0  0  0  0  0  0  0  0  0  0  0
   11.8502   16.2165   17.0662 O   0  0  0  0  0  0  0  0  0  0  0  0
   10.7431   13.8630   18.4498 C   0  0  0  0  0  0  0  0  0  0  0  0
    9.6358   14.6865   17.8418 C   0  0  0  0  0  0  0  0  0  0  0  0
    9.9099   15.6445   16.8616 C   0  0  0  0  0  0  0  0  0  0  0  0
    8.3093   14.5067   18.2564 C   0  0  0  0  0  0  0  0  0  0  0  0
    8.8822   16.3842   16.2771 C   0  0  0  0  0  0  0  0  0  0  0  0
    7.2793   15.2542   17.6827 C   0  0  0  0  0  0  0  0  0  0  0  0
    7.5657   16.1781   16.6838 C   0  0  0  0  0  0  0  0  0  0  0  0
   13.8426   15.5543   18.0254 N   0  0  0  0  0  0  0  0  0  0  0  0
   14.1189   16.3260   19.2635 C   0  0  2  0  0  0  0  0  0  0  0  0
   14.0839   15.3468   20.5048 C   0  0  0  0  0  0  0  0  0  0  0  0
   14.1962   15.7117   21.6724 O   0  0  0  0  0  0  0  0  0  0  0  0
   13.1217   17.5024   19.4237 C   0  0  0  0  0  0  0  0  0  0  0  0
   13.3431   18.4554   20.5574 C   0  0  0  0  0  0  0  0  0  0  0  0
   12.3583   19.1415   21.2368 C   0  0  0  0  0  0  0  0  0  0  0  0
   14.5961   18.8832   21.0924 C   0  0  0  0  0  0  0  0  0  0  0  0
   12.9522   19.9026   22.2089 N   0  0  0  0  0  0  0  0  0  0  0  0
   14.3216   19.7843   22.1256 C   0  0  0  0  0  0  0  0  0  0  0  0
   15.9470   18.6027   20.8002 C   0  0  0  0  0  0  0  0  0  0  0  0
   15.3183   20.3953   22.8977 C   0  0  0  0  0  0  0  0  0  0  0  0
   16.9601   19.2140   21.5444 C   0  0  0  0  0  0  0  0  0  0  0  0
   16.6464   20.1046   22.5754 C   0  0  0  0  0  0  0  0  0  0  0  0
   13.9990   13.9962   20.2027 N   0  0  0  0  0  0  0  0  0  0  0  0
   13.1606   13.0578   20.9836 C   0  0  2  0  0  0  0  0  0  0  0  0
   13.1674   13.1848   22.5560 C   0  0  0  0  0  0  0  0  0  0  0  0
   13.5829   12.3256   23.3325 O   0  0  0  0  0  0  0  0  0  0  0  0
   13.3596   11.5827   20.5830 C   0  0  0  0  0  0  0  0  0  0  0  0
   12.5345   10.6074   21.4182 C   0  0  0  0  0  0  0  0  0  0  0  0
   12.9650    9.1379   21.3060 C   0  0  0  0  0  0  0  0  0  0  0  0
   14.1604    8.9714   20.9329 O   0  0  0  0  0  1  0  0  0  0  0  0
   12.0901    8.2613   21.5579 O   0  0  0  0  0  0  0  0  0  0  0  0
   12.6177   14.3820   23.0077 N   0  0  0  0  0  0  0  0  0  0  0  0
   11.1859   14.6302   23.2405 C   0  0  2  0  0  0  0  0  0  0  0  0
   10.5008   14.3280   21.8923 C   0  0  0  0  0  0  0  0  0  0  0  0
   11.1275   14.0495   20.8686 O   0  0  0  0  0  0  0  0  0  0  0  0
   10.8686   16.1089   23.5352 C   0  0  0  0  0  0  0  0  0  0  0  0
   10.1617   16.3418   24.8525 C   0  0  0  0  0  0  0  0  0  0  0  0
    9.5044   17.7090   24.9776 C   0  0  0  0  0  0  0  0  0  0  0  0
    9.4458   18.2488   26.1147 O   0  0  0  0  0  1  0  0  0  0  0  0
    9.0603   18.1747   23.8872 O   0  0  0  0  0  0  0  0  0  0  0  0
    9.0815   14.3071   21.9636 N   0  0  0  0  0  0  0  0  0  0  0  0
    8.4678   13.0420   21.5479 C   0  0  2  0  0  0  0  0  0  0  0  0
    9.1348   11.8033   22.1635 C   0  0  0  0  0  0  0  0  0  0  0  0
    9.3987   11.6996   23.3606 O   0  0  0  0  0  0  0  0  0  0  0  0
    8.3635   13.1263   20.0305 C   0  0  0  0  0  0  0  0  0  0  0  0
    8.3727   14.6375   19.7380 C   0  0  0  0  0  0  0  0  0  0  0  0
    8.5090   15.3190   21.0970 C   0  0  0  0  0  0  0  0  0  0  0  0
    9.3774   10.7567   21.3253 N   0  0  0  0  0  0  0  0  0  0  0  0
  1  2  2  0
  1  3  1  0
  1  4  1  0
  5  4  1  6
  5  6  1  0
  5  8  1  0
  6  7  2  0
  6 11  1  0
  8  9  1  6
  8 10  1  0
 11 12  1  0
 11 17  1  0
 12 13  1  6
 12 15  1  0
 13 14  2  0
 13 18  1  0
 15 16  1  0
 16 17  1  0
 18 19  1  0
 19 20  1  0
 19 22  1  6
 20 21  2  0
 20 26  1  0
 22 23  1  0
 23 24  1  0
 24 25  1  0
 26 27  1  0
 27 28  1  0
 27 30  1  1
 28 29  2  0
 28 37  1  0
 30 31  1  0
 31 32  1  0
 32 33  1  0
 33 34  1  0
 34 35  2  0
 34 36  1  0
 37 38  1  0
 38 39  1  0
 38 41  1  1
 39 40  2  0
 39 42  1  0
 42 43  1  0
 43 44  1  0
 43 46  1  1
 44 45  2  0
 44 53  1  0
 46 47  1  0
 47 48  1  0
 48 49  1  0
 49 50  1  0
 50 51  2  0
 50 52  1  0
 53 54  1  0
 54 55  1  0
 54 57  1  1
 55 56  2  0
 55 62  1  0
 57 58  1  0
 58 59  1  0
 59 60  2  0
 59 61  1  0
 62 63  1  0
 63 64  1  0
 63 66  1  6
 64 65  2  0
 64 70  1  0
 66 67  1  0
 67 68  1  6
 67 69  1  0
 70 71  1  0
 70 76  1  0
 71 72  1  6
 71 74  1  0
 72 73  2  0
 72 77  1  0
 74 75  1  0
 75 76  1  0
 77 78  1  0
 78 79  1  0
 78 81  1  1
 79 80  2  0
 79 82  1  0
 82 83  1  0
 83 84  1  0
 83 86  1  6
 84 85  2  0
 84 88  1  0
 86 87  1  0
 88 89  1  0
 89 90  1  0
 89 92  1  1
 90 91  2  0
 90 99  1  0
 92 93  1  0
 93 94  2  0
 93 95  1  0
 94 96  1  0
 95 97  2  0
 96 98  2  0
 97 98  1  0
 99100  1  0
100101  1  0
100103  1  1
101102  2  0
101113  1  0
103104  1  0
104105  2  0
104106  1  0
105107  1  0
106108  2  0
106109  1  0
107108  1  0
108110  1  0
109111  2  0
110112  2  0
111112  1  0
113114  1  0
114115  1  0
114117  1  1
115116  2  0
115122  1  0
117118  1  0
118119  1  0
119120  1  0
119121  2  0
122123  1  0
123124  1  0
123126  1  6
124125  2  0
124131  1  0
126127  1  0
127128  1  0
128129  1  0
128130  2  0
131132  1  0
131137  1  0
132133  1  6
132135  1  0
133134  2  0
133138  1  0
135136  1  0
136137  1  0
M  CHG  4  35   1  51   1 120  -1 129  -1
M  END
$$$$
