
     RDKit          3D

 14 13  0  0  0  0  0  0  0  0999 V2000
   30.2917   37.8061   38.6958 C   0  0  0  0  0  0  0  0  0  0  0  0
   29.8742   38.3734   37.3747 C   0  0  0  0  0  0  0  0  0  0  0  0
   28.4473   37.9264   37.0532 C   0  0  0  0  0  0  0  0  0  0  0  0
   26.2909   38.6953   36.2997 C   0  0  0  0  0  0  0  0  0  0  0  0
   25.6627   39.9712   35.7222 C   0  0  0  0  0  0  0  0  0  0  0  0
   24.1746   39.7791   35.5801 C   0  0  0  0  0  0  0  0  0  0  0  0
   23.5117   40.9856   34.9727 C   0  0  0  0  0  0  0  0  0  0  0  0
   22.0419   41.0253   35.2856 C   0  0  0  0  0  0  0  0  0  0  0  0
   21.2033   40.5669   34.1735 C   0  0  0  0  0  0  0  0  0  0  0  0
   30.8901   38.8821   39.4679 N   0  0  0  0  0  4  0  0  0  0  0  0
   27.6694   39.0335   36.5940 N   0  0  0  0  0  4  0  0  0  0  0  0
   20.9564   39.1964   33.9056 N   0  0  0  0  0  0  0  0  0  0  0  0
   20.6755   41.4198   33.4185 O   0  0  0  0  0  0  0  0  0  0  0  0
   20.1283   38.8463   32.8952 O   0  0  0  0  0  0  0  0  0  0  0  0
  2  1  1  0
  1 10  1  0
  3  2  1  0
 11  3  1  0
  4  5  1  0
  4 11  1  0
  5  6  1  0
  6  7  1  0
  7  8  1  0
  8  9  1  0
  9 12  1  0
  9 13  2  0
 12 14  1  0
M  CHG  2  10   1  11   1
M  END
$$$$
