
     RDKit          3D

 14 13  0  0  0  0  0  0  0  0999 V2000
   31.6969   38.9365   36.9718 C   0  0  0  0  0  0  0  0  0  0  0  0
   30.5237   38.8719   36.0440 C   0  0  0  0  0  0  0  0  0  0  0  0
   29.2534   38.5793   36.8442 C   0  0  0  0  0  0  0  0  0  0  0  0
   27.0848   39.4427   36.2436 C   0  0  0  0  0  0  0  0  0  0  0  0
   26.0051   39.2044   35.1790 C   0  0  0  0  0  0  0  0  0  0  0  0
   24.8520   40.1464   35.4126 C   0  0  0  0  0  0  0  0  0  0  0  0
   23.8453   40.0839   34.2962 C   0  0  0  0  0  0  0  0  0  0  0  0
   22.6123   40.8813   34.6179 C   0  0  0  0  0  0  0  0  0  0  0  0
   21.3726   40.1135   34.4629 C   0  0  0  0  0  0  0  0  0  0  0  0
   32.3292   40.2327   36.7927 N   0  0  0  0  0  4  0  0  0  0  0  0
   28.1274   38.4732   35.9710 N   0  0  0  0  0  4  0  0  0  0  0  0
   20.6472   40.0543   33.2460 N   0  0  0  0  0  0  0  0  0  0  0  0
   20.9254   39.4761   35.4477 O   0  0  0  0  0  0  0  0  0  0  0  0
   19.4755   39.3809   33.1924 O   0  0  0  0  0  0  0  0  0  0  0  0
  2  1  1  0
  1 10  1  0
  3  2  1  0
 11  3  1  0
  4  5  1  0
  4 11  1  0
  5  6  1  0
  6  7  1  0
  7  8  1  0
  8  9  1  0
  9 12  1  0
  9 13  2  0
 12 14  1  0
M  CHG  2  10   1  11   1
M  END
$$$$
