
     RDKit          3D

 14 13  0  0  0  0  0  0  0  0999 V2000
   30.5158   39.2319   38.3727 C   0  0  0  0  0  0  0  0  0  0  0  0
   29.9568   39.3497   36.9888 C   0  0  0  0  0  0  0  0  0  0  0  0
   28.6164   38.6167   36.9137 C   0  0  0  0  0  0  0  0  0  0  0  0
   26.8268   37.9855   35.4279 C   0  0  0  0  0  0  0  0  0  0  0  0
   25.8116   39.0978   35.7250 C   0  0  0  0  0  0  0  0  0  0  0  0
   24.5616   38.8670   34.9152 C   0  0  0  0  0  0  0  0  0  0  0  0
   23.5521   39.9633   35.1225 C   0  0  0  0  0  0  0  0  0  0  0  0
   22.9873   40.4492   33.8168 C   0  0  0  0  0  0  0  0  0  0  0  0
   21.6143   39.9931   33.5775 C   0  0  0  0  0  0  0  0  0  0  0  0
   30.0178   40.3570   39.1460 N   0  0  0  0  0  4  0  0  0  0  0  0
   28.1335   38.5970   35.5691 N   0  0  0  0  0  4  0  0  0  0  0  0
   20.9756   39.0115   34.3771 N   0  0  0  0  0  0  0  0  0  0  0  0
   20.9668   40.4890   32.6231 O   0  0  0  0  0  0  0  0  0  0  0  0
   19.6979   38.6553   34.1134 O   0  0  0  0  0  0  0  0  0  0  0  0
  2  1  1  0
  1 10  1  0
  3  2  1  0
 11  3  1  0
  4  5  1  0
  4 11  1  0
  5  6  1  0
  6  7  1  0
  7  8  1  0
  8  9  1  0
  9 12  1  0
  9 13  2  0
 12 14  1  0
M  CHG  2  10   1  11   1
M  END
$$$$
