
     RDKit          3D

 14 13  0  0  0  0  0  0  0  0999 V2000
   31.6001   38.8410   36.8003 C   0  0  0  0  0  0  0  0  0  0  0  0
   30.4150   38.6280   35.9105 C   0  0  0  0  0  0  0  0  0  0  0  0
   29.1339   38.9695   36.6730 C   0  0  0  0  0  0  0  0  0  0  0  0
   26.7306   39.0365   36.5054 C   0  0  0  0  0  0  0  0  0  0  0  0
   25.6394   38.7034   35.4785 C   0  0  0  0  0  0  0  0  0  0  0  0
   24.3837   39.4665   35.8137 C   0  0  0  0  0  0  0  0  0  0  0  0
   23.2432   39.0899   34.9074 C   0  0  0  0  0  0  0  0  0  0  0  0
   22.5773   40.3041   34.3225 C   0  0  0  0  0  0  0  0  0  0  0  0
   21.1939   40.0571   33.9036 C   0  0  0  0  0  0  0  0  0  0  0  0
   32.3099   37.5767   36.8986 N   0  0  0  0  0  4  0  0  0  0  0  0
   27.9915   38.7921   35.8335 N   0  0  0  0  0  4  0  0  0  0  0  0
   20.3062   39.2184   34.6243 N   0  0  0  0  0  0  0  0  0  0  0  0
   20.7670   40.6093   32.8601 O   0  0  0  0  0  0  0  0  0  0  0  0
   19.1285   38.8504   34.0705 O   0  0  0  0  0  0  0  0  0  0  0  0
  2  1  1  0
  1 10  1  0
  3  2  1  0
 11  3  1  0
  4  5  1  0
  4 11  1  0
  5  6  1  0
  6  7  1  0
  7  8  1  0
  8  9  1  0
  9 12  1  0
  9 13  2  0
 12 14  1  0
M  CHG  2  10   1  11   1
M  END
$$$$
