
     RDKit          3D

 14 13  0  0  0  0  0  0  0  0999 V2000
   -7.6410   16.8351   19.2663 C   0  0  0  0  0  0  0  0  0  0  0  0
   -7.5521   17.2102   17.8196 C   0  0  0  0  0  0  0  0  0  0  0  0
   -8.8883   17.7946   17.3589 C   0  0  0  0  0  0  0  0  0  0  0  0
   -9.8141   20.0158   17.2239 C   0  0  0  0  0  0  0  0  0  0  0  0
   -8.7767   21.1284   17.0185 C   0  0  0  0  0  0  0  0  0  0  0  0
   -8.6147   21.3989   15.5447 C   0  0  0  0  0  0  0  0  0  0  0  0
   -7.7175   22.5795   15.2894 C   0  0  0  0  0  0  0  0  0  0  0  0
   -6.2929   22.1539   15.0674 C   0  0  0  0  0  0  0  0  0  0  0  0
   -5.7666   22.5616   13.7609 C   0  0  0  0  0  0  0  0  0  0  0  0
   -6.8797   17.8149   20.0229 N   0  0  0  0  0  4  0  0  0  0  0  0
   -9.1621   19.0166   18.0471 N   0  0  0  0  0  4  0  0  0  0  0  0
   -4.8710   21.7631   13.0052 N   0  0  0  0  0  0  0  0  0  0  0  0
   -6.1195   23.6669   13.2815 O   0  0  0  0  0  0  0  0  0  0  0  0
   -4.3933   22.2197   11.8252 O   0  0  0  0  0  0  0  0  0  0  0  0
  2  1  1  0
  1 10  1  0
  3  2  1  0
 11  3  1  0
  4  5  1  0
  4 11  1  0
  5  6  1  0
  6  7  1  0
  7  8  1  0
  8  9  1  0
  9 12  1  0
  9 13  2  0
 12 14  1  0
M  CHG  2  10   1  11   1
M  END
$$$$
