
     RDKit          3D

 14 13  0  0  0  0  0  0  0  0999 V2000
   30.3719   37.6924   38.7247 C   0  0  0  0  0  0  0  0  0  0  0  0
   29.3561   38.7013   38.2870 C   0  0  0  0  0  0  0  0  0  0  0  0
   29.0728   38.5284   36.7939 C   0  0  0  0  0  0  0  0  0  0  0  0
   27.4122   39.1228   35.1514 C   0  0  0  0  0  0  0  0  0  0  0  0
   25.9303   39.0920   35.5505 C   0  0  0  0  0  0  0  0  0  0  0  0
   25.0763   39.3320   34.3322 C   0  0  0  0  0  0  0  0  0  0  0  0
   23.6554   39.6604   34.7025 C   0  0  0  0  0  0  0  0  0  0  0  0
   22.6820   39.1256   33.6894 C   0  0  0  0  0  0  0  0  0  0  0  0
   21.3673   39.7716   33.7565 C   0  0  0  0  0  0  0  0  0  0  0  0
   30.6874   37.9609   40.1177 N   0  0  0  0  0  4  0  0  0  0  0  0
   28.1342   39.5089   36.3476 N   0  0  0  0  0  4  0  0  0  0  0  0
   20.2486   39.1824   34.3985 N   0  0  0  0  0  0  0  0  0  0  0  0
   21.2157   40.8982   33.2238 O   0  0  0  0  0  0  0  0  0  0  0  0
   19.0123   39.3351   33.8720 O   0  0  0  0  0  0  0  0  0  0  0  0
  2  1  1  0
  1 10  1  0
  3  2  1  0
 11  3  1  0
  4  5  1  0
  4 11  1  0
  5  6  1  0
  6  7  1  0
  7  8  1  0
  8  9  1  0
  9 12  1  0
  9 13  2  0
 12 14  1  0
M  CHG  2  10   1  11   1
M  END
$$$$
