
     RDKit          3D

 14 13  0  0  0  0  0  0  0  0999 V2000
  142.8682-1285.3115   65.8550 C   0  0  0  0  0  0  0  0  0  0  0  0
  143.1228-1286.1992   67.0334 C   0  0  0  0  0  0  0  0  0  0  0  0
  142.3041-1285.7096   68.2296 C   0  0  0  0  0  0  0  0  0  0  0  0
  144.1167-1285.7170   69.8179 C   0  0  0  0  0  0  0  0  0  0  0  0
  145.4763-1285.1547   69.3801 C   0  0  0  0  0  0  0  0  0  0  0  0
  146.5152-1286.2446   69.4438 C   0  0  0  0  0  0  0  0  0  0  0  0
  147.5343-1285.9822   70.5193 C   0  0  0  0  0  0  0  0  0  0  0  0
  148.9044-1285.7621   69.9412 C   0  0  0  0  0  0  0  0  0  0  0  0
  149.8417-1286.8457   70.2507 C   0  0  0  0  0  0  0  0  0  0  0  0
  142.7801-1286.1575   64.6770 N   0  0  0  0  0  4  0  0  0  0  0  0
  143.1215-1284.9364   69.1100 N   0  0  0  0  0  4  0  0  0  0  0  0
  150.0133-1287.9800   69.4174 N   0  0  0  0  0  0  0  0  0  0  0  0
  150.5281-1286.7754   71.2994 O   0  0  0  0  0  0  0  0  0  0  0  0
  151.2042-1288.6204   69.3883 O   0  0  0  0  0  0  0  0  0  0  0  0
  2  1  1  0
  1 10  1  0
  3  2  1  0
 11  3  1  0
  4  5  1  0
  4 11  1  0
  5  6  1  0
  6  7  1  0
  7  8  1  0
  8  9  1  0
  9 12  1  0
  9 13  2  0
 12 14  1  0
M  CHG  2  10   1  11   1
M  END
$$$$
