
     RDKit          3D

 14 13  0  0  0  0  0  0  0  0999 V2000
   19.8276   40.1902   33.9801 C   0  0  0  0  0  0  0  0  0  0  0  0
   21.1886   40.3339   33.3730 C   0  0  0  0  0  0  0  0  0  0  0  0
   22.1541   39.3546   34.0425 C   0  0  0  0  0  0  0  0  0  0  0  0
   23.9912   39.1874   35.5935 C   0  0  0  0  0  0  0  0  0  0  0  0
   25.2619   39.1689   34.7326 C   0  0  0  0  0  0  0  0  0  0  0  0
   26.4705   39.3415   35.6163 C   0  0  0  0  0  0  0  0  0  0  0  0
   27.7335   38.9022   34.9265 C   0  0  0  0  0  0  0  0  0  0  0  0
   28.9072   39.7511   35.3285 C   0  0  0  0  0  0  0  0  0  0  0  0
   30.1555   39.3592   34.6663 C   0  0  0  0  0  0  0  0  0  0  0  0
   19.0563   41.3667   33.6156 N   0  0  0  0  0  4  0  0  0  0  0  0
   23.0584   40.0535   34.9000 N   0  0  0  0  0  4  0  0  0  0  0  0
   31.0121   38.3469   35.1686 N   0  0  0  0  0  0  0  0  0  0  0  0
   30.4893   39.9413   33.6052 O   0  0  0  0  0  0  0  0  0  0  0  0
   30.4853   37.2573   35.7723 O   0  0  0  0  0  0  0  0  0  0  0  0
  2  1  1  0
  1 10  1  0
  3  2  1  0
 11  3  1  0
  4  5  1  0
  4 11  1  0
  5  6  1  0
  6  7  1  0
  7  8  1  0
  8  9  1  0
  9 12  1  0
  9 13  2  0
 12 14  1  0
M  CHG  2  10   1  11   1
M  END
$$$$
