
     RDKit          3D

 14 13  0  0  0  0  0  0  0  0999 V2000
   30.8977   38.3529   38.5732 C   0  0  0  0  0  0  0  0  0  0  0  0
   29.9770   39.1711   37.7221 C   0  0  0  0  0  0  0  0  0  0  0  0
   28.7052   38.3732   37.4298 C   0  0  0  0  0  0  0  0  0  0  0  0
   26.5398   38.4811   36.3772 C   0  0  0  0  0  0  0  0  0  0  0  0
   25.6832   39.4956   35.6069 C   0  0  0  0  0  0  0  0  0  0  0  0
   24.3222   38.9055   35.3412 C   0  0  0  0  0  0  0  0  0  0  0  0
   23.2348   39.9399   35.4484 C   0  0  0  0  0  0  0  0  0  0  0  0
   22.7171   40.3405   34.0951 C   0  0  0  0  0  0  0  0  0  0  0  0
   21.3124   39.9762   33.8845 C   0  0  0  0  0  0  0  0  0  0  0  0
   32.2484   38.8442   38.3589 N   0  0  0  0  0  4  0  0  0  0  0  0
   27.7894   39.1576   36.6633 N   0  0  0  0  0  4  0  0  0  0  0  0
   20.6261   39.0405   34.6995 N   0  0  0  0  0  0  0  0  0  0  0  0
   20.6803   40.5123   32.9416 O   0  0  0  0  0  0  0  0  0  0  0  0
   19.3284   38.7537   34.4491 O   0  0  0  0  0  0  0  0  0  0  0  0
  2  1  1  0
  1 10  1  0
  3  2  1  0
 11  3  1  0
  4  5  1  0
  4 11  1  0
  5  6  1  0
  6  7  1  0
  7  8  1  0
  8  9  1  0
  9 12  1  0
  9 13  2  0
 12 14  1  0
M  CHG  2  10   1  11   1
M  END
$$$$
