
     RDKit          3D

 14 13  0  0  0  0  0  0  0  0999 V2000
   31.4264   38.5829   37.5954 C   0  0  0  0  0  0  0  0  0  0  0  0
   30.3340   39.1390   36.7358 C   0  0  0  0  0  0  0  0  0  0  0  0
   29.0196   38.4233   37.0509 C   0  0  0  0  0  0  0  0  0  0  0  0
   26.8109   39.1763   36.4482 C   0  0  0  0  0  0  0  0  0  0  0  0
   25.9511   39.3314   35.1861 C   0  0  0  0  0  0  0  0  0  0  0  0
   24.5938   39.8658   35.5649 C   0  0  0  0  0  0  0  0  0  0  0  0
   23.7734   40.2150   34.3529 C   0  0  0  0  0  0  0  0  0  0  0  0
   22.4249   40.7582   34.7355 C   0  0  0  0  0  0  0  0  0  0  0  0
   21.3175   40.0912   34.0434 C   0  0  0  0  0  0  0  0  0  0  0  0
   31.5327   39.4272   38.7734 N   0  0  0  0  0  4  0  0  0  0  0  0
   28.0753   38.6284   35.9984 N   0  0  0  0  0  4  0  0  0  0  0  0
   20.4507   39.1685   34.6822 N   0  0  0  0  0  0  0  0  0  0  0  0
   21.1200   40.3425   32.8294 O   0  0  0  0  0  0  0  0  0  0  0  0
   19.4682   38.5663   33.9743 O   0  0  0  0  0  0  0  0  0  0  0  0
  2  1  1  0
  1 10  1  0
  3  2  1  0
 11  3  1  0
  4  5  1  0
  4 11  1  0
  5  6  1  0
  6  7  1  0
  7  8  1  0
  8  9  1  0
  9 12  1  0
  9 13  2  0
 12 14  1  0
M  CHG  2  10   1  11   1
M  END
$$$$
