
     RDKit          3D

 14 13  0  0  0  0  0  0  0  0999 V2000
   29.0993   37.4993   38.7958 C   0  0  0  0  0  0  0  0  0  0  0  0
   29.4474   37.2210   37.3665 C   0  0  0  0  0  0  0  0  0  0  0  0
   29.2085   38.4771   36.5272 C   0  0  0  0  0  0  0  0  0  0  0  0
   27.6362   39.5559   35.0532 C   0  0  0  0  0  0  0  0  0  0  0  0
   26.3093   39.2177   34.3595 C   0  0  0  0  0  0  0  0  0  0  0  0
   25.1641   39.5113   35.2941 C   0  0  0  0  0  0  0  0  0  0  0  0
   23.9705   40.0585   34.5595 C   0  0  0  0  0  0  0  0  0  0  0  0
   23.0628   38.9593   34.0825 C   0  0  0  0  0  0  0  0  0  0  0  0
   21.6969   39.4175   33.8093 C   0  0  0  0  0  0  0  0  0  0  0  0
   28.7005   36.2416   39.4049 N   0  0  0  0  0  4  0  0  0  0  0  0
   27.8959   38.4577   35.9629 N   0  0  0  0  0  4  0  0  0  0  0  0
   20.5678   38.9566   34.5330 N   0  0  0  0  0  0  0  0  0  0  0  0
   21.5088   40.2564   32.8945 O   0  0  0  0  0  0  0  0  0  0  0  0
   19.3253   39.1429   34.0325 O   0  0  0  0  0  0  0  0  0  0  0  0
  2  1  1  0
  1 10  1  0
  3  2  1  0
 11  3  1  0
  4  5  1  0
  4 11  1  0
  5  6  1  0
  6  7  1  0
  7  8  1  0
  8  9  1  0
  9 12  1  0
  9 13  2  0
 12 14  1  0
M  CHG  2  10   1  11   1
M  END
$$$$
