
     RDKit          3D

 14 13  0  0  0  0  0  0  0  0999 V2000
   30.6638   38.6999   38.2587 C   0  0  0  0  0  0  0  0  0  0  0  0
   29.5465   37.9540   37.5978 C   0  0  0  0  0  0  0  0  0  0  0  0
   28.7675   38.9020   36.6845 C   0  0  0  0  0  0  0  0  0  0  0  0
   26.9034   39.0441   35.1635 C   0  0  0  0  0  0  0  0  0  0  0  0
   25.4958   39.1151   35.7717 C   0  0  0  0  0  0  0  0  0  0  0  0
   24.6640   40.1069   34.9998 C   0  0  0  0  0  0  0  0  0  0  0  0
   23.3618   39.5072   34.5431 C   0  0  0  0  0  0  0  0  0  0  0  0
   22.3615   40.5687   34.1792 C   0  0  0  0  0  0  0  0  0  0  0  0
   21.0754   40.0210   33.7363 C   0  0  0  0  0  0  0  0  0  0  0  0
   30.7230   38.2672   39.6447 N   0  0  0  0  0  4  0  0  0  0  0  0
   27.6798   38.2144   36.0634 N   0  0  0  0  0  4  0  0  0  0  0  0
   20.3430   39.0655   34.4856 N   0  0  0  0  0  0  0  0  0  0  0  0
   20.5926   40.4101   32.6446 O   0  0  0  0  0  0  0  0  0  0  0  0
   19.2426   38.4896   33.9503 O   0  0  0  0  0  0  0  0  0  0  0  0
  2  1  1  0
  1 10  1  0
  3  2  1  0
 11  3  1  0
  4  5  1  0
  4 11  1  0
  5  6  1  0
  6  7  1  0
  7  8  1  0
  8  9  1  0
  9 12  1  0
  9 13  2  0
 12 14  1  0
M  CHG  2  10   1  11   1
M  END
$$$$
