
     RDKit          3D

 47 50  0  0  0  0  0  0  0  0999 V2000
   36.7549   49.3073   14.4526 C   0  0  0  0  0  0  0  0  0  0  0  0
   37.6917   56.0371   19.8904 C   0  0  0  0  0  0  0  0  0  0  0  0
   36.4656   55.1944   19.6199 C   0  0  0  0  0  0  0  0  0  0  0  0
   33.9896   56.0718   19.6371 C   0  0  0  0  0  0  0  0  0  0  0  0
   33.1447   57.1576   20.1605 C   0  0  0  0  0  0  0  0  0  0  0  0
   32.3712   59.2380   19.3059 C   0  0  0  0  0  0  0  0  0  0  0  0
   31.7674   59.8037   20.5222 C   0  0  0  0  0  0  0  0  0  0  0  0
   30.4461   59.5136   20.8628 C   0  0  0  0  0  0  0  0  0  0  0  0
   29.8698   60.0361   22.0015 C   0  0  0  0  0  0  0  0  0  0  0  0
   30.5798   60.8699   22.8532 C   0  0  0  0  0  0  0  0  0  0  0  0
   31.8881   61.1656   22.5295 C   0  0  0  0  0  0  0  0  0  0  0  0
   37.6131   51.5263   13.7925 C   0  0  0  0  0  0  0  0  0  0  0  0
   32.4616   60.6369   21.3827 C   0  0  0  0  0  0  0  0  0  0  0  0
   33.8666   60.9932   21.0984 C   0  0  0  0  0  0  0  0  0  0  0  0
   32.3968   57.3078   17.8823 C   0  0  0  0  0  0  0  0  0  0  0  0
   31.2475   56.5116   17.4091 C   0  0  0  0  0  0  0  0  0  0  0  0
   30.4908   55.6902   18.2159 C   0  0  0  0  0  0  0  0  0  0  0  0
   29.4191   54.9433   17.7841 C   0  0  0  0  0  0  0  0  0  0  0  0
   29.0639   55.0090   16.4570 C   0  0  0  0  0  0  0  0  0  0  0  0
   29.7775   55.8047   15.6162 C   0  0  0  0  0  0  0  0  0  0  0  0
   30.8498   56.5461   16.0710 C   0  0  0  0  0  0  0  0  0  0  0  0
   31.6045   57.3997   15.1322 C   0  0  0  0  0  0  0  0  0  0  0  0
   36.7821   52.6654   14.3552 C   0  0  0  0  0  0  0  0  0  0  0  0
   33.1375   55.2057   13.9059 C   0  0  0  0  0  0  0  0  0  0  0  0
   34.3901   54.3894   14.1692 C   0  0  1  0  0  0  0  0  0  0  0  0
   34.3816   53.1266   13.3998 C   0  0  0  0  0  0  0  0  0  0  0  0
   36.5457   55.6014   14.6474 C   0  0  0  0  0  0  0  0  0  0  0  0
   37.7324   53.4997   15.2051 C   0  0  0  0  0  0  0  0  0  0  0  0
   37.0328   54.7275   15.7445 C   0  0  1  0  0  0  0  0  0  0  0  0
   37.6849   56.7850   17.0508 C   0  0  0  0  0  0  0  0  0  0  0  0
   36.3369   57.2206   17.4058 C   0  0  0  0  0  0  0  0  0  0  0  0
   36.0429   57.3320   18.8612 C   0  0  2  0  0  0  0  0  0  0  0  0
   37.2648   57.4554   19.7300 C   0  0  0  0  0  0  0  0  0  0  0  0
   35.7863   49.4517   13.6428 N   0  0  0  0  0  4  0  0  0  0  0  0
   37.0773   48.0916   15.1069 N   0  0  0  0  0  0  0  0  0  0  0  0
   37.5849   50.4302   14.7350 N   0  0  0  0  0  0  0  0  0  0  0  0
   38.0005   55.4894   16.5271 N   0  0  0  0  0  0  0  0  0  0  0  0
   35.3919   56.1507   19.4069 N   0  0  0  0  0  0  0  0  0  0  0  0
   32.2876   57.7938   19.2186 N   0  0  0  0  0  0  0  0  0  0  0  0
   34.3243   53.1328   11.9892 N   0  0  0  0  0  0  0  0  0  0  0  0
   35.5109   55.2297   13.7571 N   0  0  0  0  0  0  0  0  0  0  0  0
   38.6477   57.5795   17.2051 O   0  0  0  0  0  0  0  0  0  0  0  0
   33.4288   54.9664   19.3657 O   0  0  0  0  0  0  0  0  0  0  0  0
   34.6745   59.9253   21.4548 O   0  0  0  0  0  0  0  0  0  0  0  0
   34.4263   52.0398   14.0192 O   0  0  0  0  0  0  0  0  0  0  0  0
   37.0506   56.7597   14.4501 O   0  0  0  0  0  0  0  0  0  0  0  0
   33.2591   56.6962   14.9482 S   0  0  0  0  0  0  0  0  0  0  0  0
  1 34  2  0
  1 35  1  0
 36  1  1  0
  2  3  1  1
 33  2  1  1
  3 38  1  6
  5  4  1  0
  4 38  1  0
  4 43  2  0
  5 39  1  6
  6  7  1  0
  6 39  1  6
  7  8  2  0
  7 13  1  0
  8  9  1  0
  9 10  2  0
 11 10  1  0
 13 11  2  0
 23 12  1  1
 12 36  1  6
 13 14  1  0
 14 44  1  6
 16 15  1  0
 15 39  1  6
 16 17  1  0
 21 16  2  0
 17 18  2  0
 19 18  1  0
 20 19  2  0
 21 20  1  0
 22 21  1  0
 28 23  1  0
 25 24  1  0
 25 26  1  6
 41 25  1  0
 26 40  1  0
 26 45  2  0
 29 27  1  0
 27 41  1  0
 27 46  2  0
 28 29  1  6
 29 37  1  1
 31 30  1  1
 30 37  1  0
 30 42  2  0
 32 31  1  0
 32 33  1  0
 32 38  1  1
 22 47  1  6
 24 47  1  6
M  CHG  1  34   1
M  END
$$$$
