
     RDKit          3D

 47 50  0  0  0  0  0  0  0  0999 V2000
   36.0443   48.8807   15.4953 C   0  0  0  0  0  0  0  0  0  0  0  0
   30.5507   57.0794   13.7757 C   0  0  0  0  0  0  0  0  0  0  0  0
   31.3429   57.9760   14.7015 C   0  0  0  0  0  0  0  0  0  0  0  0
   31.0183   58.0232   17.2838 C   0  0  0  0  0  0  0  0  0  0  0  0
   31.7339   57.5746   18.5017 C   0  0  0  0  0  0  0  0  0  0  0  0
   32.7823   59.2259   19.9339 C   0  0  0  0  0  0  0  0  0  0  0  0
   31.9837   58.5958   21.0012 C   0  0  0  0  0  0  0  0  0  0  0  0
   31.2254   57.4876   20.6988 C   0  0  0  0  0  0  0  0  0  0  0  0
   30.4492   56.8479   21.6561 C   0  0  0  0  0  0  0  0  0  0  0  0
   30.4249   57.3216   22.9498 C   0  0  0  0  0  0  0  0  0  0  0  0
   31.1969   58.4439   23.2438 C   0  0  0  0  0  0  0  0  0  0  0  0
   35.8080   51.3131   15.0618 C   0  0  0  0  0  0  0  0  0  0  0  0
   31.9666   59.0771   22.2914 C   0  0  0  0  0  0  0  0  0  0  0  0
   32.7755   60.2797   22.6761 C   0  0  0  0  0  0  0  0  0  0  0  0
   34.0648   57.8758   18.3857 C   0  0  0  0  0  0  0  0  0  0  0  0
   34.8515   57.3590   19.5315 C   0  0  0  0  0  0  0  0  0  0  0  0
   34.2574   56.5448   20.4509 C   0  0  0  0  0  0  0  0  0  0  0  0
   34.9827   56.0636   21.5106 C   0  0  0  0  0  0  0  0  0  0  0  0
   36.3126   56.4065   21.6411 C   0  0  0  0  0  0  0  0  0  0  0  0
   36.8996   57.2354   20.6966 C   0  0  0  0  0  0  0  0  0  0  0  0
   36.1678   57.7168   19.6337 C   0  0  0  0  0  0  0  0  0  0  0  0
   36.8189   58.5956   18.6439 C   0  0  0  0  0  0  0  0  0  0  0  0
   35.5438   51.5683   13.5938 C   0  0  0  0  0  0  0  0  0  0  0  0
   36.8980   55.9749   17.3556 C   0  0  0  0  0  0  0  0  0  0  0  0
   36.9992   55.2220   16.0216 C   0  0  1  0  0  0  0  0  0  0  0  0
   38.4685   54.9635   15.8374 C   0  0  0  0  0  0  0  0  0  0  0  0
   35.1839   53.5493   15.6345 C   0  0  0  0  0  0  0  0  0  0  0  0
   35.7647   53.0482   13.3732 C   0  0  0  0  0  0  0  0  0  0  0  0
   34.8733   53.9268   14.2219 C   0  0  1  0  0  0  0  0  0  0  0  0
   32.4152   54.1113   14.7998 C   0  0  0  0  0  0  0  0  0  0  0  0
   32.4261   55.4250   15.4931 C   0  0  0  0  0  0  0  0  0  0  0  0
   31.0752   55.9681   15.8002 C   0  0  2  0  0  0  0  0  0  0  0  0
   30.1285   55.9249   14.6223 C   0  0  0  0  0  0  0  0  0  0  0  0
   36.6958   47.8755   15.9424 N   0  0  0  0  0  4  0  0  0  0  0  0
   34.6545   48.7430   15.1041 N   0  0  0  0  0  0  0  0  0  0  0  0
   36.6087   50.1683   15.3213 N   0  0  0  0  0  0  0  0  0  0  0  0
   33.4630   53.6911   13.9466 N   0  0  0  0  0  0  0  0  0  0  0  0
   31.1409   57.3947   16.0251 N   0  0  0  0  0  0  0  0  0  0  0  0
   32.8228   58.4756   18.7271 N   0  0  0  0  0  0  0  0  0  0  0  0
   39.1814   55.4248   14.6962 N   0  0  0  0  0  0  0  0  0  0  0  0
   36.3728   53.9382   16.2556 N   0  0  0  0  0  0  0  0  0  0  0  0
   31.4359   53.3027   14.9570 O   0  0  0  0  0  0  0  0  0  0  0  0
   30.2570   59.0400   17.4219 O   0  0  0  0  0  0  0  0  0  0  0  0
   32.8174   60.4183   24.0510 O   0  0  0  0  0  0  0  0  0  0  0  0
   39.1304   54.3209   16.6966 O   0  0  0  0  0  0  0  0  0  0  0  0
   34.3240   52.8640   16.2390 O   0  0  0  0  0  0  0  0  0  0  0  0
   36.9697   57.7507   17.0254 S   0  0  0  0  0  0  0  0  0  0  0  0
  1 34  2  0
  1 35  1  0
 36  1  1  0
  3  2  1  0
 33  2  1  0
 38  3  1  0
  5  4  1  0
  4 38  1  0
  4 43  2  0
 39  5  1  0
  6  7  1  0
 39  6  1  0
  7  8  2  0
  7 13  1  0
  8  9  1  0
  9 10  2  0
 11 10  1  0
 13 11  2  0
 23 12  1  0
 12 36  1  0
 13 14  1  0
 14 44  1  0
 16 15  1  0
 15 39  1  0
 16 17  1  0
 21 16  2  0
 17 18  2  0
 19 18  1  0
 20 19  2  0
 21 20  1  0
 22 21  1  0
 28 23  1  0
 25 24  1  0
 25 26  1  1
 41 25  1  0
 26 40  1  0
 26 45  2  0
 29 27  1  0
 27 41  1  0
 27 46  2  0
 29 28  1  6
 37 29  1  0
 31 30  1  0
 30 37  1  0
 30 42  2  0
 32 31  1  6
 32 33  1  0
 38 32  1  0
 47 22  1  0
 24 47  1  0
M  CHG  1  34   1
M  END
$$$$
