
     RDKit          3D

 47 50  0  0  0  0  0  0  0  0999 V2000
   36.1249   49.2286   16.7746 C   0  0  0  0  0  0  0  0  0  0  0  0
   34.2139   54.0070   11.2206 C   0  0  0  0  0  0  0  0  0  0  0  0
   35.2492   54.8215   11.9632 C   0  0  0  0  0  0  0  0  0  0  0  0
   35.2646   57.4414   12.1545 C   0  0  0  0  0  0  0  0  0  0  0  0
   34.7585   58.6579   11.4982 C   0  0  0  0  0  0  0  0  0  0  0  0
   32.8693   60.0681   11.8129 C   0  0  0  0  0  0  0  0  0  0  0  0
   31.6970   59.3944   12.3924 C   0  0  0  0  0  0  0  0  0  0  0  0
   31.8535   58.3654   13.3212 C   0  0  0  0  0  0  0  0  0  0  0  0
   30.7623   57.7279   13.8729 C   0  0  0  0  0  0  0  0  0  0  0  0
   29.4666   58.0837   13.5274 C   0  0  0  0  0  0  0  0  0  0  0  0
   29.2960   59.1001   12.6099 C   0  0  0  0  0  0  0  0  0  0  0  0
   36.8648   51.5790   16.9314 C   0  0  0  0  0  0  0  0  0  0  0  0
   30.3978   59.7371   12.0588 C   0  0  0  0  0  0  0  0  0  0  0  0
   30.1421   60.8179   11.0849 C   0  0  0  0  0  0  0  0  0  0  0  0
   34.0626   59.2417   13.7224 C   0  0  0  0  0  0  0  0  0  0  0  0
   34.9615   59.9869   14.6253 C   0  0  0  0  0  0  0  0  0  0  0  0
   36.2079   60.4512   14.2660 C   0  0  0  0  0  0  0  0  0  0  0  0
   37.0534   61.1451   15.1006 C   0  0  0  0  0  0  0  0  0  0  0  0
   36.6417   61.4025   16.3875 C   0  0  0  0  0  0  0  0  0  0  0  0
   35.4196   60.9665   16.7946 C   0  0  0  0  0  0  0  0  0  0  0  0
   34.5870   60.2717   15.9400 C   0  0  0  0  0  0  0  0  0  0  0  0
   33.2665   59.8114   16.4132 C   0  0  0  0  0  0  0  0  0  0  0  0
   36.2863   52.6781   16.0585 C   0  0  0  0  0  0  0  0  0  0  0  0
   34.2850   57.5030   17.9303 C   0  0  0  0  0  0  0  0  0  0  0  0
   34.7010   56.0624   17.6926 C   0  0  1  0  0  0  0  0  0  0  0  0
   35.5465   55.5571   18.7954 C   0  0  0  0  0  0  0  0  0  0  0  0
   33.1193   54.5331   16.4663 C   0  0  0  0  0  0  0  0  0  0  0  0
   34.7924   52.7096   16.3562 C   0  0  0  0  0  0  0  0  0  0  0  0
   34.1208   53.8436   15.6140 C   0  0  1  0  0  0  0  0  0  0  0  0
   32.5599   54.0779   13.6459 C   0  0  0  0  0  0  0  0  0  0  0  0
   32.7267   55.5141   13.4401 C   0  0  0  0  0  0  0  0  0  0  0  0
   33.2325   55.9335   12.1039 C   0  0  2  0  0  0  0  0  0  0  0  0
   33.0425   54.9058   11.0218 C   0  0  0  0  0  0  0  0  0  0  0  0
   37.3130   48.9192   16.4469 N   0  0  0  0  0  4  0  0  0  0  0  0
   35.0391   48.3174   16.8040 N   0  0  0  0  0  0  0  0  0  0  0  0
   35.8444   50.5764   17.1412 N   0  0  0  0  0  0  0  0  0  0  0  0
   33.4182   53.2773   14.4674 N   0  0  0  0  0  0  0  0  0  0  0  0
   34.6710   56.1502   12.0773 N   0  0  0  0  0  0  0  0  0  0  0  0
   34.1380   59.6163   12.3484 N   0  0  0  0  0  0  0  0  0  0  0  0
   36.9443   55.4305   18.6432 N   0  0  0  0  0  0  0  0  0  0  0  0
   33.4615   55.2954   17.6081 N   0  0  0  0  0  0  0  0  0  0  0  0
   31.6096   53.4822   13.0767 O   0  0  0  0  0  0  0  0  0  0  0  0
   36.3208   57.5424   12.8504 O   0  0  0  0  0  0  0  0  0  0  0  0
   31.3226   61.5123   10.8745 O   0  0  0  0  0  0  0  0  0  0  0  0
   35.0039   55.2392   19.8777 O   0  0  0  0  0  0  0  0  0  0  0  0
   31.8696   54.4691   16.2026 O   0  0  0  0  0  0  0  0  0  0  0  0
   33.2988   58.0057   16.4820 S   0  0  0  0  0  0  0  0  0  0  0  0
  1 34  2  0
  1 35  1  0
 36  1  1  0
  2  3  1  1
 33  2  1  1
  3 38  1  6
  5  4  1  0
  4 38  1  0
  4 43  2  0
  5 39  1  6
  6  7  1  0
  6 39  1  6
  7  8  2  0
  7 13  1  0
  8  9  1  0
  9 10  2  0
 11 10  1  0
 13 11  2  0
 23 12  1  1
 12 36  1  6
 13 14  1  0
 14 44  1  6
 16 15  1  0
 15 39  1  6
 16 17  1  0
 21 16  2  0
 17 18  2  0
 19 18  1  0
 20 19  2  0
 21 20  1  0
 22 21  1  0
 28 23  1  0
 25 24  1  0
 25 26  1  1
 41 25  1  0
 26 40  1  0
 26 45  2  0
 29 27  1  0
 27 41  1  0
 27 46  2  0
 28 29  1  6
 29 37  1  6
 31 30  1  1
 30 37  1  0
 30 42  2  0
 32 31  1  0
 32 33  1  0
 32 38  1  1
 22 47  1  6
 24 47  1  6
M  CHG  1  34   1
M  END
$$$$
