
     RDKit          3D

 47 50  0  0  0  0  0  0  0  0999 V2000
   36.4230   48.9561   14.4551 C   0  0  0  0  0  0  0  0  0  0  0  0
   30.9413   56.8349   15.4941 C   0  0  0  0  0  0  0  0  0  0  0  0
   32.3208   57.1559   14.9644 C   0  0  0  0  0  0  0  0  0  0  0  0
   33.9926   58.8768   16.0342 C   0  0  0  0  0  0  0  0  0  0  0  0
   34.0429   60.0535   16.9171 C   0  0  0  0  0  0  0  0  0  0  0  0
   34.4399   60.3902   19.2378 C   0  0  0  0  0  0  0  0  0  0  0  0
   33.4074   61.4344   19.1512 C   0  0  0  0  0  0  0  0  0  0  0  0
   32.0747   61.1001   18.9098 C   0  0  0  0  0  0  0  0  0  0  0  0
   31.0975   62.0698   18.8286 C   0  0  0  0  0  0  0  0  0  0  0  0
   31.3998   63.4148   18.9838 C   0  0  0  0  0  0  0  0  0  0  0  0
   32.7139   63.7608   19.2234 C   0  0  0  0  0  0  0  0  0  0  0  0
   35.7096   51.2137   13.7545 C   0  0  0  0  0  0  0  0  0  0  0  0
   33.6918   62.7806   19.3037 C   0  0  0  0  0  0  0  0  0  0  0  0
   35.0771   63.2217   19.5647 C   0  0  0  0  0  0  0  0  0  0  0  0
   35.7764   58.8115   18.0236 C   0  0  0  0  0  0  0  0  0  0  0  0
   37.1862   58.9441   17.6068 C   0  0  0  0  0  0  0  0  0  0  0  0
   37.6249   59.8058   16.6255 C   0  0  0  0  0  0  0  0  0  0  0  0
   38.9360   59.9355   16.2290 C   0  0  0  0  0  0  0  0  0  0  0  0
   39.8891   59.1581   16.8448 C   0  0  0  0  0  0  0  0  0  0  0  0
   39.5103   58.2900   17.8206 C   0  0  0  0  0  0  0  0  0  0  0  0
   38.1885   58.1761   18.2030 C   0  0  0  0  0  0  0  0  0  0  0  0
   37.8100   57.2234   19.2653 C   0  0  0  0  0  0  0  0  0  0  0  0
   35.5462   52.5979   14.3562 C   0  0  0  0  0  0  0  0  0  0  0  0
   37.9343   54.8223   17.5662 C   0  0  0  0  0  0  0  0  0  0  0  0
   37.0649   54.0650   16.5785 C   0  0  1  0  0  0  0  0  0  0  0  0
   37.8748   53.1703   15.7240 C   0  0  0  0  0  0  0  0  0  0  0  0
   34.7239   53.4354   17.2623 C   0  0  0  0  0  0  0  0  0  0  0  0
   34.1617   52.6196   14.9919 C   0  0  0  0  0  0  0  0  0  0  0  0
   34.0435   53.7567   15.9823 C   0  0  1  0  0  0  0  0  0  0  0  0
   32.1914   54.8708   17.2836 C   0  0  0  0  0  0  0  0  0  0  0  0
   32.9345   56.0596   17.6931 C   0  0  0  0  0  0  0  0  0  0  0  0
   32.3719   57.3689   17.2613 C   0  0  2  0  0  0  0  0  0  0  0  0
   30.9120   57.3246   16.9009 C   0  0  0  0  0  0  0  0  0  0  0  0
   36.1017   48.5366   13.2994 N   0  0  0  0  0  4  0  0  0  0  0  0
   37.0630   48.1672   15.4441 N   0  0  0  0  0  0  0  0  0  0  0  0
   36.1299   50.3070   14.7995 N   0  0  0  0  0  0  0  0  0  0  0  0
   32.6269   53.9596   16.2675 N   0  0  0  0  0  0  0  0  0  0  0  0
   32.9778   57.8789   16.0407 N   0  0  0  0  0  0  0  0  0  0  0  0
   35.0107   60.0129   17.9603 N   0  0  0  0  0  0  0  0  0  0  0  0
   39.2830   53.1472   15.8213 N   0  0  0  0  0  0  0  0  0  0  0  0
   36.1259   53.2887   17.3833 N   0  0  0  0  0  0  0  0  0  0  0  0
   31.0962   54.6080   17.8435 O   0  0  0  0  0  0  0  0  0  0  0  0
   34.9296   58.7314   15.1910 O   0  0  0  0  0  0  0  0  0  0  0  0
   35.9453   62.3657   18.9062 O   0  0  0  0  0  0  0  0  0  0  0  0
   37.2922   52.4251   14.9041 O   0  0  0  0  0  0  0  0  0  0  0  0
   34.0591   53.2718   18.3425 O   0  0  0  0  0  0  0  0  0  0  0  0
   36.8201   55.9132   18.5104 S   0  0  0  0  0  0  0  0  0  0  0  0
  1 34  2  0
  1 35  1  0
 36  1  1  0
  2  3  1  1
 33  2  1  1
  3 38  1  6
  5  4  1  0
  4 38  1  0
  4 43  2  0
  5 39  1  6
  6  7  1  0
  6 39  1  6
  7  8  2  0
  7 13  1  0
  8  9  1  0
  9 10  2  0
 11 10  1  0
 13 11  2  0
 23 12  1  1
 12 36  1  6
 13 14  1  0
 14 44  1  6
 16 15  1  0
 15 39  1  6
 16 17  1  0
 21 16  2  0
 17 18  2  0
 19 18  1  0
 20 19  2  0
 21 20  1  0
 22 21  1  0
 28 23  1  0
 25 24  1  0
 25 26  1  1
 41 25  1  0
 26 40  1  0
 26 45  2  0
 29 27  1  0
 27 41  1  0
 27 46  2  0
 28 29  1  6
 29 37  1  1
 31 30  1  1
 30 37  1  0
 30 42  2  0
 32 31  1  0
 32 33  1  0
 32 38  1  6
 22 47  1  6
 24 47  1  6
M  CHG  1  34   1
M  END
$$$$
