
     RDKit          3D

 47 50  0  0  0  0  0  0  0  0999 V2000
   36.6157   48.9130   16.5272 C   0  0  0  0  0  0  0  0  0  0  0  0
   33.0776   57.4057   12.4129 C   0  0  0  0  0  0  0  0  0  0  0  0
   33.1218   58.2892   13.6401 C   0  0  0  0  0  0  0  0  0  0  0  0
   31.2674   58.3077   15.4667 C   0  0  0  0  0  0  0  0  0  0  0  0
   31.0769   57.8430   16.8611 C   0  0  0  0  0  0  0  0  0  0  0  0
   31.0051   59.4745   18.6529 C   0  0  0  0  0  0  0  0  0  0  0  0
   29.8823   60.2070   18.0392 C   0  0  0  0  0  0  0  0  0  0  0  0
   28.6395   59.6161   18.0088 C   0  0  0  0  0  0  0  0  0  0  0  0
   27.5407   60.2501   17.4441 C   0  0  0  0  0  0  0  0  0  0  0  0
   27.6795   61.5059   16.8942 C   0  0  0  0  0  0  0  0  0  0  0  0
   28.9423   62.0939   16.9312 C   0  0  0  0  0  0  0  0  0  0  0  0
   36.3354   51.2897   15.8691 C   0  0  0  0  0  0  0  0  0  0  0  0
   30.0315   61.4622   17.4925 C   0  0  0  0  0  0  0  0  0  0  0  0
   31.3624   62.1530   17.5006 C   0  0  0  0  0  0  0  0  0  0  0  0
   32.9773   58.1384   18.2172 C   0  0  0  0  0  0  0  0  0  0  0  0
   32.8877   57.6060   19.5982 C   0  0  0  0  0  0  0  0  0  0  0  0
   31.8557   56.7832   19.9431 C   0  0  0  0  0  0  0  0  0  0  0  0
   31.7710   56.2875   21.2189 C   0  0  0  0  0  0  0  0  0  0  0  0
   32.7326   56.6249   22.1488 C   0  0  0  0  0  0  0  0  0  0  0  0
   33.7745   57.4628   21.7800 C   0  0  0  0  0  0  0  0  0  0  0  0
   33.8561   57.9586   20.4976 C   0  0  0  0  0  0  0  0  0  0  0  0
   34.9761   58.8467   20.1335 C   0  0  0  0  0  0  0  0  0  0  0  0
   37.1441   51.9665   14.7838 C   0  0  0  0  0  0  0  0  0  0  0  0
   35.8486   56.2408   19.1426 C   0  0  0  0  0  0  0  0  0  0  0  0
   36.7578   55.5030   18.1499 C   0  0  1  0  0  0  0  0  0  0  0  0
   38.0267   55.2421   18.9125 C   0  0  0  0  0  0  0  0  0  0  0  0
   35.5803   53.8404   16.7034 C   0  0  0  0  0  0  0  0  0  0  0  0
   37.4394   53.3635   15.2825 C   0  0  0  0  0  0  0  0  0  0  0  0
   36.2097   54.2351   15.4062 C   0  0  1  0  0  0  0  0  0  0  0  0
   33.9211   54.4204   14.3393 C   0  0  0  0  0  0  0  0  0  0  0  0
   33.4940   55.7259   14.9047 C   0  0  0  0  0  0  0  0  0  0  0  0
   32.2407   56.2696   14.3149 C   0  0  2  0  0  0  0  0  0  0  0  0
   32.2272   56.2429   12.8035 C   0  0  0  0  0  0  0  0  0  0  0  0
   37.8187   48.8980   16.9604 N   0  0  0  0  0  4  0  0  0  0  0  0
   35.6849   47.8656   16.9014 N   0  0  0  0  0  0  0  0  0  0  0  0
   36.1087   49.9040   15.6511 N   0  0  0  0  0  0  0  0  0  0  0  0
   35.2741   54.0068   14.3140 N   0  0  0  0  0  0  0  0  0  0  0  0
   32.1462   57.6933   14.5478 N   0  0  0  0  0  0  0  0  0  0  0  0
   31.7879   58.7379   17.7223 N   0  0  0  0  0  0  0  0  0  0  0  0
   39.1703   56.0790   18.7889 N   0  0  0  0  0  0  0  0  0  0  0  0
   36.1272   54.2185   17.9316 N   0  0  0  0  0  0  0  0  0  0  0  0
   33.0587   53.6130   13.8473 O   0  0  0  0  0  0  0  0  0  0  0  0
   30.5793   59.3251   15.1147 O   0  0  0  0  0  0  0  0  0  0  0  0
   31.5828   62.7699   18.7181 O   0  0  0  0  0  0  0  0  0  0  0  0
   38.1254   54.2611   19.6981 O   0  0  0  0  0  0  0  0  0  0  0  0
   34.5341   53.1508   16.6378 O   0  0  0  0  0  0  0  0  0  0  0  0
   36.1010   58.0200   18.9471 S   0  0  0  0  0  0  0  0  0  0  0  0
  1 34  2  0
  1 35  1  0
 36  1  1  0
  3  2  1  0
 33  2  1  0
 38  3  1  0
  5  4  1  0
  4 38  1  0
  4 43  2  0
 39  5  1  0
  6  7  1  0
 39  6  1  0
  7  8  2  0
  7 13  1  0
  8  9  1  0
  9 10  2  0
 11 10  1  0
 13 11  2  0
 23 12  1  0
 12 36  1  0
 13 14  1  0
 14 44  1  0
 16 15  1  0
 15 39  1  0
 16 17  1  0
 21 16  2  0
 17 18  2  0
 19 18  1  0
 20 19  2  0
 21 20  1  0
 22 21  1  0
 28 23  1  0
 25 24  1  0
 25 26  1  1
 41 25  1  0
 26 40  1  0
 26 45  2  0
 29 27  1  0
 27 41  1  0
 27 46  2  0
 29 28  1  6
 37 29  1  0
 31 30  1  0
 30 37  1  0
 30 42  2  0
 32 31  1  6
 32 33  1  0
 38 32  1  0
 47 22  1  0
 24 47  1  0
M  CHG  1  34   1
M  END
$$$$
