
     RDKit          3D

 47 50  0  0  0  0  0  0  0  0999 V2000
   38.1823   48.3738   15.0939 C   0  0  0  0  0  0  0  0  0  0  0  0
   35.6086   54.3757   20.3346 C   0  0  0  0  0  0  0  0  0  0  0  0
   34.2608   55.0221   20.1010 C   0  0  0  0  0  0  0  0  0  0  0  0
   33.9429   57.5693   19.6692 C   0  0  0  0  0  0  0  0  0  0  0  0
   33.6126   58.4721   18.5411 C   0  0  0  0  0  0  0  0  0  0  0  0
   31.4364   59.5386   18.4770 C   0  0  0  0  0  0  0  0  0  0  0  0
   30.9335   59.7061   19.8528 C   0  0  0  0  0  0  0  0  0  0  0  0
   30.1000   60.7653   20.1324 C   0  0  0  0  0  0  0  0  0  0  0  0
   29.5931   60.9818   21.4068 C   0  0  0  0  0  0  0  0  0  0  0  0
   29.9228   60.1228   22.4326 C   0  0  0  0  0  0  0  0  0  0  0  0
   30.7670   59.0542   22.1372 C   0  0  0  0  0  0  0  0  0  0  0  0
   36.3130   49.9227   14.5772 C   0  0  0  0  0  0  0  0  0  0  0  0
   31.2689   58.8416   20.8710 C   0  0  0  0  0  0  0  0  0  0  0  0
   32.1713   57.6702   20.6215 C   0  0  0  0  0  0  0  0  0  0  0  0
   31.9588   57.6131   17.1043 C   0  0  0  0  0  0  0  0  0  0  0  0
   31.6499   58.4223   15.9007 C   0  0  0  0  0  0  0  0  0  0  0  0
   32.4665   59.4575   15.5506 C   0  0  0  0  0  0  0  0  0  0  0  0
   32.1847   60.2065   14.4369 C   0  0  0  0  0  0  0  0  0  0  0  0
   31.0740   59.9079   13.6751 C   0  0  0  0  0  0  0  0  0  0  0  0
   30.2553   58.8518   14.0466 C   0  0  0  0  0  0  0  0  0  0  0  0
   30.5416   58.1019   15.1657 C   0  0  0  0  0  0  0  0  0  0  0  0
   29.6537   56.9837   15.5359 C   0  0  0  0  0  0  0  0  0  0  0  0
   36.7592   51.3625   14.4444 C   0  0  0  0  0  0  0  0  0  0  0  0
   31.8417   55.6537   14.1296 C   0  0  0  0  0  0  0  0  0  0  0  0
   32.6020   54.3354   13.9286 C   0  0  1  0  0  0  0  0  0  0  0  0
   31.9218   53.6740   12.7626 C   0  0  0  0  0  0  0  0  0  0  0  0
   35.0747   54.5055   14.2451 C   0  0  0  0  0  0  0  0  0  0  0  0
   35.5192   52.1630   14.1141 C   0  0  0  0  0  0  0  0  0  0  0  0
   35.2442   53.2845   15.0906 C   0  0  1  0  0  0  0  0  0  0  0  0
   36.5206   54.6374   16.8084 C   0  0  0  0  0  0  0  0  0  0  0  0
   35.3835   55.3326   17.4645 C   0  0  0  0  0  0  0  0  0  0  0  0
   35.7505   56.0809   18.6972 C   0  0  2  0  0  0  0  0  0  0  0  0
   36.5912   55.2749   19.6611 C   0  0  0  0  0  0  0  0  0  0  0  0
   39.4544   48.4702   15.0089 N   0  0  0  0  0  4  0  0  0  0  0  0
   37.5716   47.6005   16.1582 N   0  0  0  0  0  0  0  0  0  0  0  0
   37.2861   48.9695   14.1727 N   0  0  0  0  0  0  0  0  0  0  0  0
   36.3502   53.4761   16.0181 N   0  0  0  0  0  0  0  0  0  0  0  0
   34.5812   56.3193   19.5131 N   0  0  0  0  0  0  0  0  0  0  0  0
   32.2087   58.3602   18.2868 N   0  0  0  0  0  0  0  0  0  0  0  0
   31.4747   52.3245   12.8123 N   0  0  0  0  0  0  0  0  0  0  0  0
   33.9245   54.7180   13.4818 N   0  0  0  0  0  0  0  0  0  0  0  0
   37.7146   55.0783   16.9415 O   0  0  0  0  0  0  0  0  0  0  0  0
   33.6150   57.9817   20.8332 O   0  0  0  0  0  0  0  0  0  0  0  0
   33.4210   57.8938   21.1687 O   0  0  0  0  0  0  0  0  0  0  0  0
   31.7206   54.2976   11.6856 O   0  0  0  0  0  0  0  0  0  0  0  0
   36.0169   55.3341   14.2526 O   0  0  0  0  0  0  0  0  0  0  0  0
   30.5066   55.3773   15.3165 S   0  0  0  0  0  0  0  0  0  0  0  0
  1 34  2  0
  1 35  1  0
 36  1  1  0
  3  2  1  0
 33  2  1  0
 38  3  1  0
  5  4  1  0
  4 38  1  0
  4 43  2  0
 39  5  1  0
  6  7  1  0
 39  6  1  0
  7  8  2  0
  7 13  1  0
  8  9  1  0
  9 10  2  0
 11 10  1  0
 13 11  2  0
 23 12  1  0
 12 36  1  0
 13 14  1  0
 14 44  1  0
 16 15  1  0
 15 39  1  0
 16 17  1  0
 21 16  2  0
 17 18  2  0
 19 18  1  0
 20 19  2  0
 21 20  1  0
 22 21  1  0
 28 23  1  0
 25 24  1  0
 25 26  1  6
 41 25  1  0
 26 40  1  0
 26 45  2  0
 29 27  1  0
 27 41  1  0
 27 46  2  0
 29 28  1  6
 37 29  1  0
 31 30  1  0
 30 37  1  0
 30 42  2  0
 32 31  1  6
 32 33  1  0
 38 32  1  0
 47 22  1  0
 24 47  1  0
M  CHG  1  34   1
M  END
$$$$
