
     RDKit          3D

 47 50  0  0  0  0  0  0  0  0999 V2000
   37.6853   49.6922   14.8669 C   0  0  0  0  0  0  0  0  0  0  0  0
   31.1004   56.5248   13.9553 C   0  0  0  0  0  0  0  0  0  0  0  0
   32.5396   56.8583   14.2778 C   0  0  0  0  0  0  0  0  0  0  0  0
   33.3613   58.0814   16.4527 C   0  0  0  0  0  0  0  0  0  0  0  0
   32.8993   58.9694   17.5319 C   0  0  0  0  0  0  0  0  0  0  0  0
   32.0830   58.6362   19.7408 C   0  0  0  0  0  0  0  0  0  0  0  0
   31.8347   59.9722   20.3043 C   0  0  0  0  0  0  0  0  0  0  0  0
   32.0344   61.1184   19.5345 C   0  0  0  0  0  0  0  0  0  0  0  0
   31.8030   62.3759   20.0509 C   0  0  0  0  0  0  0  0  0  0  0  0
   31.3627   62.5518   21.3546 C   0  0  0  0  0  0  0  0  0  0  0  0
   31.1605   61.4273   22.1282 C   0  0  0  0  0  0  0  0  0  0  0  0
   36.5962   51.4156   13.4741 C   0  0  0  0  0  0  0  0  0  0  0  0
   31.3952   60.1654   21.6027 C   0  0  0  0  0  0  0  0  0  0  0  0
   31.1560   59.0056   22.4857 C   0  0  0  0  0  0  0  0  0  0  0  0
   33.9371   57.3341   18.9535 C   0  0  0  0  0  0  0  0  0  0  0  0
   35.3585   57.4540   19.3326 C   0  0  0  0  0  0  0  0  0  0  0  0
   36.1695   58.5072   18.9703 C   0  0  0  0  0  0  0  0  0  0  0  0
   37.4955   58.6272   19.3173 C   0  0  0  0  0  0  0  0  0  0  0  0
   38.0682   57.6354   20.0791 C   0  0  0  0  0  0  0  0  0  0  0  0
   37.3123   56.5726   20.4643 C   0  0  0  0  0  0  0  0  0  0  0  0
   35.9831   56.4724   20.1047 C   0  0  0  0  0  0  0  0  0  0  0  0
   35.1901   55.3051   20.5384 C   0  0  0  0  0  0  0  0  0  0  0  0
   35.8739   52.7079   13.8103 C   0  0  0  0  0  0  0  0  0  0  0  0
   36.2796   53.4464   18.5320 C   0  0  0  0  0  0  0  0  0  0  0  0
   36.0559   53.0581   17.0814 C   0  0  1  0  0  0  0  0  0  0  0  0
   37.2340   52.3604   16.5229 C   0  0  0  0  0  0  0  0  0  0  0  0
   33.7244   52.4684   16.3325 C   0  0  0  0  0  0  0  0  0  0  0  0
   34.4017   52.3423   13.9531 C   0  0  0  0  0  0  0  0  0  0  0  0
   33.7429   53.1777   15.0282 C   0  0  1  0  0  0  0  0  0  0  0  0
   31.4265   54.0542   15.5085 C   0  0  0  0  0  0  0  0  0  0  0  0
   31.7983   55.0223   16.5369 C   0  0  0  0  0  0  0  0  0  0  0  0
   31.4421   56.4421   16.2642 C   0  0  2  0  0  0  0  0  0  0  0  0
   30.3537   56.6197   15.2410 C   0  0  0  0  0  0  0  0  0  0  0  0
   38.6486   49.7003   14.0382 N   0  0  0  0  0  4  0  0  0  0  0  0
   37.6252   48.8651   16.0169 N   0  0  0  0  0  0  0  0  0  0  0  0
   36.5824   50.5658   14.6438 N   0  0  0  0  0  0  0  0  0  0  0  0
   32.3597   53.4156   14.6289 N   0  0  0  0  0  0  0  0  0  0  0  0
   32.5373   57.2078   15.6887 N   0  0  0  0  0  0  0  0  0  0  0  0
   33.2298   58.5688   18.8573 N   0  0  0  0  0  0  0  0  0  0  0  0
   37.6513   52.5847   15.1930 N   0  0  0  0  0  0  0  0  0  0  0  0
   34.8919   52.1766   17.0767 N   0  0  0  0  0  0  0  0  0  0  0  0
   30.2159   53.7442   15.3658 O   0  0  0  0  0  0  0  0  0  0  0  0
   34.5986   58.0889   16.1714 O   0  0  0  0  0  0  0  0  0  0  0  0
   32.1662   58.9549   23.4327 O   0  0  0  0  0  0  0  0  0  0  0  0
   37.8647   51.5600   17.2499 O   0  0  0  0  0  0  0  0  0  0  0  0
   32.6260   52.0778   16.8581 O   0  0  0  0  0  0  0  0  0  0  0  0
   34.7811   54.3340   19.0701 S   0  0  0  0  0  0  0  0  0  0  0  0
  1 34  2  0
  1 35  1  0
 36  1  1  0
  2  3  1  1
 33  2  1  1
  3 38  1  6
  5  4  1  0
  4 38  1  0
  4 43  2  0
  5 39  1  6
  6  7  1  0
  6 39  1  6
  7  8  2  0
  7 13  1  0
  8  9  1  0
  9 10  2  0
 11 10  1  0
 13 11  2  0
 23 12  1  1
 12 36  1  6
 13 14  1  0
 14 44  1  6
 16 15  1  0
 15 39  1  6
 16 17  1  0
 21 16  2  0
 17 18  2  0
 19 18  1  0
 20 19  2  0
 21 20  1  0
 22 21  1  0
 28 23  1  0
 25 24  1  0
 25 26  1  1
 41 25  1  0
 26 40  1  0
 26 45  2  0
 29 27  1  0
 27 41  1  0
 27 46  2  0
 28 29  1  6
 29 37  1  6
 31 30  1  1
 30 37  1  0
 30 42  2  0
 32 31  1  0
 32 33  1  0
 32 38  1  6
 22 47  1  6
 24 47  1  6
M  CHG  1  34   1
M  END
$$$$
