
     RDKit          3D

 47 50  0  0  0  0  0  0  0  0999 V2000
   37.1799   49.0759   15.7225 C   0  0  0  0  0  0  0  0  0  0  0  0
   31.1957   55.7176   14.3587 C   0  0  0  0  0  0  0  0  0  0  0  0
   32.5221   55.9957   13.6879 C   0  0  0  0  0  0  0  0  0  0  0  0
   33.8339   58.2686   13.8074 C   0  0  0  0  0  0  0  0  0  0  0  0
   33.6484   59.7055   14.0671 C   0  0  0  0  0  0  0  0  0  0  0  0
   33.8862   61.1073   15.9737 C   0  0  0  0  0  0  0  0  0  0  0  0
   32.5069   60.6807   16.2556 C   0  0  0  0  0  0  0  0  0  0  0  0
   32.2557   59.5483   17.0306 C   0  0  0  0  0  0  0  0  0  0  0  0
   30.9672   59.1398   17.3035 C   0  0  0  0  0  0  0  0  0  0  0  0
   29.8702   59.8375   16.8193 C   0  0  0  0  0  0  0  0  0  0  0  0
   30.1030   60.9600   16.0513 C   0  0  0  0  0  0  0  0  0  0  0  0
   36.3533   50.8495   14.2168 C   0  0  0  0  0  0  0  0  0  0  0  0
   31.4014   61.3653   15.7805 C   0  0  0  0  0  0  0  0  0  0  0  0
   31.5773   62.5768   14.9539 C   0  0  0  0  0  0  0  0  0  0  0  0
   35.5190   59.4037   15.5441 C   0  0  0  0  0  0  0  0  0  0  0  0
   36.9023   59.5721   15.0574 C   0  0  0  0  0  0  0  0  0  0  0  0
   37.2299   59.9636   13.7777 C   0  0  0  0  0  0  0  0  0  0  0  0
   38.5156   60.1218   13.3143 C   0  0  0  0  0  0  0  0  0  0  0  0
   39.5597   59.8762   14.1754 C   0  0  0  0  0  0  0  0  0  0  0  0
   39.2925   59.4867   15.4506 C   0  0  0  0  0  0  0  0  0  0  0  0
   37.9941   59.3343   15.8947 C   0  0  0  0  0  0  0  0  0  0  0  0
   37.7379   58.9093   17.2851 C   0  0  0  0  0  0  0  0  0  0  0  0
   36.1147   52.3142   14.5372 C   0  0  0  0  0  0  0  0  0  0  0  0
   38.3357   56.0614   16.8381 C   0  0  0  0  0  0  0  0  0  0  0  0
   37.6483   54.8072   16.3290 C   0  0  1  0  0  0  0  0  0  0  0  0
   38.6322   53.7761   15.9348 C   0  0  0  0  0  0  0  0  0  0  0  0
   35.4206   54.1644   17.3131 C   0  0  0  0  0  0  0  0  0  0  0  0
   35.0988   52.3365   15.6724 C   0  0  0  0  0  0  0  0  0  0  0  0
   34.7495   53.7583   16.0524 C   0  0  1  0  0  0  0  0  0  0  0  0
   32.6836   55.0057   16.7881 C   0  0  0  0  0  0  0  0  0  0  0  0
   33.1980   56.3586   16.5923 C   0  0  0  0  0  0  0  0  0  0  0  0
   32.4412   57.2197   15.6421 C   0  0  2  0  0  0  0  0  0  0  0  0
   31.0259   56.7724   15.3970 C   0  0  0  0  0  0  0  0  0  0  0  0
   38.1769   48.4959   16.2559 N   0  0  0  0  0  4  0  0  0  0  0  0
   35.8658   48.5445   15.6930 N   0  0  0  0  0  0  0  0  0  0  0  0
   37.3745   50.3464   15.1083 N   0  0  0  0  0  0  0  0  0  0  0  0
   33.3083   53.8244   16.2716 N   0  0  0  0  0  0  0  0  0  0  0  0
   33.0025   57.2235   14.2998 N   0  0  0  0  0  0  0  0  0  0  0  0
   34.5650   60.3007   14.9792 N   0  0  0  0  0  0  0  0  0  0  0  0
   39.3263   53.8618   14.7085 N   0  0  0  0  0  0  0  0  0  0  0  0
   36.8210   54.3269   17.4322 N   0  0  0  0  0  0  0  0  0  0  0  0
   31.6262   54.8403   17.4487 O   0  0  0  0  0  0  0  0  0  0  0  0
   34.8162   57.9219   13.0828 O   0  0  0  0  0  0  0  0  0  0  0  0
   30.8753   63.6179   15.5399 O   0  0  0  0  0  0  0  0  0  0  0  0
   38.8457   52.8156   16.7086 O   0  0  0  0  0  0  0  0  0  0  0  0
   34.7486   54.3918   18.3772 O   0  0  0  0  0  0  0  0  0  0  0  0
   37.0154   57.2534   17.2364 S   0  0  0  0  0  0  0  0  0  0  0  0
  1 34  2  0
  1 35  1  0
 36  1  1  0
  2  3  1  1
 33  2  1  1
  3 38  1  6
  5  4  1  0
  4 38  1  0
  4 43  2  0
  5 39  1  6
  6  7  1  0
  6 39  1  6
  7  8  2  0
  7 13  1  0
  8  9  1  0
  9 10  2  0
 11 10  1  0
 13 11  2  0
 23 12  1  1
 12 36  1  6
 13 14  1  0
 14 44  1  6
 16 15  1  0
 15 39  1  6
 16 17  1  0
 21 16  2  0
 17 18  2  0
 19 18  1  0
 20 19  2  0
 21 20  1  0
 22 21  1  0
 28 23  1  0
 25 24  1  0
 25 26  1  1
 41 25  1  0
 26 40  1  0
 26 45  2  0
 29 27  1  0
 27 41  1  0
 27 46  2  0
 28 29  1  6
 29 37  1  1
 31 30  1  1
 30 37  1  0
 30 42  2  0
 32 31  1  0
 32 33  1  0
 32 38  1  6
 22 47  1  6
 24 47  1  6
M  CHG  1  34   1
M  END
$$$$
