
     RDKit          3D

 47 50  0  0  0  0  0  0  0  0999 V2000
   36.5491   49.1868   17.4278 C   0  0  0  0  0  0  0  0  0  0  0  0
   33.6008   53.3709   11.3713 C   0  0  0  0  0  0  0  0  0  0  0  0
   34.6848   54.2632   11.9328 C   0  0  0  0  0  0  0  0  0  0  0  0
   34.6050   56.8882   11.9968 C   0  0  0  0  0  0  0  0  0  0  0  0
   33.9636   58.0476   11.3558 C   0  0  0  0  0  0  0  0  0  0  0  0
   32.0683   59.3974   11.8482 C   0  0  0  0  0  0  0  0  0  0  0  0
   31.9318   59.7840   10.4354 C   0  0  0  0  0  0  0  0  0  0  0  0
   32.5326   60.9473    9.9539 C   0  0  0  0  0  0  0  0  0  0  0  0
   32.4136   61.3189    8.6313 C   0  0  0  0  0  0  0  0  0  0  0  0
   31.6929   60.5521    7.7273 C   0  0  0  0  0  0  0  0  0  0  0  0
   31.0932   59.3983    8.1890 C   0  0  0  0  0  0  0  0  0  0  0  0
   36.7204   50.9466   15.7044 C   0  0  0  0  0  0  0  0  0  0  0  0
   31.2167   59.0303    9.5205 C   0  0  0  0  0  0  0  0  0  0  0  0
   30.5509   57.7822    9.9458 C   0  0  0  0  0  0  0  0  0  0  0  0
   33.5338   58.7201   13.6220 C   0  0  0  0  0  0  0  0  0  0  0  0
   34.5064   59.5464   14.3634 C   0  0  0  0  0  0  0  0  0  0  0  0
   35.6737   60.0396   13.8226 C   0  0  0  0  0  0  0  0  0  0  0  0
   36.5870   60.8091   14.5058 C   0  0  0  0  0  0  0  0  0  0  0  0
   36.3331   61.1175   15.8220 C   0  0  0  0  0  0  0  0  0  0  0  0
   35.1947   60.6560   16.4055 C   0  0  0  0  0  0  0  0  0  0  0  0
   34.2917   59.8851   15.7010 C   0  0  0  0  0  0  0  0  0  0  0  0
   33.0655   59.3990   16.3640 C   0  0  0  0  0  0  0  0  0  0  0  0
   35.2477   51.2405   15.4821 C   0  0  0  0  0  0  0  0  0  0  0  0
   34.3752   57.2153   17.8418 C   0  0  0  0  0  0  0  0  0  0  0  0
   34.8224   55.7816   17.6198 C   0  0  1  0  0  0  0  0  0  0  0  0
   35.8251   55.3685   18.6251 C   0  0  0  0  0  0  0  0  0  0  0  0
   33.1676   54.1291   16.6844 C   0  0  0  0  0  0  0  0  0  0  0  0
   34.8942   52.3693   16.4424 C   0  0  0  0  0  0  0  0  0  0  0  0
   34.0815   53.4355   15.7419 C   0  0  1  0  0  0  0  0  0  0  0  0
   32.2712   53.5045   13.9861 C   0  0  0  0  0  0  0  0  0  0  0  0
   32.3444   54.9333   13.6928 C   0  0  0  0  0  0  0  0  0  0  0  0
   32.6543   55.3013   12.2836 C   0  0  2  0  0  0  0  0  0  0  0  0
   32.3738   54.2114   11.2853 C   0  0  0  0  0  0  0  0  0  0  0  0
   35.9960   48.4488   16.5536 N   0  0  0  0  0  4  0  0  0  0  0  0
   36.8484   48.7743   18.7508 N   0  0  0  0  0  0  0  0  0  0  0  0
   36.9005   50.5215   17.0746 N   0  0  0  0  0  0  0  0  0  0  0  0
   33.2638   52.7825   14.7249 N   0  0  0  0  0  0  0  0  0  0  0  0
   34.0660   55.5724   12.0589 N   0  0  0  0  0  0  0  0  0  0  0  0
   33.4146   59.0245   12.2338 N   0  0  0  0  0  0  0  0  0  0  0  0
   35.9554   54.0171   19.0121 N   0  0  0  0  0  0  0  0  0  0  0  0
   33.6187   54.9632   17.7344 N   0  0  0  0  0  0  0  0  0  0  0  0
   31.2837   52.8429   13.5748 O   0  0  0  0  0  0  0  0  0  0  0  0
   35.7363   57.0670   12.5431 O   0  0  0  0  0  0  0  0  0  0  0  0
   31.4902   56.7637    9.9634 O   0  0  0  0  0  0  0  0  0  0  0  0
   36.5655   56.2394   19.1352 O   0  0  0  0  0  0  0  0  0  0  0  0
   31.8985   54.0024   16.5898 O   0  0  0  0  0  0  0  0  0  0  0  0
   33.1889   57.6020   16.5129 S   0  0  0  0  0  0  0  0  0  0  0  0
  1 34  2  0
  1 35  1  0
 36  1  1  0
  2  3  1  1
 33  2  1  1
  3 38  1  6
  5  4  1  0
  4 38  1  0
  4 43  2  0
  5 39  1  6
  6  7  1  0
  6 39  1  6
  7  8  2  0
  7 13  1  0
  8  9  1  0
  9 10  2  0
 11 10  1  0
 13 11  2  0
 23 12  1  1
 12 36  1  6
 13 14  1  0
 14 44  1  6
 16 15  1  0
 15 39  1  6
 16 17  1  0
 21 16  2  0
 17 18  2  0
 19 18  1  0
 20 19  2  0
 21 20  1  0
 22 21  1  0
 28 23  1  0
 25 24  1  0
 25 26  1  1
 41 25  1  0
 26 40  1  0
 26 45  2  0
 29 27  1  0
 27 41  1  0
 27 46  2  0
 28 29  1  6
 29 37  1  6
 31 30  1  1
 30 37  1  0
 30 42  2  0
 32 31  1  0
 32 33  1  0
 32 38  1  1
 22 47  1  6
 24 47  1  6
M  CHG  1  34   1
M  END
$$$$
