
     RDKit          3D

 47 50  0  0  0  0  0  0  0  0999 V2000
   35.8682   49.5295   15.0360 C   0  0  0  0  0  0  0  0  0  0  0  0
   31.0015   56.0520   15.1910 C   0  0  0  0  0  0  0  0  0  0  0  0
   31.7116   57.1556   15.9438 C   0  0  0  0  0  0  0  0  0  0  0  0
   32.1026   57.1204   18.5170 C   0  0  0  0  0  0  0  0  0  0  0  0
   33.2221   56.9226   19.4679 C   0  0  0  0  0  0  0  0  0  0  0  0
   34.0799   58.8268   20.6989 C   0  0  0  0  0  0  0  0  0  0  0  0
   32.7767   58.9809   21.3712 C   0  0  0  0  0  0  0  0  0  0  0  0
   32.6994   58.7698   22.7292 C   0  0  0  0  0  0  0  0  0  0  0  0
   31.5033   58.8961   23.4231 C   0  0  0  0  0  0  0  0  0  0  0  0
   30.3516   59.2415   22.7501 C   0  0  0  0  0  0  0  0  0  0  0  0
   30.4425   59.4528   21.3757 C   0  0  0  0  0  0  0  0  0  0  0  0
   36.5554   51.4669   13.6451 C   0  0  0  0  0  0  0  0  0  0  0  0
   31.6313   59.3267   20.6893 C   0  0  0  0  0  0  0  0  0  0  0  0
   31.6591   59.5703   19.2099 C   0  0  0  0  0  0  0  0  0  0  0  0
   35.2343   57.9241   18.7710 C   0  0  0  0  0  0  0  0  0  0  0  0
   36.4195   57.6825   19.6287 C   0  0  0  0  0  0  0  0  0  0  0  0
   36.3679   56.7322   20.6061 C   0  0  0  0  0  0  0  0  0  0  0  0
   37.4631   56.5050   21.3997 C   0  0  0  0  0  0  0  0  0  0  0  0
   38.6136   57.2407   21.2044 C   0  0  0  0  0  0  0  0  0  0  0  0
   38.6474   58.2026   20.2058 C   0  0  0  0  0  0  0  0  0  0  0  0
   37.5455   58.4279   19.4108 C   0  0  0  0  0  0  0  0  0  0  0  0
   37.6108   59.4567   18.3557 C   0  0  0  0  0  0  0  0  0  0  0  0
   37.6029   52.5515   13.5176 C   0  0  0  0  0  0  0  0  0  0  0  0
   38.1125   56.9772   16.8947 C   0  0  0  0  0  0  0  0  0  0  0  0
   38.0664   56.2816   15.5269 C   0  0  1  0  0  0  0  0  0  0  0  0
   39.4379   56.4854   14.9464 C   0  0  0  0  0  0  0  0  0  0  0  0
   36.7974   54.1294   15.5002 C   0  0  0  0  0  0  0  0  0  0  0  0
   36.8632   53.8137   13.1342 C   0  0  0  0  0  0  0  0  0  0  0  0
   36.0167   54.3826   14.2508 C   0  0  1  0  0  0  0  0  0  0  0  0
   33.8693   53.8078   15.4626 C   0  0  0  0  0  0  0  0  0  0  0  0
   33.6771   55.0665   16.2275 C   0  0  0  0  0  0  0  0  0  0  0  0
   32.3626   55.1709   16.9173 C   0  0  2  0  0  0  0  0  0  0  0  0
   31.1888   54.8302   16.0276 C   0  0  0  0  0  0  0  0  0  0  0  0
   36.1032   48.6579   15.9415 N   0  0  0  0  0  4  0  0  0  0  0  0
   34.7393   49.3738   14.1389 N   0  0  0  0  0  0  0  0  0  0  0  0
   36.6769   50.6716   14.8164 N   0  0  0  0  0  0  0  0  0  0  0  0
   34.7213   53.7232   14.3360 N   0  0  0  0  0  0  0  0  0  0  0  0
   32.0596   56.5504   17.2258 N   0  0  0  0  0  0  0  0  0  0  0  0
   34.0119   58.1160   19.4696 N   0  0  0  0  0  0  0  0  0  0  0  0
   39.7865   57.6579   14.2203 N   0  0  0  0  0  0  0  0  0  0  0  0
   37.9386   54.8694   15.8174 N   0  0  0  0  0  0  0  0  0  0  0  0
   33.2563   52.7387   15.8077 O   0  0  0  0  0  0  0  0  0  0  0  0
   31.1410   57.8553   18.9266 O   0  0  0  0  0  0  0  0  0  0  0  0
   31.0319   58.5394   18.5353 O   0  0  0  0  0  0  0  0  0  0  0  0
   40.3397   55.6150   15.0826 O   0  0  0  0  0  0  0  0  0  0  0  0
   36.3787   53.2178   16.2539 O   0  0  0  0  0  0  0  0  0  0  0  0
   37.5601   58.6866   16.6941 S   0  0  0  0  0  0  0  0  0  0  0  0
  1 34  2  0
  1 35  1  0
 36  1  1  0
  3  2  1  0
 33  2  1  0
 38  3  1  0
  5  4  1  0
  4 38  1  0
  4 43  2  0
 39  5  1  0
  6  7  1  0
 39  6  1  0
  7  8  2  0
  7 13  1  0
  8  9  1  0
  9 10  2  0
 11 10  1  0
 13 11  2  0
 23 12  1  0
 12 36  1  0
 13 14  1  0
 14 44  1  0
 16 15  1  0
 15 39  1  0
 16 17  1  0
 21 16  2  0
 17 18  2  0
 19 18  1  0
 20 19  2  0
 21 20  1  0
 22 21  1  0
 28 23  1  0
 25 24  1  0
 25 26  1  1
 41 25  1  0
 26 40  1  0
 26 45  2  0
 29 27  1  0
 27 41  1  0
 27 46  2  0
 29 28  1  6
 37 29  1  0
 31 30  1  0
 30 37  1  0
 30 42  2  0
 32 31  1  6
 32 33  1  0
 38 32  1  0
 47 22  1  0
 24 47  1  0
M  CHG  1  34   1
M  END
$$$$
