
     RDKit          3D

 47 50  0  0  0  0  0  0  0  0999 V2000
   35.4222   49.6736   15.4862 C   0  0  0  0  0  0  0  0  0  0  0  0
   30.6025   55.5514   15.1461 C   0  0  0  0  0  0  0  0  0  0  0  0
   31.2943   56.7322   15.7909 C   0  0  0  0  0  0  0  0  0  0  0  0
   31.8811   56.8478   18.3243 C   0  0  0  0  0  0  0  0  0  0  0  0
   33.0800   56.7661   19.1917 C   0  0  0  0  0  0  0  0  0  0  0  0
   33.9030   58.7777   20.2657 C   0  0  0  0  0  0  0  0  0  0  0  0
   32.8727   58.4750   21.2759 C   0  0  0  0  0  0  0  0  0  0  0  0
   33.2692   58.0690   22.5300 C   0  0  0  0  0  0  0  0  0  0  0  0
   32.3506   57.7664   23.5263 C   0  0  0  0  0  0  0  0  0  0  0  0
   31.0006   57.8696   23.2708 C   0  0  0  0  0  0  0  0  0  0  0  0
   30.6114   58.2819   21.9978 C   0  0  0  0  0  0  0  0  0  0  0  0
   35.7772   51.5778   13.9343 C   0  0  0  0  0  0  0  0  0  0  0  0
   31.5255   58.5817   21.0104 C   0  0  0  0  0  0  0  0  0  0  0  0
   31.0384   59.0215   19.6621 C   0  0  0  0  0  0  0  0  0  0  0  0
   34.9640   57.8538   18.2946 C   0  0  0  0  0  0  0  0  0  0  0  0
   36.2241   57.7280   19.0659 C   0  0  0  0  0  0  0  0  0  0  0  0
   36.3089   56.8256   20.0855 C   0  0  0  0  0  0  0  0  0  0  0  0
   37.4735   56.7055   20.7995 C   0  0  0  0  0  0  0  0  0  0  0  0
   38.5556   57.5000   20.4817 C   0  0  0  0  0  0  0  0  0  0  0  0
   38.4508   58.4119   19.4419 C   0  0  0  0  0  0  0  0  0  0  0  0
   37.2795   58.5296   18.7271 C   0  0  0  0  0  0  0  0  0  0  0  0
   37.1974   59.5073   17.6256 C   0  0  0  0  0  0  0  0  0  0  0  0
   36.7208   52.1025   12.8741 C   0  0  0  0  0  0  0  0  0  0  0  0
   37.7470   56.9945   16.2408 C   0  0  0  0  0  0  0  0  0  0  0  0
   37.6425   56.2309   14.9132 C   0  0  1  0  0  0  0  0  0  0  0  0
   38.9499   56.4898   14.2177 C   0  0  0  0  0  0  0  0  0  0  0  0
   36.5179   54.0061   15.0820 C   0  0  0  0  0  0  0  0  0  0  0  0
   36.4243   53.5790   12.7344 C   0  0  0  0  0  0  0  0  0  0  0  0
   35.6298   54.1491   13.8881 C   0  0  1  0  0  0  0  0  0  0  0  0
   33.6226   53.5037   15.2898 C   0  0  0  0  0  0  0  0  0  0  0  0
   33.4075   54.7844   16.0109 C   0  0  0  0  0  0  0  0  0  0  0  0
   32.1452   54.8416   16.7969 C   0  0  2  0  0  0  0  0  0  0  0  0
   30.9319   54.3860   16.0186 C   0  0  0  0  0  0  0  0  0  0  0  0
   35.2593   48.4153   15.6442 N   0  0  0  0  0  4  0  0  0  0  0  0
   34.9301   50.6104   16.4782 N   0  0  0  0  0  0  0  0  0  0  0  0
   36.0511   50.2483   14.3545 N   0  0  0  0  0  0  0  0  0  0  0  0
   34.3903   53.4162   14.1043 N   0  0  0  0  0  0  0  0  0  0  0  0
   31.7773   56.2133   17.0669 N   0  0  0  0  0  0  0  0  0  0  0  0
   33.7883   58.0044   19.0782 N   0  0  0  0  0  0  0  0  0  0  0  0
   39.7601   55.4359   13.7115 N   0  0  0  0  0  0  0  0  0  0  0  0
   37.6294   54.8295   15.2750 N   0  0  0  0  0  0  0  0  0  0  0  0
   33.1085   52.4173   15.7291 O   0  0  0  0  0  0  0  0  0  0  0  0
   30.9075   57.5414   18.7754 O   0  0  0  0  0  0  0  0  0  0  0  0
   30.6897   57.9286   18.8906 O   0  0  0  0  0  0  0  0  0  0  0  0
   39.3814   57.6632   14.0561 O   0  0  0  0  0  0  0  0  0  0  0  0
   36.2178   53.1087   15.9060 O   0  0  0  0  0  0  0  0  0  0  0  0
   37.0709   58.6548   16.0090 S   0  0  0  0  0  0  0  0  0  0  0  0
  1 34  2  0
  1 35  1  0
 36  1  1  0
  3  2  1  0
 33  2  1  0
 38  3  1  0
  5  4  1  0
  4 38  1  0
  4 43  2  0
 39  5  1  0
  6  7  1  0
 39  6  1  0
  7  8  2  0
  7 13  1  0
  8  9  1  0
  9 10  2  0
 11 10  1  0
 13 11  2  0
 23 12  1  0
 12 36  1  0
 13 14  1  0
 14 44  1  0
 16 15  1  0
 15 39  1  0
 16 17  1  0
 21 16  2  0
 17 18  2  0
 19 18  1  0
 20 19  2  0
 21 20  1  0
 22 21  1  0
 28 23  1  0
 25 24  1  0
 25 26  1  6
 41 25  1  0
 26 40  1  0
 26 45  2  0
 29 27  1  0
 27 41  1  0
 27 46  2  0
 29 28  1  6
 37 29  1  0
 31 30  1  0
 30 37  1  0
 30 42  2  0
 32 31  1  6
 32 33  1  0
 38 32  1  0
 47 22  1  0
 24 47  1  0
M  CHG  1  34   1
M  END
$$$$
