
     RDKit          3D

 47 50  0  0  0  0  0  0  0  0999 V2000
   35.9953   48.8116   15.3382 C   0  0  0  0  0  0  0  0  0  0  0  0
   31.5225   56.7213   13.5981 C   0  0  0  0  0  0  0  0  0  0  0  0
   32.0745   57.7039   14.6073 C   0  0  0  0  0  0  0  0  0  0  0  0
   31.3626   57.7469   17.1108 C   0  0  0  0  0  0  0  0  0  0  0  0
   31.9277   57.3867   18.4327 C   0  0  0  0  0  0  0  0  0  0  0  0
   32.5815   59.1516   19.9609 C   0  0  0  0  0  0  0  0  0  0  0  0
   31.3849   58.6863   20.6858 C   0  0  0  0  0  0  0  0  0  0  0  0
   31.4590   58.5108   22.0490 C   0  0  0  0  0  0  0  0  0  0  0  0
   30.3702   58.0731   22.7913 C   0  0  0  0  0  0  0  0  0  0  0  0
   29.1743   57.8019   22.1628 C   0  0  0  0  0  0  0  0  0  0  0  0
   29.1115   57.9836   20.7827 C   0  0  0  0  0  0  0  0  0  0  0  0
   36.6230   50.8620   14.0884 C   0  0  0  0  0  0  0  0  0  0  0  0
   30.1940   58.4182   20.0481 C   0  0  0  0  0  0  0  0  0  0  0  0
   30.0573   58.5944   18.5652 C   0  0  0  0  0  0  0  0  0  0  0  0
   34.2086   57.9210   18.6560 C   0  0  0  0  0  0  0  0  0  0  0  0
   34.8611   57.4993   19.9189 C   0  0  0  0  0  0  0  0  0  0  0  0
   34.2187   56.6395   20.7610 C   0  0  0  0  0  0  0  0  0  0  0  0
   34.8204   56.2460   21.9289 C   0  0  0  0  0  0  0  0  0  0  0  0
   36.0752   56.7232   22.2462 C   0  0  0  0  0  0  0  0  0  0  0  0
   36.7130   57.5967   21.3778 C   0  0  0  0  0  0  0  0  0  0  0  0
   36.1055   57.9895   20.2059 C   0  0  0  0  0  0  0  0  0  0  0  0
   36.8082   58.9186   19.3009 C   0  0  0  0  0  0  0  0  0  0  0  0
   37.4400   51.9337   14.7770 C   0  0  0  0  0  0  0  0  0  0  0  0
   37.3375   56.3051   18.1078 C   0  0  0  0  0  0  0  0  0  0  0  0
   37.7115   55.5514   16.8238 C   0  0  1  0  0  0  0  0  0  0  0  0
   39.2101   55.4409   16.8664 C   0  0  0  0  0  0  0  0  0  0  0  0
   36.1484   53.6993   16.2157 C   0  0  0  0  0  0  0  0  0  0  0  0
   37.1089   53.2343   14.0795 C   0  0  0  0  0  0  0  0  0  0  0  0
   36.0180   54.0276   14.7632 C   0  0  1  0  0  0  0  0  0  0  0  0
   33.4949   53.9689   14.9650 C   0  0  0  0  0  0  0  0  0  0  0  0
   33.2722   55.2846   15.6176 C   0  0  0  0  0  0  0  0  0  0  0  0
   31.8437   55.6916   15.7065 C   0  0  2  0  0  0  0  0  0  0  0  0
   31.0936   55.5397   14.4028 C   0  0  0  0  0  0  0  0  0  0  0  0
   37.1676   48.3185   15.4704 N   0  0  0  0  0  4  0  0  0  0  0  0
   34.8210   47.9893   15.5587 N   0  0  0  0  0  0  0  0  0  0  0  0
   35.7457   50.1512   14.9510 N   0  0  0  0  0  0  0  0  0  0  0  0
   34.6952   53.6473   14.2881 N   0  0  0  0  0  0  0  0  0  0  0  0
   31.7342   57.1199   15.9012 N   0  0  0  0  0  0  0  0  0  0  0  0
   32.8764   58.3957   18.7935 N   0  0  0  0  0  0  0  0  0  0  0  0
   39.9606   54.8993   15.7863 N   0  0  0  0  0  0  0  0  0  0  0  0
   37.1865   54.2135   16.9959 N   0  0  0  0  0  0  0  0  0  0  0  0
   32.5874   53.0671   14.9963 O   0  0  0  0  0  0  0  0  0  0  0  0
   30.4929   58.6828   17.1078 O   0  0  0  0  0  0  0  0  0  0  0  0
   29.6178   57.4241   17.9748 O   0  0  0  0  0  0  0  0  0  0  0  0
   39.8641   55.8279   17.8722 O   0  0  0  0  0  0  0  0  0  0  0  0
   35.2792   52.9374   16.7037 O   0  0  0  0  0  0  0  0  0  0  0  0
   37.2829   58.0752   17.7454 S   0  0  0  0  0  0  0  0  0  0  0  0
  1 34  2  0
  1 35  1  0
 36  1  1  0
  3  2  1  0
 33  2  1  0
 38  3  1  0
  5  4  1  0
  4 38  1  0
  4 43  2  0
 39  5  1  0
  6  7  1  0
 39  6  1  0
  7  8  2  0
  7 13  1  0
  8  9  1  0
  9 10  2  0
 11 10  1  0
 13 11  2  0
 23 12  1  0
 12 36  1  0
 13 14  1  0
 14 44  1  0
 16 15  1  0
 15 39  1  0
 16 17  1  0
 21 16  2  0
 17 18  2  0
 19 18  1  0
 20 19  2  0
 21 20  1  0
 22 21  1  0
 28 23  1  0
 25 24  1  0
 25 26  1  1
 41 25  1  0
 26 40  1  0
 26 45  2  0
 29 27  1  0
 27 41  1  0
 27 46  2  0
 29 28  1  6
 37 29  1  0
 31 30  1  0
 30 37  1  0
 30 42  2  0
 32 31  1  6
 32 33  1  0
 38 32  1  0
 47 22  1  0
 24 47  1  0
M  CHG  1  34   1
M  END
$$$$
