
     RDKit          3D

 47 50  0  0  0  0  0  0  0  0999 V2000
   36.3067   49.3236   14.5450 C   0  0  0  0  0  0  0  0  0  0  0  0
   30.5489   57.5346   14.3782 C   0  0  0  0  0  0  0  0  0  0  0  0
   31.3957   58.3384   15.3403 C   0  0  0  0  0  0  0  0  0  0  0  0
   31.1618   58.1934   17.9287 C   0  0  0  0  0  0  0  0  0  0  0  0
   31.9072   57.6356   19.0820 C   0  0  0  0  0  0  0  0  0  0  0  0
   33.0470   59.1464   20.5970 C   0  0  0  0  0  0  0  0  0  0  0  0
   31.8142   58.9628   21.3847 C   0  0  0  0  0  0  0  0  0  0  0  0
   31.6508   57.8005   22.1037 C   0  0  0  0  0  0  0  0  0  0  0  0
   30.5133   57.5635   22.8641 C   0  0  0  0  0  0  0  0  0  0  0  0
   29.5099   58.5067   22.9120 C   0  0  0  0  0  0  0  0  0  0  0  0
   29.6870   59.6793   22.1803 C   0  0  0  0  0  0  0  0  0  0  0  0
   36.6165   51.7553   14.9339 C   0  0  0  0  0  0  0  0  0  0  0  0
   30.8173   59.9120   21.4261 C   0  0  0  0  0  0  0  0  0  0  0  0
   30.9445   61.1970   20.6637 C   0  0  0  0  0  0  0  0  0  0  0  0
   34.2398   57.8905   18.9045 C   0  0  0  0  0  0  0  0  0  0  0  0
   35.0518   57.2686   19.9780 C   0  0  0  0  0  0  0  0  0  0  0  0
   34.4689   56.3998   20.8535 C   0  0  0  0  0  0  0  0  0  0  0  0
   35.2176   55.8214   21.8462 C   0  0  0  0  0  0  0  0  0  0  0  0
   36.5597   56.1222   21.9540 C   0  0  0  0  0  0  0  0  0  0  0  0
   37.1350   57.0077   21.0548 C   0  0  0  0  0  0  0  0  0  0  0  0
   36.3797   57.5867   20.0592 C   0  0  0  0  0  0  0  0  0  0  0  0
   37.0188   58.5239   19.1164 C   0  0  0  0  0  0  0  0  0  0  0  0
   35.6314   51.9488   13.8017 C   0  0  0  0  0  0  0  0  0  0  0  0
   36.9853   56.0095   17.6296 C   0  0  0  0  0  0  0  0  0  0  0  0
   37.0208   55.3598   16.2392 C   0  0  1  0  0  0  0  0  0  0  0  0
   38.4756   55.0822   15.9823 C   0  0  0  0  0  0  0  0  0  0  0  0
   35.1503   53.7647   15.7918 C   0  0  0  0  0  0  0  0  0  0  0  0
   35.6395   53.4264   13.4791 C   0  0  0  0  0  0  0  0  0  0  0  0
   34.8010   54.2574   14.4244 C   0  0  1  0  0  0  0  0  0  0  0  0
   32.3700   54.4538   15.1039 C   0  0  0  0  0  0  0  0  0  0  0  0
   32.4390   55.7093   15.8947 C   0  0  0  0  0  0  0  0  0  0  0  0
   31.1140   56.2584   16.2914 C   0  0  2  0  0  0  0  0  0  0  0  0
   30.1264   56.3283   15.1490 C   0  0  0  0  0  0  0  0  0  0  0  0
   35.5378   49.4734   13.5344 N   0  0  0  0  0  4  0  0  0  0  0  0
   36.6955   47.9973   14.9846 N   0  0  0  0  0  0  0  0  0  0  0  0
   36.8083   50.4004   15.3167 N   0  0  0  0  0  0  0  0  0  0  0  0
   33.3765   54.0765   14.1835 N   0  0  0  0  0  0  0  0  0  0  0  0
   31.2245   57.6613   16.6221 N   0  0  0  0  0  0  0  0  0  0  0  0
   33.0262   58.4908   19.3357 N   0  0  0  0  0  0  0  0  0  0  0  0
   39.2918   55.9635   15.2203 N   0  0  0  0  0  0  0  0  0  0  0  0
   36.3697   54.0767   16.3971 N   0  0  0  0  0  0  0  0  0  0  0  0
   31.3760   53.6584   15.2345 O   0  0  0  0  0  0  0  0  0  0  0  0
   30.4324   59.2139   18.1719 O   0  0  0  0  0  0  0  0  0  0  0  0
   31.1223   62.2605   21.5290 O   0  0  0  0  0  0  0  0  0  0  0  0
   39.0321   54.0466   16.4373 O   0  0  0  0  0  0  0  0  0  0  0  0
   34.2943   53.0549   16.3731 O   0  0  0  0  0  0  0  0  0  0  0  0
   37.0916   57.8034   17.4336 S   0  0  0  0  0  0  0  0  0  0  0  0
  1 34  2  0
  1 35  1  0
 36  1  1  0
  3  2  1  0
 33  2  1  0
 38  3  1  0
  5  4  1  0
  4 38  1  0
  4 43  2  0
 39  5  1  0
  6  7  1  0
 39  6  1  0
  7  8  2  0
  7 13  1  0
  8  9  1  0
  9 10  2  0
 11 10  1  0
 13 11  2  0
 23 12  1  0
 12 36  1  0
 13 14  1  0
 14 44  1  0
 16 15  1  0
 15 39  1  0
 16 17  1  0
 21 16  2  0
 17 18  2  0
 19 18  1  0
 20 19  2  0
 21 20  1  0
 22 21  1  0
 28 23  1  0
 25 24  1  0
 25 26  1  1
 41 25  1  0
 26 40  1  0
 26 45  2  0
 29 27  1  0
 27 41  1  0
 27 46  2  0
 29 28  1  6
 37 29  1  0
 31 30  1  0
 30 37  1  0
 30 42  2  0
 32 31  1  6
 32 33  1  0
 38 32  1  0
 47 22  1  0
 24 47  1  0
M  CHG  1  34   1
M  END
$$$$
