
     RDKit          3D

 47 50  0  0  0  0  0  0  0  0999 V2000
   35.9372   49.0012   14.9022 C   0  0  0  0  0  0  0  0  0  0  0  0
   30.7696   56.7351   13.8763 C   0  0  0  0  0  0  0  0  0  0  0  0
   31.4738   57.7399   14.7613 C   0  0  0  0  0  0  0  0  0  0  0  0
   31.2243   57.7985   17.3517 C   0  0  0  0  0  0  0  0  0  0  0  0
   32.0261   57.4649   18.5528 C   0  0  0  0  0  0  0  0  0  0  0  0
   32.9073   59.2598   19.9235 C   0  0  0  0  0  0  0  0  0  0  0  0
   32.1523   58.5915   20.9991 C   0  0  0  0  0  0  0  0  0  0  0  0
   32.1628   59.1420   22.2607 C   0  0  0  0  0  0  0  0  0  0  0  0
   31.4751   58.5622   23.3185 C   0  0  0  0  0  0  0  0  0  0  0  0
   30.7567   57.4035   23.1184 C   0  0  0  0  0  0  0  0  0  0  0  0
   30.7533   56.8559   21.8370 C   0  0  0  0  0  0  0  0  0  0  0  0
   36.6363   50.9566   13.5428 C   0  0  0  0  0  0  0  0  0  0  0  0
   31.4371   57.4336   20.7886 C   0  0  0  0  0  0  0  0  0  0  0  0
   31.3897   56.7927   19.4337 C   0  0  0  0  0  0  0  0  0  0  0  0
   34.2980   58.0456   18.3562 C   0  0  0  0  0  0  0  0  0  0  0  0
   35.1764   57.6515   19.4839 C   0  0  0  0  0  0  0  0  0  0  0  0
   34.7147   56.7894   20.4351 C   0  0  0  0  0  0  0  0  0  0  0  0
   35.5253   56.4213   21.4782 C   0  0  0  0  0  0  0  0  0  0  0  0
   36.8065   56.9264   21.5598 C   0  0  0  0  0  0  0  0  0  0  0  0
   37.2586   57.8017   20.5835 C   0  0  0  0  0  0  0  0  0  0  0  0
   36.4415   58.1690   19.5375 C   0  0  0  0  0  0  0  0  0  0  0  0
   36.9497   59.1008   18.5130 C   0  0  0  0  0  0  0  0  0  0  0  0
   37.1473   52.2620   14.1126 C   0  0  0  0  0  0  0  0  0  0  0  0
   37.3101   56.4842   17.2651 C   0  0  0  0  0  0  0  0  0  0  0  0
   37.4622   55.7228   15.9407 C   0  0  1  0  0  0  0  0  0  0  0  0
   38.9459   55.6418   15.7130 C   0  0  0  0  0  0  0  0  0  0  0  0
   35.8546   53.8339   15.6398 C   0  0  0  0  0  0  0  0  0  0  0  0
   36.4236   53.3624   13.3691 C   0  0  0  0  0  0  0  0  0  0  0  0
   35.4574   54.1426   14.2321 C   0  0  1  0  0  0  0  0  0  0  0  0
   33.0139   54.0375   14.8866 C   0  0  0  0  0  0  0  0  0  0  0  0
   32.8848   55.3562   15.5581 C   0  0  0  0  0  0  0  0  0  0  0  0
   31.4875   55.7366   15.9002 C   0  0  2  0  0  0  0  0  0  0  0  0
   30.5179   55.5549   14.7547 C   0  0  0  0  0  0  0  0  0  0  0  0
   37.1028   48.4842   14.9972 N   0  0  0  0  0  4  0  0  0  0  0  0
   34.7654   48.2591   15.3264 N   0  0  0  0  0  0  0  0  0  0  0  0
   35.6905   50.2894   14.3672 N   0  0  0  0  0  0  0  0  0  0  0  0
   34.0789   53.7312   14.0067 N   0  0  0  0  0  0  0  0  0  0  0  0
   31.3847   57.1647   16.1000 N   0  0  0  0  0  0  0  0  0  0  0  0
   33.0027   58.4961   18.7281 N   0  0  0  0  0  0  0  0  0  0  0  0
   39.6201   56.4998   14.8004 N   0  0  0  0  0  0  0  0  0  0  0  0
   37.0052   54.3772   16.2156 N   0  0  0  0  0  0  0  0  0  0  0  0
   32.1462   53.1188   15.0886 O   0  0  0  0  0  0  0  0  0  0  0  0
   30.3487   58.7174   17.4983 O   0  0  0  0  0  0  0  0  0  0  0  0
   30.0953   56.7762   18.9484 O   0  0  0  0  0  0  0  0  0  0  0  0
   39.6552   54.8009   16.3287 O   0  0  0  0  0  0  0  0  0  0  0  0
   35.1039   53.0611   16.2829 O   0  0  0  0  0  0  0  0  0  0  0  0
   37.1537   58.2485   16.9042 S   0  0  0  0  0  0  0  0  0  0  0  0
  1 34  2  0
  1 35  1  0
 36  1  1  0
  3  2  1  0
 33  2  1  0
 38  3  1  0
  5  4  1  0
  4 38  1  0
  4 43  2  0
 39  5  1  0
  6  7  1  0
 39  6  1  0
  7  8  2  0
  7 13  1  0
  8  9  1  0
  9 10  2  0
 11 10  1  0
 13 11  2  0
 23 12  1  0
 12 36  1  0
 13 14  1  0
 14 44  1  0
 16 15  1  0
 15 39  1  0
 16 17  1  0
 21 16  2  0
 17 18  2  0
 19 18  1  0
 20 19  2  0
 21 20  1  0
 22 21  1  0
 28 23  1  0
 25 24  1  0
 25 26  1  1
 41 25  1  0
 26 40  1  0
 26 45  2  0
 29 27  1  0
 27 41  1  0
 27 46  2  0
 29 28  1  6
 37 29  1  0
 31 30  1  0
 30 37  1  0
 30 42  2  0
 32 31  1  6
 32 33  1  0
 38 32  1  0
 47 22  1  0
 24 47  1  0
M  CHG  1  34   1
M  END
$$$$
