
     RDKit          3D

 47 50  0  0  0  0  0  0  0  0999 V2000
   36.1001   48.8575   17.2794 C   0  0  0  0  0  0  0  0  0  0  0  0
   32.6046   57.2468   16.7334 C   0  0  0  0  0  0  0  0  0  0  0  0
   31.8909   56.5472   15.5987 C   0  0  0  0  0  0  0  0  0  0  0  0
   31.6230   57.4947   13.1632 C   0  0  0  0  0  0  0  0  0  0  0  0
   31.6396   58.7510   12.3964 C   0  0  0  0  0  0  0  0  0  0  0  0
   33.2840   59.9263   11.1429 C   0  0  0  0  0  0  0  0  0  0  0  0
   32.5632   61.2010   11.2829 C   0  0  0  0  0  0  0  0  0  0  0  0
   31.1805   61.2211   11.4667 C   0  0  0  0  0  0  0  0  0  0  0  0
   30.4942   62.4096   11.6015 C   0  0  0  0  0  0  0  0  0  0  0  0
   31.1499   63.6314   11.5599 C   0  0  0  0  0  0  0  0  0  0  0  0
   32.5178   63.6274   11.3789 C   0  0  0  0  0  0  0  0  0  0  0  0
   35.6821   51.2873   17.4123 C   0  0  0  0  0  0  0  0  0  0  0  0
   33.2021   62.4286   11.2440 C   0  0  0  0  0  0  0  0  0  0  0  0
   34.6654   62.4981   11.0553 C   0  0  0  0  0  0  0  0  0  0  0  0
   33.1379   57.5391   10.9616 C   0  0  0  0  0  0  0  0  0  0  0  0
   32.6237   56.7430    9.8301 C   0  0  0  0  0  0  0  0  0  0  0  0
   31.2951   56.6766    9.4714 C   0  0  0  0  0  0  0  0  0  0  0  0
   30.8061   55.9364    8.4197 C   0  0  0  0  0  0  0  0  0  0  0  0
   31.6914   55.2052    7.6625 C   0  0  0  0  0  0  0  0  0  0  0  0
   33.0150   55.2350    7.9732 C   0  0  0  0  0  0  0  0  0  0  0  0
   33.4841   55.9850    9.0332 C   0  0  0  0  0  0  0  0  0  0  0  0
   34.9271   55.9952    9.3449 C   0  0  0  0  0  0  0  0  0  0  0  0
   35.8135   51.8071   15.9920 C   0  0  0  0  0  0  0  0  0  0  0  0
   34.9597   53.3703   10.6777 C   0  0  0  0  0  0  0  0  0  0  0  0
   34.6706   52.7680   12.0409 C   0  0  1  0  0  0  0  0  0  0  0  0
   34.4499   51.3087   11.9491 C   0  0  0  0  0  0  0  0  0  0  0  0
   35.7582   53.7895   14.0702 C   0  0  0  0  0  0  0  0  0  0  0  0
   34.4476   52.3722   15.6227 C   0  0  0  0  0  0  0  0  0  0  0  0
   34.5861   53.7345   14.9801 C   0  0  1  0  0  0  0  0  0  0  0  0
   35.1122   56.0797   15.7471 C   0  0  0  0  0  0  0  0  0  0  0  0
   34.6908   56.7759   14.5344 C   0  0  0  0  0  0  0  0  0  0  0  0
   33.6134   57.7906   14.6984 C   0  0  2  0  0  0  0  0  0  0  0  0
   33.4528   58.2984   16.1053 C   0  0  0  0  0  0  0  0  0  0  0  0
   37.3430   49.1213   17.2630 N   0  0  0  0  0  4  0  0  0  0  0  0
   35.5583   47.5485   17.2236 N   0  0  0  0  0  0  0  0  0  0  0  0
   35.1720   49.9354   17.3596 N   0  0  0  0  0  0  0  0  0  0  0  0
   34.7976   54.7133   16.0414 N   0  0  0  0  0  0  0  0  0  0  0  0
   32.2868   57.2715   14.4023 N   0  0  0  0  0  0  0  0  0  0  0  0
   32.4353   58.7538   11.2159 N   0  0  0  0  0  0  0  0  0  0  0  0
   34.7428   50.6003   10.7636 N   0  0  0  0  0  0  0  0  0  0  0  0
   35.8422   53.0555   12.8635 N   0  0  0  0  0  0  0  0  0  0  0  0
   35.7959   56.6969   16.6036 O   0  0  0  0  0  0  0  0  0  0  0  0
   30.9621   56.5217   12.6873 O   0  0  0  0  0  0  0  0  0  0  0  0
   34.9482   62.3017    9.7131 O   0  0  0  0  0  0  0  0  0  0  0  0
   33.9955   50.7012   12.9447 O   0  0  0  0  0  0  0  0  0  0  0  0
   36.7723   54.5203   14.3404 O   0  0  0  0  0  0  0  0  0  0  0  0
   35.1590   55.1641   10.9329 S   0  0  0  0  0  0  0  0  0  0  0  0
  1 34  2  0
  1 35  1  0
 36  1  1  0
  2  3  1  1
 33  2  1  1
  3 38  1  6
  5  4  1  0
  4 38  1  0
  4 43  2  0
  5 39  1  6
  6  7  1  0
  6 39  1  6
  7  8  2  0
  7 13  1  0
  8  9  1  0
  9 10  2  0
 11 10  1  0
 13 11  2  0
 23 12  1  1
 12 36  1  6
 13 14  1  0
 14 44  1  6
 16 15  1  0
 15 39  1  6
 16 17  1  0
 21 16  2  0
 17 18  2  0
 19 18  1  0
 20 19  2  0
 21 20  1  0
 22 21  1  0
 28 23  1  0
 25 24  1  0
 25 26  1  6
 41 25  1  0
 26 40  1  0
 26 45  2  0
 29 27  1  0
 27 41  1  0
 27 46  2  0
 28 29  1  6
 29 37  1  1
 31 30  1  1
 30 37  1  0
 30 42  2  0
 32 31  1  0
 32 33  1  0
 32 38  1  1
 22 47  1  6
 24 47  1  6
M  CHG  1  34   1
M  END
$$$$
