
     RDKit          3D

 47 50  0  0  0  0  0  0  0  0999 V2000
   35.4389   48.8074   17.3673 C   0  0  0  0  0  0  0  0  0  0  0  0
   34.4412   53.3518   11.2351 C   0  0  0  0  0  0  0  0  0  0  0  0
   35.3375   54.4937   11.6585 C   0  0  0  0  0  0  0  0  0  0  0  0
   34.6797   57.0365   11.6060 C   0  0  0  0  0  0  0  0  0  0  0  0
   33.7505   57.9839   10.9691 C   0  0  0  0  0  0  0  0  0  0  0  0
   31.6436   58.9163   11.5593 C   0  0  0  0  0  0  0  0  0  0  0  0
   31.3162   58.8906   10.1254 C   0  0  0  0  0  0  0  0  0  0  0  0
   31.5244   57.7379    9.3677 C   0  0  0  0  0  0  0  0  0  0  0  0
   31.2193   57.7009    8.0234 C   0  0  0  0  0  0  0  0  0  0  0  0
   30.6937   58.8068    7.3711 C   0  0  0  0  0  0  0  0  0  0  0  0
   30.4820   59.9542    8.1076 C   0  0  0  0  0  0  0  0  0  0  0  0
   34.8573   51.0532   16.5221 C   0  0  0  0  0  0  0  0  0  0  0  0
   30.7910   59.9847    9.4593 C   0  0  0  0  0  0  0  0  0  0  0  0
   30.5369   61.2449   10.1869 C   0  0  0  0  0  0  0  0  0  0  0  0
   33.3501   58.6917   13.2298 C   0  0  0  0  0  0  0  0  0  0  0  0
   34.1661   59.7567   13.8450 C   0  0  0  0  0  0  0  0  0  0  0  0
   35.1509   60.4567   13.1830 C   0  0  0  0  0  0  0  0  0  0  0  0
   35.9176   61.4496   13.7480 C   0  0  0  0  0  0  0  0  0  0  0  0
   35.6992   61.7799   15.0652 C   0  0  0  0  0  0  0  0  0  0  0  0
   34.7385   61.1198   15.7658 C   0  0  0  0  0  0  0  0  0  0  0  0
   33.9805   60.1263   15.1787 C   0  0  0  0  0  0  0  0  0  0  0  0
   32.9459   59.4282   15.9671 C   0  0  0  0  0  0  0  0  0  0  0  0
   35.6965   52.0697   17.2753 C   0  0  0  0  0  0  0  0  0  0  0  0
   34.8146   57.6836   17.4272 C   0  0  0  0  0  0  0  0  0  0  0  0
   35.5525   56.3709   17.2349 C   0  0  1  0  0  0  0  0  0  0  0  0
   36.6934   56.2527   18.1682 C   0  0  0  0  0  0  0  0  0  0  0  0
   34.2431   54.3399   16.5243 C   0  0  0  0  0  0  0  0  0  0  0  0
   36.2958   52.9875   16.2170 C   0  0  0  0  0  0  0  0  0  0  0  0
   35.2166   53.8029   15.5400 C   0  0  1  0  0  0  0  0  0  0  0  0
   33.3119   53.3611   13.9457 C   0  0  0  0  0  0  0  0  0  0  0  0
   33.0430   54.7494   13.5805 C   0  0  0  0  0  0  0  0  0  0  0  0
   33.1583   55.0839   12.1342 C   0  0  2  0  0  0  0  0  0  0  0  0
   33.0548   53.8968   11.2160 C   0  0  0  0  0  0  0  0  0  0  0  0
   36.4653   48.2774   17.8969 N   0  0  0  0  0  4  0  0  0  0  0  0
   34.1025   48.4494   17.6773 N   0  0  0  0  0  0  0  0  0  0  0  0
   35.6217   49.8326   16.3951 N   0  0  0  0  0  0  0  0  0  0  0  0
   34.4922   52.9226   14.6292 N   0  0  0  0  0  0  0  0  0  0  0  0
   34.4535   55.6416   11.7760 N   0  0  0  0  0  0  0  0  0  0  0  0
   33.0639   58.8721   11.8444 N   0  0  0  0  0  0  0  0  0  0  0  0
   36.9750   55.0350   18.8247 N   0  0  0  0  0  0  0  0  0  0  0  0
   34.5732   55.3186   17.4912 N   0  0  0  0  0  0  0  0  0  0  0  0
   32.4691   52.4747   13.6526 O   0  0  0  0  0  0  0  0  0  0  0  0
   35.7798   57.4930   12.0436 O   0  0  0  0  0  0  0  0  0  0  0  0
   31.5855   62.1167    9.9412 O   0  0  0  0  0  0  0  0  0  0  0  0
   37.4150   57.2548   18.3724 O   0  0  0  0  0  0  0  0  0  0  0  0
   33.0308   53.9334   16.5457 O   0  0  0  0  0  0  0  0  0  0  0  0
   33.4772   57.7151   16.1890 S   0  0  0  0  0  0  0  0  0  0  0  0
  1 34  2  0
  1 35  1  0
 36  1  1  0
  2  3  1  1
 33  2  1  1
  3 38  1  6
  5  4  1  0
  4 38  1  0
  4 43  2  0
  5 39  1  6
  6  7  1  0
  6 39  1  6
  7  8  2  0
  7 13  1  0
  8  9  1  0
  9 10  2  0
 11 10  1  0
 13 11  2  0
 23 12  1  1
 12 36  1  6
 13 14  1  0
 14 44  1  6
 16 15  1  0
 15 39  1  6
 16 17  1  0
 21 16  2  0
 17 18  2  0
 19 18  1  0
 20 19  2  0
 21 20  1  0
 22 21  1  0
 28 23  1  0
 25 24  1  0
 25 26  1  1
 41 25  1  0
 26 40  1  0
 26 45  2  0
 29 27  1  0
 27 41  1  0
 27 46  2  0
 28 29  1  6
 29 37  1  6
 31 30  1  1
 30 37  1  0
 30 42  2  0
 32 31  1  0
 32 33  1  0
 32 38  1  1
 22 47  1  6
 24 47  1  6
M  CHG  1  34   1
M  END
$$$$
