
     RDKit          3D

 47 50  0  0  0  0  0  0  0  0999 V2000
   37.2858   48.7680   14.4578 C   0  0  0  0  0  0  0  0  0  0  0  0
   31.6990   54.3938   17.1355 C   0  0  0  0  0  0  0  0  0  0  0  0
   32.1172   55.4635   16.1519 C   0  0  0  0  0  0  0  0  0  0  0  0
   32.6843   57.9529   16.7702 C   0  0  0  0  0  0  0  0  0  0  0  0
   32.4565   58.9744   17.8052 C   0  0  0  0  0  0  0  0  0  0  0  0
   33.6619   59.7223   19.7141 C   0  0  0  0  0  0  0  0  0  0  0  0
   32.4454   59.2295   20.3784 C   0  0  0  0  0  0  0  0  0  0  0  0
   31.2256   59.8844   20.2078 C   0  0  0  0  0  0  0  0  0  0  0  0
   30.0780   59.4307   20.8235 C   0  0  0  0  0  0  0  0  0  0  0  0
   30.0903   58.3063   21.6360 C   0  0  0  0  0  0  0  0  0  0  0  0
   31.2897   57.6478   21.8141 C   0  0  0  0  0  0  0  0  0  0  0  0
   36.6008   50.9362   13.4956 C   0  0  0  0  0  0  0  0  0  0  0  0
   32.4401   58.1094   21.1920 C   0  0  0  0  0  0  0  0  0  0  0  0
   33.6886   57.3550   21.4245 C   0  0  0  0  0  0  0  0  0  0  0  0
   34.8407   59.2431   17.6810 C   0  0  0  0  0  0  0  0  0  0  0  0
   35.4461   60.1997   16.7338 C   0  0  0  0  0  0  0  0  0  0  0  0
   34.7236   61.0371   15.9122 C   0  0  0  0  0  0  0  0  0  0  0  0
   35.2784   61.9307   15.0253 C   0  0  0  0  0  0  0  0  0  0  0  0
   36.6490   62.0069   14.9396 C   0  0  0  0  0  0  0  0  0  0  0  0
   37.4105   61.2024   15.7284 C   0  0  0  0  0  0  0  0  0  0  0  0
   36.8325   60.3126   16.6118 C   0  0  0  0  0  0  0  0  0  0  0  0
   37.6874   59.4524   17.4537 C   0  0  0  0  0  0  0  0  0  0  0  0
   35.9407   51.7053   14.6258 C   0  0  0  0  0  0  0  0  0  0  0  0
   38.3469   57.5230   15.3300 C   0  0  0  0  0  0  0  0  0  0  0  0
   37.7557   56.2894   14.6716 C   0  0  1  0  0  0  0  0  0  0  0  0
   38.3741   56.0342   13.3528 C   0  0  0  0  0  0  0  0  0  0  0  0
   36.9894   54.3872   16.1341 C   0  0  0  0  0  0  0  0  0  0  0  0
   35.9891   53.1732   14.2204 C   0  0  0  0  0  0  0  0  0  0  0  0
   35.7316   54.0681   15.4124 C   0  0  1  0  0  0  0  0  0  0  0  0
   34.5461   53.8729   17.6308 C   0  0  0  0  0  0  0  0  0  0  0  0
   34.5136   55.2964   17.9556 C   0  0  0  0  0  0  0  0  0  0  0  0
   33.1655   55.8942   18.1616 C   0  0  2  0  0  0  0  0  0  0  0  0
   32.0894   54.8935   18.4837 C   0  0  0  0  0  0  0  0  0  0  0  0
   37.1001   48.6505   15.7094 N   0  0  0  0  0  4  0  0  0  0  0  0
   38.3713   48.1908   13.7515 N   0  0  0  0  0  0  0  0  0  0  0  0
   36.3515   49.5260   13.6948 N   0  0  0  0  0  0  0  0  0  0  0  0
   34.8572   53.3500   16.3338 N   0  0  0  0  0  0  0  0  0  0  0  0
   32.6386   56.5447   16.9716 N   0  0  0  0  0  0  0  0  0  0  0  0
   33.6115   59.6669   18.2668 N   0  0  0  0  0  0  0  0  0  0  0  0
   38.5843   54.7176   12.8888 N   0  0  0  0  0  0  0  0  0  0  0  0
   38.0233   55.1806   15.5831 N   0  0  0  0  0  0  0  0  0  0  0  0
   34.2883   53.0318   18.5297 O   0  0  0  0  0  0  0  0  0  0  0  0
   32.9438   58.3522   15.5940 O   0  0  0  0  0  0  0  0  0  0  0  0
   33.5436   56.0845   20.8908 O   0  0  0  0  0  0  0  0  0  0  0  0
   38.7129   57.0087   12.6441 O   0  0  0  0  0  0  0  0  0  0  0  0
   37.2035   53.9495   17.3164 O   0  0  0  0  0  0  0  0  0  0  0  0
   37.4642   57.7435   16.9096 S   0  0  0  0  0  0  0  0  0  0  0  0
  1 34  2  0
  1 35  1  0
 36  1  1  0
  2  3  1  1
 33  2  1  1
  3 38  1  6
  5  4  1  0
  4 38  1  0
  4 43  2  0
  5 39  1  6
  6  7  1  0
  6 39  1  6
  7  8  2  0
  7 13  1  0
  8  9  1  0
  9 10  2  0
 11 10  1  0
 13 11  2  0
 23 12  1  1
 12 36  1  6
 13 14  1  0
 14 44  1  6
 16 15  1  0
 15 39  1  6
 16 17  1  0
 21 16  2  0
 17 18  2  0
 19 18  1  0
 20 19  2  0
 21 20  1  0
 22 21  1  0
 28 23  1  0
 25 24  1  0
 25 26  1  6
 41 25  1  0
 26 40  1  0
 26 45  2  0
 29 27  1  0
 27 41  1  0
 27 46  2  0
 28 29  1  6
 29 37  1  1
 31 30  1  1
 30 37  1  0
 30 42  2  0
 32 31  1  0
 32 33  1  0
 32 38  1  6
 22 47  1  6
 24 47  1  6
M  CHG  1  34   1
M  END
$$$$
