
     RDKit          3D

 47 50  0  0  0  0  0  0  0  0999 V2000
   36.2087   49.5125   12.7111 C   0  0  0  0  0  0  0  0  0  0  0  0
   31.6851   54.9341   16.4753 C   0  0  0  0  0  0  0  0  0  0  0  0
   32.6880   55.7713   15.7138 C   0  0  0  0  0  0  0  0  0  0  0  0
   33.3297   58.2550   16.2799 C   0  0  0  0  0  0  0  0  0  0  0  0
   32.8323   59.4554   16.9717 C   0  0  0  0  0  0  0  0  0  0  0  0
   33.1325   60.3835   19.1408 C   0  0  0  0  0  0  0  0  0  0  0  0
   32.2191   59.3373   19.6255 C   0  0  0  0  0  0  0  0  0  0  0  0
   31.7529   58.3437   18.7644 C   0  0  0  0  0  0  0  0  0  0  0  0
   30.8981   57.3565   19.2076 C   0  0  0  0  0  0  0  0  0  0  0  0
   30.4679   57.3115   20.5258 C   0  0  0  0  0  0  0  0  0  0  0  0
   30.9209   58.2876   21.3894 C   0  0  0  0  0  0  0  0  0  0  0  0
   36.5650   51.5827   14.0085 C   0  0  0  0  0  0  0  0  0  0  0  0
   31.7804   59.2777   20.9372 C   0  0  0  0  0  0  0  0  0  0  0  0
   32.2275   60.2895   21.9161 C   0  0  0  0  0  0  0  0  0  0  0  0
   35.0116   59.4447   17.9829 C   0  0  0  0  0  0  0  0  0  0  0  0
   36.1410   60.1574   17.3543 C   0  0  0  0  0  0  0  0  0  0  0  0
   36.0359   60.9154   16.2086 C   0  0  0  0  0  0  0  0  0  0  0  0
   37.0826   61.5820   15.6144 C   0  0  0  0  0  0  0  0  0  0  0  0
   38.3285   61.4968   16.1910 C   0  0  0  0  0  0  0  0  0  0  0  0
   38.4882   60.7612   17.3236 C   0  0  0  0  0  0  0  0  0  0  0  0
   37.4236   60.1003   17.9033 C   0  0  0  0  0  0  0  0  0  0  0  0
   37.6306   59.3092   19.1325 C   0  0  0  0  0  0  0  0  0  0  0  0
   35.7540   52.5618   14.8382 C   0  0  0  0  0  0  0  0  0  0  0  0
   38.8473   56.9893   17.7890 C   0  0  0  0  0  0  0  0  0  0  0  0
   38.4214   55.7318   17.0527 C   0  0  1  0  0  0  0  0  0  0  0  0
   39.5226   55.1928   16.2259 C   0  0  0  0  0  0  0  0  0  0  0  0
   36.7503   54.1968   18.1461 C   0  0  0  0  0  0  0  0  0  0  0  0
   36.5497   52.7894   16.1174 C   0  0  0  0  0  0  0  0  0  0  0  0
   35.9322   53.8954   16.9442 C   0  0  1  0  0  0  0  0  0  0  0  0
   33.8448   54.2055   18.3267 C   0  0  0  0  0  0  0  0  0  0  0  0
   33.9144   55.6587   18.4538 C   0  0  0  0  0  0  0  0  0  0  0  0
   32.7499   56.4223   17.9265 C   0  0  2  0  0  0  0  0  0  0  0  0
   31.4909   55.6105   17.7885 C   0  0  0  0  0  0  0  0  0  0  0  0
   37.2752   48.9699   13.1389 N   0  0  0  0  0  4  0  0  0  0  0  0
   35.5104   49.0990   11.5486 N   0  0  0  0  0  0  0  0  0  0  0  0
   35.6613   50.6111   13.4343 N   0  0  0  0  0  0  0  0  0  0  0  0
   34.6220   53.4405   17.3975 N   0  0  0  0  0  0  0  0  0  0  0  0
   32.9523   56.9142   16.5723 N   0  0  0  0  0  0  0  0  0  0  0  0
   33.7454   60.0895   17.8608 N   0  0  0  0  0  0  0  0  0  0  0  0
   39.3320   54.9023   14.8576 N   0  0  0  0  0  0  0  0  0  0  0  0
   38.0418   54.7713   18.0848 N   0  0  0  0  0  0  0  0  0  0  0  0
   33.0602   53.5609   19.0689 O   0  0  0  0  0  0  0  0  0  0  0  0
   34.1665   58.4197   15.3404 O   0  0  0  0  0  0  0  0  0  0  0  0
   31.9870   59.8067   23.1924 O   0  0  0  0  0  0  0  0  0  0  0  0
   40.6382   54.9947   16.7579 O   0  0  0  0  0  0  0  0  0  0  0  0
   36.3161   53.9453   19.3224 O   0  0  0  0  0  0  0  0  0  0  0  0
   37.3898   57.5663   18.7194 S   0  0  0  0  0  0  0  0  0  0  0  0
  1 34  2  0
  1 35  1  0
 36  1  1  0
  2  3  1  1
 33  2  1  1
  3 38  1  6
  5  4  1  0
  4 38  1  0
  4 43  2  0
  5 39  1  6
  6  7  1  0
  6 39  1  6
  7  8  2  0
  7 13  1  0
  8  9  1  0
  9 10  2  0
 11 10  1  0
 13 11  2  0
 23 12  1  1
 12 36  1  6
 13 14  1  0
 14 44  1  6
 16 15  1  0
 15 39  1  6
 16 17  1  0
 21 16  2  0
 17 18  2  0
 19 18  1  0
 20 19  2  0
 21 20  1  0
 22 21  1  0
 28 23  1  0
 25 24  1  0
 25 26  1  1
 41 25  1  0
 26 40  1  0
 26 45  2  0
 29 27  1  0
 27 41  1  0
 27 46  2  0
 28 29  1  6
 29 37  1  1
 31 30  1  1
 30 37  1  0
 30 42  2  0
 32 31  1  0
 32 33  1  0
 32 38  1  6
 22 47  1  6
 24 47  1  6
M  CHG  1  34   1
M  END
$$$$
