
     RDKit          3D

 47 50  0  0  0  0  0  0  0  0999 V2000
   36.4866   49.0544   14.5309 C   0  0  0  0  0  0  0  0  0  0  0  0
   31.4837   55.0160   16.5162 C   0  0  0  0  0  0  0  0  0  0  0  0
   32.2593   56.1138   15.8235 C   0  0  0  0  0  0  0  0  0  0  0  0
   33.2961   58.2167   17.0085 C   0  0  0  0  0  0  0  0  0  0  0  0
   33.1759   59.0462   18.2185 C   0  0  0  0  0  0  0  0  0  0  0  0
   34.2629   59.0903   20.3335 C   0  0  0  0  0  0  0  0  0  0  0  0
   32.8956   59.2514   20.8518 C   0  0  0  0  0  0  0  0  0  0  0  0
   32.2476   60.4847   20.7810 C   0  0  0  0  0  0  0  0  0  0  0  0
   30.9653   60.6475   21.2614 C   0  0  0  0  0  0  0  0  0  0  0  0
   30.2688   59.5929   21.8336 C   0  0  0  0  0  0  0  0  0  0  0  0
   30.8968   58.3667   21.9104 C   0  0  0  0  0  0  0  0  0  0  0  0
   36.3518   51.0779   13.1225 C   0  0  0  0  0  0  0  0  0  0  0  0
   32.1866   58.2098   21.4254 C   0  0  0  0  0  0  0  0  0  0  0  0
   32.7973   56.8695   21.5378 C   0  0  0  0  0  0  0  0  0  0  0  0
   35.5538   58.7272   18.3449 C   0  0  0  0  0  0  0  0  0  0  0  0
   36.4794   59.6639   17.6781 C   0  0  0  0  0  0  0  0  0  0  0  0
   36.0803   60.7963   17.0023 C   0  0  0  0  0  0  0  0  0  0  0  0
   36.9350   61.6743   16.3765 C   0  0  0  0  0  0  0  0  0  0  0  0
   38.2859   61.4194   16.4183 C   0  0  0  0  0  0  0  0  0  0  0  0
   38.7344   60.3146   17.0724 C   0  0  0  0  0  0  0  0  0  0  0  0
   37.8587   59.4467   17.6938 C   0  0  0  0  0  0  0  0  0  0  0  0
   38.3777   58.2556   18.3948 C   0  0  0  0  0  0  0  0  0  0  0  0
   35.2733   51.8826   13.8253 C   0  0  0  0  0  0  0  0  0  0  0  0
   38.8475   56.6635   15.9633 C   0  0  0  0  0  0  0  0  0  0  0  0
   38.0801   55.7663   15.0089 C   0  0  1  0  0  0  0  0  0  0  0  0
   38.7891   55.6202   13.7195 C   0  0  0  0  0  0  0  0  0  0  0  0
   36.7161   53.8743   15.9600 C   0  0  0  0  0  0  0  0  0  0  0  0
   35.7210   53.3373   13.7559 C   0  0  0  0  0  0  0  0  0  0  0  0
   35.5230   54.0242   15.0889 C   0  0  1  0  0  0  0  0  0  0  0  0
   34.0473   53.7135   17.1114 C   0  0  0  0  0  0  0  0  0  0  0  0
   34.2996   55.0109   17.7327 C   0  0  0  0  0  0  0  0  0  0  0  0
   33.1090   55.8769   17.9555 C   0  0  2  0  0  0  0  0  0  0  0  0
   31.8001   55.1356   17.9671 C   0  0  0  0  0  0  0  0  0  0  0  0
   35.6111   48.8019   15.4166 N   0  0  0  0  0  4  0  0  0  0  0  0
   37.8675   48.7617   14.6634 N   0  0  0  0  0  0  0  0  0  0  0  0
   36.0733   49.6724   13.3156 N   0  0  0  0  0  0  0  0  0  0  0  0
   34.3958   53.3863   15.7609 N   0  0  0  0  0  0  0  0  0  0  0  0
   32.9036   56.8531   16.8964 N   0  0  0  0  0  0  0  0  0  0  0  0
   34.3889   59.3260   18.9091 N   0  0  0  0  0  0  0  0  0  0  0  0
   40.1696   55.3280   13.6757 N   0  0  0  0  0  0  0  0  0  0  0  0
   37.9665   54.4732   15.6774 N   0  0  0  0  0  0  0  0  0  0  0  0
   33.4896   52.8086   17.7838 O   0  0  0  0  0  0  0  0  0  0  0  0
   33.7900   58.7547   15.9709 O   0  0  0  0  0  0  0  0  0  0  0  0
   33.7725   56.9088   22.5214 O   0  0  0  0  0  0  0  0  0  0  0  0
   38.1452   55.7598   12.6552 O   0  0  0  0  0  0  0  0  0  0  0  0
   36.6694   53.1799   17.0329 O   0  0  0  0  0  0  0  0  0  0  0  0
   37.8417   56.7932   17.4781 S   0  0  0  0  0  0  0  0  0  0  0  0
  1 34  2  0
  1 35  1  0
 36  1  1  0
  2  3  1  1
 33  2  1  1
  3 38  1  6
  5  4  1  0
  4 38  1  0
  4 43  2  0
  5 39  1  6
  6  7  1  0
  6 39  1  6
  7  8  2  0
  7 13  1  0
  8  9  1  0
  9 10  2  0
 11 10  1  0
 13 11  2  0
 23 12  1  1
 12 36  1  6
 13 14  1  0
 14 44  1  6
 16 15  1  0
 15 39  1  6
 16 17  1  0
 21 16  2  0
 17 18  2  0
 19 18  1  0
 20 19  2  0
 21 20  1  0
 22 21  1  0
 28 23  1  0
 25 24  1  0
 25 26  1  6
 41 25  1  0
 26 40  1  0
 26 45  2  0
 29 27  1  0
 27 41  1  0
 27 46  2  0
 28 29  1  6
 29 37  1  1
 31 30  1  1
 30 37  1  0
 30 42  2  0
 32 31  1  0
 32 33  1  0
 32 38  1  6
 22 47  1  6
 24 47  1  6
M  CHG  1  34   1
M  END
$$$$
