
     RDKit          3D

 47 50  0  0  0  0  0  0  0  0999 V2000
   35.4855   49.1498   14.8939 C   0  0  0  0  0  0  0  0  0  0  0  0
   37.5780   56.6317   13.9930 C   0  0  0  0  0  0  0  0  0  0  0  0
   37.3899   56.0224   15.3642 C   0  0  0  0  0  0  0  0  0  0  0  0
   37.0631   57.3754   17.5921 C   0  0  0  0  0  0  0  0  0  0  0  0
   37.3060   58.6952   18.1968 C   0  0  0  0  0  0  0  0  0  0  0  0
   36.0132   60.6714   18.4794 C   0  0  0  0  0  0  0  0  0  0  0  0
   37.2515   61.4653   18.4603 C   0  0  0  0  0  0  0  0  0  0  0  0
   38.4986   60.8407   18.4860 C   0  0  0  0  0  0  0  0  0  0  0  0
   39.6663   61.5740   18.4663 C   0  0  0  0  0  0  0  0  0  0  0  0
   39.6481   62.9604   18.4199 C   0  0  0  0  0  0  0  0  0  0  0  0
   38.4218   63.5924   18.3938 C   0  0  0  0  0  0  0  0  0  0  0  0
   34.7082   51.4295   15.4370 C   0  0  0  0  0  0  0  0  0  0  0  0
   37.2511   62.8489   18.4140 C   0  0  0  0  0  0  0  0  0  0  0  0
   35.9739   63.5902   18.3817 C   0  0  0  0  0  0  0  0  0  0  0  0
   34.9949   58.5286   18.8318 C   0  0  0  0  0  0  0  0  0  0  0  0
   34.6049   57.9067   20.1123 C   0  0  0  0  0  0  0  0  0  0  0  0
   35.5000   57.4408   21.0503 C   0  0  0  0  0  0  0  0  0  0  0  0
   35.1465   56.8585   22.2457 C   0  0  0  0  0  0  0  0  0  0  0  0
   33.8100   56.7239   22.5416 C   0  0  0  0  0  0  0  0  0  0  0  0
   32.8836   57.1673   21.6503 C   0  0  0  0  0  0  0  0  0  0  0  0
   33.2608   57.7488   20.4562 C   0  0  0  0  0  0  0  0  0  0  0  0
   32.2302   58.2191   19.5096 C   0  0  0  0  0  0  0  0  0  0  0  0
   34.7945   52.4603   14.3257 C   0  0  0  0  0  0  0  0  0  0  0  0
   31.5619   55.5536   18.4530 C   0  0  0  0  0  0  0  0  0  0  0  0
   32.0654   54.5681   17.4138 C   0  0  1  0  0  0  0  0  0  0  0  0
   31.5560   53.2044   17.6735 C   0  0  0  0  0  0  0  0  0  0  0  0
   32.4508   55.3819   15.0614 C   0  0  0  0  0  0  0  0  0  0  0  0
   33.4862   53.2396   14.3720 C   0  0  0  0  0  0  0  0  0  0  0  0
   33.7276   54.6688   14.8047 C   0  0  1  0  0  0  0  0  0  0  0  0
   34.6540   56.7701   13.7602 C   0  0  0  0  0  0  0  0  0  0  0  0
   34.8225   57.5369   14.9917 C   0  0  0  0  0  0  0  0  0  0  0  0
   36.2046   58.0007   15.2947 C   0  0  2  0  0  0  0  0  0  0  0  0
   37.1169   58.0444   14.0993 C   0  0  0  0  0  0  0  0  0  0  0  0
   35.1951   47.9856   15.3124 N   0  0  0  0  0  4  0  0  0  0  0  0
   36.7773   49.5480   14.4662 N   0  0  0  0  0  0  0  0  0  0  0  0
   34.4581   50.1354   14.8425 N   0  0  0  0  0  0  0  0  0  0  0  0
   34.4142   55.3583   13.7174 N   0  0  0  0  0  0  0  0  0  0  0  0
   36.9212   57.1153   16.2000 N   0  0  0  0  0  0  0  0  0  0  0  0
   36.2010   59.2886   18.8702 N   0  0  0  0  0  0  0  0  0  0  0  0
   31.2900   52.7636   18.9880 N   0  0  0  0  0  0  0  0  0  0  0  0
   31.5785   55.0576   16.1272 N   0  0  0  0  0  0  0  0  0  0  0  0
   34.7192   57.3637   12.6533 O   0  0  0  0  0  0  0  0  0  0  0  0
   36.9717   56.3775   18.3706 O   0  0  0  0  0  0  0  0  0  0  0  0
   35.6185   63.9158   19.6809 O   0  0  0  0  0  0  0  0  0  0  0  0
   31.3607   52.4362   16.7046 O   0  0  0  0  0  0  0  0  0  0  0  0
   32.0693   56.3463   14.3132 O   0  0  0  0  0  0  0  0  0  0  0  0
   32.3023   57.1677   18.0414 S   0  0  0  0  0  0  0  0  0  0  0  0
  1 34  2  0
  1 35  1  0
 36  1  1  0
  2  3  1  1
 33  2  1  1
  3 38  1  6
  5  4  1  0
  4 38  1  0
  4 43  2  0
  5 39  1  6
  6  7  1  0
  6 39  1  6
  7  8  2  0
  7 13  1  0
  8  9  1  0
  9 10  2  0
 11 10  1  0
 13 11  2  0
 23 12  1  1
 12 36  1  6
 13 14  1  0
 14 44  1  6
 16 15  1  0
 15 39  1  6
 16 17  1  0
 21 16  2  0
 17 18  2  0
 19 18  1  0
 20 19  2  0
 21 20  1  0
 22 21  1  0
 28 23  1  0
 25 24  1  0
 25 26  1  1
 41 25  1  0
 26 40  1  0
 26 45  2  0
 29 27  1  0
 27 41  1  0
 27 46  2  0
 28 29  1  6
 29 37  1  6
 31 30  1  1
 30 37  1  0
 30 42  2  0
 32 31  1  0
 32 33  1  0
 32 38  1  1
 22 47  1  6
 24 47  1  6
M  CHG  1  34   1
M  END
$$$$
