
     RDKit          3D

 47 50  0  0  0  0  0  0  0  0999 V2000
   35.5338   49.3349   15.6638 C   0  0  0  0  0  0  0  0  0  0  0  0
   31.9183   55.2786   20.3495 C   0  0  0  0  0  0  0  0  0  0  0  0
   32.2057   56.6601   19.8039 C   0  0  0  0  0  0  0  0  0  0  0  0
   34.4916   57.8721   20.0888 C   0  0  0  0  0  0  0  0  0  0  0  0
   35.6664   58.2366   19.2620 C   0  0  0  0  0  0  0  0  0  0  0  0
   36.0137   60.5586   18.6578 C   0  0  0  0  0  0  0  0  0  0  0  0
   35.5158   61.6967   17.8637 C   0  0  0  0  0  0  0  0  0  0  0  0
   35.3880   61.5521   16.5009 C   0  0  0  0  0  0  0  0  0  0  0  0
   34.9275   62.5847   15.6948 C   0  0  0  0  0  0  0  0  0  0  0  0
   34.5841   63.7948   16.2573 C   0  0  0  0  0  0  0  0  0  0  0  0
   34.7174   63.9290   17.6379 C   0  0  0  0  0  0  0  0  0  0  0  0
   34.2273   50.9392   14.2929 C   0  0  0  0  0  0  0  0  0  0  0  0
   35.1750   62.9022   18.4359 C   0  0  0  0  0  0  0  0  0  0  0  0
   35.2926   63.1135   19.9158 C   0  0  0  0  0  0  0  0  0  0  0  0
   35.1020   58.9516   17.0922 C   0  0  0  0  0  0  0  0  0  0  0  0
   36.2351   59.2392   16.1801 C   0  0  0  0  0  0  0  0  0  0  0  0
   37.4989   58.8603   16.5269 C   0  0  0  0  0  0  0  0  0  0  0  0
   38.5488   59.1230   15.6846 C   0  0  0  0  0  0  0  0  0  0  0  0
   38.3201   59.7707   14.4882 C   0  0  0  0  0  0  0  0  0  0  0  0
   37.0285   60.1485   14.1525 C   0  0  0  0  0  0  0  0  0  0  0  0
   35.9767   59.8829   15.0011 C   0  0  0  0  0  0  0  0  0  0  0  0
   34.6135   60.2954   14.6174 C   0  0  0  0  0  0  0  0  0  0  0  0
   32.8227   51.3634   14.6628 C   0  0  0  0  0  0  0  0  0  0  0  0
   34.6830   57.4701   13.8781 C   0  0  0  0  0  0  0  0  0  0  0  0
   33.8475   56.2114   13.6051 C   0  0  1  0  0  0  0  0  0  0  0  0
   33.6012   56.2284   12.1223 C   0  0  0  0  0  0  0  0  0  0  0  0
   34.5324   54.2051   14.9275 C   0  0  0  0  0  0  0  0  0  0  0  0
   32.7015   52.8194   14.2718 C   0  0  0  0  0  0  0  0  0  0  0  0
   33.1636   53.7761   15.3480 C   0  0  1  0  0  0  0  0  0  0  0  0
   33.9262   53.6673   17.7597 C   0  0  0  0  0  0  0  0  0  0  0  0
   33.9260   55.1177   18.0807 C   0  0  0  0  0  0  0  0  0  0  0  0
   34.1322   55.4274   19.5215 C   0  0  2  0  0  0  0  0  0  0  0  0
   33.2515   54.6141   20.4427 C   0  0  0  0  0  0  0  0  0  0  0  0
   35.4164   48.4089   16.5376 N   0  0  0  0  0  4  0  0  0  0  0  0
   36.7002   50.1970   15.6563 N   0  0  0  0  0  0  0  0  0  0  0  0
   34.5569   49.6112   14.6759 N   0  0  0  0  0  0  0  0  0  0  0  0
   33.2271   53.1318   16.6522 N   0  0  0  0  0  0  0  0  0  0  0  0
   33.6618   56.7600   19.8265 N   0  0  0  0  0  0  0  0  0  0  0  0
   35.2969   59.3500   18.4422 N   0  0  0  0  0  0  0  0  0  0  0  0
   32.5722   57.0151   11.5344 N   0  0  0  0  0  0  0  0  0  0  0  0
   34.7320   55.0970   13.8714 N   0  0  0  0  0  0  0  0  0  0  0  0
   34.5732   52.8408   18.4918 O   0  0  0  0  0  0  0  0  0  0  0  0
   34.2493   58.6325   21.0866 O   0  0  0  0  0  0  0  0  0  0  0  0
   34.1777   62.6203   20.5677 O   0  0  0  0  0  0  0  0  0  0  0  0
   34.3051   55.5383   11.3364 O   0  0  0  0  0  0  0  0  0  0  0  0
   35.4978   53.7250   15.5693 O   0  0  0  0  0  0  0  0  0  0  0  0
   33.5642   58.8327   14.2770 S   0  0  0  0  0  0  0  0  0  0  0  0
  1 34  2  0
  1 35  1  0
 36  1  1  0
  3  2  1  0
 33  2  1  0
 38  3  1  0
  5  4  1  0
  4 38  1  0
  4 43  2  0
 39  5  1  0
  6  7  1  0
 39  6  1  0
  7  8  2  0
  7 13  1  0
  8  9  1  0
  9 10  2  0
 11 10  1  0
 13 11  2  0
 23 12  1  0
 12 36  1  0
 13 14  1  0
 14 44  1  0
 16 15  1  0
 15 39  1  0
 16 17  1  0
 21 16  2  0
 17 18  2  0
 19 18  1  0
 20 19  2  0
 21 20  1  0
 22 21  1  0
 28 23  1  0
 25 24  1  0
 25 26  1  6
 41 25  1  0
 26 40  1  0
 26 45  2  0
 29 27  1  0
 27 41  1  0
 27 46  2  0
 29 28  1  6
 37 29  1  0
 31 30  1  0
 30 37  1  0
 30 42  2  0
 32 31  1  6
 32 33  1  0
 38 32  1  0
 47 22  1  0
 24 47  1  0
M  CHG  1  34   1
M  END
$$$$
