
     RDKit          3D

 47 50  0  0  0  0  0  0  0  0999 V2000
   36.9343   50.3679   12.4025 C   0  0  0  0  0  0  0  0  0  0  0  0
   30.7384   55.7713   16.4470 C   0  0  0  0  0  0  0  0  0  0  0  0
   31.9141   56.5294   15.8727 C   0  0  0  0  0  0  0  0  0  0  0  0
   33.3641   58.2908   17.1751 C   0  0  0  0  0  0  0  0  0  0  0  0
   33.3273   59.1981   18.3335 C   0  0  0  0  0  0  0  0  0  0  0  0
   34.0395   59.0527   20.5981 C   0  0  0  0  0  0  0  0  0  0  0  0
   32.6293   59.3989   20.8343 C   0  0  0  0  0  0  0  0  0  0  0  0
   31.6097   58.5163   20.4774 C   0  0  0  0  0  0  0  0  0  0  0  0
   30.2844   58.8286   20.6958 C   0  0  0  0  0  0  0  0  0  0  0  0
   29.9121   60.0313   21.2785 C   0  0  0  0  0  0  0  0  0  0  0  0
   30.9097   60.9144   21.6372 C   0  0  0  0  0  0  0  0  0  0  0  0
   34.9978   50.3527   13.9341 C   0  0  0  0  0  0  0  0  0  0  0  0
   32.2407   60.5941   21.4147 C   0  0  0  0  0  0  0  0  0  0  0  0
   33.2565   61.5848   21.8252 C   0  0  0  0  0  0  0  0  0  0  0  0
   35.4380   58.1771   18.8573 C   0  0  0  0  0  0  0  0  0  0  0  0
   36.7000   58.7381   18.3363 C   0  0  0  0  0  0  0  0  0  0  0  0
   36.7824   59.8892   17.5837 C   0  0  0  0  0  0  0  0  0  0  0  0
   37.9532   60.4190   17.0923 C   0  0  0  0  0  0  0  0  0  0  0  0
   39.1339   59.7668   17.3617 C   0  0  0  0  0  0  0  0  0  0  0  0
   39.1097   58.6254   18.1005 C   0  0  0  0  0  0  0  0  0  0  0  0
   37.9230   58.1113   18.5839 C   0  0  0  0  0  0  0  0  0  0  0  0
   37.9308   56.8696   19.3823 C   0  0  0  0  0  0  0  0  0  0  0  0
   35.5815   51.5434   14.6732 C   0  0  0  0  0  0  0  0  0  0  0  0
   38.2423   55.0475   17.0909 C   0  0  0  0  0  0  0  0  0  0  0  0
   37.3869   54.3646   16.0388 C   0  0  1  0  0  0  0  0  0  0  0  0
   38.2017   53.9208   14.8873 C   0  0  0  0  0  0  0  0  0  0  0  0
   35.3721   53.0498   16.7847 C   0  0  0  0  0  0  0  0  0  0  0  0
   34.6054   52.6930   14.4563 C   0  0  0  0  0  0  0  0  0  0  0  0
   34.4324   53.4971   15.7257 C   0  0  1  0  0  0  0  0  0  0  0  0
   32.6447   53.7916   17.4813 C   0  0  0  0  0  0  0  0  0  0  0  0
   33.1927   54.9892   18.1125 C   0  0  0  0  0  0  0  0  0  0  0  0
   32.3134   56.1908   18.1198 C   0  0  2  0  0  0  0  0  0  0  0  0
   30.8524   55.8876   17.9279 C   0  0  0  0  0  0  0  0  0  0  0  0
   37.6847   50.1990   13.4140 N   0  0  0  0  0  4  0  0  0  0  0  0
   37.4055   50.5769   11.0817 N   0  0  0  0  0  0  0  0  0  0  0  0
   35.5218   50.3487   12.5865 N   0  0  0  0  0  0  0  0  0  0  0  0
   33.0740   53.2819   16.2131 N   0  0  0  0  0  0  0  0  0  0  0  0
   32.5867   57.1081   17.0240 N   0  0  0  0  0  0  0  0  0  0  0  0
   34.4474   59.1404   19.2103 N   0  0  0  0  0  0  0  0  0  0  0  0
   39.5367   54.3520   14.7296 N   0  0  0  0  0  0  0  0  0  0  0  0
   36.7747   53.2170   16.7023 N   0  0  0  0  0  0  0  0  0  0  0  0
   31.7368   53.1488   18.0682 O   0  0  0  0  0  0  0  0  0  0  0  0
   34.1529   58.5797   16.2241 O   0  0  0  0  0  0  0  0  0  0  0  0
   33.8683   62.0881   20.6883 O   0  0  0  0  0  0  0  0  0  0  0  0
   37.6895   53.1501   14.0444 O   0  0  0  0  0  0  0  0  0  0  0  0
   34.9484   52.4781   17.8473 O   0  0  0  0  0  0  0  0  0  0  0  0
   37.1100   55.5817   18.4157 S   0  0  0  0  0  0  0  0  0  0  0  0
  1 34  2  0
  1 35  1  0
 36  1  1  0
  2  3  1  1
 33  2  1  1
  3 38  1  6
  5  4  1  0
  4 38  1  0
  4 43  2  0
  5 39  1  6
  6  7  1  0
  6 39  1  6
  7  8  2  0
  7 13  1  0
  8  9  1  0
  9 10  2  0
 11 10  1  0
 13 11  2  0
 23 12  1  1
 12 36  1  6
 13 14  1  0
 14 44  1  6
 16 15  1  0
 15 39  1  6
 16 17  1  0
 21 16  2  0
 17 18  2  0
 19 18  1  0
 20 19  2  0
 21 20  1  0
 22 21  1  0
 28 23  1  0
 25 24  1  0
 25 26  1  6
 41 25  1  0
 26 40  1  0
 26 45  2  0
 29 27  1  0
 27 41  1  0
 27 46  2  0
 28 29  1  6
 29 37  1  1
 31 30  1  1
 30 37  1  0
 30 42  2  0
 32 31  1  0
 32 33  1  0
 32 38  1  6
 22 47  1  6
 24 47  1  6
M  CHG  1  34   1
M  END
$$$$
