
     RDKit          3D

 47 50  0  0  0  0  0  0  0  0999 V2000
   37.1303   50.3197   14.8172 C   0  0  0  0  0  0  0  0  0  0  0  0
   38.5002   53.9881   17.8681 C   0  0  0  0  0  0  0  0  0  0  0  0
   37.4023   54.3185   18.8550 C   0  0  0  0  0  0  0  0  0  0  0  0
   36.9289   56.7248   19.7275 C   0  0  0  0  0  0  0  0  0  0  0  0
   35.9144   57.7908   19.5513 C   0  0  0  0  0  0  0  0  0  0  0  0
   34.3649   58.2597   21.3559 C   0  0  0  0  0  0  0  0  0  0  0  0
   32.9098   58.4734   21.4603 C   0  0  0  0  0  0  0  0  0  0  0  0
   32.1330   57.4944   22.0373 C   0  0  0  0  0  0  0  0  0  0  0  0
   30.7571   57.6314   22.1646 C   0  0  0  0  0  0  0  0  0  0  0  0
   30.1347   58.7721   21.7062 C   0  0  0  0  0  0  0  0  0  0  0  0
   30.9316   59.7561   21.1243 C   0  0  0  0  0  0  0  0  0  0  0  0
   35.3793   51.8943   14.0333 C   0  0  0  0  0  0  0  0  0  0  0  0
   32.2974   59.6175   20.9992 C   0  0  0  0  0  0  0  0  0  0  0  0
   33.0959   60.7165   20.3642 C   0  0  0  0  0  0  0  0  0  0  0  0
   33.7113   56.9761   19.4092 C   0  0  0  0  0  0  0  0  0  0  0  0
   32.6560   57.9810   19.1353 C   0  0  0  0  0  0  0  0  0  0  0  0
   33.0033   59.2414   18.7456 C   0  0  0  0  0  0  0  0  0  0  0  0
   32.0296   60.1726   18.4897 C   0  0  0  0  0  0  0  0  0  0  0  0
   30.7008   59.8284   18.6282 C   0  0  0  0  0  0  0  0  0  0  0  0
   30.3668   58.5422   19.0255 C   0  0  0  0  0  0  0  0  0  0  0  0
   31.3476   57.6098   19.2816 C   0  0  0  0  0  0  0  0  0  0  0  0
   30.9626   56.2491   19.7014 C   0  0  0  0  0  0  0  0  0  0  0  0
   34.7067   52.3416   12.7537 C   0  0  0  0  0  0  0  0  0  0  0  0
   31.4678   55.9411   16.8407 C   0  0  0  0  0  0  0  0  0  0  0  0
   31.8289   54.9597   15.7169 C   0  0  1  0  0  0  0  0  0  0  0  0
   30.5066   54.4959   15.1729 C   0  0  0  0  0  0  0  0  0  0  0  0
   33.7940   55.6443   14.3337 C   0  0  0  0  0  0  0  0  0  0  0  0
   33.9601   53.6138   13.0882 C   0  0  0  0  0  0  0  0  0  0  0  0
   34.4874   54.3202   14.3170 C   0  0  1  0  0  0  0  0  0  0  0  0
   36.6365   55.4234   15.0750 C   0  0  0  0  0  0  0  0  0  0  0  0
   36.3208   55.6076   16.5148 C   0  0  0  0  0  0  0  0  0  0  0  0
   37.4727   56.0562   17.3432 C   0  0  2  0  0  0  0  0  0  0  0  0
   38.7309   55.2518   17.1082 C   0  0  0  0  0  0  0  0  0  0  0  0
   36.5172   50.0078   15.8949 N   0  0  0  0  0  4  0  0  0  0  0  0
   38.4553   49.7959   14.5454 N   0  0  0  0  0  0  0  0  0  0  0  0
   36.6015   51.1963   13.8381 N   0  0  0  0  0  0  0  0  0  0  0  0
   35.9283   54.5184   14.2493 N   0  0  0  0  0  0  0  0  0  0  0  0
   37.2379   55.7643   18.7394 N   0  0  0  0  0  0  0  0  0  0  0  0
   34.7452   57.4083   20.2827 N   0  0  0  0  0  0  0  0  0  0  0  0
   29.3542   54.3612   15.9959 N   0  0  0  0  0  0  0  0  0  0  0  0
   32.4479   55.7656   14.6861 N   0  0  0  0  0  0  0  0  0  0  0  0
   37.5793   56.0926   14.5266 O   0  0  0  0  0  0  0  0  0  0  0  0
   37.5365   56.7078   20.8513 O   0  0  0  0  0  0  0  0  0  0  0  0
   32.8753   61.9163   21.0147 O   0  0  0  0  0  0  0  0  0  0  0  0
   30.3686   54.2055   13.9539 O   0  0  0  0  0  0  0  0  0  0  0  0
   34.4794   56.6459   14.0152 O   0  0  0  0  0  0  0  0  0  0  0  0
   31.3690   55.0280   18.3976 S   0  0  0  0  0  0  0  0  0  0  0  0
  1 34  2  0
  1 35  1  0
 36  1  1  0
  3  2  1  0
 33  2  1  0
 38  3  1  0
  5  4  1  0
  4 38  1  0
  4 43  2  0
 39  5  1  0
  6  7  1  0
 39  6  1  0
  7  8  2  0
  7 13  1  0
  8  9  1  0
  9 10  2  0
 11 10  1  0
 13 11  2  0
 23 12  1  0
 12 36  1  0
 13 14  1  0
 14 44  1  0
 16 15  1  0
 15 39  1  0
 16 17  1  0
 21 16  2  0
 17 18  2  0
 19 18  1  0
 20 19  2  0
 21 20  1  0
 22 21  1  0
 28 23  1  0
 25 24  1  0
 25 26  1  6
 41 25  1  0
 26 40  1  0
 26 45  2  0
 29 27  1  0
 27 41  1  0
 27 46  2  0
 29 28  1  6
 37 29  1  0
 31 30  1  0
 30 37  1  0
 30 42  2  0
 32 31  1  6
 32 33  1  0
 38 32  1  0
 47 22  1  0
 24 47  1  0
M  CHG  1  34   1
M  END
$$$$
