
     RDKit          3D

 47 50  0  0  0  0  0  0  0  0999 V2000
   36.2946   49.1320   15.4961 C   0  0  0  0  0  0  0  0  0  0  0  0
   30.8697   57.2348   14.2147 C   0  0  0  0  0  0  0  0  0  0  0  0
   31.6726   58.1867   15.0736 C   0  0  0  0  0  0  0  0  0  0  0  0
   31.5462   58.2335   17.6731 C   0  0  0  0  0  0  0  0  0  0  0  0
   32.3807   57.8405   18.8332 C   0  0  0  0  0  0  0  0  0  0  0  0
   33.4299   59.5656   20.1749 C   0  0  0  0  0  0  0  0  0  0  0  0
   32.6919   58.9293   21.2814 C   0  0  0  0  0  0  0  0  0  0  0  0
   32.6665   59.5514   22.5090 C   0  0  0  0  0  0  0  0  0  0  0  0
   31.9922   59.0051   23.5930 C   0  0  0  0  0  0  0  0  0  0  0  0
   31.3244   57.8078   23.4546 C   0  0  0  0  0  0  0  0  0  0  0  0
   31.3571   57.1878   22.2071 C   0  0  0  0  0  0  0  0  0  0  0  0
   36.2837   51.4850   14.7064 C   0  0  0  0  0  0  0  0  0  0  0  0
   32.0273   57.7323   21.1325 C   0  0  0  0  0  0  0  0  0  0  0  0
   32.0206   57.0131   19.8167 C   0  0  0  0  0  0  0  0  0  0  0  0
   34.6720   58.2869   18.5358 C   0  0  0  0  0  0  0  0  0  0  0  0
   35.5760   57.8296   19.6186 C   0  0  0  0  0  0  0  0  0  0  0  0
   35.1075   56.9868   20.5836 C   0  0  0  0  0  0  0  0  0  0  0  0
   35.9415   56.5605   21.5852 C   0  0  0  0  0  0  0  0  0  0  0  0
   37.2531   56.9875   21.6111 C   0  0  0  0  0  0  0  0  0  0  0  0
   37.7116   57.8443   20.6215 C   0  0  0  0  0  0  0  0  0  0  0  0
   36.8709   58.2703   19.6172 C   0  0  0  0  0  0  0  0  0  0  0  0
   37.3865   59.1806   18.5774 C   0  0  0  0  0  0  0  0  0  0  0  0
   35.8944   52.0758   13.3688 C   0  0  0  0  0  0  0  0  0  0  0  0
   37.5318   56.5601   17.2944 C   0  0  0  0  0  0  0  0  0  0  0  0
   37.5771   55.8047   15.9588 C   0  0  1  0  0  0  0  0  0  0  0  0
   39.0413   55.6378   15.6619 C   0  0  0  0  0  0  0  0  0  0  0  0
   35.8470   54.0180   15.7186 C   0  0  0  0  0  0  0  0  0  0  0  0
   36.2820   53.5368   13.4205 C   0  0  0  0  0  0  0  0  0  0  0  0
   35.4049   54.3642   14.3333 C   0  0  1  0  0  0  0  0  0  0  0  0
   32.9921   54.3981   15.0996 C   0  0  0  0  0  0  0  0  0  0  0  0
   32.9733   55.7152   15.7862 C   0  0  0  0  0  0  0  0  0  0  0  0
   31.6184   56.1746   16.1956 C   0  0  2  0  0  0  0  0  0  0  0  0
   30.5882   56.0627   15.0949 C   0  0  0  0  0  0  0  0  0  0  0  0
   36.9588   48.6708   16.4865 N   0  0  0  0  0  4  0  0  0  0  0  0
   34.9856   48.5968   15.1737 N   0  0  0  0  0  0  0  0  0  0  0  0
   36.7718   50.1523   14.6371 N   0  0  0  0  0  0  0  0  0  0  0  0
   33.9954   54.0380   14.1690 N   0  0  0  0  0  0  0  0  0  0  0  0
   31.6108   57.6042   16.4106 N   0  0  0  0  0  0  0  0  0  0  0  0
   33.4245   58.8099   18.9708 N   0  0  0  0  0  0  0  0  0  0  0  0
   39.5473   55.6202   14.3326 N   0  0  0  0  0  0  0  0  0  0  0  0
   37.0533   54.4859   16.2445 N   0  0  0  0  0  0  0  0  0  0  0  0
   32.0811   53.5307   15.3348 O   0  0  0  0  0  0  0  0  0  0  0  0
   30.7349   59.2014   17.8670 O   0  0  0  0  0  0  0  0  0  0  0  0
   31.5193   55.7332   19.9645 O   0  0  0  0  0  0  0  0  0  0  0  0
   39.8840   55.5053   16.5901 O   0  0  0  0  0  0  0  0  0  0  0  0
   35.0816   53.2847   16.3900 O   0  0  0  0  0  0  0  0  0  0  0  0
   37.4651   58.3342   16.9545 S   0  0  0  0  0  0  0  0  0  0  0  0
  1 34  2  0
  1 35  1  0
 36  1  1  0
  3  2  1  0
 33  2  1  0
 38  3  1  0
  5  4  1  0
  4 38  1  0
  4 43  2  0
 39  5  1  0
  6  7  1  0
 39  6  1  0
  7  8  2  0
  7 13  1  0
  8  9  1  0
  9 10  2  0
 11 10  1  0
 13 11  2  0
 23 12  1  0
 12 36  1  0
 13 14  1  0
 14 44  1  0
 16 15  1  0
 15 39  1  0
 16 17  1  0
 21 16  2  0
 17 18  2  0
 19 18  1  0
 20 19  2  0
 21 20  1  0
 22 21  1  0
 28 23  1  0
 25 24  1  0
 25 26  1  1
 41 25  1  0
 26 40  1  0
 26 45  2  0
 29 27  1  0
 27 41  1  0
 27 46  2  0
 29 28  1  6
 37 29  1  0
 31 30  1  0
 30 37  1  0
 30 42  2  0
 32 31  1  6
 32 33  1  0
 38 32  1  0
 47 22  1  0
 24 47  1  0
M  CHG  1  34   1
M  END
$$$$
