
     RDKit          3D

 47 50  0  0  0  0  0  0  0  0999 V2000
   36.1461   48.8181   15.3823 C   0  0  0  0  0  0  0  0  0  0  0  0
   31.1427   56.7051   13.8513 C   0  0  0  0  0  0  0  0  0  0  0  0
   31.7683   57.7144   14.7887 C   0  0  0  0  0  0  0  0  0  0  0  0
   31.2855   57.7950   17.3453 C   0  0  0  0  0  0  0  0  0  0  0  0
   31.9736   57.4682   18.6166 C   0  0  0  0  0  0  0  0  0  0  0  0
   32.7351   59.2709   20.0476 C   0  0  0  0  0  0  0  0  0  0  0  0
   32.0724   58.5350   21.1399 C   0  0  0  0  0  0  0  0  0  0  0  0
   32.8239   57.6904   21.9252 C   0  0  0  0  0  0  0  0  0  0  0  0
   32.2619   56.9665   22.9683 C   0  0  0  0  0  0  0  0  0  0  0  0
   30.9160   57.0842   23.2396 C   0  0  0  0  0  0  0  0  0  0  0  0
   30.1658   57.9424   22.4381 C   0  0  0  0  0  0  0  0  0  0  0  0
   36.0250   51.2483   14.8928 C   0  0  0  0  0  0  0  0  0  0  0  0
   30.7264   58.6599   21.4030 C   0  0  0  0  0  0  0  0  0  0  0  0
   29.8614   59.5675   20.5804 C   0  0  0  0  0  0  0  0  0  0  0  0
   34.2566   58.0388   18.6223 C   0  0  0  0  0  0  0  0  0  0  0  0
   35.0275   57.6506   19.8280 C   0  0  0  0  0  0  0  0  0  0  0  0
   34.4776   56.7980   20.7400 C   0  0  0  0  0  0  0  0  0  0  0  0
   35.1888   56.4354   21.8551 C   0  0  0  0  0  0  0  0  0  0  0  0
   36.4595   56.9363   22.0486 C   0  0  0  0  0  0  0  0  0  0  0  0
   37.0021   57.8020   21.1106 C   0  0  0  0  0  0  0  0  0  0  0  0
   36.2848   58.1638   19.9919 C   0  0  0  0  0  0  0  0  0  0  0  0
   36.8878   59.0853   19.0106 C   0  0  0  0  0  0  0  0  0  0  0  0
   36.3752   51.8920   13.5688 C   0  0  0  0  0  0  0  0  0  0  0  0
   37.3482   56.4573   17.8207 C   0  0  0  0  0  0  0  0  0  0  0  0
   37.6163   55.6847   16.5216 C   0  0  1  0  0  0  0  0  0  0  0  0
   39.1141   55.5963   16.4298 C   0  0  0  0  0  0  0  0  0  0  0  0
   36.0341   53.7994   16.0908 C   0  0  0  0  0  0  0  0  0  0  0  0
   36.8044   53.3074   13.8847 C   0  0  0  0  0  0  0  0  0  0  0  0
   35.7674   54.0981   14.6506 C   0  0  1  0  0  0  0  0  0  0  0  0
   33.2742   54.0074   15.0818 C   0  0  0  0  0  0  0  0  0  0  0  0
   33.0908   55.3321   15.7285 C   0  0  0  0  0  0  0  0  0  0  0  0
   31.6699   55.7204   15.9397 C   0  0  2  0  0  0  0  0  0  0  0  0
   30.8073   55.5330   14.7124 C   0  0  0  0  0  0  0  0  0  0  0  0
   36.9472   48.9113   16.3745 N   0  0  0  0  0  4  0  0  0  0  0  0
   35.8639   47.5283   14.7820 N   0  0  0  0  0  0  0  0  0  0  0  0
   35.5056   49.9303   14.7828 N   0  0  0  0  0  0  0  0  0  0  0  0
   34.4132   53.6901   14.3044 N   0  0  0  0  0  0  0  0  0  0  0  0
   31.5558   57.1505   16.1183 N   0  0  0  0  0  0  0  0  0  0  0  0
   32.9350   58.4972   18.8718 N   0  0  0  0  0  0  0  0  0  0  0  0
   39.9682   56.5582   17.0371 N   0  0  0  0  0  0  0  0  0  0  0  0
   37.1302   54.3431   16.7643 N   0  0  0  0  0  0  0  0  0  0  0  0
   32.3877   53.0937   15.2114 O   0  0  0  0  0  0  0  0  0  0  0  0
   30.4043   58.7183   17.4048 O   0  0  0  0  0  0  0  0  0  0  0  0
   30.5431   60.0057   19.4603 O   0  0  0  0  0  0  0  0  0  0  0  0
   39.6747   54.6564   15.8041 O   0  0  0  0  0  0  0  0  0  0  0  0
   35.2248   53.0346   16.6692 O   0  0  0  0  0  0  0  0  0  0  0  0
   37.2329   58.2193   17.4335 S   0  0  0  0  0  0  0  0  0  0  0  0
  1 34  2  0
  1 35  1  0
 36  1  1  0
  3  2  1  0
 33  2  1  0
 38  3  1  0
  5  4  1  0
  4 38  1  0
  4 43  2  0
 39  5  1  0
  6  7  1  0
 39  6  1  0
  7  8  2  0
  7 13  1  0
  8  9  1  0
  9 10  2  0
 11 10  1  0
 13 11  2  0
 23 12  1  0
 12 36  1  0
 13 14  1  0
 14 44  1  0
 16 15  1  0
 15 39  1  0
 16 17  1  0
 21 16  2  0
 17 18  2  0
 19 18  1  0
 20 19  2  0
 21 20  1  0
 22 21  1  0
 28 23  1  0
 25 24  1  0
 25 26  1  1
 41 25  1  0
 26 40  1  0
 26 45  2  0
 29 27  1  0
 27 41  1  0
 27 46  2  0
 29 28  1  6
 37 29  1  0
 31 30  1  0
 30 37  1  0
 30 42  2  0
 32 31  1  6
 32 33  1  0
 38 32  1  0
 47 22  1  0
 24 47  1  0
M  CHG  1  34   1
M  END
$$$$
