
     RDKit          3D

 47 50  0  0  0  0  0  0  0  0999 V2000
   38.0075   49.8240   17.0095 C   0  0  0  0  0  0  0  0  0  0  0  0
   35.8432   55.6624   11.4441 C   0  0  0  0  0  0  0  0  0  0  0  0
   35.8986   56.7434   12.5000 C   0  0  0  0  0  0  0  0  0  0  0  0
   33.8282   58.0787   13.4120 C   0  0  0  0  0  0  0  0  0  0  0  0
   32.4522   58.4693   13.0647 C   0  0  0  0  0  0  0  0  0  0  0  0
   30.2927   57.5905   13.5345 C   0  0  0  0  0  0  0  0  0  0  0  0
   29.9015   58.0497   12.1928 C   0  0  0  0  0  0  0  0  0  0  0  0
   29.4224   59.3449   11.9947 C   0  0  0  0  0  0  0  0  0  0  0  0
   29.0547   59.7875   10.7415 C   0  0  0  0  0  0  0  0  0  0  0  0
   29.1463   58.9641    9.6288 C   0  0  0  0  0  0  0  0  0  0  0  0
   29.6187   57.6802    9.8091 C   0  0  0  0  0  0  0  0  0  0  0  0
   37.7031   51.8022   15.5636 C   0  0  0  0  0  0  0  0  0  0  0  0
   29.9868   57.2413   11.0722 C   0  0  0  0  0  0  0  0  0  0  0  0
   30.4860   55.8564   11.1924 C   0  0  0  0  0  0  0  0  0  0  0  0
   31.9518   57.6463   15.2657 C   0  0  0  0  0  0  0  0  0  0  0  0
   32.0117   58.5395   16.4393 C   0  0  0  0  0  0  0  0  0  0  0  0
   32.2880   59.8876   16.3722 C   0  0  0  0  0  0  0  0  0  0  0  0
   32.3476   60.7278   17.4600 C   0  0  0  0  0  0  0  0  0  0  0  0
   32.1177   60.2022   18.7101 C   0  0  0  0  0  0  0  0  0  0  0  0
   31.8403   58.8766   18.8335 C   0  0  0  0  0  0  0  0  0  0  0  0
   31.7854   58.0514   17.7279 C   0  0  0  0  0  0  0  0  0  0  0  0
   31.4825   56.6163   17.8959 C   0  0  0  0  0  0  0  0  0  0  0  0
   38.2148   52.7554   16.6286 C   0  0  0  0  0  0  0  0  0  0  0  0
   34.1715   55.8536   18.8208 C   0  0  0  0  0  0  0  0  0  0  0  0
   35.5296   55.4983   18.2428 C   0  0  1  0  0  0  0  0  0  0  0  0
   36.5994   55.6430   19.2533 C   0  0  0  0  0  0  0  0  0  0  0  0
   35.6595   53.7208   16.4629 C   0  0  0  0  0  0  0  0  0  0  0  0
   38.0626   54.1559   16.0480 C   0  0  0  0  0  0  0  0  0  0  0  0
   36.6447   54.3904   15.5765 C   0  0  1  0  0  0  0  0  0  0  0  0
   35.2437   53.7404   13.5817 C   0  0  0  0  0  0  0  0  0  0  0  0
   34.1478   54.6798   13.8041 C   0  0  0  0  0  0  0  0  0  0  0  0
   33.8780   55.6487   12.7061 C   0  0  2  0  0  0  0  0  0  0  0  0
   34.4196   55.2298   11.3665 C   0  0  0  0  0  0  0  0  0  0  0  0
   39.1712   49.5602   16.5724 N   0  0  0  0  0  4  0  0  0  0  0  0
   37.4924   49.3605   18.2464 N   0  0  0  0  0  0  0  0  0  0  0  0
   37.1473   50.6393   16.2189 N   0  0  0  0  0  0  0  0  0  0  0  0
   36.5123   53.8122   14.2433 N   0  0  0  0  0  0  0  0  0  0  0  0
   34.5178   56.9394   12.9099 N   0  0  0  0  0  0  0  0  0  0  0  0
   31.4668   58.2511   14.0687 N   0  0  0  0  0  0  0  0  0  0  0  0
   37.8152   56.2889   18.9404 N   0  0  0  0  0  0  0  0  0  0  0  0
   35.4281   54.1095   17.8035 N   0  0  0  0  0  0  0  0  0  0  0  0
   35.0890   52.7992   12.7618 O   0  0  0  0  0  0  0  0  0  0  0  0
   34.4626   58.8151   14.2278 O   0  0  0  0  0  0  0  0  0  0  0  0
   29.5282   55.0958   11.8437 O   0  0  0  0  0  0  0  0  0  0  0  0
   36.4138   55.1818   20.4021 O   0  0  0  0  0  0  0  0  0  0  0  0
   34.9563   52.7370   16.0469 O   0  0  0  0  0  0  0  0  0  0  0  0
   32.9669   55.6803   17.4637 S   0  0  0  0  0  0  0  0  0  0  0  0
  1 34  2  0
  1 35  1  0
 36  1  1  0
  2  3  1  1
 33  2  1  1
  3 38  1  6
  5  4  1  0
  4 38  1  0
  4 43  2  0
  5 39  1  6
  6  7  1  0
  6 39  1  6
  7  8  2  0
  7 13  1  0
  8  9  1  0
  9 10  2  0
 11 10  1  0
 13 11  2  0
 23 12  1  1
 12 36  1  6
 13 14  1  0
 14 44  1  6
 16 15  1  0
 15 39  1  6
 16 17  1  0
 21 16  2  0
 17 18  2  0
 19 18  1  0
 20 19  2  0
 21 20  1  0
 22 21  1  0
 28 23  1  0
 25 24  1  0
 25 26  1  1
 41 25  1  0
 26 40  1  0
 26 45  2  0
 29 27  1  0
 27 41  1  0
 27 46  2  0
 28 29  1  6
 29 37  1  6
 31 30  1  1
 30 37  1  0
 30 42  2  0
 32 31  1  0
 32 33  1  0
 32 38  1  1
 22 47  1  6
 24 47  1  6
M  CHG  1  34   1
M  END
$$$$
