
     RDKit          3D

 47 50  0  0  0  0  0  0  0  0999 V2000
   36.7241   48.9055   15.9473 C   0  0  0  0  0  0  0  0  0  0  0  0
   31.3441   57.6897   13.5050 C   0  0  0  0  0  0  0  0  0  0  0  0
   32.0867   58.5092   14.5373 C   0  0  0  0  0  0  0  0  0  0  0  0
   31.3352   58.7168   17.0209 C   0  0  0  0  0  0  0  0  0  0  0  0
   31.7597   58.2290   18.3545 C   0  0  0  0  0  0  0  0  0  0  0  0
   32.7739   59.7825   19.9150 C   0  0  0  0  0  0  0  0  0  0  0  0
   32.5681   59.0067   21.1518 C   0  0  0  0  0  0  0  0  0  0  0  0
   33.4584   59.1610   22.1902 C   0  0  0  0  0  0  0  0  0  0  0  0
   33.3238   58.4593   23.3808 C   0  0  0  0  0  0  0  0  0  0  0  0
   32.2761   57.5795   23.5453 C   0  0  0  0  0  0  0  0  0  0  0  0
   31.3812   57.4321   22.4873 C   0  0  0  0  0  0  0  0  0  0  0  0
   35.3905   50.7862   15.0283 C   0  0  0  0  0  0  0  0  0  0  0  0
   31.5172   58.1300   21.3062 C   0  0  0  0  0  0  0  0  0  0  0  0
   30.5169   57.9250   20.2081 C   0  0  0  0  0  0  0  0  0  0  0  0
   34.0948   58.2000   18.6441 C   0  0  0  0  0  0  0  0  0  0  0  0
   34.5911   57.6316   19.9205 C   0  0  0  0  0  0  0  0  0  0  0  0
   33.7376   56.9494   20.7374 C   0  0  0  0  0  0  0  0  0  0  0  0
   34.1940   56.4208   21.9176 C   0  0  0  0  0  0  0  0  0  0  0  0
   35.5171   56.5824   22.2730 C   0  0  0  0  0  0  0  0  0  0  0  0
   36.3701   57.2790   21.4298 C   0  0  0  0  0  0  0  0  0  0  0  0
   35.9080   57.8084   20.2453 C   0  0  0  0  0  0  0  0  0  0  0  0
   36.8384   58.5435   19.3679 C   0  0  0  0  0  0  0  0  0  0  0  0
   35.2100   51.6598   13.8059 C   0  0  0  0  0  0  0  0  0  0  0  0
   36.7592   55.8817   18.1668 C   0  0  0  0  0  0  0  0  0  0  0  0
   36.9779   55.0628   16.8869 C   0  0  1  0  0  0  0  0  0  0  0  0
   38.4045   54.5959   16.9691 C   0  0  0  0  0  0  0  0  0  0  0  0
   35.0343   53.6410   16.2205 C   0  0  0  0  0  0  0  0  0  0  0  0
   35.9155   52.9633   14.1072 C   0  0  0  0  0  0  0  0  0  0  0  0
   35.0276   53.9939   14.7679 C   0  0  1  0  0  0  0  0  0  0  0  0
   32.5594   54.5418   14.9008 C   0  0  0  0  0  0  0  0  0  0  0  0
   32.6403   55.8712   15.5585 C   0  0  0  0  0  0  0  0  0  0  0  0
   31.3490   56.6090   15.6123 C   0  0  2  0  0  0  0  0  0  0  0  0
   30.6217   56.6439   14.2874 C   0  0  0  0  0  0  0  0  0  0  0  0
   35.8887   48.4945   16.8237 N   0  0  0  0  0  4  0  0  0  0  0  0
   38.1170   48.5066   16.0133 N   0  0  0  0  0  0  0  0  0  0  0  0
   36.3829   49.7792   14.8858 N   0  0  0  0  0  0  0  0  0  0  0  0
   33.6663   53.9430   14.2539 N   0  0  0  0  0  0  0  0  0  0  0  0
   31.5797   58.0214   15.8164 N   0  0  0  0  0  0  0  0  0  0  0  0
   32.9119   58.9802   18.7495 N   0  0  0  0  0  0  0  0  0  0  0  0
   39.2927   55.0498   17.9832 N   0  0  0  0  0  0  0  0  0  0  0  0
   36.1427   53.8896   17.0330 N   0  0  0  0  0  0  0  0  0  0  0  0
   31.4616   53.8840   14.8997 O   0  0  0  0  0  0  0  0  0  0  0  0
   30.7156   59.8341   17.0024 O   0  0  0  0  0  0  0  0  0  0  0  0
   29.3492   58.6138   20.4790 O   0  0  0  0  0  0  0  0  0  0  0  0
   38.8715   53.7761   16.1330 O   0  0  0  0  0  0  0  0  0  0  0  0
   33.9942   53.1089   16.6782 O   0  0  0  0  0  0  0  0  0  0  0  0
   37.1410   57.6139   17.8185 S   0  0  0  0  0  0  0  0  0  0  0  0
  1 34  2  0
  1 35  1  0
 36  1  1  0
  3  2  1  0
 33  2  1  0
 38  3  1  0
  5  4  1  0
  4 38  1  0
  4 43  2  0
 39  5  1  0
  6  7  1  0
 39  6  1  0
  7  8  2  0
  7 13  1  0
  8  9  1  0
  9 10  2  0
 11 10  1  0
 13 11  2  0
 23 12  1  0
 12 36  1  0
 13 14  1  0
 14 44  1  0
 16 15  1  0
 15 39  1  0
 16 17  1  0
 21 16  2  0
 17 18  2  0
 19 18  1  0
 20 19  2  0
 21 20  1  0
 22 21  1  0
 28 23  1  0
 25 24  1  0
 25 26  1  1
 41 25  1  0
 26 40  1  0
 26 45  2  0
 29 27  1  0
 27 41  1  0
 27 46  2  0
 29 28  1  6
 37 29  1  0
 31 30  1  0
 30 37  1  0
 30 42  2  0
 32 31  1  6
 32 33  1  0
 38 32  1  0
 47 22  1  0
 24 47  1  0
M  CHG  1  34   1
M  END
$$$$
