
     RDKit          3D

 47 50  0  0  0  0  0  0  0  0999 V2000
   35.8902   49.0055   15.1800 C   0  0  0  0  0  0  0  0  0  0  0  0
   30.8740   57.3494   14.8484 C   0  0  0  0  0  0  0  0  0  0  0  0
   31.7261   58.1986   15.7658 C   0  0  0  0  0  0  0  0  0  0  0  0
   31.6758   58.0075   18.3613 C   0  0  0  0  0  0  0  0  0  0  0  0
   32.5328   57.4892   19.4538 C   0  0  0  0  0  0  0  0  0  0  0  0
   33.6652   59.0575   20.9151 C   0  0  0  0  0  0  0  0  0  0  0  0
   32.4451   58.8903   21.7258 C   0  0  0  0  0  0  0  0  0  0  0  0
   32.5216   58.1858   22.9058 C   0  0  0  0  0  0  0  0  0  0  0  0
   31.4103   57.9897   23.7151 C   0  0  0  0  0  0  0  0  0  0  0  0
   30.1889   58.5075   23.3425 C   0  0  0  0  0  0  0  0  0  0  0  0
   30.1242   59.2190   22.1461 C   0  0  0  0  0  0  0  0  0  0  0  0
   35.9241   51.3729   14.4353 C   0  0  0  0  0  0  0  0  0  0  0  0
   31.2290   59.4122   21.3445 C   0  0  0  0  0  0  0  0  0  0  0  0
   31.0896   60.1898   20.0700 C   0  0  0  0  0  0  0  0  0  0  0  0
   34.8255   57.9071   19.1277 C   0  0  0  0  0  0  0  0  0  0  0  0
   35.7479   57.3303   20.1352 C   0  0  0  0  0  0  0  0  0  0  0  0
   35.2853   56.4131   21.0329 C   0  0  0  0  0  0  0  0  0  0  0  0
   36.1363   55.8764   21.9648 C   0  0  0  0  0  0  0  0  0  0  0  0
   37.4589   56.2681   21.9890 C   0  0  0  0  0  0  0  0  0  0  0  0
   37.9112   57.2018   21.0685 C   0  0  0  0  0  0  0  0  0  0  0  0
   37.0534   57.7386   20.1341 C   0  0  0  0  0  0  0  0  0  0  0  0
   37.5627   58.7289   19.1667 C   0  0  0  0  0  0  0  0  0  0  0  0
   35.6187   52.2390   13.2326 C   0  0  0  0  0  0  0  0  0  0  0  0
   37.6020   56.2357   17.6447 C   0  0  0  0  0  0  0  0  0  0  0  0
   37.5889   55.6063   16.2446 C   0  0  1  0  0  0  0  0  0  0  0  0
   39.0390   55.4331   15.8882 C   0  0  0  0  0  0  0  0  0  0  0  0
   35.8061   53.8908   15.8953 C   0  0  0  0  0  0  0  0  0  0  0  0
   36.1620   53.6143   13.5503 C   0  0  0  0  0  0  0  0  0  0  0  0
   35.3336   54.3741   14.5619 C   0  0  1  0  0  0  0  0  0  0  0  0
   32.9456   54.3937   15.4028 C   0  0  0  0  0  0  0  0  0  0  0  0
   32.9812   55.6417   16.2076 C   0  0  0  0  0  0  0  0  0  0  0  0
   31.6513   56.0931   16.6994 C   0  0  2  0  0  0  0  0  0  0  0  0
   30.5872   56.1078   15.6256 C   0  0  0  0  0  0  0  0  0  0  0  0
   35.2372   47.9305   15.4098 N   0  0  0  0  0  4  0  0  0  0  0  0
   37.1793   49.2323   15.8048 N   0  0  0  0  0  0  0  0  0  0  0  0
   35.4179   50.0483   14.3456 N   0  0  0  0  0  0  0  0  0  0  0  0
   33.9119   54.0978   14.4123 N   0  0  0  0  0  0  0  0  0  0  0  0
   31.6875   57.4964   17.0449 N   0  0  0  0  0  0  0  0  0  0  0  0
   33.6052   58.4168   19.6473 N   0  0  0  0  0  0  0  0  0  0  0  0
   39.5070   54.3177   15.1396 N   0  0  0  0  0  0  0  0  0  0  0  0
   37.0390   54.2794   16.4241 N   0  0  0  0  0  0  0  0  0  0  0  0
   32.0192   53.5300   15.5855 O   0  0  0  0  0  0  0  0  0  0  0  0
   30.8962   58.9721   18.6683 O   0  0  0  0  0  0  0  0  0  0  0  0
   30.8619   61.5267   20.3383 O   0  0  0  0  0  0  0  0  0  0  0  0
   39.9035   56.2789   16.2440 O   0  0  0  0  0  0  0  0  0  0  0  0
   35.0413   53.1167   16.5199 O   0  0  0  0  0  0  0  0  0  0  0  0
   37.5722   58.0348   17.4713 S   0  0  0  0  0  0  0  0  0  0  0  0
  1 34  2  0
  1 35  1  0
 36  1  1  0
  3  2  1  0
 33  2  1  0
 38  3  1  0
  5  4  1  0
  4 38  1  0
  4 43  2  0
 39  5  1  0
  6  7  1  0
 39  6  1  0
  7  8  2  0
  7 13  1  0
  8  9  1  0
  9 10  2  0
 11 10  1  0
 13 11  2  0
 23 12  1  0
 12 36  1  0
 13 14  1  0
 14 44  1  0
 16 15  1  0
 15 39  1  0
 16 17  1  0
 21 16  2  0
 17 18  2  0
 19 18  1  0
 20 19  2  0
 21 20  1  0
 22 21  1  0
 28 23  1  0
 25 24  1  0
 25 26  1  1
 41 25  1  0
 26 40  1  0
 26 45  2  0
 29 27  1  0
 27 41  1  0
 27 46  2  0
 29 28  1  6
 37 29  1  0
 31 30  1  0
 30 37  1  0
 30 42  2  0
 32 31  1  6
 32 33  1  0
 38 32  1  0
 47 22  1  0
 24 47  1  0
M  CHG  1  34   1
M  END
$$$$
