
     RDKit          3D

 47 50  0  0  0  0  0  0  0  0999 V2000
   38.1501   48.8132   17.1347 C   0  0  0  0  0  0  0  0  0  0  0  0
   35.3106   55.2256   11.4562 C   0  0  0  0  0  0  0  0  0  0  0  0
   35.6479   56.2789   12.4875 C   0  0  0  0  0  0  0  0  0  0  0  0
   34.0400   58.2032   13.2705 C   0  0  0  0  0  0  0  0  0  0  0  0
   32.8579   58.9732   12.8506 C   0  0  0  0  0  0  0  0  0  0  0  0
   30.5185   58.7959   13.2407 C   0  0  0  0  0  0  0  0  0  0  0  0
   30.5069   58.7399   11.7708 C   0  0  0  0  0  0  0  0  0  0  0  0
   31.6492   59.0598   11.0367 C   0  0  0  0  0  0  0  0  0  0  0  0
   31.6512   59.0088    9.6586 C   0  0  0  0  0  0  0  0  0  0  0  0
   30.5192   58.6378    8.9476 C   0  0  0  0  0  0  0  0  0  0  0  0
   29.3816   58.3183    9.6602 C   0  0  0  0  0  0  0  0  0  0  0  0
   37.0216   51.0029   16.9670 C   0  0  0  0  0  0  0  0  0  0  0  0
   29.3863   58.3717   11.0460 C   0  0  0  0  0  0  0  0  0  0  0  0
   28.1348   58.0146   11.7447 C   0  0  0  0  0  0  0  0  0  0  0  0
   32.0529   58.4180   15.0451 C   0  0  0  0  0  0  0  0  0  0  0  0
   32.3338   59.2951   16.1985 C   0  0  0  0  0  0  0  0  0  0  0  0
   33.0034   60.4961   16.1120 C   0  0  0  0  0  0  0  0  0  0  0  0
   33.2714   61.3197   17.1811 C   0  0  0  0  0  0  0  0  0  0  0  0
   32.8486   60.9326   18.4314 C   0  0  0  0  0  0  0  0  0  0  0  0
   32.1826   59.7555   18.5734 C   0  0  0  0  0  0  0  0  0  0  0  0
   31.9243   58.9442   17.4865 C   0  0  0  0  0  0  0  0  0  0  0  0
   31.1996   57.6719   17.6745 C   0  0  0  0  0  0  0  0  0  0  0  0
   36.9409   51.8558   15.7137 C   0  0  0  0  0  0  0  0  0  0  0  0
   33.5007   56.1767   18.7409 C   0  0  0  0  0  0  0  0  0  0  0  0
   34.7106   55.4117   18.2351 C   0  0  1  0  0  0  0  0  0  0  0  0
   35.7365   55.2679   19.2903 C   0  0  0  0  0  0  0  0  0  0  0  0
   34.3682   53.6124   16.5061 C   0  0  0  0  0  0  0  0  0  0  0  0
   36.8050   53.2958   16.1927 C   0  0  0  0  0  0  0  0  0  0  0  0
   35.5409   53.9249   15.6506 C   0  0  1  0  0  0  0  0  0  0  0  0
   34.0844   53.6494   13.6091 C   0  0  0  0  0  0  0  0  0  0  0  0
   33.3126   54.8803   13.7580 C   0  0  0  0  0  0  0  0  0  0  0  0
   33.3861   55.8446   12.6258 C   0  0  2  0  0  0  0  0  0  0  0  0
   33.8267   55.2345   11.3232 C   0  0  0  0  0  0  0  0  0  0  0  0
   37.8575   48.0141   18.0785 N   0  0  0  0  0  4  0  0  0  0  0  0
   39.4502   48.9683   16.5908 N   0  0  0  0  0  0  0  0  0  0  0  0
   37.1165   49.6155   16.5712 N   0  0  0  0  0  0  0  0  0  0  0  0
   35.2910   53.3640   14.3269 N   0  0  0  0  0  0  0  0  0  0  0  0
   34.3750   56.8924   12.8282 N   0  0  0  0  0  0  0  0  0  0  0  0
   31.8159   59.0955   13.8127 N   0  0  0  0  0  0  0  0  0  0  0  0
   36.3301   54.0167   19.5642 N   0  0  0  0  0  0  0  0  0  0  0  0
   34.2143   54.1013   17.8249 N   0  0  0  0  0  0  0  0  0  0  0  0
   33.6855   52.7677   12.8057 O   0  0  0  0  0  0  0  0  0  0  0  0
   34.8350   58.7464   14.0969 O   0  0  0  0  0  0  0  0  0  0  0  0
   27.2548   59.0806   11.6484 O   0  0  0  0  0  0  0  0  0  0  0  0
   36.0770   56.2786   19.9456 O   0  0  0  0  0  0  0  0  0  0  0  0
   33.4187   52.8683   16.0816 O   0  0  0  0  0  0  0  0  0  0  0  0
   32.3506   56.3207   17.3340 S   0  0  0  0  0  0  0  0  0  0  0  0
  1 34  2  0
  1 35  1  0
 36  1  1  0
  2  3  1  1
 33  2  1  1
  3 38  1  6
  5  4  1  0
  4 38  1  0
  4 43  2  0
  5 39  1  6
  6  7  1  0
  6 39  1  6
  7  8  2  0
  7 13  1  0
  8  9  1  0
  9 10  2  0
 11 10  1  0
 13 11  2  0
 23 12  1  1
 12 36  1  6
 13 14  1  0
 14 44  1  6
 16 15  1  0
 15 39  1  6
 16 17  1  0
 21 16  2  0
 17 18  2  0
 19 18  1  0
 20 19  2  0
 21 20  1  0
 22 21  1  0
 28 23  1  0
 25 24  1  0
 25 26  1  1
 41 25  1  0
 26 40  1  0
 26 45  2  0
 29 27  1  0
 27 41  1  0
 27 46  2  0
 28 29  1  6
 29 37  1  6
 31 30  1  1
 30 37  1  0
 30 42  2  0
 32 31  1  0
 32 33  1  0
 32 38  1  1
 22 47  1  6
 24 47  1  6
M  CHG  1  34   1
M  END
$$$$
