
     RDKit          3D

 47 50  0  0  0  0  0  0  0  0999 V2000
   37.5968   48.3171   15.1573 C   0  0  0  0  0  0  0  0  0  0  0  0
   35.3060   54.2858   20.8284 C   0  0  0  0  0  0  0  0  0  0  0  0
   34.0030   55.0270   20.6247 C   0  0  0  0  0  0  0  0  0  0  0  0
   33.8559   57.5961   20.2325 C   0  0  0  0  0  0  0  0  0  0  0  0
   33.5723   58.5359   19.1221 C   0  0  0  0  0  0  0  0  0  0  0  0
   31.4744   59.7508   19.1065 C   0  0  0  0  0  0  0  0  0  0  0  0
   31.5902   60.2616   20.4848 C   0  0  0  0  0  0  0  0  0  0  0  0
   31.0039   59.5527   21.5087 C   0  0  0  0  0  0  0  0  0  0  0  0
   31.0734   59.9791   22.8283 C   0  0  0  0  0  0  0  0  0  0  0  0
   31.7438   61.1418   23.1404 C   0  0  0  0  0  0  0  0  0  0  0  0
   32.3334   61.8506   22.0955 C   0  0  0  0  0  0  0  0  0  0  0  0
   36.0737   50.0468   14.2362 C   0  0  0  0  0  0  0  0  0  0  0  0
   32.2628   61.4250   20.7862 C   0  0  0  0  0  0  0  0  0  0  0  0
   32.9217   62.2350   19.7100 C   0  0  0  0  0  0  0  0  0  0  0  0
   31.8420   57.8142   17.6998 C   0  0  0  0  0  0  0  0  0  0  0  0
   31.5722   58.6602   16.5123 C   0  0  0  0  0  0  0  0  0  0  0  0
   32.4533   59.6417   16.1635 C   0  0  0  0  0  0  0  0  0  0  0  0
   32.2076   60.4245   15.0647 C   0  0  0  0  0  0  0  0  0  0  0  0
   31.0679   60.2144   14.3164 C   0  0  0  0  0  0  0  0  0  0  0  0
   30.1836   59.2120   14.6863 C   0  0  0  0  0  0  0  0  0  0  0  0
   30.4338   58.4278   15.7906 C   0  0  0  0  0  0  0  0  0  0  0  0
   29.4761   57.3683   16.1595 C   0  0  0  0  0  0  0  0  0  0  0  0
   36.3034   51.4679   14.7026 C   0  0  0  0  0  0  0  0  0  0  0  0
   31.5458   55.9112   14.7011 C   0  0  0  0  0  0  0  0  0  0  0  0
   32.2100   54.5466   14.4704 C   0  0  1  0  0  0  0  0  0  0  0  0
   31.4686   53.9509   13.3063 C   0  0  0  0  0  0  0  0  0  0  0  0
   34.6929   54.5411   14.7504 C   0  0  0  0  0  0  0  0  0  0  0  0
   34.9723   52.1756   14.5806 C   0  0  0  0  0  0  0  0  0  0  0  0
   34.7900   53.2990   15.5765 C   0  0  1  0  0  0  0  0  0  0  0  0
   36.1820   54.5354   17.2921 C   0  0  0  0  0  0  0  0  0  0  0  0
   35.1056   55.2977   17.9753 C   0  0  0  0  0  0  0  0  0  0  0  0
   35.5416   56.0008   19.2122 C   0  0  2  0  0  0  0  0  0  0  0  0
   36.3386   55.1248   20.1518 C   0  0  0  0  0  0  0  0  0  0  0  0
   38.7214   48.7707   15.5626 N   0  0  0  0  0  4  0  0  0  0  0  0
   37.5019   46.9882   14.5838 N   0  0  0  0  0  0  0  0  0  0  0  0
   36.3889   49.0556   15.2043 N   0  0  0  0  0  0  0  0  0  0  0  0
   35.9201   53.4002   16.4890 N   0  0  0  0  0  0  0  0  0  0  0  0
   34.4037   56.3075   20.0495 N   0  0  0  0  0  0  0  0  0  0  0  0
   32.1604   58.5249   18.8883 N   0  0  0  0  0  0  0  0  0  0  0  0
   31.2629   52.5493   13.1765 N   0  0  0  0  0  0  0  0  0  0  0  0
   33.5492   54.8435   14.0081 N   0  0  0  0  0  0  0  0  0  0  0  0
   37.4055   54.8908   17.4125 O   0  0  0  0  0  0  0  0  0  0  0  0
   33.5745   58.0131   21.4070 O   0  0  0  0  0  0  0  0  0  0  0  0
   32.5635   63.5662   19.8149 O   0  0  0  0  0  0  0  0  0  0  0  0
   30.9969   54.6793   12.3918 O   0  0  0  0  0  0  0  0  0  0  0  0
   35.6903   55.3024   14.7543 O   0  0  0  0  0  0  0  0  0  0  0  0
   30.2124   55.7102   15.9049 S   0  0  0  0  0  0  0  0  0  0  0  0
  1 34  2  0
  1 35  1  0
 36  1  1  0
  3  2  1  0
 33  2  1  0
 38  3  1  0
  5  4  1  0
  4 38  1  0
  4 43  2  0
 39  5  1  0
  6  7  1  0
 39  6  1  0
  7  8  2  0
  7 13  1  0
  8  9  1  0
  9 10  2  0
 11 10  1  0
 13 11  2  0
 23 12  1  0
 12 36  1  0
 13 14  1  0
 14 44  1  0
 16 15  1  0
 15 39  1  0
 16 17  1  0
 21 16  2  0
 17 18  2  0
 19 18  1  0
 20 19  2  0
 21 20  1  0
 22 21  1  0
 28 23  1  0
 25 24  1  0
 25 26  1  6
 41 25  1  0
 26 40  1  0
 26 45  2  0
 29 27  1  0
 27 41  1  0
 27 46  2  0
 29 28  1  6
 37 29  1  0
 31 30  1  0
 30 37  1  0
 30 42  2  0
 32 31  1  6
 32 33  1  0
 38 32  1  0
 47 22  1  0
 24 47  1  0
M  CHG  1  34   1
M  END
$$$$
