
     RDKit          3D

 47 50  0  0  0  0  0  0  0  0999 V2000
   35.4620   50.0663   17.6581 C   0  0  0  0  0  0  0  0  0  0  0  0
   31.5051   53.7095   13.6641 C   0  0  0  0  0  0  0  0  0  0  0  0
   32.7750   53.9360   12.8750 C   0  0  0  0  0  0  0  0  0  0  0  0
   33.2294   55.9798   11.2883 C   0  0  0  0  0  0  0  0  0  0  0  0
   32.5413   57.0190   10.5053 C   0  0  0  0  0  0  0  0  0  0  0  0
   31.9307   59.2837   10.8994 C   0  0  0  0  0  0  0  0  0  0  0  0
   30.7755   59.0871   10.0100 C   0  0  0  0  0  0  0  0  0  0  0  0
   29.6195   58.4577   10.4722 C   0  0  0  0  0  0  0  0  0  0  0  0
   28.5295   58.2697    9.6487 C   0  0  0  0  0  0  0  0  0  0  0  0
   28.5384   58.6983    8.3293 C   0  0  0  0  0  0  0  0  0  0  0  0
   29.6749   59.3228    7.8578 C   0  0  0  0  0  0  0  0  0  0  0  0
   34.2607   52.1539   17.1149 C   0  0  0  0  0  0  0  0  0  0  0  0
   30.7677   59.5087    8.6914 C   0  0  0  0  0  0  0  0  0  0  0  0
   31.9501   60.1864    8.1218 C   0  0  0  0  0  0  0  0  0  0  0  0
   34.0779   58.4928   11.6184 C   0  0  0  0  0  0  0  0  0  0  0  0
   35.3995   58.7909   11.0326 C   0  0  0  0  0  0  0  0  0  0  0  0
   35.8288   58.3185    9.8117 C   0  0  0  0  0  0  0  0  0  0  0  0
   37.0589   58.5893    9.2581 C   0  0  0  0  0  0  0  0  0  0  0  0
   37.9343   59.3859    9.9588 C   0  0  0  0  0  0  0  0  0  0  0  0
   37.5610   59.8791   11.1699 C   0  0  0  0  0  0  0  0  0  0  0  0
   36.3212   59.5945   11.7067 C   0  0  0  0  0  0  0  0  0  0  0  0
   35.9468   60.1449   13.0244 C   0  0  0  0  0  0  0  0  0  0  0  0
   35.2003   53.1633   17.7496 C   0  0  0  0  0  0  0  0  0  0  0  0
   37.5102   58.2151   14.6053 C   0  0  0  0  0  0  0  0  0  0  0  0
   37.3808   56.8070   15.1577 C   0  0  1  0  0  0  0  0  0  0  0  0
   38.7028   56.2377   15.4964 C   0  0  0  0  0  0  0  0  0  0  0  0
   35.3330   56.2178   16.5009 C   0  0  0  0  0  0  0  0  0  0  0  0
   35.9513   53.8210   16.5986 C   0  0  0  0  0  0  0  0  0  0  0  0
   35.0927   54.8696   15.9269 C   0  0  1  0  0  0  0  0  0  0  0  0
   32.6321   55.4063   15.7792 C   0  0  0  0  0  0  0  0  0  0  0  0
   32.7087   56.3475   14.6650 C   0  0  0  0  0  0  0  0  0  0  0  0
   31.9176   55.9986   13.4528 C   0  0  2  0  0  0  0  0  0  0  0  0
   30.8013   55.0220   13.7043 C   0  0  0  0  0  0  0  0  0  0  0  0
   34.6352   49.6944   18.5486 N   0  0  0  0  0  4  0  0  0  0  0  0
   36.7975   49.6004   17.5607 N   0  0  0  0  0  0  0  0  0  0  0  0
   35.0379   51.0139   16.6825 N   0  0  0  0  0  0  0  0  0  0  0  0
   33.6946   54.5255   16.1635 N   0  0  0  0  0  0  0  0  0  0  0  0
   32.7011   55.3186   12.4327 N   0  0  0  0  0  0  0  0  0  0  0  0
   33.0165   58.3500   10.6767 N   0  0  0  0  0  0  0  0  0  0  0  0
   39.8961   56.8835   15.1064 N   0  0  0  0  0  0  0  0  0  0  0  0
   36.5527   56.9200   16.3550 N   0  0  0  0  0  0  0  0  0  0  0  0
   31.5766   55.3459   16.4606 O   0  0  0  0  0  0  0  0  0  0  0  0
   34.3938   55.6366   10.9187 O   0  0  0  0  0  0  0  0  0  0  0  0
   32.9525   59.2475    7.9383 O   0  0  0  0  0  0  0  0  0  0  0  0
   38.7535   55.1652   16.1399 O   0  0  0  0  0  0  0  0  0  0  0  0
   34.4273   56.8231   17.1707 O   0  0  0  0  0  0  0  0  0  0  0  0
   35.8239   58.7675   14.1880 S   0  0  0  0  0  0  0  0  0  0  0  0
  1 34  2  0
  1 35  1  0
 36  1  1  0
  2  3  1  1
 33  2  1  1
  3 38  1  6
  5  4  1  0
  4 38  1  0
  4 43  2  0
  5 39  1  6
  6  7  1  0
  6 39  1  6
  7  8  2  0
  7 13  1  0
  8  9  1  0
  9 10  2  0
 11 10  1  0
 13 11  2  0
 23 12  1  1
 12 36  1  6
 13 14  1  0
 14 44  1  6
 16 15  1  0
 15 39  1  6
 16 17  1  0
 21 16  2  0
 17 18  2  0
 19 18  1  0
 20 19  2  0
 21 20  1  0
 22 21  1  0
 28 23  1  0
 25 24  1  0
 25 26  1  1
 41 25  1  0
 26 40  1  0
 26 45  2  0
 29 27  1  0
 27 41  1  0
 27 46  2  0
 28 29  1  6
 29 37  1  1
 31 30  1  1
 30 37  1  0
 30 42  2  0
 32 31  1  0
 32 33  1  0
 32 38  1  6
 22 47  1  6
 24 47  1  6
M  CHG  1  34   1
M  END
$$$$
