
     RDKit          3D

 33 36  0  0  0  0  0  0  0  0999 V2000
  -17.5335    7.5982   -2.4859 C   0  0  1  0  0  0  0  0  0  0  0  0
  -18.9387    7.6251   -3.0446 C   0  0  1  0  0  0  0  0  0  0  0  0
  -19.6753    6.4135   -2.5364 C   0  0  0  0  0  0  0  0  0  0  0  0
  -19.4605    9.5203   -1.7687 C   0  0  1  0  0  0  0  0  0  0  0  0
  -22.3631    9.6605   -0.9841 C   0  0  1  0  0  0  0  0  0  0  0  0
  -23.4094    9.1566   -0.0479 C   0  0  1  0  0  0  0  0  0  0  0  0
  -24.6894    9.9157   -0.1883 C   0  0  2  0  0  0  0  0  0  0  0  0
  -24.5397   11.4002   -0.2799 C   0  0  1  0  0  0  0  0  0  0  0  0
  -23.4877   11.6586   -1.3664 C   0  0  1  0  0  0  0  0  0  0  0  0
  -23.1998   13.1430   -1.4993 C   0  0  0  0  0  0  0  0  0  0  0  0
  -18.0517    9.5465   -1.1743 C   0  0  1  0  0  0  0  0  0  0  0  0
  -17.1408    9.0658   -2.2693 C   0  0  1  0  0  0  0  0  0  0  0  0
  -14.8101    9.9556   -2.5615 C   0  0  0  0  0  0  0  0  0  0  0  0
  -13.5780    9.7676   -1.9705 C   0  0  0  0  0  0  0  0  0  0  0  0
  -12.3028   10.4012   -2.2938 C   0  0  0  0  0  0  0  0  0  0  0  0
  -11.1117    9.7875   -1.9744 C   0  0  0  0  0  0  0  0  0  0  0  0
   -9.8962   10.3890   -2.2819 C   0  0  0  0  0  0  0  0  0  0  0  0
   -9.8307   11.6140   -2.9135 C   0  0  0  0  0  0  0  0  0  0  0  0
  -11.0252   12.2278   -3.2329 C   0  0  0  0  0  0  0  0  0  0  0  0
  -12.2411   11.6241   -2.9245 C   0  0  0  0  0  0  0  0  0  0  0  0
  -15.7344    9.1785   -1.9670 N   0  0  0  0  0  0  0  0  0  0  0  0
  -13.7980    8.8554   -1.0069 N   0  0  0  0  0  0  0  0  0  0  0  0
  -15.0950    8.5158   -1.0215 N   0  0  0  0  0  0  0  0  0  0  0  0
  -17.5245    6.9597   -1.2522 O   0  0  0  0  0  0  0  0  0  0  0  0
  -20.8243    6.6884   -1.8459 O   0  0  0  0  0  0  0  0  0  0  0  0
  -19.5835    8.8046   -2.9103 O   0  0  0  0  0  0  0  0  0  0  0  0
  -23.6987    7.8034   -0.2356 O   0  0  0  0  0  0  0  0  0  0  0  0
  -25.5623    9.5903    0.8670 O   0  0  0  0  0  0  0  0  0  0  0  0
  -25.7630   11.9564   -0.6063 O   0  0  0  0  0  0  0  0  0  0  0  0
  -24.0847   13.6971   -2.3971 O   0  0  0  0  0  0  0  0  0  0  0  0
  -22.3359   11.0524   -0.9232 O   0  0  0  0  0  0  0  0  0  0  0  0
  -17.7126   10.8155   -0.7051 O   0  0  0  0  0  0  0  0  0  0  0  0
  -20.6977    9.1073   -0.5123 S   0  0  0  0  0  0  0  0  0  0  0  0
  1  2  1  0
 12  1  1  0
  1 24  1  1
  2  3  1  0
  2 26  1  1
  3 25  1  6
 11  4  1  0
  4 26  1  0
  4 33  1  1
  5  6  1  0
  5 31  1  0
  5 33  1  1
  6  7  1  0
  6 27  1  6
  7  8  1  0
  7 28  1  1
  9  8  1  0
  8 29  1  6
  9 10  1  0
  9 31  1  1
 10 30  1  6
 12 11  1  0
 11 32  1  6
 12 21  1  1
 13 14  2  0
 13 21  1  0
 14 15  1  0
 14 22  1  0
 15 16  2  0
 15 20  1  0
 16 17  1  0
 17 18  2  0
 18 19  1  0
 19 20  2  0
 21 23  1  0
 22 23  2  0
M  END
$$$$
