
     RDKit          3D

 33 36  0  0  0  0  0  0  0  0999 V2000
  -18.2494    7.2143   -1.0031 C   0  0  1  0  0  0  0  0  0  0  0  0
  -19.6263    6.9242   -1.5577 C   0  0  1  0  0  0  0  0  0  0  0  0
  -20.5112    6.4782   -0.4233 C   0  0  0  0  0  0  0  0  0  0  0  0
  -19.9613    9.1927   -2.0410 C   0  0  1  0  0  0  0  0  0  0  0  0
  -22.9214    9.3086   -1.5071 C   0  0  1  0  0  0  0  0  0  0  0  0
  -23.9361    9.4743   -0.4263 C   0  0  1  0  0  0  0  0  0  0  0  0
  -25.3302    9.3987   -0.9600 C   0  0  2  0  0  0  0  0  0  0  0  0
  -25.5700   10.1678   -2.2192 C   0  0  1  0  0  0  0  0  0  0  0  0
  -24.4591    9.7529   -3.1928 C   0  0  1  0  0  0  0  0  0  0  0  0
  -24.5606   10.5294   -4.4930 C   0  0  0  0  0  0  0  0  0  0  0  0
  -18.5758    9.5452   -1.4981 C   0  0  1  0  0  0  0  0  0  0  0  0
  -17.6965    8.3750   -1.8409 C   0  0  1  0  0  0  0  0  0  0  0  0
  -15.2314    8.1473   -2.2656 C   0  0  0  0  0  0  0  0  0  0  0  0
  -14.0621    8.5631   -1.6633 C   0  0  0  0  0  0  0  0  0  0  0  0
  -12.6835    8.3216   -2.0793 C   0  0  0  0  0  0  0  0  0  0  0  0
  -12.4026    7.8510   -3.3431 C   0  0  0  0  0  0  0  0  0  0  0  0
  -11.0903    7.6208   -3.7414 C   0  0  0  0  0  0  0  0  0  0  0  0
  -10.0235    7.8510   -2.8972 C   0  0  0  0  0  0  0  0  0  0  0  0
  -10.3065    8.3226   -1.6311 C   0  0  0  0  0  0  0  0  0  0  0  0
  -11.6209    8.5526   -1.2341 C   0  0  0  0  0  0  0  0  0  0  0  0
  -16.2953    8.5815   -1.5648 N   0  0  0  0  0  0  0  0  0  0  0  0
  -14.4634    9.2573   -0.5834 N   0  0  0  0  0  0  0  0  0  0  0  0
  -15.8036    9.2563   -0.5428 N   0  0  0  0  0  0  0  0  0  0  0  0
  -18.3479    7.6391    0.3159 O   0  0  0  0  0  0  0  0  0  0  0  0
  -21.6057    5.7493   -0.8018 O   0  0  0  0  0  0  0  0  0  0  0  0
  -20.1344    7.8884   -2.3560 O   0  0  0  0  0  0  0  0  0  0  0  0
  -23.8172    8.5140    0.5807 O   0  0  0  0  0  0  0  0  0  0  0  0
  -26.2480    9.8050    0.0270 O   0  0  0  0  0  0  0  0  0  0  0  0
  -26.8249    9.8525   -2.7069 O   0  0  0  0  0  0  0  0  0  0  0  0
  -23.3272   11.0579   -4.8020 O   0  0  0  0  0  0  0  0  0  0  0  0
  -23.2780   10.1129   -2.5877 O   0  0  0  0  0  0  0  0  0  0  0  0
  -18.1059   10.7486   -2.0238 O   0  0  0  0  0  0  0  0  0  0  0  0
  -21.2720    9.8693   -0.9901 S   0  0  0  0  0  0  0  0  0  0  0  0
  1  2  1  0
 12  1  1  0
  1 24  1  1
  2  3  1  0
  2 26  1  1
  3 25  1  6
 11  4  1  0
  4 26  1  0
  4 33  1  1
  5  6  1  0
  5 31  1  0
  5 33  1  1
  6  7  1  0
  6 27  1  1
  7  8  1  0
  7 28  1  1
  9  8  1  0
  8 29  1  6
  9 10  1  0
  9 31  1  1
 10 30  1  6
 12 11  1  0
 11 32  1  6
 12 21  1  1
 13 14  2  0
 13 21  1  0
 14 15  1  0
 14 22  1  0
 15 16  2  0
 15 20  1  0
 16 17  1  0
 17 18  2  0
 18 19  1  0
 19 20  2  0
 21 23  1  0
 22 23  2  0
M  END
$$$$
