
     RDKit          3D

 33 36  0  0  0  0  0  0  0  0999 V2000
  -16.8470   10.9426   -2.8624 C   0  0  1  0  0  0  0  0  0  0  0  0
  -17.4718   10.3451   -4.0629 C   0  0  1  0  0  0  0  0  0  0  0  0
  -16.5730   10.2389   -5.2765 C   0  0  0  0  0  0  0  0  0  0  0  0
  -17.8353    8.5308   -2.6361 C   0  0  1  0  0  0  0  0  0  0  0  0
  -20.1573    6.8433   -1.6463 C   0  0  1  0  0  0  0  0  0  0  0  0
  -20.2386    5.9473   -0.4554 C   0  0  1  0  0  0  0  0  0  0  0  0
  -21.7377    5.6028   -0.3174 C   0  0  2  0  0  0  0  0  0  0  0  0
  -22.6263    6.7029   -0.7900 C   0  0  1  0  0  0  0  0  0  0  0  0
  -22.0187    8.0295   -0.9569 C   0  0  1  0  0  0  0  0  0  0  0  0
  -22.3027    8.9535    0.2233 C   0  0  0  0  0  0  0  0  0  0  0  0
  -16.3715    8.5489   -2.3876 C   0  0  1  0  0  0  0  0  0  0  0  0
  -16.0203   10.0146   -2.0588 C   0  0  1  0  0  0  0  0  0  0  0  0
  -13.7782   10.7340   -1.1887 C   0  0  0  0  0  0  0  0  0  0  0  0
  -12.5129   10.8535   -1.7181 C   0  0  0  0  0  0  0  0  0  0  0  0
  -11.2996   11.2995   -1.0376 C   0  0  0  0  0  0  0  0  0  0  0  0
  -10.2396   11.8300   -1.7459 C   0  0  0  0  0  0  0  0  0  0  0  0
   -9.0882   12.2553   -1.1132 C   0  0  0  0  0  0  0  0  0  0  0  0
   -8.9486   12.1665    0.2667 C   0  0  0  0  0  0  0  0  0  0  0  0
  -10.0037   11.6386    0.9708 C   0  0  0  0  0  0  0  0  0  0  0  0
  -11.1616   11.2112    0.3314 C   0  0  0  0  0  0  0  0  0  0  0  0
  -14.6165   10.2820   -2.1687 N   0  0  0  0  0  0  0  0  0  0  0  0
  -12.6512   10.4668   -2.9938 N   0  0  0  0  0  0  0  0  0  0  0  0
  -13.8934   10.1300   -3.2574 N   0  0  0  0  0  0  0  0  0  0  0  0
  -16.1524   12.0899   -3.2635 O   0  0  0  0  0  0  0  0  0  0  0  0
  -17.3632   10.4711   -6.4292 O   0  0  0  0  0  0  0  0  0  0  0  0
  -18.1830    9.2189   -3.8018 O   0  0  0  0  0  0  0  0  0  0  0  0
  -19.4980    4.8163   -0.5856 O   0  0  0  0  0  0  0  0  0  0  0  0
  -21.9894    5.1933    0.9882 O   0  0  0  0  0  0  0  0  0  0  0  0
  -23.3004    6.3111   -1.9724 O   0  0  0  0  0  0  0  0  0  0  0  0
  -22.9282   10.0871   -0.3293 O   0  0  0  0  0  0  0  0  0  0  0  0
  -20.6721    8.0779   -1.1975 O   0  0  0  0  0  0  0  0  0  0  0  0
  -16.0882    7.8309   -1.2351 O   0  0  0  0  0  0  0  0  0  0  0  0
  -18.6893    6.9993   -2.5528 S   0  0  0  0  0  0  0  0  0  0  0  0
  1  2  1  0
 12  1  1  0
  1 24  1  6
  2  3  1  6
  2 26  1  0
  3 25  1  0
 11  4  1  0
  4 26  1  0
  4 33  1  6
  5  6  1  0
  5 31  1  0
  5 33  1  1
  6  7  1  0
  6 27  1  6
  7  8  1  0
  7 28  1  1
  9  8  1  0
  8 29  1  6
  9 10  1  1
 31  9  1  0
 10 30  1  0
 12 11  1  0
 11 32  1  1
 12 21  1  6
 13 14  2  0
 13 21  1  0
 14 15  1  0
 14 22  1  0
 15 16  2  0
 15 20  1  0
 16 17  1  0
 17 18  2  0
 18 19  1  0
 19 20  2  0
 21 23  1  0
 22 23  2  0
M  END
$$$$
