
     RDKit          3D

 33 36  0  0  0  0  0  0  0  0999 V2000
  -16.2950    9.8007   -3.7835 C   0  0  1  0  0  0  0  0  0  0  0  0
  -16.7199    8.4091   -4.0512 C   0  0  1  0  0  0  0  0  0  0  0  0
  -15.6362    7.4895   -4.5727 C   0  0  0  0  0  0  0  0  0  0  0  0
  -17.3226    8.4477   -1.7940 C   0  0  1  0  0  0  0  0  0  0  0  0
  -19.9153    7.3750   -0.6335 C   0  0  1  0  0  0  0  0  0  0  0  0
  -20.6152    6.2105   -0.0157 C   0  0  1  0  0  0  0  0  0  0  0  0
  -21.9668    6.1186   -0.7571 C   0  0  2  0  0  0  0  0  0  0  0  0
  -22.4678    7.4491   -1.2063 C   0  0  1  0  0  0  0  0  0  0  0  0
  -21.8531    8.6362   -0.5982 C   0  0  1  0  0  0  0  0  0  0  0  0
  -22.7067    9.2266    0.5199 C   0  0  0  0  0  0  0  0  0  0  0  0
  -15.9188    8.8456   -1.5192 C   0  0  1  0  0  0  0  0  0  0  0  0
  -15.6162   10.0096   -2.4850 C   0  0  1  0  0  0  0  0  0  0  0  0
  -13.4619   11.1849   -1.9567 C   0  0  0  0  0  0  0  0  0  0  0  0
  -12.1591   11.0870   -2.3911 C   0  0  0  0  0  0  0  0  0  0  0  0
  -11.0111   11.8774   -1.9537 C   0  0  0  0  0  0  0  0  0  0  0  0
  -11.0610   12.6244   -0.7934 C   0  0  0  0  0  0  0  0  0  0  0  0
   -9.9818   13.3749   -0.3699 C   0  0  0  0  0  0  0  0  0  0  0  0
   -8.7976   13.4090   -1.0964 C   0  0  0  0  0  0  0  0  0  0  0  0
   -8.7486   12.6656   -2.2508 C   0  0  0  0  0  0  0  0  0  0  0  0
   -9.8364   11.9111   -2.6747 C   0  0  0  0  0  0  0  0  0  0  0  0
  -14.2115   10.2579   -2.6247 N   0  0  0  0  0  0  0  0  0  0  0  0
  -12.1878   10.1038   -3.3014 N   0  0  0  0  0  0  0  0  0  0  0  0
  -13.4000    9.6161   -3.4375 N   0  0  0  0  0  0  0  0  0  0  0  0
  -15.5369   10.2378   -4.8761 O   0  0  0  0  0  0  0  0  0  0  0  0
  -16.2369    6.5630   -5.4603 O   0  0  0  0  0  0  0  0  0  0  0  0
  -17.4715    7.8699   -3.0579 O   0  0  0  0  0  0  0  0  0  0  0  0
  -19.9245    5.0471   -0.1342 O   0  0  0  0  0  0  0  0  0  0  0  0
  -22.8683    5.4112    0.0318 O   0  0  0  0  0  0  0  0  0  0  0  0
  -22.4251    7.5343   -2.6195 O   0  0  0  0  0  0  0  0  0  0  0  0
  -23.4614   10.2499   -0.0842 O   0  0  0  0  0  0  0  0  0  0  0  0
  -20.5798    8.5056   -0.1131 O   0  0  0  0  0  0  0  0  0  0  0  0
  -15.8316    9.3870   -0.2451 O   0  0  0  0  0  0  0  0  0  0  0  0
  -18.1889    7.5110   -0.5882 S   0  0  0  0  0  0  0  0  0  0  0  0
  1  2  1  0
 12  1  1  0
  1 24  1  6
  2  3  1  1
  2 26  1  0
  3 25  1  0
 11  4  1  0
  4 26  1  0
  4 33  1  1
  5  6  1  0
  5 31  1  0
  5 33  1  1
  6  7  1  0
  6 27  1  6
  7  8  1  0
  7 28  1  1
  9  8  1  0
  8 29  1  6
  9 10  1  1
 31  9  1  0
 10 30  1  0
 12 11  1  0
 11 32  1  1
 12 21  1  6
 13 14  2  0
 13 21  1  0
 14 15  1  0
 14 22  1  0
 15 16  2  0
 15 20  1  0
 16 17  1  0
 17 18  2  0
 18 19  1  0
 19 20  2  0
 21 23  1  0
 22 23  2  0
M  END
$$$$
