
     RDKit          3D

 33 36  0  0  0  0  0  0  0  0999 V2000
  -25.1026    9.3103   -1.5231 C   0  0  1  0  0  0  0  0  0  0  0  0
  -24.3676   10.2739   -2.3715 C   0  0  1  0  0  0  0  0  0  0  0  0
  -24.9215   11.6828   -2.3812 C   0  0  0  0  0  0  0  0  0  0  0  0
  -22.5607    9.6693   -1.0190 C   0  0  1  0  0  0  0  0  0  0  0  0
  -19.7719    8.4740   -0.9052 C   0  0  1  0  0  0  0  0  0  0  0  0
  -18.3109    8.6103   -0.6320 C   0  0  1  0  0  0  0  0  0  0  0  0
  -17.6622    7.3851   -1.3125 C   0  0  2  0  0  0  0  0  0  0  0  0
  -18.5587    6.1938   -1.3272 C   0  0  1  0  0  0  0  0  0  0  0  0
  -19.7136    6.2138   -0.4202 C   0  0  1  0  0  0  0  0  0  0  0  0
  -19.4665    5.4152    0.8559 C   0  0  0  0  0  0  0  0  0  0  0  0
  -23.4091   10.0621    0.1344 C   0  0  1  0  0  0  0  0  0  0  0  0
  -24.7643    9.3583   -0.0831 C   0  0  1  0  0  0  0  0  0  0  0  0
  -26.6853    9.2564    1.5297 C   0  0  0  0  0  0  0  0  0  0  0  0
  -27.5264   10.1774    2.1127 C   0  0  0  0  0  0  0  0  0  0  0  0
  -28.6141    9.9219    3.0539 C   0  0  0  0  0  0  0  0  0  0  0  0
  -28.9744    8.6328    3.3932 C   0  0  0  0  0  0  0  0  0  0  0  0
  -30.0005    8.3795    4.2820 C   0  0  0  0  0  0  0  0  0  0  0  0
  -30.7147    9.4147    4.8733 C   0  0  0  0  0  0  0  0  0  0  0  0
  -30.3556   10.6971    4.5352 C   0  0  0  0  0  0  0  0  0  0  0  0
  -29.3223   10.9493    3.6402 C   0  0  0  0  0  0  0  0  0  0  0  0
  -25.8119    9.9221    0.7164 N   0  0  0  0  0  0  0  0  0  0  0  0
  -27.1175   11.3552    1.6211 N   0  0  0  0  0  0  0  0  0  0  0  0
  -26.1057   11.2020    0.7973 N   0  0  0  0  0  0  0  0  0  0  0  0
  -26.4706    9.4729   -1.7717 O   0  0  0  0  0  0  0  0  0  0  0  0
  -25.0621   12.0895   -3.7310 O   0  0  0  0  0  0  0  0  0  0  0  0
  -23.0199   10.2110   -2.2228 O   0  0  0  0  0  0  0  0  0  0  0  0
  -17.7815    9.7630   -1.1172 O   0  0  0  0  0  0  0  0  0  0  0  0
  -16.4193    7.1510   -0.7326 O   0  0  0  0  0  0  0  0  0  0  0  0
  -18.9705    5.9100   -2.6523 O   0  0  0  0  0  0  0  0  0  0  0  0
  -20.6989    4.8085    1.1639 O   0  0  0  0  0  0  0  0  0  0  0  0
  -20.1984    7.4383   -0.0471 O   0  0  0  0  0  0  0  0  0  0  0  0
  -22.8893    9.5167    1.2991 O   0  0  0  0  0  0  0  0  0  0  0  0
  -20.8196    9.8535   -0.8911 S   0  0  0  0  0  0  0  0  0  0  0  0
  1  2  1  0
 12  1  1  0
  1 24  1  1
  2  3  1  1
  2 26  1  0
  3 25  1  0
 11  4  1  0
  4 26  1  0
  4 33  1  1
  5  6  1  0
  5 31  1  0
  5 33  1  1
  6  7  1  0
  6 27  1  6
  7  8  1  0
  7 28  1  1
  9  8  1  0
  8 29  1  6
  9 10  1  1
 31  9  1  0
 10 30  1  0
 12 11  1  0
 11 32  1  1
 12 21  1  1
 13 14  2  0
 13 21  1  0
 14 15  1  0
 14 22  1  0
 15 16  2  0
 15 20  1  0
 16 17  1  0
 17 18  2  0
 18 19  1  0
 19 20  2  0
 21 23  1  0
 22 23  2  0
M  END
$$$$
