
     RDKit          3D

 33 36  0  0  0  0  0  0  0  0999 V2000
  -24.1426   11.7500   -2.4414 C   0  0  1  0  0  0  0  0  0  0  0  0
  -23.7896   11.1887   -1.0821 C   0  0  1  0  0  0  0  0  0  0  0  0
  -24.7129   10.0351   -0.7900 C   0  0  0  0  0  0  0  0  0  0  0  0
  -21.7223   10.4271   -1.8811 C   0  0  1  0  0  0  0  0  0  0  0  0
  -20.4418    7.9575   -0.7313 C   0  0  1  0  0  0  0  0  0  0  0  0
  -20.5828    6.4855   -0.5348 C   0  0  1  0  0  0  0  0  0  0  0  0
  -19.3551    5.8886    0.0739 C   0  0  2  0  0  0  0  0  0  0  0  0
  -18.0631    6.3593   -0.5126 C   0  0  1  0  0  0  0  0  0  0  0  0
  -18.1281    7.8922   -0.5174 C   0  0  1  0  0  0  0  0  0  0  0  0
  -16.8879    8.4847   -1.1615 C   0  0  0  0  0  0  0  0  0  0  0  0
  -22.0223   10.9794   -3.2752 C   0  0  1  0  0  0  0  0  0  0  0  0
  -22.8200   12.2337   -3.0511 C   0  0  1  0  0  0  0  0  0  0  0  0
  -22.4002   12.9672   -5.4165 C   0  0  0  0  0  0  0  0  0  0  0  0
  -22.9484   13.8692   -6.3045 C   0  0  0  0  0  0  0  0  0  0  0  0
  -22.5496   14.1558   -7.6796 C   0  0  0  0  0  0  0  0  0  0  0  0
  -23.0440   15.2591   -8.3396 C   0  0  0  0  0  0  0  0  0  0  0  0
  -22.6651   15.5341   -9.6491 C   0  0  0  0  0  0  0  0  0  0  0  0
  -21.7869   14.7224  -10.3373 C   0  0  0  0  0  0  0  0  0  0  0  0
  -21.2924   13.6170   -9.6745 C   0  0  0  0  0  0  0  0  0  0  0  0
  -21.6727   13.3434   -8.3636 C   0  0  0  0  0  0  0  0  0  0  0  0
  -23.0613   13.0077   -4.2448 N   0  0  0  0  0  0  0  0  0  0  0  0
  -23.9552   14.4470   -5.6252 N   0  0  0  0  0  0  0  0  0  0  0  0
  -24.0058   13.9173   -4.3944 N   0  0  0  0  0  0  0  0  0  0  0  0
  -24.6530   10.7447   -3.2530 O   0  0  0  0  0  0  0  0  0  0  0  0
  -24.6586    9.5678    0.4950 O   0  0  0  0  0  0  0  0  0  0  0  0
  -22.4738   10.9531   -0.8865 O   0  0  0  0  0  0  0  0  0  0  0  0
  -21.6648    6.1487    0.2813 O   0  0  0  0  0  0  0  0  0  0  0  0
  -19.4202    4.4836    0.0139 O   0  0  0  0  0  0  0  0  0  0  0  0
  -17.0193    5.8916    0.2646 O   0  0  0  0  0  0  0  0  0  0  0  0
  -16.9624    8.3164   -2.5262 O   0  0  0  0  0  0  0  0  0  0  0  0
  -19.2021    8.2183   -1.3117 O   0  0  0  0  0  0  0  0  0  0  0  0
  -20.8546   11.2026   -4.0046 O   0  0  0  0  0  0  0  0  0  0  0  0
  -21.6817    8.6165   -1.8848 S   0  0  0  0  0  0  0  0  0  0  0  0
  1  2  1  0
 12  1  1  0
  1 24  1  6
  2  3  1  0
  2 26  1  6
  3 25  1  6
 11  4  1  0
  4 26  1  0
  4 33  1  6
  5  6  1  0
  5 31  1  0
  5 33  1  6
  6  7  1  0
  6 27  1  1
  7  8  1  0
  7 28  1  6
  9  8  1  0
  8 29  1  1
  9 10  1  0
  9 31  1  6
 10 30  1  6
 12 11  1  0
 11 32  1  1
 12 21  1  6
 13 14  2  0
 13 21  1  0
 14 15  1  0
 14 22  1  0
 15 16  2  0
 15 20  1  0
 16 17  1  0
 17 18  2  0
 18 19  1  0
 19 20  2  0
 21 23  1  0
 22 23  2  0
M  END
$$$$
