
     RDKit          3D

 33 36  0  0  0  0  0  0  0  0999 V2000
  -25.3070   10.8372   -1.6220 C   0  0  1  0  0  0  0  0  0  0  0  0
  -24.4687   10.2963   -2.7588 C   0  0  1  0  0  0  0  0  0  0  0  0
  -23.6779   11.4342   -3.3492 C   0  0  0  0  0  0  0  0  0  0  0  0
  -23.1605    9.0521   -1.2646 C   0  0  1  0  0  0  0  0  0  0  0  0
  -20.2482    8.4493   -1.7294 C   0  0  1  0  0  0  0  0  0  0  0  0
  -18.8491    8.9554   -1.6220 C   0  0  1  0  0  0  0  0  0  0  0  0
  -17.8542    7.8401   -1.6432 C   0  0  2  0  0  0  0  0  0  0  0  0
  -18.2020    6.6636   -0.7891 C   0  0  1  0  0  0  0  0  0  0  0  0
  -19.6423    6.2803   -1.1536 C   0  0  1  0  0  0  0  0  0  0  0  0
  -20.1316    5.1311   -0.2913 C   0  0  0  0  0  0  0  0  0  0  0  0
  -23.9770    9.5618   -0.0763 C   0  0  1  0  0  0  0  0  0  0  0  0
  -25.3841    9.7089   -0.5848 C   0  0  1  0  0  0  0  0  0  0  0  0
  -27.5063    9.3779    0.7175 C   0  0  0  0  0  0  0  0  0  0  0  0
  -28.1490    9.9943    1.7709 C   0  0  0  0  0  0  0  0  0  0  0  0
  -29.4153    9.6373    2.4041 C   0  0  0  0  0  0  0  0  0  0  0  0
  -30.1066    8.5132    2.0094 C   0  0  0  0  0  0  0  0  0  0  0  0
  -31.3126    8.1712    2.6115 C   0  0  0  0  0  0  0  0  0  0  0  0
  -31.8638    8.9349    3.6198 C   0  0  0  0  0  0  0  0  0  0  0  0
  -31.1699   10.0612    4.0143 C   0  0  0  0  0  0  0  0  0  0  0  0
  -29.9627   10.4019    3.4105 C   0  0  0  0  0  0  0  0  0  0  0  0
  -26.3569   10.0187    0.4349 N   0  0  0  0  0  0  0  0  0  0  0  0
  -27.3469   11.0207    2.1057 N   0  0  0  0  0  0  0  0  0  0  0  0
  -26.2798   11.0177    1.2940 N   0  0  0  0  0  0  0  0  0  0  0  0
  -24.6693   11.9232   -1.0359 O   0  0  0  0  0  0  0  0  0  0  0  0
  -23.1182   11.1713   -4.5699 O   0  0  0  0  0  0  0  0  0  0  0  0
  -23.7655    9.1800   -2.4680 O   0  0  0  0  0  0  0  0  0  0  0  0
  -18.5124    9.8406   -2.6484 O   0  0  0  0  0  0  0  0  0  0  0  0
  -16.5797    8.3229   -1.2908 O   0  0  0  0  0  0  0  0  0  0  0  0
  -17.3143    5.6370   -1.0544 O   0  0  0  0  0  0  0  0  0  0  0  0
  -21.4459    5.3526    0.0548 O   0  0  0  0  0  0  0  0  0  0  0  0
  -20.4099    7.3802   -0.8505 O   0  0  0  0  0  0  0  0  0  0  0  0
  -23.8837    8.7048    1.0201 O   0  0  0  0  0  0  0  0  0  0  0  0
  -21.4689    9.6981   -1.2267 S   0  0  0  0  0  0  0  0  0  0  0  0
  1  2  1  0
 12  1  1  0
  1 24  1  1
  2  3  1  0
  2 26  1  1
  3 25  1  6
 11  4  1  0
  4 26  1  0
  4 33  1  6
  5  6  1  0
  5 31  1  0
  5 33  1  1
  6  7  1  0
  6 27  1  6
  7  8  1  0
  7 28  1  1
  9  8  1  0
  8 29  1  6
  9 10  1  0
  9 31  1  1
 10 30  1  6
 12 11  1  0
 11 32  1  1
 12 21  1  1
 13 14  2  0
 13 21  1  0
 14 15  1  0
 14 22  1  0
 15 16  2  0
 15 20  1  0
 16 17  1  0
 17 18  2  0
 18 19  1  0
 19 20  2  0
 21 23  1  0
 22 23  2  0
M  END
$$$$
