
     RDKit          3D

 33 36  0  0  0  0  0  0  0  0999 V2000
  -20.9449   12.9220   -4.5351 C   0  0  1  0  0  0  0  0  0  0  0  0
  -20.7984   11.4575   -4.8837 C   0  0  1  0  0  0  0  0  0  0  0  0
  -19.4286   11.2441   -5.4728 C   0  0  0  0  0  0  0  0  0  0  0  0
  -20.8380   10.8653   -2.6166 C   0  0  1  0  0  0  0  0  0  0  0  0
  -19.2567    8.3993   -1.9245 C   0  0  1  0  0  0  0  0  0  0  0  0
  -17.9808    7.8727   -1.3588 C   0  0  1  0  0  0  0  0  0  0  0  0
  -18.1400    6.4814   -0.8363 C   0  0  2  0  0  0  0  0  0  0  0  0
  -19.3731    6.2457   -0.0249 C   0  0  1  0  0  0  0  0  0  0  0  0
  -20.5437    6.7838   -0.8583 C   0  0  1  0  0  0  0  0  0  0  0  0
  -21.8515    6.6607   -0.0978 C   0  0  0  0  0  0  0  0  0  0  0  0
  -20.9928   12.3298   -2.2045 C   0  0  1  0  0  0  0  0  0  0  0  0
  -21.8271   12.9675   -3.2803 C   0  0  1  0  0  0  0  0  0  0  0  0
  -23.4187   14.7549   -2.5181 C   0  0  0  0  0  0  0  0  0  0  0  0
  -23.4029   16.1276   -2.3821 C   0  0  0  0  0  0  0  0  0  0  0  0
  -24.4626   17.0111   -1.9044 C   0  0  0  0  0  0  0  0  0  0  0  0
  -25.7204   16.5187   -1.6346 C   0  0  0  0  0  0  0  0  0  0  0  0
  -26.7309   17.3584   -1.1791 C   0  0  0  0  0  0  0  0  0  0  0  0
  -26.5203   18.7073   -0.9796 C   0  0  0  0  0  0  0  0  0  0  0  0
  -25.2593   19.1994   -1.2504 C   0  0  0  0  0  0  0  0  0  0  0  0
  -24.2488   18.3572   -1.7062 C   0  0  0  0  0  0  0  0  0  0  0  0
  -22.2365   14.3210   -2.9931 N   0  0  0  0  0  0  0  0  0  0  0  0
  -22.1757   16.4962   -2.7909 N   0  0  0  0  0  0  0  0  0  0  0  0
  -21.4934   15.4000   -3.1524 N   0  0  0  0  0  0  0  0  0  0  0  0
  -19.7053   13.4607   -4.2142 O   0  0  0  0  0  0  0  0  0  0  0  0
  -19.2859   10.0867   -6.1887 O   0  0  0  0  0  0  0  0  0  0  0  0
  -21.1576   10.5993   -3.9041 O   0  0  0  0  0  0  0  0  0  0  0  0
  -16.9404    7.8570   -2.2903 O   0  0  0  0  0  0  0  0  0  0  0  0
  -17.0036    6.1119   -0.0921 O   0  0  0  0  0  0  0  0  0  0  0  0
  -19.4976    4.8906    0.2211 O   0  0  0  0  0  0  0  0  0  0  0  0
  -22.8103    7.4295   -0.7190 O   0  0  0  0  0  0  0  0  0  0  0  0
  -20.2924    8.1242   -1.0339 O   0  0  0  0  0  0  0  0  0  0  0  0
  -21.5588   12.4522   -0.9356 O   0  0  0  0  0  0  0  0  0  0  0  0
  -19.2277   10.2064   -2.1139 S   0  0  0  0  0  0  0  0  0  0  0  0
  1  2  1  0
 12  1  1  0
  1 24  1  1
  2  3  1  0
  2 26  1  1
  3 25  1  6
 11  4  1  0
  4 26  1  0
  4 33  1  6
  5  6  1  0
  5 31  1  0
  5 33  1  1
  6  7  1  0
  6 27  1  6
  7  8  1  0
  7 28  1  1
  9  8  1  0
  8 29  1  6
  9 10  1  0
  9 31  1  1
 10 30  1  6
 12 11  1  0
 11 32  1  1
 12 21  1  1
 13 14  2  0
 13 21  1  0
 14 15  1  0
 14 22  1  0
 15 16  2  0
 15 20  1  0
 16 17  1  0
 17 18  2  0
 18 19  1  0
 19 20  2  0
 21 23  1  0
 22 23  2  0
M  END
$$$$
