
     RDKit          3D

 33 36  0  0  0  0  0  0  0  0999 V2000
  -18.6500    7.0548   -1.8396 C   0  0  1  0  0  0  0  0  0  0  0  0
  -19.7442    6.7374   -0.8959 C   0  0  1  0  0  0  0  0  0  0  0  0
  -19.3113    6.1017    0.4081 C   0  0  0  0  0  0  0  0  0  0  0  0
  -20.1860    9.0257   -1.0644 C   0  0  1  0  0  0  0  0  0  0  0  0
  -23.0316   10.0822   -1.1409 C   0  0  1  0  0  0  0  0  0  0  0  0
  -24.1637   10.3624   -0.2096 C   0  0  1  0  0  0  0  0  0  0  0  0
  -25.3576    9.5683   -0.7832 C   0  0  2  0  0  0  0  0  0  0  0  0
  -25.3059    9.4449   -2.2681 C   0  0  1  0  0  0  0  0  0  0  0  0
  -24.4010   10.3533   -2.9843 C   0  0  1  0  0  0  0  0  0  0  0  0
  -25.1324   11.5484   -3.5879 C   0  0  0  0  0  0  0  0  0  0  0  0
  -18.7748    9.2364   -0.6539 C   0  0  1  0  0  0  0  0  0  0  0  0
  -17.9321    8.3193   -1.5640 C   0  0  1  0  0  0  0  0  0  0  0  0
  -15.4421    8.6369   -1.5377 C   0  0  0  0  0  0  0  0  0  0  0  0
  -14.4030    8.1788   -0.7591 C   0  0  0  0  0  0  0  0  0  0  0  0
  -12.9812    8.4829   -0.9002 C   0  0  0  0  0  0  0  0  0  0  0  0
  -12.5298    9.3368   -1.8871 C   0  0  0  0  0  0  0  0  0  0  0  0
  -11.1883    9.6319   -2.0294 C   0  0  0  0  0  0  0  0  0  0  0  0
  -10.2346    9.0798   -1.1827 C   0  0  0  0  0  0  0  0  0  0  0  0
  -10.6843    8.2303   -0.2010 C   0  0  0  0  0  0  0  0  0  0  0  0
  -12.0353    7.9350   -0.0599 C   0  0  0  0  0  0  0  0  0  0  0  0
  -16.6076    8.1088   -1.0581 N   0  0  0  0  0  0  0  0  0  0  0  0
  -14.9948    7.3955    0.1532 N   0  0  0  0  0  0  0  0  0  0  0  0
  -16.2958    7.3557   -0.0252 N   0  0  0  0  0  0  0  0  0  0  0  0
  -17.8007    5.9439   -1.9045 O   0  0  0  0  0  0  0  0  0  0  0  0
  -20.3448    5.2324    0.8365 O   0  0  0  0  0  0  0  0  0  0  0  0
  -20.6435    7.7433   -0.7485 O   0  0  0  0  0  0  0  0  0  0  0  0
  -23.9092    9.9855    1.0702 O   0  0  0  0  0  0  0  0  0  0  0  0
  -26.5408   10.1199   -0.3019 O   0  0  0  0  0  0  0  0  0  0  0  0
  -25.0570    8.1003   -2.6371 O   0  0  0  0  0  0  0  0  0  0  0  0
  -24.5462   11.7480   -4.8521 O   0  0  0  0  0  0  0  0  0  0  0  0
  -23.3243   10.8408   -2.2939 O   0  0  0  0  0  0  0  0  0  0  0  0
  -18.3886   10.5307   -0.9699 O   0  0  0  0  0  0  0  0  0  0  0  0
  -21.3855   10.2285   -0.6213 S   0  0  0  0  0  0  0  0  0  0  0  0
  1  2  1  0
 12  1  1  0
  1 24  1  1
  2  3  1  1
  2 26  1  0
  3 25  1  0
 11  4  1  0
  4 26  1  0
  4 33  1  1
  5  6  1  0
  5 31  1  0
  5 33  1  1
  6  7  1  0
  6 27  1  1
  7  8  1  0
  7 28  1  6
  9  8  1  0
  8 29  1  1
  9 10  1  1
 31  9  1  0
 10 30  1  0
 12 11  1  0
 11 32  1  6
 12 21  1  1
 13 14  2  0
 13 21  1  0
 14 15  1  0
 14 22  1  0
 15 16  2  0
 15 20  1  0
 16 17  1  0
 17 18  2  0
 18 19  1  0
 19 20  2  0
 21 23  1  0
 22 23  2  0
M  END
$$$$
