
     RDKit          3D

 33 36  0  0  0  0  0  0  0  0999 V2000
  -25.2990    9.1625   -1.4874 C   0  0  1  0  0  0  0  0  0  0  0  0
  -24.6566   10.0294   -2.4995 C   0  0  1  0  0  0  0  0  0  0  0  0
  -25.2394   11.4211   -2.6248 C   0  0  0  0  0  0  0  0  0  0  0  0
  -22.7325    9.6076   -1.2427 C   0  0  1  0  0  0  0  0  0  0  0  0
  -19.9228    8.4665   -1.3933 C   0  0  1  0  0  0  0  0  0  0  0  0
  -18.4504    8.6238   -1.2066 C   0  0  1  0  0  0  0  0  0  0  0  0
  -17.8238    7.4262   -1.9537 C   0  0  2  0  0  0  0  0  0  0  0  0
  -18.6990    6.2192   -1.9415 C   0  0  1  0  0  0  0  0  0  0  0  0
  -19.7962    6.1976   -0.9656 C   0  0  1  0  0  0  0  0  0  0  0  0
  -19.4577    5.3755    0.2741 C   0  0  0  0  0  0  0  0  0  0  0  0
  -23.4919   10.1220   -0.0751 C   0  0  1  0  0  0  0  0  0  0  0  0
  -24.8451    9.3818   -0.0959 C   0  0  1  0  0  0  0  0  0  0  0  0
  -26.9771    9.4693    1.2263 C   0  0  0  0  0  0  0  0  0  0  0  0
  -27.6422   10.4318    1.9522 C   0  0  0  0  0  0  0  0  0  0  0  0
  -28.9049   10.2914    2.6734 C   0  0  0  0  0  0  0  0  0  0  0  0
  -29.4347    9.0458    2.9465 C   0  0  0  0  0  0  0  0  0  0  0  0
  -30.6271    8.9011    3.6278 C   0  0  0  0  0  0  0  0  0  0  0  0
  -31.3450   10.0066    4.0680 C   0  0  0  0  0  0  0  0  0  0  0  0
  -30.8173   11.2457    3.7960 C   0  0  0  0  0  0  0  0  0  0  0  0
  -29.6168   11.3884    3.1099 C   0  0  0  0  0  0  0  0  0  0  0  0
  -25.8354   10.0225    0.7184 N   0  0  0  0  0  0  0  0  0  0  0  0
  -26.8670   11.5197    1.8459 N   0  0  0  0  0  0  0  0  0  0  0  0
  -25.8013   11.2758    1.1173 N   0  0  0  0  0  0  0  0  0  0  0  0
  -26.6859    9.2791   -1.6375 O   0  0  0  0  0  0  0  0  0  0  0  0
  -25.5967   11.6265   -3.9802 O   0  0  0  0  0  0  0  0  0  0  0  0
  -23.3003   10.0000   -2.4581 O   0  0  0  0  0  0  0  0  0  0  0  0
  -17.9715    9.7966   -1.6962 O   0  0  0  0  0  0  0  0  0  0  0  0
  -16.5439    7.2023   -1.4563 O   0  0  0  0  0  0  0  0  0  0  0  0
  -19.1864    5.9573   -3.2454 O   0  0  0  0  0  0  0  0  0  0  0  0
  -20.6839    4.8484    0.7216 O   0  0  0  0  0  0  0  0  0  0  0  0
  -20.2781    7.4043   -0.5352 O   0  0  0  0  0  0  0  0  0  0  0  0
  -22.8669    9.7219    1.0969 O   0  0  0  0  0  0  0  0  0  0  0  0
  -20.9911    9.8258   -1.2832 S   0  0  0  0  0  0  0  0  0  0  0  0
  1  2  1  0
 12  1  1  0
  1 24  1  1
  2  3  1  1
  2 26  1  0
  3 25  1  0
 11  4  1  0
  4 26  1  0
  4 33  1  1
  5  6  1  0
  5 31  1  0
  5 33  1  1
  6  7  1  0
  6 27  1  6
  7  8  1  0
  7 28  1  1
  9  8  1  0
  8 29  1  6
  9 10  1  1
 31  9  1  0
 10 30  1  0
 12 11  1  0
 11 32  1  1
 12 21  1  1
 13 14  2  0
 13 21  1  0
 14 15  1  0
 14 22  1  0
 15 16  2  0
 15 20  1  0
 16 17  1  0
 17 18  2  0
 18 19  1  0
 19 20  2  0
 21 23  1  0
 22 23  2  0
M  END
$$$$
