
     RDKit          3D

 33 36  0  0  0  0  0  0  0  0999 V2000
  -25.0117   11.1679   -1.6727 C   0  0  1  0  0  0  0  0  0  0  0  0
  -24.1230   10.6613   -2.7867 C   0  0  1  0  0  0  0  0  0  0  0  0
  -23.2701   11.8044   -3.2711 C   0  0  0  0  0  0  0  0  0  0  0  0
  -22.9365    9.3058   -1.2878 C   0  0  1  0  0  0  0  0  0  0  0  0
  -20.0175    8.6259   -1.5672 C   0  0  1  0  0  0  0  0  0  0  0  0
  -18.6147    9.1104   -1.4169 C   0  0  1  0  0  0  0  0  0  0  0  0
  -17.6384    7.9789   -1.3918 C   0  0  2  0  0  0  0  0  0  0  0  0
  -18.0348    6.8178   -0.5377 C   0  0  1  0  0  0  0  0  0  0  0  0
  -19.4679    6.4539   -0.9477 C   0  0  1  0  0  0  0  0  0  0  0  0
  -20.0056    5.3225   -0.0906 C   0  0  0  0  0  0  0  0  0  0  0  0
  -23.8073    9.7780   -0.1227 C   0  0  1  0  0  0  0  0  0  0  0  0
  -25.1781    9.9911   -0.7018 C   0  0  1  0  0  0  0  0  0  0  0  0
  -27.2399    9.5078    0.6489 C   0  0  0  0  0  0  0  0  0  0  0  0
  -27.9839   10.1493    1.6173 C   0  0  0  0  0  0  0  0  0  0  0  0
  -29.1876    9.6860    2.3016 C   0  0  0  0  0  0  0  0  0  0  0  0
  -29.8141   10.4794    3.2373 C   0  0  0  0  0  0  0  0  0  0  0  0
  -30.9608   10.0402    3.8897 C   0  0  0  0  0  0  0  0  0  0  0  0
  -31.5155    8.8035    3.6314 C   0  0  0  0  0  0  0  0  0  0  0  0
  -30.8867    8.0095    2.6935 C   0  0  0  0  0  0  0  0  0  0  0  0
  -29.7388    8.4509    2.0412 C   0  0  0  0  0  0  0  0  0  0  0  0
  -26.2002   10.2768    0.2759 N   0  0  0  0  0  0  0  0  0  0  0  0
  -27.3549   11.3227    1.8084 N   0  0  0  0  0  0  0  0  0  0  0  0
  -26.2898   11.3793    0.9958 N   0  0  0  0  0  0  0  0  0  0  0  0
  -24.3812   12.2039   -0.9953 O   0  0  0  0  0  0  0  0  0  0  0  0
  -23.0444   11.8202   -4.6207 O   0  0  0  0  0  0  0  0  0  0  0  0
  -23.4671    9.5119   -2.5152 O   0  0  0  0  0  0  0  0  0  0  0  0
  -18.2282    9.9784   -2.4404 O   0  0  0  0  0  0  0  0  0  0  0  0
  -16.3689    8.4448   -1.0007 O   0  0  0  0  0  0  0  0  0  0  0  0
  -17.1557    5.7740   -0.7612 O   0  0  0  0  0  0  0  0  0  0  0  0
  -21.1989    5.7117    0.4760 O   0  0  0  0  0  0  0  0  0  0  0  0
  -20.2271    7.5695   -0.6831 O   0  0  0  0  0  0  0  0  0  0  0  0
  -23.8000    8.8642    0.9310 O   0  0  0  0  0  0  0  0  0  0  0  0
  -21.2338    9.8999   -1.1203 S   0  0  0  0  0  0  0  0  0  0  0  0
  1  2  1  0
 12  1  1  0
  1 24  1  1
  2  3  1  0
  2 26  1  1
  3 25  1  6
 11  4  1  0
  4 26  1  0
  4 33  1  6
  5  6  1  0
  5 31  1  0
  5 33  1  1
  6  7  1  0
  6 27  1  6
  7  8  1  0
  7 28  1  1
  9  8  1  0
  8 29  1  6
  9 10  1  0
  9 31  1  1
 10 30  1  6
 12 11  1  0
 11 32  1  1
 12 21  1  1
 13 14  2  0
 13 21  1  0
 14 15  1  0
 14 22  1  0
 15 16  2  0
 15 20  1  0
 16 17  1  0
 17 18  2  0
 18 19  1  0
 19 20  2  0
 21 23  1  0
 22 23  2  0
M  END
$$$$
