
     RDKit          3D

 33 36  0  0  0  0  0  0  0  0999 V2000
  -25.1868    9.2757   -1.5512 C   0  0  1  0  0  0  0  0  0  0  0  0
  -24.4431   10.2170   -2.4169 C   0  0  1  0  0  0  0  0  0  0  0  0
  -25.0225   11.6129   -2.5045 C   0  0  0  0  0  0  0  0  0  0  0  0
  -22.6694    9.7066   -0.9840 C   0  0  1  0  0  0  0  0  0  0  0  0
  -19.8442    8.5945   -0.9557 C   0  0  1  0  0  0  0  0  0  0  0  0
  -18.3662    8.7958   -0.9046 C   0  0  1  0  0  0  0  0  0  0  0  0
  -17.7725    7.5822   -1.6527 C   0  0  2  0  0  0  0  0  0  0  0  0
  -18.6091    6.3558   -1.5141 C   0  0  1  0  0  0  0  0  0  0  0  0
  -19.6174    6.3504   -0.4463 C   0  0  1  0  0  0  0  0  0  0  0  0
  -19.1506    5.5922    0.7925 C   0  0  0  0  0  0  0  0  0  0  0  0
  -23.5615   10.1309    0.1245 C   0  0  1  0  0  0  0  0  0  0  0  0
  -24.8957    9.3915   -0.1048 C   0  0  1  0  0  0  0  0  0  0  0  0
  -26.9052    9.3120    1.3977 C   0  0  0  0  0  0  0  0  0  0  0  0
  -27.7649   10.2431    1.9358 C   0  0  0  0  0  0  0  0  0  0  0  0
  -28.9070   10.0002    2.8138 C   0  0  0  0  0  0  0  0  0  0  0  0
  -29.1882    8.7322    3.2827 C   0  0  0  0  0  0  0  0  0  0  0  0
  -30.2645    8.4909    4.1135 C   0  0  0  0  0  0  0  0  0  0  0  0
  -31.1115    9.5178    4.5130 C   0  0  0  0  0  0  0  0  0  0  0  0
  -30.8312   10.7792    4.0461 C   0  0  0  0  0  0  0  0  0  0  0  0
  -29.7470   11.0191    3.2099 C   0  0  0  0  0  0  0  0  0  0  0  0
  -25.9786    9.9676    0.6367 N   0  0  0  0  0  0  0  0  0  0  0  0
  -27.3133   11.4163    1.4717 N   0  0  0  0  0  0  0  0  0  0  0  0
  -26.2591   11.2513    0.7052 N   0  0  0  0  0  0  0  0  0  0  0  0
  -26.5489    9.4003   -1.8490 O   0  0  0  0  0  0  0  0  0  0  0  0
  -24.7284   12.1300   -3.7902 O   0  0  0  0  0  0  0  0  0  0  0  0
  -23.0999   10.1874   -2.2237 O   0  0  0  0  0  0  0  0  0  0  0  0
  -17.9644    9.9573   -1.4825 O   0  0  0  0  0  0  0  0  0  0  0  0
  -16.4489    7.4119   -1.2597 O   0  0  0  0  0  0  0  0  0  0  0  0
  -19.1991    6.0250   -2.7585 O   0  0  0  0  0  0  0  0  0  0  0  0
  -20.2316    4.7676    1.1577 O   0  0  0  0  0  0  0  0  0  0  0  0
  -20.0944    7.5627   -0.0264 O   0  0  0  0  0  0  0  0  0  0  0  0
  -23.0691    9.6458    1.3271 O   0  0  0  0  0  0  0  0  0  0  0  0
  -20.9370    9.9308   -0.8099 S   0  0  0  0  0  0  0  0  0  0  0  0
  1  2  1  0
 12  1  1  0
  1 24  1  1
  2  3  1  1
  2 26  1  0
  3 25  1  0
 11  4  1  0
  4 26  1  0
  4 33  1  1
  5  6  1  0
  5 31  1  0
  5 33  1  1
  6  7  1  0
  6 27  1  6
  7  8  1  0
  7 28  1  1
  9  8  1  0
  8 29  1  6
  9 10  1  1
 31  9  1  0
 10 30  1  0
 12 11  1  0
 11 32  1  1
 12 21  1  1
 13 14  2  0
 13 21  1  0
 14 15  1  0
 14 22  1  0
 15 16  2  0
 15 20  1  0
 16 17  1  0
 17 18  2  0
 18 19  1  0
 19 20  2  0
 21 23  1  0
 22 23  2  0
M  END
$$$$
