
     RDKit          3D

 33 36  0  0  0  0  0  0  0  0999 V2000
  -23.2530   11.0363    1.0248 C   0  0  1  0  0  0  0  0  0  0  0  0
  -21.8338   11.3800    0.6307 C   0  0  1  0  0  0  0  0  0  0  0  0
  -20.9222   11.0172    1.7737 C   0  0  0  0  0  0  0  0  0  0  0  0
  -21.8327    9.7043   -1.0075 C   0  0  1  0  0  0  0  0  0  0  0  0
  -19.0419    8.6254   -1.3367 C   0  0  1  0  0  0  0  0  0  0  0  0
  -18.0259    7.6662   -0.8143 C   0  0  1  0  0  0  0  0  0  0  0  0
  -16.8320    7.5829   -1.7097 C   0  0  2  0  0  0  0  0  0  0  0  0
  -17.1391    7.4947   -3.1700 C   0  0  1  0  0  0  0  0  0  0  0  0
  -18.1210    8.6347   -3.4710 C   0  0  1  0  0  0  0  0  0  0  0  0
  -18.5617    8.6006   -4.9230 C   0  0  0  0  0  0  0  0  0  0  0  0
  -23.2695    9.3162   -0.6561 C   0  0  1  0  0  0  0  0  0  0  0  0
  -23.9524   10.5982   -0.2689 C   0  0  1  0  0  0  0  0  0  0  0  0
  -26.3688   10.6749   -0.9502 C   0  0  0  0  0  0  0  0  0  0  0  0
  -27.5922   10.4533   -0.3526 C   0  0  0  0  0  0  0  0  0  0  0  0
  -28.9264   10.5515   -0.9374 C   0  0  0  0  0  0  0  0  0  0  0  0
  -29.9989    9.9144   -0.3531 C   0  0  0  0  0  0  0  0  0  0  0  0
  -31.2705   10.0070   -0.9082 C   0  0  0  0  0  0  0  0  0  0  0  0
  -31.5112   10.7331   -2.0565 C   0  0  0  0  0  0  0  0  0  0  0  0
  -30.4354   11.3710   -2.6410 C   0  0  0  0  0  0  0  0  0  0  0  0
  -29.1632   11.2773   -2.0838 C   0  0  0  0  0  0  0  0  0  0  0  0
  -25.3756   10.4770   -0.0638 N   0  0  0  0  0  0  0  0  0  0  0  0
  -27.2958   10.1177    0.9157 N   0  0  0  0  0  0  0  0  0  0  0  0
  -25.9638   10.1379    1.0679 N   0  0  0  0  0  0  0  0  0  0  0  0
  -23.2550    9.9615    1.9049 O   0  0  0  0  0  0  0  0  0  0  0  0
  -19.6238   11.4220    1.6228 O   0  0  0  0  0  0  0  0  0  0  0  0
  -21.4561   10.9339   -0.5872 O   0  0  0  0  0  0  0  0  0  0  0  0
  -17.5723    7.9995    0.4637 O   0  0  0  0  0  0  0  0  0  0  0  0
  -16.0174    6.4997   -1.3292 O   0  0  0  0  0  0  0  0  0  0  0  0
  -15.9634    7.6267   -3.8858 O   0  0  0  0  0  0  0  0  0  0  0  0
  -19.3117    9.7230   -5.1948 O   0  0  0  0  0  0  0  0  0  0  0  0
  -19.2300    8.3870   -2.6967 O   0  0  0  0  0  0  0  0  0  0  0  0
  -23.9017    8.6634   -1.7143 O   0  0  0  0  0  0  0  0  0  0  0  0
  -20.6678    8.3920   -0.5593 S   0  0  0  0  0  0  0  0  0  0  0  0
  1  2  1  0
 12  1  1  0
  1 24  1  1
  2  3  1  0
  2 26  1  6
  3 25  1  6
 11  4  1  0
  4 26  1  0
  4 33  1  1
  5  6  1  0
  5 31  1  0
  5 33  1  1
  6  7  1  0
  6 27  1  1
  7  8  1  0
  7 28  1  1
  9  8  1  0
  8 29  1  6
  9 10  1  0
  9 31  1  1
 10 30  1  6
 12 11  1  0
 11 32  1  6
 12 21  1  1
 13 14  2  0
 13 21  1  0
 14 15  1  0
 14 22  1  0
 15 16  2  0
 15 20  1  0
 16 17  1  0
 17 18  2  0
 18 19  1  0
 19 20  2  0
 21 23  1  0
 22 23  2  0
M  END
$$$$
