
     RDKit          3D

 33 36  0  0  0  0  0  0  0  0999 V2000
  -16.6307   11.5592   -1.3523 C   0  0  1  0  0  0  0  0  0  0  0  0
  -17.6017   11.9022   -2.4144 C   0  0  1  0  0  0  0  0  0  0  0  0
  -17.0125   12.5632   -3.6423 C   0  0  0  0  0  0  0  0  0  0  0  0
  -18.0665    9.6132   -2.3503 C   0  0  1  0  0  0  0  0  0  0  0  0
  -20.4471    7.7728   -1.9440 C   0  0  1  0  0  0  0  0  0  0  0  0
  -21.8492    7.6242   -2.4334 C   0  0  1  0  0  0  0  0  0  0  0  0
  -22.7187    7.6206   -1.1571 C   0  0  2  0  0  0  0  0  0  0  0  0
  -22.0135    7.0320    0.0174 C   0  0  1  0  0  0  0  0  0  0  0  0
  -20.8095    6.2362   -0.2545 C   0  0  1  0  0  0  0  0  0  0  0  0
  -21.0857    4.7359   -0.2350 C   0  0  0  0  0  0  0  0  0  0  0  0
  -16.6165    9.4039   -2.5914 C   0  0  1  0  0  0  0  0  0  0  0  0
  -15.8879   10.2972   -1.5663 C   0  0  1  0  0  0  0  0  0  0  0  0
  -13.4400   10.5168   -1.0551 C   0  0  0  0  0  0  0  0  0  0  0  0
  -12.3022   10.7595   -1.7914 C   0  0  0  0  0  0  0  0  0  0  0  0
  -10.9278   10.8519   -1.3051 C   0  0  0  0  0  0  0  0  0  0  0  0
   -9.8972   11.2195   -2.1475 C   0  0  0  0  0  0  0  0  0  0  0  0
   -8.5944   11.3107   -1.6986 C   0  0  0  0  0  0  0  0  0  0  0  0
   -8.2661   11.0354   -0.3766 C   0  0  0  0  0  0  0  0  0  0  0  0
   -9.2920   10.6697    0.4610 C   0  0  0  0  0  0  0  0  0  0  0  0
  -10.6025   10.5787    0.0066 C   0  0  0  0  0  0  0  0  0  0  0  0
  -14.5114   10.5117   -1.9034 N   0  0  0  0  0  0  0  0  0  0  0  0
  -12.7448   10.8889   -3.0497 N   0  0  0  0  0  0  0  0  0  0  0  0
  -14.0488   10.7423   -3.1134 N   0  0  0  0  0  0  0  0  0  0  0  0
  -15.7927   12.6641   -1.1610 O   0  0  0  0  0  0  0  0  0  0  0  0
  -17.9814   13.4523   -4.1694 O   0  0  0  0  0  0  0  0  0  0  0  0
  -18.4791   10.9043   -2.6914 O   0  0  0  0  0  0  0  0  0  0  0  0
  -22.2322    8.6231   -3.2702 O   0  0  0  0  0  0  0  0  0  0  0  0
  -23.9401    7.0192   -1.4436 O   0  0  0  0  0  0  0  0  0  0  0  0
  -21.7400    8.0381    0.9761 O   0  0  0  0  0  0  0  0  0  0  0  0
  -20.0195    4.1671    0.4871 O   0  0  0  0  0  0  0  0  0  0  0  0
  -20.1228    6.5091   -1.4067 O   0  0  0  0  0  0  0  0  0  0  0  0
  -16.2747    8.1013   -2.2591 O   0  0  0  0  0  0  0  0  0  0  0  0
  -19.2064    8.4262   -2.9613 S   0  0  0  0  0  0  0  0  0  0  0  0
  1  2  1  0
 12  1  1  0
  1 24  1  6
  2  3  1  6
  2 26  1  0
  3 25  1  0
 11  4  1  0
  4 26  1  0
  4 33  1  6
  5  6  1  0
  5 31  1  0
  5 33  1  6
  6  7  1  0
  6 27  1  6
  7  8  1  0
  7 28  1  6
  9  8  1  0
  8 29  1  1
  9 10  1  6
 31  9  1  0
 10 30  1  0
 12 11  1  0
 11 32  1  1
 12 21  1  6
 13 14  2  0
 13 21  1  0
 14 15  1  0
 14 22  1  0
 15 16  2  0
 15 20  1  0
 16 17  1  0
 17 18  2  0
 18 19  1  0
 19 20  2  0
 21 23  1  0
 22 23  2  0
M  END
$$$$
