
     RDKit          3D

 33 36  0  0  0  0  0  0  0  0999 V2000
  -18.5342    6.8350   -0.6419 C   0  0  1  0  0  0  0  0  0  0  0  0
  -19.8401    6.7996   -1.4041 C   0  0  1  0  0  0  0  0  0  0  0  0
  -20.9154    6.2895   -0.4808 C   0  0  0  0  0  0  0  0  0  0  0  0
  -19.8840    9.1392   -1.5311 C   0  0  1  0  0  0  0  0  0  0  0  0
  -22.7782    9.9665   -1.5332 C   0  0  1  0  0  0  0  0  0  0  0  0
  -23.9833   10.1610   -0.6758 C   0  0  1  0  0  0  0  0  0  0  0  0
  -25.1393   10.6940   -1.4592 C   0  0  2  0  0  0  0  0  0  0  0  0
  -24.8082   11.8066   -2.4011 C   0  0  1  0  0  0  0  0  0  0  0  0
  -23.6074   11.3260   -3.2266 C   0  0  1  0  0  0  0  0  0  0  0  0
  -23.1349   12.4107   -4.1773 C   0  0  0  0  0  0  0  0  0  0  0  0
  -18.5620    9.2366   -0.7687 C   0  0  1  0  0  0  0  0  0  0  0  0
  -17.7595    8.0389   -1.1944 C   0  0  1  0  0  0  0  0  0  0  0  0
  -15.2912    8.4829   -1.3351 C   0  0  0  0  0  0  0  0  0  0  0  0
  -14.1855    8.2934   -0.5324 C   0  0  0  0  0  0  0  0  0  0  0  0
  -12.7911    8.6317   -0.8024 C   0  0  0  0  0  0  0  0  0  0  0  0
  -11.8040    8.3241    0.1078 C   0  0  0  0  0  0  0  0  0  0  0  0
  -10.4752    8.6451   -0.1477 C   0  0  0  0  0  0  0  0  0  0  0  0
  -10.0915    9.2790   -1.3115 C   0  0  0  0  0  0  0  0  0  0  0  0
  -11.0818    9.5867   -2.2227 C   0  0  0  0  0  0  0  0  0  0  0  0
  -12.4114    9.2645   -1.9654 C   0  0  0  0  0  0  0  0  0  0  0  0
  -16.3982    8.0329   -0.7157 N   0  0  0  0  0  0  0  0  0  0  0  0
  -14.6689    7.7170    0.5826 N   0  0  0  0  0  0  0  0  0  0  0  0
  -15.9953    7.5699    0.4526 N   0  0  0  0  0  0  0  0  0  0  0  0
  -18.7773    7.0572    0.7077 O   0  0  0  0  0  0  0  0  0  0  0  0
  -20.5071    5.3214    0.3959 O   0  0  0  0  0  0  0  0  0  0  0  0
  -20.1352    7.9297   -2.0829 O   0  0  0  0  0  0  0  0  0  0  0  0
  -24.4024    8.9827   -0.0543 O   0  0  0  0  0  0  0  0  0  0  0  0
  -26.1676   11.0997   -0.5875 O   0  0  0  0  0  0  0  0  0  0  0  0
  -25.9090   12.0645   -3.1974 O   0  0  0  0  0  0  0  0  0  0  0  0
  -22.8901   13.5628   -3.4638 O   0  0  0  0  0  0  0  0  0  0  0  0
  -22.5972   11.1015   -2.3211 O   0  0  0  0  0  0  0  0  0  0  0  0
  -17.9091   10.4434   -1.0190 O   0  0  0  0  0  0  0  0  0  0  0  0
  -21.2593    9.7932   -0.5508 S   0  0  0  0  0  0  0  0  0  0  0  0
  1  2  1  0
 12  1  1  0
  1 24  1  1
  2  3  1  0
  2 26  1  1
  3 25  1  6
 11  4  1  0
  4 26  1  0
  4 33  1  1
  5  6  1  0
  5 31  1  0
  5 33  1  1
  6  7  1  0
  6 27  1  6
  7  8  1  0
  7 28  1  1
  9  8  1  0
  8 29  1  6
  9 10  1  0
  9 31  1  1
 10 30  1  6
 12 11  1  0
 11 32  1  6
 12 21  1  1
 13 14  2  0
 13 21  1  0
 14 15  1  0
 14 22  1  0
 15 16  2  0
 15 20  1  0
 16 17  1  0
 17 18  2  0
 18 19  1  0
 19 20  2  0
 21 23  1  0
 22 23  2  0
M  END
$$$$
