
     RDKit          3D

 33 36  0  0  0  0  0  0  0  0999 V2000
  -21.9896   13.0562   -3.2362 C   0  0  1  0  0  0  0  0  0  0  0  0
  -22.6734   12.1404   -2.2456 C   0  0  1  0  0  0  0  0  0  0  0  0
  -23.6374   11.2613   -2.9984 C   0  0  0  0  0  0  0  0  0  0  0  0
  -20.6618   11.0134   -1.8270 C   0  0  1  0  0  0  0  0  0  0  0  0
  -20.2993    8.1007   -1.1594 C   0  0  1  0  0  0  0  0  0  0  0  0
  -21.1087    6.8510   -1.2504 C   0  0  1  0  0  0  0  0  0  0  0  0
  -20.4799    5.7281   -0.4902 C   0  0  2  0  0  0  0  0  0  0  0  0
  -19.0050    5.5793   -0.6826 C   0  0  1  0  0  0  0  0  0  0  0  0
  -18.3994    6.9687   -0.4437 C   0  0  1  0  0  0  0  0  0  0  0  0
  -16.9005    6.9545   -0.6826 C   0  0  0  0  0  0  0  0  0  0  0  0
  -19.9161   11.9132   -2.8133 C   0  0  1  0  0  0  0  0  0  0  0  0
  -20.5664   13.2639   -2.7010 C   0  0  1  0  0  0  0  0  0  0  0  0
  -19.3845   15.4649   -2.9614 C   0  0  0  0  0  0  0  0  0  0  0  0
  -18.8221   16.1916   -3.9902 C   0  0  0  0  0  0  0  0  0  0  0  0
  -18.1599   17.4918   -3.9355 C   0  0  0  0  0  0  0  0  0  0  0  0
  -17.6128   17.9533   -2.7587 C   0  0  0  0  0  0  0  0  0  0  0  0
  -16.9814   19.1911   -2.7046 C   0  0  0  0  0  0  0  0  0  0  0  0
  -16.8765   20.0026   -3.8155 C   0  0  0  0  0  0  0  0  0  0  0  0
  -17.4253   19.5388   -4.9942 C   0  0  0  0  0  0  0  0  0  0  0  0
  -18.0569   18.2993   -5.0465 C   0  0  0  0  0  0  0  0  0  0  0  0
  -19.8944   14.3114   -3.4314 N   0  0  0  0  0  0  0  0  0  0  0  0
  -19.0132   15.4350   -5.0857 N   0  0  0  0  0  0  0  0  0  0  0  0
  -19.6568   14.3140   -4.7296 N   0  0  0  0  0  0  0  0  0  0  0  0
  -21.9012   12.4350   -4.4755 O   0  0  0  0  0  0  0  0  0  0  0  0
  -24.5279   10.5817   -2.2125 O   0  0  0  0  0  0  0  0  0  0  0  0
  -21.8438   11.5052   -1.3893 O   0  0  0  0  0  0  0  0  0  0  0  0
  -22.4093    7.0110   -0.7677 O   0  0  0  0  0  0  0  0  0  0  0  0
  -21.1242    4.5152   -0.7990 O   0  0  0  0  0  0  0  0  0  0  0  0
  -18.5253    4.6477    0.2197 O   0  0  0  0  0  0  0  0  0  0  0  0
  -16.5353    8.1108   -1.3352 O   0  0  0  0  0  0  0  0  0  0  0  0
  -18.9613    7.7896   -1.3931 O   0  0  0  0  0  0  0  0  0  0  0  0
  -18.5471   11.9470   -2.5483 O   0  0  0  0  0  0  0  0  0  0  0  0
  -20.7608    9.3102   -2.4347 S   0  0  0  0  0  0  0  0  0  0  0  0
  1  2  1  0
 12  1  1  0
  1 24  1  6
  2  3  1  0
  2 26  1  6
  3 25  1  6
 11  4  1  0
  4 26  1  0
  4 33  1  6
  5  6  1  0
  5 31  1  0
  5 33  1  6
  6  7  1  0
  6 27  1  1
  7  8  1  0
  7 28  1  6
  9  8  1  0
  8 29  1  1
  9 10  1  0
  9 31  1  6
 10 30  1  6
 12 11  1  0
 11 32  1  1
 12 21  1  6
 13 14  2  0
 13 21  1  0
 14 15  1  0
 14 22  1  0
 15 16  2  0
 15 20  1  0
 16 17  1  0
 17 18  2  0
 18 19  1  0
 19 20  2  0
 21 23  1  0
 22 23  2  0
M  END
$$$$
