
     RDKit          3D

 33 36  0  0  0  0  0  0  0  0999 V2000
  -18.2192    7.0073   -1.2342 C   0  0  1  0  0  0  0  0  0  0  0  0
  -19.6153    6.7653   -1.7633 C   0  0  1  0  0  0  0  0  0  0  0  0
  -20.4673    6.2451   -0.6354 C   0  0  0  0  0  0  0  0  0  0  0  0
  -19.9471    9.0643   -2.0738 C   0  0  1  0  0  0  0  0  0  0  0  0
  -22.8941    9.2315   -1.4837 C   0  0  1  0  0  0  0  0  0  0  0  0
  -23.8892    9.3203   -0.3760 C   0  0  1  0  0  0  0  0  0  0  0  0
  -25.2912    9.3537   -0.8932 C   0  0  2  0  0  0  0  0  0  0  0  0
  -25.5150   10.2597   -2.0610 C   0  0  1  0  0  0  0  0  0  0  0  0
  -24.4322    9.9083   -3.0897 C   0  0  1  0  0  0  0  0  0  0  0  0
  -24.5181   10.8208   -4.2996 C   0  0  0  0  0  0  0  0  0  0  0  0
  -18.5423    9.3693   -1.5522 C   0  0  1  0  0  0  0  0  0  0  0  0
  -17.6838    8.2214   -2.0051 C   0  0  1  0  0  0  0  0  0  0  0  0
  -15.2572    8.3448   -2.6417 C   0  0  0  0  0  0  0  0  0  0  0  0
  -14.0572    8.5730   -2.0007 C   0  0  0  0  0  0  0  0  0  0  0  0
  -12.7111    8.6063   -2.5653 C   0  0  0  0  0  0  0  0  0  0  0  0
  -11.6040    8.5648   -1.7466 C   0  0  0  0  0  0  0  0  0  0  0  0
  -10.3211    8.5959   -2.2823 C   0  0  0  0  0  0  0  0  0  0  0  0
  -10.1032    8.6691   -3.6428 C   0  0  0  0  0  0  0  0  0  0  0  0
  -11.2135    8.7106   -4.4619 C   0  0  0  0  0  0  0  0  0  0  0  0
  -12.4971    8.6793   -3.9239 C   0  0  0  0  0  0  0  0  0  0  0  0
  -16.2729    8.3995   -1.7604 N   0  0  0  0  0  0  0  0  0  0  0  0
  -14.3907    8.7650   -0.7119 N   0  0  0  0  0  0  0  0  0  0  0  0
  -15.7215    8.6570   -0.5893 N   0  0  0  0  0  0  0  0  0  0  0  0
  -18.2724    7.3379    0.1140 O   0  0  0  0  0  0  0  0  0  0  0  0
  -21.6301    5.6392   -1.0271 O   0  0  0  0  0  0  0  0  0  0  0  0
  -20.1407    7.7867   -2.4746 O   0  0  0  0  0  0  0  0  0  0  0  0
  -23.7965    8.2555    0.5229 O   0  0  0  0  0  0  0  0  0  0  0  0
  -26.1813    9.6879    0.1449 O   0  0  0  0  0  0  0  0  0  0  0  0
  -26.7867   10.0449   -2.5598 O   0  0  0  0  0  0  0  0  0  0  0  0
  -25.0612   10.1229   -5.3551 O   0  0  0  0  0  0  0  0  0  0  0  0
  -23.2312   10.1580   -2.4683 O   0  0  0  0  0  0  0  0  0  0  0  0
  -18.0796   10.6043   -2.0063 O   0  0  0  0  0  0  0  0  0  0  0  0
  -21.2183    9.6722   -0.9360 S   0  0  0  0  0  0  0  0  0  0  0  0
  1  2  1  0
 12  1  1  0
  1 24  1  1
  2  3  1  0
  2 26  1  1
  3 25  1  6
 11  4  1  0
  4 26  1  0
  4 33  1  1
  5  6  1  0
  5 31  1  0
  5 33  1  1
  6  7  1  0
  6 27  1  1
  7  8  1  0
  7 28  1  1
  9  8  1  0
  8 29  1  6
  9 10  1  0
  9 31  1  1
 10 30  1  6
 12 11  1  0
 11 32  1  6
 12 21  1  1
 13 14  2  0
 13 21  1  0
 14 15  1  0
 14 22  1  0
 15 16  2  0
 15 20  1  0
 16 17  1  0
 17 18  2  0
 18 19  1  0
 19 20  2  0
 21 23  1  0
 22 23  2  0
M  END
$$$$
