
     RDKit          3D

 33 36  0  0  0  0  0  0  0  0999 V2000
  -18.3000    7.1005   -1.6461 C   0  0  1  0  0  0  0  0  0  0  0  0
  -19.4651    6.8116   -0.7813 C   0  0  1  0  0  0  0  0  0  0  0  0
  -19.1327    6.2997    0.6041 C   0  0  0  0  0  0  0  0  0  0  0  0
  -19.9709    9.0582   -1.1766 C   0  0  1  0  0  0  0  0  0  0  0  0
  -22.8704    9.9144   -1.4583 C   0  0  1  0  0  0  0  0  0  0  0  0
  -24.0358   10.2094   -0.5738 C   0  0  1  0  0  0  0  0  0  0  0  0
  -25.1583    9.2704   -1.0669 C   0  0  2  0  0  0  0  0  0  0  0  0
  -25.0722    8.9895   -2.5286 C   0  0  1  0  0  0  0  0  0  0  0  0
  -24.2243    9.8791   -3.3326 C   0  0  1  0  0  0  0  0  0  0  0  0
  -25.0308   10.9429   -4.0709 C   0  0  0  0  0  0  0  0  0  0  0  0
  -18.6123    9.3613   -0.6600 C   0  0  1  0  0  0  0  0  0  0  0  0
  -17.6565    8.4126   -1.4123 C   0  0  1  0  0  0  0  0  0  0  0  0
  -15.1497    8.2854   -1.3729 C   0  0  0  0  0  0  0  0  0  0  0  0
  -14.1891    8.1632   -0.3942 C   0  0  0  0  0  0  0  0  0  0  0  0
  -12.7398    8.1068   -0.5688 C   0  0  0  0  0  0  0  0  0  0  0  0
  -11.8961    7.9764    0.5165 C   0  0  0  0  0  0  0  0  0  0  0  0
  -10.5247    7.9214    0.3634 C   0  0  0  0  0  0  0  0  0  0  0  0
   -9.9359    7.9954   -0.8932 C   0  0  0  0  0  0  0  0  0  0  0  0
  -10.7759    8.1252   -1.9726 C   0  0  0  0  0  0  0  0  0  0  0  0
  -12.1560    8.1802   -1.8156 C   0  0  0  0  0  0  0  0  0  0  0  0
  -16.3781    8.2998   -0.7741 N   0  0  0  0  0  0  0  0  0  0  0  0
  -14.8873    8.1100    0.7486 N   0  0  0  0  0  0  0  0  0  0  0  0
  -16.1788    8.1907    0.5218 N   0  0  0  0  0  0  0  0  0  0  0  0
  -17.4092    6.0257   -1.5429 O   0  0  0  0  0  0  0  0  0  0  0  0
  -20.1989    5.4714    1.0332 O   0  0  0  0  0  0  0  0  0  0  0  0
  -20.4096    7.7862   -0.7985 O   0  0  0  0  0  0  0  0  0  0  0  0
  -23.7762    9.9950    0.7420 O   0  0  0  0  0  0  0  0  0  0  0  0
  -26.3867    9.7813   -0.6601 O   0  0  0  0  0  0  0  0  0  0  0  0
  -24.7191    7.6349   -2.7447 O   0  0  0  0  0  0  0  0  0  0  0  0
  -24.1792   11.4246   -5.0831 O   0  0  0  0  0  0  0  0  0  0  0  0
  -23.1981   10.5183   -2.6906 O   0  0  0  0  0  0  0  0  0  0  0  0
  -18.2450   10.6421   -1.0457 O   0  0  0  0  0  0  0  0  0  0  0  0
  -21.2485   10.2393   -0.9434 S   0  0  0  0  0  0  0  0  0  0  0  0
  1  2  1  0
 12  1  1  0
  1 24  1  1
  2  3  1  1
  2 26  1  0
  3 25  1  0
 11  4  1  0
  4 26  1  0
  4 33  1  1
  5  6  1  0
  5 31  1  0
  5 33  1  1
  6  7  1  0
  6 27  1  1
  7  8  1  0
  7 28  1  6
  9  8  1  0
  8 29  1  1
  9 10  1  1
 31  9  1  0
 10 30  1  0
 12 11  1  0
 11 32  1  6
 12 21  1  1
 13 14  2  0
 13 21  1  0
 14 15  1  0
 14 22  1  0
 15 16  2  0
 15 20  1  0
 16 17  1  0
 17 18  2  0
 18 19  1  0
 19 20  2  0
 21 23  1  0
 22 23  2  0
M  END
$$$$
