
     RDKit          3D

 33 36  0  0  0  0  0  0  0  0999 V2000
  -25.3691    9.9479   -0.5075 C   0  0  1  0  0  0  0  0  0  0  0  0
  -25.1762    9.6536   -1.9445 C   0  0  1  0  0  0  0  0  0  0  0  0
  -25.9880   10.5071   -2.8955 C   0  0  0  0  0  0  0  0  0  0  0  0
  -22.9403   10.1313   -1.4625 C   0  0  1  0  0  0  0  0  0  0  0  0
  -20.3038    8.6834   -1.8773 C   0  0  1  0  0  0  0  0  0  0  0  0
  -19.4153    8.1444   -2.9486 C   0  0  1  0  0  0  0  0  0  0  0  0
  -19.1612    6.6734   -2.5530 C   0  0  2  0  0  0  0  0  0  0  0  0
  -19.1686    6.4655   -1.0765 C   0  0  1  0  0  0  0  0  0  0  0  0
  -19.0424    7.6601   -0.2316 C   0  0  1  0  0  0  0  0  0  0  0  0
  -17.6212    7.8608    0.2855 C   0  0  0  0  0  0  0  0  0  0  0  0
  -23.4249   11.4350   -0.9430 C   0  0  1  0  0  0  0  0  0  0  0  0
  -24.5943   11.0998    0.0055 C   0  0  1  0  0  0  0  0  0  0  0  0
  -25.9010   12.6281    1.5083 C   0  0  0  0  0  0  0  0  0  0  0  0
  -26.6410   13.7762    1.3357 C   0  0  0  0  0  0  0  0  0  0  0  0
  -27.3456   14.5456    2.3583 C   0  0  0  0  0  0  0  0  0  0  0  0
  -27.5177   14.0454    3.6338 C   0  0  0  0  0  0  0  0  0  0  0  0
  -28.1816   14.7639    4.6085 C   0  0  0  0  0  0  0  0  0  0  0  0
  -28.7052   16.0240    4.3447 C   0  0  0  0  0  0  0  0  0  0  0  0
  -28.5336   16.5211    3.0754 C   0  0  0  0  0  0  0  0  0  0  0  0
  -27.8649   15.7956    2.0962 C   0  0  0  0  0  0  0  0  0  0  0  0
  -25.4149   12.2396    0.2917 N   0  0  0  0  0  0  0  0  0  0  0  0
  -26.5643   14.0236    0.0208 N   0  0  0  0  0  0  0  0  0  0  0  0
  -25.8402   13.1155   -0.5933 N   0  0  0  0  0  0  0  0  0  0  0  0
  -26.7442   10.0620   -0.2716 O   0  0  0  0  0  0  0  0  0  0  0  0
  -26.5718    9.6522   -3.8626 O   0  0  0  0  0  0  0  0  0  0  0  0
  -23.8738    9.5153   -2.3007 O   0  0  0  0  0  0  0  0  0  0  0  0
  -19.9663    8.2181   -4.1877 O   0  0  0  0  0  0  0  0  0  0  0  0
  -18.0017    6.2299   -3.1812 O   0  0  0  0  0  0  0  0  0  0  0  0
  -20.3011    5.7041   -0.6972 O   0  0  0  0  0  0  0  0  0  0  0  0
  -17.7618    8.4987    1.5325 O   0  0  0  0  0  0  0  0  0  0  0  0
  -19.4547    8.8521   -0.7632 O   0  0  0  0  0  0  0  0  0  0  0  0
  -22.4478   12.0066   -0.1414 O   0  0  0  0  0  0  0  0  0  0  0  0
  -21.3351   10.0447   -2.1680 S   0  0  0  0  0  0  0  0  0  0  0  0
  1  2  1  0
 12  1  1  0
  1 24  1  6
  2  3  1  6
  2 26  1  0
  3 25  1  0
 11  4  1  0
  4 26  1  0
  4 33  1  6
  5  6  1  0
  5 31  1  0
  5 33  1  6
  6  7  1  0
  6 27  1  6
  7  8  1  0
  7 28  1  1
  9  8  1  0
  8 29  1  1
  9 10  1  6
 31  9  1  0
 10 30  1  0
 12 11  1  0
 11 32  1  1
 12 21  1  6
 13 14  2  0
 13 21  1  0
 14 15  1  0
 14 22  1  0
 15 16  2  0
 15 20  1  0
 16 17  1  0
 17 18  2  0
 18 19  1  0
 19 20  2  0
 21 23  1  0
 22 23  2  0
M  END
$$$$
