
     RDKit          3D

 33 36  0  0  0  0  0  0  0  0999 V2000
  -17.1420   11.6812   -3.8506 C   0  0  1  0  0  0  0  0  0  0  0  0
  -18.4876   11.8970   -3.1945 C   0  0  1  0  0  0  0  0  0  0  0  0
  -19.5536   11.8022   -4.2545 C   0  0  0  0  0  0  0  0  0  0  0  0
  -18.2913    9.8788   -2.0196 C   0  0  1  0  0  0  0  0  0  0  0  0
  -20.5218    8.0133   -1.2417 C   0  0  1  0  0  0  0  0  0  0  0  0
  -21.7762    7.3687   -1.7276 C   0  0  1  0  0  0  0  0  0  0  0  0
  -22.3795    6.4794   -0.6887 C   0  0  2  0  0  0  0  0  0  0  0  0
  -21.4119    5.5929    0.0271 C   0  0  1  0  0  0  0  0  0  0  0  0
  -20.2721    6.5015    0.5063 C   0  0  1  0  0  0  0  0  0  0  0  0
  -19.1863    5.6923    1.1918 C   0  0  0  0  0  0  0  0  0  0  0  0
  -16.9231    9.6101   -2.6476 C   0  0  1  0  0  0  0  0  0  0  0  0
  -16.2787   10.9588   -2.8076 C   0  0  1  0  0  0  0  0  0  0  0  0
  -13.7987   11.2433   -2.5284 C   0  0  0  0  0  0  0  0  0  0  0  0
  -12.6695   11.0555   -3.2983 C   0  0  0  0  0  0  0  0  0  0  0  0
  -11.2721   11.2841   -2.9423 C   0  0  0  0  0  0  0  0  0  0  0  0
  -10.3025   11.3663   -3.9173 C   0  0  0  0  0  0  0  0  0  0  0  0
   -8.9711   11.5845   -3.5804 C   0  0  0  0  0  0  0  0  0  0  0  0
   -8.5671   11.7265   -2.2688 C   0  0  0  0  0  0  0  0  0  0  0  0
   -9.5399   11.6439   -1.2928 C   0  0  0  0  0  0  0  0  0  0  0  0
  -10.8723   11.4256   -1.6319 C   0  0  0  0  0  0  0  0  0  0  0  0
  -14.8995   10.9140   -3.2295 N   0  0  0  0  0  0  0  0  0  0  0  0
  -13.1326   10.6049   -4.4779 N   0  0  0  0  0  0  0  0  0  0  0  0
  -14.4698   10.5274   -4.4159 N   0  0  0  0  0  0  0  0  0  0  0  0
  -17.2789   10.8478   -4.9535 O   0  0  0  0  0  0  0  0  0  0  0  0
  -20.6107   12.6539   -4.0828 O   0  0  0  0  0  0  0  0  0  0  0  0
  -18.7016   11.1668   -2.0782 O   0  0  0  0  0  0  0  0  0  0  0  0
  -22.7500    8.2951   -2.1071 O   0  0  0  0  0  0  0  0  0  0  0  0
  -23.4066    5.7016   -1.2560 O   0  0  0  0  0  0  0  0  0  0  0  0
  -22.0598    4.9805    1.0841 O   0  0  0  0  0  0  0  0  0  0  0  0
  -18.3766    5.1202    0.2361 O   0  0  0  0  0  0  0  0  0  0  0  0
  -19.7251    7.0466   -0.6315 O   0  0  0  0  0  0  0  0  0  0  0  0
  -16.1623    8.7344   -1.8732 O   0  0  0  0  0  0  0  0  0  0  0  0
  -19.5284    8.6921   -2.6036 S   0  0  0  0  0  0  0  0  0  0  0  0
  1  2  1  0
 12  1  1  0
  1 24  1  6
  2  3  1  0
  2 26  1  1
  3 25  1  6
 11  4  1  0
  4 26  1  0
  4 33  1  6
  5  6  1  0
  5 31  1  0
  5 33  1  6
  6  7  1  0
  6 27  1  1
  7  8  1  0
  7 28  1  6
  9  8  1  0
  8 29  1  1
  9 10  1  0
  9 31  1  6
 10 30  1  6
 12 11  1  0
 11 32  1  1
 12 21  1  6
 13 14  2  0
 13 21  1  0
 14 15  1  0
 14 22  1  0
 15 16  2  0
 15 20  1  0
 16 17  1  0
 17 18  2  0
 18 19  1  0
 19 20  2  0
 21 23  1  0
 22 23  2  0
M  END
$$$$
