
     RDKit          3D

 33 36  0  0  0  0  0  0  0  0999 V2000
  -18.6366    7.0159   -1.7032 C   0  0  1  0  0  0  0  0  0  0  0  0
  -19.6884    7.3576   -0.7206 C   0  0  1  0  0  0  0  0  0  0  0  0
  -19.1963    7.6457    0.6818 C   0  0  0  0  0  0  0  0  0  0  0  0
  -20.1653    9.0711   -2.2358 C   0  0  1  0  0  0  0  0  0  0  0  0
  -23.0559    9.9784   -2.4375 C   0  0  1  0  0  0  0  0  0  0  0  0
  -23.9678   10.9025   -1.7013 C   0  0  1  0  0  0  0  0  0  0  0  0
  -25.1655   10.0255   -1.2757 C   0  0  2  0  0  0  0  0  0  0  0  0
  -25.4428    8.9234   -2.2409 C   0  0  1  0  0  0  0  0  0  0  0  0
  -24.8336    9.0309   -3.5729 C   0  0  1  0  0  0  0  0  0  0  0  0
  -25.8125    9.5503   -4.6214 C   0  0  0  0  0  0  0  0  0  0  0  0
  -18.7417    9.4687   -2.0954 C   0  0  1  0  0  0  0  0  0  0  0  0
  -17.9243    8.1746   -2.2866 C   0  0  1  0  0  0  0  0  0  0  0  0
  -15.4762    7.6204   -2.2495 C   0  0  0  0  0  0  0  0  0  0  0  0
  -14.3859    8.0425   -1.5223 C   0  0  0  0  0  0  0  0  0  0  0  0
  -13.0015    7.5936   -1.6484 C   0  0  0  0  0  0  0  0  0  0  0  0
  -12.6583    6.5782   -2.5190 C   0  0  0  0  0  0  0  0  0  0  0  0
  -11.3529    6.1461   -2.6469 C   0  0  0  0  0  0  0  0  0  0  0  0
  -10.3279    6.7173   -1.9022 C   0  0  0  0  0  0  0  0  0  0  0  0
  -10.6701    7.7275   -1.0362 C   0  0  0  0  0  0  0  0  0  0  0  0
  -11.9849    8.1605   -0.9095 C   0  0  0  0  0  0  0  0  0  0  0  0
  -16.5783    8.2983   -1.8099 N   0  0  0  0  0  0  0  0  0  0  0  0
  -14.8857    8.9559   -0.6785 N   0  0  0  0  0  0  0  0  0  0  0  0
  -16.1796    9.1052   -0.8500 N   0  0  0  0  0  0  0  0  0  0  0  0
  -17.7766    6.0852   -1.1083 O   0  0  0  0  0  0  0  0  0  0  0  0
  -19.9037    6.8052    1.5763 O   0  0  0  0  0  0  0  0  0  0  0  0
  -20.5937    8.2563   -1.1841 O   0  0  0  0  0  0  0  0  0  0  0  0
  -23.3857   11.4764   -0.6166 O   0  0  0  0  0  0  0  0  0  0  0  0
  -26.2603   10.8462   -1.0239 O   0  0  0  0  0  0  0  0  0  0  0  0
  -25.1373    7.6718   -1.6526 O   0  0  0  0  0  0  0  0  0  0  0  0
  -26.1008    8.4462   -5.4457 O   0  0  0  0  0  0  0  0  0  0  0  0
  -23.6882    9.7724   -3.6819 O   0  0  0  0  0  0  0  0  0  0  0  0
  -18.3846   10.2939   -3.1516 O   0  0  0  0  0  0  0  0  0  0  0  0
  -21.3613   10.3109   -2.5743 S   0  0  0  0  0  0  0  0  0  0  0  0
  1  2  1  0
 12  1  1  0
  1 24  1  1
  2  3  1  1
  2 26  1  0
  3 25  1  0
 11  4  1  0
  4 26  1  0
  4 33  1  1
  5  6  1  0
  5 31  1  0
  5 33  1  6
  6  7  1  0
  6 27  1  1
  7  8  1  0
  7 28  1  6
  9  8  1  0
  8 29  1  1
  9 10  1  6
 31  9  1  0
 10 30  1  0
 12 11  1  0
 11 32  1  6
 12 21  1  1
 13 14  2  0
 13 21  1  0
 14 15  1  0
 14 22  1  0
 15 16  2  0
 15 20  1  0
 16 17  1  0
 17 18  2  0
 18 19  1  0
 19 20  2  0
 21 23  1  0
 22 23  2  0
M  END
$$$$
