
     RDKit          3D

 33 36  0  0  0  0  0  0  0  0999 V2000
  -24.6113   11.0337   -0.5189 C   0  0  1  0  0  0  0  0  0  0  0  0
  -24.9053    9.8998   -1.4225 C   0  0  1  0  0  0  0  0  0  0  0  0
  -25.8782   10.1995   -2.5431 C   0  0  0  0  0  0  0  0  0  0  0  0
  -22.5932    9.9224   -1.7588 C   0  0  1  0  0  0  0  0  0  0  0  0
  -20.3237    7.9157   -1.5537 C   0  0  1  0  0  0  0  0  0  0  0  0
  -19.4945    6.8561   -2.1997 C   0  0  1  0  0  0  0  0  0  0  0  0
  -19.2913    5.7862   -1.1048 C   0  0  2  0  0  0  0  0  0  0  0  0
  -19.2598    6.3671    0.2680 C   0  0  1  0  0  0  0  0  0  0  0  0
  -19.0547    7.8173    0.3768 C   0  0  1  0  0  0  0  0  0  0  0  0
  -17.6102    8.1784    0.7087 C   0  0  0  0  0  0  0  0  0  0  0  0
  -22.7538   11.3480   -2.1413 C   0  0  1  0  0  0  0  0  0  0  0  0
  -23.5997   11.9895   -1.0222 C   0  0  1  0  0  0  0  0  0  0  0  0
  -24.2918   14.3739   -0.6510 C   0  0  0  0  0  0  0  0  0  0  0  0
  -24.8903   15.3515   -1.4136 C   0  0  0  0  0  0  0  0  0  0  0  0
  -25.2202   16.7174   -1.0142 C   0  0  0  0  0  0  0  0  0  0  0  0
  -25.7672   17.6104   -1.9142 C   0  0  0  0  0  0  0  0  0  0  0  0
  -26.0835   18.9037   -1.5477 C   0  0  0  0  0  0  0  0  0  0  0  0
  -25.8635   19.3609   -0.2539 C   0  0  0  0  0  0  0  0  0  0  0  0
  -25.3192   18.4719    0.6411 C   0  0  0  0  0  0  0  0  0  0  0  0
  -25.0018   17.1706    0.2695 C   0  0  0  0  0  0  0  0  0  0  0  0
  -24.1672   13.2463   -1.4130 N   0  0  0  0  0  0  0  0  0  0  0  0
  -25.0974   14.7638   -2.6001 N   0  0  0  0  0  0  0  0  0  0  0  0
  -24.6699   13.5215   -2.5974 N   0  0  0  0  0  0  0  0  0  0  0  0
  -25.8255   11.6445   -0.1842 O   0  0  0  0  0  0  0  0  0  0  0  0
  -26.7635    9.0998   -2.6612 O   0  0  0  0  0  0  0  0  0  0  0  0
  -23.7996    9.2192   -1.8180 O   0  0  0  0  0  0  0  0  0  0  0  0
  -20.0818    6.3123   -3.2969 O   0  0  0  0  0  0  0  0  0  0  0  0
  -18.1731    5.0214   -1.4217 O   0  0  0  0  0  0  0  0  0  0  0  0
  -20.4111    5.9708    0.9915 O   0  0  0  0  0  0  0  0  0  0  0  0
  -17.6829    9.3695    1.4557 O   0  0  0  0  0  0  0  0  0  0  0  0
  -19.4323    8.5870   -0.6902 O   0  0  0  0  0  0  0  0  0  0  0  0
  -21.5221   11.9838   -2.0876 O   0  0  0  0  0  0  0  0  0  0  0  0
  -21.3042    8.9874   -2.4978 S   0  0  0  0  0  0  0  0  0  0  0  0
  1  2  1  0
 12  1  1  0
  1 24  1  6
  2  3  1  6
  2 26  1  0
  3 25  1  0
 11  4  1  0
  4 26  1  0
  4 33  1  6
  5  6  1  0
  5 31  1  0
  5 33  1  6
  6  7  1  0
  6 27  1  6
  7  8  1  0
  7 28  1  6
  9  8  1  0
  8 29  1  6
  9 10  1  6
 31  9  1  0
 10 30  1  0
 12 11  1  0
 11 32  1  1
 12 21  1  6
 13 14  2  0
 13 21  1  0
 14 15  1  0
 14 22  1  0
 15 16  2  0
 15 20  1  0
 16 17  1  0
 17 18  2  0
 18 19  1  0
 19 20  2  0
 21 23  1  0
 22 23  2  0
M  END
$$$$
