
     RDKit          3D

 33 36  0  0  0  0  0  0  0  0999 V2000
  -18.6132    7.2455   -2.1553 C   0  0  1  0  0  0  0  0  0  0  0  0
  -19.6786    7.2003   -1.1298 C   0  0  1  0  0  0  0  0  0  0  0  0
  -19.2075    6.9247    0.2823 C   0  0  0  0  0  0  0  0  0  0  0  0
  -20.1171    9.3688   -1.8815 C   0  0  1  0  0  0  0  0  0  0  0  0
  -22.9941   10.3157   -1.6687 C   0  0  1  0  0  0  0  0  0  0  0  0
  -23.8185   10.7190   -0.4918 C   0  0  1  0  0  0  0  0  0  0  0  0
  -25.0263    9.7566   -0.5025 C   0  0  2  0  0  0  0  0  0  0  0  0
  -25.4094    9.3301   -1.8789 C   0  0  1  0  0  0  0  0  0  0  0  0
  -24.8767   10.1194   -2.9970 C   0  0  1  0  0  0  0  0  0  0  0  0
  -25.8924   11.1193   -3.5408 C   0  0  0  0  0  0  0  0  0  0  0  0
  -18.6929    9.6634   -1.5824 C   0  0  1  0  0  0  0  0  0  0  0  0
  -17.8825    8.5294   -2.2432 C   0  0  1  0  0  0  0  0  0  0  0  0
  -15.3970    8.2485   -2.4562 C   0  0  0  0  0  0  0  0  0  0  0  0
  -14.3334    8.2318   -1.5821 C   0  0  0  0  0  0  0  0  0  0  0  0
  -12.9191    8.0528   -1.9013 C   0  0  0  0  0  0  0  0  0  0  0  0
  -11.9437    8.2314   -0.9403 C   0  0  0  0  0  0  0  0  0  0  0  0
  -10.6040    8.0644   -1.2305 C   0  0  0  0  0  0  0  0  0  0  0  0
  -10.1812    7.7087   -2.5056 C   0  0  0  0  0  0  0  0  0  0  0  0
  -11.1521    7.5311   -3.4613 C   0  0  0  0  0  0  0  0  0  0  0  0
  -12.5000    7.6999   -3.1665 C   0  0  0  0  0  0  0  0  0  0  0  0
  -16.5436    8.4436   -1.7387 N   0  0  0  0  0  0  0  0  0  0  0  0
  -14.8925    8.4180   -0.3784 N   0  0  0  0  0  0  0  0  0  0  0  0
  -16.1969    8.5427   -0.4734 N   0  0  0  0  0  0  0  0  0  0  0  0
  -17.7705    6.1467   -1.9503 O   0  0  0  0  0  0  0  0  0  0  0  0
  -20.1883    6.1293    0.9245 O   0  0  0  0  0  0  0  0  0  0  0  0
  -20.5691    8.2200   -1.2261 O   0  0  0  0  0  0  0  0  0  0  0  0
  -23.1479   10.6316    0.6860 O   0  0  0  0  0  0  0  0  0  0  0  0
  -26.0667   10.3284    0.2230 O   0  0  0  0  0  0  0  0  0  0  0  0
  -25.1249    7.9545   -2.0598 O   0  0  0  0  0  0  0  0  0  0  0  0
  -25.8060   11.0180   -4.9422 O   0  0  0  0  0  0  0  0  0  0  0  0
  -23.7081   10.8000   -2.7851 O   0  0  0  0  0  0  0  0  0  0  0  0
  -18.3120   10.8244   -2.2390 O   0  0  0  0  0  0  0  0  0  0  0  0
  -21.2976   10.6598   -1.7358 S   0  0  0  0  0  0  0  0  0  0  0  0
  1  2  1  0
 12  1  1  0
  1 24  1  1
  2  3  1  1
  2 26  1  0
  3 25  1  0
 11  4  1  0
  4 26  1  0
  4 33  1  1
  5  6  1  0
  5 31  1  0
  5 33  1  1
  6  7  1  0
  6 27  1  1
  7  8  1  0
  7 28  1  6
  9  8  1  0
  8 29  1  6
  9 10  1  1
 31  9  1  0
 10 30  1  0
 12 11  1  0
 11 32  1  6
 12 21  1  1
 13 14  2  0
 13 21  1  0
 14 15  1  0
 14 22  1  0
 15 16  2  0
 15 20  1  0
 16 17  1  0
 17 18  2  0
 18 19  1  0
 19 20  2  0
 21 23  1  0
 22 23  2  0
M  END
$$$$
