
     RDKit          3D

 33 36  0  0  0  0  0  0  0  0999 V2000
  -15.3114    9.9097   -1.0637 C   0  0  1  0  0  0  0  0  0  0  0  0
  -16.3342   10.9778   -1.0221 C   0  0  1  0  0  0  0  0  0  0  0  0
  -15.9285   12.2888   -1.6613 C   0  0  0  0  0  0  0  0  0  0  0  0
  -17.6327    9.4024   -2.1585 C   0  0  1  0  0  0  0  0  0  0  0  0
  -20.4591    8.4273   -1.6291 C   0  0  1  0  0  0  0  0  0  0  0  0
  -21.9138    8.4642   -1.9608 C   0  0  1  0  0  0  0  0  0  0  0  0
  -22.6358    8.3556   -0.6000 C   0  0  2  0  0  0  0  0  0  0  0  0
  -21.8684    7.5537    0.3956 C   0  0  1  0  0  0  0  0  0  0  0  0
  -20.7848    6.7066   -0.1191 C   0  0  1  0  0  0  0  0  0  0  0  0
  -21.2030    5.2461   -0.2589 C   0  0  0  0  0  0  0  0  0  0  0  0
  -16.5332    9.3483   -3.1549 C   0  0  1  0  0  0  0  0  0  0  0  0
  -15.2372    9.1628   -2.3392 C   0  0  1  0  0  0  0  0  0  0  0  0
  -12.8160    8.9249   -2.9582 C   0  0  0  0  0  0  0  0  0  0  0  0
  -11.9795    9.5033   -3.8863 C   0  0  0  0  0  0  0  0  0  0  0  0
  -10.5616    9.2271   -4.1038 C   0  0  0  0  0  0  0  0  0  0  0  0
   -9.7347   10.1652   -4.6894 C   0  0  0  0  0  0  0  0  0  0  0  0
   -8.3929    9.9152   -4.8995 C   0  0  0  0  0  0  0  0  0  0  0  0
   -7.8180    8.7054   -4.5289 C   0  0  0  0  0  0  0  0  0  0  0  0
   -8.6413    7.7725   -3.9463 C   0  0  0  0  0  0  0  0  0  0  0  0
   -9.9917    8.0267   -3.7361 C   0  0  0  0  0  0  0  0  0  0  0  0
  -14.0607    9.4715   -3.0975 N   0  0  0  0  0  0  0  0  0  0  0  0
  -12.7629   10.3718   -4.5406 N   0  0  0  0  0  0  0  0  0  0  0  0
  -13.9906   10.3513   -4.0734 N   0  0  0  0  0  0  0  0  0  0  0  0
  -14.0864   10.4705   -0.6835 O   0  0  0  0  0  0  0  0  0  0  0  0
  -16.6594   13.3274   -1.0337 O   0  0  0  0  0  0  0  0  0  0  0  0
  -17.5761   10.5546   -1.3695 O   0  0  0  0  0  0  0  0  0  0  0  0
  -22.2855    9.5975   -2.6104 O   0  0  0  0  0  0  0  0  0  0  0  0
  -23.9341    7.9026   -0.8117 O   0  0  0  0  0  0  0  0  0  0  0  0
  -21.3953    8.3912    1.4353 O   0  0  0  0  0  0  0  0  0  0  0  0
  -20.0037    4.5091   -0.2447 O   0  0  0  0  0  0  0  0  0  0  0  0
  -20.2038    7.0789   -1.3013 O   0  0  0  0  0  0  0  0  0  0  0  0
  -16.6583    8.1990   -3.9212 O   0  0  0  0  0  0  0  0  0  0  0  0
  -19.2781    9.1106   -2.6966 S   0  0  0  0  0  0  0  0  0  0  0  0
  1  2  1  0
 12  1  1  0
  1 24  1  6
  2  3  1  6
  2 26  1  0
  3 25  1  0
 11  4  1  0
  4 26  1  0
  4 33  1  6
  5  6  1  0
  5 31  1  0
  5 33  1  6
  6  7  1  0
  6 27  1  1
  7  8  1  0
  7 28  1  6
  9  8  1  0
  8 29  1  1
  9 10  1  6
 31  9  1  0
 10 30  1  0
 12 11  1  0
 11 32  1  6
 12 21  1  6
 13 14  2  0
 13 21  1  0
 14 15  1  0
 14 22  1  0
 15 16  2  0
 15 20  1  0
 16 17  1  0
 17 18  2  0
 18 19  1  0
 19 20  2  0
 21 23  1  0
 22 23  2  0
M  END
$$$$
