
     RDKit          3D

 33 36  0  0  0  0  0  0  0  0999 V2000
  -18.3504    7.2436   -1.2234 C   0  0  1  0  0  0  0  0  0  0  0  0
  -19.7840    7.0334   -1.6571 C   0  0  1  0  0  0  0  0  0  0  0  0
  -20.5844    6.5987   -0.4575 C   0  0  0  0  0  0  0  0  0  0  0  0
  -20.0494    9.3274   -2.0560 C   0  0  1  0  0  0  0  0  0  0  0  0
  -22.9392    9.9348   -1.4723 C   0  0  1  0  0  0  0  0  0  0  0  0
  -23.9261    9.9476   -0.3538 C   0  0  1  0  0  0  0  0  0  0  0  0
  -25.3046   10.2656   -0.8361 C   0  0  2  0  0  0  0  0  0  0  0  0
  -25.3908   11.3960   -1.8105 C   0  0  1  0  0  0  0  0  0  0  0  0
  -24.3533   11.1011   -2.9017 C   0  0  1  0  0  0  0  0  0  0  0  0
  -24.3014   12.2271   -3.9182 C   0  0  0  0  0  0  0  0  0  0  0  0
  -18.6052    9.5998   -1.6333 C   0  0  1  0  0  0  0  0  0  0  0  0
  -17.8186    8.3995   -2.0812 C   0  0  1  0  0  0  0  0  0  0  0  0
  -15.4543    8.6613   -2.8880 C   0  0  0  0  0  0  0  0  0  0  0  0
  -14.2010    8.7628   -2.3207 C   0  0  0  0  0  0  0  0  0  0  0  0
  -12.9081    8.9160   -2.9816 C   0  0  0  0  0  0  0  0  0  0  0  0
  -11.7420    8.5741   -2.3330 C   0  0  0  0  0  0  0  0  0  0  0  0
  -10.5097    8.7188   -2.9609 C   0  0  0  0  0  0  0  0  0  0  0  0
  -10.4021    9.2061   -4.2472 C   0  0  0  0  0  0  0  0  0  0  0  0
  -11.5716    9.5484   -4.8959 C   0  0  0  0  0  0  0  0  0  0  0  0
  -12.8044    9.4028   -4.2658 C   0  0  0  0  0  0  0  0  0  0  0  0
  -16.3898    8.5326   -1.9289 N   0  0  0  0  0  0  0  0  0  0  0  0
  -14.4201    8.6905   -0.9956 N   0  0  0  0  0  0  0  0  0  0  0  0
  -15.7367    8.5529   -0.7823 N   0  0  0  0  0  0  0  0  0  0  0  0
  -18.3093    7.6365    0.1084 O   0  0  0  0  0  0  0  0  0  0  0  0
  -21.8351    6.1230   -0.7440 O   0  0  0  0  0  0  0  0  0  0  0  0
  -20.3138    8.0416   -2.3837 O   0  0  0  0  0  0  0  0  0  0  0  0
  -23.9882    8.7307    0.3285 O   0  0  0  0  0  0  0  0  0  0  0  0
  -26.1536   10.5162    0.2585 O   0  0  0  0  0  0  0  0  0  0  0  0
  -26.6740   11.4515   -2.3230 O   0  0  0  0  0  0  0  0  0  0  0  0
  -23.6080   13.2892   -3.3820 O   0  0  0  0  0  0  0  0  0  0  0  0
  -23.1369   11.0661   -2.2614 O   0  0  0  0  0  0  0  0  0  0  0  0
  -18.1258   10.7938   -2.1719 O   0  0  0  0  0  0  0  0  0  0  0  0
  -21.2258   10.0357   -0.8753 S   0  0  0  0  0  0  0  0  0  0  0  0
  1  2  1  0
 12  1  1  0
  1 24  1  1
  2  3  1  0
  2 26  1  1
  3 25  1  6
 11  4  1  0
  4 26  1  0
  4 33  1  1
  5  6  1  0
  5 31  1  0
  5 33  1  1
  6  7  1  0
  6 27  1  6
  7  8  1  0
  7 28  1  1
  9  8  1  0
  8 29  1  6
  9 10  1  0
  9 31  1  1
 10 30  1  6
 12 11  1  0
 11 32  1  6
 12 21  1  1
 13 14  2  0
 13 21  1  0
 14 15  1  0
 14 22  1  0
 15 16  2  0
 15 20  1  0
 16 17  1  0
 17 18  2  0
 18 19  1  0
 19 20  2  0
 21 23  1  0
 22 23  2  0
M  END
$$$$
