
     RDKit          3D

 33 36  0  0  0  0  0  0  0  0999 V2000
  -25.3964    9.4745   -0.3150 C   0  0  1  0  0  0  0  0  0  0  0  0
  -25.0938    9.4473   -1.7629 C   0  0  1  0  0  0  0  0  0  0  0  0
  -25.8779   10.4291   -2.6074 C   0  0  0  0  0  0  0  0  0  0  0  0
  -22.9197    9.9052   -1.0398 C   0  0  1  0  0  0  0  0  0  0  0  0
  -20.1955    8.6449   -1.4977 C   0  0  1  0  0  0  0  0  0  0  0  0
  -18.8991    8.6122   -2.2365 C   0  0  1  0  0  0  0  0  0  0  0  0
  -18.5568    7.1127   -2.3748 C   0  0  2  0  0  0  0  0  0  0  0  0
  -19.0656    6.2992   -1.2336 C   0  0  1  0  0  0  0  0  0  0  0  0
  -19.4640    7.0238   -0.0199 C   0  0  1  0  0  0  0  0  0  0  0  0
  -18.3864    6.9900    1.0595 C   0  0  0  0  0  0  0  0  0  0  0  0
  -23.4973   11.0789   -0.3374 C   0  0  1  0  0  0  0  0  0  0  0  0
  -24.7114   10.5417    0.4480 C   0  0  1  0  0  0  0  0  0  0  0  0
  -26.2302   11.7030    2.0748 C   0  0  0  0  0  0  0  0  0  0  0  0
  -26.9899   12.8511    2.0594 C   0  0  0  0  0  0  0  0  0  0  0  0
  -27.8299   13.3794    3.1315 C   0  0  0  0  0  0  0  0  0  0  0  0
  -28.3633   14.6509    3.0578 C   0  0  0  0  0  0  0  0  0  0  0  0
  -29.1590   15.1605    4.0648 C   0  0  0  0  0  0  0  0  0  0  0  0
  -29.4566   14.4120    5.1974 C   0  0  0  0  0  0  0  0  0  0  0  0
  -28.9256   13.1469    5.2701 C   0  0  0  0  0  0  0  0  0  0  0  0
  -28.1249   12.6365    4.2549 C   0  0  0  0  0  0  0  0  0  0  0  0
  -25.6006   11.5845    0.8677 N   0  0  0  0  0  0  0  0  0  0  0  0
  -26.7804   13.3691    0.8413 N   0  0  0  0  0  0  0  0  0  0  0  0
  -25.9602   12.6199    0.1398 N   0  0  0  0  0  0  0  0  0  0  0  0
  -26.7880    9.4992   -0.1656 O   0  0  0  0  0  0  0  0  0  0  0  0
  -25.9595    9.9089   -3.9226 O   0  0  0  0  0  0  0  0  0  0  0  0
  -23.7655    9.4177   -2.0400 O   0  0  0  0  0  0  0  0  0  0  0  0
  -18.9647    9.2025   -3.4579 O   0  0  0  0  0  0  0  0  0  0  0  0
  -17.1903    6.9796   -2.5999 O   0  0  0  0  0  0  0  0  0  0  0  0
  -20.1088    5.4462   -1.6699 O   0  0  0  0  0  0  0  0  0  0  0  0
  -19.0726    6.7681    2.2684 O   0  0  0  0  0  0  0  0  0  0  0  0
  -19.8534    8.3279   -0.1661 O   0  0  0  0  0  0  0  0  0  0  0  0
  -22.6036   11.5307    0.6224 O   0  0  0  0  0  0  0  0  0  0  0  0
  -21.2684    9.9988   -1.6281 S   0  0  0  0  0  0  0  0  0  0  0  0
  1  2  1  0
 12  1  1  0
  1 24  1  6
  2  3  1  6
  2 26  1  0
  3 25  1  0
 11  4  1  0
  4 26  1  0
  4 33  1  6
  5  6  1  0
  5 31  1  0
  5 33  1  1
  6  7  1  0
  6 27  1  6
  7  8  1  0
  7 28  1  1
  9  8  1  0
  8 29  1  6
  9 10  1  1
 31  9  1  0
 10 30  1  0
 12 11  1  0
 11 32  1  1
 12 21  1  6
 13 14  2  0
 13 21  1  0
 14 15  1  0
 14 22  1  0
 15 16  2  0
 15 20  1  0
 16 17  1  0
 17 18  2  0
 18 19  1  0
 19 20  2  0
 21 23  1  0
 22 23  2  0
M  END
$$$$
