
     RDKit          3D

 33 36  0  0  0  0  0  0  0  0999 V2000
  -18.2864    6.8088   -1.8834 C   0  0  1  0  0  0  0  0  0  0  0  0
  -19.6179    6.7777   -1.2392 C   0  0  1  0  0  0  0  0  0  0  0  0
  -19.6058    6.7872    0.2746 C   0  0  0  0  0  0  0  0  0  0  0  0
  -19.9626    8.7266   -2.4812 C   0  0  1  0  0  0  0  0  0  0  0  0
  -22.7648    9.8475   -2.1485 C   0  0  1  0  0  0  0  0  0  0  0  0
  -23.1715   10.9631   -1.2443 C   0  0  1  0  0  0  0  0  0  0  0  0
  -24.2274   10.3467   -0.3009 C   0  0  2  0  0  0  0  0  0  0  0  0
  -25.0179    9.2632   -0.9522 C   0  0  1  0  0  0  0  0  0  0  0  0
  -24.9632    9.1829   -2.4176 C   0  0  1  0  0  0  0  0  0  0  0  0
  -26.1822    9.8154   -3.0820 C   0  0  0  0  0  0  0  0  0  0  0  0
  -18.7387    9.2528   -1.8257 C   0  0  1  0  0  0  0  0  0  0  0  0
  -17.6710    8.1509   -1.9850 C   0  0  1  0  0  0  0  0  0  0  0  0
  -15.2356    8.1707   -1.3766 C   0  0  0  0  0  0  0  0  0  0  0  0
  -14.5119    8.4346   -0.2354 C   0  0  0  0  0  0  0  0  0  0  0  0
  -13.0609    8.3955   -0.0703 C   0  0  0  0  0  0  0  0  0  0  0  0
  -12.2252    8.2138   -1.1545 C   0  0  0  0  0  0  0  0  0  0  0  0
  -10.8523    8.1758   -1.0104 C   0  0  0  0  0  0  0  0  0  0  0  0
  -10.2537    8.3193    0.2356 C   0  0  0  0  0  0  0  0  0  0  0  0
  -11.0858    8.5001    1.3138 C   0  0  0  0  0  0  0  0  0  0  0  0
  -12.4674    8.5380    1.1659 C   0  0  0  0  0  0  0  0  0  0  0  0
  -16.5634    8.3246   -1.0921 N   0  0  0  0  0  0  0  0  0  0  0  0
  -15.4410    8.7351    0.6825 N   0  0  0  0  0  0  0  0  0  0  0  0
  -16.6509    8.6695    0.1746 N   0  0  0  0  0  0  0  0  0  0  0  0
  -17.4697    5.8781   -1.2305 O   0  0  0  0  0  0  0  0  0  0  0  0
  -20.7723    6.1223    0.7267 O   0  0  0  0  0  0  0  0  0  0  0  0
  -20.5084    7.6412   -1.7902 O   0  0  0  0  0  0  0  0  0  0  0  0
  -22.1364   11.4786   -0.5321 O   0  0  0  0  0  0  0  0  0  0  0  0
  -25.0036   11.3679    0.2380 O   0  0  0  0  0  0  0  0  0  0  0  0
  -24.6989    8.0110   -0.3722 O   0  0  0  0  0  0  0  0  0  0  0  0
  -26.4511    9.0177   -4.2104 O   0  0  0  0  0  0  0  0  0  0  0  0
  -23.8526    9.6933   -3.0338 O   0  0  0  0  0  0  0  0  0  0  0  0
  -18.2606   10.3404   -2.5416 O   0  0  0  0  0  0  0  0  0  0  0  0
  -21.2262    9.8536   -2.9447 S   0  0  0  0  0  0  0  0  0  0  0  0
  1  2  1  0
 12  1  1  0
  1 24  1  1
  2  3  1  1
  2 26  1  0
  3 25  1  0
 11  4  1  0
  4 26  1  0
  4 33  1  1
  5  6  1  0
  5 31  1  0
  5 33  1  6
  6  7  1  0
  6 27  1  1
  7  8  1  0
  7 28  1  6
  9  8  1  0
  8 29  1  1
  9 10  1  6
 31  9  1  0
 10 30  1  0
 12 11  1  0
 11 32  1  6
 12 21  1  1
 13 14  2  0
 13 21  1  0
 14 15  1  0
 14 22  1  0
 15 16  2  0
 15 20  1  0
 16 17  1  0
 17 18  2  0
 18 19  1  0
 19 20  2  0
 21 23  1  0
 22 23  2  0
M  END
$$$$
