
     RDKit          3D

 33 36  0  0  0  0  0  0  0  0999 V2000
  -24.6988   12.1831   -2.2271 C   0  0  1  0  0  0  0  0  0  0  0  0
  -23.5529   12.0524   -3.2056 C   0  0  1  0  0  0  0  0  0  0  0  0
  -22.5843   13.1785   -2.9561 C   0  0  0  0  0  0  0  0  0  0  0  0
  -22.8303   10.0790   -2.1685 C   0  0  1  0  0  0  0  0  0  0  0  0
  -20.0228    9.0531   -1.8129 C   0  0  1  0  0  0  0  0  0  0  0  0
  -18.6176    9.4841   -1.5583 C   0  0  1  0  0  0  0  0  0  0  0  0
  -17.6782    8.3217   -1.5349 C   0  0  2  0  0  0  0  0  0  0  0  0
  -18.1581    7.1337   -0.7648 C   0  0  1  0  0  0  0  0  0  0  0  0
  -19.5748    6.8369   -1.2739 C   0  0  1  0  0  0  0  0  0  0  0  0
  -20.1950    5.6829   -0.5073 C   0  0  0  0  0  0  0  0  0  0  0  0
  -23.9731   10.1561   -1.1552 C   0  0  1  0  0  0  0  0  0  0  0  0
  -25.1362   10.7489   -1.9005 C   0  0  1  0  0  0  0  0  0  0  0  0
  -27.4786   10.0056   -1.3810 C   0  0  0  0  0  0  0  0  0  0  0  0
  -28.4491   10.3090   -0.4489 C   0  0  0  0  0  0  0  0  0  0  0  0
  -29.7894    9.7472   -0.3087 C   0  0  0  0  0  0  0  0  0  0  0  0
  -30.6553   10.2246    0.6504 C   0  0  0  0  0  0  0  0  0  0  0  0
  -31.9324    9.6912    0.7853 C   0  0  0  0  0  0  0  0  0  0  0  0
  -32.3834    8.6711   -0.0268 C   0  0  0  0  0  0  0  0  0  0  0  0
  -31.5147    8.1936   -0.9875 C   0  0  0  0  0  0  0  0  0  0  0  0
  -30.2366    8.7289   -1.1212 C   0  0  0  0  0  0  0  0  0  0  0  0
  -26.3777   10.7491   -1.1650 N   0  0  0  0  0  0  0  0  0  0  0  0
  -27.8916   11.2554    0.3275 N   0  0  0  0  0  0  0  0  0  0  0  0
  -26.6518   11.5044   -0.1180 N   0  0  0  0  0  0  0  0  0  0  0  0
  -24.2561   12.7801   -1.0535 O   0  0  0  0  0  0  0  0  0  0  0  0
  -21.4741   13.1683   -3.7560 O   0  0  0  0  0  0  0  0  0  0  0  0
  -23.0109   10.8176   -3.2876 O   0  0  0  0  0  0  0  0  0  0  0  0
  -18.1464   10.3881   -2.5128 O   0  0  0  0  0  0  0  0  0  0  0  0
  -16.4206    8.7266   -1.0489 O   0  0  0  0  0  0  0  0  0  0  0  0
  -17.2986    6.0742   -0.9903 O   0  0  0  0  0  0  0  0  0  0  0  0
  -21.0820    6.1809    0.4209 O   0  0  0  0  0  0  0  0  0  0  0  0
  -20.3149    7.9621   -0.9968 O   0  0  0  0  0  0  0  0  0  0  0  0
  -24.2613    8.9069   -0.6058 O   0  0  0  0  0  0  0  0  0  0  0  0
  -21.2252   10.3425   -1.3721 S   0  0  0  0  0  0  0  0  0  0  0  0
  1  2  1  0
 12  1  1  0
  1 24  1  1
  2  3  1  0
  2 26  1  1
  3 25  1  6
 11  4  1  0
  4 26  1  0
  4 33  1  1
  5  6  1  0
  5 31  1  0
  5 33  1  1
  6  7  1  0
  6 27  1  6
  7  8  1  0
  7 28  1  1
  9  8  1  0
  8 29  1  6
  9 10  1  0
  9 31  1  1
 10 30  1  6
 12 11  1  0
 11 32  1  6
 12 21  1  1
 13 14  2  0
 13 21  1  0
 14 15  1  0
 14 22  1  0
 15 16  2  0
 15 20  1  0
 16 17  1  0
 17 18  2  0
 18 19  1  0
 19 20  2  0
 21 23  1  0
 22 23  2  0
M  END
$$$$
