
     RDKit          3D

 33 36  0  0  0  0  0  0  0  0999 V2000
  -18.5710   12.9390   -1.5524 C   0  0  1  0  0  0  0  0  0  0  0  0
  -19.7688   12.7950   -2.4088 C   0  0  1  0  0  0  0  0  0  0  0  0
  -19.7650   13.6269   -3.6736 C   0  0  0  0  0  0  0  0  0  0  0  0
  -19.1575   10.5398   -2.4152 C   0  0  1  0  0  0  0  0  0  0  0  0
  -20.0873    7.7337   -1.7217 C   0  0  1  0  0  0  0  0  0  0  0  0
  -20.9432    6.5575   -2.0554 C   0  0  1  0  0  0  0  0  0  0  0  0
  -21.5004    6.0724   -0.6992 C   0  0  2  0  0  0  0  0  0  0  0  0
  -20.5611    6.3231    0.4312 C   0  0  1  0  0  0  0  0  0  0  0  0
  -19.1659    6.6270    0.0875 C   0  0  1  0  0  0  0  0  0  0  0  0
  -18.2533    5.4125    0.2275 C   0  0  0  0  0  0  0  0  0  0  0  0
  -17.8342   10.9932   -2.9132 C   0  0  1  0  0  0  0  0  0  0  0  0
  -17.4010   12.1356   -1.9717 C   0  0  1  0  0  0  0  0  0  0  0  0
  -15.1825   13.3089   -1.9141 C   0  0  0  0  0  0  0  0  0  0  0  0
  -14.4518   14.0692   -2.7993 C   0  0  0  0  0  0  0  0  0  0  0  0
  -13.1438   14.6821   -2.5807 C   0  0  0  0  0  0  0  0  0  0  0  0
  -12.4385   14.4592   -1.4147 C   0  0  0  0  0  0  0  0  0  0  0  0
  -11.2012   15.0328   -1.1975 C   0  0  0  0  0  0  0  0  0  0  0  0
  -10.6134   15.8604   -2.1466 C   0  0  0  0  0  0  0  0  0  0  0  0
  -11.3157   16.0819   -3.3066 C   0  0  0  0  0  0  0  0  0  0  0  0
  -12.5610   15.5032   -3.5226 C   0  0  0  0  0  0  0  0  0  0  0  0
  -16.3465   12.9340   -2.5240 N   0  0  0  0  0  0  0  0  0  0  0  0
  -15.2130   14.1151   -3.9014 N   0  0  0  0  0  0  0  0  0  0  0  0
  -16.3306   13.4445   -3.7365 N   0  0  0  0  0  0  0  0  0  0  0  0
  -18.2863   14.3046   -1.4355 O   0  0  0  0  0  0  0  0  0  0  0  0
  -21.1091   13.9296   -4.0035 O   0  0  0  0  0  0  0  0  0  0  0  0
  -20.1509   11.5061   -2.5963 O   0  0  0  0  0  0  0  0  0  0  0  0
  -21.9561    6.8581   -2.9088 O   0  0  0  0  0  0  0  0  0  0  0  0
  -21.8967    4.7444   -0.8220 O   0  0  0  0  0  0  0  0  0  0  0  0
  -21.0895    7.3151    1.2931 O   0  0  0  0  0  0  0  0  0  0  0  0
  -17.0931    5.8865    0.8687 O   0  0  0  0  0  0  0  0  0  0  0  0
  -18.9274    7.1762   -1.1434 O   0  0  0  0  0  0  0  0  0  0  0  0
  -16.8996    9.9849   -2.7295 O   0  0  0  0  0  0  0  0  0  0  0  0
  -19.7478    8.9588   -2.8986 S   0  0  0  0  0  0  0  0  0  0  0  0
  1  2  1  0
 12  1  1  0
  1 24  1  6
  2  3  1  6
  2 26  1  0
  3 25  1  0
 11  4  1  0
  4 26  1  0
  4 33  1  6
  5  6  1  0
  5 31  1  0
  5 33  1  6
  6  7  1  0
  6 27  1  6
  7  8  1  0
  7 28  1  6
  9  8  1  0
  8 29  1  6
  9 10  1  6
 31  9  1  0
 10 30  1  0
 12 11  1  0
 11 32  1  1
 12 21  1  6
 13 14  2  0
 13 21  1  0
 14 15  1  0
 14 22  1  0
 15 16  2  0
 15 20  1  0
 16 17  1  0
 17 18  2  0
 18 19  1  0
 19 20  2  0
 21 23  1  0
 22 23  2  0
M  END
$$$$
