
     RDKit          3D

 33 36  0  0  0  0  0  0  0  0999 V2000
  -25.4606    9.3791   -1.2851 C   0  0  1  0  0  0  0  0  0  0  0  0
  -24.7235   10.2838   -2.1943 C   0  0  1  0  0  0  0  0  0  0  0  0
  -25.2865   11.6842   -2.3118 C   0  0  0  0  0  0  0  0  0  0  0  0
  -22.9262    9.7923   -0.7844 C   0  0  1  0  0  0  0  0  0  0  0  0
  -20.1055    8.6869   -0.9872 C   0  0  1  0  0  0  0  0  0  0  0  0
  -18.7873    8.9216   -1.6467 C   0  0  1  0  0  0  0  0  0  0  0  0
  -18.4257    7.5727   -2.3061 C   0  0  2  0  0  0  0  0  0  0  0  0
  -18.9601    6.4026   -1.5521 C   0  0  1  0  0  0  0  0  0  0  0  0
  -19.4020    6.6406   -0.1719 C   0  0  1  0  0  0  0  0  0  0  0  0
  -18.3568    6.2178    0.8558 C   0  0  0  0  0  0  0  0  0  0  0  0
  -23.7886   10.2617    0.3293 C   0  0  1  0  0  0  0  0  0  0  0  0
  -25.1370    9.5341    0.1507 C   0  0  1  0  0  0  0  0  0  0  0  0
  -27.1258    9.5253    1.6825 C   0  0  0  0  0  0  0  0  0  0  0  0
  -27.9569   10.4844    2.2163 C   0  0  0  0  0  0  0  0  0  0  0  0
  -29.0912   10.2822    3.1144 C   0  0  0  0  0  0  0  0  0  0  0  0
  -29.5819    9.0167    3.3686 C   0  0  0  0  0  0  0  0  0  0  0  0
  -30.6531    8.8136    4.2161 C   0  0  0  0  0  0  0  0  0  0  0  0
  -31.2832    9.8779    4.8499 C   0  0  0  0  0  0  0  0  0  0  0  0
  -30.7945   11.1367    4.5965 C   0  0  0  0  0  0  0  0  0  0  0  0
  -29.7161   11.3383    3.7429 C   0  0  0  0  0  0  0  0  0  0  0  0
  -26.1961   10.1469    0.8972 N   0  0  0  0  0  0  0  0  0  0  0  0
  -27.4863   11.6391    1.7252 N   0  0  0  0  0  0  0  0  0  0  0  0
  -26.4472   11.4375    0.9471 N   0  0  0  0  0  0  0  0  0  0  0  0
  -26.8271    9.5133   -1.5577 O   0  0  0  0  0  0  0  0  0  0  0  0
  -25.5023   11.9563   -3.6852 O   0  0  0  0  0  0  0  0  0  0  0  0
  -23.3770   10.2416   -2.0288 O   0  0  0  0  0  0  0  0  0  0  0  0
  -18.8224    9.9132   -2.5741 O   0  0  0  0  0  0  0  0  0  0  0  0
  -17.0519    7.5281   -2.5209 O   0  0  0  0  0  0  0  0  0  0  0  0
  -19.9811    5.7662   -2.2996 O   0  0  0  0  0  0  0  0  0  0  0  0
  -19.0337    5.3698    1.7528 O   0  0  0  0  0  0  0  0  0  0  0  0
  -19.8001    7.9100    0.1503 O   0  0  0  0  0  0  0  0  0  0  0  0
  -23.2768    9.8062    1.5354 O   0  0  0  0  0  0  0  0  0  0  0  0
  -21.1877    9.9979   -0.6538 S   0  0  0  0  0  0  0  0  0  0  0  0
  1  2  1  0
 12  1  1  0
  1 24  1  1
  2  3  1  1
  2 26  1  0
  3 25  1  0
 11  4  1  0
  4 26  1  0
  4 33  1  1
  5  6  1  0
  5 31  1  0
  5 33  1  1
  6  7  1  0
  6 27  1  6
  7  8  1  0
  7 28  1  1
  9  8  1  0
  8 29  1  6
  9 10  1  1
 31  9  1  0
 10 30  1  0
 12 11  1  0
 11 32  1  1
 12 21  1  1
 13 14  2  0
 13 21  1  0
 14 15  1  0
 14 22  1  0
 15 16  2  0
 15 20  1  0
 16 17  1  0
 17 18  2  0
 18 19  1  0
 19 20  2  0
 21 23  1  0
 22 23  2  0
M  END
$$$$
