
     RDKit          3D

 33 36  0  0  0  0  0  0  0  0999 V2000
  -25.1093   10.9245   -2.2069 C   0  0  1  0  0  0  0  0  0  0  0  0
  -24.1602   10.1907   -3.1279 C   0  0  1  0  0  0  0  0  0  0  0  0
  -23.2750   11.2047   -3.8038 C   0  0  0  0  0  0  0  0  0  0  0  0
  -23.0691    9.2107   -1.3000 C   0  0  1  0  0  0  0  0  0  0  0  0
  -20.1462    8.6103   -1.6959 C   0  0  1  0  0  0  0  0  0  0  0  0
  -18.7498    9.1163   -1.5567 C   0  0  1  0  0  0  0  0  0  0  0  0
  -17.7518    8.0044   -1.5992 C   0  0  2  0  0  0  0  0  0  0  0  0
  -18.1066    6.8021   -0.7848 C   0  0  1  0  0  0  0  0  0  0  0  0
  -19.5414    6.4265   -1.1777 C   0  0  1  0  0  0  0  0  0  0  0  0
  -20.0378    5.2510   -0.3559 C   0  0  0  0  0  0  0  0  0  0  0  0
  -24.0035    9.9224   -0.3207 C   0  0  1  0  0  0  0  0  0  0  0  0
  -25.3374    9.9909   -1.0105 C   0  0  1  0  0  0  0  0  0  0  0  0
  -27.5004    9.8151    0.2543 C   0  0  0  0  0  0  0  0  0  0  0  0
  -28.2862   10.6442    1.0278 C   0  0  0  0  0  0  0  0  0  0  0  0
  -29.5479   10.3438    1.6982 C   0  0  0  0  0  0  0  0  0  0  0  0
  -30.1160    9.0928    1.6001 C   0  0  0  0  0  0  0  0  0  0  0  0
  -31.3174    8.8046    2.2383 C   0  0  0  0  0  0  0  0  0  0  0  0
  -31.9861    9.7490    2.9896 C   0  0  0  0  0  0  0  0  0  0  0  0
  -31.4157   11.0023    3.0870 C   0  0  0  0  0  0  0  0  0  0  0  0
  -30.2128   11.2890    2.4476 C   0  0  0  0  0  0  0  0  0  0  0  0
  -26.4130   10.4781   -0.1809 N   0  0  0  0  0  0  0  0  0  0  0  0
  -27.6327   11.8197    1.0389 N   0  0  0  0  0  0  0  0  0  0  0  0
  -26.5141   11.6991    0.3095 N   0  0  0  0  0  0  0  0  0  0  0  0
  -24.5139   12.0899   -1.7410 O   0  0  0  0  0  0  0  0  0  0  0  0
  -23.6545   11.5410   -5.0748 O   0  0  0  0  0  0  0  0  0  0  0  0
  -23.5268    9.1353   -2.5710 O   0  0  0  0  0  0  0  0  0  0  0  0
  -18.4033   10.0324   -2.5522 O   0  0  0  0  0  0  0  0  0  0  0  0
  -16.4828    8.4794   -1.2174 O   0  0  0  0  0  0  0  0  0  0  0  0
  -17.2130    5.7859   -1.0699 O   0  0  0  0  0  0  0  0  0  0  0  0
  -20.7891    5.7208    0.6982 O   0  0  0  0  0  0  0  0  0  0  0  0
  -20.3154    7.5151   -0.8512 O   0  0  0  0  0  0  0  0  0  0  0  0
  -24.0618    9.2650    0.9081 O   0  0  0  0  0  0  0  0  0  0  0  0
  -21.3761    9.8407   -1.1708 S   0  0  0  0  0  0  0  0  0  0  0  0
  1  2  1  0
 12  1  1  0
  1 24  1  1
  2  3  1  0
  2 26  1  1
  3 25  1  6
 11  4  1  0
  4 26  1  0
  4 33  1  6
  5  6  1  0
  5 31  1  0
  5 33  1  1
  6  7  1  0
  6 27  1  6
  7  8  1  0
  7 28  1  1
  9  8  1  0
  8 29  1  6
  9 10  1  0
  9 31  1  1
 10 30  1  6
 12 11  1  0
 11 32  1  1
 12 21  1  1
 13 14  2  0
 13 21  1  0
 14 15  1  0
 14 22  1  0
 15 16  2  0
 15 20  1  0
 16 17  1  0
 17 18  2  0
 18 19  1  0
 19 20  2  0
 21 23  1  0
 22 23  2  0
M  END
$$$$
