
     RDKit          3D

 33 36  0  0  0  0  0  0  0  0999 V2000
  -16.5574   11.5953   -3.4231 C   0  0  1  0  0  0  0  0  0  0  0  0
  -17.9973   11.8636   -3.0457 C   0  0  1  0  0  0  0  0  0  0  0  0
  -18.8360   11.7983   -4.2951 C   0  0  0  0  0  0  0  0  0  0  0  0
  -18.1096    9.8490   -1.8538 C   0  0  1  0  0  0  0  0  0  0  0  0
  -20.5938    8.1734   -1.5673 C   0  0  1  0  0  0  0  0  0  0  0  0
  -21.8747    7.9643   -2.3027 C   0  0  1  0  0  0  0  0  0  0  0  0
  -22.8490    7.1638   -1.5002 C   0  0  2  0  0  0  0  0  0  0  0  0
  -22.2738    5.9662   -0.8149 C   0  0  1  0  0  0  0  0  0  0  0  0
  -21.0329    6.4597   -0.0594 C   0  0  1  0  0  0  0  0  0  0  0  0
  -20.3203    5.3064    0.6232 C   0  0  0  0  0  0  0  0  0  0  0  0
  -16.6551    9.5272   -2.1992 C   0  0  1  0  0  0  0  0  0  0  0  0
  -15.9434   10.8511   -2.2298 C   0  0  1  0  0  0  0  0  0  0  0  0
  -13.5622   10.9525   -1.4370 C   0  0  0  0  0  0  0  0  0  0  0  0
  -12.3095   10.7588   -1.9811 C   0  0  0  0  0  0  0  0  0  0  0  0
  -11.0051   10.8672   -1.3340 C   0  0  0  0  0  0  0  0  0  0  0  0
  -10.8950   10.8216    0.0383 C   0  0  0  0  0  0  0  0  0  0  0  0
   -9.6536   10.9242    0.6565 C   0  0  0  0  0  0  0  0  0  0  0  0
   -8.4902   11.0746   -0.0698 C   0  0  0  0  0  0  0  0  0  0  0  0
   -8.6021   11.1201   -1.4449 C   0  0  0  0  0  0  0  0  0  0  0  0
   -9.8456   11.0171   -2.0621 C   0  0  0  0  0  0  0  0  0  0  0  0
  -14.5107   10.7543   -2.3712 N   0  0  0  0  0  0  0  0  0  0  0  0
  -12.5422   10.4397   -3.2668 N   0  0  0  0  0  0  0  0  0  0  0  0
  -13.8660   10.4426   -3.4798 N   0  0  0  0  0  0  0  0  0  0  0  0
  -16.5042   10.7588   -4.5308 O   0  0  0  0  0  0  0  0  0  0  0  0
  -20.1658   12.0609   -4.1079 O   0  0  0  0  0  0  0  0  0  0  0  0
  -18.4534   11.1501   -1.9931 O   0  0  0  0  0  0  0  0  0  0  0  0
  -22.5006    9.1626   -2.6530 O   0  0  0  0  0  0  0  0  0  0  0  0
  -23.9344    6.7738   -2.3072 O   0  0  0  0  0  0  0  0  0  0  0  0
  -23.2222    5.4400    0.0429 O   0  0  0  0  0  0  0  0  0  0  0  0
  -19.2703    4.8926   -0.1657 O   0  0  0  0  0  0  0  0  0  0  0  0
  -20.1847    6.9592   -1.0196 O   0  0  0  0  0  0  0  0  0  0  0  0
  -16.0941    8.6312   -1.2893 O   0  0  0  0  0  0  0  0  0  0  0  0
  -19.2494    8.7021   -2.6697 S   0  0  0  0  0  0  0  0  0  0  0  0
  1  2  1  0
 12  1  1  0
  1 24  1  6
  2  3  1  0
  2 26  1  1
  3 25  1  6
 11  4  1  0
  4 26  1  0
  4 33  1  6
  5  6  1  0
  5 31  1  0
  5 33  1  6
  6  7  1  0
  6 27  1  1
  7  8  1  0
  7 28  1  6
  9  8  1  0
  8 29  1  1
  9 10  1  0
  9 31  1  6
 10 30  1  6
 12 11  1  0
 11 32  1  1
 12 21  1  6
 13 14  2  0
 13 21  1  0
 14 15  1  0
 14 22  1  0
 15 16  2  0
 15 20  1  0
 16 17  1  0
 17 18  2  0
 18 19  1  0
 19 20  2  0
 21 23  1  0
 22 23  2  0
M  END
$$$$
