
     RDKit          3D

 33 36  0  0  0  0  0  0  0  0999 V2000
  -16.4951   11.4965   -3.4829 C   0  0  1  0  0  0  0  0  0  0  0  0
  -17.9226   11.8463   -3.1258 C   0  0  1  0  0  0  0  0  0  0  0  0
  -18.7661   11.7267   -4.3679 C   0  0  0  0  0  0  0  0  0  0  0  0
  -18.1104    9.9258   -1.7961 C   0  0  1  0  0  0  0  0  0  0  0  0
  -20.4916    8.1494   -1.3108 C   0  0  1  0  0  0  0  0  0  0  0  0
  -21.8518    7.9719   -1.8969 C   0  0  1  0  0  0  0  0  0  0  0  0
  -22.7154    7.1056   -1.0380 C   0  0  2  0  0  0  0  0  0  0  0  0
  -22.0534    5.8731   -0.5116 C   0  0  1  0  0  0  0  0  0  0  0  0
  -20.7321    6.3324    0.1188 C   0  0  1  0  0  0  0  0  0  0  0  0
  -19.9343    5.1462    0.6289 C   0  0  0  0  0  0  0  0  0  0  0  0
  -16.6703    9.5242   -2.1176 C   0  0  1  0  0  0  0  0  0  0  0  0
  -15.9078   10.8140   -2.2403 C   0  0  1  0  0  0  0  0  0  0  0  0
  -13.5333   10.7565   -1.4231 C   0  0  0  0  0  0  0  0  0  0  0  0
  -12.2860   10.5262   -1.9653 C   0  0  0  0  0  0  0  0  0  0  0  0
  -10.9850   10.5371   -1.3026 C   0  0  0  0  0  0  0  0  0  0  0  0
   -9.8290   10.7325   -2.0259 C   0  0  0  0  0  0  0  0  0  0  0  0
   -8.5890   10.7436   -1.3966 C   0  0  0  0  0  0  0  0  0  0  0  0
   -8.4634   10.5614   -0.0347 C   0  0  0  0  0  0  0  0  0  0  0  0
   -9.6227   10.3657    0.6888 C   0  0  0  0  0  0  0  0  0  0  0  0
  -10.8632   10.3550    0.0571 C   0  0  0  0  0  0  0  0  0  0  0  0
  -14.4802   10.6519   -2.3739 N   0  0  0  0  0  0  0  0  0  0  0  0
  -12.5202   10.2818   -3.2670 N   0  0  0  0  0  0  0  0  0  0  0  0
  -13.8398   10.3618   -3.4909 N   0  0  0  0  0  0  0  0  0  0  0  0
  -16.4770   10.5832   -4.5295 O   0  0  0  0  0  0  0  0  0  0  0  0
  -19.4511   12.8615   -4.7078 O   0  0  0  0  0  0  0  0  0  0  0  0
  -18.4037   11.2264   -2.0261 O   0  0  0  0  0  0  0  0  0  0  0  0
  -22.5230    9.1820   -2.0855 O   0  0  0  0  0  0  0  0  0  0  0  0
  -23.8894    6.7552   -1.7313 O   0  0  0  0  0  0  0  0  0  0  0  0
  -22.8862    5.2770    0.4177 O   0  0  0  0  0  0  0  0  0  0  0  0
  -19.1231    5.5573    1.6629 O   0  0  0  0  0  0  0  0  0  0  0  0
  -20.0112    6.9071   -0.9014 O   0  0  0  0  0  0  0  0  0  0  0  0
  -16.1425    8.6728   -1.1471 O   0  0  0  0  0  0  0  0  0  0  0  0
  -19.2958    8.7700   -2.5303 S   0  0  0  0  0  0  0  0  0  0  0  0
  1  2  1  0
 12  1  1  0
  1 24  1  6
  2  3  1  0
  2 26  1  1
  3 25  1  6
 11  4  1  0
  4 26  1  0
  4 33  1  6
  5  6  1  0
  5 31  1  0
  5 33  1  6
  6  7  1  0
  6 27  1  1
  7  8  1  0
  7 28  1  6
  9  8  1  0
  8 29  1  1
  9 10  1  0
  9 31  1  6
 10 30  1  6
 12 11  1  0
 11 32  1  1
 12 21  1  6
 13 14  2  0
 13 21  1  0
 14 15  1  0
 14 22  1  0
 15 16  2  0
 15 20  1  0
 16 17  1  0
 17 18  2  0
 18 19  1  0
 19 20  2  0
 21 23  1  0
 22 23  2  0
M  END
$$$$
