
     RDKit          3D

 33 36  0  0  0  0  0  0  0  0999 V2000
  -25.2636   11.1447   -1.5747 C   0  0  1  0  0  0  0  0  0  0  0  0
  -24.4321   10.6416   -2.7335 C   0  0  1  0  0  0  0  0  0  0  0  0
  -23.6092   11.7877   -3.2607 C   0  0  0  0  0  0  0  0  0  0  0  0
  -23.1651    9.2895   -1.2988 C   0  0  1  0  0  0  0  0  0  0  0  0
  -20.2616    8.6166   -1.7206 C   0  0  1  0  0  0  0  0  0  0  0  0
  -18.8628    9.1346   -1.7355 C   0  0  1  0  0  0  0  0  0  0  0  0
  -17.8620    8.0245   -1.7510 C   0  0  2  0  0  0  0  0  0  0  0  0
  -18.1444    6.9026   -0.8044 C   0  0  1  0  0  0  0  0  0  0  0  0
  -19.6018    6.4908   -1.0505 C   0  0  1  0  0  0  0  0  0  0  0  0
  -20.0252    5.3960   -0.0883 C   0  0  0  0  0  0  0  0  0  0  0  0
  -23.9760    9.7582   -0.0900 C   0  0  1  0  0  0  0  0  0  0  0  0
  -25.3756    9.9670   -0.5972 C   0  0  1  0  0  0  0  0  0  0  0  0
  -27.2426    9.4129    0.9891 C   0  0  0  0  0  0  0  0  0  0  0  0
  -27.9869   10.0777    1.9415 C   0  0  0  0  0  0  0  0  0  0  0  0
  -29.0609    9.5625    2.7858 C   0  0  0  0  0  0  0  0  0  0  0  0
  -29.8358   10.4177    3.5379 C   0  0  0  0  0  0  0  0  0  0  0  0
  -30.8595    9.9292    4.3423 C   0  0  0  0  0  0  0  0  0  0  0  0
  -31.1409    8.5808    4.4216 C   0  0  0  0  0  0  0  0  0  0  0  0
  -30.3636    7.7249    3.6673 C   0  0  0  0  0  0  0  0  0  0  0  0
  -29.3393    8.2158    2.8625 C   0  0  0  0  0  0  0  0  0  0  0  0
  -26.3467   10.2488    0.4322 N   0  0  0  0  0  0  0  0  0  0  0  0
  -27.5063   11.3339    1.9335 N   0  0  0  0  0  0  0  0  0  0  0  0
  -26.5252   11.4153    1.0232 N   0  0  0  0  0  0  0  0  0  0  0  0
  -24.6024   12.1825   -0.9302 O   0  0  0  0  0  0  0  0  0  0  0  0
  -23.6254   11.9273   -4.6219 O   0  0  0  0  0  0  0  0  0  0  0  0
  -23.7592    9.4943   -2.4970 O   0  0  0  0  0  0  0  0  0  0  0  0
  -18.6000    9.9548   -2.8349 O   0  0  0  0  0  0  0  0  0  0  0  0
  -16.5716    8.5341   -1.5124 O   0  0  0  0  0  0  0  0  0  0  0  0
  -17.2669    5.8652   -1.0616 O   0  0  0  0  0  0  0  0  0  0  0  0
  -21.3530    5.0974   -0.2983 O   0  0  0  0  0  0  0  0  0  0  0  0
  -20.3576    7.6043   -0.7680 O   0  0  0  0  0  0  0  0  0  0  0  0
  -23.9112    8.8440    0.9614 O   0  0  0  0  0  0  0  0  0  0  0  0
  -21.4580    9.8892   -1.2193 S   0  0  0  0  0  0  0  0  0  0  0  0
  1  2  1  0
 12  1  1  0
  1 24  1  1
  2  3  1  0
  2 26  1  1
  3 25  1  6
 11  4  1  0
  4 26  1  0
  4 33  1  6
  5  6  1  0
  5 31  1  0
  5 33  1  1
  6  7  1  0
  6 27  1  6
  7  8  1  0
  7 28  1  1
  9  8  1  0
  8 29  1  6
  9 10  1  0
  9 31  1  1
 10 30  1  6
 12 11  1  0
 11 32  1  1
 12 21  1  1
 13 14  2  0
 13 21  1  0
 14 15  1  0
 14 22  1  0
 15 16  2  0
 15 20  1  0
 16 17  1  0
 17 18  2  0
 18 19  1  0
 19 20  2  0
 21 23  1  0
 22 23  2  0
M  END
$$$$
