
     RDKit          3D

 78 83  0  0  0  0  0  0  0  0999 V2000
  -54.3739  -27.1919   58.4186 C   0  0  0  0  0  0  0  0  0  0  0  0
  -55.0681  -26.6245   57.2385 C   0  0  1  0  0  0  0  0  0  0  0  0
  -54.4341  -25.3553   56.7502 C   0  0  0  0  0  0  0  0  0  0  0  0
  -52.9737  -25.6532   56.4711 C   0  0  1  0  0  0  0  0  0  0  0  0
  -52.9344  -26.6581   55.3389 C   0  0  2  0  0  0  0  0  0  0  0  0
  -53.7772  -27.8439   55.7282 C   0  0  2  0  0  0  0  0  0  0  0  0
  -53.8926  -28.7161   54.4957 C   0  0  1  0  0  0  0  0  0  0  0  0
  -54.8178  -29.9048   54.7307 C   0  0  1  0  0  0  0  0  0  0  0  0
  -54.8408  -30.8144   53.5140 C   0  0  0  0  0  0  0  0  0  0  0  0
  -50.7477  -27.1482   54.1380 C   0  0  0  0  0  0  0  0  0  0  0  0
  -49.4147  -27.8438   54.1000 C   0  0  0  0  0  0  0  0  0  0  0  0
  -51.5490  -27.1448   55.3011 N   0  0  0  0  0  0  0  0  0  0  0  0
  -54.2803  -28.5869   58.6345 O   0  0  0  0  0  0  0  0  0  0  0  0
  -53.8174  -26.5184   59.3261 O   0  0  0  0  0  0  0  0  0  0  0  0
  -52.2729  -24.4874   56.1571 O   0  0  0  0  0  0  0  0  0  0  0  0
  -55.0241  -27.5374   56.1675 O   0  0  0  0  0  0  0  0  0  0  0  0
  -54.2668  -27.9875   53.3865 O   0  0  0  0  0  0  0  0  0  0  0  0
  -54.3518  -30.6966   55.7875 O   0  0  0  0  0  0  0  0  0  0  0  0
  -55.6915  -31.9016   53.6927 O   0  0  0  0  0  0  0  0  0  0  0  0
  -51.1419  -26.5652   53.1057 O   0  0  0  0  0  0  0  0  0  0  0  0
  -57.9846  -23.5118   56.1446 C   0  0  1  0  0  0  0  0  0  0  0  0
  -57.8142  -24.5154   57.2401 C   0  0  1  0  0  0  0  0  0  0  0  0
  -57.1327  -25.7252   56.5830 C   0  0  2  0  0  0  0  0  0  0  0  0
  -58.1467  -26.3452   55.6869 C   0  0  2  0  0  0  0  0  0  0  0  0
  -58.6628  -25.2469   54.7377 C   0  0  1  0  0  0  0  0  0  0  0  0
  -60.1534  -25.1081   54.7534 C   0  0  0  0  0  0  0  0  0  0  0  0
  -57.0085  -23.9406   58.2334 O   0  0  0  0  0  0  0  0  0  0  0  0
  -56.4661  -26.4948   57.4508 O   0  0  0  0  0  0  0  0  0  0  0  0
  -59.1873  -27.0090   56.3097 O   0  0  0  0  0  0  0  0  0  0  0  0
  -57.9572  -24.0913   54.8766 O   0  0  0  0  0  0  0  0  0  0  0  0
  -60.6956  -24.6388   53.5762 O   0  0  0  0  0  0  0  0  0  0  0  0
  -59.5820  -28.1842   55.7070 C   0  0  1  0  0  0  0  0  0  0  0  0
  -59.1228  -29.4690   56.3740 C   0  0  1  0  0  0  0  0  0  0  0  0
  -60.1927  -30.0368   57.2267 C   0  0  2  0  0  0  0  0  0  0  0  0
  -61.1428  -28.9638   57.6351 C   0  0  2  0  0  0  0  0  0  0  0  0
  -61.8150  -28.5055   56.3406 C   0  0  1  0  0  0  0  0  0  0  0  0
  -62.7849  -27.4319   56.7011 C   0  0  0  0  0  0  0  0  0  0  0  0
  -57.5848  -30.9705   55.0869 C   0  0  0  0  0  0  0  0  0  0  0  0
  -57.1561  -31.6296   53.8136 C   0  0  0  0  0  0  0  0  0  0  0  0
  -58.8742  -30.4739   55.3212 N   0  0  0  0  0  0  0  0  0  0  0  0
  -59.7764  -30.8753   58.2579 O   0  0  0  0  0  0  0  0  0  0  0  0
  -60.4794  -27.9454   58.2876 O   0  0  0  0  0  0  0  0  0  0  0  0
  -60.9179  -28.2234   55.3578 O   0  0  0  0  0  0  0  0  0  0  0  0
  -63.6059  -27.9307   57.7285 O   0  0  0  0  0  0  0  0  0  0  0  0
  -56.6588  -30.8868   55.9840 O   0  0  0  0  0  0  0  0  0  0  0  0
  -59.9279  -32.2010   57.8554 C   0  0  1  0  0  0  0  0  0  0  0  0
  -59.4473  -33.2540   58.7290 C   0  0  1  0  0  0  0  0  0  0  0  0
  -60.5901  -33.7873   59.6384 C   0  0  2  0  0  0  0  0  0  0  0  0
  -61.7595  -34.3086   58.8888 C   0  0  2  0  0  0  0  0  0  0  0  0
  -61.7726  -33.5305   57.5653 C   0  0  1  0  0  0  0  0  0  0  0  0
  -63.1436  -33.5337   56.9840 C   0  0  0  0  0  0  0  0  0  0  0  0
  -58.8090  -34.3448   58.1922 O   0  0  0  0  0  0  0  0  0  0  0  0
  -61.0573  -32.6183   60.3221 O   0  0  0  0  0  0  0  0  0  0  0  0
  -62.9998  -34.0818   59.4799 O   0  0  0  0  0  0  0  0  0  0  0  0
  -61.4464  -32.2379   57.9711 O   0  0  0  0  0  0  0  0  0  0  0  0
  -64.1274  -33.5545   58.0088 O   0  0  0  0  0  0  0  0  0  0  0  0
  -57.7117  -34.8359   58.8667 C   0  0  1  0  0  0  0  0  0  0  0  0
  -57.1385  -35.9768   58.0739 C   0  0  2  0  0  0  0  0  0  0  0  0
  -55.8000  -35.7044   57.4372 C   0  0  1  0  0  0  0  0  0  0  0  0
  -55.7519  -34.2292   57.1389 C   0  0  1  0  0  0  0  0  0  0  0  0
  -55.8287  -33.4718   58.4699 C   0  0  2  0  0  0  0  0  0  0  0  0
  -54.4485  -33.4595   59.1102 C   0  0  0  0  0  0  0  0  0  0  0  0
  -57.9795  -36.2652   56.9663 O   0  0  0  0  0  0  0  0  0  0  0  0
  -54.7946  -36.0895   58.2682 O   0  0  0  0  0  0  0  0  0  0  0  0
  -54.5393  -33.9323   56.5154 O   0  0  0  0  0  0  0  0  0  0  0  0
  -56.8063  -33.9200   59.2820 O   0  0  0  0  0  0  0  0  0  0  0  0
  -58.9365  -19.0844   56.7575 C   0  0  2  0  0  0  0  0  0  0  0  0
  -59.1358  -20.5216   57.2194 C   0  0  2  0  0  0  0  0  0  0  0  0
  -58.6013  -21.3514   56.0319 C   0  0  1  0  0  0  0  0  0  0  0  0
  -57.1303  -21.1572   56.0343 C   0  0  1  0  0  0  0  0  0  0  0  0
  -56.4510  -21.8775   54.8639 C   0  0  0  0  0  0  0  0  0  0  0  0
  -57.4310  -18.9137   56.6596 C   0  0  2  0  0  0  0  0  0  0  0  0
  -57.2010  -17.6388   56.1347 O   0  0  0  0  0  0  0  0  0  0  0  0
  -59.4328  -18.2273   57.7038 O   0  0  0  0  0  0  0  0  0  0  0  0
  -60.4416  -20.8189   57.5119 O   0  0  0  0  0  0  0  0  0  0  0  0
  -59.0350  -22.6351   56.2788 O   0  0  0  0  0  0  0  0  0  0  0  0
  -56.8246  -19.8237   55.8627 O   0  0  0  0  0  0  0  0  0  0  0  0
  -56.9561  -21.3603   53.6574 O   0  0  0  0  0  0  0  0  0  0  0  0
  2  1  1  0
  1 13  1  0
  1 14  2  0
  2  3  1  0
  2 16  1  0
  2 28  1  1
  3  4  1  0
  4  5  1  0
  4 15  1  6
  6  5  1  0
  5 12  1  1
  6  7  1  0
  6 16  1  6
  7  8  1  0
  7 17  1  6
  8  9  1  0
  8 18  1  1
  9 19  1  0
 10 11  1  0
 12 10  1  0
 10 20  2  0
 21 22  1  0
 21 30  1  0
 21 76  1  1
 22 23  1  0
 22 27  1  1
 23 24  1  0
 23 28  1  1
 25 24  1  0
 24 29  1  1
 25 26  1  1
 30 25  1  0
 26 31  1  0
 32 29  1  1
 32 33  1  0
 32 43  1  0
 33 34  1  0
 33 40  1  6
 34 35  1  0
 34 41  1  1
 36 35  1  0
 35 42  1  6
 36 37  1  1
 43 36  1  0
 37 44  1  0
 38 39  1  0
 40 38  1  0
 38 45  2  0
 46 41  1  1
 46 47  1  0
 46 55  1  0
 47 48  1  0
 47 52  1  6
 48 49  1  0
 48 53  1  1
 50 49  1  0
 49 54  1  1
 50 51  1  1
 55 50  1  0
 51 56  1  0
 57 52  1  6
 57 58  1  0
 57 66  1  0
 58 59  1  0
 58 63  1  6
 59 60  1  0
 59 64  1  1
 61 60  1  0
 60 65  1  1
 61 62  1  1
 66 61  1  0
 68 67  1  0
 67 72  1  0
 67 74  1  1
 69 68  1  0
 68 75  1  6
 69 70  1  0
 69 76  1  1
 70 71  1  6
 70 77  1  0
 71 78  1  0
 72 73  1  6
 72 77  1  0
M  END
$$$$
