
     RDKit          3D

 78 83  0  0  0  0  0  0  0  0999 V2000
  -38.3299   -8.6860   67.1974 C   0  0  0  0  0  0  0  0  0  0  0  0
  -37.8023   -8.7591   65.7116 C   0  0  1  0  0  0  0  0  0  0  0  0
  -36.9061  -10.0007   65.6392 C   0  0  0  0  0  0  0  0  0  0  0  0
  -37.6786  -11.3059   65.5425 C   0  0  1  0  0  0  0  0  0  0  0  0
  -38.9366  -11.2157   64.6542 C   0  0  2  0  0  0  0  0  0  0  0  0
  -39.0179   -9.8774   63.8868 C   0  0  2  0  0  0  0  0  0  0  0  0
  -38.0868   -9.6817   62.6524 C   0  0  1  0  0  0  0  0  0  0  0  0
  -38.4035   -8.4561   61.7625 C   0  0  1  0  0  0  0  0  0  0  0  0
  -38.3386   -8.8138   60.2675 C   0  0  0  0  0  0  0  0  0  0  0  0
  -41.0145  -12.4291   65.2577 C   0  0  0  0  0  0  0  0  0  0  0  0
  -42.3929  -12.1856   65.7919 C   0  0  0  0  0  0  0  0  0  0  0  0
  -40.1376  -11.3922   65.4928 N   0  0  0  0  0  0  0  0  0  0  0  0
  -39.6310   -8.3340   67.3139 O   0  0  0  0  0  0  0  0  0  0  0  0
  -37.6871   -8.9288   68.2096 O   0  0  0  0  0  0  0  0  0  0  0  0
  -36.7600  -12.3053   65.0922 O   0  0  0  0  0  0  0  0  0  0  0  0
  -38.9012   -8.7660   64.8075 O   0  0  0  0  0  0  0  0  0  0  0  0
  -36.7538   -9.4840   63.1619 O   0  0  0  0  0  0  0  0  0  0  0  0
  -39.7334   -7.9688   62.0042 O   0  0  0  0  0  0  0  0  0  0  0  0
  -38.5223   -7.6331   59.4763 O   0  0  0  0  0  0  0  0  0  0  0  0
  -40.7005  -13.4598   64.6753 O   0  0  0  0  0  0  0  0  0  0  0  0
  -36.8213   -5.8073   62.0587 C   0  0  1  0  0  0  0  0  0  0  0  0
  -36.4620   -6.8819   63.1115 C   0  0  1  0  0  0  0  0  0  0  0  0
  -37.3876   -6.7756   64.3418 C   0  0  2  0  0  0  0  0  0  0  0  0
  -37.3741   -5.3203   64.8769 C   0  0  2  0  0  0  0  0  0  0  0  0
  -37.7552   -4.3739   63.7292 C   0  0  1  0  0  0  0  0  0  0  0  0
  -37.7083   -2.9021   64.1406 C   0  0  0  0  0  0  0  0  0  0  0  0
  -36.5388   -8.2098   62.5658 O   0  0  0  0  0  0  0  0  0  0  0  0
  -36.9107   -7.6790   65.3708 O   0  0  0  0  0  0  0  0  0  0  0  0
  -36.0570   -4.9795   65.3446 O   0  0  0  0  0  0  0  0  0  0  0  0
  -36.8351   -4.5126   62.6371 O   0  0  0  0  0  0  0  0  0  0  0  0
  -38.7400   -2.2094   63.4302 O   0  0  0  0  0  0  0  0  0  0  0  0
  -36.0236   -4.6146   66.7272 C   0  0  1  0  0  0  0  0  0  0  0  0
  -34.7874   -3.7165   66.9824 C   0  0  1  0  0  0  0  0  0  0  0  0
  -34.7012   -3.3877   68.4927 C   0  0  2  0  0  0  0  0  0  0  0  0
  -36.0493   -3.6281   69.2014 C   0  0  2  0  0  0  0  0  0  0  0  0
  -37.2519   -3.2659   68.3118 C   0  0  1  0  0  0  0  0  0  0  0  0
  -37.4037   -1.7641   68.0285 C   0  0  0  0  0  0  0  0  0  0  0  0
  -32.5082   -4.6400   67.3661 C   0  0  0  0  0  0  0  0  0  0  0  0
  -32.2560   -6.1130   67.5764 C   0  0  0  0  0  0  0  0  0  0  0  0
  -33.5445   -4.3647   66.4982 N   0  0  0  0  0  0  0  0  0  0  0  0
  -34.3802   -2.0046   68.7280 O   0  0  0  0  0  0  0  0  0  0  0  0
  -36.0963   -2.9404   70.4530 O   0  0  0  0  0  0  0  0  0  0  0  0
  -37.2514   -3.9608   67.0470 O   0  0  0  0  0  0  0  0  0  0  0  0
  -38.7919   -1.4166   68.0963 O   0  0  0  0  0  0  0  0  0  0  0  0
  -31.8439   -3.7726   67.9294 O   0  0  0  0  0  0  0  0  0  0  0  0
  -33.0995   -1.7929   69.3294 C   0  0  1  0  0  0  0  0  0  0  0  0
  -32.6487   -0.3582   68.9906 C   0  0  1  0  0  0  0  0  0  0  0  0
  -31.3800    0.0022   69.7719 C   0  0  2  0  0  0  0  0  0  0  0  0
  -31.4720   -0.3707   71.2522 C   0  0  2  0  0  0  0  0  0  0  0  0
  -31.9571   -1.8222   71.3984 C   0  0  1  0  0  0  0  0  0  0  0  0
  -32.1209   -2.2390   72.8638 C   0  0  0  0  0  0  0  0  0  0  0  0
  -32.3321   -0.3401   67.5870 O   0  0  0  0  0  0  0  0  0  0  0  0
  -31.1223    1.4142   69.6709 O   0  0  0  0  0  0  0  0  0  0  0  0
  -32.3714    0.5688   71.8759 O   0  0  0  0  0  0  0  0  0  0  0  0
  -33.2147   -1.9968   70.7387 O   0  0  0  0  0  0  0  0  0  0  0  0
  -33.0598   -1.4002   73.5290 O   0  0  0  0  0  0  0  0  0  0  0  0
  -32.9771    0.7056   66.8610 C   0  0  1  0  0  0  0  0  0  0  0  0
  -31.8530    1.6234   66.3397 C   0  0  2  0  0  0  0  0  0  0  0  0
  -32.3479    2.6158   65.2835 C   0  0  1  0  0  0  0  0  0  0  0  0
  -33.8731    2.5550   65.1023 C   0  0  1  0  0  0  0  0  0  0  0  0
  -34.3413    1.0922   64.9184 C   0  0  2  0  0  0  0  0  0  0  0  0
  -35.8442    0.9284   65.0885 C   0  0  0  0  0  0  0  0  0  0  0  0
  -30.8090    0.8102   65.7357 O   0  0  0  0  0  0  0  0  0  0  0  0
  -31.9747    3.9562   65.6612 O   0  0  0  0  0  0  0  0  0  0  0  0
  -34.4732    3.1869   66.2534 O   0  0  0  0  0  0  0  0  0  0  0  0
  -33.7110    0.1366   65.7778 O   0  0  0  0  0  0  0  0  0  0  0  0
  -33.7438   -3.3152   59.1318 C   0  0  2  0  0  0  0  0  0  0  0  0
  -34.1202   -4.1846   60.3436 C   0  0  2  0  0  0  0  0  0  0  0  0
  -35.5837   -4.6581   60.3095 C   0  0  1  0  0  0  0  0  0  0  0  0
  -35.9832   -4.9401   58.8465 C   0  0  1  0  0  0  0  0  0  0  0  0
  -37.4435   -5.4024   58.7485 C   0  0  0  0  0  0  0  0  0  0  0  0
  -34.9798   -2.7905   58.3787 C   0  0  2  0  0  0  0  0  0  0  0  0
  -35.7145   -1.8667   59.1547 O   0  0  0  0  0  0  0  0  0  0  0  0
  -32.9306   -4.1023   58.2432 O   0  0  0  0  0  0  0  0  0  0  0  0
  -33.8966   -3.4147   61.5453 O   0  0  0  0  0  0  0  0  0  0  0  0
  -35.8116   -5.8691   61.0523 O   0  0  0  0  0  0  0  0  0  0  0  0
  -35.8695   -3.8152   57.9548 O   0  0  0  0  0  0  0  0  0  0  0  0
  -37.5215   -6.8191   58.9213 O   0  0  0  0  0  0  0  0  0  0  0  0
  2  1  1  0
  1 13  1  0
  1 14  2  0
  3  2  1  1
  2 16  1  0
  2 28  1  6
  3  4  1  0
  4  5  1  0
  4 15  1  6
  6  5  1  0
  5 12  1  1
  6  7  1  0
  6 16  1  1
  7  8  1  0
  7 17  1  1
  8  9  1  0
  8 18  1  1
  9 19  1  6
 11 10  1  6
 12 10  1  0
 10 20  2  0
 21 22  1  0
 21 30  1  0
 21 76  1  6
 22 23  1  0
 22 27  1  6
 23 24  1  0
 23 28  1  1
 25 24  1  0
 24 29  1  6
 25 26  1  0
 25 30  1  6
 26 31  1  6
 32 29  1  6
 32 33  1  0
 32 43  1  0
 33 34  1  0
 33 40  1  1
 34 35  1  0
 34 41  1  6
 36 35  1  0
 35 42  1  1
 36 37  1  0
 36 43  1  6
 37 44  1  6
 39 38  1  6
 40 38  1  0
 38 45  2  0
 46 41  1  6
 46 47  1  0
 46 55  1  0
 47 48  1  0
 47 52  1  6
 48 49  1  0
 48 53  1  1
 50 49  1  0
 49 54  1  1
 50 51  1  0
 50 55  1  6
 51 56  1  6
 57 52  1  6
 57 58  1  0
 57 66  1  0
 58 59  1  0
 58 63  1  6
 59 60  1  0
 59 64  1  1
 61 60  1  0
 60 65  1  1
 62 61  1  6
 61 66  1  1
 68 67  1  0
 67 72  1  0
 67 74  1  6
 69 68  1  0
 68 75  1  1
 69 70  1  0
 69 76  1  1
 70 71  1  0
 70 77  1  6
 71 78  1  6
 72 73  1  1
 72 77  1  0
M  END
$$$$
