
     RDKit          3D

 78 83  0  0  0  0  0  0  0  0999 V2000
  -57.2744  -27.9801   53.0354 C   0  0  0  0  0  0  0  0  0  0  0  0
  -56.2239  -27.7129   54.0462 C   0  0  1  0  0  0  0  0  0  0  0  0
  -54.8411  -27.9705   53.5243 C   0  0  0  0  0  0  0  0  0  0  0  0
  -54.6626  -27.1328   52.2729 C   0  0  1  0  0  0  0  0  0  0  0  0
  -54.7367  -25.6808   52.6967 C   0  0  2  0  0  0  0  0  0  0  0  0
  -56.0282  -25.4700   53.4419 C   0  0  2  0  0  0  0  0  0  0  0  0
  -55.9633  -24.0781   54.0351 C   0  0  1  0  0  0  0  0  0  0  0  0
  -57.1398  -23.8063   54.9658 C   0  0  1  0  0  0  0  0  0  0  0  0
  -57.1093  -22.3708   55.4624 C   0  0  0  0  0  0  0  0  0  0  0  0
  -53.9008  -23.9943   50.9878 C   0  0  0  0  0  0  0  0  0  0  0  0
  -52.8951  -23.3741   51.9184 C   0  0  0  0  0  0  0  0  0  0  0  0
  -54.8644  -24.9189   51.4475 N   0  0  0  0  0  0  0  0  0  0  0  0
  -57.2230  -29.1057   52.1801 O   0  0  0  0  0  0  0  0  0  0  0  0
  -58.2863  -27.2578   52.8326 O   0  0  0  0  0  0  0  0  0  0  0  0
  -53.4558  -27.4286   51.6366 O   0  0  0  0  0  0  0  0  0  0  0  0
  -56.2638  -26.3611   54.4380 O   0  0  0  0  0  0  0  0  0  0  0  0
  -54.7547  -23.8422   54.6554 O   0  0  0  0  0  0  0  0  0  0  0  0
  -58.3554  -23.9463   54.2849 O   0  0  0  0  0  0  0  0  0  0  0  0
  -57.9700  -22.1738   56.5386 O   0  0  0  0  0  0  0  0  0  0  0  0
  -53.8680  -23.6739   49.7805 O   0  0  0  0  0  0  0  0  0  0  0  0
  -56.3288  -26.3810   58.2578 C   0  0  1  0  0  0  0  0  0  0  0  0
  -56.0289  -27.6465   57.5196 C   0  0  1  0  0  0  0  0  0  0  0  0
  -56.9350  -27.6200   56.2793 C   0  0  2  0  0  0  0  0  0  0  0  0
  -58.3268  -27.8153   56.7696 C   0  0  2  0  0  0  0  0  0  0  0  0
  -58.5973  -26.7429   57.8421 C   0  0  1  0  0  0  0  0  0  0  0  0
  -59.0734  -27.3161   59.1406 C   0  0  0  0  0  0  0  0  0  0  0  0
  -54.6706  -27.6342   57.1716 O   0  0  0  0  0  0  0  0  0  0  0  0
  -56.4812  -28.3776   55.2743 O   0  0  0  0  0  0  0  0  0  0  0  0
  -58.6409  -29.0818   57.2265 O   0  0  0  0  0  0  0  0  0  0  0  0
  -57.5745  -25.8489   57.9272 O   0  0  0  0  0  0  0  0  0  0  0  0
  -60.4254  -27.1714   59.3671 O   0  0  0  0  0  0  0  0  0  0  0  0
  -57.6957  -30.0522   56.9712 C   0  0  1  0  0  0  0  0  0  0  0  0
  -57.8560  -31.3614   57.7241 C   0  0  1  0  0  0  0  0  0  0  0  0
  -58.5215  -32.3811   56.8807 C   0  0  2  0  0  0  0  0  0  0  0  0
  -59.3250  -31.7169   55.8158 C   0  0  2  0  0  0  0  0  0  0  0  0
  -58.3053  -31.0108   54.9217 C   0  0  1  0  0  0  0  0  0  0  0  0
  -59.0651  -30.3346   53.8316 C   0  0  0  0  0  0  0  0  0  0  0  0
  -56.0497  -32.0183   59.3310 C   0  0  0  0  0  0  0  0  0  0  0  0
  -56.9396  -32.0470   60.5339 C   0  0  0  0  0  0  0  0  0  0  0  0
  -56.5107  -31.8968   58.0132 N   0  0  0  0  0  0  0  0  0  0  0  0
  -59.1786  -33.4052   57.5585 O   0  0  0  0  0  0  0  0  0  0  0  0
  -60.2482  -30.8526   56.3669 O   0  0  0  0  0  0  0  0  0  0  0  0
  -57.4296  -30.2479   55.6299 O   0  0  0  0  0  0  0  0  0  0  0  0
  -60.2317  -31.0854   53.6000 O   0  0  0  0  0  0  0  0  0  0  0  0
  -54.7889  -32.1158   59.5959 O   0  0  0  0  0  0  0  0  0  0  0  0
  -58.4560  -34.5874   57.4073 C   0  0  1  0  0  0  0  0  0  0  0  0
  -58.7981  -35.7247   58.2395 C   0  0  1  0  0  0  0  0  0  0  0  0
  -59.7898  -36.6719   57.5070 C   0  0  2  0  0  0  0  0  0  0  0  0
  -59.2823  -37.1856   56.2109 C   0  0  2  0  0  0  0  0  0  0  0  0
  -58.3153  -36.1088   55.6984 C   0  0  1  0  0  0  0  0  0  0  0  0
  -58.1741  -36.2106   54.2195 C   0  0  0  0  0  0  0  0  0  0  0  0
  -57.7999  -36.5062   58.7669 O   0  0  0  0  0  0  0  0  0  0  0  0
  -60.8967  -35.8228   57.1811 O   0  0  0  0  0  0  0  0  0  0  0  0
  -60.2407  -37.3471   55.2136 O   0  0  0  0  0  0  0  0  0  0  0  0
  -58.9813  -34.9273   56.0183 O   0  0  0  0  0  0  0  0  0  0  0  0
  -57.3171  -37.2873   53.8661 O   0  0  0  0  0  0  0  0  0  0  0  0
  -57.2486  -36.1108   59.9669 C   0  0  1  0  0  0  0  0  0  0  0  0
  -57.5485  -37.1632   60.9970 C   0  0  2  0  0  0  0  0  0  0  0  0
  -56.3565  -37.9573   61.4657 C   0  0  1  0  0  0  0  0  0  0  0  0
  -55.3899  -38.0133   60.3125 C   0  0  1  0  0  0  0  0  0  0  0  0
  -54.9375  -36.5818   60.0008 C   0  0  2  0  0  0  0  0  0  0  0  0
  -53.8489  -36.1833   60.9862 C   0  0  0  0  0  0  0  0  0  0  0  0
  -58.4068  -38.1499   60.4429 O   0  0  0  0  0  0  0  0  0  0  0  0
  -55.8052  -37.3772   62.5653 O   0  0  0  0  0  0  0  0  0  0  0  0
  -54.2793  -38.7701   60.6884 O   0  0  0  0  0  0  0  0  0  0  0  0
  -55.9582  -35.7051   59.9268 O   0  0  0  0  0  0  0  0  0  0  0  0
  -56.3038  -23.8632   62.1365 C   0  0  2  0  0  0  0  0  0  0  0  0
  -56.0456  -25.2786   61.6377 C   0  0  2  0  0  0  0  0  0  0  0  0
  -56.0632  -25.1203   60.1019 C   0  0  1  0  0  0  0  0  0  0  0  0
  -54.8290  -24.3713   59.7599 C   0  0  1  0  0  0  0  0  0  0  0  0
  -54.7291  -24.0778   58.2585 C   0  0  0  0  0  0  0  0  0  0  0  0
  -55.0866  -23.0690   61.6970 C   0  0  2  0  0  0  0  0  0  0  0  0
  -55.3273  -21.7356   62.0400 O   0  0  0  0  0  0  0  0  0  0  0  0
  -56.3772  -23.8669   63.5043 O   0  0  0  0  0  0  0  0  0  0  0  0
  -56.9775  -26.1838   62.0752 O   0  0  0  0  0  0  0  0  0  0  0  0
  -56.1339  -26.4081   59.6184 O   0  0  0  0  0  0  0  0  0  0  0  0
  -54.8373  -23.1341   60.3687 O   0  0  0  0  0  0  0  0  0  0  0  0
  -53.8966  -22.9602   58.0684 O   0  0  0  0  0  0  0  0  0  0  0  0
  2  1  1  0
  1 13  1  0
  1 14  2  0
  2  3  1  0
  2 16  1  0
  2 28  1  1
  3  4  1  0
  4  5  1  0
  4 15  1  1
  6  5  1  0
  5 12  1  6
  6  7  1  0
  6 16  1  1
  7  8  1  0
  7 17  1  1
  8  9  1  0
  8 18  1  6
  9 19  1  0
 10 11  1  0
 12 10  1  0
 10 20  2  0
 21 22  1  0
 21 30  1  0
 21 76  1  1
 22 23  1  0
 22 27  1  6
 23 24  1  0
 23 28  1  6
 25 24  1  0
 24 29  1  1
 25 26  1  1
 30 25  1  0
 26 31  1  0
 32 29  1  6
 32 33  1  0
 32 43  1  0
 33 34  1  0
 33 40  1  6
 34 35  1  0
 34 41  1  1
 36 35  1  0
 35 42  1  1
 36 37  1  6
 43 36  1  0
 37 44  1  0
 38 39  1  0
 40 38  1  0
 38 45  2  0
 46 41  1  1
 46 47  1  0
 46 55  1  0
 47 48  1  0
 47 52  1  6
 48 49  1  0
 48 53  1  6
 50 49  1  0
 49 54  1  6
 50 51  1  6
 55 50  1  0
 51 56  1  0
 57 52  1  6
 57 58  1  0
 57 66  1  0
 58 59  1  0
 58 63  1  6
 59 60  1  0
 59 64  1  1
 61 60  1  0
 60 65  1  1
 61 62  1  1
 66 61  1  0
 68 67  1  0
 67 72  1  0
 67 74  1  1
 69 68  1  0
 68 75  1  6
 69 70  1  0
 69 76  1  6
 70 71  1  6
 70 77  1  0
 71 78  1  0
 72 73  1  6
 72 77  1  0
M  END
$$$$
