
     RDKit          3D

 78 83  0  0  0  0  0  0  0  0999 V2000
  -44.6746    9.2103   47.9625 C   0  0  0  0  0  0  0  0  0  0  0  0
  -45.2299    8.6477   46.7087 C   0  0  1  0  0  0  0  0  0  0  0  0
  -44.4159    9.0115   45.5020 C   0  0  0  0  0  0  0  0  0  0  0  0
  -42.9927    8.5548   45.7575 C   0  0  1  0  0  0  0  0  0  0  0  0
  -43.0231    7.0442   45.8596 C   0  0  2  0  0  0  0  0  0  0  0  0
  -44.0282    6.6606   46.9134 C   0  0  2  0  0  0  0  0  0  0  0  0
  -44.1899    5.1572   46.8304 C   0  0  1  0  0  0  0  0  0  0  0  0
  -45.4064    4.6768   47.6136 C   0  0  1  0  0  0  0  0  0  0  0  0
  -45.4926    3.1601   47.5920 C   0  0  0  0  0  0  0  0  0  0  0  0
  -40.5375    6.5665   45.6193 C   0  0  0  0  0  0  0  0  0  0  0  0
  -39.2883    7.3267   45.9713 C   0  0  0  0  0  0  0  0  0  0  0  0
  -41.7104    6.6662   46.3997 N   0  0  0  0  0  0  0  0  0  0  0  0
  -45.1092    8.7753   49.2365 O   0  0  0  0  0  0  0  0  0  0  0  0
  -43.7924   10.1070   48.0268 O   0  0  0  0  0  0  0  0  0  0  0  0
  -42.1346    8.9911   44.7464 O   0  0  0  0  0  0  0  0  0  0  0  0
  -45.2471    7.2415   46.7768 O   0  0  0  0  0  0  0  0  0  0  0  0
  -44.2154    4.7168   45.5240 O   0  0  0  0  0  0  0  0  0  0  0  0
  -45.3004    5.0314   48.9641 O   0  0  0  0  0  0  0  0  0  0  0  0
  -46.5927    2.6909   48.3043 O   0  0  0  0  0  0  0  0  0  0  0  0
  -40.5195    5.8316   44.6090 O   0  0  0  0  0  0  0  0  0  0  0  0
  -48.0664    9.8433   43.3929 C   0  0  1  0  0  0  0  0  0  0  0  0
  -48.0602    9.8965   44.8875 C   0  0  1  0  0  0  0  0  0  0  0  0
  -47.1255    8.7614   45.3323 C   0  0  2  0  0  0  0  0  0  0  0  0
  -47.8323    7.4880   45.0245 C   0  0  2  0  0  0  0  0  0  0  0  0
  -48.2167    7.5179   43.5329 C   0  0  1  0  0  0  0  0  0  0  0  0
  -49.6751    7.2762   43.2960 C   0  0  0  0  0  0  0  0  0  0  0  0
  -47.5732   11.1531   45.2747 O   0  0  0  0  0  0  0  0  0  0  0  0
  -46.6092    8.9466   46.5526 O   0  0  0  0  0  0  0  0  0  0  0  0
  -48.9188    7.1844   45.8235 O   0  0  0  0  0  0  0  0  0  0  0  0
  -47.6828    8.5973   42.8984 O   0  0  0  0  0  0  0  0  0  0  0  0
  -49.9478    6.2841   42.3787 O   0  0  0  0  0  0  0  0  0  0  0  0
  -48.8264    7.6100   47.1314 C   0  0  1  0  0  0  0  0  0  0  0  0
  -50.0439    7.3654   48.0056 C   0  0  1  0  0  0  0  0  0  0  0  0
  -49.8701    6.1471   48.8299 C   0  0  2  0  0  0  0  0  0  0  0  0
  -48.8792    5.2358   48.1906 C   0  0  2  0  0  0  0  0  0  0  0  0
  -47.5489    5.9878   48.2395 C   0  0  1  0  0  0  0  0  0  0  0  0
  -46.5196    5.1084   47.6148 C   0  0  0  0  0  0  0  0  0  0  0  0
  -50.8957    9.6327   48.6464 C   0  0  0  0  0  0  0  0  0  0  0  0
  -50.7742   10.9360   49.3718 C   0  0  0  0  0  0  0  0  0  0  0  0
  -50.1585    8.4836   48.9630 N   0  0  0  0  0  0  0  0  0  0  0  0
  -51.0393    5.5286   49.2664 O   0  0  0  0  0  0  0  0  0  0  0  0
  -49.2687    4.9126   46.9073 O   0  0  0  0  0  0  0  0  0  0  0  0
  -47.6489    7.2577   47.7621 O   0  0  0  0  0  0  0  0  0  0  0  0
  -45.2598    5.6709   47.8885 O   0  0  0  0  0  0  0  0  0  0  0  0
  -51.7519    9.6368   47.6789 O   0  0  0  0  0  0  0  0  0  0  0  0
  -51.6240    6.3115   50.2602 C   0  0  1  0  0  0  0  0  0  0  0  0
  -52.6341    5.7153   51.1130 C   0  0  1  0  0  0  0  0  0  0  0  0
  -52.0039    5.1740   52.4273 C   0  0  2  0  0  0  0  0  0  0  0  0
  -51.2847    6.2042   53.2163 C   0  0  2  0  0  0  0  0  0  0  0  0
  -50.7995    7.2367   52.1887 C   0  0  1  0  0  0  0  0  0  0  0  0
  -49.6342    7.9887   52.7307 C   0  0  0  0  0  0  0  0  0  0  0  0
  -53.7455    6.4423   51.4615 O   0  0  0  0  0  0  0  0  0  0  0  0
  -50.9980    4.2604   51.9737 O   0  0  0  0  0  0  0  0  0  0  0  0
  -50.1451    5.7611   53.8828 O   0  0  0  0  0  0  0  0  0  0  0  0
  -50.3791    6.4347   51.1295 O   0  0  0  0  0  0  0  0  0  0  0  0
  -48.4939    7.8223   51.8996 O   0  0  0  0  0  0  0  0  0  0  0  0
  -54.9788    5.8834   51.2024 C   0  0  1  0  0  0  0  0  0  0  0  0
  -56.0407    6.8397   51.6680 C   0  0  2  0  0  0  0  0  0  0  0  0
  -56.8399    7.4922   50.5695 C   0  0  1  0  0  0  0  0  0  0  0  0
  -55.9300    7.6005   49.3745 C   0  0  1  0  0  0  0  0  0  0  0  0
  -55.5524    6.1812   48.9339 C   0  0  2  0  0  0  0  0  0  0  0  0
  -56.6898    5.6035   48.1046 C   0  0  0  0  0  0  0  0  0  0  0  0
  -55.4401    7.9386   52.3381 O   0  0  0  0  0  0  0  0  0  0  0  0
  -57.9538    6.7609   50.2975 O   0  0  0  0  0  0  0  0  0  0  0  0
  -56.6177    8.2315   48.3371 O   0  0  0  0  0  0  0  0  0  0  0  0
  -55.1624    5.3927   49.9548 O   0  0  0  0  0  0  0  0  0  0  0  0
  -50.0543   10.9706   39.3537 C   0  0  2  0  0  0  0  0  0  0  0  0
  -50.2731   11.0521   40.8584 C   0  0  2  0  0  0  0  0  0  0  0  0
  -48.9393   10.5327   41.4376 C   0  0  1  0  0  0  0  0  0  0  0  0
  -47.9362   11.5866   41.1470 C   0  0  1  0  0  0  0  0  0  0  0  0
  -46.5303   11.1894   41.6116 C   0  0  0  0  0  0  0  0  0  0  0  0
  -48.9538   11.9766   39.0668 C   0  0  2  0  0  0  0  0  0  0  0  0
  -48.6427   11.8607   37.7090 O   0  0  0  0  0  0  0  0  0  0  0  0
  -51.1995   11.3490   38.7042 O   0  0  0  0  0  0  0  0  0  0  0  0
  -51.3458   10.3152   41.2889 O   0  0  0  0  0  0  0  0  0  0  0  0
  -49.2009   10.3083   42.7712 O   0  0  0  0  0  0  0  0  0  0  0  0
  -47.8251   11.7774   39.7859 O   0  0  0  0  0  0  0  0  0  0  0  0
  -45.6373   12.2298   41.2979 O   0  0  0  0  0  0  0  0  0  0  0  0
  2  1  1  0
  1 13  1  0
  1 14  2  0
  2  3  1  0
  2 16  1  0
  2 28  1  6
  3  4  1  0
  4  5  1  0
  4 15  1  6
  6  5  1  0
  5 12  1  1
  6  7  1  0
  6 16  1  6
  7  8  1  0
  7 17  1  6
  8  9  1  0
  8 18  1  1
  9 19  1  0
 10 11  1  0
 12 10  1  0
 10 20  2  0
 21 22  1  0
 21 30  1  0
 21 76  1  1
 22 23  1  0
 22 27  1  6
 23 24  1  0
 23 28  1  1
 25 24  1  0
 24 29  1  1
 25 26  1  1
 30 25  1  0
 26 31  1  0
 32 29  1  6
 32 33  1  0
 32 43  1  0
 33 34  1  0
 33 40  1  1
 34 35  1  0
 34 41  1  6
 36 35  1  0
 35 42  1  6
 36 37  1  6
 43 36  1  0
 37 44  1  0
 38 39  1  0
 40 38  1  0
 38 45  2  0
 46 41  1  6
 46 47  1  0
 46 55  1  0
 47 48  1  0
 47 52  1  1
 48 49  1  0
 48 53  1  6
 50 49  1  0
 49 54  1  6
 50 51  1  1
 55 50  1  0
 51 56  1  0
 57 52  1  6
 57 58  1  0
 57 66  1  0
 58 59  1  0
 58 63  1  6
 59 60  1  0
 59 64  1  6
 61 60  1  0
 60 65  1  6
 61 62  1  1
 66 61  1  0
 68 67  1  0
 67 72  1  0
 67 74  1  6
 69 68  1  0
 68 75  1  6
 69 70  1  0
 69 76  1  1
 70 71  1  6
 70 77  1  0
 71 78  1  0
 72 73  1  6
 72 77  1  0
M  END
$$$$
