
     RDKit          3D

 78 83  0  0  0  0  0  0  0  0999 V2000
  -34.0776   -4.8072   61.2665 C   0  0  0  0  0  0  0  0  0  0  0  0
  -35.4691   -5.4372   61.6643 C   0  0  1  0  0  0  0  0  0  0  0  0
  -36.5180   -4.3498   61.4048 C   0  0  0  0  0  0  0  0  0  0  0  0
  -36.8862   -4.1949   59.9385 C   0  0  1  0  0  0  0  0  0  0  0  0
  -36.9650   -5.5335   59.1759 C   0  0  2  0  0  0  0  0  0  0  0  0
  -36.8616   -6.7528   60.1189 C   0  0  2  0  0  0  0  0  0  0  0  0
  -38.1088   -7.1251   60.9761 C   0  0  1  0  0  0  0  0  0  0  0  0
  -38.1282   -8.5661   61.5394 C   0  0  1  0  0  0  0  0  0  0  0  0
  -39.2788   -9.3908   60.9370 C   0  0  0  0  0  0  0  0  0  0  0  0
  -36.0844   -5.0606   56.9053 C   0  0  0  0  0  0  0  0  0  0  0  0
  -35.1778   -5.6449   55.8654 C   0  0  0  0  0  0  0  0  0  0  0  0
  -35.8901   -5.5818   58.1663 N   0  0  0  0  0  0  0  0  0  0  0  0
  -33.1410   -5.7081   60.8905 O   0  0  0  0  0  0  0  0  0  0  0  0
  -33.7954   -3.6168   61.2554 O   0  0  0  0  0  0  0  0  0  0  0  0
  -38.1136   -3.4625   59.8888 O   0  0  0  0  0  0  0  0  0  0  0  0
  -35.6765   -6.6468   60.9439 O   0  0  0  0  0  0  0  0  0  0  0  0
  -38.1128   -6.2410   62.1136 O   0  0  0  0  0  0  0  0  0  0  0  0
  -36.9161   -9.2665   61.2153 O   0  0  0  0  0  0  0  0  0  0  0  0
  -39.2290  -10.7331   61.4366 O   0  0  0  0  0  0  0  0  0  0  0  0
  -36.9127   -4.1943   56.6533 O   0  0  0  0  0  0  0  0  0  0  0  0
  -34.1761   -8.6367   65.0324 C   0  0  1  0  0  0  0  0  0  0  0  0
  -35.2134   -7.7995   64.2478 C   0  0  1  0  0  0  0  0  0  0  0  0
  -34.5601   -6.5345   63.6524 C   0  0  2  0  0  0  0  0  0  0  0  0
  -33.8194   -5.7575   64.7713 C   0  0  2  0  0  0  0  0  0  0  0  0
  -32.8243   -6.7093   65.4511 C   0  0  1  0  0  0  0  0  0  0  0  0
  -32.0853   -6.0525   66.6173 C   0  0  0  0  0  0  0  0  0  0  0  0
  -35.8292   -8.5626   63.1964 O   0  0  0  0  0  0  0  0  0  0  0  0
  -35.5934   -5.6959   63.0769 O   0  0  0  0  0  0  0  0  0  0  0  0
  -34.7615   -5.2893   65.7526 O   0  0  0  0  0  0  0  0  0  0  0  0
  -33.5095   -7.8437   66.0007 O   0  0  0  0  0  0  0  0  0  0  0  0
  -31.7502   -7.0740   67.5623 O   0  0  0  0  0  0  0  0  0  0  0  0
  -34.8868   -3.8647   65.7831 C   0  0  1  0  0  0  0  0  0  0  0  0
  -36.0205   -3.4788   66.7659 C   0  0  1  0  0  0  0  0  0  0  0  0
  -36.2152   -1.9433   66.7394 C   0  0  2  0  0  0  0  0  0  0  0  0
  -34.9851   -1.2277   66.1460 C   0  0  2  0  0  0  0  0  0  0  0  0
  -33.6640   -1.9185   66.5284 C   0  0  1  0  0  0  0  0  0  0  0  0
  -33.2985   -1.8121   68.0163 C   0  0  0  0  0  0  0  0  0  0  0  0
  -37.5762   -5.4053   67.0182 C   0  0  0  0  0  0  0  0  0  0  0  0
  -38.8707   -6.0167   66.5408 C   0  0  0  0  0  0  0  0  0  0  0  0
  -37.2800   -4.1895   66.4373 N   0  0  0  0  0  0  0  0  0  0  0  0
  -36.3829   -1.3962   68.0600 O   0  0  0  0  0  0  0  0  0  0  0  0
  -34.9777    0.1551   66.5058 O   0  0  0  0  0  0  0  0  0  0  0  0
  -33.6251   -3.3127   66.1580 O   0  0  0  0  0  0  0  0  0  0  0  0
  -33.5167   -0.4652   68.4530 O   0  0  0  0  0  0  0  0  0  0  0  0
  -36.8610   -5.9513   67.8556 O   0  0  0  0  0  0  0  0  0  0  0  0
  -36.7323   -0.0090   68.0811 C   0  0  1  0  0  0  0  0  0  0  0  0
  -37.3986    0.2907   69.4385 C   0  0  1  0  0  0  0  0  0  0  0  0
  -37.6133    1.7992   69.6072 C   0  0  2  0  0  0  0  0  0  0  0  0
  -36.3739    2.6169   69.2408 C   0  0  2  0  0  0  0  0  0  0  0  0
  -35.8345    2.1675   67.8731 C   0  0  1  0  0  0  0  0  0  0  0  0
  -34.5582    2.9156   67.4738 C   0  0  0  0  0  0  0  0  0  0  0  0
  -38.6882   -0.3473   69.4210 O   0  0  0  0  0  0  0  0  0  0  0  0
  -37.9725    2.0975   70.9682 O   0  0  0  0  0  0  0  0  0  0  0  0
  -35.4082    2.4274   70.2954 O   0  0  0  0  0  0  0  0  0  0  0  0
  -35.5480    0.7658   67.8858 O   0  0  0  0  0  0  0  0  0  0  0  0
  -33.4639    2.0152   67.3340 O   0  0  0  0  0  0  0  0  0  0  0  0
  -38.7113   -1.6250   70.0560 C   0  0  1  0  0  0  0  0  0  0  0  0
  -39.9811   -2.3356   69.5458 C   0  0  2  0  0  0  0  0  0  0  0  0
  -39.9944   -3.8290   69.8846 C   0  0  1  0  0  0  0  0  0  0  0  0
  -38.8082   -4.2305   70.7759 C   0  0  1  0  0  0  0  0  0  0  0  0
  -37.4819   -3.6875   70.1938 C   0  0  2  0  0  0  0  0  0  0  0  0
  -36.3347   -3.7401   71.1916 C   0  0  0  0  0  0  0  0  0  0  0  0
  -40.0579   -2.2039   68.0991 O   0  0  0  0  0  0  0  0  0  0  0  0
  -41.2225   -4.1646   70.5610 O   0  0  0  0  0  0  0  0  0  0  0  0
  -39.0741   -3.7315   72.1044 O   0  0  0  0  0  0  0  0  0  0  0  0
  -37.5401   -2.3507   69.6853 O   0  0  0  0  0  0  0  0  0  0  0  0
  -33.9411  -12.7406   67.7295 C   0  0  2  0  0  0  0  0  0  0  0  0
  -34.1684  -11.2399   67.4800 C   0  0  2  0  0  0  0  0  0  0  0  0
  -34.1615  -10.8734   65.9858 C   0  0  1  0  0  0  0  0  0  0  0  0
  -34.8105  -12.0223   65.1869 C   0  0  1  0  0  0  0  0  0  0  0  0
  -34.8172  -11.7184   63.6824 C   0  0  0  0  0  0  0  0  0  0  0  0
  -33.3733  -13.4620   66.4937 C   0  0  2  0  0  0  0  0  0  0  0  0
  -32.0597  -13.0371   66.1949 O   0  0  0  0  0  0  0  0  0  0  0  0
  -35.1970  -13.3340   68.1049 O   0  0  0  0  0  0  0  0  0  0  0  0
  -33.1272  -10.5015   68.1564 O   0  0  0  0  0  0  0  0  0  0  0  0
  -34.9022   -9.6769   65.6858 O   0  0  0  0  0  0  0  0  0  0  0  0
  -34.1646  -13.3020   65.3235 O   0  0  0  0  0  0  0  0  0  0  0  0
  -33.5077  -11.9022   63.1397 O   0  0  0  0  0  0  0  0  0  0  0  0
  2  1  1  0
  1 13  1  0
  1 14  2  0
  3  2  1  1
  2 16  1  0
  2 28  1  1
  3  4  1  0
  4  5  1  0
  4 15  1  1
  6  5  1  0
  5 12  1  6
  6  7  1  0
  6 16  1  1
  7  8  1  0
  7 17  1  1
  8  9  1  0
  8 18  1  6
  9 19  1  6
 11 10  1  6
 12 10  1  0
 10 20  2  0
 21 22  1  0
 21 30  1  0
 21 76  1  1
 22 23  1  0
 22 27  1  6
 23 24  1  0
 23 28  1  1
 25 24  1  0
 24 29  1  1
 25 26  1  0
 25 30  1  1
 26 31  1  6
 32 29  1  1
 32 33  1  0
 32 43  1  0
 33 34  1  0
 33 40  1  6
 34 35  1  0
 34 41  1  1
 36 35  1  0
 35 42  1  1
 36 37  1  0
 36 43  1  1
 37 44  1  6
 39 38  1  6
 40 38  1  0
 38 45  2  0
 46 41  1  1
 46 47  1  0
 46 55  1  0
 47 48  1  0
 47 52  1  6
 48 49  1  0
 48 53  1  1
 50 49  1  0
 49 54  1  1
 50 51  1  0
 50 55  1  1
 51 56  1  6
 57 52  1  6
 57 58  1  0
 57 66  1  0
 58 59  1  0
 58 63  1  6
 59 60  1  0
 59 64  1  1
 61 60  1  0
 60 65  1  1
 62 61  1  6
 61 66  1  1
 68 67  1  0
 67 72  1  0
 67 74  1  6
 69 68  1  0
 68 75  1  1
 69 70  1  0
 69 76  1  1
 70 71  1  0
 70 77  1  6
 71 78  1  6
 72 73  1  6
 72 77  1  0
M  END
$$$$
