
     RDKit          3D

 78 83  0  0  0  0  0  0  0  0999 V2000
  -52.1874    7.0021   50.3873 C   0  0  0  0  0  0  0  0  0  0  0  0
  -52.6184    7.1794   48.9804 C   0  0  1  0  0  0  0  0  0  0  0  0
  -54.0025    7.7471   48.8673 C   0  0  0  0  0  0  0  0  0  0  0  0
  -54.0264    9.0486   49.6452 C   0  0  1  0  0  0  0  0  0  0  0  0
  -53.0755    9.9993   48.9487 C   0  0  2  0  0  0  0  0  0  0  0  0
  -51.7306    9.3303   48.8414 C   0  0  2  0  0  0  0  0  0  0  0  0
  -50.8785   10.2118   47.9525 C   0  0  1  0  0  0  0  0  0  0  0  0
  -49.5006    9.6056   47.7114 C   0  0  1  0  0  0  0  0  0  0  0  0
  -48.6288   10.5583   46.9113 C   0  0  0  0  0  0  0  0  0  0  0  0
  -53.0834   12.4739   49.5322 C   0  0  0  0  0  0  0  0  0  0  0  0
  -52.7616   13.5886   50.4892 C   0  0  0  0  0  0  0  0  0  0  0  0
  -52.8943   11.1187   49.8824 N   0  0  0  0  0  0  0  0  0  0  0  0
  -52.9868    6.3230   51.3365 O   0  0  0  0  0  0  0  0  0  0  0  0
  -51.1054    7.4260   50.8734 O   0  0  0  0  0  0  0  0  0  0  0  0
  -55.3203    9.5675   49.7191 O   0  0  0  0  0  0  0  0  0  0  0  0
  -51.7571    8.0772   48.3212 O   0  0  0  0  0  0  0  0  0  0  0  0
  -51.5181   10.5160   46.7695 O   0  0  0  0  0  0  0  0  0  0  0  0
  -48.8277    9.4022   48.9226 O   0  0  0  0  0  0  0  0  0  0  0  0
  -47.6725    9.8819   46.1591 O   0  0  0  0  0  0  0  0  0  0  0  0
  -53.5265   12.7716   48.4026 O   0  0  0  0  0  0  0  0  0  0  0  0
  -53.8702    6.1699   44.9205 C   0  0  1  0  0  0  0  0  0  0  0  0
  -53.6786    5.4589   46.2221 C   0  0  1  0  0  0  0  0  0  0  0  0
  -52.4700    6.1380   46.8841 C   0  0  2  0  0  0  0  0  0  0  0  0
  -51.2765    5.7464   46.0855 C   0  0  2  0  0  0  0  0  0  0  0  0
  -51.5561    6.1193   44.6171 C   0  0  1  0  0  0  0  0  0  0  0  0
  -51.3816    4.9694   43.6744 C   0  0  0  0  0  0  0  0  0  0  0  0
  -54.8464    5.6210   46.9810 O   0  0  0  0  0  0  0  0  0  0  0  0
  -52.4446    5.9966   48.2142 O   0  0  0  0  0  0  0  0  0  0  0  0
  -50.8653    4.4320   46.2068 O   0  0  0  0  0  0  0  0  0  0  0  0
  -52.7151    6.8213   44.4894 O   0  0  0  0  0  0  0  0  0  0  0  0
  -50.1502    4.9189   43.0571 O   0  0  0  0  0  0  0  0  0  0  0  0
  -49.5254    4.2558   46.4785 C   0  0  1  0  0  0  0  0  0  0  0  0
  -48.8081    5.4331   47.1158 C   0  0  1  0  0  0  0  0  0  0  0  0
  -48.6989    5.2579   48.5826 C   0  0  2  0  0  0  0  0  0  0  0  0
  -49.7635    4.3342   49.0666 C   0  0  2  0  0  0  0  0  0  0  0  0
  -49.4366    2.9781   48.4407 C   0  0  1  0  0  0  0  0  0  0  0  0
  -50.4754    2.0142   48.9044 C   0  0  0  0  0  0  0  0  0  0  0  0
  -47.1275    5.9416   45.3288 C   0  0  0  0  0  0  0  0  0  0  0  0
  -47.7364    7.1728   44.7347 C   0  0  0  0  0  0  0  0  0  0  0  0
  -47.4208    5.4583   46.6111 N   0  0  0  0  0  0  0  0  0  0  0  0
  -48.5484    6.4229   49.3309 O   0  0  0  0  0  0  0  0  0  0  0  0
  -51.0132    4.8019   48.7167 O   0  0  0  0  0  0  0  0  0  0  0  0
  -49.2237    3.0595   47.0997 O   0  0  0  0  0  0  0  0  0  0  0  0
  -50.7190    1.1151   47.8504 O   0  0  0  0  0  0  0  0  0  0  0  0
  -46.2874    5.3347   44.5574 O   0  0  0  0  0  0  0  0  0  0  0  0
  -47.3938    6.3204   50.1047 C   0  0  1  0  0  0  0  0  0  0  0  0
  -46.3481    7.3099   49.9308 C   0  0  1  0  0  0  0  0  0  0  0  0
  -46.4940    8.4614   50.9653 C   0  0  2  0  0  0  0  0  0  0  0  0
  -46.4672    8.0063   52.3772 C   0  0  2  0  0  0  0  0  0  0  0  0
  -47.0071    6.5692   52.3504 C   0  0  1  0  0  0  0  0  0  0  0  0
  -47.5496    6.2020   53.6877 C   0  0  0  0  0  0  0  0  0  0  0  0
  -45.0323    6.9175   49.9384 O   0  0  0  0  0  0  0  0  0  0  0  0
  -47.8198    8.9560   50.7422 O   0  0  0  0  0  0  0  0  0  0  0  0
  -47.2932    8.7105   53.2495 O   0  0  0  0  0  0  0  0  0  0  0  0
  -48.0545    6.6566   51.4355 O   0  0  0  0  0  0  0  0  0  0  0  0
  -46.5172    6.1795   54.6635 O   0  0  0  0  0  0  0  0  0  0  0  0
  -44.1315    7.6969   49.2444 C   0  0  1  0  0  0  0  0  0  0  0  0
  -42.7586    7.1139   49.4286 C   0  0  2  0  0  0  0  0  0  0  0  0
  -42.1597    6.4863   48.1962 C   0  0  1  0  0  0  0  0  0  0  0  0
  -43.3065    5.9598   47.3746 C   0  0  1  0  0  0  0  0  0  0  0  0
  -44.1739    7.1508   46.9500 C   0  0  2  0  0  0  0  0  0  0  0  0
  -43.5299    7.8260   45.7482 C   0  0  0  0  0  0  0  0  0  0  0  0
  -42.8112    6.0390   50.3555 O   0  0  0  0  0  0  0  0  0  0  0  0
  -41.4200    7.4002   47.5126 O   0  0  0  0  0  0  0  0  0  0  0  0
  -42.7983    5.3371   46.2338 O   0  0  0  0  0  0  0  0  0  0  0  0
  -44.4578    7.9913   47.9645 O   0  0  0  0  0  0  0  0  0  0  0  0
  -54.9544    6.2299   40.4482 C   0  0  2  0  0  0  0  0  0  0  0  0
  -54.9926    5.3101   41.6611 C   0  0  2  0  0  0  0  0  0  0  0  0
  -54.7201    6.2692   42.8401 C   0  0  1  0  0  0  0  0  0  0  0  0
  -55.9375    7.1078   42.9669 C   0  0  1  0  0  0  0  0  0  0  0  0
  -55.7984    8.1646   44.0688 C   0  0  0  0  0  0  0  0  0  0  0  0
  -56.1421    7.1585   40.6280 C   0  0  2  0  0  0  0  0  0  0  0  0
  -56.0864    8.0934   39.5905 O   0  0  0  0  0  0  0  0  0  0  0  0
  -55.1222    5.4896   39.3078 O   0  0  0  0  0  0  0  0  0  0  0  0
  -54.0743    4.2943   41.5978 O   0  0  0  0  0  0  0  0  0  0  0  0
  -54.4500    5.4426   43.9082 O   0  0  0  0  0  0  0  0  0  0  0  0
  -56.1476    7.8228   41.8068 O   0  0  0  0  0  0  0  0  0  0  0  0
  -56.9125    9.0216   44.0196 O   0  0  0  0  0  0  0  0  0  0  0  0
  2  1  1  0
  1 13  1  0
  1 14  2  0
  2  3  1  0
  2 16  1  0
  2 28  1  6
  3  4  1  0
  4  5  1  0
  4 15  1  6
  6  5  1  0
  5 12  1  1
  6  7  1  0
  6 16  1  6
  7  8  1  0
  7 17  1  6
  8  9  1  0
  8 18  1  1
  9 19  1  0
 10 11  1  0
 12 10  1  0
 10 20  2  0
 21 22  1  0
 21 30  1  0
 21 76  1  6
 22 23  1  0
 22 27  1  1
 23 24  1  0
 23 28  1  1
 25 24  1  0
 24 29  1  6
 25 26  1  6
 30 25  1  0
 26 31  1  0
 32 29  1  1
 32 33  1  0
 32 43  1  0
 33 34  1  0
 33 40  1  6
 34 35  1  0
 34 41  1  1
 36 35  1  0
 35 42  1  6
 36 37  1  6
 43 36  1  0
 37 44  1  0
 38 39  1  0
 40 38  1  0
 38 45  2  0
 46 41  1  6
 46 47  1  0
 46 55  1  0
 47 48  1  0
 47 52  1  1
 48 49  1  0
 48 53  1  6
 50 49  1  0
 49 54  1  1
 50 51  1  1
 55 50  1  0
 51 56  1  0
 57 52  1  6
 57 58  1  0
 57 66  1  0
 58 59  1  0
 58 63  1  1
 59 60  1  0
 59 64  1  6
 61 60  1  0
 60 65  1  6
 61 62  1  6
 66 61  1  0
 68 67  1  0
 67 72  1  0
 67 74  1  6
 69 68  1  0
 68 75  1  6
 69 70  1  0
 69 76  1  1
 70 71  1  1
 70 77  1  0
 71 78  1  0
 72 73  1  6
 72 77  1  0
M  END
$$$$
