
     RDKit          3D

 78 83  0  0  0  0  0  0  0  0999 V2000
  -35.3347   -4.6657   59.8093 C   0  0  0  0  0  0  0  0  0  0  0  0
  -34.5758   -3.5223   60.3692 C   0  0  1  0  0  0  0  0  0  0  0  0
  -33.2300   -3.3527   59.7280 C   0  0  0  0  0  0  0  0  0  0  0  0
  -33.4504   -3.2211   58.2334 C   0  0  1  0  0  0  0  0  0  0  0  0
  -34.2354   -1.9454   58.0113 C   0  0  2  0  0  0  0  0  0  0  0  0
  -35.4847   -2.0055   58.8502 C   0  0  2  0  0  0  0  0  0  0  0  0
  -36.1236   -0.6346   58.7739 C   0  0  1  0  0  0  0  0  0  0  0  0
  -37.3655   -0.5415   59.6532 C   0  0  1  0  0  0  0  0  0  0  0  0
  -38.0896    0.7735   59.4198 C   0  0  0  0  0  0  0  0  0  0  0  0
  -33.9116   -1.5663   55.5183 C   0  0  0  0  0  0  0  0  0  0  0  0
  -34.2991   -1.8843   54.1002 C   0  0  0  0  0  0  0  0  0  0  0  0
  -34.6859   -2.0061   56.6146 N   0  0  0  0  0  0  0  0  0  0  0  0
  -34.7980   -5.9739   59.7684 O   0  0  0  0  0  0  0  0  0  0  0  0
  -36.4945   -4.5977   59.3226 O   0  0  0  0  0  0  0  0  0  0  0  0
  -32.2365   -3.2123   57.5442 O   0  0  0  0  0  0  0  0  0  0  0  0
  -35.2812   -2.3230   60.1538 O   0  0  0  0  0  0  0  0  0  0  0  0
  -35.2198    0.3675   59.0565 O   0  0  0  0  0  0  0  0  0  0  0  0
  -38.2851   -1.5447   59.3232 O   0  0  0  0  0  0  0  0  0  0  0  0
  -39.2740    0.8520   60.1471 O   0  0  0  0  0  0  0  0  0  0  0  0
  -32.8769   -0.8939   55.7136 O   0  0  0  0  0  0  0  0  0  0  0  0
  -34.2659   -0.3545   63.3771 C   0  0  1  0  0  0  0  0  0  0  0  0
  -33.8076   -1.7694   63.2209 C   0  0  1  0  0  0  0  0  0  0  0  0
  -34.9252   -2.4765   62.4392 C   0  0  2  0  0  0  0  0  0  0  0  0
  -36.0870   -2.5788   63.3641 C   0  0  2  0  0  0  0  0  0  0  0  0
  -36.3987   -1.1605   63.8787 C   0  0  1  0  0  0  0  0  0  0  0  0
  -36.4320   -1.0706   65.3727 C   0  0  0  0  0  0  0  0  0  0  0  0
  -32.6007   -1.7581   62.5071 O   0  0  0  0  0  0  0  0  0  0  0  0
  -34.5080   -3.5674   61.7868 O   0  0  0  0  0  0  0  0  0  0  0  0
  -35.9615   -3.4808   64.4043 O   0  0  0  0  0  0  0  0  0  0  0  0
  -35.6474   -0.2198   63.2437 O   0  0  0  0  0  0  0  0  0  0  0  0
  -37.2478   -0.0753   65.8667 O   0  0  0  0  0  0  0  0  0  0  0  0
  -35.6412   -4.7690   64.0325 C   0  0  1  0  0  0  0  0  0  0  0  0
  -36.3527   -5.8817   64.7822 C   0  0  1  0  0  0  0  0  0  0  0  0
  -37.5068   -6.3917   64.0063 C   0  0  2  0  0  0  0  0  0  0  0  0
  -37.9755   -5.3523   63.0466 C   0  0  2  0  0  0  0  0  0  0  0  0
  -36.8276   -5.1736   62.0526 C   0  0  1  0  0  0  0  0  0  0  0  0
  -37.2548   -4.1433   61.0631 C   0  0  0  0  0  0  0  0  0  0  0  0
  -34.5810   -7.1431   66.0258 C   0  0  0  0  0  0  0  0  0  0  0  0
  -33.1294   -7.4982   65.9482 C   0  0  0  0  0  0  0  0  0  0  0  0
  -35.4225   -7.0210   64.9118 N   0  0  0  0  0  0  0  0  0  0  0  0
  -38.5161   -7.0096   64.7408 O   0  0  0  0  0  0  0  0  0  0  0  0
  -38.3016   -4.1868   63.7086 O   0  0  0  0  0  0  0  0  0  0  0  0
  -35.6296   -4.9806   62.6674 O   0  0  0  0  0  0  0  0  0  0  0  0
  -36.2059   -3.9826   60.1398 O   0  0  0  0  0  0  0  0  0  0  0  0
  -35.0212   -6.9506   67.2252 O   0  0  0  0  0  0  0  0  0  0  0  0
  -37.9713   -8.0749   65.4554 C   0  0  1  0  0  0  0  0  0  0  0  0
  -38.8673   -8.9776   66.1522 C   0  0  1  0  0  0  0  0  0  0  0  0
  -39.1998  -10.2180   65.2757 C   0  0  2  0  0  0  0  0  0  0  0  0
  -38.0061  -10.9903   64.8517 C   0  0  2  0  0  0  0  0  0  0  0  0
  -36.8594   -9.9704   64.8029 C   0  0  1  0  0  0  0  0  0  0  0  0
  -35.7855  -10.4519   63.8907 C   0  0  0  0  0  0  0  0  0  0  0  0
  -38.5329   -9.4376   67.4019 O   0  0  0  0  0  0  0  0  0  0  0  0
  -39.7431   -9.6539   64.0762 O   0  0  0  0  0  0  0  0  0  0  0  0
  -38.0759  -11.5506   63.5788 O   0  0  0  0  0  0  0  0  0  0  0  0
  -37.4734   -8.8516   64.2432 O   0  0  0  0  0  0  0  0  0  0  0  0
  -35.6432   -9.5842   62.7746 O   0  0  0  0  0  0  0  0  0  0  0  0
  -39.5414   -9.5297   68.3373 C   0  0  1  0  0  0  0  0  0  0  0  0
  -38.9557  -10.0582   69.6165 C   0  0  2  0  0  0  0  0  0  0  0  0
  -38.8937   -9.0660   70.7493 C   0  0  1  0  0  0  0  0  0  0  0  0
  -38.7294   -7.7047   70.1272 C   0  0  1  0  0  0  0  0  0  0  0  0
  -39.9762   -7.4133   69.2836 C   0  0  2  0  0  0  0  0  0  0  0  0
  -41.0922   -6.9373   70.2017 C   0  0  0  0  0  0  0  0  0  0  0  0
  -37.5958  -10.4144   69.4135 O   0  0  0  0  0  0  0  0  0  0  0  0
  -40.0183   -9.1467   71.5098 O   0  0  0  0  0  0  0  0  0  0  0  0
  -38.6332   -6.7514   71.1418 O   0  0  0  0  0  0  0  0  0  0  0  0
  -40.3262   -8.4366   68.4796 O   0  0  0  0  0  0  0  0  0  0  0  0
  -34.4746    3.6196   65.7035 C   0  0  2  0  0  0  0  0  0  0  0  0
  -33.8250    2.2440   65.7672 C   0  0  2  0  0  0  0  0  0  0  0  0
  -34.0966    1.6600   64.3639 C   0  0  1  0  0  0  0  0  0  0  0  0
  -33.2413    2.4357   63.4322 C   0  0  1  0  0  0  0  0  0  0  0  0
  -33.4441    2.0112   61.9731 C   0  0  0  0  0  0  0  0  0  0  0  0
  -33.6631    4.3844   64.6729 C   0  0  2  0  0  0  0  0  0  0  0  0
  -34.2895    5.6221   64.5010 O   0  0  0  0  0  0  0  0  0  0  0  0
  -34.3618    4.2353   66.9219 O   0  0  0  0  0  0  0  0  0  0  0  0
  -34.3333    1.4522   66.7642 O   0  0  0  0  0  0  0  0  0  0  0  0
  -33.7946    0.3210   64.4778 O   0  0  0  0  0  0  0  0  0  0  0  0
  -33.5836    3.7709   63.4695 O   0  0  0  0  0  0  0  0  0  0  0  0
  -34.7275    2.4100   61.5581 O   0  0  0  0  0  0  0  0  0  0  0  0
  2  1  1  0
  1 13  1  0
  1 14  2  0
  2  3  1  0
  2 16  1  0
  2 28  1  1
  3  4  1  0
  4  5  1  0
  4 15  1  6
  6  5  1  0
  5 12  1  6
  6  7  1  0
  6 16  1  1
  7  8  1  0
  7 17  1  1
  8  9  1  0
  8 18  1  6
  9 19  1  0
 10 11  1  0
 12 10  1  0
 10 20  2  0
 21 22  1  0
 21 30  1  0
 21 76  1  1
 22 23  1  0
 22 27  1  6
 23 24  1  0
 23 28  1  1
 25 24  1  0
 24 29  1  1
 25 26  1  1
 30 25  1  0
 26 31  1  0
 32 29  1  6
 32 33  1  0
 32 43  1  0
 33 34  1  0
 33 40  1  6
 34 35  1  0
 34 41  1  1
 36 35  1  0
 35 42  1  1
 36 37  1  6
 43 36  1  0
 37 44  1  0
 38 39  1  0
 40 38  1  0
 38 45  2  0
 46 41  1  6
 46 47  1  0
 46 55  1  0
 47 48  1  0
 47 52  1  1
 48 49  1  0
 48 53  1  6
 50 49  1  0
 49 54  1  6
 50 51  1  6
 55 50  1  0
 51 56  1  0
 57 52  1  6
 57 58  1  0
 57 66  1  0
 58 59  1  0
 58 63  1  6
 59 60  1  0
 59 64  1  6
 61 60  1  0
 60 65  1  1
 61 62  1  1
 66 61  1  0
 68 67  1  0
 67 72  1  0
 67 74  1  1
 69 68  1  0
 68 75  1  1
 69 70  1  0
 69 76  1  1
 70 71  1  6
 70 77  1  0
 71 78  1  0
 72 73  1  6
 72 77  1  0
M  END
$$$$
