
     RDKit          3D

 78 83  0  0  0  0  0  0  0  0999 V2000
  -61.6765  -28.9189   53.5167 C   0  0  0  0  0  0  0  0  0  0  0  0
  -60.6154  -28.0199   54.2630 C   0  0  1  0  0  0  0  0  0  0  0  0
  -59.3764  -28.9005   54.4616 C   0  0  0  0  0  0  0  0  0  0  0  0
  -58.5277  -29.0507   53.2099 C   0  0  1  0  0  0  0  0  0  0  0  0
  -58.4234  -27.7580   52.3746 C   0  0  2  0  0  0  0  0  0  0  0  0
  -59.0282  -26.5379   53.1041 C   0  0  2  0  0  0  0  0  0  0  0  0
  -58.2098  -25.8976   54.2655 C   0  0  1  0  0  0  0  0  0  0  0  0
  -58.9717  -25.7139   55.5996 C   0  0  1  0  0  0  0  0  0  0  0  0
  -58.1760  -24.8431   56.5873 C   0  0  0  0  0  0  0  0  0  0  0  0
  -58.3787  -28.2827   49.9503 C   0  0  0  0  0  0  0  0  0  0  0  0
  -58.3615  -27.1988   48.9160 C   0  0  0  0  0  0  0  0  0  0  0  0
  -59.1004  -27.9602   51.0793 N   0  0  0  0  0  0  0  0  0  0  0  0
  -62.7001  -28.2324   52.9588 O   0  0  0  0  0  0  0  0  0  0  0  0
  -61.6399  -30.1355   53.3932 O   0  0  0  0  0  0  0  0  0  0  0  0
  -57.2495  -29.5397   53.6253 O   0  0  0  0  0  0  0  0  0  0  0  0
  -60.3841  -26.8274   53.5214 O   0  0  0  0  0  0  0  0  0  0  0  0
  -57.1103  -26.7868   54.5412 O   0  0  0  0  0  0  0  0  0  0  0  0
  -60.2271  -25.0462   55.3928 O   0  0  0  0  0  0  0  0  0  0  0  0
  -57.9039  -23.5649   55.9992 O   0  0  0  0  0  0  0  0  0  0  0  0
  -57.8098  -29.3564   49.7966 O   0  0  0  0  0  0  0  0  0  0  0  0
  -57.8543  -25.6588   56.2998 C   0  0  1  0  0  0  0  0  0  0  0  0
  -59.0742  -26.1931   55.5130 C   0  0  1  0  0  0  0  0  0  0  0  0
  -59.9750  -27.0586   56.4191 C   0  0  2  0  0  0  0  0  0  0  0  0
  -59.1202  -28.1559   57.1044 C   0  0  2  0  0  0  0  0  0  0  0  0
  -57.9596  -27.4785   57.8475 C   0  0  1  0  0  0  0  0  0  0  0  0
  -57.0165  -28.4849   58.5072 C   0  0  0  0  0  0  0  0  0  0  0  0
  -59.8502  -25.1255   54.9429 O   0  0  0  0  0  0  0  0  0  0  0  0
  -61.0052  -27.6774   55.6078 O   0  0  0  0  0  0  0  0  0  0  0  0
  -58.5816  -29.0505   56.1149 O   0  0  0  0  0  0  0  0  0  0  0  0
  -57.1557  -26.7165   56.9355 O   0  0  0  0  0  0  0  0  0  0  0  0
  -55.7860  -27.8148   58.7996 O   0  0  0  0  0  0  0  0  0  0  0  0
  -58.9588  -30.4150   56.3196 C   0  0  1  0  0  0  0  0  0  0  0  0
  -58.0177  -31.0457   57.3762 C   0  0  1  0  0  0  0  0  0  0  0  0
  -58.3692  -32.5445   57.5397 C   0  0  2  0  0  0  0  0  0  0  0  0
  -59.7787  -32.8568   56.9983 C   0  0  2  0  0  0  0  0  0  0  0  0
  -60.7724  -31.7097   57.2541 C   0  0  1  0  0  0  0  0  0  0  0  0
  -61.1333  -31.4990   58.7320 C   0  0  0  0  0  0  0  0  0  0  0  0
  -56.2467  -30.3831   55.7577 C   0  0  0  0  0  0  0  0  0  0  0  0
  -56.6881  -28.9634   55.4982 C   0  0  0  0  0  0  0  0  0  0  0  0
  -56.5939  -30.8615   57.0042 N   0  0  0  0  0  0  0  0  0  0  0  0
  -58.3855  -32.9489   58.9209 O   0  0  0  0  0  0  0  0  0  0  0  0
  -60.2617  -34.0960   57.5206 O   0  0  0  0  0  0  0  0  0  0  0  0
  -60.3289  -30.4452   56.7184 O   0  0  0  0  0  0  0  0  0  0  0  0
  -60.8684  -32.7090   59.4519 O   0  0  0  0  0  0  0  0  0  0  0  0
  -55.6365  -31.0449   54.9207 O   0  0  0  0  0  0  0  0  0  0  0  0
  -58.3622  -34.3657   59.1183 C   0  0  1  0  0  0  0  0  0  0  0  0
  -57.8238  -34.6371   60.5371 C   0  0  1  0  0  0  0  0  0  0  0  0
  -57.9637  -36.1230   60.8869 C   0  0  2  0  0  0  0  0  0  0  0  0
  -59.3449  -36.6831   60.5440 C   0  0  2  0  0  0  0  0  0  0  0  0
  -59.7254  -36.2966   59.1055 C   0  0  1  0  0  0  0  0  0  0  0  0
  -61.1256  -36.7851   58.7199 C   0  0  0  0  0  0  0  0  0  0  0  0
  -56.4228  -34.3092   60.5223 O   0  0  0  0  0  0  0  0  0  0  0  0
  -57.7241  -36.3244   62.2913 O   0  0  0  0  0  0  0  0  0  0  0  0
  -60.2741  -36.1555   61.5129 O   0  0  0  0  0  0  0  0  0  0  0  0
  -59.6852  -34.8755   58.9435 O   0  0  0  0  0  0  0  0  0  0  0  0
  -61.4383  -38.0060   59.3825 O   0  0  0  0  0  0  0  0  0  0  0  0
  -55.7392  -34.7401   59.3462 C   0  0  1  0  0  0  0  0  0  0  0  0
  -56.0275  -36.2487   59.2099 C   0  0  2  0  0  0  0  0  0  0  0  0
  -55.6290  -36.8010   57.8383 C   0  0  1  0  0  0  0  0  0  0  0  0
  -54.9060  -35.7509   56.9797 C   0  0  1  0  0  0  0  0  0  0  0  0
  -55.6986  -34.4226   56.9625 C   0  0  2  0  0  0  0  0  0  0  0  0
  -54.8788  -33.2536   56.4373 C   0  0  0  0  0  0  0  0  0  0  0  0
  -57.4513  -36.4849   59.3914 O   0  0  0  0  0  0  0  0  0  0  0  0
  -54.7662  -37.9439   58.0047 O   0  0  0  0  0  0  0  0  0  0  0  0
  -53.5745  -35.5932   57.5155 O   0  0  0  0  0  0  0  0  0  0  0  0
  -56.2476  -34.0228   58.2225 O   0  0  0  0  0  0  0  0  0  0  0  0
  -56.0820  -22.1830   57.7035 C   0  0  2  0  0  0  0  0  0  0  0  0
  -56.9786  -22.9461   56.7138 C   0  0  2  0  0  0  0  0  0  0  0  0
  -56.1951  -23.9417   55.8409 C   0  0  1  0  0  0  0  0  0  0  0  0
  -55.0627  -24.5620   56.6849 C   0  0  1  0  0  0  0  0  0  0  0  0
  -54.2341  -25.5554   55.8587 C   0  0  0  0  0  0  0  0  0  0  0  0
  -54.5891  -22.2837   57.3416 C   0  0  2  0  0  0  0  0  0  0  0  0
  -54.2942  -21.6089   56.1362 O   0  0  0  0  0  0  0  0  0  0  0  0
  -56.3005  -22.7192   59.0208 O   0  0  0  0  0  0  0  0  0  0  0  0
  -57.6408  -21.9849   55.8626 O   0  0  0  0  0  0  0  0  0  0  0  0
  -56.9997  -25.0276   55.3472 O   0  0  0  0  0  0  0  0  0  0  0  0
  -54.1172  -23.6198   57.2249 O   0  0  0  0  0  0  0  0  0  0  0  0
  -53.8477  -24.9587   54.6187 O   0  0  0  0  0  0  0  0  0  0  0  0
  2  1  1  0
  1 13  1  0
  1 14  2  0
  3  2  1  1
  2 16  1  0
  2 28  1  1
  3  4  1  0
  4  5  1  0
  4 15  1  1
  6  5  1  0
  5 12  1  6
  6  7  1  0
  6 16  1  1
  7  8  1  0
  7 17  1  1
  8  9  1  0
  8 18  1  6
  9 19  1  6
 11 10  1  6
 12 10  1  0
 10 20  2  0
 21 22  1  0
 21 30  1  0
 21 76  1  6
 22 23  1  0
 22 27  1  1
 23 24  1  0
 23 28  1  6
 25 24  1  0
 24 29  1  6
 25 26  1  0
 25 30  1  6
 26 31  1  6
 32 29  1  1
 32 33  1  0
 32 43  1  0
 33 34  1  0
 33 40  1  6
 34 35  1  0
 34 41  1  1
 36 35  1  0
 35 42  1  1
 36 37  1  0
 36 43  1  1
 37 44  1  6
 39 38  1  6
 40 38  1  0
 38 45  2  0
 46 41  1  1
 46 47  1  0
 46 55  1  0
 47 48  1  0
 47 52  1  6
 48 49  1  0
 48 53  1  1
 50 49  1  0
 49 54  1  1
 50 51  1  0
 50 55  1  1
 51 56  1  6
 57 52  1  1
 57 58  1  0
 57 66  1  0
 58 59  1  0
 58 63  1  6
 59 60  1  0
 59 64  1  1
 61 60  1  0
 60 65  1  1
 62 61  1  6
 61 66  1  1
 68 67  1  0
 67 72  1  0
 67 74  1  1
 69 68  1  0
 68 75  1  6
 69 70  1  0
 69 76  1  1
 70 71  1  0
 70 77  1  6
 71 78  1  6
 72 73  1  6
 72 77  1  0
M  END
$$$$
