
     RDKit          3D

 78 83  0  0  0  0  0  0  0  0999 V2000
  -11.8631    2.2233   40.8739 C   0  0  0  0  0  0  0  0  0  0  0  0
  -13.0607    3.2493   40.9400 C   0  0  1  0  0  0  0  0  0  0  0  0
  -12.4335    4.6432   40.8233 C   0  0  0  0  0  0  0  0  0  0  0  0
  -12.0472    5.0214   39.4030 C   0  0  1  0  0  0  0  0  0  0  0  0
  -13.0574    4.5439   38.3394 C   0  0  2  0  0  0  0  0  0  0  0  0
  -14.3468    3.9724   38.9699 C   0  0  2  0  0  0  0  0  0  0  0  0
  -15.3836    4.9766   39.5575 C   0  0  1  0  0  0  0  0  0  0  0  0
  -16.8159    4.4238   39.7508 C   0  0  1  0  0  0  0  0  0  0  0  0
  -17.7720    5.5085   40.2765 C   0  0  0  0  0  0  0  0  0  0  0  0
  -12.3818    3.6787   36.1147 C   0  0  0  0  0  0  0  0  0  0  0  0
  -12.2522    2.3866   35.3673 C   0  0  0  0  0  0  0  0  0  0  0  0
  -12.4179    3.5260   37.4839 N   0  0  0  0  0  0  0  0  0  0  0  0
  -12.2293    0.9257   40.9861 O   0  0  0  0  0  0  0  0  0  0  0  0
  -10.6805    2.4957   40.7186 O   0  0  0  0  0  0  0  0  0  0  0  0
  -11.8583    6.4389   39.3825 O   0  0  0  0  0  0  0  0  0  0  0  0
  -14.0176    2.9420   39.9324 O   0  0  0  0  0  0  0  0  0  0  0  0
  -14.9088    5.3494   40.8657 O   0  0  0  0  0  0  0  0  0  0  0  0
  -17.3684    3.9670   38.5056 O   0  0  0  0  0  0  0  0  0  0  0  0
  -19.1060    4.9895   40.3452 O   0  0  0  0  0  0  0  0  0  0  0  0
  -12.4405    4.7666   35.5550 O   0  0  0  0  0  0  0  0  0  0  0  0
  -13.0509    4.9226   45.5926 C   0  0  1  0  0  0  0  0  0  0  0  0
  -13.3468    3.7921   44.5792 C   0  0  1  0  0  0  0  0  0  0  0  0
  -13.2636    4.3181   43.1308 C   0  0  2  0  0  0  0  0  0  0  0  0
  -14.1666    5.5697   42.9807 C   0  0  2  0  0  0  0  0  0  0  0  0
  -13.7530    6.6009   44.0408 C   0  0  1  0  0  0  0  0  0  0  0  0
  -14.6306    7.8526   44.0174 C   0  0  0  0  0  0  0  0  0  0  0  0
  -12.4465    2.6828   44.7400 O   0  0  0  0  0  0  0  0  0  0  0  0
  -13.7136    3.2794   42.2248 O   0  0  0  0  0  0  0  0  0  0  0  0
  -15.5439    5.2116   43.1909 O   0  0  0  0  0  0  0  0  0  0  0  0
  -13.8826    6.0470   45.3579 O   0  0  0  0  0  0  0  0  0  0  0  0
  -13.8945    8.9223   44.6195 O   0  0  0  0  0  0  0  0  0  0  0  0
  -16.4326    6.3318   43.1534 C   0  0  1  0  0  0  0  0  0  0  0  0
  -17.4166    6.2356   44.3460 C   0  0  1  0  0  0  0  0  0  0  0  0
  -18.4326    7.4006   44.2619 C   0  0  2  0  0  0  0  0  0  0  0  0
  -17.9198    8.5329   43.3496 C   0  0  2  0  0  0  0  0  0  0  0  0
  -16.3971    8.7286   43.4576 C   0  0  1  0  0  0  0  0  0  0  0  0
  -15.9219    9.2857   44.8077 C   0  0  0  0  0  0  0  0  0  0  0  0
  -17.3879    3.7498   44.2227 C   0  0  0  0  0  0  0  0  0  0  0  0
  -17.3562    2.8872   45.4607 C   0  0  0  0  0  0  0  0  0  0  0  0
  -18.1022    4.9207   44.3707 N   0  0  0  0  0  0  0  0  0  0  0  0
  -18.6640    8.0105   45.5448 O   0  0  0  0  0  0  0  0  0  0  0  0
  -18.6248    9.7497   43.6031 O   0  0  0  0  0  0  0  0  0  0  0  0
  -15.6497    7.5248   43.1837 O   0  0  0  0  0  0  0  0  0  0  0  0
  -14.6730    9.9614   44.6177 O   0  0  0  0  0  0  0  0  0  0  0  0
  -16.8184    3.4272   43.1823 O   0  0  0  0  0  0  0  0  0  0  0  0
  -19.8309    8.8363   45.6007 C   0  0  1  0  0  0  0  0  0  0  0  0
  -20.5748    8.5166   46.9125 C   0  0  1  0  0  0  0  0  0  0  0  0
  -21.7227    9.5086   47.1316 C   0  0  2  0  0  0  0  0  0  0  0  0
  -21.3004   10.9606   46.9032 C   0  0  2  0  0  0  0  0  0  0  0  0
  -20.5555   11.0858   45.5642 C   0  0  1  0  0  0  0  0  0  0  0  0
  -20.0588   12.5116   45.3028 C   0  0  0  0  0  0  0  0  0  0  0  0
  -21.1398    7.2017   46.7627 O   0  0  0  0  0  0  0  0  0  0  0  0
  -22.2325    9.3856   48.4716 O   0  0  0  0  0  0  0  0  0  0  0  0
  -20.4770   11.3486   48.0221 O   0  0  0  0  0  0  0  0  0  0  0  0
  -19.4280   10.2054   45.5363 O   0  0  0  0  0  0  0  0  0  0  0  0
  -21.1445   13.4327   45.2842 O   0  0  0  0  0  0  0  0  0  0  0  0
  -20.4162    6.3586   45.8673 C   0  0  1  0  0  0  0  0  0  0  0  0
  -21.4369    5.8646   44.8225 C   0  0  2  0  0  0  0  0  0  0  0  0
  -20.7673    5.2042   43.6140 C   0  0  1  0  0  0  0  0  0  0  0  0
  -19.2479    5.0637   43.7998 C   0  0  1  0  0  0  0  0  0  0  0  0
  -18.6294    6.4053   44.2581 C   0  0  2  0  0  0  0  0  0  0  0  0
  -17.2146    6.2494   44.7952 C   0  0  0  0  0  0  0  0  0  0  0  0
  -22.2170    6.9939   44.3405 O   0  0  0  0  0  0  0  0  0  0  0  0
  -21.3348    3.8969   43.3960 O   0  0  0  0  0  0  0  0  0  0  0  0
  -19.0225    3.9985   44.7480 O   0  0  0  0  0  0  0  0  0  0  0  0
  -19.3811    7.1187   45.2455 O   0  0  0  0  0  0  0  0  0  0  0  0
  -13.3525    5.5141   50.5244 C   0  0  2  0  0  0  0  0  0  0  0  0
  -13.9788    5.1431   49.1693 C   0  0  2  0  0  0  0  0  0  0  0  0
  -12.9791    5.2318   48.0032 C   0  0  1  0  0  0  0  0  0  0  0  0
  -11.5902    4.7817   48.5009 C   0  0  1  0  0  0  0  0  0  0  0  0
  -10.5445    4.8646   47.3803 C   0  0  0  0  0  0  0  0  0  0  0  0
  -12.0135    6.2576   50.3687 C   0  0  2  0  0  0  0  0  0  0  0  0
  -12.1865    7.5361   49.7934 O   0  0  0  0  0  0  0  0  0  0  0  0
  -13.1527    4.3051   51.2786 O   0  0  0  0  0  0  0  0  0  0  0  0
  -15.0851    6.0372   48.9173 O   0  0  0  0  0  0  0  0  0  0  0  0
  -13.3232    4.3901   46.8881 O   0  0  0  0  0  0  0  0  0  0  0  0
  -11.0536    5.5520   49.5928 O   0  0  0  0  0  0  0  0  0  0  0  0
   -9.2629    4.4716   47.8762 O   0  0  0  0  0  0  0  0  0  0  0  0
  2  1  1  0
  1 13  1  0
  1 14  2  0
  3  2  1  1
  2 16  1  0
  2 28  1  1
  3  4  1  0
  4  5  1  0
  4 15  1  1
  6  5  1  0
  5 12  1  1
  6  7  1  0
  6 16  1  1
  7  8  1  0
  7 17  1  1
  8  9  1  0
  8 18  1  6
  9 19  1  6
 11 10  1  6
 12 10  1  0
 10 20  2  0
 21 22  1  0
 21 30  1  0
 21 76  1  1
 22 23  1  0
 22 27  1  6
 23 24  1  0
 23 28  1  6
 25 24  1  0
 24 29  1  1
 25 26  1  0
 25 30  1  1
 26 31  1  6
 32 29  1  1
 32 33  1  0
 32 43  1  0
 33 34  1  0
 33 40  1  6
 34 35  1  0
 34 41  1  1
 36 35  1  0
 35 42  1  1
 36 37  1  0
 36 43  1  1
 37 44  1  6
 39 38  1  6
 40 38  1  0
 38 45  2  0
 46 41  1  1
 46 47  1  0
 46 55  1  0
 47 48  1  0
 47 52  1  6
 48 49  1  0
 48 53  1  1
 50 49  1  0
 49 54  1  1
 50 51  1  0
 50 55  1  1
 51 56  1  6
 57 52  1  1
 57 58  1  0
 57 66  1  0
 58 59  1  0
 58 63  1  6
 59 60  1  0
 59 64  1  1
 61 60  1  0
 60 65  1  1
 62 61  1  6
 61 66  1  1
 68 67  1  0
 67 72  1  0
 67 74  1  1
 69 68  1  0
 68 75  1  6
 69 70  1  0
 69 76  1  6
 70 71  1  0
 70 77  1  1
 71 78  1  6
 72 73  1  6
 72 77  1  0
M  END
$$$$
