
     RDKit          3D

 78 83  0  0  0  0  0  0  0  0999 V2000
  -61.5195  -26.2530   53.7244 C   0  0  0  0  0  0  0  0  0  0  0  0
  -60.7384  -27.5196   53.1982 C   0  0  1  0  0  0  0  0  0  0  0  0
  -61.7641  -28.6573   53.1386 C   0  0  0  0  0  0  0  0  0  0  0  0
  -62.6823  -28.5882   51.9296 C   0  0  1  0  0  0  0  0  0  0  0  0
  -61.9727  -28.1276   50.6396 C   0  0  2  0  0  0  0  0  0  0  0  0
  -60.4398  -28.0429   50.8117 C   0  0  2  0  0  0  0  0  0  0  0  0
  -59.6286  -29.3735   50.8270 C   0  0  1  0  0  0  0  0  0  0  0  0
  -58.0892  -29.2190   50.8502 C   0  0  1  0  0  0  0  0  0  0  0  0
  -57.4813  -29.4262   49.4521 C   0  0  0  0  0  0  0  0  0  0  0  0
  -63.5417  -26.7286   49.3223 C   0  0  0  0  0  0  0  0  0  0  0  0
  -63.7232  -25.3578   48.7454 C   0  0  0  0  0  0  0  0  0  0  0  0
  -62.5096  -26.8153   50.2315 N   0  0  0  0  0  0  0  0  0  0  0  0
  -61.0867  -25.0761   53.2164 O   0  0  0  0  0  0  0  0  0  0  0  0
  -62.4575  -26.2521   54.5098 O   0  0  0  0  0  0  0  0  0  0  0  0
  -63.2915  -29.8747   51.7908 O   0  0  0  0  0  0  0  0  0  0  0  0
  -60.1107  -27.2200   51.9567 O   0  0  0  0  0  0  0  0  0  0  0  0
  -59.9885  -30.0681   52.0369 O   0  0  0  0  0  0  0  0  0  0  0  0
  -57.7062  -27.8979   51.2656 O   0  0  0  0  0  0  0  0  0  0  0  0
  -58.4926  -29.2544   48.4514 O   0  0  0  0  0  0  0  0  0  0  0  0
  -64.2537  -27.6772   49.0168 O   0  0  0  0  0  0  0  0  0  0  0  0
  -57.3597  -25.5920   55.8446 C   0  0  1  0  0  0  0  0  0  0  0  0
  -57.9479  -26.4731   54.7176 C   0  0  1  0  0  0  0  0  0  0  0  0
  -59.3159  -27.0539   55.1328 C   0  0  2  0  0  0  0  0  0  0  0  0
  -59.1827  -27.7664   56.5035 C   0  0  2  0  0  0  0  0  0  0  0  0
  -58.5968  -26.7719   57.5165 C   0  0  1  0  0  0  0  0  0  0  0  0
  -58.3656  -27.4002   58.8910 C   0  0  0  0  0  0  0  0  0  0  0  0
  -58.0895  -25.7417   53.4880 O   0  0  0  0  0  0  0  0  0  0  0  0
  -59.7496  -28.0050   54.1279 O   0  0  0  0  0  0  0  0  0  0  0  0
  -58.2951  -28.8928   56.3892 O   0  0  0  0  0  0  0  0  0  0  0  0
  -57.3169  -26.2988   57.0733 O   0  0  0  0  0  0  0  0  0  0  0  0
  -57.2592  -26.7308   59.5047 O   0  0  0  0  0  0  0  0  0  0  0  0
  -58.8456  -30.1035   56.9154 C   0  0  1  0  0  0  0  0  0  0  0  0
  -57.7140  -30.9240   57.5833 C   0  0  1  0  0  0  0  0  0  0  0  0
  -58.2894  -32.2724   58.0807 C   0  0  2  0  0  0  0  0  0  0  0  0
  -59.8260  -32.2222   58.1982 C   0  0  2  0  0  0  0  0  0  0  0  0
  -60.3334  -30.8473   58.6682 C   0  0  1  0  0  0  0  0  0  0  0  0
  -59.9785  -30.5016   60.1219 C   0  0  0  0  0  0  0  0  0  0  0  0
  -56.7892  -31.1969   55.2887 C   0  0  0  0  0  0  0  0  0  0  0  0
  -58.1223  -31.7872   54.8986 C   0  0  0  0  0  0  0  0  0  0  0  0
  -56.5796  -31.1311   56.6507 N   0  0  0  0  0  0  0  0  0  0  0  0
  -57.8106  -32.6134   59.3944 O   0  0  0  0  0  0  0  0  0  0  0  0
  -60.3071  -33.2741   59.0371 O   0  0  0  0  0  0  0  0  0  0  0  0
  -59.8870  -29.7610   57.8295 O   0  0  0  0  0  0  0  0  0  0  0  0
  -58.9461  -29.5084   60.1244 O   0  0  0  0  0  0  0  0  0  0  0  0
  -55.9695  -30.8171   54.4552 O   0  0  0  0  0  0  0  0  0  0  0  0
  -58.3327  -33.8418   59.9093 C   0  0  1  0  0  0  0  0  0  0  0  0
  -57.5745  -34.1699   61.2108 C   0  0  1  0  0  0  0  0  0  0  0  0
  -58.2220  -35.3647   61.9201 C   0  0  2  0  0  0  0  0  0  0  0  0
  -59.7440  -35.2453   62.0086 C   0  0  2  0  0  0  0  0  0  0  0  0
  -60.3237  -34.8928   60.6290 C   0  0  1  0  0  0  0  0  0  0  0  0
  -61.8443  -34.7066   60.6642 C   0  0  0  0  0  0  0  0  0  0  0  0
  -56.2372  -34.5428   60.8327 O   0  0  0  0  0  0  0  0  0  0  0  0
  -57.6947  -35.4928   63.2528 O   0  0  0  0  0  0  0  0  0  0  0  0
  -60.0381  -34.2359   62.9962 O   0  0  0  0  0  0  0  0  0  0  0  0
  -59.7350  -33.6864   60.1339 O   0  0  0  0  0  0  0  0  0  0  0  0
  -62.4594  -35.7004   61.4775 O   0  0  0  0  0  0  0  0  0  0  0  0
  -56.0088  -34.5316   59.4241 C   0  0  1  0  0  0  0  0  0  0  0  0
  -56.8591  -35.6785   58.8417 C   0  0  2  0  0  0  0  0  0  0  0  0
  -56.9731  -35.6087   57.3162 C   0  0  1  0  0  0  0  0  0  0  0  0
  -56.0947  -34.4966   56.7209 C   0  0  1  0  0  0  0  0  0  0  0  0
  -56.3220  -33.1632   57.4713 C   0  0  2  0  0  0  0  0  0  0  0  0
  -55.2462  -32.1292   57.1751 C   0  0  0  0  0  0  0  0  0  0  0  0
  -58.2029  -35.6100   59.3948 O   0  0  0  0  0  0  0  0  0  0  0  0
  -56.5837  -36.8715   56.7398 O   0  0  0  0  0  0  0  0  0  0  0  0
  -54.7232  -34.9425   56.7891 O   0  0  0  0  0  0  0  0  0  0  0  0
  -56.4234  -33.2732   58.8948 O   0  0  0  0  0  0  0  0  0  0  0  0
  -53.0892  -23.1456   56.6234 C   0  0  2  0  0  0  0  0  0  0  0  0
  -53.8510  -24.4513   56.3390 C   0  0  2  0  0  0  0  0  0  0  0  0
  -55.3724  -24.2469   56.2362 C   0  0  1  0  0  0  0  0  0  0  0  0
  -55.6490  -22.8849   55.5670 C   0  0  1  0  0  0  0  0  0  0  0  0
  -57.1562  -22.6183   55.4516 C   0  0  0  0  0  0  0  0  0  0  0  0
  -54.0149  -22.0233   57.1270 C   0  0  2  0  0  0  0  0  0  0  0  0
  -54.5418  -22.3113   58.4056 O   0  0  0  0  0  0  0  0  0  0  0  0
  -52.4341  -22.7289   55.4120 O   0  0  0  0  0  0  0  0  0  0  0  0
  -53.5669  -25.3869   57.4024 O   0  0  0  0  0  0  0  0  0  0  0  0
  -56.0332  -25.2503   55.4446 O   0  0  0  0  0  0  0  0  0  0  0  0
  -55.1028  -21.7441   56.2552 O   0  0  0  0  0  0  0  0  0  0  0  0
  -57.8511  -23.8398   55.1902 O   0  0  0  0  0  0  0  0  0  0  0  0
  2  1  1  0
  1 13  1  0
  1 14  2  0
  3  2  1  1
  2 16  1  0
  2 28  1  1
  3  4  1  0
  4  5  1  0
  4 15  1  6
  6  5  1  0
  5 12  1  1
  6  7  1  0
  6 16  1  1
  7  8  1  0
  7 17  1  1
  8  9  1  0
  8 18  1  6
  9 19  1  6
 11 10  1  6
 12 10  1  0
 10 20  2  0
 21 22  1  0
 21 30  1  0
 21 76  1  6
 22 23  1  0
 22 27  1  6
 23 24  1  0
 23 28  1  6
 25 24  1  0
 24 29  1  6
 25 26  1  0
 25 30  1  6
 26 31  1  6
 32 29  1  1
 32 33  1  0
 32 43  1  0
 33 34  1  0
 33 40  1  6
 34 35  1  0
 34 41  1  1
 36 35  1  0
 35 42  1  1
 36 37  1  0
 36 43  1  6
 37 44  1  6
 39 38  1  6
 40 38  1  0
 38 45  2  0
 46 41  1  1
 46 47  1  0
 46 55  1  0
 47 48  1  0
 47 52  1  6
 48 49  1  0
 48 53  1  1
 50 49  1  0
 49 54  1  1
 50 51  1  0
 50 55  1  1
 51 56  1  6
 57 52  1  1
 57 58  1  0
 57 66  1  0
 58 59  1  0
 58 63  1  1
 59 60  1  0
 59 64  1  6
 61 60  1  0
 60 65  1  1
 62 61  1  6
 61 66  1  1
 68 67  1  0
 67 72  1  0
 67 74  1  6
 69 68  1  0
 68 75  1  1
 69 70  1  0
 69 76  1  6
 70 71  1  0
 70 77  1  1
 71 78  1  6
 72 73  1  1
 72 77  1  0
M  END
$$$$
