
     RDKit          3D

 78 83  0  0  0  0  0  0  0  0999 V2000
  -16.8036    5.4624   46.4667 C   0  0  0  0  0  0  0  0  0  0  0  0
  -17.4251    5.1645   45.1546 C   0  0  1  0  0  0  0  0  0  0  0  0
  -17.4612    3.6953   44.8526 C   0  0  0  0  0  0  0  0  0  0  0  0
  -18.1807    3.0118   45.9992 C   0  0  1  0  0  0  0  0  0  0  0  0
  -19.6064    3.5224   45.9956 C   0  0  2  0  0  0  0  0  0  0  0  0
  -19.5711    5.0268   46.0544 C   0  0  2  0  0  0  0  0  0  0  0  0
  -20.9907    5.5022   45.8265 C   0  0  1  0  0  0  0  0  0  0  0  0
  -21.0381    6.9809   45.4587 C   0  0  1  0  0  0  0  0  0  0  0  0
  -22.4683    7.4228   45.1994 C   0  0  0  0  0  0  0  0  0  0  0  0
  -21.5088    2.6366   47.4309 C   0  0  0  0  0  0  0  0  0  0  0  0
  -22.0629    2.2602   48.7776 C   0  0  0  0  0  0  0  0  0  0  0  0
  -20.1780    3.0834   47.2755 N   0  0  0  0  0  0  0  0  0  0  0  0
  -15.6143    4.8269   46.8947 O   0  0  0  0  0  0  0  0  0  0  0  0
  -17.2532    6.2793   47.3136 O   0  0  0  0  0  0  0  0  0  0  0  0
  -18.1248    1.6227   45.8722 O   0  0  0  0  0  0  0  0  0  0  0  0
  -18.7592    5.6141   45.1393 O   0  0  0  0  0  0  0  0  0  0  0  0
  -21.6486    4.7225   44.8989 O   0  0  0  0  0  0  0  0  0  0  0  0
  -20.5831    7.7725   46.5205 O   0  0  0  0  0  0  0  0  0  0  0  0
  -22.5401    8.7623   44.8273 O   0  0  0  0  0  0  0  0  0  0  0  0
  -22.2586    2.5478   46.4354 O   0  0  0  0  0  0  0  0  0  0  0  0
  -15.9967    9.4055   44.4030 C   0  0  1  0  0  0  0  0  0  0  0  0
  -16.3694    8.2219   43.5684 C   0  0  1  0  0  0  0  0  0  0  0  0
  -16.1347    6.9985   44.4674 C   0  0  2  0  0  0  0  0  0  0  0  0
  -14.6605    6.8702   44.6286 C   0  0  2  0  0  0  0  0  0  0  0  0
  -14.1301    8.2192   45.1505 C   0  0  1  0  0  0  0  0  0  0  0  0
  -13.0312    8.7860   44.3064 C   0  0  0  0  0  0  0  0  0  0  0  0
  -17.7185    8.3521   43.2092 O   0  0  0  0  0  0  0  0  0  0  0  0
  -16.8504    5.9281   44.1044 O   0  0  0  0  0  0  0  0  0  0  0  0
  -13.9595    6.4448   43.5155 O   0  0  0  0  0  0  0  0  0  0  0  0
  -15.1450    9.0733   45.4559 O   0  0  0  0  0  0  0  0  0  0  0  0
  -12.0751    9.4873   45.0094 O   0  0  0  0  0  0  0  0  0  0  0  0
  -14.6944    6.3607   42.3522 C   0  0  1  0  0  0  0  0  0  0  0  0
  -13.9008    6.2936   41.0591 C   0  0  1  0  0  0  0  0  0  0  0  0
  -13.7744    4.8959   40.5853 C   0  0  2  0  0  0  0  0  0  0  0  0
  -13.9352    3.9533   41.7284 C   0  0  2  0  0  0  0  0  0  0  0  0
  -15.3813    4.1260   42.1937 C   0  0  1  0  0  0  0  0  0  0  0  0
  -15.5932    3.1930   43.3373 C   0  0  0  0  0  0  0  0  0  0  0  0
  -14.3331    8.3165   39.6458 C   0  0  0  0  0  0  0  0  0  0  0  0
  -13.1427    9.0610   40.1634 C   0  0  0  0  0  0  0  0  0  0  0  0
  -14.6613    7.0041   40.0118 N   0  0  0  0  0  0  0  0  0  0  0  0
  -12.6930    4.6257   39.7501 O   0  0  0  0  0  0  0  0  0  0  0  0
  -13.0144    4.2242   42.7191 O   0  0  0  0  0  0  0  0  0  0  0  0
  -15.7146    5.4301   42.3902 O   0  0  0  0  0  0  0  0  0  0  0  0
  -16.9234    3.3466   43.7679 O   0  0  0  0  0  0  0  0  0  0  0  0
  -15.0612    8.9843   38.8132 O   0  0  0  0  0  0  0  0  0  0  0  0
  -12.9820    5.0891   38.4678 C   0  0  1  0  0  0  0  0  0  0  0  0
  -11.9976    4.8996   37.4199 C   0  0  1  0  0  0  0  0  0  0  0  0
  -12.2850    3.6011   36.6147 C   0  0  2  0  0  0  0  0  0  0  0  0
  -13.6317    3.5664   35.9931 C   0  0  2  0  0  0  0  0  0  0  0  0
  -14.5173    4.4380   36.8950 C   0  0  1  0  0  0  0  0  0  0  0  0
  -15.9470    4.0554   36.7311 C   0  0  0  0  0  0  0  0  0  0  0  0
  -11.7705    5.9030   36.5106 O   0  0  0  0  0  0  0  0  0  0  0  0
  -12.2919    2.5736   37.6129 O   0  0  0  0  0  0  0  0  0  0  0  0
  -14.2405    2.3146   35.9515 O   0  0  0  0  0  0  0  0  0  0  0  0
  -14.0883    4.0843   38.1728 O   0  0  0  0  0  0  0  0  0  0  0  0
  -16.6473    5.0297   35.9701 O   0  0  0  0  0  0  0  0  0  0  0  0
  -10.4613    6.2659   36.2766 C   0  0  1  0  0  0  0  0  0  0  0  0
  -10.4332    7.7170   35.8865 C   0  0  2  0  0  0  0  0  0  0  0  0
   -9.8157    8.6410   36.9045 C   0  0  1  0  0  0  0  0  0  0  0  0
  -10.0720    8.0319   38.2575 C   0  0  1  0  0  0  0  0  0  0  0  0
   -9.3498    6.6805   38.3154 C   0  0  2  0  0  0  0  0  0  0  0  0
   -7.8792    6.9203   38.6232 C   0  0  0  0  0  0  0  0  0  0  0  0
  -11.7599    8.2073   35.7560 O   0  0  0  0  0  0  0  0  0  0  0  0
   -8.4871    8.7950   36.6580 O   0  0  0  0  0  0  0  0  0  0  0  0
   -9.5455    8.8719   39.2397 O   0  0  0  0  0  0  0  0  0  0  0  0
   -9.5648    5.9148   37.2275 O   0  0  0  0  0  0  0  0  0  0  0  0
  -14.9730   13.8022   45.0294 C   0  0  2  0  0  0  0  0  0  0  0  0
  -14.8141   12.6922   43.9993 C   0  0  2  0  0  0  0  0  0  0  0  0
  -15.8670   11.6511   44.4370 C   0  0  1  0  0  0  0  0  0  0  0  0
  -17.1857   12.2592   44.1326 C   0  0  1  0  0  0  0  0  0  0  0  0
  -18.3497   11.3628   44.5703 C   0  0  0  0  0  0  0  0  0  0  0  0
  -16.3645   14.3595   44.7876 C   0  0  2  0  0  0  0  0  0  0  0  0
  -16.5978   15.3130   45.7826 O   0  0  0  0  0  0  0  0  0  0  0  0
  -14.0425   14.7798   44.7951 O   0  0  0  0  0  0  0  0  0  0  0  0
  -13.5491   12.1651   43.9640 O   0  0  0  0  0  0  0  0  0  0  0  0
  -15.5537   10.5154   43.7234 O   0  0  0  0  0  0  0  0  0  0  0  0
  -17.3466   13.4303   44.8424 O   0  0  0  0  0  0  0  0  0  0  0  0
  -19.5605   12.0216   44.2908 O   0  0  0  0  0  0  0  0  0  0  0  0
  2  1  1  0
  1 13  1  0
  1 14  2  0
  2  3  1  0
  2 16  1  0
  2 28  1  6
  3  4  1  0
  4  5  1  0
  4 15  1  6
  6  5  1  0
  5 12  1  1
  6  7  1  0
  6 16  1  6
  7  8  1  0
  7 17  1  6
  8  9  1  0
  8 18  1  1
  9 19  1  0
 10 11  1  0
 12 10  1  0
 10 20  2  0
 21 22  1  0
 21 30  1  0
 21 76  1  6
 22 23  1  0
 22 27  1  1
 23 24  1  0
 23 28  1  6
 25 24  1  0
 24 29  1  6
 25 26  1  6
 30 25  1  0
 26 31  1  0
 32 29  1  1
 32 33  1  0
 32 43  1  0
 33 34  1  0
 33 40  1  6
 34 35  1  0
 34 41  1  1
 36 35  1  0
 35 42  1  1
 36 37  1  1
 43 36  1  0
 37 44  1  0
 38 39  1  0
 40 38  1  0
 38 45  2  0
 46 41  1  1
 46 47  1  0
 46 55  1  0
 47 48  1  0
 47 52  1  6
 48 49  1  0
 48 53  1  1
 50 49  1  0
 49 54  1  1
 50 51  1  1
 55 50  1  0
 51 56  1  0
 57 52  1  1
 57 58  1  0
 57 66  1  0
 58 59  1  0
 58 63  1  1
 59 60  1  0
 59 64  1  6
 61 60  1  0
 60 65  1  1
 61 62  1  6
 66 61  1  0
 68 67  1  0
 67 72  1  0
 67 74  1  6
 69 68  1  0
 68 75  1  1
 69 70  1  0
 69 76  1  6
 70 71  1  1
 70 77  1  0
 71 78  1  0
 72 73  1  1
 72 77  1  0
M  END
$$$$
