
     RDKit          3D

 78 83  0  0  0  0  0  0  0  0999 V2000
  -58.2982  -25.9353   54.3717 C   0  0  0  0  0  0  0  0  0  0  0  0
  -56.8256  -25.9602   54.5374 C   0  0  1  0  0  0  0  0  0  0  0  0
  -56.0960  -25.6140   53.2729 C   0  0  0  0  0  0  0  0  0  0  0  0
  -56.6007  -24.2607   52.8112 C   0  0  1  0  0  0  0  0  0  0  0  0
  -56.2012  -23.2536   53.8692 C   0  0  2  0  0  0  0  0  0  0  0  0
  -56.7302  -23.7265   55.1975 C   0  0  2  0  0  0  0  0  0  0  0  0
  -56.1273  -22.8207   56.2507 C   0  0  1  0  0  0  0  0  0  0  0  0
  -56.3517  -23.3642   57.6573 C   0  0  1  0  0  0  0  0  0  0  0  0
  -55.6260  -22.5105   58.6834 C   0  0  0  0  0  0  0  0  0  0  0  0
  -56.3796  -20.8862   52.9594 C   0  0  0  0  0  0  0  0  0  0  0  0
  -57.2032  -19.6715   52.6304 C   0  0  0  0  0  0  0  0  0  0  0  0
  -56.9547  -22.0344   53.5474 N   0  0  0  0  0  0  0  0  0  0  0  0
  -59.1469  -25.2933   55.3039 O   0  0  0  0  0  0  0  0  0  0  0  0
  -58.9303  -26.4678   53.4211 O   0  0  0  0  0  0  0  0  0  0  0  0
  -56.0835  -23.9313   51.5570 O   0  0  0  0  0  0  0  0  0  0  0  0
  -56.4325  -25.0147   55.5037 O   0  0  0  0  0  0  0  0  0  0  0  0
  -54.7941  -22.5682   56.0060 O   0  0  0  0  0  0  0  0  0  0  0  0
  -57.7071  -23.3034   58.0038 O   0  0  0  0  0  0  0  0  0  0  0  0
  -55.9458  -22.8790   59.9871 O   0  0  0  0  0  0  0  0  0  0  0  0
  -55.1574  -20.8616   52.7013 O   0  0  0  0  0  0  0  0  0  0  0  0
  -54.4595  -26.6928   58.1224 C   0  0  1  0  0  0  0  0  0  0  0  0
  -54.6285  -27.3054   56.7686 C   0  0  1  0  0  0  0  0  0  0  0  0
  -56.1192  -27.1477   56.4326 C   0  0  2  0  0  0  0  0  0  0  0  0
  -56.8555  -28.0731   57.3365 C   0  0  2  0  0  0  0  0  0  0  0  0
  -56.4375  -27.7425   58.7820 C   0  0  1  0  0  0  0  0  0  0  0  0
  -55.9323  -28.9334   59.5356 C   0  0  0  0  0  0  0  0  0  0  0  0
  -53.8153  -26.6012   55.8692 O   0  0  0  0  0  0  0  0  0  0  0  0
  -56.3728  -27.1737   55.1192 O   0  0  0  0  0  0  0  0  0  0  0  0
  -56.7256  -29.4226   57.0658 O   0  0  0  0  0  0  0  0  0  0  0  0
  -55.6555  -26.6298   58.8364 O   0  0  0  0  0  0  0  0  0  0  0  0
  -56.9161  -29.8029   59.9554 O   0  0  0  0  0  0  0  0  0  0  0  0
  -57.3474  -29.8557   55.9142 C   0  0  1  0  0  0  0  0  0  0  0  0
  -57.9413  -31.2529   55.9555 C   0  0  1  0  0  0  0  0  0  0  0  0
  -59.3973  -31.2035   56.2232 C   0  0  2  0  0  0  0  0  0  0  0  0
  -59.7458  -29.9308   56.9159 C   0  0  2  0  0  0  0  0  0  0  0  0
  -59.4520  -28.8254   55.9013 C   0  0  1  0  0  0  0  0  0  0  0  0
  -59.7939  -27.5269   56.5494 C   0  0  0  0  0  0  0  0  0  0  0  0
  -56.5655  -32.3447   54.1690 C   0  0  0  0  0  0  0  0  0  0  0  0
  -55.3931  -32.6067   55.0614 C   0  0  0  0  0  0  0  0  0  0  0  0
  -57.8008  -31.8554   54.6150 N   0  0  0  0  0  0  0  0  0  0  0  0
  -59.9582  -32.3487   56.7833 O   0  0  0  0  0  0  0  0  0  0  0  0
  -59.0241  -29.7961   58.0838 O   0  0  0  0  0  0  0  0  0  0  0  0
  -58.2115  -28.9351   55.3539 O   0  0  0  0  0  0  0  0  0  0  0  0
  -61.1868  -27.5049   56.7442 O   0  0  0  0  0  0  0  0  0  0  0  0
  -56.3573  -32.6075   52.9213 O   0  0  0  0  0  0  0  0  0  0  0  0
  -60.2017  -33.2769   55.7725 C   0  0  1  0  0  0  0  0  0  0  0  0
  -60.3567  -34.6734   56.1312 C   0  0  1  0  0  0  0  0  0  0  0  0
  -61.8569  -35.0368   56.3178 C   0  0  2  0  0  0  0  0  0  0  0  0
  -62.6912  -34.7737   55.1195 C   0  0  2  0  0  0  0  0  0  0  0  0
  -61.9930  -33.6209   54.3842 C   0  0  1  0  0  0  0  0  0  0  0  0
  -62.9679  -32.9023   53.5178 C   0  0  0  0  0  0  0  0  0  0  0  0
  -59.7958  -35.6452   55.3399 O   0  0  0  0  0  0  0  0  0  0  0  0
  -62.3106  -34.1154   57.3165 O   0  0  0  0  0  0  0  0  0  0  0  0
  -63.9879  -34.3357   55.3767 O   0  0  0  0  0  0  0  0  0  0  0  0
  -61.6029  -32.7871   55.4303 O   0  0  0  0  0  0  0  0  0  0  0  0
  -63.1841  -31.5794   53.9890 O   0  0  0  0  0  0  0  0  0  0  0  0
  -58.6237  -36.2243   55.7772 C   0  0  1  0  0  0  0  0  0  0  0  0
  -58.8303  -37.7107   55.8595 C   0  0  2  0  0  0  0  0  0  0  0  0
  -58.0751  -38.5190   54.8359 C   0  0  1  0  0  0  0  0  0  0  0  0
  -57.9352  -37.6515   53.6131 C   0  0  1  0  0  0  0  0  0  0  0  0
  -57.0947  -36.4264   53.9924 C   0  0  2  0  0  0  0  0  0  0  0  0
  -55.6233  -36.8131   53.9736 C   0  0  0  0  0  0  0  0  0  0  0  0
  -60.1895  -38.0244   55.5920 O   0  0  0  0  0  0  0  0  0  0  0  0
  -56.8674  -38.8995   55.3320 O   0  0  0  0  0  0  0  0  0  0  0  0
  -57.2686  -38.3714   52.6207 O   0  0  0  0  0  0  0  0  0  0  0  0
  -57.4935  -35.8414   55.1390 O   0  0  0  0  0  0  0  0  0  0  0  0
  -51.9332  -26.2163   61.9981 C   0  0  2  0  0  0  0  0  0  0  0  0
  -51.9155  -26.8207   60.6006 C   0  0  2  0  0  0  0  0  0  0  0  0
  -53.2903  -26.4180   60.0244 C   0  0  1  0  0  0  0  0  0  0  0  0
  -53.2198  -24.9530   59.8003 C   0  0  1  0  0  0  0  0  0  0  0  0
  -54.5450  -24.3840   59.2805 C   0  0  0  0  0  0  0  0  0  0  0  0
  -51.9652  -24.7153   61.7712 C   0  0  2  0  0  0  0  0  0  0  0  0
  -52.0907  -24.1179   63.0286 O   0  0  0  0  0  0  0  0  0  0  0  0
  -50.7806  -26.5541   62.6568 O   0  0  0  0  0  0  0  0  0  0  0  0
  -51.7331  -28.1793   60.6019 O   0  0  0  0  0  0  0  0  0  0  0  0
  -53.4347  -27.1893   58.8925 O   0  0  0  0  0  0  0  0  0  0  0  0
  -52.9897  -24.2984   60.9919 O   0  0  0  0  0  0  0  0  0  0  0  0
  -54.6758  -23.0566   59.7269 O   0  0  0  0  0  0  0  0  0  0  0  0
  2  1  1  0
  1 13  1  0
  1 14  2  0
  2  3  1  0
  2 16  1  0
  2 28  1  1
  3  4  1  0
  4  5  1  0
  4 15  1  6
  6  5  1  0
  5 12  1  6
  6  7  1  0
  6 16  1  1
  7  8  1  0
  7 17  1  6
  8  9  1  0
  8 18  1  1
  9 19  1  0
 10 11  1  0
 12 10  1  0
 10 20  2  0
 21 22  1  0
 21 30  1  0
 21 76  1  1
 22 23  1  0
 22 27  1  6
 23 24  1  0
 23 28  1  6
 25 24  1  0
 24 29  1  6
 25 26  1  6
 30 25  1  0
 26 31  1  0
 32 29  1  1
 32 33  1  0
 32 43  1  0
 33 34  1  0
 33 40  1  6
 34 35  1  0
 34 41  1  1
 36 35  1  0
 35 42  1  1
 36 37  1  1
 43 36  1  0
 37 44  1  0
 38 39  1  0
 40 38  1  0
 38 45  2  0
 46 41  1  1
 46 47  1  0
 46 55  1  0
 47 48  1  0
 47 52  1  6
 48 49  1  0
 48 53  1  1
 50 49  1  0
 49 54  1  1
 50 51  1  6
 55 50  1  0
 51 56  1  0
 57 52  1  6
 57 58  1  0
 57 66  1  0
 58 59  1  0
 58 63  1  6
 59 60  1  0
 59 64  1  1
 61 60  1  0
 60 65  1  6
 61 62  1  1
 66 61  1  0
 68 67  1  0
 67 72  1  0
 67 74  1  1
 69 68  1  0
 68 75  1  1
 69 70  1  0
 69 76  1  6
 70 71  1  1
 70 77  1  0
 71 78  1  0
 72 73  1  1
 72 77  1  0
M  END
$$$$
