
     RDKit          3D

 78 83  0  0  0  0  0  0  0  0999 V2000
  -38.7125   -7.4068   62.9043 C   0  0  0  0  0  0  0  0  0  0  0  0
  -38.1343   -7.3184   64.2661 C   0  0  1  0  0  0  0  0  0  0  0  0
  -39.1135   -7.7033   65.3356 C   0  0  0  0  0  0  0  0  0  0  0  0
  -39.6165   -9.0970   65.0130 C   0  0  1  0  0  0  0  0  0  0  0  0
  -38.4289  -10.0313   65.1118 C   0  0  2  0  0  0  0  0  0  0  0  0
  -37.3390   -9.5090   64.2132 C   0  0  2  0  0  0  0  0  0  0  0  0
  -36.1039  -10.3349   64.5059 C   0  0  1  0  0  0  0  0  0  0  0  0
  -34.8640   -9.7516   63.8376 C   0  0  1  0  0  0  0  0  0  0  0  0
  -33.7552  -10.7878   63.7685 C   0  0  0  0  0  0  0  0  0  0  0  0
  -38.3066  -12.5515   64.7994 C   0  0  0  0  0  0  0  0  0  0  0  0
  -38.6903  -13.7884   64.0346 C   0  0  0  0  0  0  0  0  0  0  0  0
  -38.8775  -11.2929   64.5079 N   0  0  0  0  0  0  0  0  0  0  0  0
  -37.9012   -7.4393   61.7458 O   0  0  0  0  0  0  0  0  0  0  0  0
  -39.9433   -7.4554   62.6406 O   0  0  0  0  0  0  0  0  0  0  0  0
  -40.6477   -9.4726   65.8759 O   0  0  0  0  0  0  0  0  0  0  0  0
  -37.0399   -8.1963   64.3837 O   0  0  0  0  0  0  0  0  0  0  0  0
  -35.9184  -10.5156   65.8602 O   0  0  0  0  0  0  0  0  0  0  0  0
  -35.1348   -9.3968   62.5103 O   0  0  0  0  0  0  0  0  0  0  0  0
  -32.5879  -10.2655   63.2187 O   0  0  0  0  0  0  0  0  0  0  0  0
  -37.4588  -12.6573   65.7111 O   0  0  0  0  0  0  0  0  0  0  0  0
  -37.7315   -5.2835   68.0093 C   0  0  1  0  0  0  0  0  0  0  0  0
  -38.0339   -4.9571   66.5816 C   0  0  1  0  0  0  0  0  0  0  0  0
  -37.0864   -5.8371   65.7522 C   0  0  2  0  0  0  0  0  0  0  0  0
  -35.7163   -5.2932   65.9592 C   0  0  2  0  0  0  0  0  0  0  0  0
  -35.4587   -5.2458   67.4774 C   0  0  1  0  0  0  0  0  0  0  0  0
  -35.0389   -3.8927   67.9611 C   0  0  0  0  0  0  0  0  0  0  0  0
  -39.3792   -5.2705   66.3405 O   0  0  0  0  0  0  0  0  0  0  0  0
  -37.5226   -6.0598   64.5072 O   0  0  0  0  0  0  0  0  0  0  0  0
  -35.4452   -4.0775   65.3594 O   0  0  0  0  0  0  0  0  0  0  0  0
  -36.4642   -5.8406   68.1759 O   0  0  0  0  0  0  0  0  0  0  0  0
  -33.6772   -3.7359   68.1079 O   0  0  0  0  0  0  0  0  0  0  0  0
  -34.7741   -4.1494   64.1574 C   0  0  1  0  0  0  0  0  0  0  0  0
  -35.4536   -3.4941   62.9677 C   0  0  1  0  0  0  0  0  0  0  0  0
  -34.8997   -2.1434   62.7172 C   0  0  2  0  0  0  0  0  0  0  0  0
  -34.2927   -1.6013   63.9656 C   0  0  2  0  0  0  0  0  0  0  0  0
  -33.1012   -2.5119   64.2637 C   0  0  1  0  0  0  0  0  0  0  0  0
  -32.4541   -2.0022   65.5065 C   0  0  0  0  0  0  0  0  0  0  0  0
  -36.1515   -4.9315   61.0381 C   0  0  0  0  0  0  0  0  0  0  0  0
  -35.9161   -6.0718   60.0981 C   0  0  0  0  0  0  0  0  0  0  0  0
  -35.1397   -4.2857   61.7615 N   0  0  0  0  0  0  0  0  0  0  0  0
  -35.7288   -1.2562   62.0350 O   0  0  0  0  0  0  0  0  0  0  0  0
  -35.2188   -1.5737   64.9877 O   0  0  0  0  0  0  0  0  0  0  0  0
  -33.4321   -3.8310   64.2355 O   0  0  0  0  0  0  0  0  0  0  0  0
  -31.4860   -2.9451   65.8968 O   0  0  0  0  0  0  0  0  0  0  0  0
  -37.3876   -4.5702   61.1419 O   0  0  0  0  0  0  0  0  0  0  0  0
  -34.9788   -0.5798   61.0746 C   0  0  1  0  0  0  0  0  0  0  0  0
  -35.6753    0.1317   60.0202 C   0  0  1  0  0  0  0  0  0  0  0  0
  -35.8656    1.6295   60.3914 C   0  0  2  0  0  0  0  0  0  0  0  0
  -34.5956    2.3448   60.6686 C   0  0  2  0  0  0  0  0  0  0  0  0
  -33.6285    1.2694   61.1838 C   0  0  1  0  0  0  0  0  0  0  0  0
  -32.5539    1.8976   62.0011 C   0  0  0  0  0  0  0  0  0  0  0  0
  -35.1926    0.0868   58.7356 O   0  0  0  0  0  0  0  0  0  0  0  0
  -36.5671    1.5864   61.6397 O   0  0  0  0  0  0  0  0  0  0  0  0
  -34.6593    3.3138   61.6667 O   0  0  0  0  0  0  0  0  0  0  0  0
  -34.4450    0.4985   62.0089 O   0  0  0  0  0  0  0  0  0  0  0  0
  -31.2902    1.7612   61.3660 O   0  0  0  0  0  0  0  0  0  0  0  0
  -36.0396   -0.3801   57.7532 C   0  0  1  0  0  0  0  0  0  0  0  0
  -35.2610   -0.5025   56.4736 C   0  0  2  0  0  0  0  0  0  0  0  0
  -35.0126   -1.9144   56.0087 C   0  0  1  0  0  0  0  0  0  0  0  0
  -34.9406   -2.7731   57.2435 C   0  0  1  0  0  0  0  0  0  0  0  0
  -36.3041   -2.7164   57.9427 C   0  0  2  0  0  0  0  0  0  0  0  0
  -37.2563   -3.6761   57.2446 C   0  0  0  0  0  0  0  0  0  0  0  0
  -33.9532    0.0221   56.6526 O   0  0  0  0  0  0  0  0  0  0  0  0
  -36.0020   -2.3151   55.1660 O   0  0  0  0  0  0  0  0  0  0  0  0
  -34.6776   -4.0902   56.8648 O   0  0  0  0  0  0  0  0  0  0  0  0
  -36.7845   -1.4640   58.0720 O   0  0  0  0  0  0  0  0  0  0  0  0
  -39.2449   -4.7004   72.2516 C   0  0  2  0  0  0  0  0  0  0  0  0
  -39.3739   -4.3881   70.7668 C   0  0  2  0  0  0  0  0  0  0  0  0
  -38.0082   -4.8252   70.1943 C   0  0  1  0  0  0  0  0  0  0  0  0
  -37.9967   -6.3071   70.2661 C   0  0  1  0  0  0  0  0  0  0  0  0
  -36.6668   -6.8982   69.7843 C   0  0  0  0  0  0  0  0  0  0  0  0
  -39.1292   -6.2128   72.3212 C   0  0  2  0  0  0  0  0  0  0  0  0
  -38.9006   -6.5405   73.6606 O   0  0  0  0  0  0  0  0  0  0  0  0
  -40.3808   -4.2989   72.9034 O   0  0  0  0  0  0  0  0  0  0  0  0
  -39.6423   -3.0679   70.5139 O   0  0  0  0  0  0  0  0  0  0  0  0
  -37.9723   -4.2881   68.9264 O   0  0  0  0  0  0  0  0  0  0  0  0
  -38.1222   -6.7225   71.5749 O   0  0  0  0  0  0  0  0  0  0  0  0
  -36.6410   -8.2702   70.0931 O   0  0  0  0  0  0  0  0  0  0  0  0
  2  1  1  0
  1 13  1  0
  1 14  2  0
  2  3  1  0
  2 16  1  0
  2 28  1  1
  3  4  1  0
  4  5  1  0
  4 15  1  1
  6  5  1  0
  5 12  1  6
  6  7  1  0
  6 16  1  1
  7  8  1  0
  7 17  1  1
  8  9  1  0
  8 18  1  6
  9 19  1  0
 10 11  1  0
 12 10  1  0
 10 20  2  0
 21 22  1  0
 21 30  1  0
 21 76  1  1
 22 23  1  0
 22 27  1  6
 23 24  1  0
 23 28  1  6
 25 24  1  0
 24 29  1  1
 25 26  1  1
 30 25  1  0
 26 31  1  0
 32 29  1  1
 32 33  1  0
 32 43  1  0
 33 34  1  0
 33 40  1  6
 34 35  1  0
 34 41  1  1
 36 35  1  0
 35 42  1  1
 36 37  1  1
 43 36  1  0
 37 44  1  0
 38 39  1  0
 40 38  1  0
 38 45  2  0
 46 41  1  1
 46 47  1  0
 46 55  1  0
 47 48  1  0
 47 52  1  6
 48 49  1  0
 48 53  1  1
 50 49  1  0
 49 54  1  1
 50 51  1  1
 55 50  1  0
 51 56  1  0
 57 52  1  1
 57 58  1  0
 57 66  1  0
 58 59  1  0
 58 63  1  1
 59 60  1  0
 59 64  1  6
 61 60  1  0
 60 65  1  6
 61 62  1  6
 66 61  1  0
 68 67  1  0
 67 72  1  0
 67 74  1  1
 69 68  1  0
 68 75  1  1
 69 70  1  0
 69 76  1  6
 70 71  1  1
 70 77  1  0
 71 78  1  0
 72 73  1  1
 72 77  1  0
M  END
$$$$
