
     RDKit          3D

 78 83  0  0  0  0  0  0  0  0999 V2000
  -39.9892   -5.0607   65.1584 C   0  0  0  0  0  0  0  0  0  0  0  0
  -38.7347   -5.8048   65.4219 C   0  0  1  0  0  0  0  0  0  0  0  0
  -38.3537   -5.7994   66.8730 C   0  0  0  0  0  0  0  0  0  0  0  0
  -39.5282   -6.3553   67.6548 C   0  0  1  0  0  0  0  0  0  0  0  0
  -39.7043   -7.7968   67.2258 C   0  0  2  0  0  0  0  0  0  0  0  0
  -39.8460   -7.8312   65.7269 C   0  0  2  0  0  0  0  0  0  0  0  0
  -39.7968   -9.2892   65.3208 C   0  0  1  0  0  0  0  0  0  0  0  0
  -39.4876   -9.4513   63.8368 C   0  0  1  0  0  0  0  0  0  0  0  0
  -39.2483  -10.9123   63.4960 C   0  0  0  0  0  0  0  0  0  0  0  0
  -42.1644   -8.3853   66.9695 C   0  0  0  0  0  0  0  0  0  0  0  0
  -42.1178   -8.2746   65.4703 C   0  0  0  0  0  0  0  0  0  0  0  0
  -41.0097   -8.2038   67.7623 N   0  0  0  0  0  0  0  0  0  0  0  0
  -40.5873   -5.0294   63.8767 O   0  0  0  0  0  0  0  0  0  0  0  0
  -40.6316   -4.3960   66.0140 O   0  0  0  0  0  0  0  0  0  0  0  0
  -39.3159   -6.2436   69.0301 O   0  0  0  0  0  0  0  0  0  0  0  0
  -38.8860   -7.1537   65.0478 O   0  0  0  0  0  0  0  0  0  0  0  0
  -38.9235  -10.0102   66.1075 O   0  0  0  0  0  0  0  0  0  0  0  0
  -40.5790   -9.0532   63.0549 O   0  0  0  0  0  0  0  0  0  0  0  0
  -39.0072  -11.0973   62.1375 O   0  0  0  0  0  0  0  0  0  0  0  0
  -43.2596   -8.6467   67.5110 O   0  0  0  0  0  0  0  0  0  0  0  0
  -34.7219   -7.3698   65.0749 C   0  0  1  0  0  0  0  0  0  0  0  0
  -35.4049   -6.0408   65.0149 C   0  0  1  0  0  0  0  0  0  0  0  0
  -36.7376   -6.2989   64.2958 C   0  0  2  0  0  0  0  0  0  0  0  0
  -36.4008   -6.5904   62.8754 C   0  0  2  0  0  0  0  0  0  0  0  0
  -35.3797   -7.7440   62.8665 C   0  0  1  0  0  0  0  0  0  0  0  0
  -34.1337   -7.4211   62.1020 C   0  0  0  0  0  0  0  0  0  0  0  0
  -35.6013   -5.5943   66.3295 O   0  0  0  0  0  0  0  0  0  0  0  0
  -37.6758   -5.3864   64.5735 O   0  0  0  0  0  0  0  0  0  0  0  0
  -35.9636   -5.5187   62.1194 O   0  0  0  0  0  0  0  0  0  0  0  0
  -35.1951   -8.2606   64.1122 O   0  0  0  0  0  0  0  0  0  0  0  0
  -34.0373   -8.0458   60.8770 O   0  0  0  0  0  0  0  0  0  0  0  0
  -36.0775   -4.2850   62.7238 C   0  0  1  0  0  0  0  0  0  0  0  0
  -34.9949   -3.2722   62.3940 C   0  0  1  0  0  0  0  0  0  0  0  0
  -35.4490   -2.3325   61.3429 C   0  0  2  0  0  0  0  0  0  0  0  0
  -36.5365   -2.9557   60.5367 C   0  0  2  0  0  0  0  0  0  0  0  0
  -37.7085   -3.1266   61.5035 C   0  0  1  0  0  0  0  0  0  0  0  0
  -38.8290   -3.7429   60.7368 C   0  0  0  0  0  0  0  0  0  0  0  0
  -33.5483   -1.7501   63.7604 C   0  0  0  0  0  0  0  0  0  0  0  0
  -33.2342   -0.8834   64.9392 C   0  0  0  0  0  0  0  0  0  0  0  0
  -34.7536   -2.4454   63.5932 N   0  0  0  0  0  0  0  0  0  0  0  0
  -34.4479   -1.7134   60.5982 O   0  0  0  0  0  0  0  0  0  0  0  0
  -36.1147   -4.1476   59.9850 O   0  0  0  0  0  0  0  0  0  0  0  0
  -37.3441   -3.7369   62.6633 O   0  0  0  0  0  0  0  0  0  0  0  0
  -39.7642   -4.2268   61.6694 O   0  0  0  0  0  0  0  0  0  0  0  0
  -32.6057   -1.8172   62.8794 O   0  0  0  0  0  0  0  0  0  0  0  0
  -34.8693   -0.4324   60.2462 C   0  0  1  0  0  0  0  0  0  0  0  0
  -34.0518    0.3443   59.3344 C   0  0  1  0  0  0  0  0  0  0  0  0
  -34.5441    0.1808   57.8687 C   0  0  2  0  0  0  0  0  0  0  0  0
  -35.9606    0.5721   57.6645 C   0  0  2  0  0  0  0  0  0  0  0  0
  -36.6472    0.3299   59.0163 C   0  0  1  0  0  0  0  0  0  0  0  0
  -38.1113    0.1424   58.8196 C   0  0  0  0  0  0  0  0  0  0  0  0
  -33.8716    1.6870   59.5580 O   0  0  0  0  0  0  0  0  0  0  0  0
  -34.4966   -1.2338   57.6475 O   0  0  0  0  0  0  0  0  0  0  0  0
  -36.6644   -0.1888   56.7346 O   0  0  0  0  0  0  0  0  0  0  0  0
  -36.0796   -0.8727   59.4326 O   0  0  0  0  0  0  0  0  0  0  0  0
  -38.8001    1.3794   58.9380 O   0  0  0  0  0  0  0  0  0  0  0  0
  -32.8104    2.3006   58.9274 C   0  0  1  0  0  0  0  0  0  0  0  0
  -32.2705    3.3684   59.8369 C   0  0  2  0  0  0  0  0  0  0  0  0
  -30.9088    3.0856   60.4173 C   0  0  1  0  0  0  0  0  0  0  0  0
  -30.7914    1.5897   60.5437 C   0  0  1  0  0  0  0  0  0  0  0  0
  -30.8629    0.9862   59.1360 C   0  0  2  0  0  0  0  0  0  0  0  0
  -29.4969    1.1089   58.4771 C   0  0  0  0  0  0  0  0  0  0  0  0
  -33.1003    3.4906   60.9832 O   0  0  0  0  0  0  0  0  0  0  0  0
  -29.9380    3.6076   59.6206 O   0  0  0  0  0  0  0  0  0  0  0  0
  -29.5547    1.2784   61.1102 O   0  0  0  0  0  0  0  0  0  0  0  0
  -31.8753    1.4796   58.3958 O   0  0  0  0  0  0  0  0  0  0  0  0
  -30.8450   -9.7842   65.9178 C   0  0  2  0  0  0  0  0  0  0  0  0
  -31.3466   -8.3665   65.6782 C   0  0  2  0  0  0  0  0  0  0  0  0
  -32.8799   -8.5393   65.6225 C   0  0  1  0  0  0  0  0  0  0  0  0
  -33.3004   -8.8564   67.0096 C   0  0  1  0  0  0  0  0  0  0  0  0
  -34.8074   -9.1192   67.1103 C   0  0  0  0  0  0  0  0  0  0  0  0
  -31.3620  -10.1505   67.2976 C   0  0  2  0  0  0  0  0  0  0  0  0
  -31.0164  -11.4867   67.5184 O   0  0  0  0  0  0  0  0  0  0  0  0
  -29.4753   -9.7888   65.9273 O   0  0  0  0  0  0  0  0  0  0  0  0
  -30.8475   -7.8035   64.5323 O   0  0  0  0  0  0  0  0  0  0  0  0
  -33.3479   -7.3480   65.1138 O   0  0  0  0  0  0  0  0  0  0  0  0
  -32.7022  -10.0238   67.4346 O   0  0  0  0  0  0  0  0  0  0  0  0
  -35.1294   -9.4098   68.4482 O   0  0  0  0  0  0  0  0  0  0  0  0
  2  1  1  0
  1 13  1  0
  1 14  2  0
  2  3  1  0
  2 16  1  0
  2 28  1  6
  3  4  1  0
  4  5  1  0
  4 15  1  1
  6  5  1  0
  5 12  1  1
  6  7  1  0
  6 16  1  6
  7  8  1  0
  7 17  1  1
  8  9  1  0
  8 18  1  6
  9 19  1  0
 10 11  1  0
 12 10  1  0
 10 20  2  0
 21 22  1  0
 21 30  1  0
 21 76  1  6
 22 23  1  0
 22 27  1  1
 23 24  1  0
 23 28  1  6
 25 24  1  0
 24 29  1  1
 25 26  1  1
 30 25  1  0
 26 31  1  0
 32 29  1  6
 32 33  1  0
 32 43  1  0
 33 34  1  0
 33 40  1  1
 34 35  1  0
 34 41  1  6
 36 35  1  0
 35 42  1  1
 36 37  1  6
 43 36  1  0
 37 44  1  0
 38 39  1  0
 40 38  1  0
 38 45  2  0
 46 41  1  6
 46 47  1  0
 46 55  1  0
 47 48  1  0
 47 52  1  1
 48 49  1  0
 48 53  1  1
 50 49  1  0
 49 54  1  6
 50 51  1  6
 55 50  1  0
 51 56  1  0
 57 52  1  1
 57 58  1  0
 57 66  1  0
 58 59  1  0
 58 63  1  1
 59 60  1  0
 59 64  1  6
 61 60  1  0
 60 65  1  6
 61 62  1  6
 66 61  1  0
 68 67  1  0
 67 72  1  0
 67 74  1  1
 69 68  1  0
 68 75  1  6
 69 70  1  0
 69 76  1  1
 70 71  1  6
 70 77  1  0
 71 78  1  0
 72 73  1  6
 72 77  1  0
M  END
$$$$
