
     RDKit          3D

 78 83  0  0  0  0  0  0  0  0999 V2000
  -50.2283    5.4483   42.5200 C   0  0  0  0  0  0  0  0  0  0  0  0
  -50.3925    6.6985   43.4693 C   0  0  1  0  0  0  0  0  0  0  0  0
  -49.6724    7.8588   42.7729 C   0  0  0  0  0  0  0  0  0  0  0  0
  -50.4711    8.4800   41.6390 C   0  0  1  0  0  0  0  0  0  0  0  0
  -51.9828    8.5802   41.9299 C   0  0  2  0  0  0  0  0  0  0  0  0
  -52.3233    8.2233   43.3939 C   0  0  2  0  0  0  0  0  0  0  0  0
  -52.0033    9.2747   44.4989 C   0  0  1  0  0  0  0  0  0  0  0  0
  -52.9046    9.2210   45.7554 C   0  0  1  0  0  0  0  0  0  0  0  0
  -53.4450   10.6144   46.1208 C   0  0  0  0  0  0  0  0  0  0  0  0
  -53.4702    8.2101   39.9792 C   0  0  0  0  0  0  0  0  0  0  0  0
  -54.5656    7.2990   39.5158 C   0  0  0  0  0  0  0  0  0  0  0  0
  -52.7151    7.6905   41.0085 N   0  0  0  0  0  0  0  0  0  0  0  0
  -51.0329    4.4039   42.8238 O   0  0  0  0  0  0  0  0  0  0  0  0
  -49.4745    5.3583   41.5607 O   0  0  0  0  0  0  0  0  0  0  0  0
  -49.8815    9.7522   41.3577 O   0  0  0  0  0  0  0  0  0  0  0  0
  -51.7720    6.9281   43.7332 O   0  0  0  0  0  0  0  0  0  0  0  0
  -50.6595    9.0130   44.9477 O   0  0  0  0  0  0  0  0  0  0  0  0
  -54.0537    8.3871   45.5347 O   0  0  0  0  0  0  0  0  0  0  0  0
  -54.3128   10.5172   47.2570 O   0  0  0  0  0  0  0  0  0  0  0  0
  -53.2647    9.3093   39.4795 O   0  0  0  0  0  0  0  0  0  0  0  0
  -46.3840    8.3872   45.2255 C   0  0  1  0  0  0  0  0  0  0  0  0
  -47.3652    7.3120   44.7025 C   0  0  1  0  0  0  0  0  0  0  0  0
  -48.8201    7.6715   45.0705 C   0  0  2  0  0  0  0  0  0  0  0  0
  -48.9174    7.9454   46.5936 C   0  0  2  0  0  0  0  0  0  0  0  0
  -47.8969    9.0325   46.9611 C   0  0  1  0  0  0  0  0  0  0  0  0
  -47.8696    9.3307   48.4603 C   0  0  0  0  0  0  0  0  0  0  0  0
  -47.2582    7.1396   43.2792 O   0  0  0  0  0  0  0  0  0  0  0  0
  -49.6843    6.5621   44.7174 O   0  0  0  0  0  0  0  0  0  0  0  0
  -48.6094    6.7486   47.3301 O   0  0  0  0  0  0  0  0  0  0  0  0
  -46.5696    8.6137   46.6130 O   0  0  0  0  0  0  0  0  0  0  0  0
  -48.4126   10.6395   48.6627 O   0  0  0  0  0  0  0  0  0  0  0  0
  -49.7229    6.2333   48.0652 C   0  0  1  0  0  0  0  0  0  0  0  0
  -49.3505    6.1708   49.5676 C   0  0  1  0  0  0  0  0  0  0  0  0
  -50.5222    5.5364   50.3557 C   0  0  2  0  0  0  0  0  0  0  0  0
  -51.8366    5.5850   49.5510 C   0  0  2  0  0  0  0  0  0  0  0  0
  -51.9628    6.8688   48.7115 C   0  0  1  0  0  0  0  0  0  0  0  0
  -52.1482    8.1515   49.5356 C   0  0  0  0  0  0  0  0  0  0  0  0
  -48.0057    4.0791   49.4631 C   0  0  0  0  0  0  0  0  0  0  0  0
  -47.0990    3.7747   48.2956 C   0  0  0  0  0  0  0  0  0  0  0  0
  -48.0888    5.4199   49.7765 N   0  0  0  0  0  0  0  0  0  0  0  0
  -50.7922    6.2386   51.5827 O   0  0  0  0  0  0  0  0  0  0  0  0
  -52.9654    5.4052   50.4083 O   0  0  0  0  0  0  0  0  0  0  0  0
  -50.8507    7.0715   47.8145 O   0  0  0  0  0  0  0  0  0  0  0  0
  -53.0954    8.9970   48.8720 O   0  0  0  0  0  0  0  0  0  0  0  0
  -48.6145    3.1998   50.0689 O   0  0  0  0  0  0  0  0  0  0  0  0
  -51.9906    5.8242   52.2451 C   0  0  1  0  0  0  0  0  0  0  0  0
  -51.8167    6.0965   53.7524 C   0  0  1  0  0  0  0  0  0  0  0  0
  -53.1382    5.8645   54.4937 C   0  0  2  0  0  0  0  0  0  0  0  0
  -54.3298    6.5231   53.7971 C   0  0  2  0  0  0  0  0  0  0  0  0
  -54.3293    6.1615   52.3028 C   0  0  1  0  0  0  0  0  0  0  0  0
  -55.4724    6.8367   51.5377 C   0  0  0  0  0  0  0  0  0  0  0  0
  -50.8546    5.1443   54.2408 O   0  0  0  0  0  0  0  0  0  0  0  0
  -53.0496    6.3801   55.8341 O   0  0  0  0  0  0  0  0  0  0  0  0
  -54.2200    7.9451   54.0126 O   0  0  0  0  0  0  0  0  0  0  0  0
  -53.0927    6.5487   51.6962 O   0  0  0  0  0  0  0  0  0  0  0  0
  -55.4210    8.2514   51.6913 O   0  0  0  0  0  0  0  0  0  0  0  0
  -49.5538    5.6915   54.4524 C   0  0  1  0  0  0  0  0  0  0  0  0
  -48.7426    4.6018   55.1819 C   0  0  2  0  0  0  0  0  0  0  0  0
  -47.2418    4.9049   55.2069 C   0  0  1  0  0  0  0  0  0  0  0  0
  -46.9220    6.2915   54.6255 C   0  0  1  0  0  0  0  0  0  0  0  0
  -47.6214    6.4832   53.2592 C   0  0  2  0  0  0  0  0  0  0  0  0
  -47.6397    7.9349   52.8047 C   0  0  0  0  0  0  0  0  0  0  0  0
  -48.9310    3.3278   54.5055 O   0  0  0  0  0  0  0  0  0  0  0  0
  -46.7541    4.8421   56.5621 O   0  0  0  0  0  0  0  0  0  0  0  0
  -47.3313    7.2760   55.5991 O   0  0  0  0  0  0  0  0  0  0  0  0
  -48.9671    6.0003   53.1890 O   0  0  0  0  0  0  0  0  0  0  0  0
  -41.4332    8.9969   45.1821 C   0  0  2  0  0  0  0  0  0  0  0  0
  -42.6315    8.0767   45.4708 C   0  0  2  0  0  0  0  0  0  0  0  0
  -43.9862    8.7844   45.2947 C   0  0  1  0  0  0  0  0  0  0  0  0
  -43.8821    9.7764   44.1180 C   0  0  1  0  0  0  0  0  0  0  0  0
  -45.2043   10.5261   43.9045 C   0  0  0  0  0  0  0  0  0  0  0  0
  -41.8249   10.4857   45.1722 C   0  0  2  0  0  0  0  0  0  0  0  0
  -42.2074   10.9367   46.4551 O   0  0  0  0  0  0  0  0  0  0  0  0
  -40.8772    8.6317   43.9062 O   0  0  0  0  0  0  0  0  0  0  0  0
  -42.5196    7.5930   46.8274 O   0  0  0  0  0  0  0  0  0  0  0  0
  -45.0684    7.8844   44.9962 O   0  0  0  0  0  0  0  0  0  0  0  0
  -42.8753   10.7953   44.2655 O   0  0  0  0  0  0  0  0  0  0  0  0
  -46.2199    9.9778   44.7477 O   0  0  0  0  0  0  0  0  0  0  0  0
  2  1  1  0
  1 13  1  0
  1 14  2  0
  3  2  1  1
  2 16  1  0
  2 28  1  1
  3  4  1  0
  4  5  1  0
  4 15  1  1
  6  5  1  0
  5 12  1  6
  6  7  1  0
  6 16  1  1
  7  8  1  0
  7 17  1  1
  8  9  1  0
  8 18  1  6
  9 19  1  6
 11 10  1  6
 12 10  1  0
 10 20  2  0
 21 22  1  0
 21 30  1  0
 21 76  1  1
 22 23  1  0
 22 27  1  6
 23 24  1  0
 23 28  1  1
 25 24  1  0
 24 29  1  1
 25 26  1  0
 25 30  1  1
 26 31  1  6
 32 29  1  6
 32 33  1  0
 32 43  1  0
 33 34  1  0
 33 40  1  6
 34 35  1  0
 34 41  1  1
 36 35  1  0
 35 42  1  1
 36 37  1  0
 36 43  1  1
 37 44  1  6
 39 38  1  6
 40 38  1  0
 38 45  2  0
 46 41  1  6
 46 47  1  0
 46 55  1  0
 47 48  1  0
 47 52  1  1
 48 49  1  0
 48 53  1  1
 50 49  1  0
 49 54  1  6
 50 51  1  0
 50 55  1  6
 51 56  1  6
 57 52  1  6
 57 58  1  0
 57 66  1  0
 58 59  1  0
 58 63  1  6
 59 60  1  0
 59 64  1  1
 61 60  1  0
 60 65  1  1
 62 61  1  6
 61 66  1  1
 68 67  1  0
 67 72  1  0
 67 74  1  6
 69 68  1  0
 68 75  1  1
 69 70  1  0
 69 76  1  6
 70 71  1  0
 70 77  1  1
 71 78  1  6
 72 73  1  1
 72 77  1  0
M  END
$$$$
