
     RDKit          3D

 78 83  0  0  0  0  0  0  0  0999 V2000
  -52.8458  -27.9693   55.0155 C   0  0  0  0  0  0  0  0  0  0  0  0
  -54.1848  -27.2097   55.3636 C   0  0  1  0  0  0  0  0  0  0  0  0
  -54.2833  -27.2007   56.8934 C   0  0  0  0  0  0  0  0  0  0  0  0
  -53.3951  -26.1606   57.5558 C   0  0  1  0  0  0  0  0  0  0  0  0
  -53.3239  -24.8265   56.7844 C   0  0  2  0  0  0  0  0  0  0  0  0
  -54.3388  -24.7667   55.6212 C   0  0  2  0  0  0  0  0  0  0  0  0
  -55.8393  -24.5287   55.9683 C   0  0  1  0  0  0  0  0  0  0  0  0
  -56.4972  -23.3033   55.2902 C   0  0  1  0  0  0  0  0  0  0  0  0
  -57.9951  -23.2091   55.6286 C   0  0  0  0  0  0  0  0  0  0  0  0
  -51.1801  -23.5804   56.7078 C   0  0  0  0  0  0  0  0  0  0  0  0
  -49.9826  -23.3152   55.8473 C   0  0  0  0  0  0  0  0  0  0  0  0
  -51.9539  -24.6341   56.2714 N   0  0  0  0  0  0  0  0  0  0  0  0
  -52.5087  -27.9402   53.7055 O   0  0  0  0  0  0  0  0  0  0  0  0
  -52.1099  -28.5443   55.8057 O   0  0  0  0  0  0  0  0  0  0  0  0
  -53.8691  -25.9950   58.8949 O   0  0  0  0  0  0  0  0  0  0  0  0
  -54.1807  -25.9205   54.7609 O   0  0  0  0  0  0  0  0  0  0  0  0
  -56.5628  -25.6874   55.5102 O   0  0  0  0  0  0  0  0  0  0  0  0
  -55.9023  -22.0769   55.7446 O   0  0  0  0  0  0  0  0  0  0  0  0
  -58.4704  -21.8825   55.3677 O   0  0  0  0  0  0  0  0  0  0  0  0
  -51.4365  -22.9241   57.7095 O   0  0  0  0  0  0  0  0  0  0  0  0
  -58.1655  -25.3453   54.9713 C   0  0  1  0  0  0  0  0  0  0  0  0
  -56.9150  -26.1115   55.4627 C   0  0  1  0  0  0  0  0  0  0  0  0
  -56.4272  -27.1097   54.3916 C   0  0  2  0  0  0  0  0  0  0  0  0
  -57.6059  -28.0161   53.9521 C   0  0  2  0  0  0  0  0  0  0  0  0
  -58.7634  -27.1211   53.4858 C   0  0  1  0  0  0  0  0  0  0  0  0
  -60.0036  -27.9225   53.0896 C   0  0  0  0  0  0  0  0  0  0  0  0
  -55.8439  -25.2174   55.8095 O   0  0  0  0  0  0  0  0  0  0  0  0
  -55.3675  -27.9244   54.9534 O   0  0  0  0  0  0  0  0  0  0  0  0
  -58.0526  -28.8160   55.0612 O   0  0  0  0  0  0  0  0  0  0  0  0
  -59.1763  -26.2427   54.5424 O   0  0  0  0  0  0  0  0  0  0  0  0
  -60.2775  -27.6634   51.7088 O   0  0  0  0  0  0  0  0  0  0  0  0
  -58.4115  -30.1498   54.6896 C   0  0  1  0  0  0  0  0  0  0  0  0
  -58.2451  -31.0782   55.9185 C   0  0  1  0  0  0  0  0  0  0  0  0
  -58.5525  -32.5364   55.4993 C   0  0  2  0  0  0  0  0  0  0  0  0
  -59.3547  -32.5890   54.1835 C   0  0  2  0  0  0  0  0  0  0  0  0
  -60.3621  -31.4316   54.0645 C   0  0  1  0  0  0  0  0  0  0  0  0
  -61.5346  -31.5051   55.0538 C   0  0  0  0  0  0  0  0  0  0  0  0
  -56.2000  -29.7626   56.4492 C   0  0  0  0  0  0  0  0  0  0  0  0
  -54.7385  -29.9068   56.1014 C   0  0  0  0  0  0  0  0  0  0  0  0
  -56.8867  -30.9579   56.5015 N   0  0  0  0  0  0  0  0  0  0  0  0
  -59.3604  -33.2209   56.4741 O   0  0  0  0  0  0  0  0  0  0  0  0
  -59.9922  -33.8581   54.0264 O   0  0  0  0  0  0  0  0  0  0  0  0
  -59.7498  -30.1312   54.1940 O   0  0  0  0  0  0  0  0  0  0  0  0
  -62.5007  -32.4408   54.5603 O   0  0  0  0  0  0  0  0  0  0  0  0
  -56.7184  -28.6700   56.6692 O   0  0  0  0  0  0  0  0  0  0  0  0
  -59.0991  -34.6240   56.5725 C   0  0  1  0  0  0  0  0  0  0  0  0
  -58.9724  -34.9783   58.0674 C   0  0  1  0  0  0  0  0  0  0  0  0
  -58.8944  -36.4980   58.2521 C   0  0  2  0  0  0  0  0  0  0  0  0
  -59.9551  -37.2465   57.4436 C   0  0  2  0  0  0  0  0  0  0  0  0
  -59.9536  -36.7491   55.9888 C   0  0  1  0  0  0  0  0  0  0  0  0
  -61.0341  -37.4256   55.1387 C   0  0  0  0  0  0  0  0  0  0  0  0
  -57.7356  -34.4057   58.5291 O   0  0  0  0  0  0  0  0  0  0  0  0
  -59.0556  -36.8355   59.6415 O   0  0  0  0  0  0  0  0  0  0  0  0
  -61.2241  -37.0253   58.0927 O   0  0  0  0  0  0  0  0  0  0  0  0
  -60.1675  -35.3351   55.9448 O   0  0  0  0  0  0  0  0  0  0  0  0
  -60.9934  -36.9543   53.7957 O   0  0  0  0  0  0  0  0  0  0  0  0
  -56.6890  -35.3582   58.7128 C   0  0  1  0  0  0  0  0  0  0  0  0
  -56.9461  -36.0206   60.0813 C   0  0  2  0  0  0  0  0  0  0  0  0
  -56.0994  -37.2790   60.2927 C   0  0  1  0  0  0  0  0  0  0  0  0
  -55.0934  -37.4978   59.1513 C   0  0  1  0  0  0  0  0  0  0  0  0
  -55.7960  -37.3862   57.7778 C   0  0  2  0  0  0  0  0  0  0  0  0
  -54.8154  -37.2391   56.6241 C   0  0  0  0  0  0  0  0  0  0  0  0
  -58.3467  -36.4021   60.1758 O   0  0  0  0  0  0  0  0  0  0  0  0
  -55.3798  -37.1790   61.5379 O   0  0  0  0  0  0  0  0  0  0  0  0
  -54.0361  -36.5278   59.3118 O   0  0  0  0  0  0  0  0  0  0  0  0
  -56.7474  -36.3229   57.6631 O   0  0  0  0  0  0  0  0  0  0  0  0
  -61.4543  -22.1753   56.9534 C   0  0  2  0  0  0  0  0  0  0  0  0
  -60.7160  -23.5247   56.9591 C   0  0  2  0  0  0  0  0  0  0  0  0
  -59.7067  -23.6599   55.8058 C   0  0  1  0  0  0  0  0  0  0  0  0
  -59.0572  -22.2850   55.5468 C   0  0  1  0  0  0  0  0  0  0  0  0
  -58.0489  -22.3554   54.3917 C   0  0  0  0  0  0  0  0  0  0  0  0
  -61.3213  -21.4386   55.6081 C   0  0  2  0  0  0  0  0  0  0  0  0
  -61.9945  -22.1180   54.5685 O   0  0  0  0  0  0  0  0  0  0  0  0
  -60.9174  -21.3593   58.0099 O   0  0  0  0  0  0  0  0  0  0  0  0
  -61.6956  -24.5818   56.8612 O   0  0  0  0  0  0  0  0  0  0  0  0
  -58.6415  -24.5868   56.0823 O   0  0  0  0  0  0  0  0  0  0  0  0
  -59.9754  -21.2316   55.1994 O   0  0  0  0  0  0  0  0  0  0  0  0
  -58.2394  -21.2490   53.5070 O   0  0  0  0  0  0  0  0  0  0  0  0
  2  1  1  0
  1 13  1  0
  1 14  2  0
  3  2  1  1
  2 16  1  0
  2 28  1  6
  3  4  1  0
  4  5  1  0
  4 15  1  1
  6  5  1  0
  5 12  1  6
  6  7  1  0
  6 16  1  1
  7  8  1  0
  7 17  1  6
  8  9  1  0
  8 18  1  1
  9 19  1  6
 11 10  1  6
 12 10  1  0
 10 20  2  0
 21 22  1  0
 21 30  1  0
 21 76  1  1
 22 23  1  0
 22 27  1  6
 23 24  1  0
 23 28  1  1
 25 24  1  0
 24 29  1  1
 25 26  1  0
 25 30  1  1
 26 31  1  6
 32 29  1  1
 32 33  1  0
 32 43  1  0
 33 34  1  0
 33 40  1  6
 34 35  1  0
 34 41  1  1
 36 35  1  0
 35 42  1  1
 36 37  1  0
 36 43  1  1
 37 44  1  6
 39 38  1  6
 40 38  1  0
 38 45  2  0
 46 41  1  1
 46 47  1  0
 46 55  1  0
 47 48  1  0
 47 52  1  6
 48 49  1  0
 48 53  1  1
 50 49  1  0
 49 54  1  1
 50 51  1  0
 50 55  1  1
 51 56  1  6
 57 52  1  6
 57 58  1  0
 57 66  1  0
 58 59  1  0
 58 63  1  6
 59 60  1  0
 59 64  1  1
 61 60  1  0
 60 65  1  6
 62 61  1  6
 61 66  1  1
 68 67  1  0
 67 72  1  0
 67 74  1  1
 69 68  1  0
 68 75  1  6
 69 70  1  0
 69 76  1  1
 70 71  1  0
 70 77  1  6
 71 78  1  6
 72 73  1  6
 72 77  1  0
M  END
$$$$
