
     RDKit          3D

 78 83  0  0  0  0  0  0  0  0999 V2000
  -36.5395   -9.7423   66.2560 C   0  0  0  0  0  0  0  0  0  0  0  0
  -36.0905   -8.4592   65.4539 C   0  0  1  0  0  0  0  0  0  0  0  0
  -34.5902   -8.2935   65.7218 C   0  0  0  0  0  0  0  0  0  0  0  0
  -33.7178   -9.2373   64.9107 C   0  0  1  0  0  0  0  0  0  0  0  0
  -34.2192   -9.4572   63.4685 C   0  0  2  0  0  0  0  0  0  0  0  0
  -35.3775   -8.5043   63.0985 C   0  0  2  0  0  0  0  0  0  0  0  0
  -35.0332   -7.0157   62.7913 C   0  0  1  0  0  0  0  0  0  0  0  0
  -36.0086   -6.2860   61.8372 C   0  0  1  0  0  0  0  0  0  0  0  0
  -35.4553   -6.2280   60.4027 C   0  0  0  0  0  0  0  0  0  0  0  0
  -33.7923  -11.8035   62.7851 C   0  0  0  0  0  0  0  0  0  0  0  0
  -34.4530  -13.1132   62.4800 C   0  0  0  0  0  0  0  0  0  0  0  0
  -34.6481  -10.8602   63.3116 N   0  0  0  0  0  0  0  0  0  0  0  0
  -36.0321   -9.8275   67.5073 O   0  0  0  0  0  0  0  0  0  0  0  0
  -37.2922  -10.6212   65.8589 O   0  0  0  0  0  0  0  0  0  0  0  0
  -32.3853   -8.7197   64.9550 O   0  0  0  0  0  0  0  0  0  0  0  0
  -36.4368   -8.6010   64.0808 O   0  0  0  0  0  0  0  0  0  0  0  0
  -35.0818   -6.3084   64.0455 O   0  0  0  0  0  0  0  0  0  0  0  0
  -37.2679   -6.9732   61.7571 O   0  0  0  0  0  0  0  0  0  0  0  0
  -36.4069   -5.5931   59.5395 O   0  0  0  0  0  0  0  0  0  0  0  0
  -32.6003  -11.5999   62.5909 O   0  0  0  0  0  0  0  0  0  0  0  0
  -37.3026   -5.9776   69.4990 C   0  0  1  0  0  0  0  0  0  0  0  0
  -37.6260   -6.4928   68.0769 C   0  0  1  0  0  0  0  0  0  0  0  0
  -36.3389   -6.9285   67.3455 C   0  0  2  0  0  0  0  0  0  0  0  0
  -35.3006   -5.7778   67.3926 C   0  0  2  0  0  0  0  0  0  0  0  0
  -35.0775   -5.3804   68.8591 C   0  0  1  0  0  0  0  0  0  0  0  0
  -34.1128   -4.2039   69.0092 C   0  0  0  0  0  0  0  0  0  0  0  0
  -38.5567   -7.5882   68.1054 O   0  0  0  0  0  0  0  0  0  0  0  0
  -36.6617   -7.2391   65.9665 O   0  0  0  0  0  0  0  0  0  0  0  0
  -35.7966   -4.6367   66.6705 O   0  0  0  0  0  0  0  0  0  0  0  0
  -36.3118   -4.9638   69.4600 O   0  0  0  0  0  0  0  0  0  0  0  0
  -34.0559   -3.8503   70.3950 O   0  0  0  0  0  0  0  0  0  0  0  0
  -35.0851   -4.3816   65.4561 C   0  0  1  0  0  0  0  0  0  0  0  0
  -36.0154   -3.6244   64.4758 C   0  0  1  0  0  0  0  0  0  0  0  0
  -35.2773   -3.4196   63.1305 C   0  0  2  0  0  0  0  0  0  0  0  0
  -33.7528   -3.5859   63.2911 C   0  0  2  0  0  0  0  0  0  0  0  0
  -33.2433   -3.0473   64.6399 C   0  0  1  0  0  0  0  0  0  0  0  0
  -33.3267   -1.5209   64.7872 C   0  0  0  0  0  0  0  0  0  0  0  0
  -38.3166   -3.7910   63.5421 C   0  0  0  0  0  0  0  0  0  0  0  0
  -39.6563   -4.4573   63.7396 C   0  0  0  0  0  0  0  0  0  0  0  0
  -37.2963   -4.3473   64.2854 N   0  0  0  0  0  0  0  0  0  0  0  0
  -35.4698   -2.0941   62.6039 O   0  0  0  0  0  0  0  0  0  0  0  0
  -33.0574   -2.9931   62.1927 O   0  0  0  0  0  0  0  0  0  0  0  0
  -33.9068   -3.6421   65.7751 O   0  0  0  0  0  0  0  0  0  0  0  0
  -32.1819   -1.0613   65.5157 O   0  0  0  0  0  0  0  0  0  0  0  0
  -38.1618   -2.8401   62.7787 O   0  0  0  0  0  0  0  0  0  0  0  0
  -35.2676   -1.9881   61.1915 C   0  0  1  0  0  0  0  0  0  0  0  0
  -35.4367   -0.5070   60.7990 C   0  0  1  0  0  0  0  0  0  0  0  0
  -35.0340   -0.2924   59.3355 C   0  0  2  0  0  0  0  0  0  0  0  0
  -33.7043   -0.9615   58.9846 C   0  0  2  0  0  0  0  0  0  0  0  0
  -33.7069   -2.4203   59.4699 C   0  0  1  0  0  0  0  0  0  0  0  0
  -32.3774   -3.1304   59.1939 C   0  0  0  0  0  0  0  0  0  0  0  0
  -36.8358   -0.1971   60.9299 O   0  0  0  0  0  0  0  0  0  0  0  0
  -34.9265    1.1146   59.0542 O   0  0  0  0  0  0  0  0  0  0  0  0
  -32.6574   -0.1847   59.6019 O   0  0  0  0  0  0  0  0  0  0  0  0
  -33.9630   -2.4776   60.8764 O   0  0  0  0  0  0  0  0  0  0  0  0
  -31.6092   -2.4152   58.2317 O   0  0  0  0  0  0  0  0  0  0  0  0
  -37.6338   -0.6467   59.8356 C   0  0  1  0  0  0  0  0  0  0  0  0
  -37.2521    0.2395   58.6328 C   0  0  2  0  0  0  0  0  0  0  0  0
  -37.7847   -0.3101   57.3063 C   0  0  1  0  0  0  0  0  0  0  0  0
  -38.6923   -1.5337   57.5099 C   0  0  1  0  0  0  0  0  0  0  0  0
  -38.0122   -2.5673   58.4384 C   0  0  2  0  0  0  0  0  0  0  0  0
  -38.9805   -3.6183   58.9600 C   0  0  0  0  0  0  0  0  0  0  0  0
  -35.8029    0.3196   58.5347 O   0  0  0  0  0  0  0  0  0  0  0  0
  -38.5287    0.7149   56.6175 O   0  0  0  0  0  0  0  0  0  0  0  0
  -39.9496   -1.0594   58.0380 O   0  0  0  0  0  0  0  0  0  0  0  0
  -37.3339   -2.0165   59.5721 O   0  0  0  0  0  0  0  0  0  0  0  0
  -39.4173   -3.7358   73.3051 C   0  0  2  0  0  0  0  0  0  0  0  0
  -38.7562   -3.8446   71.9205 C   0  0  2  0  0  0  0  0  0  0  0  0
  -38.5803   -5.2999   71.4536 C   0  0  1  0  0  0  0  0  0  0  0  0
  -39.7882   -6.1288   71.9368 C   0  0  1  0  0  0  0  0  0  0  0  0
  -39.6594   -7.5982   71.5122 C   0  0  0  0  0  0  0  0  0  0  0  0
  -39.3931   -5.0693   74.0740 C   0  0  2  0  0  0  0  0  0  0  0  0
  -38.0794   -5.4454   74.4319 O   0  0  0  0  0  0  0  0  0  0  0  0
  -40.7775   -3.3020   73.1262 O   0  0  0  0  0  0  0  0  0  0  0  0
  -37.4629   -3.2038   71.9801 O   0  0  0  0  0  0  0  0  0  0  0  0
  -38.5157   -5.4389   70.0229 O   0  0  0  0  0  0  0  0  0  0  0  0
  -39.9824   -6.1506   73.3634 O   0  0  0  0  0  0  0  0  0  0  0  0
  -40.7531   -8.3564   72.0337 O   0  0  0  0  0  0  0  0  0  0  0  0
  2  1  1  0
  1 13  1  0
  1 14  2  0
  3  2  1  1
  2 16  1  0
  2 28  1  1
  3  4  1  0
  4  5  1  0
  4 15  1  6
  6  5  1  0
  5 12  1  1
  6  7  1  0
  6 16  1  1
  7  8  1  0
  7 17  1  1
  8  9  1  0
  8 18  1  6
  9 19  1  6
 11 10  1  6
 12 10  1  0
 10 20  2  0
 21 22  1  0
 21 30  1  0
 21 76  1  6
 22 23  1  0
 22 27  1  1
 23 24  1  0
 23 28  1  6
 25 24  1  0
 24 29  1  6
 25 26  1  0
 25 30  1  6
 26 31  1  6
 32 29  1  1
 32 33  1  0
 32 43  1  0
 33 34  1  0
 33 40  1  6
 34 35  1  0
 34 41  1  1
 36 35  1  0
 35 42  1  6
 36 37  1  0
 36 43  1  1
 37 44  1  6
 39 38  1  6
 40 38  1  0
 38 45  2  0
 46 41  1  1
 46 47  1  0
 46 55  1  0
 47 48  1  0
 47 52  1  6
 48 49  1  0
 48 53  1  1
 50 49  1  0
 49 54  1  1
 50 51  1  0
 50 55  1  1
 51 56  1  6
 57 52  1  1
 57 58  1  0
 57 66  1  0
 58 59  1  0
 58 63  1  6
 59 60  1  0
 59 64  1  1
 61 60  1  0
 60 65  1  1
 62 61  1  6
 61 66  1  1
 68 67  1  0
 67 72  1  0
 67 74  1  6
 69 68  1  0
 68 75  1  1
 69 70  1  0
 69 76  1  6
 70 71  1  0
 70 77  1  1
 71 78  1  6
 72 73  1  6
 72 77  1  0
M  END
$$$$
