
     RDKit          3D

 78 83  0  0  0  0  0  0  0  0999 V2000
  -54.8095  -27.3405   58.8625 C   0  0  0  0  0  0  0  0  0  0  0  0
  -55.5393  -26.7012   57.7421 C   0  0  1  0  0  0  0  0  0  0  0  0
  -56.2403  -25.4403   58.1540 C   0  0  0  0  0  0  0  0  0  0  0  0
  -55.2015  -24.5196   58.7645 C   0  0  1  0  0  0  0  0  0  0  0  0
  -54.2197  -24.1683   57.6664 C   0  0  2  0  0  0  0  0  0  0  0  0
  -53.6886  -25.4489   57.0781 C   0  0  2  0  0  0  0  0  0  0  0  0
  -52.8903  -25.0627   55.8506 C   0  0  1  0  0  0  0  0  0  0  0  0
  -52.5362  -26.2791   55.0025 C   0  0  1  0  0  0  0  0  0  0  0  0
  -51.5012  -25.9161   53.9513 C   0  0  0  0  0  0  0  0  0  0  0  0
  -52.2096  -22.6132   57.7368 C   0  0  0  0  0  0  0  0  0  0  0  0
  -51.6176  -22.8685   56.3779 C   0  0  0  0  0  0  0  0  0  0  0  0
  -53.0828  -23.5383   58.3505 N   0  0  0  0  0  0  0  0  0  0  0  0
  -53.5090  -27.8738   58.7031 O   0  0  0  0  0  0  0  0  0  0  0  0
  -55.2540  -27.4780   60.0331 O   0  0  0  0  0  0  0  0  0  0  0  0
  -55.7968  -23.3828   59.3141 O   0  0  0  0  0  0  0  0  0  0  0  0
  -54.6390  -26.3484   56.7187 O   0  0  0  0  0  0  0  0  0  0  0  0
  -53.5287  -24.0906   55.1100 O   0  0  0  0  0  0  0  0  0  0  0  0
  -51.9459  -27.2777   55.7870 O   0  0  0  0  0  0  0  0  0  0  0  0
  -51.3704  -26.9093   52.9846 O   0  0  0  0  0  0  0  0  0  0  0  0
  -51.9125  -21.5505   58.3229 O   0  0  0  0  0  0  0  0  0  0  0  0
  -58.9858  -25.9068   55.2568 C   0  0  1  0  0  0  0  0  0  0  0  0
  -58.5534  -26.9252   56.2630 C   0  0  1  0  0  0  0  0  0  0  0  0
  -57.0542  -27.1413   56.0066 C   0  0  2  0  0  0  0  0  0  0  0  0
  -56.9478  -27.8581   54.7063 C   0  0  2  0  0  0  0  0  0  0  0  0
  -57.7133  -27.0318   53.6553 C   0  0  1  0  0  0  0  0  0  0  0  0
  -58.7496  -27.8262   52.9229 C   0  0  0  0  0  0  0  0  0  0  0  0
  -58.7920  -26.4006   57.5412 O   0  0  0  0  0  0  0  0  0  0  0  0
  -56.3964  -27.6133   57.0716 O   0  0  0  0  0  0  0  0  0  0  0  0
  -57.3494  -29.1810   54.7040 O   0  0  0  0  0  0  0  0  0  0  0  0
  -58.1275  -25.8376   54.1600 O   0  0  0  0  0  0  0  0  0  0  0  0
  -58.8867  -27.4961   51.5916 O   0  0  0  0  0  0  0  0  0  0  0  0
  -57.7312  -29.6837   55.9295 C   0  0  1  0  0  0  0  0  0  0  0  0
  -58.0250  -31.1727   55.9834 C   0  0  1  0  0  0  0  0  0  0  0  0
  -56.8615  -31.9251   56.5071 C   0  0  2  0  0  0  0  0  0  0  0  0
  -55.6106  -31.1437   56.2935 C   0  0  2  0  0  0  0  0  0  0  0  0
  -55.7561  -29.9007   57.1717 C   0  0  1  0  0  0  0  0  0  0  0  0
  -54.5190  -29.0871   56.9964 C   0  0  0  0  0  0  0  0  0  0  0  0
  -60.4553  -31.4084   56.5442 C   0  0  0  0  0  0  0  0  0  0  0  0
  -61.6208  -31.4553   57.4817 C   0  0  0  0  0  0  0  0  0  0  0  0
  -59.1152  -31.3946   56.9541 N   0  0  0  0  0  0  0  0  0  0  0  0
  -56.7838  -33.2674   56.1437 O   0  0  0  0  0  0  0  0  0  0  0  0
  -55.4438  -30.8432   54.9575 O   0  0  0  0  0  0  0  0  0  0  0  0
  -56.9448  -29.2659   56.9855 O   0  0  0  0  0  0  0  0  0  0  0  0
  -54.8420  -27.7536   57.3061 O   0  0  0  0  0  0  0  0  0  0  0  0
  -60.7760  -31.3805   55.2930 O   0  0  0  0  0  0  0  0  0  0  0  0
  -57.8599  -33.9533   56.7041 C   0  0  1  0  0  0  0  0  0  0  0  0
  -58.0047  -35.3692   56.4264 C   0  0  1  0  0  0  0  0  0  0  0  0
  -57.3522  -36.2259   57.5479 C   0  0  2  0  0  0  0  0  0  0  0  0
  -57.9027  -35.9631   58.9004 C   0  0  2  0  0  0  0  0  0  0  0  0
  -58.3877  -34.5068   58.8650 C   0  0  1  0  0  0  0  0  0  0  0  0
  -58.4375  -33.9510   60.2456 C   0  0  0  0  0  0  0  0  0  0  0  0
  -59.2519  -35.8912   56.1863 O   0  0  0  0  0  0  0  0  0  0  0  0
  -55.9961  -35.7658   57.5849 O   0  0  0  0  0  0  0  0  0  0  0  0
  -56.9853  -36.0370   59.9454 O   0  0  0  0  0  0  0  0  0  0  0  0
  -57.3781  -33.8691   58.1468 O   0  0  0  0  0  0  0  0  0  0  0  0
  -59.4920  -34.5429   60.9915 O   0  0  0  0  0  0  0  0  0  0  0  0
  -59.3970  -36.7152   55.0907 C   0  0  1  0  0  0  0  0  0  0  0  0
  -60.7949  -37.2671   55.0935 C   0  0  2  0  0  0  0  0  0  0  0  0
  -61.6889  -36.7496   53.9961 C   0  0  1  0  0  0  0  0  0  0  0  0
  -61.2263  -35.3519   53.6804 C   0  0  1  0  0  0  0  0  0  0  0  0
  -59.7903  -35.4344   53.1493 C   0  0  2  0  0  0  0  0  0  0  0  0
  -59.8300  -35.8293   51.6804 C   0  0  0  0  0  0  0  0  0  0  0  0
  -61.4667  -36.8733   56.2813 O   0  0  0  0  0  0  0  0  0  0  0  0
  -61.6243  -37.5656   52.9100 O   0  0  0  0  0  0  0  0  0  0  0  0
  -62.0485  -34.8156   52.6885 O   0  0  0  0  0  0  0  0  0  0  0  0
  -58.9871  -36.2097   53.9043 O   0  0  0  0  0  0  0  0  0  0  0  0
  -61.4653  -23.8652   52.1981 C   0  0  2  0  0  0  0  0  0  0  0  0
  -61.3888  -25.1701   52.9790 C   0  0  2  0  0  0  0  0  0  0  0  0
  -60.6560  -24.7630   54.2757 C   0  0  1  0  0  0  0  0  0  0  0  0
  -61.6171  -23.9267   55.0361 C   0  0  1  0  0  0  0  0  0  0  0  0
  -61.0105  -23.3879   56.3369 C   0  0  0  0  0  0  0  0  0  0  0  0
  -62.3676  -22.9691   53.0276 C   0  0  2  0  0  0  0  0  0  0  0  0
  -62.3820  -21.7187   52.4030 O   0  0  0  0  0  0  0  0  0  0  0  0
  -62.0462  -24.0955   50.9791 O   0  0  0  0  0  0  0  0  0  0  0  0
  -60.7313  -26.1658   52.3041 O   0  0  0  0  0  0  0  0  0  0  0  0
  -60.3033  -25.9557   54.8674 O   0  0  0  0  0  0  0  0  0  0  0  0
  -61.9570  -22.8071   54.3066 O   0  0  0  0  0  0  0  0  0  0  0  0
  -61.7214  -22.2390   56.7280 O   0  0  0  0  0  0  0  0  0  0  0  0
  2  1  1  0
  1 13  1  0
  1 14  2  0
  2  3  1  0
  2 16  1  0
  2 28  1  6
  3  4  1  0
  4  5  1  0
  4 15  1  6
  6  5  1  0
  5 12  1  1
  6  7  1  0
  6 16  1  6
  7  8  1  0
  7 17  1  6
  8  9  1  0
  8 18  1  1
  9 19  1  0
 10 11  1  0
 12 10  1  0
 10 20  2  0
 21 22  1  0
 21 30  1  0
 21 76  1  6
 22 23  1  0
 22 27  1  1
 23 24  1  0
 23 28  1  1
 25 24  1  0
 24 29  1  1
 25 26  1  1
 30 25  1  0
 26 31  1  0
 32 29  1  6
 32 33  1  0
 32 43  1  0
 33 34  1  0
 33 40  1  1
 34 35  1  0
 34 41  1  6
 36 35  1  0
 35 42  1  6
 36 37  1  6
 43 36  1  0
 37 44  1  0
 38 39  1  0
 40 38  1  0
 38 45  2  0
 46 41  1  6
 46 47  1  0
 46 55  1  0
 47 48  1  0
 47 52  1  1
 48 49  1  0
 48 53  1  1
 50 49  1  0
 49 54  1  1
 50 51  1  1
 55 50  1  0
 51 56  1  0
 57 52  1  1
 57 58  1  0
 57 66  1  0
 58 59  1  0
 58 63  1  1
 59 60  1  0
 59 64  1  6
 61 60  1  0
 60 65  1  6
 61 62  1  6
 66 61  1  0
 68 67  1  0
 67 72  1  0
 67 74  1  6
 69 68  1  0
 68 75  1  6
 69 70  1  0
 69 76  1  1
 70 71  1  1
 70 77  1  0
 71 78  1  0
 72 73  1  6
 72 77  1  0
M  END
$$$$
