
     RDKit          3D

 78 83  0  0  0  0  0  0  0  0999 V2000
  -37.0779   -7.7841   62.4063 C   0  0  0  0  0  0  0  0  0  0  0  0
  -37.2314   -7.3673   63.9208 C   0  0  1  0  0  0  0  0  0  0  0  0
  -38.7378   -7.2478   64.1785 C   0  0  0  0  0  0  0  0  0  0  0  0
  -39.4329   -8.5863   64.3651 C   0  0  1  0  0  0  0  0  0  0  0  0
  -38.5981   -9.6111   65.1606 C   0  0  2  0  0  0  0  0  0  0  0  0
  -37.3285   -8.9819   65.7761 C   0  0  2  0  0  0  0  0  0  0  0  0
  -37.4933   -8.0814   67.0373 C   0  0  1  0  0  0  0  0  0  0  0  0
  -36.5173   -8.3747   68.2016 C   0  0  1  0  0  0  0  0  0  0  0  0
  -36.7215   -7.3929   69.3685 C   0  0  0  0  0  0  0  0  0  0  0  0
  -39.1707  -11.6578   63.8810 C   0  0  0  0  0  0  0  0  0  0  0  0
  -38.5870  -12.8597   63.2031 C   0  0  0  0  0  0  0  0  0  0  0  0
  -38.2292  -10.7309   64.2737 N   0  0  0  0  0  0  0  0  0  0  0  0
  -37.4277   -6.8222   61.5215 O   0  0  0  0  0  0  0  0  0  0  0  0
  -36.6687   -8.8577   61.9859 O   0  0  0  0  0  0  0  0  0  0  0  0
  -40.6996   -8.3205   64.9735 O   0  0  0  0  0  0  0  0  0  0  0  0
  -36.5592   -8.3067   64.7520 O   0  0  0  0  0  0  0  0  0  0  0  0
  -37.2368   -6.7266   66.6196 O   0  0  0  0  0  0  0  0  0  0  0  0
  -36.7301   -9.6904   68.7385 O   0  0  0  0  0  0  0  0  0  0  0  0
  -36.0568   -7.8837   70.5394 O   0  0  0  0  0  0  0  0  0  0  0  0
  -40.3740  -11.5143   64.0583 O   0  0  0  0  0  0  0  0  0  0  0  0
  -34.5085   -5.1085   67.1405 C   0  0  1  0  0  0  0  0  0  0  0  0
  -35.8142   -5.3598   66.3502 C   0  0  1  0  0  0  0  0  0  0  0  0
  -35.5097   -5.9840   64.9721 C   0  0  2  0  0  0  0  0  0  0  0  0
  -34.4642   -5.1137   64.2279 C   0  0  2  0  0  0  0  0  0  0  0  0
  -33.2285   -4.9589   65.1264 C   0  0  1  0  0  0  0  0  0  0  0  0
  -32.1592   -4.0594   64.5058 C   0  0  0  0  0  0  0  0  0  0  0  0
  -36.7200   -6.2103   67.0734 O   0  0  0  0  0  0  0  0  0  0  0  0
  -36.7352   -6.0429   64.1995 O   0  0  0  0  0  0  0  0  0  0  0  0
  -35.0105   -3.8105   63.9578 O   0  0  0  0  0  0  0  0  0  0  0  0
  -33.5880   -4.3492   66.3744 O   0  0  0  0  0  0  0  0  0  0  0  0
  -30.9904   -4.1259   65.3294 O   0  0  0  0  0  0  0  0  0  0  0  0
  -35.0988   -3.5115   62.5618 C   0  0  1  0  0  0  0  0  0  0  0  0
  -35.8469   -2.1672   62.3800 C   0  0  1  0  0  0  0  0  0  0  0  0
  -36.0177   -1.8811   60.8682 C   0  0  2  0  0  0  0  0  0  0  0  0
  -35.0363   -2.7154   60.0206 C   0  0  2  0  0  0  0  0  0  0  0  0
  -33.6726   -2.8959   60.7109 C   0  0  1  0  0  0  0  0  0  0  0  0
  -32.8429   -1.6086   60.8259 C   0  0  0  0  0  0  0  0  0  0  0  0
  -37.3705   -3.0198   64.1538 C   0  0  0  0  0  0  0  0  0  0  0  0
  -38.7610   -3.6039   64.2103 C   0  0  0  0  0  0  0  0  0  0  0  0
  -37.1549   -2.1827   63.0787 N   0  0  0  0  0  0  0  0  0  0  0  0
  -35.7402   -0.5068   60.5428 O   0  0  0  0  0  0  0  0  0  0  0  0
  -34.8929   -2.1587   58.7125 O   0  0  0  0  0  0  0  0  0  0  0  0
  -33.7759   -3.4792   62.0269 O   0  0  0  0  0  0  0  0  0  0  0  0
  -31.9563   -1.7258   61.9451 O   0  0  0  0  0  0  0  0  0  0  0  0
  -36.5167   -3.2724   65.0013 O   0  0  0  0  0  0  0  0  0  0  0  0
  -36.9069    0.3041   60.3753 C   0  0  1  0  0  0  0  0  0  0  0  0
  -36.4607    1.7796   60.3676 C   0  0  1  0  0  0  0  0  0  0  0  0
  -37.6336    2.6911   59.9891 C   0  0  2  0  0  0  0  0  0  0  0  0
  -38.4032    2.1869   58.7675 C   0  0  2  0  0  0  0  0  0  0  0  0
  -38.7428    0.6973   58.9394 C   0  0  1  0  0  0  0  0  0  0  0  0
  -39.4697    0.1191   57.7208 C   0  0  0  0  0  0  0  0  0  0  0  0
  -36.0572    2.1013   61.7109 O   0  0  0  0  0  0  0  0  0  0  0  0
  -37.1570    4.0204   59.7131 O   0  0  0  0  0  0  0  0  0  0  0  0
  -37.5755    2.4260   57.6107 O   0  0  0  0  0  0  0  0  0  0  0  0
  -37.5509   -0.0645   59.1545 O   0  0  0  0  0  0  0  0  0  0  0  0
  -38.5919   -0.6850   56.9395 O   0  0  0  0  0  0  0  0  0  0  0  0
  -34.6530    2.3067   61.8607 C   0  0  1  0  0  0  0  0  0  0  0  0
  -34.4077    2.5153   63.3687 C   0  0  2  0  0  0  0  0  0  0  0  0
  -32.9236    2.4385   63.7382 C   0  0  1  0  0  0  0  0  0  0  0  0
  -32.0243    2.3156   62.4977 C   0  0  1  0  0  0  0  0  0  0  0  0
  -32.5399    1.1984   61.5602 C   0  0  2  0  0  0  0  0  0  0  0  0
  -31.9206    1.2609   60.1721 C   0  0  0  0  0  0  0  0  0  0  0  0
  -35.1096    1.4843   64.1175 O   0  0  0  0  0  0  0  0  0  0  0  0
  -32.5434    3.6167   64.4768 O   0  0  0  0  0  0  0  0  0  0  0  0
  -31.9935    3.6073   61.8533 O   0  0  0  0  0  0  0  0  0  0  0  0
  -33.9602    1.1522   61.3888 O   0  0  0  0  0  0  0  0  0  0  0  0
  -33.3894   -3.5104   71.7053 C   0  0  2  0  0  0  0  0  0  0  0  0
  -33.7183   -3.2762   70.2211 C   0  0  2  0  0  0  0  0  0  0  0  0
  -34.0441   -4.5773   69.4674 C   0  0  1  0  0  0  0  0  0  0  0  0
  -34.8073   -5.5255   70.4149 C   0  0  1  0  0  0  0  0  0  0  0  0
  -35.1464   -6.8513   69.7197 C   0  0  0  0  0  0  0  0  0  0  0  0
  -33.0734   -4.9857   72.0112 C   0  0  2  0  0  0  0  0  0  0  0  0
  -31.8701   -5.4028   71.4000 O   0  0  0  0  0  0  0  0  0  0  0  0
  -34.5140   -3.0803   72.4931 O   0  0  0  0  0  0  0  0  0  0  0  0
  -32.5837   -2.6356   69.5973 O   0  0  0  0  0  0  0  0  0  0  0  0
  -34.8742   -4.3763   68.3095 O   0  0  0  0  0  0  0  0  0  0  0  0
  -34.1018   -5.8850   71.6176 O   0  0  0  0  0  0  0  0  0  0  0  0
  -33.9832   -7.6791   69.6496 O   0  0  0  0  0  0  0  0  0  0  0  0
  2  1  1  0
  1 13  1  0
  1 14  2  0
  3  2  1  1
  2 16  1  0
  2 28  1  6
  3  4  1  0
  4  5  1  0
  4 15  1  1
  6  5  1  0
  5 12  1  6
  6  7  1  0
  6 16  1  6
  7  8  1  0
  7 17  1  6
  8  9  1  0
  8 18  1  1
  9 19  1  6
 11 10  1  6
 12 10  1  0
 10 20  2  0
 21 22  1  0
 21 30  1  0
 21 76  1  1
 22 23  1  0
 22 27  1  1
 23 24  1  0
 23 28  1  6
 25 24  1  0
 24 29  1  1
 25 26  1  0
 25 30  1  1
 26 31  1  6
 32 29  1  1
 32 33  1  0
 32 43  1  0
 33 34  1  0
 33 40  1  1
 34 35  1  0
 34 41  1  1
 36 35  1  0
 35 42  1  6
 36 37  1  0
 36 43  1  1
 37 44  1  6
 39 38  1  6
 40 38  1  0
 38 45  2  0
 46 41  1  6
 46 47  1  0
 46 55  1  0
 47 48  1  0
 47 52  1  1
 48 49  1  0
 48 53  1  6
 50 49  1  0
 49 54  1  6
 50 51  1  0
 50 55  1  6
 51 56  1  6
 57 52  1  1
 57 58  1  0
 57 66  1  0
 58 59  1  0
 58 63  1  1
 59 60  1  0
 59 64  1  6
 61 60  1  0
 60 65  1  6
 62 61  1  6
 61 66  1  6
 68 67  1  0
 67 72  1  0
 67 74  1  1
 69 68  1  0
 68 75  1  6
 69 70  1  0
 69 76  1  6
 70 71  1  0
 70 77  1  1
 71 78  1  6
 72 73  1  6
 72 77  1  0
M  END
$$$$
