
     RDKit          3D

 78 83  0  0  0  0  0  0  0  0999 V2000
  -34.1388   -8.7965   65.3788 C   0  0  0  0  0  0  0  0  0  0  0  0
  -35.5463   -8.3808   64.7978 C   0  0  1  0  0  0  0  0  0  0  0  0
  -35.6475   -9.0387   63.4169 C   0  0  0  0  0  0  0  0  0  0  0  0
  -35.9869  -10.5191   63.4699 C   0  0  1  0  0  0  0  0  0  0  0  0
  -37.0084  -10.8805   64.5679 C   0  0  2  0  0  0  0  0  0  0  0  0
  -37.6230   -9.6285   65.2323 C   0  0  2  0  0  0  0  0  0  0  0  0
  -38.7020   -8.8318   64.4387 C   0  0  1  0  0  0  0  0  0  0  0  0
  -39.5992   -7.8959   65.2833 C   0  0  1  0  0  0  0  0  0  0  0  0
  -40.8236   -7.4173   64.4840 C   0  0  0  0  0  0  0  0  0  0  0  0
  -36.3238  -13.0941   65.4542 C   0  0  0  0  0  0  0  0  0  0  0  0
  -36.4213  -13.8264   66.7577 C   0  0  0  0  0  0  0  0  0  0  0  0
  -36.3508  -11.7224   65.5855 N   0  0  0  0  0  0  0  0  0  0  0  0
  -34.1703   -9.2533   66.6519 O   0  0  0  0  0  0  0  0  0  0  0  0
  -33.0681   -8.7562   64.7883 O   0  0  0  0  0  0  0  0  0  0  0  0
  -36.4302  -10.8953   62.1632 O   0  0  0  0  0  0  0  0  0  0  0  0
  -36.5747   -8.7510   65.7092 O   0  0  0  0  0  0  0  0  0  0  0  0
  -37.9974   -7.9904   63.5053 O   0  0  0  0  0  0  0  0  0  0  0  0
  -40.1126   -8.5747   66.4411 O   0  0  0  0  0  0  0  0  0  0  0  0
  -41.5277   -6.4141   65.2267 O   0  0  0  0  0  0  0  0  0  0  0  0
  -36.2207  -13.6672   64.3767 O   0  0  0  0  0  0  0  0  0  0  0  0
  -37.6553   -4.7689   66.8757 C   0  0  1  0  0  0  0  0  0  0  0  0
  -37.3848   -5.8255   65.7789 C   0  0  1  0  0  0  0  0  0  0  0  0
  -35.8737   -6.1136   65.6555 C   0  0  2  0  0  0  0  0  0  0  0  0
  -35.1049   -4.7801   65.4683 C   0  0  2  0  0  0  0  0  0  0  0  0
  -35.4655   -3.8409   66.6285 C   0  0  1  0  0  0  0  0  0  0  0  0
  -34.8043   -2.4683   66.5010 C   0  0  0  0  0  0  0  0  0  0  0  0
  -38.0885   -7.0527   66.0355 O   0  0  0  0  0  0  0  0  0  0  0  0
  -35.6490   -6.9723   64.5090 O   0  0  0  0  0  0  0  0  0  0  0  0
  -35.4897   -4.1593   64.2289 O   0  0  0  0  0  0  0  0  0  0  0  0
  -36.8797   -3.6015   66.6600 O   0  0  0  0  0  0  0  0  0  0  0  0
  -35.0416   -1.7467   67.7142 O   0  0  0  0  0  0  0  0  0  0  0  0
  -34.4585   -3.3502   63.6564 C   0  0  1  0  0  0  0  0  0  0  0  0
  -34.8440   -2.9988   62.1977 C   0  0  1  0  0  0  0  0  0  0  0  0
  -33.6929   -2.1932   61.5478 C   0  0  2  0  0  0  0  0  0  0  0  0
  -32.7549   -1.5888   62.6120 C   0  0  2  0  0  0  0  0  0  0  0  0
  -33.5129   -1.1371   63.8729 C   0  0  1  0  0  0  0  0  0  0  0  0
  -34.4338    0.0737   63.6614 C   0  0  0  0  0  0  0  0  0  0  0  0
  -36.3897   -4.8306   61.5267 C   0  0  0  0  0  0  0  0  0  0  0  0
  -36.4659   -6.1865   60.8684 C   0  0  0  0  0  0  0  0  0  0  0  0
  -35.1575   -4.2201   61.4169 N   0  0  0  0  0  0  0  0  0  0  0  0
  -34.1795   -1.0770   60.7805 O   0  0  0  0  0  0  0  0  0  0  0  0
  -31.9753   -0.5266   62.0593 O   0  0  0  0  0  0  0  0  0  0  0  0
  -34.2934   -2.1918   64.4738 O   0  0  0  0  0  0  0  0  0  0  0  0
  -33.9995    1.1417   64.5118 O   0  0  0  0  0  0  0  0  0  0  0  0
  -37.3508   -4.3246   62.1022 O   0  0  0  0  0  0  0  0  0  0  0  0
  -33.2521   -0.5829   59.8096 C   0  0  1  0  0  0  0  0  0  0  0  0
  -34.0569    0.1393   58.7109 C   0  0  1  0  0  0  0  0  0  0  0  0
  -33.1126    0.8664   57.7468 C   0  0  2  0  0  0  0  0  0  0  0  0
  -32.0368    1.6761   58.4721 C   0  0  2  0  0  0  0  0  0  0  0  0
  -31.3585    0.8063   59.5431 C   0  0  1  0  0  0  0  0  0  0  0  0
  -30.3045    1.5796   60.3425 C   0  0  0  0  0  0  0  0  0  0  0  0
  -34.7590   -0.8761   57.9714 O   0  0  0  0  0  0  0  0  0  0  0  0
  -33.8614    1.7561   56.8994 O   0  0  0  0  0  0  0  0  0  0  0  0
  -32.6821    2.8342   59.0404 O   0  0  0  0  0  0  0  0  0  0  0  0
  -32.3309    0.2945   60.4595 O   0  0  0  0  0  0  0  0  0  0  0  0
  -30.2336    2.9351   59.9122 O   0  0  0  0  0  0  0  0  0  0  0  0
  -36.1158   -1.0540   58.3764 C   0  0  1  0  0  0  0  0  0  0  0  0
  -36.4902   -2.5017   58.0001 C   0  0  2  0  0  0  0  0  0  0  0  0
  -37.8040   -2.9545   58.6437 C   0  0  1  0  0  0  0  0  0  0  0  0
  -38.5056   -1.8102   59.3928 C   0  0  1  0  0  0  0  0  0  0  0  0
  -37.5134   -1.0866   60.3333 C   0  0  2  0  0  0  0  0  0  0  0  0
  -38.0390    0.2531   60.8267 C   0  0  0  0  0  0  0  0  0  0  0  0
  -35.4389   -3.4023   58.4471 O   0  0  0  0  0  0  0  0  0  0  0  0
  -38.6931   -3.4645   57.6300 O   0  0  0  0  0  0  0  0  0  0  0  0
  -39.0735   -0.9261   58.4025 O   0  0  0  0  0  0  0  0  0  0  0  0
  -36.2112   -0.8552   59.7860 O   0  0  0  0  0  0  0  0  0  0  0  0
  -41.2726   -2.0538   68.7445 C   0  0  2  0  0  0  0  0  0  0  0  0
  -40.1571   -2.4346   67.7563 C   0  0  2  0  0  0  0  0  0  0  0  0
  -39.6261   -3.8622   67.9737 C   0  0  1  0  0  0  0  0  0  0  0  0
  -40.7982   -4.7721   68.3951 C   0  0  1  0  0  0  0  0  0  0  0  0
  -40.3238   -6.2108   68.6422 C   0  0  0  0  0  0  0  0  0  0  0  0
  -41.3352   -3.0039   69.9543 C   0  0  2  0  0  0  0  0  0  0  0  0
  -40.1936   -2.8821   70.7773 O   0  0  0  0  0  0  0  0  0  0  0  0
  -42.5285   -2.0765   68.0427 O   0  0  0  0  0  0  0  0  0  0  0  0
  -39.0712   -1.4942   67.9085 O   0  0  0  0  0  0  0  0  0  0  0  0
  -39.0419   -4.4422   66.7937 O   0  0  0  0  0  0  0  0  0  0  0  0
  -41.4784   -4.3733   69.5999 O   0  0  0  0  0  0  0  0  0  0  0  0
  -40.3036   -6.4858   70.0447 O   0  0  0  0  0  0  0  0  0  0  0  0
  2  1  1  0
  1 13  1  0
  1 14  2  0
  3  2  1  1
  2 16  1  0
  2 28  1  6
  3  4  1  0
  4  5  1  0
  4 15  1  6
  6  5  1  0
  5 12  1  1
  6  7  1  0
  6 16  1  6
  7  8  1  0
  7 17  1  6
  8  9  1  0
  8 18  1  1
  9 19  1  6
 11 10  1  6
 12 10  1  0
 10 20  2  0
 21 22  1  0
 21 30  1  0
 21 76  1  6
 22 23  1  0
 22 27  1  1
 23 24  1  0
 23 28  1  6
 25 24  1  0
 24 29  1  6
 25 26  1  0
 25 30  1  6
 26 31  1  6
 32 29  1  1
 32 33  1  0
 32 43  1  0
 33 34  1  0
 33 40  1  6
 34 35  1  0
 34 41  1  1
 36 35  1  0
 35 42  1  6
 36 37  1  0
 36 43  1  6
 37 44  1  6
 39 38  1  6
 40 38  1  0
 38 45  2  0
 46 41  1  1
 46 47  1  0
 46 55  1  0
 47 48  1  0
 47 52  1  6
 48 49  1  0
 48 53  1  1
 50 49  1  0
 49 54  1  1
 50 51  1  0
 50 55  1  1
 51 56  1  6
 57 52  1  1
 57 58  1  0
 57 66  1  0
 58 59  1  0
 58 63  1  1
 59 60  1  0
 59 64  1  6
 61 60  1  0
 60 65  1  6
 62 61  1  6
 61 66  1  6
 68 67  1  0
 67 72  1  0
 67 74  1  6
 69 68  1  0
 68 75  1  1
 69 70  1  0
 69 76  1  6
 70 71  1  0
 70 77  1  1
 71 78  1  6
 72 73  1  6
 72 77  1  0
M  END
$$$$
