
     RDKit          3D

 78 83  0  0  0  0  0  0  0  0999 V2000
  -39.3456   -8.0517   67.8219 C   0  0  0  0  0  0  0  0  0  0  0  0
  -37.9371   -8.2306   67.1323 C   0  0  1  0  0  0  0  0  0  0  0  0
  -36.9056   -8.2327   68.2663 C   0  0  0  0  0  0  0  0  0  0  0  0
  -36.8259   -9.5523   69.0160 C   0  0  1  0  0  0  0  0  0  0  0  0
  -36.9673  -10.7900   68.1061 C   0  0  2  0  0  0  0  0  0  0  0  0
  -36.9452  -10.4209   66.6062 C   0  0  2  0  0  0  0  0  0  0  0  0
  -35.5744  -10.0567   65.9604 C   0  0  1  0  0  0  0  0  0  0  0  0
  -35.5729   -9.9317   64.4181 C   0  0  1  0  0  0  0  0  0  0  0  0
  -34.1437   -9.9792   63.8506 C   0  0  0  0  0  0  0  0  0  0  0  0
  -38.1949  -12.7603   68.9809 C   0  0  0  0  0  0  0  0  0  0  0  0
  -38.8947  -13.7902   68.1475 C   0  0  0  0  0  0  0  0  0  0  0  0
  -38.2210  -11.4948   68.4356 N   0  0  0  0  0  0  0  0  0  0  0  0
  -40.3942   -8.4568   67.0690 O   0  0  0  0  0  0  0  0  0  0  0  0
  -39.5548   -7.6098   68.9434 O   0  0  0  0  0  0  0  0  0  0  0  0
  -35.5965   -9.5466   69.7467 O   0  0  0  0  0  0  0  0  0  0  0  0
  -37.9378   -9.4042   66.3275 O   0  0  0  0  0  0  0  0  0  0  0  0
  -35.1999   -8.7646   66.4760 O   0  0  0  0  0  0  0  0  0  0  0  0
  -36.2863  -11.0198   63.8084 O   0  0  0  0  0  0  0  0  0  0  0  0
  -33.8514   -8.7552   63.1650 O   0  0  0  0  0  0  0  0  0  0  0  0
  -37.6596  -13.0236   70.0505 O   0  0  0  0  0  0  0  0  0  0  0  0
  -34.3371   -6.3036   64.4500 C   0  0  1  0  0  0  0  0  0  0  0  0
  -35.4278   -6.1951   65.5413 C   0  0  1  0  0  0  0  0  0  0  0  0
  -36.4589   -7.3347   65.4016 C   0  0  2  0  0  0  0  0  0  0  0  0
  -37.0022   -7.3678   63.9497 C   0  0  2  0  0  0  0  0  0  0  0  0
  -35.8128   -7.4845   62.9853 C   0  0  1  0  0  0  0  0  0  0  0  0
  -36.2412   -7.4605   61.5178 C   0  0  0  0  0  0  0  0  0  0  0  0
  -34.8634   -6.2171   66.8634 O   0  0  0  0  0  0  0  0  0  0  0  0
  -37.5506   -7.0997   66.3265 O   0  0  0  0  0  0  0  0  0  0  0  0
  -37.7172   -6.1528   63.6634 O   0  0  0  0  0  0  0  0  0  0  0  0
  -34.9160   -6.3780   63.1576 O   0  0  0  0  0  0  0  0  0  0  0  0
  -35.2398   -6.7582   60.7744 O   0  0  0  0  0  0  0  0  0  0  0  0
  -36.8853   -4.9893   63.6765 C   0  0  1  0  0  0  0  0  0  0  0  0
  -37.1192   -4.1869   62.3722 C   0  0  1  0  0  0  0  0  0  0  0  0
  -36.1608   -2.9715   62.3444 C   0  0  2  0  0  0  0  0  0  0  0  0
  -35.6175   -2.6478   63.7507 C   0  0  2  0  0  0  0  0  0  0  0  0
  -36.6635   -2.8906   64.8533 C   0  0  1  0  0  0  0  0  0  0  0  0
  -37.8481   -1.9134   64.8320 C   0  0  0  0  0  0  0  0  0  0  0  0
  -37.9159   -5.1111   60.2028 C   0  0  0  0  0  0  0  0  0  0  0  0
  -37.4667   -5.7755   58.9244 C   0  0  0  0  0  0  0  0  0  0  0  0
  -36.9400   -5.0445   61.1756 N   0  0  0  0  0  0  0  0  0  0  0  0
  -36.8199   -1.7727   61.8975 O   0  0  0  0  0  0  0  0  0  0  0  0
  -35.0993   -1.3173   63.8025 O   0  0  0  0  0  0  0  0  0  0  0  0
  -37.1924   -4.2333   64.8476 O   0  0  0  0  0  0  0  0  0  0  0  0
  -39.0469   -2.6297   65.1519 O   0  0  0  0  0  0  0  0  0  0  0  0
  -39.0532   -4.6680   60.3487 O   0  0  0  0  0  0  0  0  0  0  0  0
  -35.9607   -0.8444   61.2291 C   0  0  1  0  0  0  0  0  0  0  0  0
  -36.8493    0.1689   60.4808 C   0  0  1  0  0  0  0  0  0  0  0  0
  -35.9974    1.3089   59.9112 C   0  0  2  0  0  0  0  0  0  0  0  0
  -35.0031    1.8689   60.9293 C   0  0  2  0  0  0  0  0  0  0  0  0
  -34.2253    0.7192   61.5901 C   0  0  1  0  0  0  0  0  0  0  0  0
  -33.2480    1.2145   62.6614 C   0  0  0  0  0  0  0  0  0  0  0  0
  -37.4506   -0.5358   59.3797 O   0  0  0  0  0  0  0  0  0  0  0  0
  -36.8448    2.3813   59.4614 O   0  0  0  0  0  0  0  0  0  0  0  0
  -35.7586    2.6365   61.8888 O   0  0  0  0  0  0  0  0  0  0  0  0
  -35.1281   -0.2082   62.2001 O   0  0  0  0  0  0  0  0  0  0  0  0
  -32.6239    0.1201   63.3250 O   0  0  0  0  0  0  0  0  0  0  0  0
  -36.5454   -0.8305   58.3167 C   0  0  1  0  0  0  0  0  0  0  0  0
  -35.8759    0.5063   57.9394 C   0  0  2  0  0  0  0  0  0  0  0  0
  -34.6563    0.3168   57.0327 C   0  0  1  0  0  0  0  0  0  0  0  0
  -34.4789   -1.1476   56.6005 C   0  0  1  0  0  0  0  0  0  0  0  0
  -34.5561   -2.0896   57.8250 C   0  0  2  0  0  0  0  0  0  0  0  0
  -34.7430   -3.5483   57.4358 C   0  0  0  0  0  0  0  0  0  0  0  0
  -35.4336    1.1815   59.1496 O   0  0  0  0  0  0  0  0  0  0  0  0
  -34.7910    1.1389   55.8561 O   0  0  0  0  0  0  0  0  0  0  0  0
  -35.4947   -1.4364   55.6159 O   0  0  0  0  0  0  0  0  0  0  0  0
  -35.5764   -1.7711   58.7771 O   0  0  0  0  0  0  0  0  0  0  0  0
  -33.3014   -1.6401   63.0327 C   0  0  2  0  0  0  0  0  0  0  0  0
  -33.5998   -2.6675   64.1378 C   0  0  2  0  0  0  0  0  0  0  0  0
  -33.8246   -4.0877   63.5904 C   0  0  1  0  0  0  0  0  0  0  0  0
  -32.8856   -4.3136   62.3877 C   0  0  1  0  0  0  0  0  0  0  0  0
  -33.0775   -5.7135   61.7882 C   0  0  0  0  0  0  0  0  0  0  0  0
  -33.6777   -2.1576   61.6325 C   0  0  2  0  0  0  0  0  0  0  0  0
  -35.0744   -2.3110   61.4871 O   0  0  0  0  0  0  0  0  0  0  0  0
  -31.8983   -1.3237   63.0735 O   0  0  0  0  0  0  0  0  0  0  0  0
  -34.7803   -2.2400   64.8523 O   0  0  0  0  0  0  0  0  0  0  0  0
  -33.5423   -5.1227   64.5492 O   0  0  0  0  0  0  0  0  0  0  0  0
  -33.0616   -3.3935   61.2942 O   0  0  0  0  0  0  0  0  0  0  0  0
  -32.5672   -5.7490   60.4535 O   0  0  0  0  0  0  0  0  0  0  0  0
  2  1  1  0
  1 13  1  0
  1 14  2  0
  3  2  1  1
  2 16  1  0
  2 28  1  6
  3  4  1  0
  4  5  1  0
  4 15  1  6
  6  5  1  0
  5 12  1  1
  6  7  1  0
  6 16  1  1
  7  8  1  0
  7 17  1  1
  8  9  1  0
  8 18  1  6
  9 19  1  6
 11 10  1  6
 12 10  1  0
 10 20  2  0
 21 22  1  0
 21 30  1  0
 21 76  1  6
 22 23  1  0
 22 27  1  1
 23 24  1  0
 23 28  1  1
 25 24  1  0
 24 29  1  6
 25 26  1  0
 25 30  1  6
 26 31  1  6
 32 29  1  6
 32 33  1  0
 32 43  1  0
 33 34  1  0
 33 40  1  6
 34 35  1  0
 34 41  1  1
 36 35  1  0
 35 42  1  6
 36 37  1  0
 36 43  1  6
 37 44  1  6
 39 38  1  6
 40 38  1  0
 38 45  2  0
 46 41  1  1
 46 47  1  0
 46 55  1  0
 47 48  1  0
 47 52  1  6
 48 49  1  0
 48 53  1  1
 50 49  1  0
 49 54  1  1
 50 51  1  0
 50 55  1  1
 51 56  1  6
 57 52  1  1
 57 58  1  0
 57 66  1  0
 58 59  1  0
 58 63  1  1
 59 60  1  0
 59 64  1  6
 61 60  1  0
 60 65  1  6
 62 61  1  6
 61 66  1  1
 68 67  1  0
 67 72  1  0
 67 74  1  6
 69 68  1  0
 68 75  1  6
 69 70  1  0
 69 76  1  1
 70 71  1  0
 70 77  1  6
 71 78  1  6
 72 73  1  1
 72 77  1  0
M  END
$$$$
