
     RDKit          3D

 78 83  0  0  0  0  0  0  0  0999 V2000
  -56.2449  -24.2142   55.7179 C   0  0  0  0  0  0  0  0  0  0  0  0
  -56.5376  -25.5701   55.1958 C   0  0  1  0  0  0  0  0  0  0  0  0
  -56.9948  -25.5528   53.7669 C   0  0  0  0  0  0  0  0  0  0  0  0
  -55.9293  -24.8410   52.9560 C   0  0  1  0  0  0  0  0  0  0  0  0
  -54.6750  -25.6860   53.0326 C   0  0  2  0  0  0  0  0  0  0  0  0
  -54.3444  -25.9127   54.4843 C   0  0  2  0  0  0  0  0  0  0  0  0
  -53.2269  -26.9342   54.5191 C   0  0  1  0  0  0  0  0  0  0  0  0
  -53.0012  -27.4753   55.9264 C   0  0  1  0  0  0  0  0  0  0  0  0
  -51.5826  -27.9974   56.0783 C   0  0  0  0  0  0  0  0  0  0  0  0
  -52.4310  -25.3330   51.8908 C   0  0  0  0  0  0  0  0  0  0  0  0
  -51.3173  -24.4203   51.4562 C   0  0  0  0  0  0  0  0  0  0  0  0
  -53.6014  -24.8341   52.5042 N   0  0  0  0  0  0  0  0  0  0  0  0
  -55.4065  -24.0070   56.8384 O   0  0  0  0  0  0  0  0  0  0  0  0
  -56.6985  -23.1400   55.2415 O   0  0  0  0  0  0  0  0  0  0  0  0
  -56.3460  -24.6459   51.6380 O   0  0  0  0  0  0  0  0  0  0  0  0
  -55.3766  -26.3653   55.2401 O   0  0  0  0  0  0  0  0  0  0  0  0
  -53.4320  -27.9481   53.6075 O   0  0  0  0  0  0  0  0  0  0  0  0
  -53.1345  -26.4570   56.8783 O   0  0  0  0  0  0  0  0  0  0  0  0
  -51.5183  -29.0862   56.9433 O   0  0  0  0  0  0  0  0  0  0  0  0
  -52.3007  -26.5606   51.6985 O   0  0  0  0  0  0  0  0  0  0  0  0
  -60.6674  -24.9291   56.7372 C   0  0  1  0  0  0  0  0  0  0  0  0
  -59.4456  -25.6721   57.1749 C   0  0  1  0  0  0  0  0  0  0  0  0
  -58.7247  -26.0716   55.8785 C   0  0  2  0  0  0  0  0  0  0  0  0
  -59.5652  -27.1173   55.2337 C   0  0  2  0  0  0  0  0  0  0  0  0
  -60.9867  -26.5434   55.0814 C   0  0  1  0  0  0  0  0  0  0  0  0
  -62.0420  -27.4171   55.6850 C   0  0  0  0  0  0  0  0  0  0  0  0
  -58.6680  -24.8059   57.9566 O   0  0  0  0  0  0  0  0  0  0  0  0
  -57.4159  -26.2930   56.0457 O   0  0  0  0  0  0  0  0  0  0  0  0
  -59.5799  -28.3546   55.8502 O   0  0  0  0  0  0  0  0  0  0  0  0
  -61.0364  -25.2276   55.4261 O   0  0  0  0  0  0  0  0  0  0  0  0
  -62.7078  -28.2163   54.7805 O   0  0  0  0  0  0  0  0  0  0  0  0
  -58.5223  -29.1819   55.5379 C   0  0  1  0  0  0  0  0  0  0  0  0
  -57.9326  -29.9819   56.6863 C   0  0  1  0  0  0  0  0  0  0  0  0
  -58.4654  -31.3639   56.6996 C   0  0  2  0  0  0  0  0  0  0  0  0
  -59.7796  -31.4108   55.9986 C   0  0  2  0  0  0  0  0  0  0  0  0
  -59.4707  -31.0775   54.5388 C   0  0  1  0  0  0  0  0  0  0  0  0
  -60.7606  -31.1196   53.7922 C   0  0  0  0  0  0  0  0  0  0  0  0
  -55.5568  -29.4626   57.2885 C   0  0  0  0  0  0  0  0  0  0  0  0
  -54.3509  -28.7297   56.7906 C   0  0  0  0  0  0  0  0  0  0  0  0
  -56.4797  -30.1150   56.4597 N   0  0  0  0  0  0  0  0  0  0  0  0
  -58.4307  -32.0239   57.9257 O   0  0  0  0  0  0  0  0  0  0  0  0
  -60.6729  -30.5315   56.5747 O   0  0  0  0  0  0  0  0  0  0  0  0
  -58.7175  -29.9524   54.4081 O   0  0  0  0  0  0  0  0  0  0  0  0
  -60.6070  -30.3318   52.6371 O   0  0  0  0  0  0  0  0  0  0  0  0
  -55.6955  -29.4540   58.5730 O   0  0  0  0  0  0  0  0  0  0  0  0
  -57.4435  -33.0069   57.8853 C   0  0  1  0  0  0  0  0  0  0  0  0
  -57.4869  -34.0788   58.8610 C   0  0  1  0  0  0  0  0  0  0  0  0
  -58.2269  -35.3213   58.2901 C   0  0  2  0  0  0  0  0  0  0  0  0
  -57.6261  -35.8570   57.0437 C   0  0  2  0  0  0  0  0  0  0  0  0
  -56.9578  -34.6526   56.3653 C   0  0  1  0  0  0  0  0  0  0  0  0
  -56.8152  -34.9031   54.9044 C   0  0  0  0  0  0  0  0  0  0  0  0
  -56.3215  -34.5244   59.4342 O   0  0  0  0  0  0  0  0  0  0  0  0
  -59.5116  -34.8115   57.9135 O   0  0  0  0  0  0  0  0  0  0  0  0
  -58.5289  -36.3687   56.1151 O   0  0  0  0  0  0  0  0  0  0  0  0
  -57.8878  -33.6355   56.5707 O   0  0  0  0  0  0  0  0  0  0  0  0
  -56.6398  -36.2887   54.6435 O   0  0  0  0  0  0  0  0  0  0  0  0
  -56.0881  -34.1839   60.7494 C   0  0  1  0  0  0  0  0  0  0  0  0
  -55.1304  -35.1828   61.3358 C   0  0  2  0  0  0  0  0  0  0  0  0
  -53.7553  -34.6471   61.6416 C   0  0  1  0  0  0  0  0  0  0  0  0
  -53.4837  -33.5508   60.6458 C   0  0  1  0  0  0  0  0  0  0  0  0
  -54.5102  -32.4350   60.8747 C   0  0  2  0  0  0  0  0  0  0  0  0
  -54.0549  -31.5795   62.0477 C   0  0  0  0  0  0  0  0  0  0  0  0
  -54.8808  -36.2199   60.3979 O   0  0  0  0  0  0  0  0  0  0  0  0
  -53.6981  -34.1971   62.9237 O   0  0  0  0  0  0  0  0  0  0  0  0
  -52.2028  -33.0437   60.8682 O   0  0  0  0  0  0  0  0  0  0  0  0
  -55.7744  -32.8888   60.9848 O   0  0  0  0  0  0  0  0  0  0  0  0
  -64.8584  -23.1975   57.6522 C   0  0  2  0  0  0  0  0  0  0  0  0
  -63.8289  -24.1731   58.2064 C   0  0  2  0  0  0  0  0  0  0  0  0
  -62.5880  -23.9157   57.3243 C   0  0  1  0  0  0  0  0  0  0  0  0
  -62.0850  -22.5764   57.7174 C   0  0  1  0  0  0  0  0  0  0  0  0
  -60.8760  -22.1450   56.8793 C   0  0  0  0  0  0  0  0  0  0  0  0
  -64.2953  -21.8219   57.9623 C   0  0  2  0  0  0  0  0  0  0  0  0
  -65.1563  -20.8899   57.3760 O   0  0  0  0  0  0  0  0  0  0  0  0
  -66.0471  -23.3636   58.3122 O   0  0  0  0  0  0  0  0  0  0  0  0
  -64.2396  -25.4798   58.1529 O   0  0  0  0  0  0  0  0  0  0  0  0
  -61.7451  -24.9722   57.5896 O   0  0  0  0  0  0  0  0  0  0  0  0
  -63.0471  -21.6171   57.4819 O   0  0  0  0  0  0  0  0  0  0  0  0
  -61.3071  -21.2415   55.8914 O   0  0  0  0  0  0  0  0  0  0  0  0
  2  1  1  0
  1 13  1  0
  1 14  2  0
  2  3  1  0
  2 16  1  0
  2 28  1  1
  3  4  1  0
  4  5  1  0
  4 15  1  6
  6  5  1  0
  5 12  1  1
  6  7  1  0
  6 16  1  1
  7  8  1  0
  7 17  1  6
  8  9  1  0
  8 18  1  1
  9 19  1  0
 10 11  1  0
 12 10  1  0
 10 20  2  0
 21 22  1  0
 21 30  1  0
 21 76  1  1
 22 23  1  0
 22 27  1  1
 23 24  1  0
 23 28  1  1
 25 24  1  0
 24 29  1  1
 25 26  1  1
 30 25  1  0
 26 31  1  0
 32 29  1  1
 32 33  1  0
 32 43  1  0
 33 34  1  0
 33 40  1  6
 34 35  1  0
 34 41  1  1
 36 35  1  0
 35 42  1  1
 36 37  1  6
 43 36  1  0
 37 44  1  0
 38 39  1  0
 40 38  1  0
 38 45  2  0
 46 41  1  1
 46 47  1  0
 46 55  1  0
 47 48  1  0
 47 52  1  6
 48 49  1  0
 48 53  1  6
 50 49  1  0
 49 54  1  6
 50 51  1  6
 55 50  1  0
 51 56  1  0
 57 52  1  6
 57 58  1  0
 57 66  1  0
 58 59  1  0
 58 63  1  6
 59 60  1  0
 59 64  1  1
 61 60  1  0
 60 65  1  1
 61 62  1  1
 66 61  1  0
 68 67  1  0
 67 72  1  0
 67 74  1  1
 69 68  1  0
 68 75  1  6
 69 70  1  0
 69 76  1  1
 70 71  1  6
 70 77  1  0
 71 78  1  0
 72 73  1  6
 72 77  1  0
M  END
$$$$
