
     RDKit          3D

 78 83  0  0  0  0  0  0  0  0999 V2000
  -17.2245    3.0231   41.0799 C   0  0  0  0  0  0  0  0  0  0  0  0
  -15.8050    3.1694   40.6793 C   0  0  1  0  0  0  0  0  0  0  0  0
  -15.1254    1.8487   40.4675 C   0  0  0  0  0  0  0  0  0  0  0  0
  -15.9362    1.0778   39.4437 C   0  0  1  0  0  0  0  0  0  0  0  0
  -15.8622    1.8525   38.1447 C   0  0  2  0  0  0  0  0  0  0  0  0
  -16.3189    3.2632   38.4075 C   0  0  2  0  0  0  0  0  0  0  0  0
  -16.0226    4.0552   37.1513 C   0  0  1  0  0  0  0  0  0  0  0  0
  -16.1439    5.5562   37.3891 C   0  0  1  0  0  0  0  0  0  0  0  0
  -16.4088    6.2857   36.0831 C   0  0  0  0  0  0  0  0  0  0  0  0
  -16.7364    1.0867   35.8834 C   0  0  0  0  0  0  0  0  0  0  0  0
  -17.8840    0.6538   35.0130 C   0  0  0  0  0  0  0  0  0  0  0  0
  -16.8858    1.2536   37.2779 N   0  0  0  0  0  0  0  0  0  0  0  0
  -17.6736    1.9359   41.8657 O   0  0  0  0  0  0  0  0  0  0  0  0
  -18.1510    3.8186   40.7709 O   0  0  0  0  0  0  0  0  0  0  0  0
  -15.4579   -0.2259   39.3006 O   0  0  0  0  0  0  0  0  0  0  0  0
  -15.7169    3.8703   39.4615 O   0  0  0  0  0  0  0  0  0  0  0  0
  -14.7989    3.7196   36.6116 O   0  0  0  0  0  0  0  0  0  0  0  0
  -17.2398    5.8424   38.2124 O   0  0  0  0  0  0  0  0  0  0  0  0
  -16.2687    7.6640   36.2189 O   0  0  0  0  0  0  0  0  0  0  0  0
  -15.6306    1.3015   35.3431 O   0  0  0  0  0  0  0  0  0  0  0  0
  -11.7526    4.8712   40.5187 C   0  0  1  0  0  0  0  0  0  0  0  0
  -12.7188    4.4413   41.5761 C   0  0  1  0  0  0  0  0  0  0  0  0
  -14.1113    4.7578   41.0097 C   0  0  2  0  0  0  0  0  0  0  0  0
  -14.2343    6.2412   40.9971 C   0  0  2  0  0  0  0  0  0  0  0  0
  -13.0303    6.8015   40.2160 C   0  0  1  0  0  0  0  0  0  0  0  0
  -12.2535    7.8238   40.9859 C   0  0  0  0  0  0  0  0  0  0  0  0
  -12.5445    3.0665   41.7899 O   0  0  0  0  0  0  0  0  0  0  0  0
  -15.0863    4.0233   41.5571 O   0  0  0  0  0  0  0  0  0  0  0  0
  -14.3700    6.8529   42.2294 O   0  0  0  0  0  0  0  0  0  0  0  0
  -12.2982    5.8080   39.6418 O   0  0  0  0  0  0  0  0  0  0  0  0
  -11.1102    8.2661   40.3555 O   0  0  0  0  0  0  0  0  0  0  0  0
  -15.5672    7.5043   42.4359 C   0  0  1  0  0  0  0  0  0  0  0  0
  -16.3033    7.1668   43.7207 C   0  0  1  0  0  0  0  0  0  0  0  0
  -16.0487    8.1881   44.7629 C   0  0  2  0  0  0  0  0  0  0  0  0
  -14.7669    8.8947   44.4824 C   0  0  2  0  0  0  0  0  0  0  0  0
  -15.0021    9.6545   43.1766 C   0  0  1  0  0  0  0  0  0  0  0  0
  -13.7432   10.3867   42.8572 C   0  0  0  0  0  0  0  0  0  0  0  0
  -18.5294    6.0554   43.4271 C   0  0  0  0  0  0  0  0  0  0  0  0
  -20.0070    6.0324   43.1916 C   0  0  0  0  0  0  0  0  0  0  0  0
  -17.7540    7.2226   43.4513 N   0  0  0  0  0  0  0  0  0  0  0  0
  -16.2134    7.7737   46.0824 O   0  0  0  0  0  0  0  0  0  0  0  0
  -13.7214    7.9982   44.4034 O   0  0  0  0  0  0  0  0  0  0  0  0
  -15.5226    8.8646   42.1991 O   0  0  0  0  0  0  0  0  0  0  0  0
  -13.9626   11.1080   41.6697 O   0  0  0  0  0  0  0  0  0  0  0  0
  -17.9990    4.8920   43.6124 O   0  0  0  0  0  0  0  0  0  0  0  0
  -17.3433    8.3916   46.6154 C   0  0  1  0  0  0  0  0  0  0  0  0
  -17.7576    8.0451   47.9613 C   0  0  1  0  0  0  0  0  0  0  0  0
  -17.1755    9.0470   48.9979 C   0  0  2  0  0  0  0  0  0  0  0  0
  -17.5572   10.4587   48.7475 C   0  0  2  0  0  0  0  0  0  0  0  0
  -17.7796   10.5560   47.2315 C   0  0  1  0  0  0  0  0  0  0  0  0
  -17.6163   11.9657   46.7803 C   0  0  0  0  0  0  0  0  0  0  0  0
  -19.0926    7.8934   48.2441 O   0  0  0  0  0  0  0  0  0  0  0  0
  -15.7612    8.9829   48.7791 O   0  0  0  0  0  0  0  0  0  0  0  0
  -16.5838   11.4062   49.0544 O   0  0  0  0  0  0  0  0  0  0  0  0
  -16.7365    9.7847   46.7227 O   0  0  0  0  0  0  0  0  0  0  0  0
  -18.0102   12.1112   45.4230 O   0  0  0  0  0  0  0  0  0  0  0  0
  -19.4976    6.6879   48.7762 C   0  0  1  0  0  0  0  0  0  0  0  0
  -20.9965    6.6131   48.6961 C   0  0  2  0  0  0  0  0  0  0  0  0
  -21.5349    5.6079   47.7107 C   0  0  1  0  0  0  0  0  0  0  0  0
  -20.5236    5.5022   46.6001 C   0  0  1  0  0  0  0  0  0  0  0  0
  -19.2186    4.9600   47.1949 C   0  0  2  0  0  0  0  0  0  0  0  0
  -19.3302    3.4488   47.3330 C   0  0  0  0  0  0  0  0  0  0  0  0
  -21.5168    7.8485   48.2265 O   0  0  0  0  0  0  0  0  0  0  0  0
  -21.7462    4.4123   48.3234 O   0  0  0  0  0  0  0  0  0  0  0  0
  -20.9951    4.6038   45.6420 O   0  0  0  0  0  0  0  0  0  0  0  0
  -18.8483    5.5885   48.3280 O   0  0  0  0  0  0  0  0  0  0  0  0
   -7.7069    6.4562   39.0627 C   0  0  2  0  0  0  0  0  0  0  0  0
   -8.4692    6.1776   40.3511 C   0  0  2  0  0  0  0  0  0  0  0  0
   -9.6324    5.2753   39.8850 C   0  0  1  0  0  0  0  0  0  0  0  0
   -9.0147    3.9749   39.5261 C   0  0  1  0  0  0  0  0  0  0  0  0
  -10.0437    2.9780   38.9805 C   0  0  0  0  0  0  0  0  0  0  0  0
   -7.1587    5.1058   38.6367 C   0  0  2  0  0  0  0  0  0  0  0  0
   -6.5392    5.2925   37.3978 O   0  0  0  0  0  0  0  0  0  0  0  0
   -6.6675    7.3098   39.3222 O   0  0  0  0  0  0  0  0  0  0  0  0
   -8.9143    7.3157   40.9722 O   0  0  0  0  0  0  0  0  0  0  0  0
  -10.5036    5.2489   40.9514 O   0  0  0  0  0  0  0  0  0  0  0  0
   -8.1024    4.1451   38.5062 O   0  0  0  0  0  0  0  0  0  0  0  0
  -10.2039    3.1998   37.6009 O   0  0  0  0  0  0  0  0  0  0  0  0
  2  1  1  0
  1 13  1  0
  1 14  2  0
  2  3  1  0
  2 16  1  0
  2 28  1  1
  3  4  1  0
  4  5  1  0
  4 15  1  6
  6  5  1  0
  5 12  1  6
  6  7  1  0
  6 16  1  1
  7  8  1  0
  7 17  1  1
  8  9  1  0
  8 18  1  1
  9 19  1  0
 10 11  1  0
 12 10  1  0
 10 20  2  0
 21 22  1  0
 21 30  1  0
 21 76  1  1
 22 23  1  0
 22 27  1  6
 23 24  1  0
 23 28  1  1
 25 24  1  0
 24 29  1  1
 25 26  1  1
 30 25  1  0
 26 31  1  0
 32 29  1  1
 32 33  1  0
 32 43  1  0
 33 34  1  0
 33 40  1  6
 34 35  1  0
 34 41  1  1
 36 35  1  0
 35 42  1  6
 36 37  1  6
 43 36  1  0
 37 44  1  0
 38 39  1  0
 40 38  1  0
 38 45  2  0
 46 41  1  1
 46 47  1  0
 46 55  1  0
 47 48  1  0
 47 52  1  6
 48 49  1  0
 48 53  1  6
 50 49  1  0
 49 54  1  6
 50 51  1  6
 55 50  1  0
 51 56  1  0
 57 52  1  6
 57 58  1  0
 57 66  1  0
 58 59  1  0
 58 63  1  6
 59 60  1  0
 59 64  1  1
 61 60  1  0
 60 65  1  6
 61 62  1  1
 66 61  1  0
 68 67  1  0
 67 72  1  0
 67 74  1  1
 69 68  1  0
 68 75  1  6
 69 70  1  0
 69 76  1  1
 70 71  1  6
 70 77  1  0
 71 78  1  0
 72 73  1  6
 72 77  1  0
M  END
$$$$
