
     RDKit          3D

 78 83  0  0  0  0  0  0  0  0999 V2000
  -53.4896  -28.0572   57.4656 C   0  0  0  0  0  0  0  0  0  0  0  0
  -54.8974  -27.4116   57.1617 C   0  0  1  0  0  0  0  0  0  0  0  0
  -54.6220  -25.9548   56.7721 C   0  0  0  0  0  0  0  0  0  0  0  0
  -54.1187  -25.7889   55.3478 C   0  0  1  0  0  0  0  0  0  0  0  0
  -54.7970  -26.7373   54.3377 C   0  0  2  0  0  0  0  0  0  0  0  0
  -55.9898  -27.4984   54.9577 C   0  0  2  0  0  0  0  0  0  0  0  0
  -57.3220  -26.7203   55.1781 C   0  0  1  0  0  0  0  0  0  0  0  0
  -58.2781  -26.6718   53.9625 C   0  0  1  0  0  0  0  0  0  0  0  0
  -59.7306  -26.4123   54.3983 C   0  0  0  0  0  0  0  0  0  0  0  0
  -52.9163  -27.3249   52.8304 C   0  0  0  0  0  0  0  0  0  0  0  0
  -52.1637  -28.4755   52.2348 C   0  0  0  0  0  0  0  0  0  0  0  0
  -53.7985  -27.6938   53.8229 N   0  0  0  0  0  0  0  0  0  0  0  0
  -53.4123  -29.3826   57.2050 O   0  0  0  0  0  0  0  0  0  0  0  0
  -52.4985  -27.4753   57.8849 O   0  0  0  0  0  0  0  0  0  0  0  0
  -54.2835  -24.4109   55.0019 O   0  0  0  0  0  0  0  0  0  0  0  0
  -55.5755  -28.1739   56.1695 O   0  0  0  0  0  0  0  0  0  0  0  0
  -58.0330  -27.3995   56.2311 O   0  0  0  0  0  0  0  0  0  0  0  0
  -57.9274  -25.6031   53.0684 O   0  0  0  0  0  0  0  0  0  0  0  0
  -60.3536  -27.6467   54.7748 O   0  0  0  0  0  0  0  0  0  0  0  0
  -52.7514  -26.1659   52.4705 O   0  0  0  0  0  0  0  0  0  0  0  0
  -57.3273  -24.0187   59.4258 C   0  0  1  0  0  0  0  0  0  0  0  0
  -56.2414  -25.1108   59.2821 C   0  0  1  0  0  0  0  0  0  0  0  0
  -56.6982  -26.2133   58.3037 C   0  0  2  0  0  0  0  0  0  0  0  0
  -58.0910  -26.7430   58.7326 C   0  0  2  0  0  0  0  0  0  0  0  0
  -59.0589  -25.5543   58.8248 C   0  0  1  0  0  0  0  0  0  0  0  0
  -60.4509  -25.9655   59.3052 C   0  0  0  0  0  0  0  0  0  0  0  0
  -54.9891  -24.5623   58.8372 O   0  0  0  0  0  0  0  0  0  0  0  0
  -55.7344  -27.2963   58.3295 O   0  0  0  0  0  0  0  0  0  0  0  0
  -58.0025  -27.3735   60.0226 O   0  0  0  0  0  0  0  0  0  0  0  0
  -58.5793  -24.5882   59.7709 O   0  0  0  0  0  0  0  0  0  0  0  0
  -61.1335  -26.5848   58.2101 O   0  0  0  0  0  0  0  0  0  0  0  0
  -57.9913  -28.8022   59.9554 C   0  0  1  0  0  0  0  0  0  0  0  0
  -58.1802  -29.2396   58.4813 C   0  0  1  0  0  0  0  0  0  0  0  0
  -58.2519  -30.7845   58.4147 C   0  0  2  0  0  0  0  0  0  0  0  0
  -57.6691  -31.4327   59.6866 C   0  0  2  0  0  0  0  0  0  0  0  0
  -56.4644  -30.6529   60.2427 C   0  0  1  0  0  0  0  0  0  0  0  0
  -55.2094  -30.7072   59.3592 C   0  0  0  0  0  0  0  0  0  0  0  0
  -59.9702  -29.1450   56.7544 C   0  0  0  0  0  0  0  0  0  0  0  0
  -59.7729  -28.3093   55.5133 C   0  0  0  0  0  0  0  0  0  0  0  0
  -59.3878  -28.6160   57.8876 N   0  0  0  0  0  0  0  0  0  0  0  0
  -57.4818  -31.3153   57.3209 O   0  0  0  0  0  0  0  0  0  0  0  0
  -57.3450  -32.8051   59.4560 O   0  0  0  0  0  0  0  0  0  0  0  0
  -56.7614  -29.2664   60.5113 O   0  0  0  0  0  0  0  0  0  0  0  0
  -54.1116  -30.1290   60.0756 O   0  0  0  0  0  0  0  0  0  0  0  0
  -60.6012  -30.1998   56.7429 O   0  0  0  0  0  0  0  0  0  0  0  0
  -57.8552  -32.6393   56.9276 C   0  0  1  0  0  0  0  0  0  0  0  0
  -56.9892  -33.0349   55.7152 C   0  0  1  0  0  0  0  0  0  0  0  0
  -57.1952  -34.5144   55.3710 C   0  0  2  0  0  0  0  0  0  0  0  0
  -57.1326  -35.4213   56.6009 C   0  0  2  0  0  0  0  0  0  0  0  0
  -58.0358  -34.8616   57.7119 C   0  0  1  0  0  0  0  0  0  0  0  0
  -57.9744  -35.7001   58.9930 C   0  0  0  0  0  0  0  0  0  0  0  0
  -57.4452  -32.2469   54.6009 O   0  0  0  0  0  0  0  0  0  0  0  0
  -56.1944  -34.9469   54.4321 O   0  0  0  0  0  0  0  0  0  0  0  0
  -55.7510  -35.4956   57.0088 O   0  0  0  0  0  0  0  0  0  0  0  0
  -57.6568  -33.5202   58.0347 O   0  0  0  0  0  0  0  0  0  0  0  0
  -56.8155  -35.3791   59.7555 O   0  0  0  0  0  0  0  0  0  0  0  0
  -58.4907  -32.8595   53.8472 C   0  0  1  0  0  0  0  0  0  0  0  0
  -59.8059  -32.5055   54.5701 C   0  0  2  0  0  0  0  0  0  0  0  0
  -61.0435  -32.8198   53.7247 C   0  0  1  0  0  0  0  0  0  0  0  0
  -60.6826  -33.5450   52.4183 C   0  0  1  0  0  0  0  0  0  0  0  0
  -59.5395  -32.8059   51.6835 C   0  0  2  0  0  0  0  0  0  0  0  0
  -58.9019  -33.6472   50.5881 C   0  0  0  0  0  0  0  0  0  0  0  0
  -59.8204  -31.0829   54.8737 O   0  0  0  0  0  0  0  0  0  0  0  0
  -61.9541  -33.6431   54.4806 O   0  0  0  0  0  0  0  0  0  0  0  0
  -60.3337  -34.9043   52.7577 O   0  0  0  0  0  0  0  0  0  0  0  0
  -58.4816  -32.3302   52.5222 O   0  0  0  0  0  0  0  0  0  0  0  0
  -57.5285  -19.6350   61.7892 C   0  0  2  0  0  0  0  0  0  0  0  0
  -57.3177  -21.1546   61.9008 C   0  0  2  0  0  0  0  0  0  0  0  0
  -57.5937  -21.8961   60.5813 C   0  0  1  0  0  0  0  0  0  0  0  0
  -57.1304  -21.0118   59.4053 C   0  0  1  0  0  0  0  0  0  0  0  0
  -57.3963  -21.6958   58.0572 C   0  0  0  0  0  0  0  0  0  0  0  0
  -58.3320  -19.2441   60.5355 C   0  0  2  0  0  0  0  0  0  0  0  0
  -59.6684  -19.6965   60.6060 O   0  0  0  0  0  0  0  0  0  0  0  0
  -56.2385  -18.9986   61.7582 O   0  0  0  0  0  0  0  0  0  0  0  0
  -58.1983  -21.6638   62.9265 O   0  0  0  0  0  0  0  0  0  0  0  0
  -56.8948  -23.1489   60.4709 O   0  0  0  0  0  0  0  0  0  0  0  0
  -57.7683  -19.7236   59.3216 O   0  0  0  0  0  0  0  0  0  0  0  0
  -58.7481  -21.4700   57.6516 O   0  0  0  0  0  0  0  0  0  0  0  0
  2  1  1  0
  1 13  1  0
  1 14  2  0
  3  2  1  1
  2 16  1  0
  2 28  1  1
  3  4  1  0
  4  5  1  0
  4 15  1  6
  6  5  1  0
  5 12  1  1
  6  7  1  0
  6 16  1  1
  7  8  1  0
  7 17  1  1
  8  9  1  0
  8 18  1  6
  9 19  1  6
 11 10  1  6
 12 10  1  0
 10 20  2  0
 21 22  1  0
 21 30  1  0
 21 76  1  1
 22 23  1  0
 22 27  1  6
 23 24  1  0
 23 28  1  1
 25 24  1  0
 24 29  1  1
 25 26  1  0
 25 30  1  1
 26 31  1  6
 32 29  1  6
 32 33  1  0
 32 43  1  0
 33 34  1  0
 33 40  1  1
 34 35  1  0
 34 41  1  6
 36 35  1  0
 35 42  1  6
 36 37  1  0
 36 43  1  6
 37 44  1  6
 39 38  1  6
 40 38  1  0
 38 45  2  0
 46 41  1  1
 46 47  1  0
 46 55  1  0
 47 48  1  0
 47 52  1  6
 48 49  1  0
 48 53  1  6
 50 49  1  0
 49 54  1  1
 50 51  1  0
 50 55  1  1
 51 56  1  6
 57 52  1  1
 57 58  1  0
 57 66  1  0
 58 59  1  0
 58 63  1  6
 59 60  1  0
 59 64  1  1
 61 60  1  0
 60 65  1  1
 62 61  1  6
 61 66  1  1
 68 67  1  0
 67 72  1  0
 67 74  1  6
 69 68  1  0
 68 75  1  1
 69 70  1  0
 69 76  1  1
 70 71  1  0
 70 77  1  6
 71 78  1  6
 72 73  1  1
 72 77  1  0
M  END
$$$$
