
     RDKit          3D

 78 83  0  0  0  0  0  0  0  0999 V2000
  -48.2647    5.0223   49.1260 C   0  0  0  0  0  0  0  0  0  0  0  0
  -49.3354    5.8618   48.5381 C   0  0  1  0  0  0  0  0  0  0  0  0
  -50.0982    5.1526   47.4581 C   0  0  0  0  0  0  0  0  0  0  0  0
  -50.6362    3.8646   48.0506 C   0  0  1  0  0  0  0  0  0  0  0  0
  -51.6185    4.2518   49.1361 C   0  0  2  0  0  0  0  0  0  0  0  0
  -50.9185    5.1699   50.1031 C   0  0  2  0  0  0  0  0  0  0  0  0
  -51.9823    5.7063   51.0378 C   0  0  1  0  0  0  0  0  0  0  0  0
  -51.4004    6.6837   52.0528 C   0  0  1  0  0  0  0  0  0  0  0  0
  -52.4326    7.0349   53.1109 C   0  0  0  0  0  0  0  0  0  0  0  0
  -53.1079    2.7273   50.5222 C   0  0  0  0  0  0  0  0  0  0  0  0
  -53.2178    1.6530   51.5691 C   0  0  0  0  0  0  0  0  0  0  0  0
  -51.8834    3.0125   49.8786 N   0  0  0  0  0  0  0  0  0  0  0  0
  -47.9726    3.7278   48.6359 O   0  0  0  0  0  0  0  0  0  0  0  0
  -47.5300    5.3561   50.0932 O   0  0  0  0  0  0  0  0  0  0  0  0
  -51.2310    3.0690   47.0697 O   0  0  0  0  0  0  0  0  0  0  0  0
  -50.2706    6.2153   49.5294 O   0  0  0  0  0  0  0  0  0  0  0  0
  -53.0410    6.2561   50.3464 O   0  0  0  0  0  0  0  0  0  0  0  0
  -50.3301    6.1037   52.7449 O   0  0  0  0  0  0  0  0  0  0  0  0
  -51.9797    8.0331   53.9690 O   0  0  0  0  0  0  0  0  0  0  0  0
  -54.1346    3.3755   50.2277 O   0  0  0  0  0  0  0  0  0  0  0  0
  -47.9329    9.6790   50.4901 C   0  0  1  0  0  0  0  0  0  0  0  0
  -48.4465    9.2728   49.1456 C   0  0  1  0  0  0  0  0  0  0  0  0
  -48.0797    7.7881   49.0001 C   0  0  2  0  0  0  0  0  0  0  0  0
  -46.6001    7.7322   48.8476 C   0  0  2  0  0  0  0  0  0  0  0  0
  -45.9803    8.4799   50.0436 C   0  0  1  0  0  0  0  0  0  0  0  0
  -45.0280    9.5598   49.6332 C   0  0  0  0  0  0  0  0  0  0  0  0
  -49.8349    9.4690   49.1342 O   0  0  0  0  0  0  0  0  0  0  0  0
  -48.8543    7.1331   48.1278 O   0  0  0  0  0  0  0  0  0  0  0  0
  -46.0928    8.1879   47.6450 O   0  0  0  0  0  0  0  0  0  0  0  0
  -46.9247    8.8365   50.9567 O   0  0  0  0  0  0  0  0  0  0  0  0
  -43.8352    9.5620   50.3240 O   0  0  0  0  0  0  0  0  0  0  0  0
  -45.8456    7.2133   46.7020 C   0  0  1  0  0  0  0  0  0  0  0  0
  -45.7991    7.6738   45.2555 C   0  0  1  0  0  0  0  0  0  0  0  0
  -44.4018    7.8726   44.8059 C   0  0  2  0  0  0  0  0  0  0  0  0
  -43.5187    8.1221   45.9801 C   0  0  2  0  0  0  0  0  0  0  0  0
  -43.5368    6.8208   46.7826 C   0  0  1  0  0  0  0  0  0  0  0  0
  -42.6568    7.0201   47.9697 C   0  0  0  0  0  0  0  0  0  0  0  0
  -47.7172    6.3223   44.3775 C   0  0  0  0  0  0  0  0  0  0  0  0
  -48.3577    5.1489   45.0502 C   0  0  0  0  0  0  0  0  0  0  0  0
  -46.3426    6.5937   44.4081 N   0  0  0  0  0  0  0  0  0  0  0  0
  -44.2186    8.7476   43.7379 O   0  0  0  0  0  0  0  0  0  0  0  0
  -43.9636    9.2083   46.7048 O   0  0  0  0  0  0  0  0  0  0  0  0
  -44.7984    6.3694   47.0174 O   0  0  0  0  0  0  0  0  0  0  0  0
  -41.9234    8.2017   47.7593 O   0  0  0  0  0  0  0  0  0  0  0  0
  -48.5407    7.0926   43.7470 O   0  0  0  0  0  0  0  0  0  0  0  0
  -44.7997    8.1992   42.5959 C   0  0  1  0  0  0  0  0  0  0  0  0
  -44.9710    9.0415   41.4279 C   0  0  1  0  0  0  0  0  0  0  0  0
  -43.7758    8.8818   40.4465 C   0  0  2  0  0  0  0  0  0  0  0  0
  -43.5627    7.4887   39.9825 C   0  0  2  0  0  0  0  0  0  0  0  0
  -44.0934    6.5983   41.1151 C   0  0  1  0  0  0  0  0  0  0  0  0
  -43.4587    5.2529   41.0476 C   0  0  0  0  0  0  0  0  0  0  0  0
  -46.1235    8.9508   40.6871 O   0  0  0  0  0  0  0  0  0  0  0  0
  -42.6312    9.2038   41.2456 O   0  0  0  0  0  0  0  0  0  0  0  0
  -42.2342    7.1171   39.7922 O   0  0  0  0  0  0  0  0  0  0  0  0
  -43.6475    7.2624   42.2561 O   0  0  0  0  0  0  0  0  0  0  0  0
  -42.6571    5.0137   42.1960 O   0  0  0  0  0  0  0  0  0  0  0  0
  -46.9526   10.0519   40.6622 C   0  0  1  0  0  0  0  0  0  0  0  0
  -48.1145    9.7510   39.7576 C   0  0  2  0  0  0  0  0  0  0  0  0
  -49.4416    9.5898   40.4532 C   0  0  1  0  0  0  0  0  0  0  0  0
  -49.1499    9.0476   41.8274 C   0  0  1  0  0  0  0  0  0  0  0  0
  -48.3195   10.0910   42.5842 C   0  0  2  0  0  0  0  0  0  0  0  0
  -49.2522   11.1633   43.1278 C   0  0  0  0  0  0  0  0  0  0  0  0
  -47.9189    8.4958   39.1223 O   0  0  0  0  0  0  0  0  0  0  0  0
  -50.0963   10.7808   40.5034 O   0  0  0  0  0  0  0  0  0  0  0  0
  -50.3555    8.8491   42.5015 O   0  0  0  0  0  0  0  0  0  0  0  0
  -47.2880   10.5747   41.8644 O   0  0  0  0  0  0  0  0  0  0  0  0
  -46.9200   13.0788   53.4822 C   0  0  2  0  0  0  0  0  0  0  0  0
  -47.2235   12.8317   52.0106 C   0  0  2  0  0  0  0  0  0  0  0  0
  -47.6077   11.3365   51.9758 C   0  0  1  0  0  0  0  0  0  0  0  0
  -48.9255   11.2433   52.6512 C   0  0  1  0  0  0  0  0  0  0  0  0
  -49.4213    9.7962   52.7524 C   0  0  0  0  0  0  0  0  0  0  0  0
  -48.2486   12.8826   54.1905 C   0  0  2  0  0  0  0  0  0  0  0  0
  -47.9977   12.9945   55.5610 O   0  0  0  0  0  0  0  0  0  0  0  0
  -46.4990   14.3713   53.6511 O   0  0  0  0  0  0  0  0  0  0  0  0
  -46.1651   13.1131   51.1862 O   0  0  0  0  0  0  0  0  0  0  0  0
  -47.5964   11.0036   50.6393 O   0  0  0  0  0  0  0  0  0  0  0  0
  -48.8258   11.6817   53.9547 O   0  0  0  0  0  0  0  0  0  0  0  0
  -50.8188    9.8048   52.9109 O   0  0  0  0  0  0  0  0  0  0  0  0
  2  1  1  0
  1 13  1  0
  1 14  2  0
  2  3  1  0
  2 16  1  0
  2 28  1  6
  3  4  1  0
  4  5  1  0
  4 15  1  6
  6  5  1  0
  5 12  1  1
  6  7  1  0
  6 16  1  6
  7  8  1  0
  7 17  1  6
  8  9  1  0
  8 18  1  1
  9 19  1  0
 10 11  1  0
 12 10  1  0
 10 20  2  0
 21 22  1  0
 21 30  1  0
 21 76  1  6
 22 23  1  0
 22 27  1  1
 23 24  1  0
 23 28  1  6
 25 24  1  0
 24 29  1  6
 25 26  1  6
 30 25  1  0
 26 31  1  0
 32 29  1  1
 32 33  1  0
 32 43  1  0
 33 34  1  0
 33 40  1  6
 34 35  1  0
 34 41  1  6
 36 35  1  0
 35 42  1  1
 36 37  1  1
 43 36  1  0
 37 44  1  0
 38 39  1  0
 40 38  1  0
 38 45  2  0
 46 41  1  1
 46 47  1  0
 46 55  1  0
 47 48  1  0
 47 52  1  6
 48 49  1  0
 48 53  1  1
 50 49  1  0
 49 54  1  1
 50 51  1  6
 55 50  1  0
 51 56  1  0
 57 52  1  1
 57 58  1  0
 57 66  1  0
 58 59  1  0
 58 63  1  1
 59 60  1  0
 59 64  1  1
 61 60  1  0
 60 65  1  1
 61 62  1  6
 66 61  1  0
 68 67  1  0
 67 72  1  0
 67 74  1  6
 69 68  1  0
 68 75  1  6
 69 70  1  0
 69 76  1  6
 70 71  1  1
 70 77  1  0
 71 78  1  0
 72 73  1  1
 72 77  1  0
M  END
$$$$
