
     RDKit          3D

 78 83  0  0  0  0  0  0  0  0999 V2000
  -52.5073    9.5470   46.3470 C   0  0  0  0  0  0  0  0  0  0  0  0
  -52.1980    8.1085   45.7757 C   0  0  1  0  0  0  0  0  0  0  0  0
  -52.4810    7.1271   46.9188 C   0  0  0  0  0  0  0  0  0  0  0  0
  -53.9594    6.8435   47.1275 C   0  0  1  0  0  0  0  0  0  0  0  0
  -54.7611    6.7414   45.8134 C   0  0  2  0  0  0  0  0  0  0  0  0
  -53.8473    6.7378   44.5678 C   0  0  2  0  0  0  0  0  0  0  0  0
  -53.0651    5.4314   44.2355 C   0  0  1  0  0  0  0  0  0  0  0  0
  -52.2164    5.4698   42.9423 C   0  0  1  0  0  0  0  0  0  0  0  0
  -52.2293    4.1116   42.2196 C   0  0  0  0  0  0  0  0  0  0  0  0
  -57.0072    7.7221   46.1973 C   0  0  0  0  0  0  0  0  0  0  0  0
  -57.8945    8.8840   45.8693 C   0  0  0  0  0  0  0  0  0  0  0  0
  -55.7156    7.8640   45.7379 N   0  0  0  0  0  0  0  0  0  0  0  0
  -51.4526   10.3942   46.3346 O   0  0  0  0  0  0  0  0  0  0  0  0
  -53.5849    9.9458   46.7672 O   0  0  0  0  0  0  0  0  0  0  0  0
  -54.0516    5.6563   47.9197 O   0  0  0  0  0  0  0  0  0  0  0  0
  -52.9606    7.8820   44.5957 O   0  0  0  0  0  0  0  0  0  0  0  0
  -52.1457    5.2074   45.3219 O   0  0  0  0  0  0  0  0  0  0  0  0
  -52.7367    6.4296   42.0081 O   0  0  0  0  0  0  0  0  0  0  0  0
  -51.5124    4.2116   40.9828 O   0  0  0  0  0  0  0  0  0  0  0  0
  -57.3973    6.7446   46.8237 O   0  0  0  0  0  0  0  0  0  0  0  0
  -48.1862    9.6803   43.3747 C   0  0  1  0  0  0  0  0  0  0  0  0
  -49.0814    8.5240   43.8787 C   0  0  1  0  0  0  0  0  0  0  0  0
  -50.1027    9.0336   44.9172 C   0  0  2  0  0  0  0  0  0  0  0  0
  -49.3613    9.8087   46.0370 C   0  0  2  0  0  0  0  0  0  0  0  0
  -48.5255   10.9225   45.3895 C   0  0  1  0  0  0  0  0  0  0  0  0
  -47.7020   11.7084   46.4101 C   0  0  0  0  0  0  0  0  0  0  0  0
  -49.7761    7.8777   42.7986 O   0  0  0  0  0  0  0  0  0  0  0  0
  -50.8011    7.8987   45.4887 O   0  0  0  0  0  0  0  0  0  0  0  0
  -48.4826    8.9217   46.7515 O   0  0  0  0  0  0  0  0  0  0  0  0
  -47.5846   10.3680   44.4591 O   0  0  0  0  0  0  0  0  0  0  0  0
  -48.3172   11.5512   47.6928 O   0  0  0  0  0  0  0  0  0  0  0  0
  -48.7373    8.8839   48.1585 C   0  0  1  0  0  0  0  0  0  0  0  0
  -47.7663    7.8744   48.8203 C   0  0  1  0  0  0  0  0  0  0  0  0
  -48.0939    7.7689   50.3296 C   0  0  2  0  0  0  0  0  0  0  0  0
  -48.9211    8.9765   50.8143 C   0  0  2  0  0  0  0  0  0  0  0  0
  -48.5134   10.2851   50.1143 C   0  0  1  0  0  0  0  0  0  0  0  0
  -47.1146   10.7972   50.4887 C   0  0  0  0  0  0  0  0  0  0  0  0
  -47.0596    5.4983   48.5982 C   0  0  0  0  0  0  0  0  0  0  0  0
  -47.6912    4.1416   48.4031 C   0  0  0  0  0  0  0  0  0  0  0  0
  -47.8367    6.5495   48.1576 N   0  0  0  0  0  0  0  0  0  0  0  0
  -46.9059    7.7610   51.1420 O   0  0  0  0  0  0  0  0  0  0  0  0
  -48.8570    9.0997   52.2364 O   0  0  0  0  0  0  0  0  0  0  0  0
  -48.5892   10.2061   48.6754 O   0  0  0  0  0  0  0  0  0  0  0  0
  -47.0058   12.1733   50.1054 O   0  0  0  0  0  0  0  0  0  0  0  0
  -45.9514    5.6396   49.1108 O   0  0  0  0  0  0  0  0  0  0  0  0
  -46.8384    6.6772   52.0734 C   0  0  1  0  0  0  0  0  0  0  0  0
  -45.3511    6.3929   52.3619 C   0  0  1  0  0  0  0  0  0  0  0  0
  -45.2121    5.3802   53.5043 C   0  0  2  0  0  0  0  0  0  0  0  0
  -46.1053    5.7125   54.7003 C   0  0  2  0  0  0  0  0  0  0  0  0
  -47.5404    5.9883   54.2227 C   0  0  1  0  0  0  0  0  0  0  0  0
  -48.4739    6.3804   55.3728 C   0  0  0  0  0  0  0  0  0  0  0  0
  -44.7993    5.8044   51.1704 O   0  0  0  0  0  0  0  0  0  0  0  0
  -43.8462    5.3274   53.9539 O   0  0  0  0  0  0  0  0  0  0  0  0
  -45.5246    6.8533   55.3652 O   0  0  0  0  0  0  0  0  0  0  0  0
  -47.5505    7.0436   53.2565 O   0  0  0  0  0  0  0  0  0  0  0  0
  -49.1781    7.5803   55.0694 O   0  0  0  0  0  0  0  0  0  0  0  0
  -44.0476    6.7149   50.3690 C   0  0  1  0  0  0  0  0  0  0  0  0
  -43.0854    7.4406   51.3308 C   0  0  2  0  0  0  0  0  0  0  0  0
  -41.9960    8.2231   50.5917 C   0  0  1  0  0  0  0  0  0  0  0  0
  -42.2094    8.2144   49.0695 C   0  0  1  0  0  0  0  0  0  0  0  0
  -42.4601    6.7744   48.5633 C   0  0  2  0  0  0  0  0  0  0  0  0
  -43.0224    6.7356   47.1503 C   0  0  0  0  0  0  0  0  0  0  0  0
  -42.4318    6.4623   52.1864 O   0  0  0  0  0  0  0  0  0  0  0  0
  -41.9779    9.5885   51.0538 O   0  0  0  0  0  0  0  0  0  0  0  0
  -43.3109    9.1018   48.7799 O   0  0  0  0  0  0  0  0  0  0  0  0
  -43.3224    5.9799   49.3844 O   0  0  0  0  0  0  0  0  0  0  0  0
  -48.0200    7.3276   39.2978 C   0  0  2  0  0  0  0  0  0  0  0  0
  -47.1884    7.6089   40.5608 C   0  0  2  0  0  0  0  0  0  0  0  0
  -47.4567    9.0018   41.1567 C   0  0  1  0  0  0  0  0  0  0  0  0
  -48.9494    9.3444   40.9728 C   0  0  1  0  0  0  0  0  0  0  0  0
  -49.2740   10.7348   41.5363 C   0  0  0  0  0  0  0  0  0  0  0  0
  -48.6211    8.6093   38.6929 C   0  0  2  0  0  0  0  0  0  0  0  0
  -47.6229    9.4629   38.1730 O   0  0  0  0  0  0  0  0  0  0  0  0
  -49.0746    6.4117   39.6431 O   0  0  0  0  0  0  0  0  0  0  0  0
  -45.7889    7.4981   40.2204 O   0  0  0  0  0  0  0  0  0  0  0  0
  -47.1722    9.0874   42.5645 O   0  0  0  0  0  0  0  0  0  0  0  0
  -49.4089    9.3596   39.6082 O   0  0  0  0  0  0  0  0  0  0  0  0
  -50.4543   11.2510   40.9171 O   0  0  0  0  0  0  0  0  0  0  0  0
  2  1  1  0
  1 13  1  0
  1 14  2  0
  3  2  1  1
  2 16  1  0
  2 28  1  6
  3  4  1  0
  4  5  1  0
  4 15  1  6
  6  5  1  0
  5 12  1  6
  6  7  1  0
  6 16  1  1
  7  8  1  0
  7 17  1  1
  8  9  1  0
  8 18  1  6
  9 19  1  6
 11 10  1  6
 12 10  1  0
 10 20  2  0
 21 22  1  0
 21 30  1  0
 21 76  1  6
 22 23  1  0
 22 27  1  6
 23 24  1  0
 23 28  1  1
 25 24  1  0
 24 29  1  6
 25 26  1  0
 25 30  1  6
 26 31  1  6
 32 29  1  6
 32 33  1  0
 32 43  1  0
 33 34  1  0
 33 40  1  6
 34 35  1  0
 34 41  1  1
 36 35  1  0
 35 42  1  1
 36 37  1  0
 36 43  1  6
 37 44  1  6
 39 38  1  6
 40 38  1  0
 38 45  2  0
 46 41  1  6
 46 47  1  0
 46 55  1  0
 47 48  1  0
 47 52  1  6
 48 49  1  0
 48 53  1  1
 50 49  1  0
 49 54  1  6
 50 51  1  0
 50 55  1  6
 51 56  1  6
 57 52  1  1
 57 58  1  0
 57 66  1  0
 58 59  1  0
 58 63  1  1
 59 60  1  0
 59 64  1  1
 61 60  1  0
 60 65  1  1
 62 61  1  6
 61 66  1  1
 68 67  1  0
 67 72  1  0
 67 74  1  1
 69 68  1  0
 68 75  1  6
 69 70  1  0
 69 76  1  1
 70 71  1  0
 70 77  1  6
 71 78  1  6
 72 73  1  1
 72 77  1  0
M  END
$$$$
