
     RDKit          3D

 78 83  0  0  0  0  0  0  0  0999 V2000
  -55.1133  -27.8662   56.0805 C   0  0  0  0  0  0  0  0  0  0  0  0
  -55.9041  -29.1729   55.6825 C   0  0  1  0  0  0  0  0  0  0  0  0
  -56.2709  -29.0139   54.2026 C   0  0  0  0  0  0  0  0  0  0  0  0
  -55.1169  -29.2945   53.2544 C   0  0  1  0  0  0  0  0  0  0  0  0
  -54.2218  -30.4692   53.7003 C   0  0  2  0  0  0  0  0  0  0  0  0
  -54.8182  -31.2385   54.9000 C   0  0  2  0  0  0  0  0  0  0  0  0
  -56.0134  -32.2022   54.6326 C   0  0  1  0  0  0  0  0  0  0  0  0
  -56.4140  -33.1162   55.8151 C   0  0  1  0  0  0  0  0  0  0  0  0
  -57.2872  -34.2931   55.3465 C   0  0  0  0  0  0  0  0  0  0  0  0
  -51.8515  -30.0106   53.1297 C   0  0  0  0  0  0  0  0  0  0  0  0
  -50.5370  -30.4116   53.7265 C   0  0  0  0  0  0  0  0  0  0  0  0
  -52.8817  -29.9561   54.0436 N   0  0  0  0  0  0  0  0  0  0  0  0
  -54.4731  -27.9385   57.2701 O   0  0  0  0  0  0  0  0  0  0  0  0
  -55.0229  -26.8414   55.4184 O   0  0  0  0  0  0  0  0  0  0  0  0
  -55.6802  -29.4968   51.9555 O   0  0  0  0  0  0  0  0  0  0  0  0
  -55.1202  -30.3227   55.9800 O   0  0  0  0  0  0  0  0  0  0  0  0
  -57.1593  -31.3770   54.3467 O   0  0  0  0  0  0  0  0  0  0  0  0
  -55.2564  -33.6952   56.4390 O   0  0  0  0  0  0  0  0  0  0  0  0
  -57.7249  -35.0552   56.4784 O   0  0  0  0  0  0  0  0  0  0  0  0
  -51.9888  -29.7481   51.9413 O   0  0  0  0  0  0  0  0  0  0  0  0
  -58.7481  -31.5091   58.9993 C   0  0  1  0  0  0  0  0  0  0  0  0
  -58.6156  -30.7491   57.6587 C   0  0  1  0  0  0  0  0  0  0  0  0
  -57.2103  -30.1274   57.5171 C   0  0  2  0  0  0  0  0  0  0  0  0
  -56.8902  -29.2770   58.7735 C   0  0  2  0  0  0  0  0  0  0  0  0
  -57.0556  -30.1617   60.0178 C   0  0  1  0  0  0  0  0  0  0  0  0
  -56.8230  -29.3946   61.3197 C   0  0  0  0  0  0  0  0  0  0  0  0
  -58.8787  -31.6037   56.5329 O   0  0  0  0  0  0  0  0  0  0  0  0
  -57.1834  -29.2852   56.3371 O   0  0  0  0  0  0  0  0  0  0  0  0
  -57.8034  -28.1691   58.8643 O   0  0  0  0  0  0  0  0  0  0  0  0
  -58.3917  -30.6790   60.0923 O   0  0  0  0  0  0  0  0  0  0  0  0
  -57.2567  -30.2207   62.4053 O   0  0  0  0  0  0  0  0  0  0  0  0
  -58.0566  -27.5389   57.6055 C   0  0  1  0  0  0  0  0  0  0  0  0
  -58.7125  -26.1579   57.8553 C   0  0  1  0  0  0  0  0  0  0  0  0
  -59.0640  -25.5086   56.4946 C   0  0  2  0  0  0  0  0  0  0  0  0
  -58.2770  -26.1578   55.3385 C   0  0  2  0  0  0  0  0  0  0  0  0
  -56.8510  -26.5610   55.7538 C   0  0  1  0  0  0  0  0  0  0  0  0
  -55.9130  -25.3783   56.0371 C   0  0  0  0  0  0  0  0  0  0  0  0
  -59.8159  -26.1041   60.0857 C   0  0  0  0  0  0  0  0  0  0  0  0
  -61.1016  -26.3663   60.8313 C   0  0  0  0  0  0  0  0  0  0  0  0
  -59.9104  -26.2819   58.7210 N   0  0  0  0  0  0  0  0  0  0  0  0
  -58.7244  -24.1105   56.4584 O   0  0  0  0  0  0  0  0  0  0  0  0
  -58.2689  -25.3096   54.1887 O   0  0  0  0  0  0  0  0  0  0  0  0
  -56.8205  -27.4388   56.8989 O   0  0  0  0  0  0  0  0  0  0  0  0
  -54.6475  -25.6295   55.4143 O   0  0  0  0  0  0  0  0  0  0  0  0
  -58.7839  -25.7580   60.6569 O   0  0  0  0  0  0  0  0  0  0  0  0
  -59.8238  -23.2322   56.7166 C   0  0  1  0  0  0  0  0  0  0  0  0
  -59.2728  -21.7947   56.7958 C   0  0  1  0  0  0  0  0  0  0  0  0
  -60.4233  -20.7842   56.8681 C   0  0  2  0  0  0  0  0  0  0  0  0
  -61.5160  -21.0583   55.8339 C   0  0  2  0  0  0  0  0  0  0  0  0
  -61.9239  -22.5398   55.8816 C   0  0  1  0  0  0  0  0  0  0  0  0
  -62.9809  -22.8893   54.8288 C   0  0  0  0  0  0  0  0  0  0  0  0
  -58.5174  -21.7034   58.0172 O   0  0  0  0  0  0  0  0  0  0  0  0
  -59.9230  -19.4508   56.6629 O   0  0  0  0  0  0  0  0  0  0  0  0
  -60.9909  -20.6799   54.5448 O   0  0  0  0  0  0  0  0  0  0  0  0
  -60.7840  -23.3781   55.6689 O   0  0  0  0  0  0  0  0  0  0  0  0
  -64.2942  -22.6856   55.3399 O   0  0  0  0  0  0  0  0  0  0  0  0
  -57.1185  -21.9317   57.8517 C   0  0  1  0  0  0  0  0  0  0  0  0
  -56.5563  -22.1958   59.2630 C   0  0  2  0  0  0  0  0  0  0  0  0
  -55.1347  -22.7644   59.2318 C   0  0  1  0  0  0  0  0  0  0  0  0
  -54.5572  -22.7999   57.8078 C   0  0  1  0  0  0  0  0  0  0  0  0
  -55.5615  -23.4530   56.8293 C   0  0  2  0  0  0  0  0  0  0  0  0
  -55.2111  -23.2026   55.3702 C   0  0  0  0  0  0  0  0  0  0  0  0
  -57.4077  -23.1559   59.9482 O   0  0  0  0  0  0  0  0  0  0  0  0
  -54.2720  -21.9664   60.0668 O   0  0  0  0  0  0  0  0  0  0  0  0
  -54.2279  -21.4435   57.4382 O   0  0  0  0  0  0  0  0  0  0  0  0
  -56.9281  -23.0671   57.0090 O   0  0  0  0  0  0  0  0  0  0  0  0
  -62.3360  -33.7190   61.6127 C   0  0  2  0  0  0  0  0  0  0  0  0
  -61.6651  -32.4909   60.9741 C   0  0  2  0  0  0  0  0  0  0  0  0
  -60.4202  -32.8518   60.1452 C   0  0  1  0  0  0  0  0  0  0  0  0
  -60.6613  -34.2054   59.4458 C   0  0  1  0  0  0  0  0  0  0  0  0
  -59.4419  -34.6259   58.6137 C   0  0  0  0  0  0  0  0  0  0  0  0
  -61.4173  -34.9543   61.6169 C   0  0  2  0  0  0  0  0  0  0  0  0
  -60.3064  -34.7797   62.4718 O   0  0  0  0  0  0  0  0  0  0  0  0
  -63.5400  -34.0107   60.8809 O   0  0  0  0  0  0  0  0  0  0  0  0
  -61.2876  -31.5772   62.0274 O   0  0  0  0  0  0  0  0  0  0  0  0
  -60.1178  -31.8913   59.1175 O   0  0  0  0  0  0  0  0  0  0  0  0
  -60.9303  -35.3100   60.3294 O   0  0  0  0  0  0  0  0  0  0  0  0
  -59.6410  -35.9373   58.0812 O   0  0  0  0  0  0  0  0  0  0  0  0
  2  1  1  0
  1 13  1  0
  1 14  2  0
  3  2  1  1
  2 16  1  0
  2 28  1  1
  3  4  1  0
  4  5  1  0
  4 15  1  6
  6  5  1  0
  5 12  1  1
  6  7  1  0
  6 16  1  1
  7  8  1  0
  7 17  1  1
  8  9  1  0
  8 18  1  6
  9 19  1  6
 11 10  1  6
 12 10  1  0
 10 20  2  0
 21 22  1  0
 21 30  1  0
 21 76  1  1
 22 23  1  0
 22 27  1  6
 23 24  1  0
 23 28  1  6
 25 24  1  0
 24 29  1  1
 25 26  1  0
 25 30  1  1
 26 31  1  6
 32 29  1  1
 32 33  1  0
 32 43  1  0
 33 34  1  0
 33 40  1  1
 34 35  1  0
 34 41  1  1
 36 35  1  0
 35 42  1  6
 36 37  1  0
 36 43  1  1
 37 44  1  6
 39 38  1  6
 40 38  1  0
 38 45  2  0
 46 41  1  6
 46 47  1  0
 46 55  1  0
 47 48  1  0
 47 52  1  1
 48 49  1  0
 48 53  1  6
 50 49  1  0
 49 54  1  6
 50 51  1  0
 50 55  1  6
 51 56  1  6
 57 52  1  1
 57 58  1  0
 57 66  1  0
 58 59  1  0
 58 63  1  6
 59 60  1  0
 59 64  1  1
 61 60  1  0
 60 65  1  6
 62 61  1  6
 61 66  1  1
 68 67  1  0
 67 72  1  0
 67 74  1  6
 69 68  1  0
 68 75  1  1
 69 70  1  0
 69 76  1  6
 70 71  1  0
 70 77  1  1
 71 78  1  6
 72 73  1  1
 72 77  1  0
M  END
$$$$
