
     RDKit          3D

 78 83  0  0  0  0  0  0  0  0999 V2000
  -47.2292    5.0540   49.4081 C   0  0  0  0  0  0  0  0  0  0  0  0
  -47.8055    5.3802   48.0821 C   0  0  1  0  0  0  0  0  0  0  0  0
  -47.1971    4.5730   46.9734 C   0  0  0  0  0  0  0  0  0  0  0  0
  -47.3655    3.1087   47.3301 C   0  0  1  0  0  0  0  0  0  0  0  0
  -48.8528    2.8250   47.3497 C   0  0  2  0  0  0  0  0  0  0  0  0
  -49.5094    3.8028   48.2882 C   0  0  2  0  0  0  0  0  0  0  0  0
  -51.0041    3.6345   48.1123 C   0  0  1  0  0  0  0  0  0  0  0  0
  -51.7633    4.8987   48.4990 C   0  0  1  0  0  0  0  0  0  0  0  0
  -53.2509    4.6145   48.6189 C   0  0  0  0  0  0  0  0  0  0  0  0
  -49.9990    1.1807   48.9137 C   0  0  0  0  0  0  0  0  0  0  0  0
  -49.7789    1.3068   50.3962 C   0  0  0  0  0  0  0  0  0  0  0  0
  -48.9873    1.5069   47.9838 N   0  0  0  0  0  0  0  0  0  0  0  0
  -45.8351    5.0808   49.6469 O   0  0  0  0  0  0  0  0  0  0  0  0
  -47.8934    4.7247   50.4265 O   0  0  0  0  0  0  0  0  0  0  0  0
  -46.6909    2.2888   46.4237 O   0  0  0  0  0  0  0  0  0  0  0  0
  -49.1859    5.1033   48.0745 O   0  0  0  0  0  0  0  0  0  0  0  0
  -51.3252    3.2137   46.8391 O   0  0  0  0  0  0  0  0  0  0  0  0
  -51.3613    5.3541   49.7607 O   0  0  0  0  0  0  0  0  0  0  0  0
  -53.9832    5.7710   48.8722 O   0  0  0  0  0  0  0  0  0  0  0  0
  -51.1111    0.7774   48.5116 O   0  0  0  0  0  0  0  0  0  0  0  0
  -45.4783    7.8448   45.2843 C   0  0  1  0  0  0  0  0  0  0  0  0
  -46.1019    8.0111   46.6333 C   0  0  1  0  0  0  0  0  0  0  0  0
  -47.3733    7.1494   46.6043 C   0  0  2  0  0  0  0  0  0  0  0  0
  -48.3249    7.8324   45.6857 C   0  0  2  0  0  0  0  0  0  0  0  0
  -47.6043    8.0409   44.3400 C   0  0  1  0  0  0  0  0  0  0  0  0
  -47.6198    9.4651   43.8786 C   0  0  0  0  0  0  0  0  0  0  0  0
  -45.1869    7.5558   47.5933 O   0  0  0  0  0  0  0  0  0  0  0  0
  -47.7889    6.7756   47.8198 O   0  0  0  0  0  0  0  0  0  0  0  0
  -48.8842    9.0082   46.1503 O   0  0  0  0  0  0  0  0  0  0  0  0
  -46.3917    7.4229   44.3189 O   0  0  0  0  0  0  0  0  0  0  0  0
  -47.8028    9.6236   42.5215 O   0  0  0  0  0  0  0  0  0  0  0  0
  -49.7396    8.8710   47.2226 C   0  0  1  0  0  0  0  0  0  0  0  0
  -50.1002   10.1473   47.9626 C   0  0  1  0  0  0  0  0  0  0  0  0
  -51.4142   10.6663   47.5176 C   0  0  2  0  0  0  0  0  0  0  0  0
  -51.7247   10.1631   46.1496 C   0  0  2  0  0  0  0  0  0  0  0  0
  -51.8833    8.6501   46.3023 C   0  0  1  0  0  0  0  0  0  0  0  0
  -52.2037    8.0999   44.9541 C   0  0  0  0  0  0  0  0  0  0  0  0
  -49.1662    9.8457   50.2676 C   0  0  0  0  0  0  0  0  0  0  0  0
  -47.8092   10.3596   49.9014 C   0  0  0  0  0  0  0  0  0  0  0  0
  -50.2617    9.8228   49.3938 N   0  0  0  0  0  0  0  0  0  0  0  0
  -51.6318   12.0292   47.7046 O   0  0  0  0  0  0  0  0  0  0  0  0
  -50.7288   10.5136   45.2617 O   0  0  0  0  0  0  0  0  0  0  0  0
  -50.8445    8.0809   46.9711 O   0  0  0  0  0  0  0  0  0  0  0  0
  -52.5621    6.7501   45.1220 O   0  0  0  0  0  0  0  0  0  0  0  0
  -49.2642    9.4108   51.4802 O   0  0  0  0  0  0  0  0  0  0  0  0
  -51.6862   12.2978   49.0710 C   0  0  1  0  0  0  0  0  0  0  0  0
  -50.8047   11.5668   49.9607 C   0  0  1  0  0  0  0  0  0  0  0  0
  -49.4992   12.3667   50.2314 C   0  0  2  0  0  0  0  0  0  0  0  0
  -49.7297   13.7116   50.8142 C   0  0  2  0  0  0  0  0  0  0  0  0
  -51.1159   14.1393   50.3114 C   0  0  1  0  0  0  0  0  0  0  0  0
  -51.2350   15.6233   50.3413 C   0  0  0  0  0  0  0  0  0  0  0  0
  -51.2743   11.1277   51.1739 O   0  0  0  0  0  0  0  0  0  0  0  0
  -48.9617   12.5975   48.9238 O   0  0  0  0  0  0  0  0  0  0  0  0
  -48.8468   14.7046   50.3973 O   0  0  0  0  0  0  0  0  0  0  0  0
  -51.1053   13.7036   48.9878 O   0  0  0  0  0  0  0  0  0  0  0  0
  -52.5647   16.0180   50.6490 O   0  0  0  0  0  0  0  0  0  0  0  0
  -50.4999   10.2213   51.8661 C   0  0  1  0  0  0  0  0  0  0  0  0
  -50.9742   10.1824   53.2916 C   0  0  2  0  0  0  0  0  0  0  0  0
  -51.6643    8.9067   53.7014 C   0  0  1  0  0  0  0  0  0  0  0  0
  -52.3324    8.3578   52.4688 C   0  0  1  0  0  0  0  0  0  0  0  0
  -51.2411    8.0217   51.4455 C   0  0  2  0  0  0  0  0  0  0  0  0
  -50.6302    6.6743   51.8009 C   0  0  0  0  0  0  0  0  0  0  0  0
  -51.9674   11.1768   53.4969 O   0  0  0  0  0  0  0  0  0  0  0  0
  -50.7657    8.0315   54.2270 O   0  0  0  0  0  0  0  0  0  0  0  0
  -53.0156    7.1887   52.8062 O   0  0  0  0  0  0  0  0  0  0  0  0
  -50.3375    9.0090   51.2871 O   0  0  0  0  0  0  0  0  0  0  0  0
  -43.4362    8.9570   41.4847 C   0  0  2  0  0  0  0  0  0  0  0  0
  -44.0348    9.5922   42.7324 C   0  0  2  0  0  0  0  0  0  0  0  0
  -43.9193    8.4721   43.7889 C   0  0  1  0  0  0  0  0  0  0  0  0
  -42.4714    8.3488   44.0887 C   0  0  1  0  0  0  0  0  0  0  0  0
  -42.1826    7.2229   45.0883 C   0  0  0  0  0  0  0  0  0  0  0  0
  -41.9736    8.7345   41.8264 C   0  0  2  0  0  0  0  0  0  0  0  0
  -41.4043    8.0531   40.7469 O   0  0  0  0  0  0  0  0  0  0  0  0
  -43.5319    9.8323   40.4354 O   0  0  0  0  0  0  0  0  0  0  0  0
  -45.3295   10.0079   42.5588 O   0  0  0  0  0  0  0  0  0  0  0  0
  -44.7120    8.8933   44.8335 O   0  0  0  0  0  0  0  0  0  0  0  0
  -41.7755    8.0055   42.9489 O   0  0  0  0  0  0  0  0  0  0  0  0
  -42.6038    6.0019   44.5316 O   0  0  0  0  0  0  0  0  0  0  0  0
  2  1  1  0
  1 13  1  0
  1 14  2  0
  2  3  1  0
  2 16  1  0
  2 28  1  6
  3  4  1  0
  4  5  1  0
  4 15  1  6
  6  5  1  0
  5 12  1  1
  6  7  1  0
  6 16  1  6
  7  8  1  0
  7 17  1  6
  8  9  1  0
  8 18  1  1
  9 19  1  0
 10 11  1  0
 12 10  1  0
 10 20  2  0
 21 22  1  0
 21 30  1  0
 21 76  1  6
 22 23  1  0
 22 27  1  1
 23 24  1  0
 23 28  1  1
 25 24  1  0
 24 29  1  1
 25 26  1  1
 30 25  1  0
 26 31  1  0
 32 29  1  6
 32 33  1  0
 32 43  1  0
 33 34  1  0
 33 40  1  1
 34 35  1  0
 34 41  1  6
 36 35  1  0
 35 42  1  6
 36 37  1  6
 43 36  1  0
 37 44  1  0
 38 39  1  0
 40 38  1  0
 38 45  2  0
 46 41  1  6
 46 47  1  0
 46 55  1  0
 47 48  1  0
 47 52  1  1
 48 49  1  0
 48 53  1  6
 50 49  1  0
 49 54  1  6
 50 51  1  6
 55 50  1  0
 51 56  1  0
 57 52  1  6
 57 58  1  0
 57 66  1  0
 58 59  1  0
 58 63  1  6
 59 60  1  0
 59 64  1  6
 61 60  1  0
 60 65  1  1
 61 62  1  1
 66 61  1  0
 68 67  1  0
 67 72  1  0
 67 74  1  6
 69 68  1  0
 68 75  1  6
 69 70  1  0
 69 76  1  1
 70 71  1  1
 70 77  1  0
 71 78  1  0
 72 73  1  6
 72 77  1  0
M  END
$$$$
