
     RDKit          3D

 78 83  0  0  0  0  0  0  0  0999 V2000
  -15.8738    4.4115   39.9539 C   0  0  0  0  0  0  0  0  0  0  0  0
  -16.4572    4.1513   41.3973 C   0  0  1  0  0  0  0  0  0  0  0  0
  -17.7255    5.0057   41.5038 C   0  0  0  0  0  0  0  0  0  0  0  0
  -18.9271    4.4050   40.7931 C   0  0  1  0  0  0  0  0  0  0  0  0
  -19.0225    2.8713   40.9280 C   0  0  2  0  0  0  0  0  0  0  0  0
  -17.9951    2.3060   41.9338 C   0  0  2  0  0  0  0  0  0  0  0  0
  -18.2772    2.4946   43.4549 C   0  0  1  0  0  0  0  0  0  0  0  0
  -17.2330    1.8715   44.4118 C   0  0  1  0  0  0  0  0  0  0  0  0
  -17.7880    1.7370   45.8405 C   0  0  0  0  0  0  0  0  0  0  0  0
  -19.9020    1.9879   38.7831 C   0  0  0  0  0  0  0  0  0  0  0  0
  -19.5710    1.0997   37.6228 C   0  0  0  0  0  0  0  0  0  0  0  0
  -18.8261    2.2535   39.6026 N   0  0  0  0  0  0  0  0  0  0  0  0
  -15.7262    5.7182   39.6358 O   0  0  0  0  0  0  0  0  0  0  0  0
  -15.5424    3.5606   39.1398 O   0  0  0  0  0  0  0  0  0  0  0  0
  -20.0883    5.0728   41.2940 O   0  0  0  0  0  0  0  0  0  0  0  0
  -16.6621    2.7566   41.5923 O   0  0  0  0  0  0  0  0  0  0  0  0
  -18.2696    3.9128   43.7083 O   0  0  0  0  0  0  0  0  0  0  0  0
  -16.8707    0.5457   43.9926 O   0  0  0  0  0  0  0  0  0  0  0  0
  -16.7151    1.8078   46.7879 O   0  0  0  0  0  0  0  0  0  0  0  0
  -21.0241    2.4398   38.9746 O   0  0  0  0  0  0  0  0  0  0  0  0
  -17.6882    6.2249   45.2346 C   0  0  1  0  0  0  0  0  0  0  0  0
  -17.1482    5.9903   43.8043 C   0  0  1  0  0  0  0  0  0  0  0  0
  -16.2359    4.7464   43.7595 C   0  0  2  0  0  0  0  0  0  0  0  0
  -15.1398    4.8673   44.8495 C   0  0  2  0  0  0  0  0  0  0  0  0
  -15.8227    5.0883   46.2071 C   0  0  1  0  0  0  0  0  0  0  0  0
  -14.8201    5.2847   47.3446 C   0  0  0  0  0  0  0  0  0  0  0  0
  -18.2131    5.8397   42.8502 O   0  0  0  0  0  0  0  0  0  0  0  0
  -15.6167    4.6620   42.4511 O   0  0  0  0  0  0  0  0  0  0  0  0
  -14.2870    5.9912   44.5681 O   0  0  0  0  0  0  0  0  0  0  0  0
  -16.6293    6.2744   46.1766 O   0  0  0  0  0  0  0  0  0  0  0  0
  -15.5560    5.4626   48.5593 O   0  0  0  0  0  0  0  0  0  0  0  0
  -12.8941    5.6908   44.6930 C   0  0  1  0  0  0  0  0  0  0  0  0
  -12.0720    6.8235   44.0291 C   0  0  1  0  0  0  0  0  0  0  0  0
  -10.5679    6.4619   44.0886 C   0  0  2  0  0  0  0  0  0  0  0  0
  -10.2885    5.3792   45.1504 C   0  0  2  0  0  0  0  0  0  0  0  0
  -11.1841    5.5317   46.3927 C   0  0  1  0  0  0  0  0  0  0  0  0
  -10.8839    6.7741   47.2442 C   0  0  0  0  0  0  0  0  0  0  0  0
  -13.1852    8.2196   42.2951 C   0  0  0  0  0  0  0  0  0  0  0  0
  -13.3909    8.3997   40.8109 C   0  0  0  0  0  0  0  0  0  0  0  0
  -12.5162    7.0618   42.6343 N   0  0  0  0  0  0  0  0  0  0  0  0
   -9.7545    7.5894   44.4606 O   0  0  0  0  0  0  0  0  0  0  0  0
   -8.9036    5.3557   45.5012 O   0  0  0  0  0  0  0  0  0  0  0  0
  -12.5928    5.5352   46.0794 O   0  0  0  0  0  0  0  0  0  0  0  0
  -11.4373    6.5857   48.5521 O   0  0  0  0  0  0  0  0  0  0  0  0
  -13.5800    9.0432   43.1178 O   0  0  0  0  0  0  0  0  0  0  0  0
   -8.3786    7.4697   44.0874 C   0  0  1  0  0  0  0  0  0  0  0  0
   -7.7664    8.8843   44.0759 C   0  0  1  0  0  0  0  0  0  0  0  0
   -6.2476    8.8081   43.8826 C   0  0  2  0  0  0  0  0  0  0  0  0
   -5.5881    7.7681   44.7893 C   0  0  2  0  0  0  0  0  0  0  0  0
   -6.3422    6.4320   44.6901 C   0  0  1  0  0  0  0  0  0  0  0  0
   -5.7595    5.3616   45.6189 C   0  0  0  0  0  0  0  0  0  0  0  0
   -8.3290    9.5741   42.9453 O   0  0  0  0  0  0  0  0  0  0  0  0
   -5.6511   10.0905   44.1478 O   0  0  0  0  0  0  0  0  0  0  0  0
   -5.5982    8.3001   46.1300 O   0  0  0  0  0  0  0  0  0  0  0  0
   -7.7222    6.6121   45.0226 O   0  0  0  0  0  0  0  0  0  0  0  0
   -5.1432    4.3194   44.8696 O   0  0  0  0  0  0  0  0  0  0  0  0
   -9.3402   10.5207   43.2886 C   0  0  1  0  0  0  0  0  0  0  0  0
   -9.8477   11.1094   41.9569 C   0  0  2  0  0  0  0  0  0  0  0  0
  -11.1439   11.9076   42.1239 C   0  0  1  0  0  0  0  0  0  0  0  0
  -11.5491   12.0505   43.5997 C   0  0  1  0  0  0  0  0  0  0  0  0
  -11.5122   10.6767   44.3097 C   0  0  2  0  0  0  0  0  0  0  0  0
  -11.5535   10.7952   45.8258 C   0  0  0  0  0  0  0  0  0  0  0  0
  -10.1057   10.0272   41.0196 O   0  0  0  0  0  0  0  0  0  0  0  0
  -10.9842   13.2218   41.5531 O   0  0  0  0  0  0  0  0  0  0  0  0
  -10.6556   13.0097   44.2049 O   0  0  0  0  0  0  0  0  0  0  0  0
  -10.3921    9.8487   43.9799 O   0  0  0  0  0  0  0  0  0  0  0  0
  -21.4640    9.0244   46.7969 C   0  0  2  0  0  0  0  0  0  0  0  0
  -20.0736    9.0388   46.1390 C   0  0  2  0  0  0  0  0  0  0  0  0
  -19.3462    7.6873   46.2466 C   0  0  1  0  0  0  0  0  0  0  0  0
  -20.3826    6.5514   46.1250 C   0  0  1  0  0  0  0  0  0  0  0  0
  -19.7142    5.1745   46.2414 C   0  0  0  0  0  0  0  0  0  0  0  0
  -21.6548    7.8231   47.7406 C   0  0  2  0  0  0  0  0  0  0  0  0
  -20.8204    7.9104   48.8771 O   0  0  0  0  0  0  0  0  0  0  0  0
  -22.4580    8.9890   45.7572 O   0  0  0  0  0  0  0  0  0  0  0  0
  -19.2768   10.0607   46.7773 O   0  0  0  0  0  0  0  0  0  0  0  0
  -18.3666    7.4800   45.2133 O   0  0  0  0  0  0  0  0  0  0  0  0
  -21.4233    6.5651   47.1201 O   0  0  0  0  0  0  0  0  0  0  0  0
  -20.6168    4.2408   46.8384 O   0  0  0  0  0  0  0  0  0  0  0  0
  2  1  1  0
  1 13  1  0
  1 14  2  0
  3  2  1  1
  2 16  1  0
  2 28  1  1
  3  4  1  0
  4  5  1  0
  4 15  1  1
  6  5  1  0
  5 12  1  6
  6  7  1  0
  6 16  1  6
  7  8  1  0
  7 17  1  6
  8  9  1  0
  8 18  1  6
  9 19  1  6
 11 10  1  6
 12 10  1  0
 10 20  2  0
 21 22  1  0
 21 30  1  0
 21 76  1  6
 22 23  1  0
 22 27  1  6
 23 24  1  0
 23 28  1  6
 25 24  1  0
 24 29  1  6
 25 26  1  0
 25 30  1  6
 26 31  1  6
 32 29  1  1
 32 33  1  0
 32 43  1  0
 33 34  1  0
 33 40  1  6
 34 35  1  0
 34 41  1  1
 36 35  1  0
 35 42  1  1
 36 37  1  0
 36 43  1  6
 37 44  1  6
 39 38  1  6
 40 38  1  0
 38 45  2  0
 46 41  1  1
 46 47  1  0
 46 55  1  0
 47 48  1  0
 47 52  1  6
 48 49  1  0
 48 53  1  1
 50 49  1  0
 49 54  1  1
 50 51  1  0
 50 55  1  1
 51 56  1  6
 57 52  1  6
 57 58  1  0
 57 66  1  0
 58 59  1  0
 58 63  1  6
 59 60  1  0
 59 64  1  1
 61 60  1  0
 60 65  1  1
 62 61  1  6
 61 66  1  1
 68 67  1  0
 67 72  1  0
 67 74  1  6
 69 68  1  0
 68 75  1  1
 69 70  1  0
 69 76  1  6
 70 71  1  0
 70 77  1  1
 71 78  1  6
 72 73  1  1
 72 77  1  0
M  END
$$$$
