
     RDKit          3D

 78 83  0  0  0  0  0  0  0  0999 V2000
  -38.3401   -9.1430   62.2206 C   0  0  0  0  0  0  0  0  0  0  0  0
  -38.0183   -8.3380   63.4227 C   0  0  1  0  0  0  0  0  0  0  0  0
  -39.1897   -8.1877   64.3480 C   0  0  0  0  0  0  0  0  0  0  0  0
  -39.6739   -9.5808   64.7005 C   0  0  1  0  0  0  0  0  0  0  0  0
  -38.5581  -10.2571   65.4691 C   0  0  2  0  0  0  0  0  0  0  0  0
  -37.3044  -10.1954   64.6369 C   0  0  2  0  0  0  0  0  0  0  0  0
  -36.1737  -10.6770   65.5216 C   0  0  1  0  0  0  0  0  0  0  0  0
  -34.8128  -10.4411   64.8761 C   0  0  1  0  0  0  0  0  0  0  0  0
  -33.7139  -11.1119   65.6826 C   0  0  0  0  0  0  0  0  0  0  0  0
  -38.6894  -12.5093   66.6413 C   0  0  0  0  0  0  0  0  0  0  0  0
  -39.0974  -13.9570   66.6484 C   0  0  0  0  0  0  0  0  0  0  0  0
  -38.9326  -11.6762   65.5270 N   0  0  0  0  0  0  0  0  0  0  0  0
  -38.1918   -8.6279   60.9114 O   0  0  0  0  0  0  0  0  0  0  0  0
  -38.7696  -10.3271   62.2342 O   0  0  0  0  0  0  0  0  0  0  0  0
  -40.8582   -9.5308   65.4379 O   0  0  0  0  0  0  0  0  0  0  0  0
  -36.9955   -8.9623   64.1620 O   0  0  0  0  0  0  0  0  0  0  0  0
  -36.2431  -10.1285   66.7847 O   0  0  0  0  0  0  0  0  0  0  0  0
  -34.7583  -11.0230   63.6035 O   0  0  0  0  0  0  0  0  0  0  0  0
  -32.8756  -10.1834   66.2933 O   0  0  0  0  0  0  0  0  0  0  0  0
  -38.1206  -12.0486   67.6538 O   0  0  0  0  0  0  0  0  0  0  0  0
  -37.3635   -4.6570   65.7283 C   0  0  1  0  0  0  0  0  0  0  0  0
  -37.6082   -5.0269   64.3001 C   0  0  1  0  0  0  0  0  0  0  0  0
  -36.9152   -6.3841   64.1055 C   0  0  2  0  0  0  0  0  0  0  0  0
  -35.4510   -6.1215   64.1593 C   0  0  2  0  0  0  0  0  0  0  0  0
  -35.1587   -5.3829   65.4793 C   0  0  1  0  0  0  0  0  0  0  0  0
  -34.4183   -4.0967   65.2826 C   0  0  0  0  0  0  0  0  0  0  0  0
  -38.9940   -5.1182   64.1070 O   0  0  0  0  0  0  0  0  0  0  0  0
  -37.4173   -7.0954   63.0897 O   0  0  0  0  0  0  0  0  0  0  0  0
  -34.9098   -5.4571   63.0744 O   0  0  0  0  0  0  0  0  0  0  0  0
  -36.2627   -5.3172   66.2728 O   0  0  0  0  0  0  0  0  0  0  0  0
  -33.6793   -3.6907   66.3731 O   0  0  0  0  0  0  0  0  0  0  0  0
  -35.8219   -5.0034   62.1456 C   0  0  1  0  0  0  0  0  0  0  0  0
  -35.6529   -3.5665   61.6838 C   0  0  1  0  0  0  0  0  0  0  0  0
  -34.9355   -3.5054   60.3894 C   0  0  2  0  0  0  0  0  0  0  0  0
  -34.1153   -4.7355   60.2021 C   0  0  2  0  0  0  0  0  0  0  0  0
  -35.1234   -5.8793   60.0874 C   0  0  1  0  0  0  0  0  0  0  0  0
  -34.3464   -7.1365   59.8905 C   0  0  0  0  0  0  0  0  0  0  0  0
  -37.3752   -1.7702   61.9732 C   0  0  0  0  0  0  0  0  0  0  0  0
  -38.1191   -0.7112   61.2218 C   0  0  0  0  0  0  0  0  0  0  0  0
  -36.9929   -3.0025   61.4260 N   0  0  0  0  0  0  0  0  0  0  0  0
  -34.2750   -2.3117   60.1088 O   0  0  0  0  0  0  0  0  0  0  0  0
  -33.2321   -4.8985   61.2491 O   0  0  0  0  0  0  0  0  0  0  0  0
  -36.0400   -5.8703   61.0924 O   0  0  0  0  0  0  0  0  0  0  0  0
  -35.2565   -8.2080   59.9361 O   0  0  0  0  0  0  0  0  0  0  0  0
  -37.1000   -1.4640   63.1978 O   0  0  0  0  0  0  0  0  0  0  0  0
  -35.1789   -1.4134   59.5445 C   0  0  1  0  0  0  0  0  0  0  0  0
  -34.6816   -0.1475   59.0415 C   0  0  1  0  0  0  0  0  0  0  0  0
  -34.3835   -0.2326   57.5179 C   0  0  2  0  0  0  0  0  0  0  0  0
  -35.5563   -0.6251   56.6983 C   0  0  2  0  0  0  0  0  0  0  0  0
  -36.4332   -1.4773   57.6269 C   0  0  1  0  0  0  0  0  0  0  0  0
  -37.3120   -2.3706   56.8224 C   0  0  0  0  0  0  0  0  0  0  0  0
  -35.4052    1.0001   59.2533 O   0  0  0  0  0  0  0  0  0  0  0  0
  -33.4547   -1.3179   57.4109 O   0  0  0  0  0  0  0  0  0  0  0  0
  -35.2749   -1.4260   55.5944 O   0  0  0  0  0  0  0  0  0  0  0  0
  -35.4928   -2.2470   58.3087 O   0  0  0  0  0  0  0  0  0  0  0  0
  -36.7392   -2.6299   55.5484 O   0  0  0  0  0  0  0  0  0  0  0  0
  -34.7933    2.0187   59.9521 C   0  0  1  0  0  0  0  0  0  0  0  0
  -35.7714    3.1508   60.0951 C   0  0  2  0  0  0  0  0  0  0  0  0
  -36.2790    3.3844   61.4947 C   0  0  1  0  0  0  0  0  0  0  0  0
  -36.2736    2.0481   62.1886 C   0  0  1  0  0  0  0  0  0  0  0  0
  -34.8229    1.5575   62.2652 C   0  0  2  0  0  0  0  0  0  0  0  0
  -34.1307    2.2460   63.4322 C   0  0  0  0  0  0  0  0  0  0  0  0
  -36.9515    2.8647   59.3583 O   0  0  0  0  0  0  0  0  0  0  0  0
  -35.4970    4.2945   62.1349 O   0  0  0  0  0  0  0  0  0  0  0  0
  -36.7691    2.2078   63.4833 O   0  0  0  0  0  0  0  0  0  0  0  0
  -34.1623    1.6640   61.0954 O   0  0  0  0  0  0  0  0  0  0  0  0
  -37.2419   -1.4434   69.0711 C   0  0  2  0  0  0  0  0  0  0  0  0
  -37.4157   -1.5954   67.5660 C   0  0  2  0  0  0  0  0  0  0  0  0
  -37.4859   -3.1255   67.3714 C   0  0  1  0  0  0  0  0  0  0  0  0
  -38.7889   -3.5451   67.9437 C   0  0  1  0  0  0  0  0  0  0  0  0
  -38.9846   -5.0643   67.8810 C   0  0  0  0  0  0  0  0  0  0  0  0
  -38.5362   -1.9690   69.6660 C   0  0  2  0  0  0  0  0  0  0  0  0
  -38.3812   -1.9492   71.0550 O   0  0  0  0  0  0  0  0  0  0  0  0
  -37.1012   -0.1172   69.3833 O   0  0  0  0  0  0  0  0  0  0  0  0
  -36.3972   -1.0284   66.8447 O   0  0  0  0  0  0  0  0  0  0  0  0
  -37.3411   -3.3126   66.0145 O   0  0  0  0  0  0  0  0  0  0  0  0
  -38.8449   -3.2300   69.2849 O   0  0  0  0  0  0  0  0  0  0  0  0
  -40.1560   -5.4009   68.5830 O   0  0  0  0  0  0  0  0  0  0  0  0
  2  1  1  0
  1 13  1  0
  1 14  2  0
  2  3  1  0
  2 16  1  0
  2 28  1  6
  3  4  1  0
  4  5  1  0
  4 15  1  1
  6  5  1  0
  5 12  1  6
  6  7  1  0
  6 16  1  1
  7  8  1  0
  7 17  1  1
  8  9  1  0
  8 18  1  6
  9 19  1  0
 10 11  1  0
 12 10  1  0
 10 20  2  0
 21 22  1  0
 21 30  1  0
 21 76  1  6
 22 23  1  0
 22 27  1  1
 23 24  1  0
 23 28  1  6
 25 24  1  0
 24 29  1  6
 25 26  1  6
 30 25  1  0
 26 31  1  0
 32 29  1  6
 32 33  1  0
 32 43  1  0
 33 34  1  0
 33 40  1  6
 34 35  1  0
 34 41  1  1
 36 35  1  0
 35 42  1  1
 36 37  1  1
 43 36  1  0
 37 44  1  0
 38 39  1  0
 40 38  1  0
 38 45  2  0
 46 41  1  1
 46 47  1  0
 46 55  1  0
 47 48  1  0
 47 52  1  6
 48 49  1  0
 48 53  1  1
 50 49  1  0
 49 54  1  6
 50 51  1  6
 55 50  1  0
 51 56  1  0
 57 52  1  1
 57 58  1  0
 57 66  1  0
 58 59  1  0
 58 63  1  6
 59 60  1  0
 59 64  1  1
 61 60  1  0
 60 65  1  1
 61 62  1  1
 66 61  1  0
 68 67  1  0
 67 72  1  0
 67 74  1  6
 69 68  1  0
 68 75  1  6
 69 70  1  0
 69 76  1  6
 70 71  1  1
 70 77  1  0
 71 78  1  0
 72 73  1  1
 72 77  1  0
M  END
$$$$
