
     RDKit          3D

 78 83  0  0  0  0  0  0  0  0999 V2000
  -57.1564  -26.0609   52.2700 C   0  0  0  0  0  0  0  0  0  0  0  0
  -56.8803  -25.5186   53.6214 C   0  0  1  0  0  0  0  0  0  0  0  0
  -55.6684  -24.6346   53.6527 C   0  0  0  0  0  0  0  0  0  0  0  0
  -55.8760  -23.5398   52.6242 C   0  0  1  0  0  0  0  0  0  0  0  0
  -57.0625  -22.7186   53.0836 C   0  0  2  0  0  0  0  0  0  0  0  0
  -58.2301  -23.6471   53.2899 C   0  0  2  0  0  0  0  0  0  0  0  0
  -59.3193  -22.8317   53.9546 C   0  0  1  0  0  0  0  0  0  0  0  0
  -60.4579  -23.7132   54.4551 C   0  0  1  0  0  0  0  0  0  0  0  0
  -61.4877  -22.8844   55.2039 C   0  0  0  0  0  0  0  0  0  0  0  0
  -57.8391  -20.5316   52.0455 C   0  0  0  0  0  0  0  0  0  0  0  0
  -59.2911  -20.1498   51.9545 C   0  0  0  0  0  0  0  0  0  0  0  0
  -57.4178  -21.8752   51.9348 N   0  0  0  0  0  0  0  0  0  0  0  0
  -56.1593  -26.7093   51.5041 O   0  0  0  0  0  0  0  0  0  0  0  0
  -58.2661  -26.0005   51.6770 O   0  0  0  0  0  0  0  0  0  0  0  0
  -54.7273  -22.7597   52.4802 O   0  0  0  0  0  0  0  0  0  0  0  0
  -57.9651  -24.7343   54.0577 O   0  0  0  0  0  0  0  0  0  0  0  0
  -58.8173  -22.0266   54.9551 O   0  0  0  0  0  0  0  0  0  0  0  0
  -61.1458  -24.2940   53.3825 O   0  0  0  0  0  0  0  0  0  0  0  0
  -62.5651  -23.6550   55.6318 O   0  0  0  0  0  0  0  0  0  0  0  0
  -56.9979  -19.6255   52.2254 O   0  0  0  0  0  0  0  0  0  0  0  0
  -55.8867  -24.9975   57.7121 C   0  0  1  0  0  0  0  0  0  0  0  0
  -55.6154  -25.9498   56.5913 C   0  0  1  0  0  0  0  0  0  0  0  0
  -56.9646  -26.1395   55.8815 C   0  0  2  0  0  0  0  0  0  0  0  0
  -57.8245  -26.9208   56.8121 C   0  0  2  0  0  0  0  0  0  0  0  0
  -57.8546  -26.1715   58.1579 C   0  0  1  0  0  0  0  0  0  0  0  0
  -57.4594  -27.0304   59.3187 C   0  0  0  0  0  0  0  0  0  0  0  0
  -54.6611  -25.3650   55.7466 O   0  0  0  0  0  0  0  0  0  0  0  0
  -56.8438  -26.5373   54.6099 O   0  0  0  0  0  0  0  0  0  0  0  0
  -57.4911  -28.2521   56.9789 O   0  0  0  0  0  0  0  0  0  0  0  0
  -57.2328  -24.9636   58.0739 O   0  0  0  0  0  0  0  0  0  0  0  0
  -58.4718  -27.2691   60.2232 O   0  0  0  0  0  0  0  0  0  0  0  0
  -57.9644  -29.1051   56.0049 C   0  0  1  0  0  0  0  0  0  0  0  0
  -58.0232  -30.5777   56.3717 C   0  0  1  0  0  0  0  0  0  0  0  0
  -59.3906  -30.9677   56.7868 C   0  0  2  0  0  0  0  0  0  0  0  0
  -60.1392  -29.7711   57.2652 C   0  0  2  0  0  0  0  0  0  0  0  0
  -60.2962  -28.8752   56.0363 C   0  0  1  0  0  0  0  0  0  0  0  0
  -61.0497  -27.6623   56.4656 C   0  0  0  0  0  0  0  0  0  0  0  0
  -56.4130  -31.6696   54.7933 C   0  0  0  0  0  0  0  0  0  0  0  0
  -55.9305  -31.7498   53.3790 C   0  0  0  0  0  0  0  0  0  0  0  0
  -57.7318  -31.3687   55.1596 N   0  0  0  0  0  0  0  0  0  0  0  0
  -59.4871  -32.0874   57.6095 O   0  0  0  0  0  0  0  0  0  0  0  0
  -59.4661  -29.1543   58.2993 O   0  0  0  0  0  0  0  0  0  0  0  0
  -59.1200  -28.6732   55.3835 O   0  0  0  0  0  0  0  0  0  0  0  0
  -61.6099  -27.0821   55.3132 O   0  0  0  0  0  0  0  0  0  0  0  0
  -55.5051  -31.9034   55.6823 O   0  0  0  0  0  0  0  0  0  0  0  0
  -59.4202  -33.2364   56.8234 C   0  0  1  0  0  0  0  0  0  0  0  0
  -59.2164  -34.5158   57.4750 C   0  0  1  0  0  0  0  0  0  0  0  0
  -60.5733  -35.2258   57.7435 C   0  0  2  0  0  0  0  0  0  0  0  0
  -61.3825  -35.4551   56.5213 C   0  0  2  0  0  0  0  0  0  0  0  0
  -60.9784  -34.3356   55.5513 C   0  0  1  0  0  0  0  0  0  0  0  0
  -62.0619  -34.1059   54.5560 C   0  0  0  0  0  0  0  0  0  0  0  0
  -58.3755  -35.4415   56.9081 O   0  0  0  0  0  0  0  0  0  0  0  0
  -61.3087  -34.2752   58.5230 O   0  0  0  0  0  0  0  0  0  0  0  0
  -62.7607  -35.3422   56.6852 O   0  0  0  0  0  0  0  0  0  0  0  0
  -60.8810  -33.2281   56.3914 O   0  0  0  0  0  0  0  0  0  0  0  0
  -62.9426  -33.0808   54.9945 O   0  0  0  0  0  0  0  0  0  0  0  0
  -57.5831  -36.1853   57.7562 C   0  0  1  0  0  0  0  0  0  0  0  0
  -56.6960  -37.0685   56.9245 C   0  0  2  0  0  0  0  0  0  0  0  0
  -55.2333  -36.7057   56.9438 C   0  0  1  0  0  0  0  0  0  0  0  0
  -55.1569  -35.2161   57.1495 C   0  0  1  0  0  0  0  0  0  0  0  0
  -55.7635  -34.8932   58.5201 C   0  0  2  0  0  0  0  0  0  0  0  0
  -54.7233  -35.1667   59.5964 C   0  0  0  0  0  0  0  0  0  0  0  0
  -57.0480  -36.9519   55.5534 O   0  0  0  0  0  0  0  0  0  0  0  0
  -54.5900  -37.3900   57.9274 O   0  0  0  0  0  0  0  0  0  0  0  0
  -53.8171  -34.8257   57.1412 O   0  0  0  0  0  0  0  0  0  0  0  0
  -56.9475  -35.5000   58.7347 O   0  0  0  0  0  0  0  0  0  0  0  0
  -56.1903  -22.8899   61.3995 C   0  0  2  0  0  0  0  0  0  0  0  0
  -55.8892  -24.2597   60.8067 C   0  0  2  0  0  0  0  0  0  0  0  0
  -55.0978  -23.9231   59.5242 C   0  0  1  0  0  0  0  0  0  0  0  0
  -53.7815  -23.4162   59.9844 C   0  0  1  0  0  0  0  0  0  0  0  0
  -52.8914  -22.9771   58.8161 C   0  0  0  0  0  0  0  0  0  0  0  0
  -54.8330  -22.3242   61.7780 C   0  0  2  0  0  0  0  0  0  0  0  0
  -55.0494  -21.0193   62.2297 O   0  0  0  0  0  0  0  0  0  0  0  0
  -56.9539  -23.0377   62.5271 O   0  0  0  0  0  0  0  0  0  0  0  0
  -57.0165  -24.9931   60.5413 O   0  0  0  0  0  0  0  0  0  0  0  0
  -55.0684  -25.1016   58.8119 O   0  0  0  0  0  0  0  0  0  0  0  0
  -53.9485  -22.2848   60.7547 O   0  0  0  0  0  0  0  0  0  0  0  0
  -51.5671  -22.8567   59.2742 O   0  0  0  0  0  0  0  0  0  0  0  0
  2  1  1  0
  1 13  1  0
  1 14  2  0
  2  3  1  0
  2 16  1  0
  2 28  1  1
  3  4  1  0
  4  5  1  0
  4 15  1  1
  6  5  1  0
  5 12  1  6
  6  7  1  0
  6 16  1  1
  7  8  1  0
  7 17  1  1
  8  9  1  0
  8 18  1  6
  9 19  1  0
 10 11  1  0
 12 10  1  0
 10 20  2  0
 21 22  1  0
 21 30  1  0
 21 76  1  1
 22 23  1  0
 22 27  1  6
 23 24  1  0
 23 28  1  6
 25 24  1  0
 24 29  1  1
 25 26  1  1
 30 25  1  0
 26 31  1  0
 32 29  1  1
 32 33  1  0
 32 43  1  0
 33 34  1  0
 33 40  1  6
 34 35  1  0
 34 41  1  1
 36 35  1  0
 35 42  1  1
 36 37  1  1
 43 36  1  0
 37 44  1  0
 38 39  1  0
 40 38  1  0
 38 45  2  0
 46 41  1  1
 46 47  1  0
 46 55  1  0
 47 48  1  0
 47 52  1  6
 48 49  1  0
 48 53  1  1
 50 49  1  0
 49 54  1  1
 50 51  1  6
 55 50  1  0
 51 56  1  0
 57 52  1  6
 57 58  1  0
 57 66  1  0
 58 59  1  0
 58 63  1  6
 59 60  1  0
 59 64  1  1
 61 60  1  0
 60 65  1  1
 61 62  1  1
 66 61  1  0
 68 67  1  0
 67 72  1  0
 67 74  1  1
 69 68  1  0
 68 75  1  6
 69 70  1  0
 69 76  1  6
 70 71  1  6
 70 77  1  0
 71 78  1  0
 72 73  1  6
 72 77  1  0
M  END
$$$$
