
     RDKit          3D

 26 29  0  0  0  0  0  0  0  0999 V2000
   -7.9366   26.7259   50.1092 C   0  0  0  0  0  0  0  0  0  0  0  0
   -6.9243   25.9532   48.0810 C   0  0  0  0  0  0  0  0  0  0  0  0
  -10.6637   24.2976   54.9676 C   0  0  1  0  0  0  0  0  0  0  0  0
  -12.0393   22.9110   56.0265 C   0  0  0  0  0  0  0  0  0  0  0  0
  -13.7065   21.9841   50.9743 C   0  0  0  0  0  0  0  0  0  0  0  0
   -8.9223   28.5093   51.7951 O   0  0  0  0  0  0  0  0  0  0  0  0
   -9.3398   27.3771   50.9116 S   0  0  1  0  0  6  0  0  0  0  0  0
  -10.3248   27.8817   49.8807 O   0  0  0  0  0  0  0  0  0  0  0  0
   -8.0122   26.4690   48.7412 C   0  0  0  0  0  0  0  0  0  0  0  0
   -6.7715   26.4567   50.7696 C   0  0  0  0  0  0  0  0  0  0  0  0
   -6.6147   26.7614   52.4858 Cl  0  0  0  0  0  0  0  0  0  0  0  0
   -5.6830   25.9379   50.0959 C   0  0  0  0  0  0  0  0  0  0  0  0
   -5.7547   25.6862   48.7597 C   0  0  0  0  0  0  0  0  0  0  0  0
  -10.0788   26.1226   51.8532 N   0  0  0  0  0  0  0  0  0  0  0  0
   -9.8424   25.9368   53.1834 C   0  0  0  0  0  0  0  0  0  0  0  0
  -10.9510   25.2169   51.4050 C   0  0  0  0  0  0  0  0  0  0  0  0
  -11.5092   24.9663   50.1750 C   0  0  0  0  0  0  0  0  0  0  0  0
  -11.2812   24.4195   52.5103 C   0  0  0  0  0  0  0  0  0  0  0  0
  -12.1725   23.3893   52.3275 C   0  0  0  0  0  0  0  0  0  0  0  0
  -12.7533   23.1066   51.1107 C   0  0  0  0  0  0  0  0  0  0  0  0
  -12.3994   23.9138   50.0586 C   0  0  0  0  0  0  0  0  0  0  0  0
  -10.5902   24.8675   53.6207 C   0  0  0  0  0  0  0  0  0  0  0  0
  -12.0002   24.0193   55.4067 N   0  0  0  0  0  0  0  0  0  0  0  0
   -9.9434   22.9765   55.1040 C   0  0  0  0  0  0  0  0  0  0  0  0
  -10.7707   22.2986   56.0934 N   0  0  0  0  0  0  0  0  0  0  0  0
  -13.2525   22.2664   56.6414 C   0  0  0  0  0  0  0  0  0  0  0  0
  7  1  1  0
  1  9  1  0
  1 10  2  0
  9  2  2  0
  2 13  1  0
  3 22  1  6
  3 23  1  0
  3 24  1  0
 23  4  2  0
  4 25  1  0
  4 26  1  0
 20  5  1  0
  7  6  2  0
  7  8  2  0
  7 14  1  1
 10 11  1  0
 10 12  1  0
 12 13  2  0
 15 14  1  0
 16 14  1  0
 22 15  2  0
 16 17  2  0
 18 16  1  0
 17 21  1  0
 19 18  2  0
 18 22  1  0
 19 20  1  0
 20 21  2  0
 24 25  1  0
M  END
$$$$
