
     RDKit          3D

 26 29  0  0  0  0  0  0  0  0999 V2000
   -7.5387   27.4460   51.1508 C   0  0  0  0  0  0  0  0  0  0  0  0
   -7.5471   29.1024   49.4350 C   0  0  0  0  0  0  0  0  0  0  0  0
  -11.6198   23.0740   53.3152 C   0  0  1  0  0  0  0  0  0  0  0  0
  -10.2353   21.7818   54.5325 C   0  0  0  0  0  0  0  0  0  0  0  0
  -14.6707   26.9712   50.6706 C   0  0  0  0  0  0  0  0  0  0  0  0
   -6.9669   25.9411   53.2631 O   0  0  0  0  0  0  0  0  0  0  0  0
   -8.0390   26.8237   52.6723 S   0  0  1  0  0  6  0  0  0  0  0  0
   -8.2302   27.9913   53.6248 O   0  0  0  0  0  0  0  0  0  0  0  0
   -7.9821   28.6538   50.6675 C   0  0  0  0  0  0  0  0  0  0  0  0
   -6.6652   26.7174   50.3776 C   0  0  0  0  0  0  0  0  0  0  0  0
   -6.0447   25.1530   50.9220 Cl  0  0  0  0  0  0  0  0  0  0  0  0
   -6.2220   27.1532   49.1439 C   0  0  0  0  0  0  0  0  0  0  0  0
   -6.6764   28.3624   48.6788 C   0  0  0  0  0  0  0  0  0  0  0  0
   -9.5134   25.9743   52.6265 N   0  0  0  0  0  0  0  0  0  0  0  0
   -9.7097   24.7419   53.1238 C   0  0  0  0  0  0  0  0  0  0  0  0
  -10.6789   26.4322   52.0789 C   0  0  0  0  0  0  0  0  0  0  0  0
  -11.0451   27.6010   51.4467 C   0  0  0  0  0  0  0  0  0  0  0  0
  -11.6082   25.4146   52.2649 C   0  0  0  0  0  0  0  0  0  0  0  0
  -12.8967   25.6331   51.7903 C   0  0  0  0  0  0  0  0  0  0  0  0
  -13.2758   26.7967   51.1566 C   0  0  0  0  0  0  0  0  0  0  0  0
  -12.3314   27.7881   50.9869 C   0  0  0  0  0  0  0  0  0  0  0  0
  -10.9969   24.3646   52.9167 C   0  0  0  0  0  0  0  0  0  0  0  0
  -10.6207   22.0462   53.3372 N   0  0  0  0  0  0  0  0  0  0  0  0
  -12.1073   23.1416   54.7293 C   0  0  0  0  0  0  0  0  0  0  0  0
  -10.9446   22.6149   55.4524 N   0  0  0  0  0  0  0  0  0  0  0  0
   -9.2053   20.7672   54.9524 C   0  0  0  0  0  0  0  0  0  0  0  0
  7  1  1  0
  1  9  1  0
  1 10  2  0
  9  2  2  0
  2 13  1  0
  3 22  1  1
  3 23  1  0
  3 24  1  0
 23  4  2  0
  4 25  1  0
 26  4  1  6
  5 20  1  6
  7  6  2  0
  7  8  2  0
  7 14  1  6
 10 11  1  0
 10 12  1  0
 12 13  2  0
 15 14  1  0
 16 14  1  0
 22 15  2  0
 16 17  2  0
 18 16  1  0
 17 21  1  0
 19 18  2  0
 18 22  1  0
 19 20  1  0
 20 21  2  0
 24 25  1  6
M  END
$$$$
