
     RDKit          3D

 26 29  0  0  0  0  0  0  0  0999 V2000
   -8.1653   26.8834   50.7728 C   0  0  0  0  0  0  0  0  0  0  0  0
   -6.4344   26.7511   52.4226 C   0  0  0  0  0  0  0  0  0  0  0  0
  -12.6229   26.6893   54.8553 C   0  0  1  0  0  0  0  0  0  0  0  0
  -14.0185   25.6390   56.2285 C   0  0  0  0  0  0  0  0  0  0  0  0
  -13.0977   21.5424   52.8954 C   0  0  0  0  0  0  0  0  0  0  0  0
  -10.1027   28.6156   50.2829 O   0  0  0  0  0  0  0  0  0  0  0  0
   -9.8487   27.1471   50.4077 S   0  0  1  0  0  6  0  0  0  0  0  0
  -10.1975   26.4647   49.1037 O   0  0  0  0  0  0  0  0  0  0  0  0
   -7.7547   26.9515   52.1031 C   0  0  0  0  0  0  0  0  0  0  0  0
   -7.2371   26.6163   49.8067 C   0  0  0  0  0  0  0  0  0  0  0  0
   -7.6924   26.5147   48.1199 Cl  0  0  0  0  0  0  0  0  0  0  0  0
   -5.9114   26.4164   50.1389 C   0  0  0  0  0  0  0  0  0  0  0  0
   -5.5082   26.4825   51.4377 C   0  0  0  0  0  0  0  0  0  0  0  0
  -10.8102   26.4786   51.6864 N   0  0  0  0  0  0  0  0  0  0  0  0
  -11.2254   27.1917   52.7723 C   0  0  0  0  0  0  0  0  0  0  0  0
  -11.2557   25.2222   51.7573 C   0  0  0  0  0  0  0  0  0  0  0  0
  -11.1220   24.1220   50.9455 C   0  0  0  0  0  0  0  0  0  0  0  0
  -11.9895   25.1399   52.9494 C   0  0  0  0  0  0  0  0  0  0  0  0
  -12.5661   23.9361   53.2778 C   0  0  0  0  0  0  0  0  0  0  0  0
  -12.4549   22.8113   52.4903 C   0  0  0  0  0  0  0  0  0  0  0  0
  -11.7271   22.9403   51.3340 C   0  0  0  0  0  0  0  0  0  0  0  0
  -11.9715   26.3680   53.5838 C   0  0  0  0  0  0  0  0  0  0  0  0
  -13.8942   26.0499   55.0328 N   0  0  0  0  0  0  0  0  0  0  0  0
  -11.8223   26.2704   56.0663 C   0  0  0  0  0  0  0  0  0  0  0  0
  -12.8812   25.9334   57.0087 N   0  0  0  0  0  0  0  0  0  0  0  0
  -15.2035   24.9189   56.8137 C   0  0  0  0  0  0  0  0  0  0  0  0
  7  1  1  0
  1  9  1  0
  1 10  2  0
  9  2  2  0
  2 13  1  0
  3 22  1  6
  3 23  1  0
  3 24  1  0
 23  4  2  0
  4 25  1  0
  4 26  1  0
 20  5  1  0
  7  6  2  0
  7  8  2  0
  7 14  1  1
 10 11  1  0
 10 12  1  0
 12 13  2  0
 15 14  1  0
 16 14  1  0
 22 15  2  0
 16 17  2  0
 18 16  1  0
 17 21  1  0
 19 18  2  0
 18 22  1  0
 19 20  1  0
 20 21  2  0
 24 25  1  0
M  END
$$$$
