
     RDKit          3D

 26 29  0  0  0  0  0  0  0  0999 V2000
   -8.1829   26.7069   51.2426 C   0  0  0  0  0  0  0  0  0  0  0  0
   -6.0320   25.6825   51.4869 C   0  0  0  0  0  0  0  0  0  0  0  0
  -12.9415   26.6469   54.9059 C   0  0  1  0  0  0  0  0  0  0  0  0
  -13.9409   28.5532   55.4570 C   0  0  0  0  0  0  0  0  0  0  0  0
  -12.8077   21.2155   53.8860 C   0  0  0  0  0  0  0  0  0  0  0  0
  -10.2695   27.9301   50.1731 O   0  0  0  0  0  0  0  0  0  0  0  0
   -9.8238   26.5909   50.6674 S   0  0  1  0  0  6  0  0  0  0  0  0
   -9.8950   25.5892   49.5365 O   0  0  0  0  0  0  0  0  0  0  0  0
   -7.3299   25.6227   51.0427 C   0  0  0  0  0  0  0  0  0  0  0  0
   -7.7050   27.8157   51.8816 C   0  0  0  0  0  0  0  0  0  0  0  0
   -8.7267   29.2094   52.1585 Cl  0  0  0  0  0  0  0  0  0  0  0  0
   -6.3977   27.8655   52.3245 C   0  0  0  0  0  0  0  0  0  0  0  0
   -5.5628   26.8076   52.1303 C   0  0  0  0  0  0  0  0  0  0  0  0
  -10.8382   26.0650   51.9716 N   0  0  0  0  0  0  0  0  0  0  0  0
  -11.4077   26.9124   52.8757 C   0  0  0  0  0  0  0  0  0  0  0  0
  -11.1823   24.8027   52.2368 C   0  0  0  0  0  0  0  0  0  0  0  0
  -10.8847   23.5962   51.6511 C   0  0  0  0  0  0  0  0  0  0  0  0
  -12.0117   24.8582   53.3662 C   0  0  0  0  0  0  0  0  0  0  0  0
  -12.5136   23.6797   53.8646 C   0  0  0  0  0  0  0  0  0  0  0  0
  -12.2385   22.4510   53.3055 C   0  0  0  0  0  0  0  0  0  0  0  0
  -11.4222   22.4469   52.2023 C   0  0  0  0  0  0  0  0  0  0  0  0
  -12.1533   26.1740   53.7660 C   0  0  0  0  0  0  0  0  0  0  0  0
  -12.8126   28.0531   55.1558 N   0  0  0  0  0  0  0  0  0  0  0  0
  -14.4281   26.4318   54.7424 C   0  0  0  0  0  0  0  0  0  0  0  0
  -14.9654   27.5840   55.4541 N   0  0  0  0  0  0  0  0  0  0  0  0
  -14.2273   29.9931   55.7886 C   0  0  0  0  0  0  0  0  0  0  0  0
  7  1  1  0
  1  9  1  0
  1 10  2  0
  9  2  2  0
  2 13  1  0
  3 22  1  6
  3 23  1  0
  3 24  1  0
 23  4  2  0
  4 25  1  0
  4 26  1  0
 20  5  1  0
  7  6  2  0
  7  8  2  0
  7 14  1  1
 10 11  1  0
 10 12  1  0
 12 13  2  0
 15 14  1  0
 16 14  1  0
 22 15  2  0
 16 17  2  0
 18 16  1  0
 17 21  1  0
 19 18  2  0
 18 22  1  0
 19 20  1  0
 20 21  2  0
 24 25  1  0
M  END
$$$$
