
     RDKit          3D

 26 29  0  0  0  0  0  0  0  0999 V2000
   -8.6947   28.2378   51.4516 C   0  0  0  0  0  0  0  0  0  0  0  0
   -7.5999   29.8099   52.8721 C   0  0  0  0  0  0  0  0  0  0  0  0
  -12.6791   23.7860   52.9374 C   0  0  1  0  0  0  0  0  0  0  0  0
  -13.9605   23.7145   51.0876 C   0  0  0  0  0  0  0  0  0  0  0  0
   -8.3035   22.2847   56.1141 C   0  0  0  0  0  0  0  0  0  0  0  0
   -9.6029   26.7453   49.4513 O   0  0  0  0  0  0  0  0  0  0  0  0
   -8.8928   26.6684   50.7807 S   0  0  1  0  0  6  0  0  0  0  0  0
   -7.5150   26.0858   50.5171 O   0  0  0  0  0  0  0  0  0  0  0  0
   -7.7095   28.5293   52.3644 C   0  0  0  0  0  0  0  0  0  0  0  0
   -9.5483   29.2471   51.0716 C   0  0  0  0  0  0  0  0  0  0  0  0
  -10.8443   28.9602   49.9024 Cl  0  0  0  0  0  0  0  0  0  0  0  0
   -9.4507   30.5315   51.5706 C   0  0  0  0  0  0  0  0  0  0  0  0
   -8.4598   30.8026   52.4814 C   0  0  0  0  0  0  0  0  0  0  0  0
   -9.7078   25.5739   51.7981 N   0  0  0  0  0  0  0  0  0  0  0  0
  -11.0159   25.2777   51.7226 C   0  0  0  0  0  0  0  0  0  0  0  0
   -9.1409   24.8623   52.8181 C   0  0  0  0  0  0  0  0  0  0  0  0
   -7.8645   24.7761   53.3311 C   0  0  0  0  0  0  0  0  0  0  0  0
  -10.1710   24.1088   53.3701 C   0  0  0  0  0  0  0  0  0  0  0  0
   -9.8530   23.2828   54.4424 C   0  0  0  0  0  0  0  0  0  0  0  0
   -8.5813   23.1874   54.9648 C   0  0  0  0  0  0  0  0  0  0  0  0
   -7.5803   23.9473   54.3957 C   0  0  0  0  0  0  0  0  0  0  0  0
  -11.3364   24.3730   52.6822 C   0  0  0  0  0  0  0  0  0  0  0  0
  -13.6509   24.4327   52.1052 N   0  0  0  0  0  0  0  0  0  0  0  0
  -12.7171   22.3543   52.5006 C   0  0  0  0  0  0  0  0  0  0  0  0
  -13.2197   22.4926   51.1293 N   0  0  0  0  0  0  0  0  0  0  0  0
  -14.9396   24.0572   49.9967 C   0  0  0  0  0  0  0  0  0  0  0  0
  7  1  1  0
  1  9  1  0
  1 10  2  0
  9  2  2  0
  2 13  1  0
  3 22  1  6
  3 23  1  0
  3 24  1  0
 23  4  2  0
  4 25  1  0
 26  4  1  6
  5 20  1  6
  7  6  2  0
  7  8  2  0
  7 14  1  1
 10 11  1  0
 10 12  1  0
 12 13  2  0
 15 14  1  0
 16 14  1  0
 22 15  2  0
 16 17  2  0
 18 16  1  0
 17 21  1  0
 19 18  2  0
 18 22  1  0
 19 20  1  0
 20 21  2  0
 24 25  1  6
M  END
$$$$
