
     RDKit          3D

 26 29  0  0  0  0  0  0  0  0999 V2000
   -9.0097   28.4137   50.7438 C   0  0  0  0  0  0  0  0  0  0  0  0
   -9.9651   30.1786   49.4554 C   0  0  0  0  0  0  0  0  0  0  0  0
  -12.6802   24.2721   52.9877 C   0  0  1  0  0  0  0  0  0  0  0  0
  -13.3715   23.3198   51.0684 C   0  0  0  0  0  0  0  0  0  0  0  0
   -9.1058   23.9903   57.3044 C   0  0  0  0  0  0  0  0  0  0  0  0
   -8.4965   26.0414   49.6654 O   0  0  0  0  0  0  0  0  0  0  0  0
   -8.5548   26.7741   50.9834 S   0  0  1  0  0  6  0  0  0  0  0  0
   -7.1537   26.7494   51.5697 O   0  0  0  0  0  0  0  0  0  0  0  0
   -9.6243   28.8466   49.5932 C   0  0  0  0  0  0  0  0  0  0  0  0
   -8.7527   29.3367   51.7304 C   0  0  0  0  0  0  0  0  0  0  0  0
   -7.9653   28.8666   53.2430 Cl  0  0  0  0  0  0  0  0  0  0  0  0
   -9.0876   30.6711   51.6066 C   0  0  0  0  0  0  0  0  0  0  0  0
   -9.7009   31.0838   50.4496 C   0  0  0  0  0  0  0  0  0  0  0  0
   -9.5592   25.9235   52.0628 N   0  0  0  0  0  0  0  0  0  0  0  0
  -10.8118   25.5185   51.7950 C   0  0  0  0  0  0  0  0  0  0  0  0
   -9.2242   25.5479   53.3335 C   0  0  0  0  0  0  0  0  0  0  0  0
   -8.0944   25.6963   54.1090 C   0  0  0  0  0  0  0  0  0  0  0  0
  -10.3393   24.8877   53.8379 C   0  0  0  0  0  0  0  0  0  0  0  0
  -10.2566   24.3965   55.1360 C   0  0  0  0  0  0  0  0  0  0  0  0
   -9.1333   24.5382   55.9219 C   0  0  0  0  0  0  0  0  0  0  0  0
   -8.0428   25.1979   55.3935 C   0  0  0  0  0  0  0  0  0  0  0  0
  -11.3245   24.8734   52.8735 C   0  0  0  0  0  0  0  0  0  0  0  0
  -13.3736   24.4129   51.7409 N   0  0  0  0  0  0  0  0  0  0  0  0
  -12.5820   22.7914   53.1873 C   0  0  0  0  0  0  0  0  0  0  0  0
  -12.6674   22.3153   51.8023 N   0  0  0  0  0  0  0  0  0  0  0  0
  -13.9953   23.0811   49.7192 C   0  0  0  0  0  0  0  0  0  0  0  0
  7  1  1  0
  1  9  1  0
  1 10  2  0
  9  2  2  0
  2 13  1  0
  3 22  1  6
  3 23  1  0
  3 24  1  0
 23  4  2  0
  4 25  1  0
 26  4  1  6
  5 20  1  6
  7  6  2  0
  7  8  2  0
  7 14  1  1
 10 11  1  0
 10 12  1  0
 12 13  2  0
 15 14  1  0
 16 14  1  0
 22 15  2  0
 16 17  2  0
 18 16  1  0
 17 21  1  0
 19 18  2  0
 18 22  1  0
 19 20  1  0
 20 21  2  0
 24 25  1  6
M  END
$$$$
