
     RDKit          3D

 26 29  0  0  0  0  0  0  0  0999 V2000
   -7.5528   26.2061   50.8399 C   0  0  0  0  0  0  0  0  0  0  0  0
   -6.0526   25.3985   49.1711 C   0  0  0  0  0  0  0  0  0  0  0  0
  -13.3633   26.9604   52.8514 C   0  0  1  0  0  0  0  0  0  0  0  0
  -13.4480   28.1857   54.7382 C   0  0  0  0  0  0  0  0  0  0  0  0
  -13.1943   21.4080   52.0559 C   0  0  0  0  0  0  0  0  0  0  0  0
   -7.4914   25.2091   53.3008 O   0  0  0  0  0  0  0  0  0  0  0  0
   -8.2107   26.2075   52.4272 S   0  0  1  0  0  6  0  0  0  0  0  0
   -7.9812   27.5798   53.0367 O   0  0  0  0  0  0  0  0  0  0  0  0
   -6.5442   25.3524   50.4617 C   0  0  0  0  0  0  0  0  0  0  0  0
   -8.0427   27.0881   49.9053 C   0  0  0  0  0  0  0  0  0  0  0  0
   -9.3398   28.2220   50.3062 Cl  0  0  0  0  0  0  0  0  0  0  0  0
   -7.5610   27.1455   48.6118 C   0  0  0  0  0  0  0  0  0  0  0  0
   -6.5535   26.2844   48.2535 C   0  0  0  0  0  0  0  0  0  0  0  0
   -9.8860   25.9122   52.4869 N   0  0  0  0  0  0  0  0  0  0  0  0
  -10.8285   26.8501   52.6777 C   0  0  0  0  0  0  0  0  0  0  0  0
  -10.4840   24.6906   52.3522 C   0  0  0  0  0  0  0  0  0  0  0  0
  -10.0131   23.4124   52.1417 C   0  0  0  0  0  0  0  0  0  0  0  0
  -11.8497   24.9243   52.4703 C   0  0  0  0  0  0  0  0  0  0  0  0
  -12.6959   23.8259   52.3674 C   0  0  0  0  0  0  0  0  0  0  0  0
  -12.2382   22.5430   52.1571 C   0  0  0  0  0  0  0  0  0  0  0  0
  -10.8779   22.3429   52.0440 C   0  0  0  0  0  0  0  0  0  0  0  0
  -12.0567   26.2723   52.6730 C   0  0  0  0  0  0  0  0  0  0  0  0
  -13.6848   27.0239   54.2470 N   0  0  0  0  0  0  0  0  0  0  0  0
  -13.2621   28.3945   52.4329 C   0  0  0  0  0  0  0  0  0  0  0  0
  -12.9357   29.0372   53.7106 N   0  0  0  0  0  0  0  0  0  0  0  0
  -13.6580   28.6316   56.1607 C   0  0  0  0  0  0  0  0  0  0  0  0
  7  1  1  0
  1  9  1  0
  1 10  2  0
  9  2  2  0
  2 13  1  0
  3 22  1  1
  3 23  1  0
  3 24  1  0
 23  4  2  0
  4 25  1  0
 26  4  1  6
  5 20  1  6
  7  6  2  0
  7  8  2  0
  7 14  1  6
 10 11  1  0
 10 12  1  0
 12 13  2  0
 15 14  1  0
 16 14  1  0
 22 15  2  0
 16 17  2  0
 18 16  1  0
 17 21  1  0
 19 18  2  0
 18 22  1  0
 19 20  1  0
 20 21  2  0
 24 25  1  6
M  END
$$$$
