
     RDKit          3D

 26 29  0  0  0  0  0  0  0  0999 V2000
   -6.9815   26.4256   50.7742 C   0  0  0  0  0  0  0  0  0  0  0  0
   -5.2124   25.1044   49.8729 C   0  0  0  0  0  0  0  0  0  0  0  0
  -13.0374   25.8159   52.1164 C   0  0  1  0  0  0  0  0  0  0  0  0
  -13.9125   27.4708   53.3672 C   0  0  0  0  0  0  0  0  0  0  0  0
  -10.8590   21.0622   54.1527 C   0  0  0  0  0  0  0  0  0  0  0  0
   -7.1648   26.9827   53.3645 O   0  0  0  0  0  0  0  0  0  0  0  0
   -7.9483   26.9968   52.0748 S   0  0  1  0  0  6  0  0  0  0  0  0
   -8.3184   28.4429   51.7938 O   0  0  0  0  0  0  0  0  0  0  0  0
   -5.9583   25.5264   50.9569 C   0  0  0  0  0  0  0  0  0  0  0  0
   -7.2288   26.8789   49.4995 C   0  0  0  0  0  0  0  0  0  0  0  0
   -8.5257   28.0368   49.1736 Cl  0  0  0  0  0  0  0  0  0  0  0  0
   -6.4915   26.4659   48.4067 C   0  0  0  0  0  0  0  0  0  0  0  0
   -5.4736   25.5673   48.6100 C   0  0  0  0  0  0  0  0  0  0  0  0
   -9.4060   26.1437   52.2858 N   0  0  0  0  0  0  0  0  0  0  0  0
  -10.6282   26.6215   51.9985 C   0  0  0  0  0  0  0  0  0  0  0  0
   -9.5206   24.8723   52.7741 C   0  0  0  0  0  0  0  0  0  0  0  0
   -8.6153   23.9313   53.2155 C   0  0  0  0  0  0  0  0  0  0  0  0
  -10.8821   24.5893   52.7733 C   0  0  0  0  0  0  0  0  0  0  0  0
  -11.2732   23.3360   53.2308 C   0  0  0  0  0  0  0  0  0  0  0  0
  -10.3786   22.3863   53.6748 C   0  0  0  0  0  0  0  0  0  0  0  0
   -9.0343   22.6965   53.6635 C   0  0  0  0  0  0  0  0  0  0  0  0
  -11.5659   25.6841   52.2886 C   0  0  0  0  0  0  0  0  0  0  0  0
  -13.6310   26.2186   53.3576 N   0  0  0  0  0  0  0  0  0  0  0  0
  -13.3570   26.9369   51.1766 C   0  0  0  0  0  0  0  0  0  0  0  0
  -13.5330   28.0495   52.1164 N   0  0  0  0  0  0  0  0  0  0  0  0
  -14.5412   28.2529   54.4894 C   0  0  0  0  0  0  0  0  0  0  0  0
  7  1  1  0
  1  9  1  0
  1 10  2  0
  9  2  2  0
  2 13  1  0
  3 22  1  1
  3 23  1  0
  3 24  1  0
 23  4  2  0
  4 25  1  0
 26  4  1  6
  5 20  1  6
  7  6  2  0
  7  8  2  0
  7 14  1  1
 10 11  1  0
 10 12  1  0
 12 13  2  0
 15 14  1  0
 16 14  1  0
 22 15  2  0
 16 17  2  0
 18 16  1  0
 17 21  1  0
 19 18  2  0
 18 22  1  0
 19 20  1  0
 20 21  2  0
 24 25  1  6
M  END
$$$$
