
     RDKit          3D

 26 29  0  0  0  0  0  0  0  0999 V2000
   -9.6252   28.0045   51.6178 C   0  0  0  0  0  0  0  0  0  0  0  0
  -10.1267   29.4651   53.4482 C   0  0  0  0  0  0  0  0  0  0  0  0
  -12.6597   22.9899   53.1404 C   0  0  1  0  0  0  0  0  0  0  0  0
  -14.2031   22.0972   51.8147 C   0  0  0  0  0  0  0  0  0  0  0  0
   -8.6219   22.6959   56.9044 C   0  0  0  0  0  0  0  0  0  0  0  0
   -9.7416   26.2149   49.6741 O   0  0  0  0  0  0  0  0  0  0  0  0
   -9.2296   26.3991   51.0671 S   0  0  1  0  0  6  0  0  0  0  0  0
   -7.7284   26.2148   51.0787 O   0  0  0  0  0  0  0  0  0  0  0  0
   -9.8115   28.2121   52.9835 C   0  0  0  0  0  0  0  0  0  0  0  0
   -9.7614   29.0616   50.7633 C   0  0  0  0  0  0  0  0  0  0  0  0
   -9.5363   28.8641   49.0389 Cl  0  0  0  0  0  0  0  0  0  0  0  0
  -10.0788   30.3180   51.2411 C   0  0  0  0  0  0  0  0  0  0  0  0
  -10.2613   30.5229   52.5747 C   0  0  0  0  0  0  0  0  0  0  0  0
   -9.9630   25.2451   52.1333 N   0  0  0  0  0  0  0  0  0  0  0  0
  -11.1901   24.6902   51.9182 C   0  0  0  0  0  0  0  0  0  0  0  0
   -9.4271   24.7664   53.2583 C   0  0  0  0  0  0  0  0  0  0  0  0
   -8.2423   24.9941   53.9154 C   0  0  0  0  0  0  0  0  0  0  0  0
  -10.3651   23.8631   53.7785 C   0  0  0  0  0  0  0  0  0  0  0  0
  -10.0658   23.2179   54.9546 C   0  0  0  0  0  0  0  0  0  0  0  0
   -8.8892   23.4192   55.6424 C   0  0  0  0  0  0  0  0  0  0  0  0
   -8.0026   24.3123   55.0949 C   0  0  0  0  0  0  0  0  0  0  0  0
  -11.4657   23.8145   52.9433 C   0  0  0  0  0  0  0  0  0  0  0  0
  -13.6803   23.2036   52.1559 N   0  0  0  0  0  0  0  0  0  0  0  0
  -12.3852   21.5055   53.0770 C   0  0  0  0  0  0  0  0  0  0  0  0
  -13.6271   21.0076   52.5004 N   0  0  0  0  0  0  0  0  0  0  0  0
  -15.3051   21.8947   50.8098 C   0  0  0  0  0  0  0  0  0  0  0  0
  7  1  1  0
  1  9  1  0
  1 10  2  0
  9  2  2  0
  2 13  1  0
  3 22  1  6
  3 23  1  0
  3 24  1  0
 23  4  2  0
  4 25  1  0
  4 26  1  0
 20  5  1  0
  7  6  2  0
  7  8  2  0
  7 14  1  1
 10 11  1  0
 10 12  1  0
 12 13  2  0
 15 14  1  0
 16 14  1  0
 22 15  2  0
 16 17  2  0
 18 16  1  0
 17 21  1  0
 19 18  2  0
 18 22  1  0
 19 20  1  0
 20 21  2  0
 24 25  1  0
M  END
$$$$
