
     RDKit          3D

 26 29  0  0  0  0  0  0  0  0999 V2000
   -7.0491   24.2540   53.6690 C   0  0  0  0  0  0  0  0  0  0  0  0
   -5.2176   22.8395   53.0924 C   0  0  0  0  0  0  0  0  0  0  0  0
  -12.2252   26.4928   51.4344 C   0  0  1  0  0  0  0  0  0  0  0  0
  -11.5415   28.6257   51.6624 C   0  0  0  0  0  0  0  0  0  0  0  0
  -14.0137   21.2206   52.1376 C   0  0  0  0  0  0  0  0  0  0  0  0
   -8.6894   23.6063   55.6549 O   0  0  0  0  0  0  0  0  0  0  0  0
   -8.4775   24.6155   54.5530 S   0  0  1  0  0  6  0  0  0  0  0  0
   -8.2967   25.9695   55.2173 O   0  0  0  0  0  0  0  0  0  0  0  0
   -6.3626   23.0743   53.8295 C   0  0  0  0  0  0  0  0  0  0  0  0
   -6.5633   25.1713   52.7667 C   0  0  0  0  0  0  0  0  0  0  0  0
   -7.3836   26.7152   52.4972 Cl  0  0  0  0  0  0  0  0  0  0  0  0
   -5.4203   24.9504   52.0232 C   0  0  0  0  0  0  0  0  0  0  0  0
   -4.7488   23.7657   52.1980 C   0  0  0  0  0  0  0  0  0  0  0  0
   -9.8818   24.7159   53.5963 N   0  0  0  0  0  0  0  0  0  0  0  0
  -10.2907   25.8137   52.9389 C   0  0  0  0  0  0  0  0  0  0  0  0
  -10.7700   23.7004   53.3775 C   0  0  0  0  0  0  0  0  0  0  0  0
  -10.8454   22.3885   53.7935 C   0  0  0  0  0  0  0  0  0  0  0  0
  -11.7520   24.2305   52.5478 C   0  0  0  0  0  0  0  0  0  0  0  0
  -12.7902   23.3870   52.1687 C   0  0  0  0  0  0  0  0  0  0  0  0
  -12.8774   22.0737   52.5774 C   0  0  0  0  0  0  0  0  0  0  0  0
  -11.8880   21.5764   53.4003 C   0  0  0  0  0  0  0  0  0  0  0  0
  -11.4465   25.5479   52.2788 C   0  0  0  0  0  0  0  0  0  0  0  0
  -12.3589   27.7466   52.1165 N   0  0  0  0  0  0  0  0  0  0  0  0
  -11.4654   26.8320   50.1896 C   0  0  0  0  0  0  0  0  0  0  0  0
  -10.7619   28.0478   50.6127 N   0  0  0  0  0  0  0  0  0  0  0  0
  -11.3880   30.0499   52.1256 C   0  0  0  0  0  0  0  0  0  0  0  0
  7  1  1  0
  1  9  1  0
  1 10  2  0
  9  2  2  0
  2 13  1  0
  3 22  1  1
  3 23  1  0
  3 24  1  0
 23  4  2  0
  4 25  1  0
 26  4  1  6
  5 20  1  6
  7  6  2  0
  7  8  2  0
  7 14  1  6
 10 11  1  0
 10 12  1  0
 12 13  2  0
 15 14  1  0
 16 14  1  0
 22 15  2  0
 16 17  2  0
 18 16  1  0
 17 21  1  0
 19 18  2  0
 18 22  1  0
 19 20  1  0
 20 21  2  0
 24 25  1  6
M  END
$$$$
