
     RDKit          3D

 26 29  0  0  0  0  0  0  0  0999 V2000
   -9.5718   27.7622   51.3601 C   0  0  0  0  0  0  0  0  0  0  0  0
  -10.7963   29.4489   52.5395 C   0  0  0  0  0  0  0  0  0  0  0  0
  -10.6506   23.4848   55.5346 C   0  0  1  0  0  0  0  0  0  0  0  0
   -9.4077   23.5806   57.3737 C   0  0  0  0  0  0  0  0  0  0  0  0
  -14.6593   22.2769   51.9249 C   0  0  0  0  0  0  0  0  0  0  0  0
   -8.9515   25.6253   49.9309 O   0  0  0  0  0  0  0  0  0  0  0  0
   -8.9272   26.1434   51.3335 S   0  0  1  0  0  6  0  0  0  0  0  0
   -7.5017   26.1570   51.8390 O   0  0  0  0  0  0  0  0  0  0  0  0
  -10.2739   28.1801   52.4895 C   0  0  0  0  0  0  0  0  0  0  0  0
   -9.4171   28.6318   50.3180 C   0  0  0  0  0  0  0  0  0  0  0  0
   -8.5427   28.1663   48.8752 Cl  0  0  0  0  0  0  0  0  0  0  0  0
   -9.9467   29.9060   50.3785 C   0  0  0  0  0  0  0  0  0  0  0  0
  -10.6329   30.3161   51.4807 C   0  0  0  0  0  0  0  0  0  0  0  0
   -9.8964   25.1380   52.3612 N   0  0  0  0  0  0  0  0  0  0  0  0
   -9.5816   24.8556   53.6577 C   0  0  0  0  0  0  0  0  0  0  0  0
  -11.0410   24.5416   52.0203 C   0  0  0  0  0  0  0  0  0  0  0  0
  -11.7795   24.4992   50.8626 C   0  0  0  0  0  0  0  0  0  0  0  0
  -11.4693   23.8480   53.1613 C   0  0  0  0  0  0  0  0  0  0  0  0
  -12.6399   23.1314   53.0872 C   0  0  0  0  0  0  0  0  0  0  0  0
  -13.4078   23.0647   51.9454 C   0  0  0  0  0  0  0  0  0  0  0  0
  -12.9483   23.7592   50.8545 C   0  0  0  0  0  0  0  0  0  0  0  0
  -10.5597   24.0430   54.1839 C   0  0  0  0  0  0  0  0  0  0  0  0
   -9.3774   23.2443   56.1489 N   0  0  0  0  0  0  0  0  0  0  0  0
  -11.3725   24.3832   56.5116 C   0  0  0  0  0  0  0  0  0  0  0  0
  -10.6702   24.0824   57.7521 N   0  0  0  0  0  0  0  0  0  0  0  0
   -8.2760   23.4846   58.3613 C   0  0  0  0  0  0  0  0  0  0  0  0
  7  1  1  0
  1  9  1  0
  1 10  2  0
  9  2  2  0
  2 13  1  0
  3 22  1  6
  3 23  1  0
  3 24  1  0
 23  4  2  0
  4 25  1  0
  4 26  1  0
 20  5  1  0
  7  6  2  0
  7  8  2  0
  7 14  1  1
 10 11  1  0
 10 12  1  0
 12 13  2  0
 15 14  1  0
 16 14  1  0
 22 15  2  0
 16 17  2  0
 18 16  1  0
 17 21  1  0
 19 18  2  0
 18 22  1  0
 19 20  1  0
 20 21  2  0
 24 25  1  0
M  END
$$$$
