
     RDKit          3D

 26 29  0  0  0  0  0  0  0  0999 V2000
   -9.8099   27.9307   51.3206 C   0  0  0  0  0  0  0  0  0  0  0  0
  -10.8141   29.5975   49.9246 C   0  0  0  0  0  0  0  0  0  0  0  0
  -11.5629   24.1531   55.6603 C   0  0  1  0  0  0  0  0  0  0  0  0
  -11.4435   25.1663   57.6340 C   0  0  0  0  0  0  0  0  0  0  0  0
  -14.7425   22.1418   51.6103 C   0  0  0  0  0  0  0  0  0  0  0  0
   -9.0650   25.6900   50.1297 O   0  0  0  0  0  0  0  0  0  0  0  0
   -9.1947   26.3086   51.4850 S   0  0  1  0  0  6  0  0  0  0  0  0
   -7.8375   26.3463   52.1516 O   0  0  0  0  0  0  0  0  0  0  0  0
  -10.3245   28.3249   50.0866 C   0  0  0  0  0  0  0  0  0  0  0  0
   -9.8037   28.8269   52.3516 C   0  0  0  0  0  0  0  0  0  0  0  0
   -9.1741   28.3895   53.9249 Cl  0  0  0  0  0  0  0  0  0  0  0  0
  -10.2986   30.1046   52.1781 C   0  0  0  0  0  0  0  0  0  0  0  0
  -10.8017   30.4917   50.9735 C   0  0  0  0  0  0  0  0  0  0  0  0
  -10.2939   25.3893   52.4612 N   0  0  0  0  0  0  0  0  0  0  0  0
  -10.2205   25.3195   53.8212 C   0  0  0  0  0  0  0  0  0  0  0  0
  -11.3221   24.6652   52.0134 C   0  0  0  0  0  0  0  0  0  0  0  0
  -11.8219   24.4021   50.7611 C   0  0  0  0  0  0  0  0  0  0  0  0
  -11.9276   24.1109   53.1503 C   0  0  0  0  0  0  0  0  0  0  0  0
  -13.0267   23.3043   52.9753 C   0  0  0  0  0  0  0  0  0  0  0  0
  -13.5572   23.0172   51.7368 C   0  0  0  0  0  0  0  0  0  0  0  0
  -12.9307   23.5819   50.6542 C   0  0  0  0  0  0  0  0  0  0  0  0
  -11.2414   24.5184   54.2791 C   0  0  0  0  0  0  0  0  0  0  0  0
  -10.7418   24.8058   56.6382 N   0  0  0  0  0  0  0  0  0  0  0  0
  -12.9756   24.5053   56.0643 C   0  0  0  0  0  0  0  0  0  0  0  0
  -12.8012   24.8189   57.4764 N   0  0  0  0  0  0  0  0  0  0  0  0
  -10.9567   25.8804   58.8662 C   0  0  0  0  0  0  0  0  0  0  0  0
  7  1  1  0
  1  9  1  0
  1 10  2  0
  9  2  2  0
  2 13  1  0
  3 22  1  6
  3 23  1  0
  3 24  1  0
 23  4  2  0
  4 25  1  0
  4 26  1  0
 20  5  1  0
  7  6  2  0
  7  8  2  0
  7 14  1  1
 10 11  1  0
 10 12  1  0
 12 13  2  0
 15 14  1  0
 16 14  1  0
 22 15  2  0
 16 17  2  0
 18 16  1  0
 17 21  1  0
 19 18  2  0
 18 22  1  0
 19 20  1  0
 20 21  2  0
 24 25  1  0
M  END
$$$$
