
     RDKit          3D

 26 29  0  0  0  0  0  0  0  0999 V2000
   -7.8307   27.3549   51.0378 C   0  0  0  0  0  0  0  0  0  0  0  0
   -6.1721   27.7617   52.7166 C   0  0  0  0  0  0  0  0  0  0  0  0
  -12.5877   26.8940   54.6907 C   0  0  1  0  0  0  0  0  0  0  0  0
  -13.7697   25.6655   56.1155 C   0  0  0  0  0  0  0  0  0  0  0  0
  -12.9483   21.8644   52.4257 C   0  0  0  0  0  0  0  0  0  0  0  0
   -9.7762   29.0142   50.3626 O   0  0  0  0  0  0  0  0  0  0  0  0
   -9.4760   27.5555   50.4994 S   0  0  1  0  0  6  0  0  0  0  0  0
   -9.6571   26.8778   49.1594 O   0  0  0  0  0  0  0  0  0  0  0  0
   -7.4617   27.9006   52.2662 C   0  0  0  0  0  0  0  0  0  0  0  0
   -6.8930   26.6876   50.3018 C   0  0  0  0  0  0  0  0  0  0  0  0
   -7.2970   25.9778   48.7539 Cl  0  0  0  0  0  0  0  0  0  0  0  0
   -5.5984   26.5537   50.7641 C   0  0  0  0  0  0  0  0  0  0  0  0
   -5.2359   27.0860   51.9637 C   0  0  0  0  0  0  0  0  0  0  0  0
  -10.5380   26.8312   51.6630 N   0  0  0  0  0  0  0  0  0  0  0  0
  -11.0302   27.4902   52.7508 C   0  0  0  0  0  0  0  0  0  0  0  0
  -10.9969   25.5780   51.6317 C   0  0  0  0  0  0  0  0  0  0  0  0
  -10.8092   24.5210   50.7745 C   0  0  0  0  0  0  0  0  0  0  0  0
  -11.8209   25.4409   52.7581 C   0  0  0  0  0  0  0  0  0  0  0  0
  -12.4300   24.2281   52.9760 C   0  0  0  0  0  0  0  0  0  0  0  0
  -12.2668   23.1455   52.1400 C   0  0  0  0  0  0  0  0  0  0  0  0
  -11.4512   23.3274   51.0513 C   0  0  0  0  0  0  0  0  0  0  0  0
  -11.8427   26.6333   53.4573 C   0  0  0  0  0  0  0  0  0  0  0  0
  -13.6980   26.0099   54.8947 N   0  0  0  0  0  0  0  0  0  0  0  0
  -11.7549   26.7420   55.9423 C   0  0  0  0  0  0  0  0  0  0  0  0
  -12.7467   26.2511   56.8899 N   0  0  0  0  0  0  0  0  0  0  0  0
  -14.7915   24.7495   56.7335 C   0  0  0  0  0  0  0  0  0  0  0  0
  7  1  1  0
  1  9  1  0
  1 10  2  0
  9  2  2  0
  2 13  1  0
  3 22  1  6
  3 23  1  0
  3 24  1  0
 23  4  2  0
  4 25  1  0
  4 26  1  0
 20  5  1  0
  7  6  2  0
  7  8  2  0
  7 14  1  1
 10 11  1  0
 10 12  1  0
 12 13  2  0
 15 14  1  0
 16 14  1  0
 22 15  2  0
 16 17  2  0
 18 16  1  0
 17 21  1  0
 19 18  2  0
 18 22  1  0
 19 20  1  0
 20 21  2  0
 24 25  1  0
M  END
$$$$
