
     RDKit          3D

 26 29  0  0  0  0  0  0  0  0999 V2000
   -5.6294   25.4781   51.3782 C   0  0  0  0  0  0  0  0  0  0  0  0
   -4.1273   23.8798   50.4418 C   0  0  0  0  0  0  0  0  0  0  0  0
  -11.3000   27.8834   51.2457 C   0  0  1  0  0  0  0  0  0  0  0  0
  -10.5425   29.9776   50.9148 C   0  0  0  0  0  0  0  0  0  0  0  0
  -12.5297   22.5239   52.3652 C   0  0  0  0  0  0  0  0  0  0  0  0
   -6.3828   25.2950   53.9184 O   0  0  0  0  0  0  0  0  0  0  0  0
   -6.5985   26.0940   52.6565 S   0  0  1  0  0  6  0  0  0  0  0  0
   -6.1540   27.5169   52.9482 O   0  0  0  0  0  0  0  0  0  0  0  0
   -4.8906   24.3260   51.5038 C   0  0  0  0  0  0  0  0  0  0  0  0
   -5.5806   26.1546   50.1818 C   0  0  0  0  0  0  0  0  0  0  0  0
   -6.4996   27.6455   49.9335 Cl  0  0  0  0  0  0  0  0  0  0  0  0
   -4.8222   25.7207   49.1119 C   0  0  0  0  0  0  0  0  0  0  0  0
   -4.0913   24.5675   49.2571 C   0  0  0  0  0  0  0  0  0  0  0  0
   -8.2620   26.1571   52.3010 N   0  0  0  0  0  0  0  0  0  0  0  0
   -8.9217   27.2519   51.8876 C   0  0  0  0  0  0  0  0  0  0  0  0
   -9.1356   25.1100   52.3924 C   0  0  0  0  0  0  0  0  0  0  0  0
   -9.0086   23.7864   52.7555 C   0  0  0  0  0  0  0  0  0  0  0  0
  -10.3733   25.6174   52.0126 C   0  0  0  0  0  0  0  0  0  0  0  0
  -11.4515   24.7394   52.0184 C   0  0  0  0  0  0  0  0  0  0  0  0
  -11.3382   23.4142   52.3792 C   0  0  0  0  0  0  0  0  0  0  0  0
  -10.0971   22.9400   52.7512 C   0  0  0  0  0  0  0  0  0  0  0  0
  -10.2321   26.9527   51.6995 C   0  0  0  0  0  0  0  0  0  0  0  0
  -11.0589   29.1892   51.7860 N   0  0  0  0  0  0  0  0  0  0  0  0
  -11.2281   28.0811   49.7633 C   0  0  0  0  0  0  0  0  0  0  0  0
  -10.3801   29.2754   49.6803 N   0  0  0  0  0  0  0  0  0  0  0  0
  -10.1520   31.4183   51.1103 C   0  0  0  0  0  0  0  0  0  0  0  0
  7  1  1  0
  1  9  1  0
  1 10  2  0
  9  2  2  0
  2 13  1  0
  3 22  1  1
  3 23  1  0
  3 24  1  0
 23  4  2  0
  4 25  1  0
 26  4  1  6
  5 20  1  6
  7  6  2  0
  7  8  2  0
  7 14  1  6
 10 11  1  0
 10 12  1  0
 12 13  2  0
 15 14  1  0
 16 14  1  0
 22 15  2  0
 16 17  2  0
 18 16  1  0
 17 21  1  0
 19 18  2  0
 18 22  1  0
 19 20  1  0
 20 21  2  0
 24 25  1  6
M  END
$$$$
