
     RDKit          3D

 26 29  0  0  0  0  0  0  0  0999 V2000
   -9.5207   27.6616   50.8461 C   0  0  0  0  0  0  0  0  0  0  0  0
  -10.8289   29.6499   50.6947 C   0  0  0  0  0  0  0  0  0  0  0  0
  -12.0001   24.7896   55.6717 C   0  0  1  0  0  0  0  0  0  0  0  0
  -10.8643   26.0545   57.1478 C   0  0  0  0  0  0  0  0  0  0  0  0
  -14.2313   21.7203   51.5375 C   0  0  0  0  0  0  0  0  0  0  0  0
   -8.3849   25.2664   50.6826 O   0  0  0  0  0  0  0  0  0  0  0  0
   -8.9861   26.2460   51.6604 S   0  0  1  0  0  6  0  0  0  0  0  0
   -7.8852   26.6411   52.6296 O   0  0  0  0  0  0  0  0  0  0  0  0
  -10.4340   28.5278   51.3979 C   0  0  0  0  0  0  0  0  0  0  0  0
   -9.0262   27.9482   49.5952 C   0  0  0  0  0  0  0  0  0  0  0  0
   -7.8476   26.8881   48.8102 Cl  0  0  0  0  0  0  0  0  0  0  0  0
   -9.4117   29.0659   48.8807 C   0  0  0  0  0  0  0  0  0  0  0  0
  -10.3250   29.9189   49.4492 C   0  0  0  0  0  0  0  0  0  0  0  0
  -10.1950   25.4692   52.5728 N   0  0  0  0  0  0  0  0  0  0  0  0
  -10.4089   25.6540   53.8861 C   0  0  0  0  0  0  0  0  0  0  0  0
  -11.0958   24.5613   52.0910 C   0  0  0  0  0  0  0  0  0  0  0  0
  -11.3306   24.0129   50.8484 C   0  0  0  0  0  0  0  0  0  0  0  0
  -11.8797   24.1939   53.1792 C   0  0  0  0  0  0  0  0  0  0  0  0
  -12.8897   23.2654   52.9532 C   0  0  0  0  0  0  0  0  0  0  0  0
  -13.1349   22.7096   51.7161 C   0  0  0  0  0  0  0  0  0  0  0  0
  -12.3404   23.0939   50.6558 C   0  0  0  0  0  0  0  0  0  0  0  0
  -11.4457   24.8790   54.2943 C   0  0  0  0  0  0  0  0  0  0  0  0
  -10.9334   24.8845   56.6247 N   0  0  0  0  0  0  0  0  0  0  0  0
  -12.8628   25.9770   55.9677 C   0  0  0  0  0  0  0  0  0  0  0  0
  -11.8915   26.8804   56.5943 N   0  0  0  0  0  0  0  0  0  0  0  0
   -9.8794   26.5318   58.1814 C   0  0  0  0  0  0  0  0  0  0  0  0
  7  1  1  0
  1  9  1  0
  1 10  2  0
  9  2  2  0
  2 13  1  0
  3 22  1  6
  3 23  1  0
  3 24  1  0
 23  4  2  0
  4 25  1  0
 26  4  1  6
  5 20  1  6
  7  6  2  0
  7  8  2  0
  7 14  1  1
 10 11  1  0
 10 12  1  0
 12 13  2  0
 15 14  1  0
 16 14  1  0
 22 15  2  0
 16 17  2  0
 18 16  1  0
 17 21  1  0
 19 18  2  0
 18 22  1  0
 19 20  1  0
 20 21  2  0
 24 25  1  6
M  END
$$$$
