
     RDKit          3D

 26 29  0  0  0  0  0  0  0  0999 V2000
   -6.5718   26.3732   50.5918 C   0  0  0  0  0  0  0  0  0  0  0  0
   -4.5636   25.0933   50.4613 C   0  0  0  0  0  0  0  0  0  0  0  0
  -12.7770   25.5662   51.0343 C   0  0  1  0  0  0  0  0  0  0  0  0
  -14.1582   26.1826   52.7020 C   0  0  0  0  0  0  0  0  0  0  0  0
  -10.6623   21.5058   54.2795 C   0  0  0  0  0  0  0  0  0  0  0  0
   -7.3289   27.5930   52.8262 O   0  0  0  0  0  0  0  0  0  0  0  0
   -7.8217   27.1647   51.4657 S   0  0  1  0  0  6  0  0  0  0  0  0
   -8.2039   28.4270   50.7122 O   0  0  0  0  0  0  0  0  0  0  0  0
   -5.5430   25.7097   51.2166 C   0  0  0  0  0  0  0  0  0  0  0  0
   -6.5884   26.3995   49.2168 C   0  0  0  0  0  0  0  0  0  0  0  0
   -7.8747   27.2304   48.3312 Cl  0  0  0  0  0  0  0  0  0  0  0  0
   -5.6164   25.7880   48.4490 C   0  0  0  0  0  0  0  0  0  0  0  0
   -4.5971   25.1302   49.0919 C   0  0  0  0  0  0  0  0  0  0  0  0
   -9.2415   26.2419   51.6398 N   0  0  0  0  0  0  0  0  0  0  0  0
  -10.4306   26.5450   51.0931 C   0  0  0  0  0  0  0  0  0  0  0  0
   -9.3547   25.0832   52.3557 C   0  0  0  0  0  0  0  0  0  0  0  0
   -8.4745   24.3290   53.1015 C   0  0  0  0  0  0  0  0  0  0  0  0
  -10.6805   24.6854   52.2220 C   0  0  0  0  0  0  0  0  0  0  0  0
  -11.0628   23.5138   52.8656 C   0  0  0  0  0  0  0  0  0  0  0  0
  -10.1930   22.7507   53.6143 C   0  0  0  0  0  0  0  0  0  0  0  0
   -8.8839   23.1711   53.7283 C   0  0  0  0  0  0  0  0  0  0  0  0
  -11.3447   25.6013   51.4339 C   0  0  0  0  0  0  0  0  0  0  0  0
  -13.5783   25.1757   52.1571 N   0  0  0  0  0  0  0  0  0  0  0  0
  -13.2618   26.9427   50.6992 C   0  0  0  0  0  0  0  0  0  0  0  0
  -13.8034   27.3722   51.9932 N   0  0  0  0  0  0  0  0  0  0  0  0
  -15.0741   26.1676   53.8966 C   0  0  0  0  0  0  0  0  0  0  0  0
  7  1  1  0
  1  9  1  0
  1 10  2  0
  9  2  2  0
  2 13  1  0
  3 22  1  1
  3 23  1  0
  3 24  1  0
 23  4  2  0
  4 25  1  0
 26  4  1  6
  5 20  1  6
  7  6  2  0
  7  8  2  0
  7 14  1  1
 10 11  1  0
 10 12  1  0
 12 13  2  0
 15 14  1  0
 16 14  1  0
 22 15  2  0
 16 17  2  0
 18 16  1  0
 17 21  1  0
 19 18  2  0
 18 22  1  0
 19 20  1  0
 20 21  2  0
 24 25  1  6
M  END
$$$$
