
     RDKit          3D

 26 29  0  0  0  0  0  0  0  0999 V2000
  -12.0342   23.1300   52.6245 C   0  0  0  0  0  0  0  0  0  0  0  0
  -11.6111   21.5390   54.3501 C   0  0  0  0  0  0  0  0  0  0  0  0
  -11.6755   28.9581   54.5316 C   0  0  1  0  0  0  0  0  0  0  0  0
  -13.7262   28.7022   55.4247 C   0  0  0  0  0  0  0  0  0  0  0  0
   -6.2612   27.5292   54.8974 C   0  0  0  0  0  0  0  0  0  0  0  0
  -10.6176   24.2488   50.6765 O   0  0  0  0  0  0  0  0  0  0  0  0
  -11.6550   24.5477   51.7309 S   0  0  1  0  0  6  0  0  0  0  0  0
  -12.9095   25.0034   51.0056 O   0  0  0  0  0  0  0  0  0  0  0  0
  -11.2577   22.6883   53.6690 C   0  0  0  0  0  0  0  0  0  0  0  0
  -13.1513   22.4003   52.2909 C   0  0  0  0  0  0  0  0  0  0  0  0
  -14.2066   22.8961   50.9607 Cl  0  0  0  0  0  0  0  0  0  0  0  0
  -13.5167   21.2498   52.9626 C   0  0  0  0  0  0  0  0  0  0  0  0
  -12.7280   20.8251   54.0031 C   0  0  0  0  0  0  0  0  0  0  0  0
  -11.1328   25.8551   52.6877 N   0  0  0  0  0  0  0  0  0  0  0  0
  -11.9203   26.8478   53.1337 C   0  0  0  0  0  0  0  0  0  0  0  0
   -9.8532   26.0635   53.1202 C   0  0  0  0  0  0  0  0  0  0  0  0
   -8.6669   25.3791   52.9650 C   0  0  0  0  0  0  0  0  0  0  0  0
   -9.8920   27.2409   53.8591 C   0  0  0  0  0  0  0  0  0  0  0  0
   -8.6985   27.6815   54.4200 C   0  0  0  0  0  0  0  0  0  0  0  0
   -7.5058   27.0069   54.2724 C   0  0  0  0  0  0  0  0  0  0  0  0
   -7.4991   25.8416   53.5338 C   0  0  0  0  0  0  0  0  0  0  0  0
  -11.1834   27.7239   53.8630 C   0  0  0  0  0  0  0  0  0  0  0  0
  -13.0958   29.0594   54.3654 N   0  0  0  0  0  0  0  0  0  0  0  0
  -11.4857   28.8628   56.0138 C   0  0  0  0  0  0  0  0  0  0  0  0
  -12.7834   28.3183   56.4283 N   0  0  0  0  0  0  0  0  0  0  0  0
  -15.2174   28.6736   55.6293 C   0  0  0  0  0  0  0  0  0  0  0  0
  7  1  1  0
  1  9  1  0
  1 10  2  0
  9  2  2  0
  2 13  1  0
  3 22  1  6
  3 23  1  0
  3 24  1  0
 23  4  2  0
  4 25  1  0
 26  4  1  6
  5 20  1  6
  7  6  2  0
  7  8  2  0
  7 14  1  1
 10 11  1  0
 10 12  1  0
 12 13  2  0
 15 14  1  0
 16 14  1  0
 22 15  2  0
 16 17  2  0
 18 16  1  0
 17 21  1  0
 19 18  2  0
 18 22  1  0
 19 20  1  0
 20 21  2  0
 24 25  1  6
M  END
$$$$
