
     RDKit          3D

 26 29  0  0  0  0  0  0  0  0999 V2000
   -8.0381   26.2177   50.9439 C   0  0  0  0  0  0  0  0  0  0  0  0
   -6.0393   25.3855   51.9673 C   0  0  0  0  0  0  0  0  0  0  0  0
  -11.6305   24.5038   55.4610 C   0  0  1  0  0  0  0  0  0  0  0  0
  -10.4565   24.2822   57.3343 C   0  0  0  0  0  0  0  0  0  0  0  0
  -13.6400   21.0897   51.6057 C   0  0  0  0  0  0  0  0  0  0  0  0
   -9.6761   28.1451   51.7160 O   0  0  0  0  0  0  0  0  0  0  0  0
   -9.6807   26.7690   51.1304 S   0  0  1  0  0  6  0  0  0  0  0  0
  -10.3614   26.8003   49.7801 O   0  0  0  0  0  0  0  0  0  0  0  0
   -7.3361   25.8222   52.0813 C   0  0  0  0  0  0  0  0  0  0  0  0
   -7.4153   26.1619   49.7293 C   0  0  0  0  0  0  0  0  0  0  0  0
   -8.2458   26.6417   48.2654 Cl  0  0  0  0  0  0  0  0  0  0  0  0
   -6.1105   25.7211   49.6257 C   0  0  0  0  0  0  0  0  0  0  0  0
   -5.4229   25.3343   50.7355 C   0  0  0  0  0  0  0  0  0  0  0  0
  -10.5231   25.6741   52.1783 N   0  0  0  0  0  0  0  0  0  0  0  0
  -10.5563   25.8014   53.5357 C   0  0  0  0  0  0  0  0  0  0  0  0
  -11.2287   24.6082   51.7940 C   0  0  0  0  0  0  0  0  0  0  0  0
  -11.5049   24.0447   50.5718 C   0  0  0  0  0  0  0  0  0  0  0  0
  -11.7326   24.0346   52.9702 C   0  0  0  0  0  0  0  0  0  0  0  0
  -12.5046   22.9023   52.8642 C   0  0  0  0  0  0  0  0  0  0  0  0
  -12.8035   22.3082   51.6578 C   0  0  0  0  0  0  0  0  0  0  0  0
  -12.2880   22.9050   50.5346 C   0  0  0  0  0  0  0  0  0  0  0  0
  -11.3139   24.7782   54.0579 C   0  0  0  0  0  0  0  0  0  0  0  0
  -10.5923   23.8075   56.1637 N   0  0  0  0  0  0  0  0  0  0  0  0
  -11.8650   25.7506   56.2817 C   0  0  0  0  0  0  0  0  0  0  0  0
  -11.3581   25.3376   57.5836 N   0  0  0  0  0  0  0  0  0  0  0  0
   -9.4766   23.8265   58.3818 C   0  0  0  0  0  0  0  0  0  0  0  0
  7  1  1  0
  1  9  1  0
  1 10  2  0
  9  2  2  0
  2 13  1  0
  3 22  1  6
  3 23  1  0
  3 24  1  0
 23  4  2  0
  4 25  1  0
  4 26  1  0
 20  5  1  0
  7  6  2  0
  7  8  2  0
  7 14  1  1
 10 11  1  0
 10 12  1  0
 12 13  2  0
 15 14  1  0
 16 14  1  0
 22 15  2  0
 16 17  2  0
 18 16  1  0
 17 21  1  0
 19 18  2  0
 18 22  1  0
 19 20  1  0
 20 21  2  0
 24 25  1  0
M  END
$$$$
