
     RDKit          3D

 26 29  0  0  0  0  0  0  0  0999 V2000
   -7.9046   26.6778   50.8317 C   0  0  0  0  0  0  0  0  0  0  0  0
   -5.7860   25.7180   50.2615 C   0  0  0  0  0  0  0  0  0  0  0  0
  -10.1391   22.6259   54.6847 C   0  0  1  0  0  0  0  0  0  0  0  0
   -8.8524   22.1415   56.4300 C   0  0  0  0  0  0  0  0  0  0  0  0
  -14.4036   22.7096   51.1683 C   0  0  0  0  0  0  0  0  0  0  0  0
   -8.3792   27.7108   53.2195 O   0  0  0  0  0  0  0  0  0  0  0  0
   -9.0744   27.0631   52.0647 S   0  0  1  0  0  6  0  0  0  0  0  0
  -10.1080   28.0140   51.5034 O   0  0  0  0  0  0  0  0  0  0  0  0
   -6.7283   26.0324   51.2094 C   0  0  0  0  0  0  0  0  0  0  0  0
   -8.0965   26.9863   49.5148 C   0  0  0  0  0  0  0  0  0  0  0  0
   -9.5544   27.7929   48.9791 Cl  0  0  0  0  0  0  0  0  0  0  0  0
   -7.1422   26.6655   48.5693 C   0  0  0  0  0  0  0  0  0  0  0  0
   -5.9924   26.0351   48.9361 C   0  0  0  0  0  0  0  0  0  0  0  0
   -9.8511   25.5998   52.5763 N   0  0  0  0  0  0  0  0  0  0  0  0
   -9.3807   24.8051   53.5798 C   0  0  0  0  0  0  0  0  0  0  0  0
  -10.9769   25.0918   52.0699 C   0  0  0  0  0  0  0  0  0  0  0  0
  -11.8281   25.4875   51.0668 C   0  0  0  0  0  0  0  0  0  0  0  0
  -11.2288   23.9165   52.7922 C   0  0  0  0  0  0  0  0  0  0  0  0
  -12.3432   23.1795   52.4694 C   0  0  0  0  0  0  0  0  0  0  0  0
  -13.2200   23.5431   51.4711 C   0  0  0  0  0  0  0  0  0  0  0  0
  -12.9320   24.7004   50.7919 C   0  0  0  0  0  0  0  0  0  0  0  0
  -10.2336   23.7363   53.7347 C   0  0  0  0  0  0  0  0  0  0  0  0
   -8.8145   22.4052   55.1879 N   0  0  0  0  0  0  0  0  0  0  0  0
  -10.9816   22.8186   55.9240 C   0  0  0  0  0  0  0  0  0  0  0  0
  -10.1709   22.1460   56.9305 N   0  0  0  0  0  0  0  0  0  0  0  0
   -7.6773   21.8495   57.3240 C   0  0  0  0  0  0  0  0  0  0  0  0
  7  1  1  0
  1  9  1  0
  1 10  2  0
  9  2  2  0
  2 13  1  0
  3 22  1  6
  3 23  1  0
  3 24  1  0
 23  4  2  0
  4 25  1  0
  4 26  1  0
 20  5  1  0
  7  6  2  0
  7  8  2  0
  7 14  1  1
 10 11  1  0
 10 12  1  0
 12 13  2  0
 15 14  1  0
 16 14  1  0
 22 15  2  0
 16 17  2  0
 18 16  1  0
 17 21  1  0
 19 18  2  0
 18 22  1  0
 19 20  1  0
 20 21  2  0
 24 25  1  0
M  END
$$$$
