
     RDKit          3D

 26 29  0  0  0  0  0  0  0  0999 V2000
   -7.9014   27.5103   51.6026 C   0  0  0  0  0  0  0  0  0  0  0  0
   -6.9965   29.3225   52.8616 C   0  0  0  0  0  0  0  0  0  0  0  0
  -13.5748   26.5676   53.4369 C   0  0  1  0  0  0  0  0  0  0  0  0
  -13.2158   28.1289   55.0187 C   0  0  0  0  0  0  0  0  0  0  0  0
  -11.9789   21.1923   53.6596 C   0  0  0  0  0  0  0  0  0  0  0  0
   -9.6639   27.7168   49.6266 O   0  0  0  0  0  0  0  0  0  0  0  0
   -9.1432   26.7665   50.6769 S   0  0  1  0  0  6  0  0  0  0  0  0
   -8.5446   25.5776   49.9451 O   0  0  0  0  0  0  0  0  0  0  0  0
   -8.0305   28.7742   52.1268 C   0  0  0  0  0  0  0  0  0  0  0  0
   -6.7297   26.8278   51.8323 C   0  0  0  0  0  0  0  0  0  0  0  0
   -6.4787   25.1968   51.1950 Cl  0  0  0  0  0  0  0  0  0  0  0  0
   -5.6879   27.3631   52.5647 C   0  0  0  0  0  0  0  0  0  0  0  0
   -5.8363   28.6270   53.0800 C   0  0  0  0  0  0  0  0  0  0  0  0
  -10.4432   26.1753   51.6033 N   0  0  0  0  0  0  0  0  0  0  0  0
  -11.4638   26.9181   52.0629 C   0  0  0  0  0  0  0  0  0  0  0  0
  -10.6135   24.8782   51.9987 C   0  0  0  0  0  0  0  0  0  0  0  0
   -9.8915   23.7187   51.8145 C   0  0  0  0  0  0  0  0  0  0  0  0
  -11.7967   24.8590   52.7291 C   0  0  0  0  0  0  0  0  0  0  0  0
  -12.2038   23.6366   53.2518 C   0  0  0  0  0  0  0  0  0  0  0  0
  -11.4913   22.4702   53.0750 C   0  0  0  0  0  0  0  0  0  0  0  0
  -10.3213   22.5211   52.3456 C   0  0  0  0  0  0  0  0  0  0  0  0
  -12.3208   26.1338   52.7647 C   0  0  0  0  0  0  0  0  0  0  0  0
  -13.3028   26.8651   54.8127 N   0  0  0  0  0  0  0  0  0  0  0  0
  -14.0519   27.8679   52.8681 C   0  0  0  0  0  0  0  0  0  0  0  0
  -13.4233   28.8235   53.7867 N   0  0  0  0  0  0  0  0  0  0  0  0
  -12.9410   28.8200   56.3277 C   0  0  0  0  0  0  0  0  0  0  0  0
  7  1  1  0
  1  9  1  0
  1 10  2  0
  9  2  2  0
  2 13  1  0
  3 22  1  6
  3 23  1  0
  3 24  1  0
 23  4  2  0
  4 25  1  0
 26  4  1  6
  5 20  1  6
  7  6  2  0
  7  8  2  0
  7 14  1  1
 10 11  1  0
 10 12  1  0
 12 13  2  0
 15 14  1  0
 16 14  1  0
 22 15  2  0
 16 17  2  0
 18 16  1  0
 17 21  1  0
 19 18  2  0
 18 22  1  0
 19 20  1  0
 20 21  2  0
 24 25  1  6
M  END
$$$$
