
     RDKit          3D

 26 29  0  0  0  0  0  0  0  0999 V2000
   -6.9546   26.2766   51.6943 C   0  0  0  0  0  0  0  0  0  0  0  0
   -4.9437   25.1013   52.2067 C   0  0  0  0  0  0  0  0  0  0  0  0
  -11.7111   23.9969   54.6798 C   0  0  1  0  0  0  0  0  0  0  0  0
  -11.6585   21.7832   54.2727 C   0  0  0  0  0  0  0  0  0  0  0  0
  -14.1152   24.1621   49.6119 C   0  0  0  0  0  0  0  0  0  0  0  0
   -8.1196   28.0231   53.3210 O   0  0  0  0  0  0  0  0  0  0  0  0
   -8.3828   27.1218   52.1396 S   0  0  1  0  0  6  0  0  0  0  0  0
   -8.7893   28.0145   50.9797 O   0  0  0  0  0  0  0  0  0  0  0  0
   -6.0783   25.7705   52.6243 C   0  0  0  0  0  0  0  0  0  0  0  0
   -6.6651   26.0955   50.3620 C   0  0  0  0  0  0  0  0  0  0  0  0
   -7.7374   26.7139   49.0984 Cl  0  0  0  0  0  0  0  0  0  0  0  0
   -5.5349   25.4289   49.9300 C   0  0  0  0  0  0  0  0  0  0  0  0
   -4.6719   24.9307   50.8746 C   0  0  0  0  0  0  0  0  0  0  0  0
   -9.7116   26.1135   52.4787 N   0  0  0  0  0  0  0  0  0  0  0  0
   -9.9566   25.5327   53.6650 C   0  0  0  0  0  0  0  0  0  0  0  0
  -10.6924   25.7647   51.5931 C   0  0  0  0  0  0  0  0  0  0  0  0
  -10.9384   26.0645   50.2704 C   0  0  0  0  0  0  0  0  0  0  0  0
  -11.5586   24.9353   52.2970 C   0  0  0  0  0  0  0  0  0  0  0  0
  -12.6607   24.4357   51.6122 C   0  0  0  0  0  0  0  0  0  0  0  0
  -12.9182   24.7277   50.2901 C   0  0  0  0  0  0  0  0  0  0  0  0
  -12.0406   25.5535   49.6183 C   0  0  0  0  0  0  0  0  0  0  0  0
  -11.0935   24.7954   53.5875 C   0  0  0  0  0  0  0  0  0  0  0  0
  -12.3615   22.8466   54.1238 N   0  0  0  0  0  0  0  0  0  0  0  0
  -10.6544   23.4245   55.5729 C   0  0  0  0  0  0  0  0  0  0  0  0
  -10.4453   22.1109   54.9540 N   0  0  0  0  0  0  0  0  0  0  0  0
  -12.0091   20.3906   53.8209 C   0  0  0  0  0  0  0  0  0  0  0  0
  7  1  1  0
  1  9  1  0
  1 10  2  0
  9  2  2  0
  2 13  1  0
  3 22  1  6
  3 23  1  0
  3 24  1  0
 23  4  2  0
  4 25  1  0
 26  4  1  6
  5 20  1  6
  7  6  2  0
  7  8  2  0
  7 14  1  1
 10 11  1  0
 10 12  1  0
 12 13  2  0
 15 14  1  0
 16 14  1  0
 22 15  2  0
 16 17  2  0
 18 16  1  0
 17 21  1  0
 19 18  2  0
 18 22  1  0
 19 20  1  0
 20 21  2  0
 24 25  1  6
M  END
$$$$
