
     RDKit          3D

 26 29  0  0  0  0  0  0  0  0999 V2000
   -7.6655   26.3957   51.2303 C   0  0  0  0  0  0  0  0  0  0  0  0
   -6.4454   25.8895   49.2447 C   0  0  0  0  0  0  0  0  0  0  0  0
  -13.3670   27.1202   53.4173 C   0  0  1  0  0  0  0  0  0  0  0  0
  -13.0118   28.7430   54.9370 C   0  0  0  0  0  0  0  0  0  0  0  0
  -13.7197   21.8270   51.5877 C   0  0  0  0  0  0  0  0  0  0  0  0
   -7.6830   24.7153   53.2870 O   0  0  0  0  0  0  0  0  0  0  0  0
   -8.3076   25.9885   52.7713 S   0  0  1  0  0  6  0  0  0  0  0  0
   -7.9398   27.0928   53.7474 O   0  0  0  0  0  0  0  0  0  0  0  0
   -6.9394   25.5049   50.4766 C   0  0  0  0  0  0  0  0  0  0  0  0
   -7.8766   27.6563   50.7227 C   0  0  0  0  0  0  0  0  0  0  0  0
   -8.7996   28.8655   51.6254 Cl  0  0  0  0  0  0  0  0  0  0  0  0
   -7.3889   28.0548   49.4932 C   0  0  0  0  0  0  0  0  0  0  0  0
   -6.6660   27.1503   48.7554 C   0  0  0  0  0  0  0  0  0  0  0  0
  -10.0033   25.8433   52.8028 N   0  0  0  0  0  0  0  0  0  0  0  0
  -10.8537   26.8112   53.1828 C   0  0  0  0  0  0  0  0  0  0  0  0
  -10.7133   24.7298   52.4506 C   0  0  0  0  0  0  0  0  0  0  0  0
  -10.3644   23.4765   51.9953 C   0  0  0  0  0  0  0  0  0  0  0  0
  -12.0511   25.0620   52.6339 C   0  0  0  0  0  0  0  0  0  0  0  0
  -12.9967   24.0858   52.3404 C   0  0  0  0  0  0  0  0  0  0  0  0
  -12.6613   22.8292   51.8846 C   0  0  0  0  0  0  0  0  0  0  0  0
  -11.3257   22.5293   51.7127 C   0  0  0  0  0  0  0  0  0  0  0  0
  -12.1307   26.3607   53.0903 C   0  0  0  0  0  0  0  0  0  0  0  0
  -13.3393   27.5100   54.7966 N   0  0  0  0  0  0  0  0  0  0  0  0
  -13.3984   28.4176   52.6705 C   0  0  0  0  0  0  0  0  0  0  0  0
  -12.7822   29.3199   53.6494 N   0  0  0  0  0  0  0  0  0  0  0  0
  -12.8767   29.5067   56.2272 C   0  0  0  0  0  0  0  0  0  0  0  0
  7  1  1  0
  1  9  1  0
  1 10  2  0
  9  2  2  0
  2 13  1  0
  3 22  1  6
  3 23  1  0
  3 24  1  0
 23  4  2  0
  4 25  1  0
 26  4  1  6
  5 20  1  6
  7  6  2  0
  7  8  2  0
  7 14  1  6
 10 11  1  0
 10 12  1  0
 12 13  2  0
 15 14  1  0
 16 14  1  0
 22 15  2  0
 16 17  2  0
 18 16  1  0
 17 21  1  0
 19 18  2  0
 18 22  1  0
 19 20  1  0
 20 21  2  0
 24 25  1  6
M  END
$$$$
