
     RDKit          3D

 26 29  0  0  0  0  0  0  0  0999 V2000
   -8.1120   27.1809   50.7610 C   0  0  0  0  0  0  0  0  0  0  0  0
   -6.1030   27.6474   51.9586 C   0  0  0  0  0  0  0  0  0  0  0  0
  -12.5977   26.0878   54.7580 C   0  0  1  0  0  0  0  0  0  0  0  0
  -11.7226   27.7259   56.0307 C   0  0  0  0  0  0  0  0  0  0  0  0
  -12.8014   21.2341   51.9491 C   0  0  0  0  0  0  0  0  0  0  0  0
  -10.2318   28.7639   50.5278 O   0  0  0  0  0  0  0  0  0  0  0  0
   -9.8072   27.3158   50.5152 S   0  0  1  0  0  6  0  0  0  0  0  0
  -10.1337   26.7675   49.1368 O   0  0  0  0  0  0  0  0  0  0  0  0
   -7.4699   27.7892   51.8130 C   0  0  0  0  0  0  0  0  0  0  0  0
   -7.3586   26.4424   49.8787 C   0  0  0  0  0  0  0  0  0  0  0  0
   -8.1030   25.6262   48.4971 Cl  0  0  0  0  0  0  0  0  0  0  0  0
   -5.9918   26.2920   50.0116 C   0  0  0  0  0  0  0  0  0  0  0  0
   -5.3690   26.9074   51.0692 C   0  0  0  0  0  0  0  0  0  0  0  0
  -10.7449   26.4387   51.6328 N   0  0  0  0  0  0  0  0  0  0  0  0
  -11.2125   26.9226   52.7954 C   0  0  0  0  0  0  0  0  0  0  0  0
  -11.1377   25.1371   51.4937 C   0  0  0  0  0  0  0  0  0  0  0  0
  -10.9479   24.1786   50.5214 C   0  0  0  0  0  0  0  0  0  0  0  0
  -11.8749   24.8417   52.6352 C   0  0  0  0  0  0  0  0  0  0  0  0
  -12.3982   23.5579   52.7419 C   0  0  0  0  0  0  0  0  0  0  0  0
  -12.2158   22.5906   51.7774 C   0  0  0  0  0  0  0  0  0  0  0  0
  -11.4799   22.9137   50.6561 C   0  0  0  0  0  0  0  0  0  0  0  0
  -11.9171   25.9592   53.4417 C   0  0  0  0  0  0  0  0  0  0  0  0
  -11.6433   26.4749   55.7552 N   0  0  0  0  0  0  0  0  0  0  0  0
  -13.5797   27.2179   54.7323 C   0  0  0  0  0  0  0  0  0  0  0  0
  -12.7529   28.3196   55.2373 N   0  0  0  0  0  0  0  0  0  0  0  0
  -10.8885   28.4935   57.0214 C   0  0  0  0  0  0  0  0  0  0  0  0
  7  1  1  0
  1  9  1  0
  1 10  2  0
  9  2  2  0
  2 13  1  0
  3 22  1  6
  3 23  1  0
  3 24  1  0
 23  4  2  0
  4 25  1  0
 26  4  1  6
  5 20  1  6
  7  6  2  0
  7  8  2  0
  7 14  1  1
 10 11  1  0
 10 12  1  0
 12 13  2  0
 15 14  1  0
 16 14  1  0
 22 15  2  0
 16 17  2  0
 18 16  1  0
 17 21  1  0
 19 18  2  0
 18 22  1  0
 19 20  1  0
 20 21  2  0
 24 25  1  6
M  END
$$$$
