
     RDKit          3D

 26 29  0  0  0  0  0  0  0  0999 V2000
   -7.9872   26.5963   50.2545 C   0  0  0  0  0  0  0  0  0  0  0  0
   -6.7871   25.8569   48.3308 C   0  0  0  0  0  0  0  0  0  0  0  0
  -10.9077   24.7418   55.3987 C   0  0  1  0  0  0  0  0  0  0  0  0
  -10.1506   26.3805   56.7440 C   0  0  0  0  0  0  0  0  0  0  0  0
  -13.3438   21.5149   51.5073 C   0  0  0  0  0  0  0  0  0  0  0  0
   -9.0900   28.4623   51.7893 O   0  0  0  0  0  0  0  0  0  0  0  0
   -9.3966   27.1901   51.0377 S   0  0  1  0  0  6  0  0  0  0  0  0
  -10.4226   27.5376   49.9728 O   0  0  0  0  0  0  0  0  0  0  0  0
   -7.9488   26.3361   48.9056 C   0  0  0  0  0  0  0  0  0  0  0  0
   -6.8503   26.3664   50.9936 C   0  0  0  0  0  0  0  0  0  0  0  0
   -6.8113   26.6737   52.7352 Cl  0  0  0  0  0  0  0  0  0  0  0  0
   -5.6822   25.8876   50.4328 C   0  0  0  0  0  0  0  0  0  0  0  0
   -5.6641   25.6339   49.0836 C   0  0  0  0  0  0  0  0  0  0  0  0
  -10.1324   26.0719   52.0892 N   0  0  0  0  0  0  0  0  0  0  0  0
  -10.0489   26.1028   53.4296 C   0  0  0  0  0  0  0  0  0  0  0  0
  -10.8954   25.0040   51.7078 C   0  0  0  0  0  0  0  0  0  0  0  0
  -11.3017   24.5045   50.4891 C   0  0  0  0  0  0  0  0  0  0  0  0
  -11.2799   24.3751   52.8869 C   0  0  0  0  0  0  0  0  0  0  0  0
  -12.0774   23.2417   52.7745 C   0  0  0  0  0  0  0  0  0  0  0  0
  -12.4904   22.7320   51.5625 C   0  0  0  0  0  0  0  0  0  0  0  0
  -12.0929   23.3780   50.4101 C   0  0  0  0  0  0  0  0  0  0  0  0
  -10.7486   25.0655   53.9557 C   0  0  0  0  0  0  0  0  0  0  0  0
   -9.8141   25.3001   56.1385 N   0  0  0  0  0  0  0  0  0  0  0  0
  -12.1163   25.4252   55.9592 C   0  0  0  0  0  0  0  0  0  0  0  0
  -11.5246   26.6660   56.4717 N   0  0  0  0  0  0  0  0  0  0  0  0
   -9.2773   27.2456   57.6131 C   0  0  0  0  0  0  0  0  0  0  0  0
  7  1  1  0
  1  9  1  0
  1 10  2  0
  9  2  2  0
  2 13  1  0
  3 22  1  6
  3 23  1  0
  3 24  1  0
 23  4  2  0
  4 25  1  0
 26  4  1  6
  5 20  1  6
  7  6  2  0
  7  8  2  0
  7 14  1  1
 10 11  1  0
 10 12  1  0
 12 13  2  0
 15 14  1  0
 16 14  1  0
 22 15  2  0
 16 17  2  0
 18 16  1  0
 17 21  1  0
 19 18  2  0
 18 22  1  0
 19 20  1  0
 20 21  2  0
 24 25  1  6
M  END
$$$$
