
     RDKit          3D

 26 29  0  0  0  0  0  0  0  0999 V2000
  -10.0617   27.7328   52.9782 C   0  0  0  0  0  0  0  0  0  0  0  0
  -11.5194   29.6198   52.9301 C   0  0  0  0  0  0  0  0  0  0  0  0
  -10.4251   22.1672   55.4578 C   0  0  1  0  0  0  0  0  0  0  0  0
   -8.5772   22.5140   56.6962 C   0  0  0  0  0  0  0  0  0  0  0  0
  -14.6472   21.6882   51.7925 C   0  0  0  0  0  0  0  0  0  0  0  0
   -9.6000   26.2225   50.8429 O   0  0  0  0  0  0  0  0  0  0  0  0
   -9.4629   26.2517   52.3455 S   0  0  1  0  0  6  0  0  0  0  0  0
   -7.9793   26.1648   52.6596 O   0  0  0  0  0  0  0  0  0  0  0  0
  -11.0807   28.4320   52.3767 C   0  0  0  0  0  0  0  0  0  0  0  0
   -9.5080   28.2494   54.1263 C   0  0  0  0  0  0  0  0  0  0  0  0
   -8.1927   27.4157   54.9654 Cl  0  0  0  0  0  0  0  0  0  0  0  0
   -9.9362   29.4353   54.6907 C   0  0  0  0  0  0  0  0  0  0  0  0
  -10.9553   30.1188   54.0748 C   0  0  0  0  0  0  0  0  0  0  0  0
  -10.1926   24.8649   53.0101 N   0  0  0  0  0  0  0  0  0  0  0  0
   -9.7528   24.2065   54.0953 C   0  0  0  0  0  0  0  0  0  0  0  0
  -11.3108   24.2450   52.5271 C   0  0  0  0  0  0  0  0  0  0  0  0
  -12.1540   24.4846   51.4633 C   0  0  0  0  0  0  0  0  0  0  0  0
  -11.5390   23.1657   53.3736 C   0  0  0  0  0  0  0  0  0  0  0  0
  -12.6373   22.3592   53.0969 C   0  0  0  0  0  0  0  0  0  0  0  0
  -13.4880   22.5876   52.0369 C   0  0  0  0  0  0  0  0  0  0  0  0
  -13.2356   23.6664   51.2147 C   0  0  0  0  0  0  0  0  0  0  0  0
  -10.5640   23.1481   54.3484 C   0  0  0  0  0  0  0  0  0  0  0  0
   -9.0368   21.8845   55.6765 N   0  0  0  0  0  0  0  0  0  0  0  0
  -10.8848   22.7682   56.7498 C   0  0  0  0  0  0  0  0  0  0  0  0
   -9.6223   23.2964   57.2784 N   0  0  0  0  0  0  0  0  0  0  0  0
   -7.1719   22.4703   57.2342 C   0  0  0  0  0  0  0  0  0  0  0  0
  7  1  1  0
  1  9  1  0
  1 10  2  0
  9  2  2  0
  2 13  1  0
  3 22  1  6
  3 23  1  0
  3 24  1  0
 23  4  2  0
  4 25  1  0
 26  4  1  6
  5 20  1  6
  7  6  2  0
  7  8  2  0
  7 14  1  1
 10 11  1  0
 10 12  1  0
 12 13  2  0
 15 14  1  0
 16 14  1  0
 22 15  2  0
 16 17  2  0
 18 16  1  0
 17 21  1  0
 19 18  2  0
 18 22  1  0
 19 20  1  0
 20 21  2  0
 24 25  1  6
M  END
$$$$
