
     RDKit          3D

 26 29  0  0  0  0  0  0  0  0999 V2000
   -8.1903   26.4560   50.6624 C   0  0  0  0  0  0  0  0  0  0  0  0
   -6.3326   25.8712   52.0389 C   0  0  0  0  0  0  0  0  0  0  0  0
  -12.6773   26.7459   54.7786 C   0  0  1  0  0  0  0  0  0  0  0  0
  -12.2725   28.9319   55.1340 C   0  0  0  0  0  0  0  0  0  0  0  0
  -13.3682   21.3938   53.2396 C   0  0  0  0  0  0  0  0  0  0  0  0
  -10.1920   28.0733   50.0055 O   0  0  0  0  0  0  0  0  0  0  0  0
   -9.8733   26.6443   50.3714 S   0  0  1  0  0  6  0  0  0  0  0  0
  -10.2494   25.7838   49.1775 O   0  0  0  0  0  0  0  0  0  0  0  0
   -7.6969   26.0001   51.8614 C   0  0  0  0  0  0  0  0  0  0  0  0
   -7.2939   26.7719   49.6684 C   0  0  0  0  0  0  0  0  0  0  0  0
   -7.8415   27.3655   48.0947 Cl  0  0  0  0  0  0  0  0  0  0  0  0
   -5.9277   26.6481   49.8314 C   0  0  0  0  0  0  0  0  0  0  0  0
   -5.4547   26.1910   51.0366 C   0  0  0  0  0  0  0  0  0  0  0  0
  -10.8629   26.1549   51.6670 N   0  0  0  0  0  0  0  0  0  0  0  0
  -11.2625   26.9479   52.6751 C   0  0  0  0  0  0  0  0  0  0  0  0
  -11.3729   24.9000   51.8490 C   0  0  0  0  0  0  0  0  0  0  0  0
  -11.2884   23.7206   51.1407 C   0  0  0  0  0  0  0  0  0  0  0  0
  -12.1106   24.9599   53.0262 C   0  0  0  0  0  0  0  0  0  0  0  0
  -12.7440   23.7940   53.4419 C   0  0  0  0  0  0  0  0  0  0  0  0
  -12.6676   22.6085   52.7433 C   0  0  0  0  0  0  0  0  0  0  0  0
  -11.9282   22.5804   51.5788 C   0  0  0  0  0  0  0  0  0  0  0  0
  -12.0371   26.2392   53.5353 C   0  0  0  0  0  0  0  0  0  0  0  0
  -11.8417   27.7470   55.3741 N   0  0  0  0  0  0  0  0  0  0  0  0
  -13.9465   27.4720   54.4564 C   0  0  0  0  0  0  0  0  0  0  0  0
  -13.4593   28.8510   54.3413 N   0  0  0  0  0  0  0  0  0  0  0  0
  -11.6632   30.2308   55.5900 C   0  0  0  0  0  0  0  0  0  0  0  0
  7  1  1  0
  1  9  1  0
  1 10  2  0
  9  2  2  0
  2 13  1  0
  3 22  1  6
  3 23  1  0
  3 24  1  0
 23  4  2  0
  4 25  1  0
 26  4  1  6
  5 20  1  6
  7  6  2  0
  7  8  2  0
  7 14  1  1
 10 11  1  0
 10 12  1  0
 12 13  2  0
 15 14  1  0
 16 14  1  0
 22 15  2  0
 16 17  2  0
 18 16  1  0
 17 21  1  0
 19 18  2  0
 18 22  1  0
 19 20  1  0
 20 21  2  0
 24 25  1  6
M  END
$$$$
