
     RDKit          3D

 26 29  0  0  0  0  0  0  0  0999 V2000
   -8.9161   28.5338   50.5302 C   0  0  0  0  0  0  0  0  0  0  0  0
  -10.4186   30.3442   50.0830 C   0  0  0  0  0  0  0  0  0  0  0  0
  -12.4339   23.5199   51.1038 C   0  0  1  0  0  0  0  0  0  0  0  0
  -13.2794   21.7478   52.1436 C   0  0  0  0  0  0  0  0  0  0  0  0
  -10.6831   24.2781   56.2921 C   0  0  0  0  0  0  0  0  0  0  0  0
   -8.4758   26.6029   48.7775 O   0  0  0  0  0  0  0  0  0  0  0  0
   -8.4700   26.8729   50.2484 S   0  0  1  0  0  6  0  0  0  0  0  0
   -7.0845   26.6196   50.7998 O   0  0  0  0  0  0  0  0  0  0  0  0
  -10.0430   29.0386   49.8836 C   0  0  0  0  0  0  0  0  0  0  0  0
   -8.2032   29.3561   51.3559 C   0  0  0  0  0  0  0  0  0  0  0  0
   -6.7817   28.7788   52.1980 Cl  0  0  0  0  0  0  0  0  0  0  0  0
   -8.5896   30.6678   51.5496 C   0  0  0  0  0  0  0  0  0  0  0  0
   -9.6901   31.1630   50.9189 C   0  0  0  0  0  0  0  0  0  0  0  0
   -9.6103   25.8430   51.0518 N   0  0  0  0  0  0  0  0  0  0  0  0
  -10.5787   25.1357   50.4024 C   0  0  0  0  0  0  0  0  0  0  0  0
   -9.6717   25.6168   52.3659 C   0  0  0  0  0  0  0  0  0  0  0  0
   -8.9478   26.0725   53.4409 C   0  0  0  0  0  0  0  0  0  0  0  0
  -10.7337   24.7206   52.5538 C   0  0  0  0  0  0  0  0  0  0  0  0
  -11.0254   24.3151   53.8344 C   0  0  0  0  0  0  0  0  0  0  0  0
  -10.3231   24.7492   54.9371 C   0  0  0  0  0  0  0  0  0  0  0  0
   -9.2931   25.6256   54.7037 C   0  0  0  0  0  0  0  0  0  0  0  0
  -11.3006   24.4194   51.3294 C   0  0  0  0  0  0  0  0  0  0  0  0
  -12.2229   22.1884   51.5925 N   0  0  0  0  0  0  0  0  0  0  0  0
  -13.7060   23.9697   51.7839 C   0  0  0  0  0  0  0  0  0  0  0  0
  -14.3265   22.6918   52.1074 N   0  0  0  0  0  0  0  0  0  0  0  0
  -13.4664   20.3961   52.7785 C   0  0  0  0  0  0  0  0  0  0  0  0
  7  1  1  0
  1  9  1  0
  1 10  2  0
  9  2  2  0
  2 13  1  0
  3 22  1  1
  3 23  1  0
  3 24  1  0
 23  4  2  0
  4 25  1  0
  4 26  1  0
 20  5  1  0
  7  6  2  0
  7  8  2  0
  7 14  1  1
 10 11  1  0
 10 12  1  0
 12 13  2  0
 15 14  1  0
 16 14  1  0
 22 15  2  0
 16 17  2  0
 18 16  1  0
 17 21  1  0
 19 18  2  0
 18 22  1  0
 19 20  1  0
 20 21  2  0
 24 25  1  0
M  END
$$$$
