
     RDKit          3D

 26 29  0  0  0  0  0  0  0  0999 V2000
   -7.7404   26.9685   50.9758 C   0  0  0  0  0  0  0  0  0  0  0  0
   -5.4843   26.2192   50.6862 C   0  0  0  0  0  0  0  0  0  0  0  0
  -12.4301   23.5801   53.0852 C   0  0  1  0  0  0  0  0  0  0  0  0
  -13.7792   22.8100   51.4967 C   0  0  0  0  0  0  0  0  0  0  0  0
   -8.3127   22.1487   56.4846 C   0  0  0  0  0  0  0  0  0  0  0  0
   -8.4432   28.3108   53.1434 O   0  0  0  0  0  0  0  0  0  0  0  0
   -9.0150   27.4502   52.0622 S   0  0  1  0  0  6  0  0  0  0  0  0
  -10.0625   28.2310   51.3002 O   0  0  0  0  0  0  0  0  0  0  0  0
   -6.5092   26.6009   51.5164 C   0  0  0  0  0  0  0  0  0  0  0  0
   -7.9023   26.9407   49.6196 C   0  0  0  0  0  0  0  0  0  0  0  0
   -9.4254   27.3876   48.8824 Cl  0  0  0  0  0  0  0  0  0  0  0  0
   -6.8647   26.5552   48.7935 C   0  0  0  0  0  0  0  0  0  0  0  0
   -5.6614   26.1958   49.3195 C   0  0  0  0  0  0  0  0  0  0  0  0
   -9.7354   26.0286   52.7453 N   0  0  0  0  0  0  0  0  0  0  0  0
  -10.9721   25.5678   52.4015 C   0  0  0  0  0  0  0  0  0  0  0  0
   -9.1791   25.2299   53.6588 C   0  0  0  0  0  0  0  0  0  0  0  0
   -7.9780   25.2448   54.3254 C   0  0  0  0  0  0  0  0  0  0  0  0
  -10.1138   24.2134   53.9028 C   0  0  0  0  0  0  0  0  0  0  0  0
   -9.7945   23.2410   54.8204 C   0  0  0  0  0  0  0  0  0  0  0  0
   -8.6012   23.2215   55.5084 C   0  0  0  0  0  0  0  0  0  0  0  0
   -7.7185   24.2367   55.2365 C   0  0  0  0  0  0  0  0  0  0  0  0
  -11.2331   24.4229   53.1189 C   0  0  0  0  0  0  0  0  0  0  0  0
  -13.3204   23.8814   52.0022 N   0  0  0  0  0  0  0  0  0  0  0  0
  -12.1278   22.1088   52.9212 C   0  0  0  0  0  0  0  0  0  0  0  0
  -13.2789   21.6631   52.1473 N   0  0  0  0  0  0  0  0  0  0  0  0
  -14.7416   22.6987   50.3449 C   0  0  0  0  0  0  0  0  0  0  0  0
  7  1  1  0
  1  9  1  0
  1 10  2  0
  9  2  2  0
  2 13  1  0
  3 22  1  6
  3 23  1  0
  3 24  1  0
 23  4  2  0
  4 25  1  0
  4 26  1  0
 20  5  1  0
  7  6  2  0
  7  8  2  0
  7 14  1  1
 10 11  1  0
 10 12  1  0
 12 13  2  0
 15 14  1  0
 16 14  1  0
 22 15  2  0
 16 17  2  0
 18 16  1  0
 17 21  1  0
 19 18  2  0
 18 22  1  0
 19 20  1  0
 20 21  2  0
 24 25  1  0
M  END
$$$$
