
     RDKit          3D

 26 29  0  0  0  0  0  0  0  0999 V2000
   -8.9939   27.2784   50.9003 C   0  0  0  0  0  0  0  0  0  0  0  0
  -10.3100   28.5312   49.3555 C   0  0  0  0  0  0  0  0  0  0  0  0
  -12.8822   25.8241   55.3045 C   0  0  1  0  0  0  0  0  0  0  0  0
  -12.1758   27.5834   56.5189 C   0  0  0  0  0  0  0  0  0  0  0  0
  -13.8899   21.3526   52.0672 C   0  0  0  0  0  0  0  0  0  0  0  0
   -8.0875   24.8457   51.4607 O   0  0  0  0  0  0  0  0  0  0  0  0
   -8.7848   26.0373   52.0701 S   0  0  1  0  0  6  0  0  0  0  0  0
   -7.8820   26.5674   53.1707 O   0  0  0  0  0  0  0  0  0  0  0  0
  -10.2021   27.5203   50.2915 C   0  0  0  0  0  0  0  0  0  0  0  0
   -7.9206   28.0637   50.5499 C   0  0  0  0  0  0  0  0  0  0  0  0
   -6.3293   27.8217   51.2836 Cl  0  0  0  0  0  0  0  0  0  0  0  0
   -8.0135   29.0775   49.6162 C   0  0  0  0  0  0  0  0  0  0  0  0
   -9.2291   29.3034   49.0193 C   0  0  0  0  0  0  0  0  0  0  0  0
  -10.2295   25.5312   52.8143 N   0  0  0  0  0  0  0  0  0  0  0  0
  -10.8137   26.1406   53.8594 C   0  0  0  0  0  0  0  0  0  0  0  0
  -10.9750   24.4455   52.4491 C   0  0  0  0  0  0  0  0  0  0  0  0
  -10.8508   23.4854   51.4679 C   0  0  0  0  0  0  0  0  0  0  0  0
  -12.0535   24.4163   53.3264 C   0  0  0  0  0  0  0  0  0  0  0  0
  -12.9789   23.3910   53.1655 C   0  0  0  0  0  0  0  0  0  0  0  0
  -12.8664   22.4251   52.1889 C   0  0  0  0  0  0  0  0  0  0  0  0
  -11.7854   22.4807   51.3335 C   0  0  0  0  0  0  0  0  0  0  0  0
  -11.9462   25.4757   54.2023 C   0  0  0  0  0  0  0  0  0  0  0  0
  -12.1377   26.3035   56.4319 N   0  0  0  0  0  0  0  0  0  0  0  0
  -13.7435   26.9849   54.9137 C   0  0  0  0  0  0  0  0  0  0  0  0
  -12.9610   28.1063   55.4448 N   0  0  0  0  0  0  0  0  0  0  0  0
  -11.5171   28.4439   57.5639 C   0  0  0  0  0  0  0  0  0  0  0  0
  7  1  1  0
  1  9  1  0
  1 10  2  0
  9  2  2  0
  2 13  1  0
  3 22  1  6
  3 23  1  0
  3 24  1  0
 23  4  2  0
  4 25  1  0
 26  4  1  6
  5 20  1  6
  7  6  2  0
  7  8  2  0
  7 14  1  1
 10 11  1  0
 10 12  1  0
 12 13  2  0
 15 14  1  0
 16 14  1  0
 22 15  2  0
 16 17  2  0
 18 16  1  0
 17 21  1  0
 19 18  2  0
 18 22  1  0
 19 20  1  0
 20 21  2  0
 24 25  1  6
M  END
$$$$
