
     RDKit          3D

 27 29  0  0  0  0  0  0  0  0999 V2000
    0.5366   10.6234  220.8531 C   0  0  0  0  0  0  0  0  0  0  0  0
   -0.3828   11.3871  220.1685 C   0  0  0  0  0  0  0  0  0  0  0  0
   -1.7347   11.3173  220.4505 C   0  0  0  0  0  0  0  0  0  0  0  0
    1.6417   11.7897  219.4237 C   0  0  0  0  0  0  0  0  0  0  0  0
   -2.0982   10.4655  221.4263 N   0  0  0  0  0  0  0  0  0  0  0  0
    0.1306    9.7814  221.8247 N   0  0  0  0  0  0  0  0  0  0  0  0
    3.6356   10.5976  224.5830 C   0  0  0  0  0  0  0  0  0  0  0  0
    3.0468   10.0324  223.2931 C   0  0  0  0  0  0  0  0  0  0  0  0
    3.5857   10.8387  222.1018 C   0  0  0  0  0  0  0  0  0  0  0  0
    2.9862   10.2332  220.8776 C   0  0  0  0  0  0  0  0  0  0  0  0
    1.7985   10.8712  220.3927 N   0  0  0  0  0  0  0  0  0  0  0  0
   -1.1864    9.7197  222.0927 C   0  0  0  0  0  0  0  0  0  0  0  0
   -2.6996   12.0905  219.7627 N   0  0  0  0  0  0  0  0  0  0  0  0
    0.3124   12.0932  219.2993 N   0  0  0  0  0  0  0  0  0  0  0  0
    2.6744   12.4142  218.5766 C   0  0  0  0  0  0  0  0  0  0  0  0
    4.0076   12.5063  219.2062 C   0  0  0  0  0  0  0  0  0  0  0  0
    4.9202   11.4914  219.0738 C   0  0  0  0  0  0  0  0  0  0  0  0
    4.3594   13.6136  219.9432 C   0  0  0  0  0  0  0  0  0  0  0  0
    5.5969   13.7380  220.5529 C   0  0  0  0  0  0  0  0  0  0  0  0
    5.9408   14.8659  221.2973 O   0  0  0  0  0  0  0  0  0  0  0  0
    5.0128   15.9339  221.3396 C   0  0  0  0  0  0  0  0  0  0  0  0
    6.4822   12.6831  220.3877 C   0  0  0  0  0  0  0  0  0  0  0  0
    7.7224   12.7863  220.9876 O   0  0  0  0  0  0  0  0  0  0  0  0
    8.6766   13.7579  220.6804 C   0  0  0  0  0  0  0  0  0  0  0  0
    6.1829   11.5581  219.6643 C   0  0  0  0  0  0  0  0  0  0  0  0
    7.0954   10.5056  219.5123 O   0  0  0  0  0  0  0  0  0  0  0  0
    7.0791    9.6967  218.3519 C   0  0  0  0  0  0  0  0  0  0  0  0
  1  2  1  0
  1  6  2  0
 11  1  1  0
  2  3  2  0
 14  2  1  0
  3  5  1  0
  3 13  1  0
 11  4  1  0
  4 14  2  0
  4 15  1  0
 12  5  2  0
  6 12  1  0
  8  7  1  0
  9  8  1  0
 10  9  1  0
 10 11  1  0
 15 16  1  0
 16 17  2  0
 16 18  1  0
 17 25  1  0
 18 19  2  0
 19 20  1  0
 19 22  1  0
 20 21  1  0
 22 23  1  0
 22 25  2  0
 23 24  1  0
 25 26  1  0
 26 27  1  0
M  END
$$$$
