
     RDKit          3D

 27 29  0  0  0  0  0  0  0  0999 V2000
    0.8884   10.0505  221.0907 C   0  0  0  0  0  0  0  0  0  0  0  0
    0.0884   10.8505  220.3050 C   0  0  0  0  0  0  0  0  0  0  0  0
   -1.2460   11.0553  220.6042 C   0  0  0  0  0  0  0  0  0  0  0  0
    2.1262   10.7863  219.4933 C   0  0  0  0  0  0  0  0  0  0  0  0
   -1.7151   10.4320  221.7001 N   0  0  0  0  0  0  0  0  0  0  0  0
    0.3790    9.4434  222.1814 N   0  0  0  0  0  0  0  0  0  0  0  0
    5.2870    7.5816  219.8167 C   0  0  0  0  0  0  0  0  0  0  0  0
    3.7767    7.3945  219.6984 C   0  0  0  0  0  0  0  0  0  0  0  0
    3.1195    7.7733  221.0342 C   0  0  0  0  0  0  0  0  0  0  0  0
    3.2372    9.2552  221.1563 C   0  0  0  0  0  0  0  0  0  0  0  0
    2.1582   10.0080  220.5890 N   0  0  0  0  0  0  0  0  0  0  0  0
   -0.9201    9.6481  222.4651 C   0  0  0  0  0  0  0  0  0  0  0  0
   -2.0894   11.8718  219.8142 N   0  0  0  0  0  0  0  0  0  0  0  0
    0.8633   11.2908  219.3340 N   0  0  0  0  0  0  0  0  0  0  0  0
    3.2207   11.0929  218.5541 C   0  0  0  0  0  0  0  0  0  0  0  0
    4.3653   11.8030  219.1605 C   0  0  0  0  0  0  0  0  0  0  0  0
    5.6367   11.2978  219.0670 C   0  0  0  0  0  0  0  0  0  0  0  0
    4.1772   12.9866  219.8362 C   0  0  0  0  0  0  0  0  0  0  0  0
    5.2221   13.6818  220.4224 C   0  0  0  0  0  0  0  0  0  0  0  0
    5.0176   14.8807  221.1046 O   0  0  0  0  0  0  0  0  0  0  0  0
    3.6978   15.3894  221.1590 C   0  0  0  0  0  0  0  0  0  0  0  0
    6.4872   13.1270  220.2985 C   0  0  0  0  0  0  0  0  0  0  0  0
    7.5441   13.8040  220.8759 O   0  0  0  0  0  0  0  0  0  0  0  0
    8.0377   15.0332  220.4352 C   0  0  0  0  0  0  0  0  0  0  0  0
    6.7301   11.9517  219.6366 C   0  0  0  0  0  0  0  0  0  0  0  0
    8.0183   11.4119  219.5255 O   0  0  0  0  0  0  0  0  0  0  0  0
    8.2803   10.3438  218.6355 C   0  0  0  0  0  0  0  0  0  0  0  0
  1  2  1  0
  1  6  2  0
 11  1  1  0
  2  3  2  0
 14  2  1  0
  3  5  1  0
  3 13  1  0
 11  4  1  0
  4 14  2  0
  4 15  1  0
 12  5  2  0
  6 12  1  0
  8  7  1  0
  9  8  1  0
 10  9  1  0
 10 11  1  0
 15 16  1  0
 16 17  2  0
 16 18  1  0
 17 25  1  0
 18 19  2  0
 19 20  1  0
 19 22  1  0
 20 21  1  0
 22 23  1  0
 22 25  2  0
 23 24  1  0
 25 26  1  0
 26 27  1  0
M  END
$$$$
