
     RDKit          3D

 27 29  0  0  0  0  0  0  0  0999 V2000
    0.5624   10.1433  220.9360 C   0  0  0  0  0  0  0  0  0  0  0  0
   -0.2519   11.0990  220.3695 C   0  0  0  0  0  0  0  0  0  0  0  0
   -1.5585   11.2754  220.7862 C   0  0  0  0  0  0  0  0  0  0  0  0
    1.7321   11.1418  219.4328 C   0  0  0  0  0  0  0  0  0  0  0  0
   -1.9861   10.4647  221.7710 N   0  0  0  0  0  0  0  0  0  0  0  0
    0.0948    9.3507  221.9213 N   0  0  0  0  0  0  0  0  0  0  0  0
    4.2692   11.0162  223.6452 C   0  0  0  0  0  0  0  0  0  0  0  0
    3.1771   10.7540  222.6115 C   0  0  0  0  0  0  0  0  0  0  0  0
    3.2761    9.2960  222.1379 C   0  0  0  0  0  0  0  0  0  0  0  0
    2.8806    9.2925  220.6998 C   0  0  0  0  0  0  0  0  0  0  0  0
    1.7988   10.1668  220.3559 N   0  0  0  0  0  0  0  0  0  0  0  0
   -1.1775    9.5290  222.3207 C   0  0  0  0  0  0  0  0  0  0  0  0
   -2.4157   12.2491  220.2214 N   0  0  0  0  0  0  0  0  0  0  0  0
    0.4814   11.6986  219.4529 N   0  0  0  0  0  0  0  0  0  0  0  0
    2.7811   11.5961  218.5016 C   0  0  0  0  0  0  0  0  0  0  0  0
    3.9998   12.1114  219.1584 C   0  0  0  0  0  0  0  0  0  0  0  0
    4.0041   13.3380  219.7715 C   0  0  0  0  0  0  0  0  0  0  0  0
    5.1591   11.3704  219.1644 C   0  0  0  0  0  0  0  0  0  0  0  0
    6.3242   11.8182  219.7651 C   0  0  0  0  0  0  0  0  0  0  0  0
    7.4925   11.0570  219.7640 O   0  0  0  0  0  0  0  0  0  0  0  0
    7.4819    9.8371  219.0460 C   0  0  0  0  0  0  0  0  0  0  0  0
    6.2740   13.0650  220.3705 C   0  0  0  0  0  0  0  0  0  0  0  0
    7.4252   13.5312  220.9758 O   0  0  0  0  0  0  0  0  0  0  0  0
    7.7062   13.4256  222.3391 C   0  0  0  0  0  0  0  0  0  0  0  0
    5.1464   13.8437  220.3935 C   0  0  0  0  0  0  0  0  0  0  0  0
    5.1216   15.1007  221.0123 O   0  0  0  0  0  0  0  0  0  0  0  0
    3.9965   15.9483  220.8823 C   0  0  0  0  0  0  0  0  0  0  0  0
  1  2  1  0
  1  6  2  0
 11  1  1  0
  2  3  2  0
 14  2  1  0
  3  5  1  0
  3 13  1  0
 11  4  1  0
  4 14  2  0
  4 15  1  0
 12  5  2  0
  6 12  1  0
  8  7  1  0
  9  8  1  0
 10  9  1  0
 10 11  1  0
 15 16  1  0
 16 17  2  0
 16 18  1  0
 17 25  1  0
 18 19  2  0
 19 20  1  0
 19 22  1  0
 20 21  1  0
 22 23  1  0
 22 25  2  0
 23 24  1  0
 25 26  1  0
 26 27  1  0
M  END
$$$$
