
     RDKit          3D

 27 29  0  0  0  0  0  0  0  0999 V2000
    0.6274    9.8417  220.8279 C   0  0  0  0  0  0  0  0  0  0  0  0
   -0.1079   10.8583  220.2594 C   0  0  0  0  0  0  0  0  0  0  0  0
   -1.4063   11.1211  220.6558 C   0  0  0  0  0  0  0  0  0  0  0  0
    1.8908   10.7727  219.3575 C   0  0  0  0  0  0  0  0  0  0  0  0
   -1.9071   10.3313  221.6229 N   0  0  0  0  0  0  0  0  0  0  0  0
    0.0879    9.0727  221.7950 N   0  0  0  0  0  0  0  0  0  0  0  0
    3.2780    8.7152  224.3781 C   0  0  0  0  0  0  0  0  0  0  0  0
    3.3741    9.2627  222.9565 C   0  0  0  0  0  0  0  0  0  0  0  0
    2.7628    8.2419  221.9848 C   0  0  0  0  0  0  0  0  0  0  0  0
    2.8843    8.8334  220.6210 C   0  0  0  0  0  0  0  0  0  0  0  0
    1.8726    9.7851  220.2695 N   0  0  0  0  0  0  0  0  0  0  0  0
   -1.1758    9.3352  222.1747 C   0  0  0  0  0  0  0  0  0  0  0  0
   -2.1832   12.1587  220.0884 N   0  0  0  0  0  0  0  0  0  0  0  0
    0.6818   11.4153  219.3631 N   0  0  0  0  0  0  0  0  0  0  0  0
    2.9856   11.1628  218.4502 C   0  0  0  0  0  0  0  0  0  0  0  0
    4.1573   11.7562  219.1262 C   0  0  0  0  0  0  0  0  0  0  0  0
    5.3965   11.1779  219.0242 C   0  0  0  0  0  0  0  0  0  0  0  0
    4.0273   12.9018  219.8770 C   0  0  0  0  0  0  0  0  0  0  0  0
    5.0991   13.4881  220.5299 C   0  0  0  0  0  0  0  0  0  0  0  0
    4.9535   14.6495  221.2878 O   0  0  0  0  0  0  0  0  0  0  0  0
    3.6950   15.2970  221.2637 C   0  0  0  0  0  0  0  0  0  0  0  0
    6.3296   12.8628  220.3940 C   0  0  0  0  0  0  0  0  0  0  0  0
    7.4125   13.4308  221.0371 O   0  0  0  0  0  0  0  0  0  0  0  0
    8.0180   14.6326  220.6658 C   0  0  0  0  0  0  0  0  0  0  0  0
    6.5145   11.7211  219.6587 C   0  0  0  0  0  0  0  0  0  0  0  0
    7.7688   11.1084  219.5369 O   0  0  0  0  0  0  0  0  0  0  0  0
    7.9084    9.8760  218.8564 C   0  0  0  0  0  0  0  0  0  0  0  0
  1  2  1  0
  1  6  2  0
 11  1  1  0
  2  3  2  0
 14  2  1  0
  3  5  1  0
  3 13  1  0
 11  4  1  0
  4 14  2  0
  4 15  1  0
 12  5  2  0
  6 12  1  0
  8  7  1  0
  9  8  1  0
 10  9  1  0
 10 11  1  0
 15 16  1  0
 16 17  2  0
 16 18  1  0
 17 25  1  0
 18 19  2  0
 19 20  1  0
 19 22  1  0
 20 21  1  0
 22 23  1  0
 22 25  2  0
 23 24  1  0
 25 26  1  0
 26 27  1  0
M  END
$$$$
