
     RDKit          3D

 27 29  0  0  0  0  0  0  0  0999 V2000
    0.6466    9.7958  220.9330 C   0  0  0  0  0  0  0  0  0  0  0  0
   -0.0057   10.8203  220.2834 C   0  0  0  0  0  0  0  0  0  0  0  0
   -1.2860   11.2032  220.6389 C   0  0  0  0  0  0  0  0  0  0  0  0
    1.9917   10.5278  219.4230 C   0  0  0  0  0  0  0  0  0  0  0  0
   -1.8543   10.5214  221.6498 N   0  0  0  0  0  0  0  0  0  0  0  0
    0.0413    9.1374  221.9418 N   0  0  0  0  0  0  0  0  0  0  0  0
    3.5312    7.9600  223.8244 C   0  0  0  0  0  0  0  0  0  0  0  0
    3.4193    9.2910  223.0856 C   0  0  0  0  0  0  0  0  0  0  0  0
    3.9623    9.1185  221.6590 C   0  0  0  0  0  0  0  0  0  0  0  0
    2.8262    8.6153  220.8339 C   0  0  0  0  0  0  0  0  0  0  0  0
    1.8908    9.6105  220.4006 N   0  0  0  0  0  0  0  0  0  0  0  0
   -1.2043    9.5163  222.2812 C   0  0  0  0  0  0  0  0  0  0  0  0
   -1.9783   12.2517  219.9883 N   0  0  0  0  0  0  0  0  0  0  0  0
    0.8330   11.2547  219.3640 N   0  0  0  0  0  0  0  0  0  0  0  0
    3.1226   10.7734  218.5093 C   0  0  0  0  0  0  0  0  0  0  0  0
    4.2158   11.5778  219.0924 C   0  0  0  0  0  0  0  0  0  0  0  0
    3.9540   12.7609  219.7344 C   0  0  0  0  0  0  0  0  0  0  0  0
    5.5222   11.1564  218.9991 C   0  0  0  0  0  0  0  0  0  0  0  0
    6.5767   11.8823  219.5284 C   0  0  0  0  0  0  0  0  0  0  0  0
    7.8965   11.4437  219.4268 O   0  0  0  0  0  0  0  0  0  0  0  0
    8.1570   10.3299  218.5932 C   0  0  0  0  0  0  0  0  0  0  0  0
    6.2568   13.0712  220.1669 C   0  0  0  0  0  0  0  0  0  0  0  0
    7.2935   13.8112  220.7021 O   0  0  0  0  0  0  0  0  0  0  0  0
    7.6697   13.7976  222.0463 C   0  0  0  0  0  0  0  0  0  0  0  0
    4.9734   13.5367  220.2880 C   0  0  0  0  0  0  0  0  0  0  0  0
    4.6764   14.7418  220.9383 O   0  0  0  0  0  0  0  0  0  0  0  0
    3.3651   15.2724  220.9140 C   0  0  0  0  0  0  0  0  0  0  0  0
  1  2  1  0
  1  6  2  0
 11  1  1  0
  2  3  2  0
 14  2  1  0
  3  5  1  0
  3 13  1  0
 11  4  1  0
  4 14  2  0
  4 15  1  0
 12  5  2  0
  6 12  1  0
  8  7  1  0
  9  8  1  0
 10  9  1  0
 10 11  1  0
 15 16  1  0
 16 17  2  0
 16 18  1  0
 17 25  1  0
 18 19  2  0
 19 20  1  0
 19 22  1  0
 20 21  1  0
 22 23  1  0
 22 25  2  0
 23 24  1  0
 25 26  1  0
 26 27  1  0
M  END
$$$$
