
     RDKit          3D

 27 29  0  0  0  0  0  0  0  0999 V2000
    0.8737   10.4782  221.2538 C   0  0  0  0  0  0  0  0  0  0  0  0
    0.1391   11.2761  220.4048 C   0  0  0  0  0  0  0  0  0  0  0  0
   -1.1822   11.5878  220.6673 C   0  0  0  0  0  0  0  0  0  0  0  0
    2.1782   11.0247  219.6337 C   0  0  0  0  0  0  0  0  0  0  0  0
   -1.7059   11.0698  221.7930 N   0  0  0  0  0  0  0  0  0  0  0  0
    0.3109    9.9787  222.3725 N   0  0  0  0  0  0  0  0  0  0  0  0
    2.7268    7.4302  218.9057 C   0  0  0  0  0  0  0  0  0  0  0  0
    3.7389    7.6263  220.0315 C   0  0  0  0  0  0  0  0  0  0  0  0
    2.9943    8.0573  221.3041 C   0  0  0  0  0  0  0  0  0  0  0  0
    3.1629    9.5355  221.4106 C   0  0  0  0  0  0  0  0  0  0  0  0
    2.1441   10.3193  220.7777 N   0  0  0  0  0  0  0  0  0  0  0  0
   -0.9750   10.2868  222.6203 C   0  0  0  0  0  0  0  0  0  0  0  0
   -1.9590   12.4047  219.8122 N   0  0  0  0  0  0  0  0  0  0  0  0
    0.9541   11.5999  219.4208 N   0  0  0  0  0  0  0  0  0  0  0  0
    3.3026   11.1962  218.6955 C   0  0  0  0  0  0  0  0  0  0  0  0
    4.4113   12.0227  219.2150 C   0  0  0  0  0  0  0  0  0  0  0  0
    5.7034   11.5643  219.1884 C   0  0  0  0  0  0  0  0  0  0  0  0
    4.1680   13.2706  219.7408 C   0  0  0  0  0  0  0  0  0  0  0  0
    5.1779   14.0757  220.2418 C   0  0  0  0  0  0  0  0  0  0  0  0
    4.9175   15.3388  220.7721 O   0  0  0  0  0  0  0  0  0  0  0  0
    3.5945   15.8325  220.6758 C   0  0  0  0  0  0  0  0  0  0  0  0
    6.4660   13.5641  220.1910 C   0  0  0  0  0  0  0  0  0  0  0  0
    7.4887   14.3506  220.6855 O   0  0  0  0  0  0  0  0  0  0  0  0
    7.7905   14.5047  222.0397 C   0  0  0  0  0  0  0  0  0  0  0  0
    6.7635   12.3285  219.6781 C   0  0  0  0  0  0  0  0  0  0  0  0
    8.0741   11.8343  219.6381 O   0  0  0  0  0  0  0  0  0  0  0  0
    8.3584   10.5870  219.0341 C   0  0  0  0  0  0  0  0  0  0  0  0
  1  2  1  0
  1  6  2  0
 11  1  1  0
  2  3  2  0
 14  2  1  0
  3  5  1  0
  3 13  1  0
 11  4  1  0
  4 14  2  0
  4 15  1  0
 12  5  2  0
  6 12  1  0
  8  7  1  0
  9  8  1  0
 10  9  1  0
 10 11  1  0
 15 16  1  0
 16 17  2  0
 16 18  1  0
 17 25  1  0
 18 19  2  0
 19 20  1  0
 19 22  1  0
 20 21  1  0
 22 23  1  0
 22 25  2  0
 23 24  1  0
 25 26  1  0
 26 27  1  0
M  END
$$$$
