
     RDKit          3D

 27 29  0  0  0  0  0  0  0  0999 V2000
    0.6907   10.2890  221.0129 C   0  0  0  0  0  0  0  0  0  0  0  0
   -0.2194   10.9504  220.2182 C   0  0  0  0  0  0  0  0  0  0  0  0
   -1.5694   10.9589  220.5173 C   0  0  0  0  0  0  0  0  0  0  0  0
    1.8052   11.1784  219.4030 C   0  0  0  0  0  0  0  0  0  0  0  0
   -1.9406   10.2880  221.6227 N   0  0  0  0  0  0  0  0  0  0  0  0
    0.2771    9.6281  222.1129 N   0  0  0  0  0  0  0  0  0  0  0  0
    4.9640    7.9027  219.9543 C   0  0  0  0  0  0  0  0  0  0  0  0
    3.4856    7.6197  220.2073 C   0  0  0  0  0  0  0  0  0  0  0  0
    3.0298    8.4084  221.4443 C   0  0  0  0  0  0  0  0  0  0  0  0
    3.1315    9.8522  221.0843 C   0  0  0  0  0  0  0  0  0  0  0  0
    1.9526   10.4286  220.5092 N   0  0  0  0  0  0  0  0  0  0  0  0
   -1.0379    9.6415  222.3966 C   0  0  0  0  0  0  0  0  0  0  0  0
   -2.5248   11.6301  219.7182 N   0  0  0  0  0  0  0  0  0  0  0  0
    0.4815   11.4875  219.2396 N   0  0  0  0  0  0  0  0  0  0  0  0
    2.8420   11.6311  218.4574 C   0  0  0  0  0  0  0  0  0  0  0  0
    4.0984   12.0753  219.0947 C   0  0  0  0  0  0  0  0  0  0  0  0
    5.2586   11.3617  218.9365 C   0  0  0  0  0  0  0  0  0  0  0  0
    4.1284   13.2149  219.8650 C   0  0  0  0  0  0  0  0  0  0  0  0
    5.2839   13.6639  220.4831 C   0  0  0  0  0  0  0  0  0  0  0  0
    5.3005   14.8209  221.2613 O   0  0  0  0  0  0  0  0  0  0  0  0
    4.1442   15.6373  221.2506 C   0  0  0  0  0  0  0  0  0  0  0  0
    6.4289   12.9053  220.2907 C   0  0  0  0  0  0  0  0  0  0  0  0
    7.5930   13.3350  220.8984 O   0  0  0  0  0  0  0  0  0  0  0  0
    8.2012   12.7069  221.9866 C   0  0  0  0  0  0  0  0  0  0  0  0
    6.4543   11.7629  219.5338 C   0  0  0  0  0  0  0  0  0  0  0  0
    7.6249   11.0138  219.3549 O   0  0  0  0  0  0  0  0  0  0  0  0
    7.6590    9.9327  218.4431 C   0  0  0  0  0  0  0  0  0  0  0  0
  1  2  1  0
  1  6  2  0
 11  1  1  0
  2  3  2  0
 14  2  1  0
  3  5  1  0
  3 13  1  0
 11  4  1  0
  4 14  2  0
  4 15  1  0
 12  5  2  0
  6 12  1  0
  8  7  1  0
  9  8  1  0
 10  9  1  0
 10 11  1  0
 15 16  1  0
 16 17  2  0
 16 18  1  0
 17 25  1  0
 18 19  2  0
 19 20  1  0
 19 22  1  0
 20 21  1  0
 22 23  1  0
 22 25  2  0
 23 24  1  0
 25 26  1  0
 26 27  1  0
M  END
$$$$
