
     RDKit          3D

 27 29  0  0  0  0  0  0  0  0999 V2000
    0.6266   10.2164  221.0269 C   0  0  0  0  0  0  0  0  0  0  0  0
   -0.0804   11.1938  220.3620 C   0  0  0  0  0  0  0  0  0  0  0  0
   -1.3744   11.5224  220.7223 C   0  0  0  0  0  0  0  0  0  0  0  0
    1.9209   10.9787  219.4879 C   0  0  0  0  0  0  0  0  0  0  0  0
   -1.8999   10.8365  221.7534 N   0  0  0  0  0  0  0  0  0  0  0  0
    0.0630    9.5521  222.0559 N   0  0  0  0  0  0  0  0  0  0  0  0
    3.7674   10.9886  223.4596 C   0  0  0  0  0  0  0  0  0  0  0  0
    4.1596    9.6148  222.9221 C   0  0  0  0  0  0  0  0  0  0  0  0
    2.9013    8.9027  222.4031 C   0  0  0  0  0  0  0  0  0  0  0  0
    2.8596    9.1402  220.9312 C   0  0  0  0  0  0  0  0  0  0  0  0
    1.8734   10.0794  220.4861 N   0  0  0  0  0  0  0  0  0  0  0  0
   -1.1962    9.8780  222.3998 C   0  0  0  0  0  0  0  0  0  0  0  0
   -2.1224   12.5218  220.0563 N   0  0  0  0  0  0  0  0  0  0  0  0
    0.7279   11.6476  219.4250 N   0  0  0  0  0  0  0  0  0  0  0  0
    3.0302   11.2582  218.5576 C   0  0  0  0  0  0  0  0  0  0  0  0
    4.1902   11.9330  219.1750 C   0  0  0  0  0  0  0  0  0  0  0  0
    4.0546   13.1593  219.7737 C   0  0  0  0  0  0  0  0  0  0  0  0
    5.4337   11.3446  219.1580 C   0  0  0  0  0  0  0  0  0  0  0  0
    6.5476   11.9449  219.7215 C   0  0  0  0  0  0  0  0  0  0  0  0
    7.8026   11.3375  219.6973 O   0  0  0  0  0  0  0  0  0  0  0  0
    8.1066   10.4998  218.5975 C   0  0  0  0  0  0  0  0  0  0  0  0
    6.3554   13.1842  220.3137 C   0  0  0  0  0  0  0  0  0  0  0  0
    7.4533   13.8011  220.8820 O   0  0  0  0  0  0  0  0  0  0  0  0
    7.7576   13.7867  222.2443 C   0  0  0  0  0  0  0  0  0  0  0  0
    5.1391   13.8144  220.3585 C   0  0  0  0  0  0  0  0  0  0  0  0
    4.9711   15.0672  220.9632 O   0  0  0  0  0  0  0  0  0  0  0  0
    3.7063   15.7009  220.9740 C   0  0  0  0  0  0  0  0  0  0  0  0
  1  2  1  0
  1  6  2  0
 11  1  1  0
  2  3  2  0
 14  2  1  0
  3  5  1  0
  3 13  1  0
 11  4  1  0
  4 14  2  0
  4 15  1  0
 12  5  2  0
  6 12  1  0
  8  7  1  0
  9  8  1  0
 10  9  1  0
 10 11  1  0
 15 16  1  0
 16 17  2  0
 16 18  1  0
 17 25  1  0
 18 19  2  0
 19 20  1  0
 19 22  1  0
 20 21  1  0
 22 23  1  0
 22 25  2  0
 23 24  1  0
 25 26  1  0
 26 27  1  0
M  END
$$$$
