
     RDKit          3D

 27 29  0  0  0  0  0  0  0  0999 V2000
    0.5758   10.7148  219.5974 C   0  0  0  0  0  0  0  0  0  0  0  0
    0.0216   10.9757  220.8311 C   0  0  0  0  0  0  0  0  0  0  0  0
   -1.3469   11.0734  221.0034 C   0  0  0  0  0  0  0  0  0  0  0  0
    2.2095   10.9012  220.9836 C   0  0  0  0  0  0  0  0  0  0  0  0
   -2.1014   10.9000  219.9032 N   0  0  0  0  0  0  0  0  0  0  0  0
   -0.2161   10.5473  218.5192 N   0  0  0  0  0  0  0  0  0  0  0  0
    4.0500    7.9039  220.1338 C   0  0  0  0  0  0  0  0  0  0  0  0
    4.3045    8.5198  218.7606 C   0  0  0  0  0  0  0  0  0  0  0  0
    2.9699    9.0052  218.1749 C   0  0  0  0  0  0  0  0  0  0  0  0
    2.8232   10.4314  218.5863 C   0  0  0  0  0  0  0  0  0  0  0  0
    1.9379   10.6672  219.6878 N   0  0  0  0  0  0  0  0  0  0  0  0
   -1.5464   10.6440  218.6957 C   0  0  0  0  0  0  0  0  0  0  0  0
   -1.9417   11.3404  222.2591 N   0  0  0  0  0  0  0  0  0  0  0  0
    1.0364   11.0863  221.6649 N   0  0  0  0  0  0  0  0  0  0  0  0
    3.5247   10.9748  221.6459 C   0  0  0  0  0  0  0  0  0  0  0  0
    4.2836   12.2099  221.3621 C   0  0  0  0  0  0  0  0  0  0  0  0
    3.6549   13.3254  220.8714 C   0  0  0  0  0  0  0  0  0  0  0  0
    5.6408   12.2643  221.5814 C   0  0  0  0  0  0  0  0  0  0  0  0
    6.3901   13.4008  221.3249 C   0  0  0  0  0  0  0  0  0  0  0  0
    7.7653   13.4425  221.5517 O   0  0  0  0  0  0  0  0  0  0  0  0
    8.3636   12.3205  222.1736 C   0  0  0  0  0  0  0  0  0  0  0  0
    5.7051   14.5004  220.8296 C   0  0  0  0  0  0  0  0  0  0  0  0
    6.4332   15.6448  220.5666 O   0  0  0  0  0  0  0  0  0  0  0  0
    7.8200   15.7506  220.6860 C   0  0  0  0  0  0  0  0  0  0  0  0
    4.3551   14.5001  220.5932 C   0  0  0  0  0  0  0  0  0  0  0  0
    3.6863   15.6248  220.0922 O   0  0  0  0  0  0  0  0  0  0  0  0
    2.3132   15.5600  219.7578 C   0  0  0  0  0  0  0  0  0  0  0  0
  1  2  1  0
  1  6  2  0
 11  1  1  0
  2  3  2  0
 14  2  1  0
  3  5  1  0
  3 13  1  0
 11  4  1  0
  4 14  2  0
  4 15  1  0
 12  5  2  0
  6 12  1  0
  8  7  1  0
  9  8  1  0
 10  9  1  0
 10 11  1  0
 15 16  1  0
 16 17  2  0
 16 18  1  0
 17 25  1  0
 18 19  2  0
 19 20  1  0
 19 22  1  0
 20 21  1  0
 22 23  1  0
 22 25  2  0
 23 24  1  0
 25 26  1  0
 26 27  1  0
M  END
$$$$
