
     RDKit          3D

 27 29  0  0  0  0  0  0  0  0999 V2000
    0.4594    9.9726  220.8254 C   0  0  0  0  0  0  0  0  0  0  0  0
   -0.2759   10.9956  220.2685 C   0  0  0  0  0  0  0  0  0  0  0  0
   -1.5718   11.2583  220.6728 C   0  0  0  0  0  0  0  0  0  0  0  0
    1.7186   10.9123  219.3570 C   0  0  0  0  0  0  0  0  0  0  0  0
   -2.0703   10.4620  221.6356 N   0  0  0  0  0  0  0  0  0  0  0  0
   -0.0777    9.1971  221.7886 N   0  0  0  0  0  0  0  0  0  0  0  0
    3.8892    7.7724  223.4884 C   0  0  0  0  0  0  0  0  0  0  0  0
    3.1408    9.0043  222.9863 C   0  0  0  0  0  0  0  0  0  0  0  0
    3.7069    9.4102  221.6172 C   0  0  0  0  0  0  0  0  0  0  0  0
    2.7129    8.9603  220.6002 C   0  0  0  0  0  0  0  0  0  0  0  0
    1.7020    9.9174  220.2610 N   0  0  0  0  0  0  0  0  0  0  0  0
   -1.3391    9.4595  222.1760 C   0  0  0  0  0  0  0  0  0  0  0  0
   -2.3485   12.3024  220.1174 N   0  0  0  0  0  0  0  0  0  0  0  0
    0.5113   11.5579  219.3732 N   0  0  0  0  0  0  0  0  0  0  0  0
    2.8103   11.3071  218.4480 C   0  0  0  0  0  0  0  0  0  0  0  0
    3.9374   11.9958  219.1096 C   0  0  0  0  0  0  0  0  0  0  0  0
    5.2046   11.4737  219.0661 C   0  0  0  0  0  0  0  0  0  0  0  0
    3.7365   13.1760  219.7876 C   0  0  0  0  0  0  0  0  0  0  0  0
    4.7645   13.8513  220.4247 C   0  0  0  0  0  0  0  0  0  0  0  0
    4.5471   15.0469  221.1086 O   0  0  0  0  0  0  0  0  0  0  0  0
    3.2440   15.5982  221.0715 C   0  0  0  0  0  0  0  0  0  0  0  0
    6.0261   13.2800  220.3500 C   0  0  0  0  0  0  0  0  0  0  0  0
    7.0663   13.9370  220.9786 O   0  0  0  0  0  0  0  0  0  0  0  0
    7.3374   13.8725  222.3464 C   0  0  0  0  0  0  0  0  0  0  0  0
    6.2812   12.1072  219.6882 C   0  0  0  0  0  0  0  0  0  0  0  0
    7.5656   11.5504  219.6274 O   0  0  0  0  0  0  0  0  0  0  0  0
    7.8382   10.4527  218.7776 C   0  0  0  0  0  0  0  0  0  0  0  0
  1  2  1  0
  1  6  2  0
 11  1  1  0
  2  3  2  0
 14  2  1  0
  3  5  1  0
  3 13  1  0
 11  4  1  0
  4 14  2  0
  4 15  1  0
 12  5  2  0
  6 12  1  0
  8  7  1  0
  9  8  1  0
 10  9  1  0
 10 11  1  0
 15 16  1  0
 16 17  2  0
 16 18  1  0
 17 25  1  0
 18 19  2  0
 19 20  1  0
 19 22  1  0
 20 21  1  0
 22 23  1  0
 22 25  2  0
 23 24  1  0
 25 26  1  0
 26 27  1  0
M  END
$$$$
