
     RDKit          3D

 27 29  0  0  0  0  0  0  0  0999 V2000
    0.5614   11.5141  219.9524 C   0  0  0  0  0  0  0  0  0  0  0  0
    0.0494   11.0972  221.1612 C   0  0  0  0  0  0  0  0  0  0  0  0
   -1.3124   11.0710  221.3997 C   0  0  0  0  0  0  0  0  0  0  0  0
    2.2411   10.9899  221.1889 C   0  0  0  0  0  0  0  0  0  0  0  0
   -2.1037   11.4738  220.3892 N   0  0  0  0  0  0  0  0  0  0  0  0
   -0.2666   11.9101  218.9649 N   0  0  0  0  0  0  0  0  0  0  0  0
    4.2426   15.0025  218.9010 C   0  0  0  0  0  0  0  0  0  0  0  0
    3.1097   14.1509  219.4676 C   0  0  0  0  0  0  0  0  0  0  0  0
    2.5881   13.2153  218.3664 C   0  0  0  0  0  0  0  0  0  0  0  0
    2.7731   11.8246  218.8727 C   0  0  0  0  0  0  0  0  0  0  0  0
    1.9257   11.4485  219.9652 N   0  0  0  0  0  0  0  0  0  0  0  0
   -1.5900   11.8815  219.2053 C   0  0  0  0  0  0  0  0  0  0  0  0
   -1.8642   10.6474  222.6318 N   0  0  0  0  0  0  0  0  0  0  0  0
    1.0919   10.7810  221.9033 N   0  0  0  0  0  0  0  0  0  0  0  0
    3.5779   10.7346  221.7560 C   0  0  0  0  0  0  0  0  0  0  0  0
    4.6547   11.5662  221.1806 C   0  0  0  0  0  0  0  0  0  0  0  0
    4.7974   12.8815  221.5415 C   0  0  0  0  0  0  0  0  0  0  0  0
    5.5357   11.0371  220.2658 C   0  0  0  0  0  0  0  0  0  0  0  0
    6.5564   11.7831  219.6996 C   0  0  0  0  0  0  0  0  0  0  0  0
    7.4426   11.2344  218.7734 O   0  0  0  0  0  0  0  0  0  0  0  0
    6.8932   10.5969  217.6353 C   0  0  0  0  0  0  0  0  0  0  0  0
    6.6560   13.1076  220.0990 C   0  0  0  0  0  0  0  0  0  0  0  0
    7.6670   13.8701  219.5465 O   0  0  0  0  0  0  0  0  0  0  0  0
    8.6788   14.4981  220.2750 C   0  0  0  0  0  0  0  0  0  0  0  0
    5.8056   13.6842  221.0061 C   0  0  0  0  0  0  0  0  0  0  0  0
    5.9275   15.0254  221.3932 O   0  0  0  0  0  0  0  0  0  0  0  0
    5.1394   15.5487  222.4451 C   0  0  0  0  0  0  0  0  0  0  0  0
  1  2  1  0
  1  6  2  0
 11  1  1  0
  2  3  2  0
 14  2  1  0
  3  5  1  0
  3 13  1  0
 11  4  1  0
  4 14  2  0
  4 15  1  0
 12  5  2  0
  6 12  1  0
  8  7  1  0
  9  8  1  0
 10  9  1  0
 10 11  1  0
 15 16  1  0
 16 17  2  0
 16 18  1  0
 17 25  1  0
 18 19  2  0
 19 20  1  0
 19 22  1  0
 20 21  1  0
 22 23  1  0
 22 25  2  0
 23 24  1  0
 25 26  1  0
 26 27  1  0
M  END
$$$$
