
     RDKit          3D

 27 29  0  0  0  0  0  0  0  0999 V2000
    0.7258   10.0347  221.4768 C   0  0  0  0  0  0  0  0  0  0  0  0
   -0.0120   10.8024  220.6030 C   0  0  0  0  0  0  0  0  0  0  0  0
   -1.3462   11.0821  220.8349 C   0  0  0  0  0  0  0  0  0  0  0  0
    2.0482   10.5955  219.8763 C   0  0  0  0  0  0  0  0  0  0  0  0
   -1.8790   10.5644  221.9564 N   0  0  0  0  0  0  0  0  0  0  0  0
    0.1535    9.5344  222.5903 N   0  0  0  0  0  0  0  0  0  0  0  0
    2.2493    6.8083  219.2083 C   0  0  0  0  0  0  0  0  0  0  0  0
    2.4667    7.0145  220.7050 C   0  0  0  0  0  0  0  0  0  0  0  0
    3.6087    8.0210  220.9107 C   0  0  0  0  0  0  0  0  0  0  0  0
    3.0352    9.1550  221.6916 C   0  0  0  0  0  0  0  0  0  0  0  0
    2.0093    9.9036  221.0284 N   0  0  0  0  0  0  0  0  0  0  0  0
   -1.1449    9.8114  222.8082 C   0  0  0  0  0  0  0  0  0  0  0  0
   -2.1264   11.8676  219.9538 N   0  0  0  0  0  0  0  0  0  0  0  0
    0.8141   11.1354  219.6314 N   0  0  0  0  0  0  0  0  0  0  0  0
    3.1867   10.7851  218.9588 C   0  0  0  0  0  0  0  0  0  0  0  0
    4.2474   11.6734  219.4765 C   0  0  0  0  0  0  0  0  0  0  0  0
    5.5612   11.2806  219.4672 C   0  0  0  0  0  0  0  0  0  0  0  0
    3.9367   12.9142  219.9832 C   0  0  0  0  0  0  0  0  0  0  0  0
    4.8999   13.7757  220.4819 C   0  0  0  0  0  0  0  0  0  0  0  0
    4.5713   15.0309  220.9927 O   0  0  0  0  0  0  0  0  0  0  0  0
    3.2099   15.4173  220.9628 C   0  0  0  0  0  0  0  0  0  0  0  0
    6.2127   13.3294  220.4490 C   0  0  0  0  0  0  0  0  0  0  0  0
    7.1898   14.1730  220.9416 O   0  0  0  0  0  0  0  0  0  0  0  0
    7.2121   14.6946  222.2362 C   0  0  0  0  0  0  0  0  0  0  0  0
    6.5768   12.1037  219.9555 C   0  0  0  0  0  0  0  0  0  0  0  0
    7.9110   11.6760  219.9335 O   0  0  0  0  0  0  0  0  0  0  0  0
    8.3780   10.8166  218.9114 C   0  0  0  0  0  0  0  0  0  0  0  0
  1  2  1  0
  1  6  2  0
 11  1  1  0
  2  3  2  0
 14  2  1  0
  3  5  1  0
  3 13  1  0
 11  4  1  0
  4 14  2  0
  4 15  1  0
 12  5  2  0
  6 12  1  0
  8  7  1  0
  9  8  1  0
 10  9  1  0
 10 11  1  0
 15 16  1  0
 16 17  2  0
 16 18  1  0
 17 25  1  0
 18 19  2  0
 19 20  1  0
 19 22  1  0
 20 21  1  0
 22 23  1  0
 22 25  2  0
 23 24  1  0
 25 26  1  0
 26 27  1  0
M  END
$$$$
