
     RDKit          3D

 24 27  0  0  0  0  0  0  0  0999 V2000
   78.5043   10.3465  -10.5638 C   0  0  0  0  0  0  0  0  0  0  0  0
   76.1709   10.4669  -10.2062 C   0  0  0  0  0  0  0  0  0  0  0  0
   76.0648   11.3804  -11.2139 C   0  0  0  0  0  0  0  0  0  0  0  0
   77.1772   11.7942  -11.9157 C   0  0  0  0  0  0  0  0  0  0  0  0
   78.4105   11.2707  -11.5861 C   0  0  0  0  0  0  0  0  0  0  0  0
   77.3863    9.9398   -9.8689 C   0  0  0  0  0  0  0  0  0  0  0  0
   77.4493    8.9760   -8.7953 C   0  0  0  0  0  0  0  0  0  0  0  0
   77.9855    7.7263   -8.8674 C   0  0  0  0  0  0  0  0  0  0  0  0
   77.8372    7.1903   -7.6795 O   0  0  0  0  0  0  0  0  0  0  0  0
   77.2461    8.0141   -6.8669 N   0  0  0  0  0  0  0  0  0  0  0  0
   76.9691    9.1793   -7.5180 C   0  0  0  0  0  0  0  0  0  0  0  0
   76.2982   10.3815   -6.9491 C   0  0  0  0  0  0  0  0  0  0  0  0
   78.6304    7.0281  -10.0198 C   0  0  0  0  0  0  0  0  0  0  0  0
   74.8318   11.8771  -11.5133 N   0  0  0  0  0  0  0  0  0  0  0  0
   74.6481   12.7764  -12.4886 C   0  0  0  0  0  0  0  0  0  0  0  0
   75.7249   13.2250  -13.2221 C   0  0  0  0  0  0  0  0  0  0  0  0
   76.9847   12.7207  -12.9197 C   0  0  0  0  0  0  0  0  0  0  0  0
   79.5831   11.7113  -12.3308 C   0  0  0  0  0  0  0  0  0  0  0  0
   80.3337   10.9343  -13.2096 C   0  0  0  0  0  0  0  0  0  0  0  0
   81.2753   11.7004  -13.6512 O   0  0  0  0  0  0  0  0  0  0  0  0
   81.2049   12.9005  -13.1409 N   0  0  0  0  0  0  0  0  0  0  0  0
   80.1501   12.9685  -12.2947 C   0  0  0  0  0  0  0  0  0  0  0  0
   79.6867   14.1400  -11.4895 C   0  0  0  0  0  0  0  0  0  0  0  0
   80.0221    9.5120  -13.5071 C   0  0  0  0  0  0  0  0  0  0  0  0
  1  5  2  0
  6  1  1  0
  2  3  1  0
  2  6  2  0
  3  4  2  0
  3 14  1  0
  4  5  1  0
  4 17  1  0
  5 18  1  0
  6  7  1  0
  7  8  2  0
  7 11  1  0
  8  9  1  0
  8 13  1  0
  9 10  1  0
 10 11  2  0
 11 12  1  0
 14 15  2  0
 15 16  1  0
 16 17  2  0
 18 19  2  0
 18 22  1  0
 19 20  1  0
 19 24  1  0
 20 21  1  0
 21 22  2  0
 22 23  1  0
M  END
$$$$
