
     RDKit          3D

 24 27  0  0  0  0  0  0  0  0999 V2000
   78.2325   11.2751  -10.8262 C   0  0  0  0  0  0  0  0  0  0  0  0
   76.1596   12.0889  -11.6186 C   0  0  0  0  0  0  0  0  0  0  0  0
   75.5074   11.1542  -10.8689 C   0  0  0  0  0  0  0  0  0  0  0  0
   76.2059   10.2619  -10.0834 C   0  0  0  0  0  0  0  0  0  0  0  0
   77.5842   10.3240  -10.0626 C   0  0  0  0  0  0  0  0  0  0  0  0
   77.5246   12.1619  -11.6076 C   0  0  0  0  0  0  0  0  0  0  0  0
   78.1709   13.1680  -12.4174 C   0  0  0  0  0  0  0  0  0  0  0  0
   77.8577   14.4927  -12.4552 C   0  0  0  0  0  0  0  0  0  0  0  0
   78.6817   15.0439  -13.3139 O   0  0  0  0  0  0  0  0  0  0  0  0
   79.4899   14.1600  -13.8179 N   0  0  0  0  0  0  0  0  0  0  0  0
   79.2171   12.9348  -13.2861 C   0  0  0  0  0  0  0  0  0  0  0  0
   79.9112   11.6535  -13.5950 C   0  0  0  0  0  0  0  0  0  0  0  0
   76.8082   15.2483  -11.7076 C   0  0  0  0  0  0  0  0  0  0  0  0
   74.1458   11.1207  -10.9129 N   0  0  0  0  0  0  0  0  0  0  0  0
   73.4359   10.2326  -10.2054 C   0  0  0  0  0  0  0  0  0  0  0  0
   74.0826    9.3175   -9.4035 C   0  0  0  0  0  0  0  0  0  0  0  0
   75.4717    9.3483   -9.3558 C   0  0  0  0  0  0  0  0  0  0  0  0
   78.3179    9.3787   -9.2308 C   0  0  0  0  0  0  0  0  0  0  0  0
   78.1972    9.2384   -7.8504 C   0  0  0  0  0  0  0  0  0  0  0  0
   79.0162    8.2984   -7.5125 O   0  0  0  0  0  0  0  0  0  0  0  0
   79.6558    7.8168   -8.5443 N   0  0  0  0  0  0  0  0  0  0  0  0
   79.2546    8.4633   -9.6642 C   0  0  0  0  0  0  0  0  0  0  0  0
   79.7147    8.2463  -11.0703 C   0  0  0  0  0  0  0  0  0  0  0  0
   77.2748   10.0624   -7.0267 C   0  0  0  0  0  0  0  0  0  0  0  0
  1  5  2  0
  6  1  1  0
  2  3  1  0
  2  6  2  0
  3  4  2  0
  3 14  1  0
  4  5  1  0
  4 17  1  0
  5 18  1  0
  6  7  1  0
  7  8  2  0
  7 11  1  0
  8  9  1  0
  8 13  1  0
  9 10  1  0
 10 11  2  0
 11 12  1  0
 14 15  2  0
 15 16  1  0
 16 17  2  0
 18 19  2  0
 18 22  1  0
 19 20  1  0
 19 24  1  0
 20 21  1  0
 21 22  2  0
 22 23  1  0
M  END
$$$$
