
     RDKit          3D

 24 27  0  0  0  0  0  0  0  0999 V2000
   75.8500    9.8424  -10.2168 C   0  0  0  0  0  0  0  0  0  0  0  0
   75.0308   11.8933  -11.0350 C   0  0  0  0  0  0  0  0  0  0  0  0
   76.2911   12.4582  -10.8946 C   0  0  0  0  0  0  0  0  0  0  0  0
   77.3485   11.7110  -10.4097 C   0  0  0  0  0  0  0  0  0  0  0  0
   77.1098   10.3787  -10.0679 C   0  0  0  0  0  0  0  0  0  0  0  0
   74.7857   10.5741  -10.6988 C   0  0  0  0  0  0  0  0  0  0  0  0
   73.4561   10.0325  -10.8633 C   0  0  0  0  0  0  0  0  0  0  0  0
   72.7918    9.0554  -10.1536 C   0  0  0  0  0  0  0  0  0  0  0  0
   71.5902    8.8854  -10.6603 O   0  0  0  0  0  0  0  0  0  0  0  0
   71.4466    9.6934  -11.6492 N   0  0  0  0  0  0  0  0  0  0  0  0
   72.5676   10.4399  -11.8354 C   0  0  0  0  0  0  0  0  0  0  0  0
   72.7312   11.4573  -12.8808 C   0  0  0  0  0  0  0  0  0  0  0  0
   73.3967    8.3417   -9.0028 C   0  0  0  0  0  0  0  0  0  0  0  0
   76.4712   13.7655  -11.2432 N   0  0  0  0  0  0  0  0  0  0  0  0
   77.6950   14.3013  -11.1030 C   0  0  0  0  0  0  0  0  0  0  0  0
   78.7811   13.5829  -10.6197 C   0  0  0  0  0  0  0  0  0  0  0  0
   78.6014   12.2826  -10.2731 C   0  0  0  0  0  0  0  0  0  0  0  0
   78.2327    9.6219   -9.5641 C   0  0  0  0  0  0  0  0  0  0  0  0
   79.2580    9.0984  -10.3202 C   0  0  0  0  0  0  0  0  0  0  0  0
   80.0513    8.4954   -9.4679 O   0  0  0  0  0  0  0  0  0  0  0  0
   79.6088    8.5983   -8.2492 N   0  0  0  0  0  0  0  0  0  0  0  0
   78.4613    9.3001   -8.2446 C   0  0  0  0  0  0  0  0  0  0  0  0
   77.6268    9.6450   -7.0414 C   0  0  0  0  0  0  0  0  0  0  0  0
   79.4604    9.1783  -11.7988 C   0  0  0  0  0  0  0  0  0  0  0  0
  1  5  2  0
  6  1  1  0
  2  3  1  0
  2  6  2  0
  3  4  2  0
  3 14  1  0
  4  5  1  0
  4 17  1  0
  5 18  1  0
  6  7  1  0
  7  8  2  0
  7 11  1  0
  8  9  1  0
 13  8  1  6
  9 10  1  0
 10 11  2  0
 12 11  1  6
 14 15  2  0
 15 16  1  0
 16 17  2  0
 18 19  2  0
 18 22  1  0
 19 20  1  0
 24 19  1  6
 20 21  1  0
 21 22  2  0
 23 22  1  6
M  END
$$$$
