
     RDKit          3D

 24 27  0  0  0  0  0  0  0  0999 V2000
   75.8242    9.7826  -10.4792 C   0  0  0  0  0  0  0  0  0  0  0  0
   77.6120   11.2979  -10.7878 C   0  0  0  0  0  0  0  0  0  0  0  0
   76.7832   12.1332  -11.4781 C   0  0  0  0  0  0  0  0  0  0  0  0
   75.4587   11.8086  -11.6819 C   0  0  0  0  0  0  0  0  0  0  0  0
   74.9748   10.6195  -11.1763 C   0  0  0  0  0  0  0  0  0  0  0  0
   77.1462   10.1167  -10.2813 C   0  0  0  0  0  0  0  0  0  0  0  0
   78.0606    9.2649   -9.5575 C   0  0  0  0  0  0  0  0  0  0  0  0
   77.8417    8.7053   -8.3355 C   0  0  0  0  0  0  0  0  0  0  0  0
   78.9171    8.0118   -8.0475 O   0  0  0  0  0  0  0  0  0  0  0  0
   79.7955    8.0960   -9.0014 N   0  0  0  0  0  0  0  0  0  0  0  0
   79.3104    8.8851  -10.0016 C   0  0  0  0  0  0  0  0  0  0  0  0
   80.0003    9.2376  -11.2739 C   0  0  0  0  0  0  0  0  0  0  0  0
   76.6525    8.8064   -7.4373 C   0  0  0  0  0  0  0  0  0  0  0  0
   77.2938   13.2995  -11.9637 N   0  0  0  0  0  0  0  0  0  0  0  0
   76.5427   14.1699  -12.6507 C   0  0  0  0  0  0  0  0  0  0  0  0
   75.2125   13.8962  -12.8837 C   0  0  0  0  0  0  0  0  0  0  0  0
   74.6877   12.7073  -12.3899 C   0  0  0  0  0  0  0  0  0  0  0  0
   73.5742   10.2811  -11.3944 C   0  0  0  0  0  0  0  0  0  0  0  0
   72.9197   10.2587  -12.6235 C   0  0  0  0  0  0  0  0  0  0  0  0
   71.7008    9.9113  -12.3745 O   0  0  0  0  0  0  0  0  0  0  0  0
   71.5044    9.7067  -11.0998 N   0  0  0  0  0  0  0  0  0  0  0  0
   72.6581    9.9259  -10.4259 C   0  0  0  0  0  0  0  0  0  0  0  0
   72.9040    9.8129   -8.9554 C   0  0  0  0  0  0  0  0  0  0  0  0
   73.5904   10.5881  -13.9081 C   0  0  0  0  0  0  0  0  0  0  0  0
  1  5  2  0
  6  1  1  0
  2  3  1  0
  2  6  2  0
  3  4  2  0
  3 14  1  0
  4  5  1  0
  4 17  1  0
  5 18  1  0
  6  7  1  0
  7  8  2  0
  7 11  1  0
  8  9  1  0
  8 13  1  0
  9 10  1  0
 10 11  2  0
 11 12  1  0
 14 15  2  0
 15 16  1  0
 16 17  2  0
 18 19  2  0
 18 22  1  0
 19 20  1  0
 19 24  1  0
 20 21  1  0
 21 22  2  0
 22 23  1  0
M  END
$$$$
