
     RDKit          3D

 24 27  0  0  0  0  0  0  0  0999 V2000
   75.7933    9.4565  -10.3069 C   0  0  0  0  0  0  0  0  0  0  0  0
   74.6570   11.3892  -11.0281 C   0  0  0  0  0  0  0  0  0  0  0  0
   75.7847   12.1555  -10.7670 C   0  0  0  0  0  0  0  0  0  0  0  0
   76.9346   11.5709  -10.2695 C   0  0  0  0  0  0  0  0  0  0  0  0
   76.9254   10.1940  -10.0395 C   0  0  0  0  0  0  0  0  0  0  0  0
   74.6394   10.0245  -10.8031 C   0  0  0  0  0  0  0  0  0  0  0  0
   73.4405    9.2708  -11.0910 C   0  0  0  0  0  0  0  0  0  0  0  0
   72.6699    9.2135  -12.2323 C   0  0  0  0  0  0  0  0  0  0  0  0
   71.6640    8.3880  -12.0415 O   0  0  0  0  0  0  0  0  0  0  0  0
   71.7450    7.9151  -10.8494 N   0  0  0  0  0  0  0  0  0  0  0  0
   72.8263    8.4197  -10.1973 C   0  0  0  0  0  0  0  0  0  0  0  0
   73.2047    8.0829   -8.8196 C   0  0  0  0  0  0  0  0  0  0  0  0
   72.9821    9.9900  -13.4566 C   0  0  0  0  0  0  0  0  0  0  0  0
   75.7414   13.4980  -11.0094 N   0  0  0  0  0  0  0  0  0  0  0  0
   76.8387   14.2293  -10.7529 C   0  0  0  0  0  0  0  0  0  0  0  0
   78.0115   13.6781  -10.2531 C   0  0  0  0  0  0  0  0  0  0  0  0
   78.0541   12.3427  -10.0122 C   0  0  0  0  0  0  0  0  0  0  0  0
   78.1403    9.6099   -9.5195 C   0  0  0  0  0  0  0  0  0  0  0  0
   79.2711    9.3156  -10.2488 C   0  0  0  0  0  0  0  0  0  0  0  0
   80.1206    8.8056   -9.3901 O   0  0  0  0  0  0  0  0  0  0  0  0
   79.6170    8.7572   -8.1920 N   0  0  0  0  0  0  0  0  0  0  0  0
   78.3663    9.2519   -8.2090 C   0  0  0  0  0  0  0  0  0  0  0  0
   77.4357    9.3758   -7.0335 C   0  0  0  0  0  0  0  0  0  0  0  0
   79.5176    9.5188  -11.7088 C   0  0  0  0  0  0  0  0  0  0  0  0
  1  5  2  0
  6  1  1  0
  2  3  1  0
  2  6  2  0
  3  4  2  0
  3 14  1  0
  4  5  1  0
  4 17  1  0
  5 18  1  0
  6  7  1  0
  7  8  2  0
  7 11  1  0
  8  9  1  0
 13  8  1  6
  9 10  1  0
 10 11  2  0
 12 11  1  6
 14 15  2  0
 15 16  1  0
 16 17  2  0
 18 19  2  0
 18 22  1  0
 19 20  1  0
 24 19  1  6
 20 21  1  0
 21 22  2  0
 23 22  1  6
M  END
$$$$
