
     RDKit          3D

 24 27  0  0  0  0  0  0  0  0999 V2000
   78.2199   11.3534  -10.5656 C   0  0  0  0  0  0  0  0  0  0  0  0
   76.2859   10.1078  -10.0222 C   0  0  0  0  0  0  0  0  0  0  0  0
   75.5160   11.0132  -10.6920 C   0  0  0  0  0  0  0  0  0  0  0  0
   76.0841   12.1063  -11.3114 C   0  0  0  0  0  0  0  0  0  0  0  0
   77.4518   12.2773  -11.2469 C   0  0  0  0  0  0  0  0  0  0  0  0
   77.6420   10.2646   -9.9501 C   0  0  0  0  0  0  0  0  0  0  0  0
   78.4157    9.2804   -9.2301 C   0  0  0  0  0  0  0  0  0  0  0  0
   79.4886    8.5929   -9.7103 C   0  0  0  0  0  0  0  0  0  0  0  0
   79.8906    7.8081   -8.7394 O   0  0  0  0  0  0  0  0  0  0  0  0
   79.1468    7.9538   -7.6839 N   0  0  0  0  0  0  0  0  0  0  0  0
   78.1807    8.8836   -7.9298 C   0  0  0  0  0  0  0  0  0  0  0  0
   77.1248    9.3441   -6.9854 C   0  0  0  0  0  0  0  0  0  0  0  0
   80.1411    8.6558  -11.0526 C   0  0  0  0  0  0  0  0  0  0  0  0
   74.1688   10.8139  -10.7361 N   0  0  0  0  0  0  0  0  0  0  0  0
   73.3483   11.6586  -11.3739 C   0  0  0  0  0  0  0  0  0  0  0  0
   73.8621   12.7676  -12.0102 C   0  0  0  0  0  0  0  0  0  0  0  0
   75.2362   12.9746  -11.9675 C   0  0  0  0  0  0  0  0  0  0  0  0
   78.0472   13.4342  -11.9032 C   0  0  0  0  0  0  0  0  0  0  0  0
   78.9227   13.4000  -12.9857 C   0  0  0  0  0  0  0  0  0  0  0  0
   79.2084   14.6306  -13.2549 O   0  0  0  0  0  0  0  0  0  0  0  0
   78.6004   15.4585  -12.4484 N   0  0  0  0  0  0  0  0  0  0  0  0
   77.8480   14.7575  -11.5676 C   0  0  0  0  0  0  0  0  0  0  0  0
   76.9847   15.2847  -10.4665 C   0  0  0  0  0  0  0  0  0  0  0  0
   79.3735   12.1378  -13.6276 C   0  0  0  0  0  0  0  0  0  0  0  0
  1  5  2  0
  6  1  1  0
  2  3  1  0
  2  6  2  0
  3  4  2  0
  3 14  1  0
  4  5  1  0
  4 17  1  0
  5 18  1  0
  6  7  1  0
  7  8  2  0
  7 11  1  0
  8  9  1  0
  8 13  1  0
  9 10  1  0
 10 11  2  0
 11 12  1  0
 14 15  2  0
 15 16  1  0
 16 17  2  0
 18 19  2  0
 18 22  1  0
 19 20  1  0
 19 24  1  0
 20 21  1  0
 21 22  2  0
 22 23  1  0
M  END
$$$$
