
     RDKit          3D

 24 27  0  0  0  0  0  0  0  0999 V2000
   78.9077   10.8437  -11.4392 C   0  0  0  0  0  0  0  0  0  0  0  0
   77.0606   11.1905  -10.0197 C   0  0  0  0  0  0  0  0  0  0  0  0
   76.6675   12.2772  -10.7889 C   0  0  0  0  0  0  0  0  0  0  0  0
   77.3994   12.6571  -11.8986 C   0  0  0  0  0  0  0  0  0  0  0  0
   78.5393   11.9177  -12.2189 C   0  0  0  0  0  0  0  0  0  0  0  0
   78.1886   10.4525  -10.3301 C   0  0  0  0  0  0  0  0  0  0  0  0
   78.5560    9.3296   -9.4979 C   0  0  0  0  0  0  0  0  0  0  0  0
   79.7326    8.6154   -9.4240 C   0  0  0  0  0  0  0  0  0  0  0  0
   79.6156    7.6700   -8.5173 O   0  0  0  0  0  0  0  0  0  0  0  0
   78.4377    7.7366   -8.0082 N   0  0  0  0  0  0  0  0  0  0  0  0
   77.7205    8.7462   -8.5696 C   0  0  0  0  0  0  0  0  0  0  0  0
   76.3390    9.0904   -8.2120 C   0  0  0  0  0  0  0  0  0  0  0  0
   80.9146    8.9181  -10.2670 C   0  0  0  0  0  0  0  0  0  0  0  0
   75.5448   12.9668  -10.4325 N   0  0  0  0  0  0  0  0  0  0  0  0
   75.1741   14.0166  -11.1843 C   0  0  0  0  0  0  0  0  0  0  0  0
   75.8833   14.4281  -12.3054 C   0  0  0  0  0  0  0  0  0  0  0  0
   77.0000   13.7418  -12.6595 C   0  0  0  0  0  0  0  0  0  0  0  0
   79.2848   12.3370  -13.3834 C   0  0  0  0  0  0  0  0  0  0  0  0
   80.4804   13.0207  -13.3735 C   0  0  0  0  0  0  0  0  0  0  0  0
   80.7968   13.1941  -14.6341 O   0  0  0  0  0  0  0  0  0  0  0  0
   79.9031   12.6783  -15.4257 N   0  0  0  0  0  0  0  0  0  0  0  0
   78.9213   12.1213  -14.6942 C   0  0  0  0  0  0  0  0  0  0  0  0
   77.6994   11.4195  -15.2209 C   0  0  0  0  0  0  0  0  0  0  0  0
   81.2791   13.4846  -12.1986 C   0  0  0  0  0  0  0  0  0  0  0  0
  1  5  2  0
  6  1  1  0
  2  3  1  0
  2  6  2  0
  3  4  2  0
  3 14  1  0
  4  5  1  0
  4 17  1  0
  5 18  1  0
  6  7  1  0
  7  8  2  0
  7 11  1  0
  8  9  1  0
 13  8  1  6
  9 10  1  0
 10 11  2  0
 12 11  1  6
 14 15  2  0
 15 16  1  0
 16 17  2  0
 18 19  2  0
 18 22  1  0
 19 20  1  0
 24 19  1  6
 20 21  1  0
 21 22  2  0
 23 22  1  6
M  END
$$$$
