
     RDKit          3D

 24 27  0  0  0  0  0  0  0  0999 V2000
   75.7715    9.8434  -10.1612 C   0  0  0  0  0  0  0  0  0  0  0  0
   75.1159   11.6808  -11.4958 C   0  0  0  0  0  0  0  0  0  0  0  0
   76.3957   12.1526  -11.4729 C   0  0  0  0  0  0  0  0  0  0  0  0
   77.3879   11.4781  -10.7933 C   0  0  0  0  0  0  0  0  0  0  0  0
   77.0711   10.3103  -10.1302 C   0  0  0  0  0  0  0  0  0  0  0  0
   74.7876   10.5252  -10.8434 C   0  0  0  0  0  0  0  0  0  0  0  0
   73.4199   10.0648  -10.8958 C   0  0  0  0  0  0  0  0  0  0  0  0
   72.3063   10.8481  -10.8650 C   0  0  0  0  0  0  0  0  0  0  0  0
   71.2794   10.0350  -10.9340 O   0  0  0  0  0  0  0  0  0  0  0  0
   71.6686    8.7974  -11.0059 N   0  0  0  0  0  0  0  0  0  0  0  0
   73.0307    8.7443  -10.9862 C   0  0  0  0  0  0  0  0  0  0  0  0
   73.8767    7.5199  -11.0495 C   0  0  0  0  0  0  0  0  0  0  0  0
   72.1853   12.3341  -10.7728 C   0  0  0  0  0  0  0  0  0  0  0  0
   76.6740   13.3087  -12.1383 N   0  0  0  0  0  0  0  0  0  0  0  0
   77.9058   13.8338  -12.1614 C   0  0  0  0  0  0  0  0  0  0  0  0
   78.9355   13.2014  -11.4991 C   0  0  0  0  0  0  0  0  0  0  0  0
   78.6557   12.0216  -10.8190 C   0  0  0  0  0  0  0  0  0  0  0  0
   78.1233    9.6013   -9.4134 C   0  0  0  0  0  0  0  0  0  0  0  0
   78.1660    9.3709   -8.0406 C   0  0  0  0  0  0  0  0  0  0  0  0
   79.2565    8.7145   -7.8208 O   0  0  0  0  0  0  0  0  0  0  0  0
   79.9241    8.4982   -8.9222 N   0  0  0  0  0  0  0  0  0  0  0  0
   79.2542    9.0380   -9.9677 C   0  0  0  0  0  0  0  0  0  0  0  0
   79.6400    9.0343  -11.4123 C   0  0  0  0  0  0  0  0  0  0  0  0
   77.1088    9.8347   -7.1048 C   0  0  0  0  0  0  0  0  0  0  0  0
  1  5  2  0
  6  1  1  0
  2  3  1  0
  2  6  2  0
  3  4  2  0
  3 14  1  0
  4  5  1  0
  4 17  1  0
  5 18  1  0
  6  7  1  0
  7  8  2  0
  7 11  1  0
  8  9  1  0
  8 13  1  0
  9 10  1  0
 10 11  2  0
 11 12  1  0
 14 15  2  0
 15 16  1  0
 16 17  2  0
 18 19  2  0
 18 22  1  0
 19 20  1  0
 19 24  1  0
 20 21  1  0
 21 22  2  0
 22 23  1  0
M  END
$$$$
