
     RDKit          3D

 24 27  0  0  0  0  0  0  0  0999 V2000
   78.2036   11.6299  -10.9163 C   0  0  0  0  0  0  0  0  0  0  0  0
   76.0317   12.1869  -11.6645 C   0  0  0  0  0  0  0  0  0  0  0  0
   75.5238   11.1227  -10.9785 C   0  0  0  0  0  0  0  0  0  0  0  0
   76.3468   10.2917  -10.2483 C   0  0  0  0  0  0  0  0  0  0  0  0
   77.7020   10.5492  -10.2175 C   0  0  0  0  0  0  0  0  0  0  0  0
   77.3723   12.4540  -11.6429 C   0  0  0  0  0  0  0  0  0  0  0  0
   77.8638   13.5916  -12.3843 C   0  0  0  0  0  0  0  0  0  0  0  0
   78.8254   14.4641  -11.9738 C   0  0  0  0  0  0  0  0  0  0  0  0
   78.9679   15.3399  -12.9397 O   0  0  0  0  0  0  0  0  0  0  0  0
   78.1646   15.0796  -13.9273 N   0  0  0  0  0  0  0  0  0  0  0  0
   77.4271   13.9705  -13.6370 C   0  0  0  0  0  0  0  0  0  0  0  0
   76.3914   13.3367  -14.5000 C   0  0  0  0  0  0  0  0  0  0  0  0
   79.6089   14.4940  -10.7023 C   0  0  0  0  0  0  0  0  0  0  0  0
   74.1809   10.8973  -11.0305 N   0  0  0  0  0  0  0  0  0  0  0  0
   73.6090    9.8735  -10.3839 C   0  0  0  0  0  0  0  0  0  0  0  0
   74.3840    9.0114   -9.6389 C   0  0  0  0  0  0  0  0  0  0  0  0
   75.7546    9.2379   -9.5833 C   0  0  0  0  0  0  0  0  0  0  0  0
   78.5675    9.6679   -9.4442 C   0  0  0  0  0  0  0  0  0  0  0  0
   79.6263    8.9148   -9.9456 C   0  0  0  0  0  0  0  0  0  0  0  0
   80.1248    8.2807   -8.9367 O   0  0  0  0  0  0  0  0  0  0  0  0
   79.4885    8.5525   -7.8291 N   0  0  0  0  0  0  0  0  0  0  0  0
   78.4887    9.4281   -8.0878 C   0  0  0  0  0  0  0  0  0  0  0  0
   77.5054   10.0165   -7.1274 C   0  0  0  0  0  0  0  0  0  0  0  0
   80.0181    8.9160  -11.3791 C   0  0  0  0  0  0  0  0  0  0  0  0
  1  5  2  0
  6  1  1  0
  2  3  1  0
  2  6  2  0
  3  4  2  0
  3 14  1  0
  4  5  1  0
  4 17  1  0
  5 18  1  0
  6  7  1  0
  7  8  2  0
  7 11  1  0
  8  9  1  0
  8 13  1  0
  9 10  1  0
 10 11  2  0
 11 12  1  0
 14 15  2  0
 15 16  1  0
 16 17  2  0
 18 19  2  0
 18 22  1  0
 19 20  1  0
 19 24  1  0
 20 21  1  0
 21 22  2  0
 22 23  1  0
M  END
$$$$
