
     RDKit          3D

 24 27  0  0  0  0  0  0  0  0999 V2000
   78.8572   10.1101  -10.7666 C   0  0  0  0  0  0  0  0  0  0  0  0
   77.1507   11.4026   -9.7849 C   0  0  0  0  0  0  0  0  0  0  0  0
   77.0349   12.1450  -10.9522 C   0  0  0  0  0  0  0  0  0  0  0  0
   77.8376   11.8715  -12.0441 C   0  0  0  0  0  0  0  0  0  0  0  0
   78.7625   10.8314  -11.9360 C   0  0  0  0  0  0  0  0  0  0  0  0
   78.0643   10.3705   -9.6694 C   0  0  0  0  0  0  0  0  0  0  0  0
   78.1462    9.6272   -8.4329 C   0  0  0  0  0  0  0  0  0  0  0  0
   79.2334    9.3133   -7.6457 C   0  0  0  0  0  0  0  0  0  0  0  0
   78.8344    8.6156   -6.6048 O   0  0  0  0  0  0  0  0  0  0  0  0
   77.5605    8.4648   -6.6789 N   0  0  0  0  0  0  0  0  0  0  0  0
   77.0621    9.0679   -7.7910 C   0  0  0  0  0  0  0  0  0  0  0  0
   75.6443    9.0819   -8.1709 C   0  0  0  0  0  0  0  0  0  0  0  0
   80.6174    9.7296   -7.9782 C   0  0  0  0  0  0  0  0  0  0  0  0
   76.1146   13.1516  -11.0060 N   0  0  0  0  0  0  0  0  0  0  0  0
   76.0116   13.8632  -12.1408 C   0  0  0  0  0  0  0  0  0  0  0  0
   76.8000   13.6182  -13.2578 C   0  0  0  0  0  0  0  0  0  0  0  0
   77.7153   12.6169  -13.2037 C   0  0  0  0  0  0  0  0  0  0  0  0
   79.5879   10.5678  -13.0922 C   0  0  0  0  0  0  0  0  0  0  0  0
   79.1848    9.9269  -14.2428 C   0  0  0  0  0  0  0  0  0  0  0  0
   80.2400    9.9040  -15.0208 O   0  0  0  0  0  0  0  0  0  0  0  0
   81.2627   10.4742  -14.4548 N   0  0  0  0  0  0  0  0  0  0  0  0
   80.9133   10.9145  -13.2327 C   0  0  0  0  0  0  0  0  0  0  0  0
   81.8005   11.6295  -12.2504 C   0  0  0  0  0  0  0  0  0  0  0  0
   77.8408    9.3630  -14.5735 C   0  0  0  0  0  0  0  0  0  0  0  0
  1  5  2  0
  6  1  1  0
  2  3  1  0
  2  6  2  0
  3  4  2  0
  3 14  1  0
  4  5  1  0
  4 17  1  0
  5 18  1  0
  6  7  1  0
  7  8  2  0
  7 11  1  0
  8  9  1  0
 13  8  1  6
  9 10  1  0
 10 11  2  0
 12 11  1  6
 14 15  2  0
 15 16  1  0
 16 17  2  0
 18 19  2  0
 18 22  1  0
 19 20  1  0
 24 19  1  6
 20 21  1  0
 21 22  2  0
 23 22  1  6
M  END
$$$$
