
     RDKit          3D

 24 27  0  0  0  0  0  0  0  0999 V2000
   78.5181   10.6630  -11.1362 C   0  0  0  0  0  0  0  0  0  0  0  0
   76.5085   10.2686   -9.9560 C   0  0  0  0  0  0  0  0  0  0  0  0
   75.8584   11.1482  -10.7713 C   0  0  0  0  0  0  0  0  0  0  0  0
   76.5264   11.8020  -11.7849 C   0  0  0  0  0  0  0  0  0  0  0  0
   77.8717   11.5558  -11.9686 C   0  0  0  0  0  0  0  0  0  0  0  0
   77.8410   10.0150  -10.1264 C   0  0  0  0  0  0  0  0  0  0  0  0
   78.4863    9.0761   -9.2389 C   0  0  0  0  0  0  0  0  0  0  0  0
   79.5139    8.2423   -9.5602 C   0  0  0  0  0  0  0  0  0  0  0  0
   79.7958    7.5654   -8.4727 O   0  0  0  0  0  0  0  0  0  0  0  0
   79.0187    7.9148   -7.4916 N   0  0  0  0  0  0  0  0  0  0  0  0
   78.1542    8.8804   -7.9142 C   0  0  0  0  0  0  0  0  0  0  0  0
   77.1006    9.5517   -7.1029 C   0  0  0  0  0  0  0  0  0  0  0  0
   80.2329    8.0676  -10.8579 C   0  0  0  0  0  0  0  0  0  0  0  0
   74.5300   11.3679  -10.5621 N   0  0  0  0  0  0  0  0  0  0  0  0
   73.8242   12.2163  -11.3207 C   0  0  0  0  0  0  0  0  0  0  0  0
   74.4414   12.8967  -12.3479 C   0  0  0  0  0  0  0  0  0  0  0  0
   75.7967   12.6753  -12.5646 C   0  0  0  0  0  0  0  0  0  0  0  0
   78.5731   12.2494  -13.0413 C   0  0  0  0  0  0  0  0  0  0  0  0
   78.2330   12.2240  -14.3915 C   0  0  0  0  0  0  0  0  0  0  0  0
   79.1035   12.9637  -14.9946 O   0  0  0  0  0  0  0  0  0  0  0  0
   79.9753   13.4656  -14.1618 N   0  0  0  0  0  0  0  0  0  0  0  0
   79.6903   13.0475  -12.9059 C   0  0  0  0  0  0  0  0  0  0  0  0
   80.4157   13.3697  -11.6388 C   0  0  0  0  0  0  0  0  0  0  0  0
   77.0741   11.4613  -14.9242 C   0  0  0  0  0  0  0  0  0  0  0  0
  1  5  2  0
  6  1  1  0
  2  3  1  0
  2  6  2  0
  3  4  2  0
  3 14  1  0
  4  5  1  0
  4 17  1  0
  5 18  1  0
  6  7  1  0
  7  8  2  0
  7 11  1  0
  8  9  1  0
  8 13  1  0
  9 10  1  0
 10 11  2  0
 11 12  1  0
 14 15  2  0
 15 16  1  0
 16 17  2  0
 18 19  2  0
 18 22  1  0
 19 20  1  0
 19 24  1  0
 20 21  1  0
 21 22  2  0
 22 23  1  0
M  END
$$$$
