
     RDKit          3D

 24 27  0  0  0  0  0  0  0  0999 V2000
   76.2388    9.3732  -10.6687 C   0  0  0  0  0  0  0  0  0  0  0  0
   74.8875   11.0826  -11.5625 C   0  0  0  0  0  0  0  0  0  0  0  0
   75.5316   12.0165  -10.7625 C   0  0  0  0  0  0  0  0  0  0  0  0
   76.5429   11.6304   -9.9025 C   0  0  0  0  0  0  0  0  0  0  0  0
   76.8935   10.2796   -9.8646 C   0  0  0  0  0  0  0  0  0  0  0  0
   75.2287    9.7424  -11.5312 C   0  0  0  0  0  0  0  0  0  0  0  0
   74.5283    8.8092  -12.3837 C   0  0  0  0  0  0  0  0  0  0  0  0
   73.2353    8.3355  -12.3226 C   0  0  0  0  0  0  0  0  0  0  0  0
   73.0287    7.4955  -13.3132 O   0  0  0  0  0  0  0  0  0  0  0  0
   74.1093    7.4039  -14.0024 N   0  0  0  0  0  0  0  0  0  0  0  0
   75.0868    8.1938  -13.4834 C   0  0  0  0  0  0  0  0  0  0  0  0
   76.4419    8.3185  -14.0338 C   0  0  0  0  0  0  0  0  0  0  0  0
   72.2728    8.7499  -11.2733 C   0  0  0  0  0  0  0  0  0  0  0  0
   75.1506   13.3251  -10.8377 N   0  0  0  0  0  0  0  0  0  0  0  0
   75.7809   14.2198  -10.0588 C   0  0  0  0  0  0  0  0  0  0  0  0
   76.8008   13.8701   -9.1830 C   0  0  0  0  0  0  0  0  0  0  0  0
   77.1793   12.5684   -9.1087 C   0  0  0  0  0  0  0  0  0  0  0  0
   77.9534    9.9046   -8.9570 C   0  0  0  0  0  0  0  0  0  0  0  0
   77.8396    9.7810   -7.5900 C   0  0  0  0  0  0  0  0  0  0  0  0
   79.0296    9.4266   -7.1686 O   0  0  0  0  0  0  0  0  0  0  0  0
   79.8722    9.3194   -8.1535 N   0  0  0  0  0  0  0  0  0  0  0  0
   79.2512    9.6092   -9.3110 C   0  0  0  0  0  0  0  0  0  0  0  0
   79.8664    9.6041  -10.6838 C   0  0  0  0  0  0  0  0  0  0  0  0
   76.6351    9.9958   -6.7317 C   0  0  0  0  0  0  0  0  0  0  0  0
  1  5  2  0
  6  1  1  0
  2  3  1  0
  2  6  2  0
  3  4  2  0
  3 14  1  0
  4  5  1  0
  4 17  1  0
  5 18  1  0
  6  7  1  0
  7  8  2  0
  7 11  1  0
  8  9  1  0
 13  8  1  6
  9 10  1  0
 10 11  2  0
 12 11  1  6
 14 15  2  0
 15 16  1  0
 16 17  2  0
 18 19  2  0
 18 22  1  0
 19 20  1  0
 24 19  1  6
 20 21  1  0
 21 22  2  0
 23 22  1  6
M  END
$$$$
