
     RDKit          3D

 24 27  0  0  0  0  0  0  0  0999 V2000
   76.6386   10.7725  -10.2568 C   0  0  0  0  0  0  0  0  0  0  0  0
   76.6326   11.7829  -12.3937 C   0  0  0  0  0  0  0  0  0  0  0  0
   77.8974   11.3216  -12.6141 C   0  0  0  0  0  0  0  0  0  0  0  0
   78.5568   10.5766  -11.6594 C   0  0  0  0  0  0  0  0  0  0  0  0
   77.9192   10.2995  -10.4675 C   0  0  0  0  0  0  0  0  0  0  0  0
   75.9888   11.5160  -11.2176 C   0  0  0  0  0  0  0  0  0  0  0  0
   74.6507   12.0254  -11.0295 C   0  0  0  0  0  0  0  0  0  0  0  0
   73.5535   11.2954  -10.6862 C   0  0  0  0  0  0  0  0  0  0  0  0
   72.5519   12.1399  -10.6217 O   0  0  0  0  0  0  0  0  0  0  0  0
   72.9419   13.3477  -10.8999 N   0  0  0  0  0  0  0  0  0  0  0  0
   74.2778   13.3462  -11.1712 C   0  0  0  0  0  0  0  0  0  0  0  0
   75.1156   14.5228  -11.5353 C   0  0  0  0  0  0  0  0  0  0  0  0
   73.4250    9.8314  -10.4190 C   0  0  0  0  0  0  0  0  0  0  0  0
   78.4976   11.6136  -13.8021 N   0  0  0  0  0  0  0  0  0  0  0  0
   79.7368   11.1960  -14.0911 C   0  0  0  0  0  0  0  0  0  0  0  0
   80.4420   10.4480  -13.1735 C   0  0  0  0  0  0  0  0  0  0  0  0
   79.8331   10.1480  -11.9602 C   0  0  0  0  0  0  0  0  0  0  0  0
   78.6204    9.5118   -9.4618 C   0  0  0  0  0  0  0  0  0  0  0  0
   79.9958    9.5012   -9.2436 C   0  0  0  0  0  0  0  0  0  0  0  0
   80.1982    8.6765   -8.2703 O   0  0  0  0  0  0  0  0  0  0  0  0
   79.0832    8.1519   -7.8377 N   0  0  0  0  0  0  0  0  0  0  0  0
   78.0462    8.6441   -8.5559 C   0  0  0  0  0  0  0  0  0  0  0  0
   76.5918    8.3280   -8.4126 C   0  0  0  0  0  0  0  0  0  0  0  0
   80.9513   10.3190  -10.0353 C   0  0  0  0  0  0  0  0  0  0  0  0
  1  5  2  0
  6  1  1  0
  2  3  1  0
  2  6  2  0
  3  4  2  0
  3 14  1  0
  4  5  1  0
  4 17  1  0
  5 18  1  0
  6  7  1  0
  7  8  2  0
  7 11  1  0
  8  9  1  0
  8 13  1  0
  9 10  1  0
 10 11  2  0
 11 12  1  0
 14 15  2  0
 15 16  1  0
 16 17  2  0
 18 19  2  0
 18 22  1  0
 19 20  1  0
 19 24  1  0
 20 21  1  0
 21 22  2  0
 22 23  1  0
M  END
$$$$
