
     RDKit          3D

 24 27  0  0  0  0  0  0  0  0999 V2000
   78.4435   10.3924  -10.4265 C   0  0  0  0  0  0  0  0  0  0  0  0
   76.2018   10.5217   -9.6878 C   0  0  0  0  0  0  0  0  0  0  0  0
   75.8484   11.1098  -10.8670 C   0  0  0  0  0  0  0  0  0  0  0  0
   76.7866   11.3503  -11.8485 C   0  0  0  0  0  0  0  0  0  0  0  0
   78.0987   10.9870  -11.6246 C   0  0  0  0  0  0  0  0  0  0  0  0
   77.4980   10.1566   -9.4524 C   0  0  0  0  0  0  0  0  0  0  0  0
   77.8246    9.5372   -8.1894 C   0  0  0  0  0  0  0  0  0  0  0  0
   77.6773   10.0978   -6.9571 C   0  0  0  0  0  0  0  0  0  0  0  0
   78.0892    9.2029   -6.0912 O   0  0  0  0  0  0  0  0  0  0  0  0
   78.4846    8.1206   -6.6918 N   0  0  0  0  0  0  0  0  0  0  0  0
   78.3419    8.2670   -8.0396 C   0  0  0  0  0  0  0  0  0  0  0  0
   78.6784    7.2623   -9.0867 C   0  0  0  0  0  0  0  0  0  0  0  0
   77.1614   11.4470   -6.5765 C   0  0  0  0  0  0  0  0  0  0  0  0
   74.5440   11.4558  -11.0551 N   0  0  0  0  0  0  0  0  0  0  0  0
   74.1211   12.0365  -12.1854 C   0  0  0  0  0  0  0  0  0  0  0  0
   75.0159   12.3001  -13.1996 C   0  0  0  0  0  0  0  0  0  0  0  0
   76.3478   11.9486  -13.0116 C   0  0  0  0  0  0  0  0  0  0  0  0
   79.0863   11.2434  -12.6651 C   0  0  0  0  0  0  0  0  0  0  0  0
   79.8423   10.2814  -13.3304 C   0  0  0  0  0  0  0  0  0  0  0  0
   80.5872   10.9256  -14.1662 O   0  0  0  0  0  0  0  0  0  0  0  0
   80.3847   12.2143  -14.1047 N   0  0  0  0  0  0  0  0  0  0  0  0
   79.4421   12.4775  -13.1690 C   0  0  0  0  0  0  0  0  0  0  0  0
   78.8945   13.8069  -12.7587 C   0  0  0  0  0  0  0  0  0  0  0  0
   79.7323    8.8256  -13.0530 C   0  0  0  0  0  0  0  0  0  0  0  0
  1  5  2  0
  6  1  1  0
  2  3  1  0
  2  6  2  0
  3  4  2  0
  3 14  1  0
  4  5  1  0
  4 17  1  0
  5 18  1  0
  6  7  1  0
  7  8  2  0
  7 11  1  0
  8  9  1  0
  8 13  1  0
  9 10  1  0
 10 11  2  0
 11 12  1  0
 14 15  2  0
 15 16  1  0
 16 17  2  0
 18 19  2  0
 18 22  1  0
 19 20  1  0
 19 24  1  0
 20 21  1  0
 21 22  2  0
 22 23  1  0
M  END
$$$$
