
     RDKit          3D

 24 27  0  0  0  0  0  0  0  0999 V2000
   76.9464    9.7303  -10.0842 C   0  0  0  0  0  0  0  0  0  0  0  0
   75.3295   11.1737  -11.0272 C   0  0  0  0  0  0  0  0  0  0  0  0
   76.3003   11.7680  -11.7792 C   0  0  0  0  0  0  0  0  0  0  0  0
   77.6131   11.3543  -11.6976 C   0  0  0  0  0  0  0  0  0  0  0  0
   77.9387   10.3236  -10.8400 C   0  0  0  0  0  0  0  0  0  0  0  0
   75.6377   10.1515  -10.1734 C   0  0  0  0  0  0  0  0  0  0  0  0
   74.5765    9.5532   -9.3978 C   0  0  0  0  0  0  0  0  0  0  0  0
   74.6783    9.0846   -8.1233 C   0  0  0  0  0  0  0  0  0  0  0  0
   73.4919    8.6280   -7.8005 O   0  0  0  0  0  0  0  0  0  0  0  0
   72.6525    8.7764   -8.7813 N   0  0  0  0  0  0  0  0  0  0  0  0
   73.2826    9.3640   -9.8377 C   0  0  0  0  0  0  0  0  0  0  0  0
   72.6805    9.7100  -11.1556 C   0  0  0  0  0  0  0  0  0  0  0  0
   75.8576    9.0561   -7.2069 C   0  0  0  0  0  0  0  0  0  0  0  0
   75.9440   12.7830  -12.6157 N   0  0  0  0  0  0  0  0  0  0  0  0
   76.8401   13.4146  -13.3848 C   0  0  0  0  0  0  0  0  0  0  0  0
   78.1661   13.0421  -13.3434 C   0  0  0  0  0  0  0  0  0  0  0  0
   78.5337   12.0070  -12.4912 C   0  0  0  0  0  0  0  0  0  0  0  0
   79.3276    9.8900  -10.7576 C   0  0  0  0  0  0  0  0  0  0  0  0
   80.4480   10.7126  -10.8450 C   0  0  0  0  0  0  0  0  0  0  0  0
   81.4732    9.9362  -10.7241 O   0  0  0  0  0  0  0  0  0  0  0  0
   81.1220    8.6882  -10.5667 N   0  0  0  0  0  0  0  0  0  0  0  0
   79.7713    8.5959  -10.5794 C   0  0  0  0  0  0  0  0  0  0  0  0
   78.9284    7.3695  -10.4339 C   0  0  0  0  0  0  0  0  0  0  0  0
   80.3639   12.1835  -11.0397 C   0  0  0  0  0  0  0  0  0  0  0  0
  1  5  2  0
  6  1  1  0
  2  3  1  0
  2  6  2  0
  3  4  2  0
  3 14  1  0
  4  5  1  0
  4 17  1  0
  5 18  1  0
  6  7  1  0
  7  8  2  0
  7 11  1  0
  8  9  1  0
  8 13  1  0
  9 10  1  0
 10 11  2  0
 11 12  1  0
 14 15  2  0
 15 16  1  0
 16 17  2  0
 18 19  2  0
 18 22  1  0
 19 20  1  0
 19 24  1  0
 20 21  1  0
 21 22  2  0
 22 23  1  0
M  END
$$$$
