
     RDKit          3D

 24 27  0  0  0  0  0  0  0  0999 V2000
   77.9536   11.1652  -10.6055 C   0  0  0  0  0  0  0  0  0  0  0  0
   76.2422    9.7313   -9.8558 C   0  0  0  0  0  0  0  0  0  0  0  0
   75.2944   10.5237  -10.4890 C   0  0  0  0  0  0  0  0  0  0  0  0
   75.6746   11.6525  -11.1911 C   0  0  0  0  0  0  0  0  0  0  0  0
   77.0335   11.9680  -11.2425 C   0  0  0  0  0  0  0  0  0  0  0  0
   77.5906   10.0368   -9.9017 C   0  0  0  0  0  0  0  0  0  0  0  0
   78.5381    9.1801   -9.2260 C   0  0  0  0  0  0  0  0  0  0  0  0
   79.6617    8.5371   -9.6993 C   0  0  0  0  0  0  0  0  0  0  0  0
   80.2240    7.8601   -8.7221 O   0  0  0  0  0  0  0  0  0  0  0  0
   79.5292    8.0313   -7.6548 N   0  0  0  0  0  0  0  0  0  0  0  0
   78.4635    8.8418   -7.8918 C   0  0  0  0  0  0  0  0  0  0  0  0
   77.4721    9.2365   -6.8838 C   0  0  0  0  0  0  0  0  0  0  0  0
   80.1139    8.6346  -11.1084 C   0  0  0  0  0  0  0  0  0  0  0  0
   73.9784   10.1709  -10.4080 N   0  0  0  0  0  0  0  0  0  0  0  0
   73.0702   10.9452  -11.0248 C   0  0  0  0  0  0  0  0  0  0  0  0
   73.4135   12.0860  -11.7390 C   0  0  0  0  0  0  0  0  0  0  0  0
   74.7227   12.4364  -11.8192 C   0  0  0  0  0  0  0  0  0  0  0  0
   77.4019   13.1527  -11.9829 C   0  0  0  0  0  0  0  0  0  0  0  0
   77.5341   14.4212  -11.4628 C   0  0  0  0  0  0  0  0  0  0  0  0
   77.8778   15.1819  -12.4740 O   0  0  0  0  0  0  0  0  0  0  0  0
   77.9708   14.4975  -13.5760 N   0  0  0  0  0  0  0  0  0  0  0  0
   77.6814   13.2070  -13.3304 C   0  0  0  0  0  0  0  0  0  0  0  0
   77.6726   12.0844  -14.3317 C   0  0  0  0  0  0  0  0  0  0  0  0
   77.3367   14.8757  -10.0528 C   0  0  0  0  0  0  0  0  0  0  0  0
  1  5  2  0
  6  1  1  0
  2  3  1  0
  2  6  2  0
  3  4  2  0
  3 14  1  0
  4  5  1  0
  4 17  1  0
  5 18  1  0
  6  7  1  0
  7  8  2  0
  7 11  1  0
  8  9  1  0
 13  8  1  6
  9 10  1  0
 10 11  2  0
 12 11  1  6
 14 15  2  0
 15 16  1  0
 16 17  2  0
 18 19  2  0
 18 22  1  0
 19 20  1  0
 24 19  1  6
 20 21  1  0
 21 22  2  0
 23 22  1  6
M  END
$$$$
