
     RDKit          3D

 24 27  0  0  0  0  0  0  0  0999 V2000
   76.4069   10.5612  -10.4342 C   0  0  0  0  0  0  0  0  0  0  0  0
   76.2918   11.6304  -12.5391 C   0  0  0  0  0  0  0  0  0  0  0  0
   77.5843   11.2732  -12.7899 C   0  0  0  0  0  0  0  0  0  0  0  0
   78.3127   10.5529  -11.8670 C   0  0  0  0  0  0  0  0  0  0  0  0
   77.7162   10.1933  -10.6758 C   0  0  0  0  0  0  0  0  0  0  0  0
   75.6881   11.2810  -11.3634 C   0  0  0  0  0  0  0  0  0  0  0  0
   74.3183   11.6813  -11.1425 C   0  0  0  0  0  0  0  0  0  0  0  0
   73.8402   12.9563  -11.1624 C   0  0  0  0  0  0  0  0  0  0  0  0
   72.5546   12.8738  -10.9159 O   0  0  0  0  0  0  0  0  0  0  0  0
   72.1914   11.6383  -10.7427 N   0  0  0  0  0  0  0  0  0  0  0  0
   73.2740   10.8204  -10.8745 C   0  0  0  0  0  0  0  0  0  0  0  0
   73.2910    9.3360  -10.7508 C   0  0  0  0  0  0  0  0  0  0  0  0
   74.5590   14.2428  -11.4062 C   0  0  0  0  0  0  0  0  0  0  0  0
   78.1425   11.6447  -13.9762 N   0  0  0  0  0  0  0  0  0  0  0  0
   79.4051   11.3312  -14.2939 C   0  0  0  0  0  0  0  0  0  0  0  0
   80.1788   10.6125  -13.4086 C   0  0  0  0  0  0  0  0  0  0  0  0
   79.6130   10.2316  -12.1972 C   0  0  0  0  0  0  0  0  0  0  0  0
   78.4903    9.4321   -9.7038 C   0  0  0  0  0  0  0  0  0  0  0  0
   79.8740    9.2741   -9.7028 C   0  0  0  0  0  0  0  0  0  0  0  0
   80.1498    8.5346   -8.6803 O   0  0  0  0  0  0  0  0  0  0  0  0
   79.0749    8.1989   -8.0190 N   0  0  0  0  0  0  0  0  0  0  0  0
   77.9891    8.7393   -8.6210 C   0  0  0  0  0  0  0  0  0  0  0  0
   76.5547    8.6217   -8.2158 C   0  0  0  0  0  0  0  0  0  0  0  0
   80.7627    9.8823  -10.7269 C   0  0  0  0  0  0  0  0  0  0  0  0
  1  5  2  0
  6  1  1  0
  2  3  1  0
  2  6  2  0
  3  4  2  0
  3 14  1  0
  4  5  1  0
  4 17  1  0
  5 18  1  0
  6  7  1  0
  7  8  2  0
  7 11  1  0
  8  9  1  0
  8 13  1  0
  9 10  1  0
 10 11  2  0
 11 12  1  0
 14 15  2  0
 15 16  1  0
 16 17  2  0
 18 19  2  0
 18 22  1  0
 19 20  1  0
 19 24  1  0
 20 21  1  0
 21 22  2  0
 22 23  1  0
M  END
$$$$
