
     RDKit          3D

 24 27  0  0  0  0  0  0  0  0999 V2000
   78.1876   11.0221  -10.9059 C   0  0  0  0  0  0  0  0  0  0  0  0
   76.3338    9.9916   -9.8821 C   0  0  0  0  0  0  0  0  0  0  0  0
   75.4769   10.8447  -10.5641 C   0  0  0  0  0  0  0  0  0  0  0  0
   75.9754   11.8008  -11.4294 C   0  0  0  0  0  0  0  0  0  0  0  0
   77.3593   11.8804  -11.5944 C   0  0  0  0  0  0  0  0  0  0  0  0
   77.7061   10.0637  -10.0398 C   0  0  0  0  0  0  0  0  0  0  0  0
   78.5559    9.1529   -9.3073 C   0  0  0  0  0  0  0  0  0  0  0  0
   79.6601    8.4345   -9.7127 C   0  0  0  0  0  0  0  0  0  0  0  0
   80.1208    7.7305   -8.7019 O   0  0  0  0  0  0  0  0  0  0  0  0
   79.3791    7.9551   -7.6768 N   0  0  0  0  0  0  0  0  0  0  0  0
   78.3838    8.8311   -7.9780 C   0  0  0  0  0  0  0  0  0  0  0  0
   77.3646    9.2975   -7.0300 C   0  0  0  0  0  0  0  0  0  0  0  0
   80.1970    8.4910  -11.0940 C   0  0  0  0  0  0  0  0  0  0  0  0
   74.1316   10.7252  -10.3671 N   0  0  0  0  0  0  0  0  0  0  0  0
   73.3122   11.5562  -11.0325 C   0  0  0  0  0  0  0  0  0  0  0  0
   73.7753   12.5286  -11.9095 C   0  0  0  0  0  0  0  0  0  0  0  0
   75.1136   12.6470  -12.1050 C   0  0  0  0  0  0  0  0  0  0  0  0
   77.8522   12.8885  -12.5046 C   0  0  0  0  0  0  0  0  0  0  0  0
   77.6649   14.2476  -12.3824 C   0  0  0  0  0  0  0  0  0  0  0  0
   78.2733   14.7807  -13.4143 O   0  0  0  0  0  0  0  0  0  0  0  0
   78.8218   13.8725  -14.1665 N   0  0  0  0  0  0  0  0  0  0  0  0
   78.5904   12.6550  -13.6436 C   0  0  0  0  0  0  0  0  0  0  0  0
   79.0508   11.3369  -14.2038 C   0  0  0  0  0  0  0  0  0  0  0  0
   76.9312   14.9952  -11.3163 C   0  0  0  0  0  0  0  0  0  0  0  0
  1  5  2  0
  6  1  1  0
  2  3  1  0
  2  6  2  0
  3  4  2  0
  3 14  1  0
  4  5  1  0
  4 17  1  0
  5 18  1  0
  6  7  1  0
  7  8  2  0
  7 11  1  0
  8  9  1  0
 13  8  1  6
  9 10  1  0
 10 11  2  0
 12 11  1  6
 14 15  2  0
 15 16  1  0
 16 17  2  0
 18 19  2  0
 18 22  1  0
 19 20  1  0
 24 19  1  6
 20 21  1  0
 21 22  2  0
 23 22  1  6
M  END
$$$$
