
     RDKit          3D

 24 27  0  0  0  0  0  0  0  0999 V2000
   78.4966   11.3455  -10.9287 C   0  0  0  0  0  0  0  0  0  0  0  0
   76.5668   10.2749  -10.1062 C   0  0  0  0  0  0  0  0  0  0  0  0
   75.7680   11.1343  -10.8483 C   0  0  0  0  0  0  0  0  0  0  0  0
   76.3346   12.1138  -11.6427 C   0  0  0  0  0  0  0  0  0  0  0  0
   77.7268   12.2105  -11.6745 C   0  0  0  0  0  0  0  0  0  0  0  0
   77.9470   10.3639  -10.1321 C   0  0  0  0  0  0  0  0  0  0  0  0
   78.7346    9.4458   -9.3415 C   0  0  0  0  0  0  0  0  0  0  0  0
   79.8695    8.7322   -9.6620 C   0  0  0  0  0  0  0  0  0  0  0  0
   80.2460    8.0177   -8.6241 O   0  0  0  0  0  0  0  0  0  0  0  0
   79.4220    8.2311   -7.6615 N   0  0  0  0  0  0  0  0  0  0  0  0
   78.4538    9.1098   -8.0345 C   0  0  0  0  0  0  0  0  0  0  0  0
   77.3592    9.5656   -7.1690 C   0  0  0  0  0  0  0  0  0  0  0  0
   80.5184    8.8036  -10.9936 C   0  0  0  0  0  0  0  0  0  0  0  0
   74.4116   10.9974  -10.7818 N   0  0  0  0  0  0  0  0  0  0  0  0
   73.6488   11.8346  -11.5043 C   0  0  0  0  0  0  0  0  0  0  0  0
   74.1811   12.8303  -12.3133 C   0  0  0  0  0  0  0  0  0  0  0  0
   75.5303   12.9660  -12.3790 C   0  0  0  0  0  0  0  0  0  0  0  0
   78.2914   13.2430  -12.5129 C   0  0  0  0  0  0  0  0  0  0  0  0
   78.6512   13.1024  -13.8350 C   0  0  0  0  0  0  0  0  0  0  0  0
   79.1135   14.2738  -14.2002 O   0  0  0  0  0  0  0  0  0  0  0  0
   79.0725   15.1293  -13.2214 N   0  0  0  0  0  0  0  0  0  0  0  0
   78.5620   14.5370  -12.1268 C   0  0  0  0  0  0  0  0  0  0  0  0
   78.3445   15.1749  -10.7819 C   0  0  0  0  0  0  0  0  0  0  0  0
   78.5521   11.8906  -14.7041 C   0  0  0  0  0  0  0  0  0  0  0  0
  1  5  2  0
  6  1  1  0
  2  3  1  0
  2  6  2  0
  3  4  2  0
  3 14  1  0
  4  5  1  0
  4 17  1  0
  5 18  1  0
  6  7  1  0
  7  8  2  0
  7 11  1  0
  8  9  1  0
 13  8  1  6
  9 10  1  0
 10 11  2  0
 12 11  1  6
 14 15  2  0
 15 16  1  0
 16 17  2  0
 18 19  2  0
 18 22  1  0
 19 20  1  0
 24 19  1  6
 20 21  1  0
 21 22  2  0
 23 22  1  6
M  END
$$$$
