
     RDKit          3D

 24 27  0  0  0  0  0  0  0  0999 V2000
   77.9771   11.0673  -10.6300 C   0  0  0  0  0  0  0  0  0  0  0  0
   76.1125    9.9217   -9.7365 C   0  0  0  0  0  0  0  0  0  0  0  0
   75.2760   10.7276  -10.4519 C   0  0  0  0  0  0  0  0  0  0  0  0
   75.7747   11.7191  -11.2702 C   0  0  0  0  0  0  0  0  0  0  0  0
   77.1410   11.8900  -11.3595 C   0  0  0  0  0  0  0  0  0  0  0  0
   77.4681   10.0796   -9.8153 C   0  0  0  0  0  0  0  0  0  0  0  0
   78.3138    9.2028   -9.0397 C   0  0  0  0  0  0  0  0  0  0  0  0
   79.3956    8.5154   -9.4995 C   0  0  0  0  0  0  0  0  0  0  0  0
   79.8718    7.8465   -8.4767 O   0  0  0  0  0  0  0  0  0  0  0  0
   79.1662    8.0648   -7.4076 N   0  0  0  0  0  0  0  0  0  0  0  0
   78.1503    8.9263   -7.6979 C   0  0  0  0  0  0  0  0  0  0  0  0
   77.1146    9.4342   -6.7555 C   0  0  0  0  0  0  0  0  0  0  0  0
   79.9890    8.4726  -10.8697 C   0  0  0  0  0  0  0  0  0  0  0  0
   73.9322   10.5316  -10.3404 N   0  0  0  0  0  0  0  0  0  0  0  0
   73.0487   11.2822  -11.0109 C   0  0  0  0  0  0  0  0  0  0  0  0
   73.4918   12.2873  -11.8430 C   0  0  0  0  0  0  0  0  0  0  0  0
   74.8621   12.4906  -11.9595 C   0  0  0  0  0  0  0  0  0  0  0  0
   77.6630   12.9392  -12.2257 C   0  0  0  0  0  0  0  0  0  0  0  0
   77.5104   14.3101  -12.0337 C   0  0  0  0  0  0  0  0  0  0  0  0
   78.1191   14.8804  -13.0199 O   0  0  0  0  0  0  0  0  0  0  0  0
   78.6516   14.0077  -13.8326 N   0  0  0  0  0  0  0  0  0  0  0  0
   78.3954   12.7573  -13.3807 C   0  0  0  0  0  0  0  0  0  0  0  0
   78.8076   11.4542  -13.9870 C   0  0  0  0  0  0  0  0  0  0  0  0
   76.7717   14.8929  -10.8834 C   0  0  0  0  0  0  0  0  0  0  0  0
  1  5  2  0
  6  1  1  0
  2  3  1  0
  2  6  2  0
  3  4  2  0
  3 14  1  0
  4  5  1  0
  4 17  1  0
  5 18  1  0
  6  7  1  0
  7  8  2  0
  7 11  1  0
  8  9  1  0
  8 13  1  0
  9 10  1  0
 10 11  2  0
 11 12  1  0
 14 15  2  0
 15 16  1  0
 16 17  2  0
 18 19  2  0
 18 22  1  0
 19 20  1  0
 19 24  1  0
 20 21  1  0
 21 22  2  0
 22 23  1  0
M  END
$$$$
