
     RDKit          3D

 24 27  0  0  0  0  0  0  0  0999 V2000
   77.9864   11.3086  -10.6759 C   0  0  0  0  0  0  0  0  0  0  0  0
   76.1833    9.9749   -9.9570 C   0  0  0  0  0  0  0  0  0  0  0  0
   75.2977   10.7925  -10.6459 C   0  0  0  0  0  0  0  0  0  0  0  0
   75.7560   11.8836  -11.3608 C   0  0  0  0  0  0  0  0  0  0  0  0
   77.1291   12.1353  -11.3677 C   0  0  0  0  0  0  0  0  0  0  0  0
   77.5452   10.2172   -9.9587 C   0  0  0  0  0  0  0  0  0  0  0  0
   78.4259    9.3366   -9.2258 C   0  0  0  0  0  0  0  0  0  0  0  0
   79.5344    8.6295   -9.6396 C   0  0  0  0  0  0  0  0  0  0  0  0
   80.0281    7.9545   -8.6246 O   0  0  0  0  0  0  0  0  0  0  0  0
   79.3036    8.1869   -7.5891 N   0  0  0  0  0  0  0  0  0  0  0  0
   78.2867    9.0390   -7.8870 C   0  0  0  0  0  0  0  0  0  0  0  0
   77.2789    9.5067   -6.9277 C   0  0  0  0  0  0  0  0  0  0  0  0
   80.0419    8.6672  -11.0325 C   0  0  0  0  0  0  0  0  0  0  0  0
   73.9646   10.5024  -10.6068 N   0  0  0  0  0  0  0  0  0  0  0  0
   73.1171   11.3006  -11.2772 C   0  0  0  0  0  0  0  0  0  0  0  0
   73.5396   12.4050  -12.0060 C   0  0  0  0  0  0  0  0  0  0  0  0
   74.8658   12.6930  -12.0445 C   0  0  0  0  0  0  0  0  0  0  0  0
   77.5797   13.2817  -12.1228 C   0  0  0  0  0  0  0  0  0  0  0  0
   78.2451   13.2438  -13.3281 C   0  0  0  0  0  0  0  0  0  0  0  0
   78.4598   14.4963  -13.6510 O   0  0  0  0  0  0  0  0  0  0  0  0
   77.9864   15.3086  -12.7524 N   0  0  0  0  0  0  0  0  0  0  0  0
   77.4174   14.6005  -11.7604 C   0  0  0  0  0  0  0  0  0  0  0  0
   76.7532   15.1557  -10.5300 C   0  0  0  0  0  0  0  0  0  0  0  0
   78.6540   12.0506  -14.1299 C   0  0  0  0  0  0  0  0  0  0  0  0
  1  5  2  0
  6  1  1  0
  2  3  1  0
  2  6  2  0
  3  4  2  0
  3 14  1  0
  4  5  1  0
  4 17  1  0
  5 18  1  0
  6  7  1  0
  7  8  2  0
  7 11  1  0
  8  9  1  0
 13  8  1  6
  9 10  1  0
 10 11  2  0
 12 11  1  6
 14 15  2  0
 15 16  1  0
 16 17  2  0
 18 19  2  0
 18 22  1  0
 19 20  1  0
 24 19  1  6
 20 21  1  0
 21 22  2  0
 23 22  1  6
M  END
$$$$
