
     RDKit          3D

 24 27  0  0  0  0  0  0  0  0999 V2000
   78.0166   11.6612  -10.4714 C   0  0  0  0  0  0  0  0  0  0  0  0
   76.2975   10.0552  -10.5818 C   0  0  0  0  0  0  0  0  0  0  0  0
   75.4703   10.9768  -11.2093 C   0  0  0  0  0  0  0  0  0  0  0  0
   75.9160   12.2585  -11.4740 C   0  0  0  0  0  0  0  0  0  0  0  0
   77.2163   12.5942  -11.0926 C   0  0  0  0  0  0  0  0  0  0  0  0
   77.5870   10.3796  -10.2006 C   0  0  0  0  0  0  0  0  0  0  0  0
   78.4088    9.3846   -9.5503 C   0  0  0  0  0  0  0  0  0  0  0  0
   79.5647    8.7624   -9.9706 C   0  0  0  0  0  0  0  0  0  0  0  0
   79.9704    7.9198   -9.0459 O   0  0  0  0  0  0  0  0  0  0  0  0
   79.1453    7.9658   -8.0619 N   0  0  0  0  0  0  0  0  0  0  0  0
   78.1466    8.8560   -8.3045 C   0  0  0  0  0  0  0  0  0  0  0  0
   77.0426    9.1467   -7.3817 C   0  0  0  0  0  0  0  0  0  0  0  0
   80.2033    9.0450  -11.2789 C   0  0  0  0  0  0  0  0  0  0  0  0
   74.2074   10.5978  -11.5618 N   0  0  0  0  0  0  0  0  0  0  0  0
   73.4161   11.4981  -12.1684 C   0  0  0  0  0  0  0  0  0  0  0  0
   73.8281   12.7941  -12.4508 C   0  0  0  0  0  0  0  0  0  0  0  0
   75.0845   13.1705  -12.0999 C   0  0  0  0  0  0  0  0  0  0  0  0
   77.6554   13.9400  -11.3816 C   0  0  0  0  0  0  0  0  0  0  0  0
   78.3508   14.3394  -12.5014 C   0  0  0  0  0  0  0  0  0  0  0  0
   78.5409   15.6286  -12.3563 O   0  0  0  0  0  0  0  0  0  0  0  0
   78.0248   16.0649  -11.2450 N   0  0  0  0  0  0  0  0  0  0  0  0
   77.4503   15.0439  -10.5840 C   0  0  0  0  0  0  0  0  0  0  0  0
   76.7422   15.1198   -9.2589 C   0  0  0  0  0  0  0  0  0  0  0  0
   78.8098   13.5115  -13.6580 C   0  0  0  0  0  0  0  0  0  0  0  0
  1  5  2  0
  6  1  1  0
  2  3  1  0
  2  6  2  0
  3  4  2  0
  3 14  1  0
  4  5  1  0
  4 17  1  0
  5 18  1  0
  6  7  1  0
  7  8  2  0
  7 11  1  0
  8  9  1  0
 13  8  1  6
  9 10  1  0
 10 11  2  0
 12 11  1  6
 14 15  2  0
 15 16  1  0
 16 17  2  0
 18 19  2  0
 18 22  1  0
 19 20  1  0
 24 19  1  6
 20 21  1  0
 21 22  2  0
 23 22  1  6
M  END
$$$$
