
     RDKit          3D

 24 27  0  0  0  0  0  0  0  0999 V2000
   78.1101   11.2687  -10.4522 C   0  0  0  0  0  0  0  0  0  0  0  0
   76.3561    9.8202   -9.8096 C   0  0  0  0  0  0  0  0  0  0  0  0
   75.4662   10.5969  -10.4922 C   0  0  0  0  0  0  0  0  0  0  0  0
   75.8819   11.7247  -11.1679 C   0  0  0  0  0  0  0  0  0  0  0  0
   77.2193   12.0635  -11.1470 C   0  0  0  0  0  0  0  0  0  0  0  0
   77.6840   10.1438   -9.7803 C   0  0  0  0  0  0  0  0  0  0  0  0
   78.5884    9.2916   -9.0447 C   0  0  0  0  0  0  0  0  0  0  0  0
   78.4671    8.9287   -7.7377 C   0  0  0  0  0  0  0  0  0  0  0  0
   79.4923    8.1553   -7.4712 O   0  0  0  0  0  0  0  0  0  0  0  0
   80.2486    8.0066   -8.5173 N   0  0  0  0  0  0  0  0  0  0  0  0
   79.7268    8.7091   -9.5626 C   0  0  0  0  0  0  0  0  0  0  0  0
   80.2851    8.8049  -10.9403 C   0  0  0  0  0  0  0  0  0  0  0  0
   77.4163    9.2897   -6.7393 C   0  0  0  0  0  0  0  0  0  0  0  0
   74.1530   10.2334  -10.4922 N   0  0  0  0  0  0  0  0  0  0  0  0
   73.2210   10.9451  -11.1391 C   0  0  0  0  0  0  0  0  0  0  0  0
   73.5806   12.0813  -11.8309 C   0  0  0  0  0  0  0  0  0  0  0  0
   74.9195   12.4556  -11.8334 C   0  0  0  0  0  0  0  0  0  0  0  0
   77.6535   13.2563  -11.8627 C   0  0  0  0  0  0  0  0  0  0  0  0
   78.0940   13.3033  -13.1831 C   0  0  0  0  0  0  0  0  0  0  0  0
   78.3794   14.5402  -13.4222 O   0  0  0  0  0  0  0  0  0  0  0  0
   78.1652   15.2986  -12.3808 N   0  0  0  0  0  0  0  0  0  0  0  0
   77.7033   14.5398  -11.3590 C   0  0  0  0  0  0  0  0  0  0  0  0
   77.3253   14.9789   -9.9806 C   0  0  0  0  0  0  0  0  0  0  0  0
   78.1789   12.1031  -14.0553 C   0  0  0  0  0  0  0  0  0  0  0  0
  1  5  2  0
  6  1  1  0
  2  3  1  0
  2  6  2  0
  3  4  2  0
  3 14  1  0
  4  5  1  0
  4 17  1  0
  5 18  1  0
  6  7  1  0
  7  8  2  0
  7 11  1  0
  8  9  1  0
  8 13  1  0
  9 10  1  0
 10 11  2  0
 11 12  1  0
 14 15  2  0
 15 16  1  0
 16 17  2  0
 18 19  2  0
 18 22  1  0
 19 20  1  0
 19 24  1  0
 20 21  1  0
 21 22  2  0
 22 23  1  0
M  END
$$$$
