
     RDKit          3D

 24 27  0  0  0  0  0  0  0  0999 V2000
   77.2754    9.6879  -10.1087 C   0  0  0  0  0  0  0  0  0  0  0  0
   76.8337   11.8935   -9.4111 C   0  0  0  0  0  0  0  0  0  0  0  0
   75.8017   11.9842  -10.3353 C   0  0  0  0  0  0  0  0  0  0  0  0
   75.4977   10.9167  -11.1595 C   0  0  0  0  0  0  0  0  0  0  0  0
   76.2569    9.7519  -11.0336 C   0  0  0  0  0  0  0  0  0  0  0  0
   77.5907   10.7433   -9.2799 C   0  0  0  0  0  0  0  0  0  0  0  0
   78.6544   10.6987   -8.3027 C   0  0  0  0  0  0  0  0  0  0  0  0
   80.0203   10.7975   -8.4590 C   0  0  0  0  0  0  0  0  0  0  0  0
   80.6043   10.7024   -7.2845 O   0  0  0  0  0  0  0  0  0  0  0  0
   79.6959   10.5490   -6.3886 N   0  0  0  0  0  0  0  0  0  0  0  0
   78.4567   10.5369   -6.9481 C   0  0  0  0  0  0  0  0  0  0  0  0
   77.2030   10.3793   -6.2010 C   0  0  0  0  0  0  0  0  0  0  0  0
   80.6701   10.9825   -9.7792 C   0  0  0  0  0  0  0  0  0  0  0  0
   75.0899   13.1458  -10.4182 N   0  0  0  0  0  0  0  0  0  0  0  0
   74.0936   13.2219  -11.3162 C   0  0  0  0  0  0  0  0  0  0  0  0
   73.7589   12.1713  -12.1608 C   0  0  0  0  0  0  0  0  0  0  0  0
   74.4673   11.0161  -12.0779 C   0  0  0  0  0  0  0  0  0  0  0  0
   75.9173    8.6525  -11.9074 C   0  0  0  0  0  0  0  0  0  0  0  0
   76.6596    8.2168  -12.9827 C   0  0  0  0  0  0  0  0  0  0  0  0
   75.9902    7.2083  -13.4867 O   0  0  0  0  0  0  0  0  0  0  0  0
   74.8977    6.9794  -12.8192 N   0  0  0  0  0  0  0  0  0  0  0  0
   74.7952    7.8602  -11.8077 C   0  0  0  0  0  0  0  0  0  0  0  0
   73.6824    7.9403  -10.7986 C   0  0  0  0  0  0  0  0  0  0  0  0
   77.9564    8.7519  -13.4981 C   0  0  0  0  0  0  0  0  0  0  0  0
  1  5  2  0
  6  1  1  0
  2  3  1  0
  2  6  2  0
  3  4  2  0
  3 14  1  0
  4  5  1  0
  4 17  1  0
  5 18  1  0
  6  7  1  0
  7  8  2  0
  7 11  1  0
  8  9  1  0
 13  8  1  6
  9 10  1  0
 10 11  2  0
 12 11  1  6
 14 15  2  0
 15 16  1  0
 16 17  2  0
 18 19  2  0
 18 22  1  0
 19 20  1  0
 24 19  1  6
 20 21  1  0
 21 22  2  0
 23 22  1  6
M  END
$$$$
