
     RDKit          3D

 24 27  0  0  0  0  0  0  0  0999 V2000
   75.6879    9.6333  -10.3330 C   0  0  0  0  0  0  0  0  0  0  0  0
   74.9574   11.5137  -11.5484 C   0  0  0  0  0  0  0  0  0  0  0  0
   76.2189   12.0823  -11.4360 C   0  0  0  0  0  0  0  0  0  0  0  0
   77.2320   11.4231  -10.7649 C   0  0  0  0  0  0  0  0  0  0  0  0
   76.9478   10.1753  -10.2073 C   0  0  0  0  0  0  0  0  0  0  0  0
   74.6674   10.2779  -10.9989 C   0  0  0  0  0  0  0  0  0  0  0  0
   73.3385    9.7287  -11.1432 C   0  0  0  0  0  0  0  0  0  0  0  0
   72.1036   10.3344  -11.0551 C   0  0  0  0  0  0  0  0  0  0  0  0
   71.1609    9.4401  -11.2579 O   0  0  0  0  0  0  0  0  0  0  0  0
   71.7175    8.3016  -11.4698 N   0  0  0  0  0  0  0  0  0  0  0  0
   73.0723    8.4035  -11.4139 C   0  0  0  0  0  0  0  0  0  0  0  0
   74.0042    7.2867  -11.6116 C   0  0  0  0  0  0  0  0  0  0  0  0
   71.9322   11.7800  -10.7719 C   0  0  0  0  0  0  0  0  0  0  0  0
   76.4446   13.3048  -11.9994 N   0  0  0  0  0  0  0  0  0  0  0  0
   77.6691   13.8451  -11.8843 C   0  0  0  0  0  0  0  0  0  0  0  0
   78.7116   13.2136  -11.2181 C   0  0  0  0  0  0  0  0  0  0  0  0
   78.4865   11.9976  -10.6579 C   0  0  0  0  0  0  0  0  0  0  0  0
   78.0251    9.5093   -9.5119 C   0  0  0  0  0  0  0  0  0  0  0  0
   79.1926    9.0516  -10.0815 C   0  0  0  0  0  0  0  0  0  0  0  0
   79.8785    8.5198   -9.0987 O   0  0  0  0  0  0  0  0  0  0  0  0
   79.2398    8.6069   -7.9691 N   0  0  0  0  0  0  0  0  0  0  0  0
   78.0604    9.2232   -8.1652 C   0  0  0  0  0  0  0  0  0  0  0  0
   77.0213    9.5230   -7.1194 C   0  0  0  0  0  0  0  0  0  0  0  0
   79.6240    9.1256  -11.5105 C   0  0  0  0  0  0  0  0  0  0  0  0
  1  5  2  0
  6  1  1  0
  2  3  1  0
  2  6  2  0
  3  4  2  0
  3 14  1  0
  4  5  1  0
  4 17  1  0
  5 18  1  0
  6  7  1  0
  7  8  2  0
  7 11  1  0
  8  9  1  0
 13  8  1  6
  9 10  1  0
 10 11  2  0
 12 11  1  6
 14 15  2  0
 15 16  1  0
 16 17  2  0
 18 19  2  0
 18 22  1  0
 19 20  1  0
 24 19  1  6
 20 21  1  0
 21 22  2  0
 23 22  1  6
M  END
$$$$
