
     RDKit          3D

 24 27  0  0  0  0  0  0  0  0999 V2000
   75.8782    9.6765  -10.5825 C   0  0  0  0  0  0  0  0  0  0  0  0
   75.0064   11.6898  -11.4387 C   0  0  0  0  0  0  0  0  0  0  0  0
   76.2425   12.3001  -11.2755 C   0  0  0  0  0  0  0  0  0  0  0  0
   77.3141   11.5951  -10.7597 C   0  0  0  0  0  0  0  0  0  0  0  0
   77.1146   10.2583  -10.4105 C   0  0  0  0  0  0  0  0  0  0  0  0
   74.8001   10.3659  -11.0953 C   0  0  0  0  0  0  0  0  0  0  0  0
   73.4944    9.7763  -11.2845 C   0  0  0  0  0  0  0  0  0  0  0  0
   72.5286   10.0229  -12.2365 C   0  0  0  0  0  0  0  0  0  0  0  0
   71.4903    9.2454  -12.0197 O   0  0  0  0  0  0  0  0  0  0  0  0
   71.7336    8.5181  -10.9887 N   0  0  0  0  0  0  0  0  0  0  0  0
   72.9632    8.7931  -10.4773 C   0  0  0  0  0  0  0  0  0  0  0  0
   73.5455    8.1374   -9.3002 C   0  0  0  0  0  0  0  0  0  0  0  0
   72.6968   11.0264  -13.3154 C   0  0  0  0  0  0  0  0  0  0  0  0
   76.3846   13.6098  -11.6326 N   0  0  0  0  0  0  0  0  0  0  0  0
   77.5854   14.1897  -11.4701 C   0  0  0  0  0  0  0  0  0  0  0  0
   78.6847   13.5143  -10.9555 C   0  0  0  0  0  0  0  0  0  0  0  0
   78.5428   12.2117  -10.6005 C   0  0  0  0  0  0  0  0  0  0  0  0
   78.2516    9.5460   -9.8741 C   0  0  0  0  0  0  0  0  0  0  0  0
   79.3515    9.1258  -10.5888 C   0  0  0  0  0  0  0  0  0  0  0  0
   80.1294    8.5288   -9.7184 O   0  0  0  0  0  0  0  0  0  0  0  0
   79.6095    8.5413   -8.5263 N   0  0  0  0  0  0  0  0  0  0  0  0
   78.4213    9.1707   -8.5599 C   0  0  0  0  0  0  0  0  0  0  0  0
   77.4963    9.4014   -7.3962 C   0  0  0  0  0  0  0  0  0  0  0  0
   79.6360    9.2944  -12.0463 C   0  0  0  0  0  0  0  0  0  0  0  0
  1  5  2  0
  6  1  1  0
  2  3  1  0
  2  6  2  0
  3  4  2  0
  3 14  1  0
  4  5  1  0
  4 17  1  0
  5 18  1  0
  6  7  1  0
  7  8  2  0
  7 11  1  0
  8  9  1  0
 13  8  1  6
  9 10  1  0
 10 11  2  0
 12 11  1  6
 14 15  2  0
 15 16  1  0
 16 17  2  0
 18 19  2  0
 18 22  1  0
 19 20  1  0
 24 19  1  6
 20 21  1  0
 21 22  2  0
 23 22  1  6
M  END
$$$$
