
     RDKit          3D

 24 27  0  0  0  0  0  0  0  0999 V2000
   76.5201    9.0877  -10.2759 C   0  0  0  0  0  0  0  0  0  0  0  0
   75.0807   10.6517  -11.3100 C   0  0  0  0  0  0  0  0  0  0  0  0
   75.9265   11.6620  -10.9566 C   0  0  0  0  0  0  0  0  0  0  0  0
   77.0856   11.4038  -10.2558 C   0  0  0  0  0  0  0  0  0  0  0  0
   77.3848   10.1014   -9.9121 C   0  0  0  0  0  0  0  0  0  0  0  0
   75.3644    9.3568  -10.9762 C   0  0  0  0  0  0  0  0  0  0  0  0
   74.4392    8.3209  -11.3719 C   0  0  0  0  0  0  0  0  0  0  0  0
   74.7215    7.2515  -12.1664 C   0  0  0  0  0  0  0  0  0  0  0  0
   73.6090    6.5650  -12.2728 O   0  0  0  0  0  0  0  0  0  0  0  0
   72.6484    7.1270  -11.6019 N   0  0  0  0  0  0  0  0  0  0  0  0
   73.1123    8.2583  -10.9993 C   0  0  0  0  0  0  0  0  0  0  0  0
   72.3351    9.1936  -10.1389 C   0  0  0  0  0  0  0  0  0  0  0  0
   76.0048    6.8620  -12.8241 C   0  0  0  0  0  0  0  0  0  0  0  0
   75.6006   12.9364  -11.3120 N   0  0  0  0  0  0  0  0  0  0  0  0
   76.3803   13.9799  -11.0011 C   0  0  0  0  0  0  0  0  0  0  0  0
   77.5505   13.7797  -10.3015 C   0  0  0  0  0  0  0  0  0  0  0  0
   77.8867   12.4809   -9.9370 C   0  0  0  0  0  0  0  0  0  0  0  0
   78.6110    9.8339   -9.1715 C   0  0  0  0  0  0  0  0  0  0  0  0
   78.7357    9.7862   -7.7852 C   0  0  0  0  0  0  0  0  0  0  0  0
   79.9774    9.5232   -7.5456 O   0  0  0  0  0  0  0  0  0  0  0  0
   80.6686    9.3962   -8.6464 N   0  0  0  0  0  0  0  0  0  0  0  0
   79.8550    9.5827   -9.7125 C   0  0  0  0  0  0  0  0  0  0  0  0
   80.2094    9.5314  -11.1642 C   0  0  0  0  0  0  0  0  0  0  0  0
   77.5960   10.0096   -6.8580 C   0  0  0  0  0  0  0  0  0  0  0  0
  1  5  2  0
  6  1  1  0
  2  3  1  0
  2  6  2  0
  3  4  2  0
  3 14  1  0
  4  5  1  0
  4 17  1  0
  5 18  1  0
  6  7  1  0
  7  8  2  0
  7 11  1  0
  8  9  1  0
  8 13  1  0
  9 10  1  0
 10 11  2  0
 11 12  1  0
 14 15  2  0
 15 16  1  0
 16 17  2  0
 18 19  2  0
 18 22  1  0
 19 20  1  0
 19 24  1  0
 20 21  1  0
 21 22  2  0
 22 23  1  0
M  END
$$$$
