
     RDKit          3D

 24 27  0  0  0  0  0  0  0  0999 V2000
   77.9724   11.3631  -10.6783 C   0  0  0  0  0  0  0  0  0  0  0  0
   76.2066    9.9367  -10.0503 C   0  0  0  0  0  0  0  0  0  0  0  0
   75.3038   10.7520  -10.7192 C   0  0  0  0  0  0  0  0  0  0  0  0
   75.7344   11.8887  -11.3780 C   0  0  0  0  0  0  0  0  0  0  0  0
   77.0975   12.1885  -11.3493 C   0  0  0  0  0  0  0  0  0  0  0  0
   77.5587   10.2265  -10.0168 C   0  0  0  0  0  0  0  0  0  0  0  0
   78.4582    9.3462   -9.3067 C   0  0  0  0  0  0  0  0  0  0  0  0
   79.5592    8.6438   -9.7475 C   0  0  0  0  0  0  0  0  0  0  0  0
   80.0775    7.9670   -8.7460 O   0  0  0  0  0  0  0  0  0  0  0  0
   79.3757    8.1939   -7.6938 N   0  0  0  0  0  0  0  0  0  0  0  0
   78.3499    9.0439   -7.9662 C   0  0  0  0  0  0  0  0  0  0  0  0
   77.3624    9.5055   -6.9830 C   0  0  0  0  0  0  0  0  0  0  0  0
   80.0353    8.6875  -11.1513 C   0  0  0  0  0  0  0  0  0  0  0  0
   73.9814   10.4138  -10.7169 N   0  0  0  0  0  0  0  0  0  0  0  0
   73.1171   11.2102  -11.3675 C   0  0  0  0  0  0  0  0  0  0  0  0
   73.5117   12.3596  -12.0403 C   0  0  0  0  0  0  0  0  0  0  0  0
   74.8272   12.6954  -12.0423 C   0  0  0  0  0  0  0  0  0  0  0  0
   77.5192   13.3820  -12.0460 C   0  0  0  0  0  0  0  0  0  0  0  0
   77.2012   14.6757  -11.6965 C   0  0  0  0  0  0  0  0  0  0  0  0
   77.7860   15.4355  -12.5909 O   0  0  0  0  0  0  0  0  0  0  0  0
   78.4390   14.7276  -13.4649 N   0  0  0  0  0  0  0  0  0  0  0  0
   78.3084   13.4208  -13.1740 C   0  0  0  0  0  0  0  0  0  0  0  0
   78.9069   12.2693  -13.9348 C   0  0  0  0  0  0  0  0  0  0  0  0
   76.3700   15.1541  -10.5502 C   0  0  0  0  0  0  0  0  0  0  0  0
  1  5  2  0
  6  1  1  0
  2  3  1  0
  2  6  2  0
  3  4  2  0
  3 14  1  0
  4  5  1  0
  4 17  1  0
  5 18  1  0
  6  7  1  0
  7  8  2  0
  7 11  1  0
  8  9  1  0
 13  8  1  6
  9 10  1  0
 10 11  2  0
 12 11  1  6
 14 15  2  0
 15 16  1  0
 16 17  2  0
 18 19  2  0
 18 22  1  0
 19 20  1  0
 24 19  1  6
 20 21  1  0
 21 22  2  0
 23 22  1  6
M  END
$$$$
