
     RDKit          3D

 24 27  0  0  0  0  0  0  0  0999 V2000
   77.7952   11.4279  -11.0781 C   0  0  0  0  0  0  0  0  0  0  0  0
   75.6153   12.0271  -11.7383 C   0  0  0  0  0  0  0  0  0  0  0  0
   75.1072   10.9075  -11.0936 C   0  0  0  0  0  0  0  0  0  0  0  0
   75.9485   10.0331  -10.4310 C   0  0  0  0  0  0  0  0  0  0  0  0
   77.3167   10.3102  -10.4308 C   0  0  0  0  0  0  0  0  0  0  0  0
   76.9695   12.3090  -11.7430 C   0  0  0  0  0  0  0  0  0  0  0  0
   77.4490   13.4873  -12.4285 C   0  0  0  0  0  0  0  0  0  0  0  0
   78.4745   14.3528  -12.1136 C   0  0  0  0  0  0  0  0  0  0  0  0
   78.5525   15.2925  -13.0304 O   0  0  0  0  0  0  0  0  0  0  0  0
   77.6406   15.0804  -13.9105 N   0  0  0  0  0  0  0  0  0  0  0  0
   76.9139   13.9733  -13.6023 C   0  0  0  0  0  0  0  0  0  0  0  0
   75.7973   13.4559  -14.4025 C   0  0  0  0  0  0  0  0  0  0  0  0
   79.3241   14.1929  -10.9086 C   0  0  0  0  0  0  0  0  0  0  0  0
   73.7614   10.6822  -11.1238 N   0  0  0  0  0  0  0  0  0  0  0  0
   73.2812    9.5957  -10.4965 C   0  0  0  0  0  0  0  0  0  0  0  0
   74.0945    8.6950   -9.8208 C   0  0  0  0  0  0  0  0  0  0  0  0
   75.4331    8.9195   -9.7911 C   0  0  0  0  0  0  0  0  0  0  0  0
   78.1722    9.3798   -9.7308 C   0  0  0  0  0  0  0  0  0  0  0  0
   79.1858    8.6354  -10.2925 C   0  0  0  0  0  0  0  0  0  0  0  0
   79.6952    7.9352   -9.3078 O   0  0  0  0  0  0  0  0  0  0  0  0
   79.0872    8.1793   -8.1843 N   0  0  0  0  0  0  0  0  0  0  0  0
   78.1137    9.0852   -8.3867 C   0  0  0  0  0  0  0  0  0  0  0  0
   77.1764    9.6402   -7.3491 C   0  0  0  0  0  0  0  0  0  0  0  0
   79.6399    8.6034  -11.7160 C   0  0  0  0  0  0  0  0  0  0  0  0
  1  5  2  0
  6  1  1  0
  2  3  1  0
  2  6  2  0
  3  4  2  0
  3 14  1  0
  4  5  1  0
  4 17  1  0
  5 18  1  0
  6  7  1  0
  7  8  2  0
  7 11  1  0
  8  9  1  0
 13  8  1  6
  9 10  1  0
 10 11  2  0
 12 11  1  6
 14 15  2  0
 15 16  1  0
 16 17  2  0
 18 19  2  0
 18 22  1  0
 19 20  1  0
 24 19  1  6
 20 21  1  0
 21 22  2  0
 23 22  1  6
M  END
$$$$
