
     RDKit          3D

 24 27  0  0  0  0  0  0  0  0999 V2000
   76.2204    9.1671  -10.2056 C   0  0  0  0  0  0  0  0  0  0  0  0
   74.6754   10.6550  -11.1987 C   0  0  0  0  0  0  0  0  0  0  0  0
   75.4544   11.7110  -10.8257 C   0  0  0  0  0  0  0  0  0  0  0  0
   76.6316   11.5146  -10.1352 C   0  0  0  0  0  0  0  0  0  0  0  0
   77.0181   10.2276   -9.8221 C   0  0  0  0  0  0  0  0  0  0  0  0
   75.0459    9.3746  -10.8953 C   0  0  0  0  0  0  0  0  0  0  0  0
   74.1892    8.2888  -11.3109 C   0  0  0  0  0  0  0  0  0  0  0  0
   74.5267    7.2776  -12.1581 C   0  0  0  0  0  0  0  0  0  0  0  0
   73.4658    6.5137  -12.2647 O   0  0  0  0  0  0  0  0  0  0  0  0
   72.4864    6.9732  -11.5449 N   0  0  0  0  0  0  0  0  0  0  0  0
   72.8822    8.1106  -10.9063 C   0  0  0  0  0  0  0  0  0  0  0  0
   72.0633    8.9481   -9.9860 C   0  0  0  0  0  0  0  0  0  0  0  0
   75.8155    7.0138  -12.8658 C   0  0  0  0  0  0  0  0  0  0  0  0
   75.0430   12.9687  -11.1510 N   0  0  0  0  0  0  0  0  0  0  0  0
   75.7536   14.0543  -10.8194 C   0  0  0  0  0  0  0  0  0  0  0  0
   76.9381   13.9165  -10.1289 C   0  0  0  0  0  0  0  0  0  0  0  0
   77.3613   12.6350   -9.7951 C   0  0  0  0  0  0  0  0  0  0  0  0
   78.2631   10.0254   -9.0923 C   0  0  0  0  0  0  0  0  0  0  0  0
   79.5363    9.9497   -9.6516 C   0  0  0  0  0  0  0  0  0  0  0  0
   80.3508    9.7664   -8.6659 O   0  0  0  0  0  0  0  0  0  0  0  0
   79.7247    9.7163   -7.5209 N   0  0  0  0  0  0  0  0  0  0  0  0
   78.3959    9.8746   -7.7274 C   0  0  0  0  0  0  0  0  0  0  0  0
   77.2989    9.8862   -6.7115 C   0  0  0  0  0  0  0  0  0  0  0  0
   79.7922   10.0697  -11.1106 C   0  0  0  0  0  0  0  0  0  0  0  0
  1  5  2  0
  6  1  1  0
  2  3  1  0
  2  6  2  0
  3  4  2  0
  3 14  1  0
  4  5  1  0
  4 17  1  0
  5 18  1  0
  6  7  1  0
  7  8  2  0
  7 11  1  0
  8  9  1  0
  8 13  1  0
  9 10  1  0
 10 11  2  0
 11 12  1  0
 14 15  2  0
 15 16  1  0
 16 17  2  0
 18 19  2  0
 18 22  1  0
 19 20  1  0
 19 24  1  0
 20 21  1  0
 21 22  2  0
 22 23  1  0
M  END
$$$$
