
     RDKit          3D

 24 27  0  0  0  0  0  0  0  0999 V2000
   78.0776   11.1561  -10.5873 C   0  0  0  0  0  0  0  0  0  0  0  0
   76.3127    9.8199   -9.7835 C   0  0  0  0  0  0  0  0  0  0  0  0
   75.3979   10.6067  -10.4700 C   0  0  0  0  0  0  0  0  0  0  0  0
   75.8220   11.6834  -11.2266 C   0  0  0  0  0  0  0  0  0  0  0  0
   77.1908   11.9523  -11.2778 C   0  0  0  0  0  0  0  0  0  0  0  0
   77.6706   10.0794   -9.8289 C   0  0  0  0  0  0  0  0  0  0  0  0
   78.5825    9.2307   -9.0966 C   0  0  0  0  0  0  0  0  0  0  0  0
   78.5877    8.8535   -7.7708 C   0  0  0  0  0  0  0  0  0  0  0  0
   79.6155    8.0653   -7.5430 O   0  0  0  0  0  0  0  0  0  0  0  0
   80.2664    7.9162   -8.6409 N   0  0  0  0  0  0  0  0  0  0  0  0
   79.6823    8.6125   -9.6522 C   0  0  0  0  0  0  0  0  0  0  0  0
   80.1763    8.6539  -11.0338 C   0  0  0  0  0  0  0  0  0  0  0  0
   77.5609    9.3032   -6.7999 C   0  0  0  0  0  0  0  0  0  0  0  0
   74.0703   10.3008  -10.3867 N   0  0  0  0  0  0  0  0  0  0  0  0
   73.1945   11.0693  -11.0553 C   0  0  0  0  0  0  0  0  0  0  0  0
   73.5822   12.1584  -11.8251 C   0  0  0  0  0  0  0  0  0  0  0  0
   74.9029   12.4622  -11.9076 C   0  0  0  0  0  0  0  0  0  0  0  0
   77.6055   13.0832  -12.0758 C   0  0  0  0  0  0  0  0  0  0  0  0
   78.3788   13.0278  -13.2142 C   0  0  0  0  0  0  0  0  0  0  0  0
   78.5106   14.2706  -13.6108 O   0  0  0  0  0  0  0  0  0  0  0  0
   77.8873   15.0928  -12.8189 N   0  0  0  0  0  0  0  0  0  0  0  0
   77.2949   14.4019  -11.8283 C   0  0  0  0  0  0  0  0  0  0  0  0
   76.4748   14.9729  -10.7038 C   0  0  0  0  0  0  0  0  0  0  0  0
   78.9629   11.8277  -13.8867 C   0  0  0  0  0  0  0  0  0  0  0  0
  1  5  2  0
  6  1  1  0
  2  3  1  0
  2  6  2  0
  3  4  2  0
  3 14  1  0
  4  5  1  0
  4 17  1  0
  5 18  1  0
  6  7  1  0
  7  8  2  0
  7 11  1  0
  8  9  1  0
 13  8  1  6
  9 10  1  0
 10 11  2  0
 12 11  1  6
 14 15  2  0
 15 16  1  0
 16 17  2  0
 18 19  2  0
 18 22  1  0
 19 20  1  0
 24 19  1  6
 20 21  1  0
 21 22  2  0
 23 22  1  6
M  END
$$$$
