
     RDKit          3D

 24 27  0  0  0  0  0  0  0  0999 V2000
   75.7950    9.6297  -10.3546 C   0  0  0  0  0  0  0  0  0  0  0  0
   75.0239   11.4405  -11.6637 C   0  0  0  0  0  0  0  0  0  0  0  0
   76.2816   11.9690  -11.6713 C   0  0  0  0  0  0  0  0  0  0  0  0
   77.3201   11.3373  -11.0204 C   0  0  0  0  0  0  0  0  0  0  0  0
   77.0728   10.1542  -10.3547 C   0  0  0  0  0  0  0  0  0  0  0  0
   74.7645   10.2692  -11.0083 C   0  0  0  0  0  0  0  0  0  0  0  0
   73.4177    9.7483  -11.0279 C   0  0  0  0  0  0  0  0  0  0  0  0
   72.4728    9.9980  -11.9762 C   0  0  0  0  0  0  0  0  0  0  0  0
   71.4005    9.3349  -11.6145 O   0  0  0  0  0  0  0  0  0  0  0  0
   71.6047    8.6868  -10.5070 N   0  0  0  0  0  0  0  0  0  0  0  0
   72.8788    8.9079  -10.0756 C   0  0  0  0  0  0  0  0  0  0  0  0
   73.5143    8.3520   -8.8484 C   0  0  0  0  0  0  0  0  0  0  0  0
   72.5536   10.8403  -13.2072 C   0  0  0  0  0  0  0  0  0  0  0  0
   76.4907   13.1387  -12.3383 N   0  0  0  0  0  0  0  0  0  0  0  0
   77.6968   13.7184  -12.3905 C   0  0  0  0  0  0  0  0  0  0  0  0
   78.7704   13.1306  -11.7577 C   0  0  0  0  0  0  0  0  0  0  0  0
   78.5612   11.9371  -11.0760 C   0  0  0  0  0  0  0  0  0  0  0  0
   78.1737    9.4906   -9.6683 C   0  0  0  0  0  0  0  0  0  0  0  0
   79.4116    9.1742  -10.2225 C   0  0  0  0  0  0  0  0  0  0  0  0
   80.0882    8.5990   -9.2845 O   0  0  0  0  0  0  0  0  0  0  0  0
   79.4048    8.5132   -8.1749 N   0  0  0  0  0  0  0  0  0  0  0  0
   78.1807    9.0626   -8.3567 C   0  0  0  0  0  0  0  0  0  0  0  0
   77.0682    9.1869   -7.3655 C   0  0  0  0  0  0  0  0  0  0  0  0
   79.7759    9.4844  -11.6295 C   0  0  0  0  0  0  0  0  0  0  0  0
  1  5  2  0
  6  1  1  0
  2  3  1  0
  2  6  2  0
  3  4  2  0
  3 14  1  0
  4  5  1  0
  4 17  1  0
  5 18  1  0
  6  7  1  0
  7  8  2  0
  7 11  1  0
  8  9  1  0
  8 13  1  0
  9 10  1  0
 10 11  2  0
 11 12  1  0
 14 15  2  0
 15 16  1  0
 16 17  2  0
 18 19  2  0
 18 22  1  0
 19 20  1  0
 19 24  1  0
 20 21  1  0
 21 22  2  0
 22 23  1  0
M  END
$$$$
