
     RDKit          3D

 24 27  0  0  0  0  0  0  0  0999 V2000
   76.7559    9.1422  -10.3779 C   0  0  0  0  0  0  0  0  0  0  0  0
   75.0373   10.3826  -11.4242 C   0  0  0  0  0  0  0  0  0  0  0  0
   75.7058   11.5393  -11.1483 C   0  0  0  0  0  0  0  0  0  0  0  0
   76.9126   11.5190  -10.4816 C   0  0  0  0  0  0  0  0  0  0  0  0
   77.4428   10.3061  -10.0924 C   0  0  0  0  0  0  0  0  0  0  0  0
   75.5506    9.1738  -11.0447 C   0  0  0  0  0  0  0  0  0  0  0  0
   74.8072    7.9762  -11.3586 C   0  0  0  0  0  0  0  0  0  0  0  0
   75.2489    6.9294  -12.1094 C   0  0  0  0  0  0  0  0  0  0  0  0
   74.2681    6.0593  -12.1453 O   0  0  0  0  0  0  0  0  0  0  0  0
   73.2423    6.4849  -11.4707 N   0  0  0  0  0  0  0  0  0  0  0  0
   73.5202    7.7092  -10.9394 C   0  0  0  0  0  0  0  0  0  0  0  0
   72.6156    8.5435  -10.0999 C   0  0  0  0  0  0  0  0  0  0  0  0
   76.5634    6.7289  -12.7899 C   0  0  0  0  0  0  0  0  0  0  0  0
   75.1538   12.7197  -11.5469 N   0  0  0  0  0  0  0  0  0  0  0  0
   75.7502   13.8956  -11.3123 C   0  0  0  0  0  0  0  0  0  0  0  0
   76.9578   13.9341  -10.6498 C   0  0  0  0  0  0  0  0  0  0  0  0
   77.5244   12.7320  -10.2415 C   0  0  0  0  0  0  0  0  0  0  0  0
   78.7184   10.2900   -9.3881 C   0  0  0  0  0  0  0  0  0  0  0  0
   79.9794   10.2809   -9.9793 C   0  0  0  0  0  0  0  0  0  0  0  0
   80.8308   10.2676   -9.0081 O   0  0  0  0  0  0  0  0  0  0  0  0
   80.2398   10.2673   -7.8435 N   0  0  0  0  0  0  0  0  0  0  0  0
   78.8975   10.2812   -8.0202 C   0  0  0  0  0  0  0  0  0  0  0  0
   77.8288   10.2860   -6.9745 C   0  0  0  0  0  0  0  0  0  0  0  0
   80.1878   10.2866  -11.4507 C   0  0  0  0  0  0  0  0  0  0  0  0
  1  5  2  0
  6  1  1  0
  2  3  1  0
  2  6  2  0
  3  4  2  0
  3 14  1  0
  4  5  1  0
  4 17  1  0
  5 18  1  0
  6  7  1  0
  7  8  2  0
  7 11  1  0
  8  9  1  0
  8 13  1  0
  9 10  1  0
 10 11  2  0
 11 12  1  0
 14 15  2  0
 15 16  1  0
 16 17  2  0
 18 19  2  0
 18 22  1  0
 19 20  1  0
 19 24  1  0
 20 21  1  0
 21 22  2  0
 22 23  1  0
M  END
$$$$
