
     RDKit          3D

 24 27  0  0  0  0  0  0  0  0999 V2000
   78.0291   11.6658  -10.9241 C   0  0  0  0  0  0  0  0  0  0  0  0
   75.8275   12.1583  -11.6296 C   0  0  0  0  0  0  0  0  0  0  0  0
   75.3733   11.0449  -10.9854 C   0  0  0  0  0  0  0  0  0  0  0  0
   76.2390   10.2206  -10.2981 C   0  0  0  0  0  0  0  0  0  0  0  0
   77.5820   10.5356  -10.2677 C   0  0  0  0  0  0  0  0  0  0  0  0
   77.1554   12.4826  -11.6080 C   0  0  0  0  0  0  0  0  0  0  0  0
   77.5895   13.6709  -12.3044 C   0  0  0  0  0  0  0  0  0  0  0  0
   78.5153   14.5674  -11.8645 C   0  0  0  0  0  0  0  0  0  0  0  0
   78.6103   15.4882  -12.7937 O   0  0  0  0  0  0  0  0  0  0  0  0
   77.8103   15.2338  -13.7855 N   0  0  0  0  0  0  0  0  0  0  0  0
   77.1251   14.0819  -13.5368 C   0  0  0  0  0  0  0  0  0  0  0  0
   76.1107   13.4392  -14.4182 C   0  0  0  0  0  0  0  0  0  0  0  0
   79.3083   14.5790  -10.5986 C   0  0  0  0  0  0  0  0  0  0  0  0
   74.0410   10.7633  -11.0356 N   0  0  0  0  0  0  0  0  0  0  0  0
   73.5206    9.6891  -10.4284 C   0  0  0  0  0  0  0  0  0  0  0  0
   74.3399    8.8312   -9.7273 C   0  0  0  0  0  0  0  0  0  0  0  0
   75.6998    9.1149   -9.6737 C   0  0  0  0  0  0  0  0  0  0  0  0
   78.4928    9.6613   -9.5400 C   0  0  0  0  0  0  0  0  0  0  0  0
   78.4657    9.4092   -8.1706 C   0  0  0  0  0  0  0  0  0  0  0  0
   79.4346    8.5874   -7.9379 O   0  0  0  0  0  0  0  0  0  0  0  0
   80.0867    8.2835   -9.0279 N   0  0  0  0  0  0  0  0  0  0  0  0
   79.5349    8.9351  -10.0786 C   0  0  0  0  0  0  0  0  0  0  0  0
   79.9502    8.8898  -11.5143 C   0  0  0  0  0  0  0  0  0  0  0  0
   77.4716   10.0208   -7.2506 C   0  0  0  0  0  0  0  0  0  0  0  0
  1  5  2  0
  6  1  1  0
  2  3  1  0
  2  6  2  0
  3  4  2  0
  3 14  1  0
  4  5  1  0
  4 17  1  0
  5 18  1  0
  6  7  1  0
  7  8  2  0
  7 11  1  0
  8  9  1  0
  8 13  1  0
  9 10  1  0
 10 11  2  0
 11 12  1  0
 14 15  2  0
 15 16  1  0
 16 17  2  0
 18 19  2  0
 18 22  1  0
 19 20  1  0
 19 24  1  0
 20 21  1  0
 21 22  2  0
 22 23  1  0
M  END
$$$$
