
     RDKit          3D

 24 27  0  0  0  0  0  0  0  0999 V2000
   76.5312    9.4054  -10.1205 C   0  0  0  0  0  0  0  0  0  0  0  0
   74.8053   10.6233  -11.1812 C   0  0  0  0  0  0  0  0  0  0  0  0
   75.5124   11.7765  -11.0049 C   0  0  0  0  0  0  0  0  0  0  0  0
   76.7428   11.7657  -10.3827 C   0  0  0  0  0  0  0  0  0  0  0  0
   77.2571   10.5659   -9.9358 C   0  0  0  0  0  0  0  0  0  0  0  0
   75.3025    9.4275  -10.7435 C   0  0  0  0  0  0  0  0  0  0  0  0
   74.5181    8.2331  -10.9524 C   0  0  0  0  0  0  0  0  0  0  0  0
   74.9092    7.1244  -11.6397 C   0  0  0  0  0  0  0  0  0  0  0  0
   73.9047    6.2827  -11.5877 O   0  0  0  0  0  0  0  0  0  0  0  0
   72.9109    6.7836  -10.9170 N   0  0  0  0  0  0  0  0  0  0  0  0
   73.2372    8.0332  -10.4805 C   0  0  0  0  0  0  0  0  0  0  0  0
   72.3804    8.9495   -9.6772 C   0  0  0  0  0  0  0  0  0  0  0  0
   76.1974    6.8392  -12.3400 C   0  0  0  0  0  0  0  0  0  0  0  0
   74.9750   12.9438  -11.4583 N   0  0  0  0  0  0  0  0  0  0  0  0
   75.6090   14.1155  -11.3218 C   0  0  0  0  0  0  0  0  0  0  0  0
   76.8416   14.1631  -10.7076 C   0  0  0  0  0  0  0  0  0  0  0  0
   77.3933   12.9744  -10.2436 C   0  0  0  0  0  0  0  0  0  0  0  0
   78.5579   10.5599   -9.2789 C   0  0  0  0  0  0  0  0  0  0  0  0
   79.7935   10.6848   -9.9093 C   0  0  0  0  0  0  0  0  0  0  0  0
   80.6813   10.6298   -8.9727 O   0  0  0  0  0  0  0  0  0  0  0  0
   80.1368   10.4810   -7.7950 N   0  0  0  0  0  0  0  0  0  0  0  0
   78.7900   10.4300   -7.9251 C   0  0  0  0  0  0  0  0  0  0  0  0
   77.7642   10.2687   -6.8494 C   0  0  0  0  0  0  0  0  0  0  0  0
   79.9441   10.8451  -11.3791 C   0  0  0  0  0  0  0  0  0  0  0  0
  1  5  2  0
  6  1  1  0
  2  3  1  0
  2  6  2  0
  3  4  2  0
  3 14  1  0
  4  5  1  0
  4 17  1  0
  5 18  1  0
  6  7  1  0
  7  8  2  0
  7 11  1  0
  8  9  1  0
  8 13  1  0
  9 10  1  0
 10 11  2  0
 11 12  1  0
 14 15  2  0
 15 16  1  0
 16 17  2  0
 18 19  2  0
 18 22  1  0
 19 20  1  0
 19 24  1  0
 20 21  1  0
 21 22  2  0
 22 23  1  0
M  END
$$$$
