
     RDKit          3D

 24 27  0  0  0  0  0  0  0  0999 V2000
   76.3212    8.9871  -10.3577 C   0  0  0  0  0  0  0  0  0  0  0  0
   74.7979   10.5322  -11.2736 C   0  0  0  0  0  0  0  0  0  0  0  0
   75.5661   11.5830  -10.7908 C   0  0  0  0  0  0  0  0  0  0  0  0
   76.7277   11.3393  -10.0817 C   0  0  0  0  0  0  0  0  0  0  0  0
   77.1011   10.0113   -9.8681 C   0  0  0  0  0  0  0  0  0  0  0  0
   75.1607    9.2136  -11.0664 C   0  0  0  0  0  0  0  0  0  0  0  0
   74.3272    8.1552  -11.5893 C   0  0  0  0  0  0  0  0  0  0  0  0
   74.5660    7.2369  -12.5890 C   0  0  0  0  0  0  0  0  0  0  0  0
   73.5165    6.4565  -12.7277 O   0  0  0  0  0  0  0  0  0  0  0  0
   72.6230    6.8199  -11.8786 N   0  0  0  0  0  0  0  0  0  0  0  0
   73.0569    7.8722  -11.1347 C   0  0  0  0  0  0  0  0  0  0  0  0
   72.2777    8.5266  -10.0767 C   0  0  0  0  0  0  0  0  0  0  0  0
   75.8353    7.1891  -13.3544 C   0  0  0  0  0  0  0  0  0  0  0  0
   75.1565   12.8633  -11.0272 N   0  0  0  0  0  0  0  0  0  0  0  0
   75.9078   13.8719  -10.5552 C   0  0  0  0  0  0  0  0  0  0  0  0
   77.0802   13.6669   -9.8391 C   0  0  0  0  0  0  0  0  0  0  0  0
   77.4871   12.3931   -9.6043 C   0  0  0  0  0  0  0  0  0  0  0  0
   78.3191    9.7863   -9.1242 C   0  0  0  0  0  0  0  0  0  0  0  0
   79.5836    9.6776   -9.6594 C   0  0  0  0  0  0  0  0  0  0  0  0
   80.3819    9.4793   -8.6383 O   0  0  0  0  0  0  0  0  0  0  0  0
   79.7246    9.4552   -7.5163 N   0  0  0  0  0  0  0  0  0  0  0  0
   78.4148    9.6438   -7.7577 C   0  0  0  0  0  0  0  0  0  0  0  0
   77.3121    9.6854   -6.7352 C   0  0  0  0  0  0  0  0  0  0  0  0
   79.9995    9.7619  -11.0924 C   0  0  0  0  0  0  0  0  0  0  0  0
  1  5  2  0
  6  1  1  0
  2  3  1  0
  2  6  2  0
  3  4  2  0
  3 14  1  0
  4  5  1  0
  4 17  1  0
  5 18  1  0
  6  7  1  0
  7  8  2  0
  7 11  1  0
  8  9  1  0
 13  8  1  6
  9 10  1  0
 10 11  2  0
 12 11  1  6
 14 15  2  0
 15 16  1  0
 16 17  2  0
 18 19  2  0
 18 22  1  0
 19 20  1  0
 24 19  1  6
 20 21  1  0
 21 22  2  0
 23 22  1  6
M  END
$$$$
