
     RDKit          3D

 24 27  0  0  0  0  0  0  0  0999 V2000
   75.6463    9.9206  -10.3538 C   0  0  0  0  0  0  0  0  0  0  0  0
   74.9994   11.6025  -11.8835 C   0  0  0  0  0  0  0  0  0  0  0  0
   76.2920   12.0327  -11.9553 C   0  0  0  0  0  0  0  0  0  0  0  0
   77.2865   11.4145  -11.2273 C   0  0  0  0  0  0  0  0  0  0  0  0
   76.9588   10.3464  -10.4176 C   0  0  0  0  0  0  0  0  0  0  0  0
   74.6603   10.5455  -11.0856 C   0  0  0  0  0  0  0  0  0  0  0  0
   73.2792   10.1258  -11.0419 C   0  0  0  0  0  0  0  0  0  0  0  0
   72.1924   10.9433  -10.9721 C   0  0  0  0  0  0  0  0  0  0  0  0
   71.1403   10.1602  -10.9532 O   0  0  0  0  0  0  0  0  0  0  0  0
   71.4890    8.9096  -11.0061 N   0  0  0  0  0  0  0  0  0  0  0  0
   72.8476    8.8155  -11.0647 C   0  0  0  0  0  0  0  0  0  0  0  0
   73.6530    7.5644  -11.1364 C   0  0  0  0  0  0  0  0  0  0  0  0
   72.1198   12.4345  -10.9230 C   0  0  0  0  0  0  0  0  0  0  0  0
   76.5807   13.0902  -12.7647 N   0  0  0  0  0  0  0  0  0  0  0  0
   77.8253   13.5693  -12.8873 C   0  0  0  0  0  0  0  0  0  0  0  0
   78.8579   12.9896  -12.1827 C   0  0  0  0  0  0  0  0  0  0  0  0
   78.5675   11.9104  -11.3558 C   0  0  0  0  0  0  0  0  0  0  0  0
   78.0135    9.6965   -9.6502 C   0  0  0  0  0  0  0  0  0  0  0  0
   79.2966    9.4051  -10.1067 C   0  0  0  0  0  0  0  0  0  0  0  0
   79.9069    8.8347   -9.1215 O   0  0  0  0  0  0  0  0  0  0  0  0
   79.1397    8.7294   -8.0699 N   0  0  0  0  0  0  0  0  0  0  0  0
   77.9244    9.2593   -8.3447 C   0  0  0  0  0  0  0  0  0  0  0  0
   76.7352    9.3578   -7.4438 C   0  0  0  0  0  0  0  0  0  0  0  0
   79.7653    9.7314  -11.4787 C   0  0  0  0  0  0  0  0  0  0  0  0
  1  5  2  0
  6  1  1  0
  2  3  1  0
  2  6  2  0
  3  4  2  0
  3 14  1  0
  4  5  1  0
  4 17  1  0
  5 18  1  0
  6  7  1  0
  7  8  2  0
  7 11  1  0
  8  9  1  0
  8 13  1  0
  9 10  1  0
 10 11  2  0
 11 12  1  0
 14 15  2  0
 15 16  1  0
 16 17  2  0
 18 19  2  0
 18 22  1  0
 19 20  1  0
 19 24  1  0
 20 21  1  0
 21 22  2  0
 22 23  1  0
M  END
$$$$
