
     RDKit          3D

 34 37  0  0  0  0  0  0  0  0999 V2000
   64.4429   45.1125   12.0775 C   0  0  0  0  0  0  0  0  0  0  0  0
   65.4801   45.5760   11.3360 O   0  0  0  0  0  0  0  0  0  0  0  0
   65.7200   46.8888   11.2120 C   0  0  0  0  0  0  0  0  0  0  0  0
   66.7112   47.2559   10.1335 C   0  0  1  0  0  0  0  0  0  0  0  0
   67.4430   48.4979   10.1754 C   0  0  1  0  0  0  0  0  0  0  0  0
   68.1626   47.2268   10.5517 C   0  0  0  0  0  0  0  0  0  0  0  0
   66.1913   46.6595    8.4951 S   0  0  0  0  0  0  0  0  0  0  0  0
   66.0092   48.1944    7.5282 C   0  0  0  0  0  0  0  0  0  0  0  0
   65.1109   48.2896    6.7508 N   0  0  0  0  0  0  0  0  0  0  0  0
   67.0340   49.1517    7.7804 N   0  0  0  0  0  0  0  0  0  0  0  0
   67.7872   49.2899    8.9932 C   0  0  1  0  0  0  0  0  0  0  0  0
   67.4975   50.7653    9.4151 C   0  0  0  0  0  0  0  0  0  0  0  0
   69.2585   49.3189    8.6301 C   0  0  0  0  0  0  0  0  0  0  0  0
   69.7038   48.9218    7.3689 C   0  0  0  0  0  0  0  0  0  0  0  0
   70.1210   49.6968    9.6191 C   0  0  0  0  0  0  0  0  0  0  0  0
   69.7964   49.9999   10.8940 F   0  0  0  0  0  0  0  0  0  0  0  0
   71.4945   49.6832    9.3087 C   0  0  0  0  0  0  0  0  0  0  0  0
   72.3651   50.0717   10.3123 F   0  0  0  0  0  0  0  0  0  0  0  0
   71.9160   49.3041    8.0991 C   0  0  0  0  0  0  0  0  0  0  0  0
   71.0230   48.8887    7.0460 C   0  0  0  0  0  0  0  0  0  0  0  0
   71.6226   48.3800    5.9154 N   0  0  0  0  0  0  0  0  0  0  0  0
   72.4192   47.2458    5.6689 C   0  0  0  0  0  0  0  0  0  0  0  0
   73.2607   46.9388    6.5375 O   0  0  0  0  0  0  0  0  0  0  0  0
   72.1742   46.4855    4.4293 C   0  0  0  0  0  0  0  0  0  0  0  0
   71.4143   46.9937    3.3988 C   0  0  0  0  0  0  0  0  0  0  0  0
   71.4820   46.4304    2.1838 N   0  0  0  0  0  0  0  0  0  0  0  0
   72.9350   45.4286    4.1243 N   0  0  0  0  0  0  0  0  0  0  0  0
   73.0192   44.8615    2.9644 C   0  0  0  0  0  0  0  0  0  0  0  0
   72.2351   45.3870    1.8563 C   0  0  0  0  0  0  0  0  0  0  0  0
   72.4631   44.7362    0.7800 O   0  0  0  0  0  0  0  0  0  0  0  0
   72.2662   44.2105   -0.3903 C   0  0  0  0  0  0  0  0  0  0  0  0
   71.8084   45.1537   -1.5380 C   0  0  0  0  0  0  0  0  0  0  0  0
   71.4571   45.8629   -2.3762 C   0  0  0  0  0  0  0  0  0  0  0  0
   64.5432   48.2907    5.9565 H   0  0  0  0  0  0  0  0  0  0  0  0
  1  2  1  6
  3  2  1  1
  3  4  1  0
  4  5  1  0
  6  4  1  1
  4  7  1  6
  5  6  1  6
  5 11  1  0
  7  8  1  0
  8  9  2  0
  8 10  1  0
 10 11  1  0
 12 11  1  6
 11 13  1  6
 13 14  2  0
 13 15  1  0
 14 20  1  0
 15 16  1  0
 15 17  2  0
 17 18  1  0
 17 19  1  0
 19 20  2  0
 20 21  1  0
 21 22  1  0
 22 23  2  0
 22 24  1  0
 24 25  2  0
 24 27  1  0
 25 26  1  0
 26 29  2  0
 27 28  2  0
 28 29  1  0
 29 30  1  0
 30 31  1  0
 31 32  1  6
 32 33  3  0
  9 34  1  0
M  END
$$$$
