
     RDKit          3D

 34 37  0  0  0  0  0  0  0  0999 V2000
   63.9757   45.6862   11.9635 C   0  0  0  0  0  0  0  0  0  0  0  0
   64.8564   46.1536   11.0435 O   0  0  0  0  0  0  0  0  0  0  0  0
   65.7975   47.0510   11.3684 C   0  0  0  0  0  0  0  0  0  0  0  0
   66.8145   47.3270   10.2868 C   0  0  1  0  0  0  0  0  0  0  0  0
   67.5562   48.5633   10.2495 C   0  0  1  0  0  0  0  0  0  0  0  0
   68.2564   47.3196   10.7377 C   0  0  0  0  0  0  0  0  0  0  0  0
   66.3242   46.6104    8.6880 S   0  0  0  0  0  0  0  0  0  0  0  0
   66.1763   48.0678    7.6026 C   0  0  0  0  0  0  0  0  0  0  0  0
   65.2955   48.1094    6.8008 N   0  0  0  0  0  0  0  0  0  0  0  0
   67.2039   49.0343    7.8031 N   0  0  0  0  0  0  0  0  0  0  0  0
   67.9324   49.2597    9.0179 C   0  0  1  0  0  0  0  0  0  0  0  0
   67.6469   50.7652    9.3192 C   0  0  0  0  0  0  0  0  0  0  0  0
   69.4113   49.2502    8.6858 C   0  0  0  0  0  0  0  0  0  0  0  0
   69.8707   48.8670    7.4253 C   0  0  0  0  0  0  0  0  0  0  0  0
   70.2639   49.5788    9.7007 C   0  0  0  0  0  0  0  0  0  0  0  0
   69.9219   49.8639   10.9751 F   0  0  0  0  0  0  0  0  0  0  0  0
   71.6426   49.5286    9.4183 C   0  0  0  0  0  0  0  0  0  0  0  0
   72.5033   49.8672   10.4481 F   0  0  0  0  0  0  0  0  0  0  0  0
   72.0777   49.1631    8.2094 C   0  0  0  0  0  0  0  0  0  0  0  0
   71.1947   48.7994    7.1290 C   0  0  0  0  0  0  0  0  0  0  0  0
   71.8021   48.2969    5.9997 N   0  0  0  0  0  0  0  0  0  0  0  0
   72.4970   47.1042    5.7234 C   0  0  0  0  0  0  0  0  0  0  0  0
   73.0601   46.5360    6.6809 O   0  0  0  0  0  0  0  0  0  0  0  0
   72.4741   46.5960    4.3392 C   0  0  0  0  0  0  0  0  0  0  0  0
   73.1770   45.4729    3.9618 C   0  0  0  0  0  0  0  0  0  0  0  0
   72.8806   44.8620    2.8054 N   0  0  0  0  0  0  0  0  0  0  0  0
   71.5286   47.0043    3.4859 N   0  0  0  0  0  0  0  0  0  0  0  0
   71.2219   46.4391    2.3631 C   0  0  0  0  0  0  0  0  0  0  0  0
   71.9421   45.2443    1.9475 C   0  0  0  0  0  0  0  0  0  0  0  0
   71.4913   44.7961    0.8384 O   0  0  0  0  0  0  0  0  0  0  0  0
   71.1642   43.9511   -0.0909 C   0  0  0  0  0  0  0  0  0  0  0  0
   71.3169   42.4365    0.2238 C   0  0  0  0  0  0  0  0  0  0  0  0
   71.4216   41.3162    0.4751 C   0  0  0  0  0  0  0  0  0  0  0  0
   64.6837   47.9446    6.0581 H   0  0  0  0  0  0  0  0  0  0  0  0
  1  2  1  6
  3  2  1  1
  3  4  1  0
  4  5  1  0
  6  4  1  1
  4  7  1  6
  5  6  1  6
  5 11  1  0
  7  8  1  0
  8  9  2  0
  8 10  1  0
 10 11  1  0
 12 11  1  6
 11 13  1  6
 13 14  2  0
 13 15  1  0
 14 20  1  0
 15 16  1  0
 15 17  2  0
 17 18  1  0
 17 19  1  0
 19 20  2  0
 20 21  1  0
 21 22  1  0
 22 23  2  0
 22 24  1  0
 24 25  2  0
 24 27  1  0
 25 26  1  0
 26 29  2  0
 27 28  2  0
 28 29  1  0
 29 30  1  0
 30 31  1  0
 31 32  1  6
 32 33  3  0
  9 34  1  0
M  END
$$$$
