
     RDKit          3D

 34 37  0  0  0  0  0  0  0  0999 V2000
   63.0989   48.6858   11.8539 C   0  0  0  0  0  0  0  0  0  0  0  0
   63.9460   48.1437   10.9098 O   0  0  0  0  0  0  0  0  0  0  0  0
   65.2397   48.4556   11.1945 C   0  0  0  0  0  0  0  0  0  0  0  0
   66.2250   47.8610   10.1817 C   0  0  1  0  0  0  0  0  0  0  0  0
   67.4874   48.6087   10.0126 C   0  0  1  0  0  0  0  0  0  0  0  0
   67.4850   47.2119   10.4653 C   0  0  0  0  0  0  0  0  0  0  0  0
   65.3960   47.3755    8.6178 S   0  0  0  0  0  0  0  0  0  0  0  0
   66.1110   48.3589    7.3711 C   0  0  0  0  0  0  0  0  0  0  0  0
   65.4155   48.5019    6.2691 N   0  0  0  0  0  0  0  0  0  0  0  0
   67.3430   48.9675    7.5372 N   0  0  0  0  0  0  0  0  0  0  0  0
   67.9990   49.1933    8.7973 C   0  0  1  0  0  0  0  0  0  0  0  0
   67.7078   50.7636    8.9862 C   0  0  0  0  0  0  0  0  0  0  0  0
   69.5040   49.1706    8.6900 C   0  0  0  0  0  0  0  0  0  0  0  0
   70.1564   48.2855    7.8970 C   0  0  0  0  0  0  0  0  0  0  0  0
   70.2608   49.9975    9.3962 C   0  0  0  0  0  0  0  0  0  0  0  0
   69.7022   50.9131   10.2979 F   0  0  0  0  0  0  0  0  0  0  0  0
   71.6187   49.9929    9.3444 C   0  0  0  0  0  0  0  0  0  0  0  0
   72.2957   50.9120   10.0951 F   0  0  0  0  0  0  0  0  0  0  0  0
   72.2319   49.1070    8.5515 C   0  0  0  0  0  0  0  0  0  0  0  0
   71.5368   48.0867    7.6951 C   0  0  0  0  0  0  0  0  0  0  0  0
   72.2375   47.1261    7.0482 N   0  0  0  0  0  0  0  0  0  0  0  0
   72.2422   46.7174    5.7702 C   0  0  0  0  0  0  0  0  0  0  0  0
   72.1009   45.1652    6.2384 O   0  0  0  0  0  0  0  0  0  0  0  0
   72.2591   46.4341    4.4202 C   0  0  0  0  0  0  0  0  0  0  0  0
   71.1721   45.7992    3.7730 C   0  0  0  0  0  0  0  0  0  0  0  0
   71.2120   45.6292    2.4532 N   0  0  0  0  0  0  0  0  0  0  0  0
   73.3151   46.8194    3.6505 N   0  0  0  0  0  0  0  0  0  0  0  0
   73.3286   46.6320    2.2757 C   0  0  0  0  0  0  0  0  0  0  0  0
   72.1808   46.0071    1.7230 C   0  0  0  0  0  0  0  0  0  0  0  0
   72.1979   45.8598    0.3116 O   0  0  0  0  0  0  0  0  0  0  0  0
   70.9491   45.0756   -0.2056 C   0  0  0  0  0  0  0  0  0  0  0  0
   71.0814   44.2704   -0.8758 C   0  0  0  0  0  0  0  0  0  0  0  0
   71.2503   43.1744   -1.7634 C   0  0  0  0  0  0  0  0  0  0  0  0
   65.7248   48.1024    5.3365 H   0  0  0  0  0  0  0  0  0  0  0  0
  1  2  1  0
  2  3  1  0
  4  3  1  1
  4  5  1  0
  4  6  1  0
  4  7  1  0
  5  6  1  6
  5 11  1  0
  7  8  1  0
  8  9  2  0
  8 10  1  0
 10 11  1  0
 11 12  1  1
 11 13  1  0
 13 14  2  0
 13 15  1  0
 14 20  1  0
 15 16  1  0
 15 17  2  0
 17 18  1  0
 17 19  1  0
 19 20  2  0
 20 21  1  0
 21 22  1  0
 22 23  2  0
 22 24  1  0
 24 25  2  0
 24 27  1  0
 25 26  1  0
 26 29  2  0
 27 28  2  0
 28 29  1  0
 29 30  1  0
 30 31  1  0
 31 32  1  0
 32 33  3  0
  9 34  1  0
M  END
$$$$
