
     RDKit          3D

 34 37  0  0  0  0  0  0  0  0999 V2000
   65.2617   46.2295   13.0907 C   0  0  0  0  0  0  0  0  0  0  0  0
   65.8923   47.2495   12.4564 O   0  0  0  0  0  0  0  0  0  0  0  0
   65.4575   47.7158   11.2774 C   0  0  0  0  0  0  0  0  0  0  0  0
   66.5100   47.7975   10.1976 C   0  0  1  0  0  0  0  0  0  0  0  0
   67.3348   48.9697   10.0382 C   0  0  1  0  0  0  0  0  0  0  0  0
   67.9398   47.7477   10.6829 C   0  0  0  0  0  0  0  0  0  0  0  0
   66.0005   46.9344    8.6792 S   0  0  0  0  0  0  0  0  0  0  0  0
   65.9715   48.2630    7.4310 C   0  0  0  0  0  0  0  0  0  0  0  0
   65.1100   48.2693    6.6074 N   0  0  0  0  0  0  0  0  0  0  0  0
   67.0588   49.1766    7.5458 N   0  0  0  0  0  0  0  0  0  0  0  0
   67.7793   49.4928    8.7451 C   0  0  1  0  0  0  0  0  0  0  0  0
   67.5917   51.0385    8.8650 C   0  0  0  0  0  0  0  0  0  0  0  0
   69.2597   49.3479    8.4540 C   0  0  0  0  0  0  0  0  0  0  0  0
   69.7142   48.7621    7.2721 C   0  0  0  0  0  0  0  0  0  0  0  0
   70.1151   49.7666    9.4328 C   0  0  0  0  0  0  0  0  0  0  0  0
   69.7715   50.2504   10.6454 F   0  0  0  0  0  0  0  0  0  0  0  0
   71.4923   49.5945    9.1943 C   0  0  0  0  0  0  0  0  0  0  0  0
   72.3561   50.0247   10.1866 F   0  0  0  0  0  0  0  0  0  0  0  0
   71.9227   49.0350    8.0602 C   0  0  0  0  0  0  0  0  0  0  0  0
   71.0359   48.5741    7.0208 C   0  0  0  0  0  0  0  0  0  0  0  0
   71.6285   47.8804    5.9892 N   0  0  0  0  0  0  0  0  0  0  0  0
   72.1711   46.5861    5.8787 C   0  0  0  0  0  0  0  0  0  0  0  0
   72.7174   46.1071    6.8930 O   0  0  0  0  0  0  0  0  0  0  0  0
   72.0188   45.8805    4.5927 C   0  0  0  0  0  0  0  0  0  0  0  0
   70.8449   45.9192    3.8730 C   0  0  0  0  0  0  0  0  0  0  0  0
   70.8446   45.5513    2.5834 N   0  0  0  0  0  0  0  0  0  0  0  0
   73.0964   45.4541    3.9252 N   0  0  0  0  0  0  0  0  0  0  0  0
   73.1274   45.0899    2.6840 C   0  0  0  0  0  0  0  0  0  0  0  0
   71.9024   45.1328    1.8987 C   0  0  0  0  0  0  0  0  0  0  0  0
   72.1166   44.7768    0.6898 O   0  0  0  0  0  0  0  0  0  0  0  0
   71.8792   44.3861   -0.5251 C   0  0  0  0  0  0  0  0  0  0  0  0
   72.0520   42.8746   -0.8443 C   0  0  0  0  0  0  0  0  0  0  0  0
   72.1632   41.7498   -1.0711 C   0  0  0  0  0  0  0  0  0  0  0  0
   64.5196   48.4745    5.8575 H   0  0  0  0  0  0  0  0  0  0  0  0
  1  2  1  6
  3  2  1  1
  3  4  1  0
  4  5  1  0
  6  4  1  1
  4  7  1  6
  5  6  1  1
  5 11  1  0
  7  8  1  0
  8  9  2  0
  8 10  1  0
 10 11  1  0
 12 11  1  6
 11 13  1  6
 13 14  2  0
 13 15  1  0
 14 20  1  0
 15 16  1  0
 15 17  2  0
 17 18  1  0
 17 19  1  0
 19 20  2  0
 20 21  1  0
 21 22  1  0
 22 23  2  0
 22 24  1  0
 24 25  2  0
 24 27  1  0
 25 26  1  0
 26 29  2  0
 27 28  2  0
 28 29  1  0
 29 30  1  0
 30 31  1  0
 31 32  1  6
 32 33  3  0
  9 34  1  0
M  END
$$$$
