
     RDKit          3D

 34 37  0  0  0  0  0  0  0  0999 V2000
   65.3051   48.6831   13.5608 C   0  0  0  0  0  0  0  0  0  0  0  0
   65.7877   48.7975   12.2980 O   0  0  0  0  0  0  0  0  0  0  0  0
   65.4325   47.9383   11.3326 C   0  0  0  0  0  0  0  0  0  0  0  0
   66.4307   47.7952   10.2086 C   0  0  1  0  0  0  0  0  0  0  0  0
   67.4056   48.8215    9.9330 C   0  0  1  0  0  0  0  0  0  0  0  0
   67.8611   47.5686   10.6387 C   0  0  0  0  0  0  0  0  0  0  0  0
   65.7280   46.9191    8.7773 S   0  0  0  0  0  0  0  0  0  0  0  0
   65.8270   48.1538    7.4395 C   0  0  0  0  0  0  0  0  0  0  0  0
   64.9353   48.2325    6.6527 N   0  0  0  0  0  0  0  0  0  0  0  0
   67.0382   48.9044    7.4453 N   0  0  0  0  0  0  0  0  0  0  0  0
   67.8554   49.1891    8.5892 C   0  0  1  0  0  0  0  0  0  0  0  0
   67.8969   50.7500    8.6058 C   0  0  0  0  0  0  0  0  0  0  0  0
   69.2835   48.8108    8.2503 C   0  0  0  0  0  0  0  0  0  0  0  0
   69.5693   47.7940    7.3387 C   0  0  0  0  0  0  0  0  0  0  0  0
   70.2652   49.4770    8.9267 C   0  0  0  0  0  0  0  0  0  0  0  0
   70.0871   50.4004    9.8953 F   0  0  0  0  0  0  0  0  0  0  0  0
   71.5952   49.1025    8.6552 C   0  0  0  0  0  0  0  0  0  0  0  0
   72.5874   49.7834    9.3391 F   0  0  0  0  0  0  0  0  0  0  0  0
   71.8640   48.1296    7.7801 C   0  0  0  0  0  0  0  0  0  0  0  0
   70.8421   47.4051    7.0660 C   0  0  0  0  0  0  0  0  0  0  0  0
   71.2758   46.3304    6.3221 N   0  0  0  0  0  0  0  0  0  0  0  0
   72.5143   45.6718    6.2035 C   0  0  0  0  0  0  0  0  0  0  0  0
   73.5326   46.3019    6.5540 O   0  0  0  0  0  0  0  0  0  0  0  0
   72.5129   44.2802    5.7153 C   0  0  0  0  0  0  0  0  0  0  0  0
   73.6683   43.5348    5.6301 C   0  0  0  0  0  0  0  0  0  0  0  0
   73.5904   42.2025    5.4995 N   0  0  0  0  0  0  0  0  0  0  0  0
   71.3693   43.5900    5.6474 N   0  0  0  0  0  0  0  0  0  0  0  0
   71.2618   42.3070    5.5184 C   0  0  0  0  0  0  0  0  0  0  0  0
   72.4679   41.4960    5.4380 C   0  0  0  0  0  0  0  0  0  0  0  0
   72.1832   40.2529    5.3499 O   0  0  0  0  0  0  0  0  0  0  0  0
   72.0094   39.0773    4.8279 C   0  0  0  0  0  0  0  0  0  0  0  0
   71.0043   38.9519    3.6488 C   0  0  0  0  0  0  0  0  0  0  0  0
   70.2581   38.8392    2.7773 C   0  0  0  0  0  0  0  0  0  0  0  0
   64.0677   48.2669    6.2064 H   0  0  0  0  0  0  0  0  0  0  0  0
  1  2  1  6
  3  2  1  1
  3  4  1  0
  4  5  1  0
  6  4  1  1
  4  7  1  6
  5  6  1  1
  5 11  1  0
  7  8  1  0
  8  9  2  0
  8 10  1  0
 10 11  1  0
 12 11  1  6
 11 13  1  6
 13 14  2  0
 13 15  1  0
 14 20  1  0
 15 16  1  0
 15 17  2  0
 17 18  1  0
 17 19  1  0
 19 20  2  0
 20 21  1  0
 21 22  1  0
 22 23  2  0
 22 24  1  0
 24 25  2  0
 24 27  1  0
 25 26  1  0
 26 29  2  0
 27 28  2  0
 28 29  1  0
 29 30  1  0
 30 31  1  0
 31 32  1  6
 32 33  3  0
  9 34  1  0
M  END
$$$$
