
     RDKit          3D

 34 37  0  0  0  0  0  0  0  0999 V2000
   63.9538   49.2088   12.2219 C   0  0  0  0  0  0  0  0  0  0  0  0
   65.1777   49.0525   11.6579 O   0  0  0  0  0  0  0  0  0  0  0  0
   65.5456   47.8935   11.0942 C   0  0  0  0  0  0  0  0  0  0  0  0
   66.5530   48.0206    9.9764 C   0  0  1  0  0  0  0  0  0  0  0  0
   67.4234   49.1659    9.8747 C   0  0  1  0  0  0  0  0  0  0  0  0
   67.9986   47.8695   10.3881 C   0  0  0  0  0  0  0  0  0  0  0  0
   65.9386   47.3102    8.4181 S   0  0  0  0  0  0  0  0  0  0  0  0
   65.9169   48.7387    7.2855 C   0  0  0  0  0  0  0  0  0  0  0  0
   65.0217   48.8506    6.5068 N   0  0  0  0  0  0  0  0  0  0  0  0
   67.0494   49.5924    7.4233 N   0  0  0  0  0  0  0  0  0  0  0  0
   67.8351   49.7761    8.6092 C   0  0  1  0  0  0  0  0  0  0  0  0
   67.7246   51.3128    8.8638 C   0  0  0  0  0  0  0  0  0  0  0  0
   69.2932   49.5932    8.2378 C   0  0  0  0  0  0  0  0  0  0  0  0
   69.6694   49.1288    6.9771 C   0  0  0  0  0  0  0  0  0  0  0  0
   70.2070   49.8509    9.2194 C   0  0  0  0  0  0  0  0  0  0  0  0
   69.9370   50.2051   10.4938 F   0  0  0  0  0  0  0  0  0  0  0  0
   71.5626   49.6400    8.9016 C   0  0  0  0  0  0  0  0  0  0  0  0
   72.4860   49.9071    9.8977 F   0  0  0  0  0  0  0  0  0  0  0  0
   71.9181   49.1972    7.6925 C   0  0  0  0  0  0  0  0  0  0  0  0
   70.9684   48.9064    6.6473 C   0  0  0  0  0  0  0  0  0  0  0  0
   71.4823   48.3104    5.5172 N   0  0  0  0  0  0  0  0  0  0  0  0
   72.3009   47.1853    5.3029 C   0  0  0  0  0  0  0  0  0  0  0  0
   73.2632   47.0224    6.0802 O   0  0  0  0  0  0  0  0  0  0  0  0
   71.9391   46.2660    4.2080 C   0  0  0  0  0  0  0  0  0  0  0  0
   71.4498   46.7215    3.0035 C   0  0  0  0  0  0  0  0  0  0  0  0
   71.4424   45.9059    1.9391 N   0  0  0  0  0  0  0  0  0  0  0  0
   72.3714   45.0004    4.2188 N   0  0  0  0  0  0  0  0  0  0  0  0
   72.3742   44.1889    3.2110 C   0  0  0  0  0  0  0  0  0  0  0  0
   71.8731   44.6500    1.9243 C   0  0  0  0  0  0  0  0  0  0  0  0
   71.9811   43.7394    1.0338 O   0  0  0  0  0  0  0  0  0  0  0  0
   72.3822   43.1236   -0.0361 C   0  0  0  0  0  0  0  0  0  0  0  0
   73.7508   43.5443   -0.6413 C   0  0  0  0  0  0  0  0  0  0  0  0
   74.7562   43.8658   -1.1050 C   0  0  0  0  0  0  0  0  0  0  0  0
   64.4679   48.9247    5.7062 H   0  0  0  0  0  0  0  0  0  0  0  0
  1  2  1  6
  3  2  1  1
  3  4  1  0
  4  5  1  0
  6  4  1  1
  4  7  1  6
  5  6  1  6
  5 11  1  0
  7  8  1  0
  8  9  2  0
  8 10  1  0
 10 11  1  0
 12 11  1  6
 11 13  1  6
 13 14  2  0
 13 15  1  0
 14 20  1  0
 15 16  1  0
 15 17  2  0
 17 18  1  0
 17 19  1  0
 19 20  2  0
 20 21  1  0
 21 22  1  0
 22 23  2  0
 22 24  1  0
 24 25  2  0
 24 27  1  0
 25 26  1  0
 26 29  2  0
 27 28  2  0
 28 29  1  0
 29 30  1  0
 30 31  1  0
 31 32  1  6
 32 33  3  0
  9 34  1  0
M  END
$$$$
