
     RDKit          3D

 34 37  0  0  0  0  0  0  0  0999 V2000
   63.6376   48.3357   12.7459 C   0  0  0  0  0  0  0  0  0  0  0  0
   65.0084   48.3861   12.8916 O   0  0  0  0  0  0  0  0  0  0  0  0
   65.5622   49.1700   11.9268 C   0  0  0  0  0  0  0  0  0  0  0  0
   66.2194   48.3519   10.8093 C   0  0  1  0  0  0  0  0  0  0  0  0
   67.4947   48.8916   10.2958 C   0  0  1  0  0  0  0  0  0  0  0  0
   67.4221   47.5555   10.9003 C   0  0  0  0  0  0  0  0  0  0  0  0
   65.0125   47.8546    9.5189 S   0  0  0  0  0  0  0  0  0  0  0  0
   65.5488   48.6101    8.0445 C   0  0  0  0  0  0  0  0  0  0  0  0
   64.6499   48.7538    7.1012 N   0  0  0  0  0  0  0  0  0  0  0  0
   66.8519   49.0467    7.8792 N   0  0  0  0  0  0  0  0  0  0  0  0
   67.7926   49.2862    8.9408 C   0  0  1  0  0  0  0  0  0  0  0  0
   67.7440   50.8926    8.9998 C   0  0  0  0  0  0  0  0  0  0  0  0
   69.2224   49.0370    8.5278 C   0  0  0  0  0  0  0  0  0  0  0  0
   69.5824   47.9545    7.7953 C   0  0  0  0  0  0  0  0  0  0  0  0
   70.2006   49.8521    8.8938 C   0  0  0  0  0  0  0  0  0  0  0  0
   69.9594   50.9686    9.7055 F   0  0  0  0  0  0  0  0  0  0  0  0
   71.5026   49.6500    8.5614 C   0  0  0  0  0  0  0  0  0  0  0  0
   72.4231   50.5735    8.9695 F   0  0  0  0  0  0  0  0  0  0  0  0
   71.8246   48.5723    7.8373 C   0  0  0  0  0  0  0  0  0  0  0  0
   70.8521   47.5356    7.3504 C   0  0  0  0  0  0  0  0  0  0  0  0
   71.2850   46.3959    6.7620 N   0  0  0  0  0  0  0  0  0  0  0  0
   71.7265   46.1304    5.5232 C   0  0  0  0  0  0  0  0  0  0  0  0
   71.3542   44.5560    5.6995 O   0  0  0  0  0  0  0  0  0  0  0  0
   72.2111   45.9957    4.2387 C   0  0  0  0  0  0  0  0  0  0  0  0
   72.5919   44.7399    3.7081 C   0  0  0  0  0  0  0  0  0  0  0  0
   72.9718   44.6615    2.4345 N   0  0  0  0  0  0  0  0  0  0  0  0
   72.2797   47.0774    3.4132 N   0  0  0  0  0  0  0  0  0  0  0  0
   72.6768   46.9659    2.0884 C   0  0  0  0  0  0  0  0  0  0  0  0
   73.0154   45.6597    1.6496 C   0  0  0  0  0  0  0  0  0  0  0  0
   73.3816   45.5615    0.2819 O   0  0  0  0  0  0  0  0  0  0  0  0
   72.3856   44.6658   -0.5230 C   0  0  0  0  0  0  0  0  0  0  0  0
   72.1404   44.9243   -1.5170 C   0  0  0  0  0  0  0  0  0  0  0  0
   71.8152   45.2523   -2.8602 C   0  0  0  0  0  0  0  0  0  0  0  0
   64.7046   48.2472    6.1710 H   0  0  0  0  0  0  0  0  0  0  0  0
  1  2  1  0
  2  3  1  0
  4  3  1  1
  4  5  1  0
  4  6  1  0
  4  7  1  0
  5  6  1  6
  5 11  1  0
  7  8  1  0
  8  9  2  0
  8 10  1  0
 10 11  1  0
 11 12  1  1
 11 13  1  0
 13 14  2  0
 13 15  1  0
 14 20  1  0
 15 16  1  0
 15 17  2  0
 17 18  1  0
 17 19  1  0
 19 20  2  0
 20 21  1  0
 21 22  1  0
 22 23  2  0
 22 24  1  0
 24 25  2  0
 24 27  1  0
 25 26  1  0
 26 29  2  0
 27 28  2  0
 28 29  1  0
 29 30  1  0
 30 31  1  0
 31 32  1  0
 32 33  3  0
  9 34  1  0
M  END
$$$$
