
     RDKit          3D

 34 37  0  0  0  0  0  0  0  0999 V2000
   63.5788   45.5404   10.7013 C   0  0  0  0  0  0  0  0  0  0  0  0
   64.2006   46.7112   10.4125 O   0  0  0  0  0  0  0  0  0  0  0  0
   65.3884   47.0236   10.9491 C   0  0  0  0  0  0  0  0  0  0  0  0
   66.4491   47.4310    9.9544 C   0  0  1  0  0  0  0  0  0  0  0  0
   67.1915   48.6579   10.1065 C   0  0  1  0  0  0  0  0  0  0  0  0
   67.8712   47.3584   10.4591 C   0  0  0  0  0  0  0  0  0  0  0  0
   66.0252   46.9279    8.2581 S   0  0  0  0  0  0  0  0  0  0  0  0
   65.9218   48.5133    7.3637 C   0  0  0  0  0  0  0  0  0  0  0  0
   65.0748   48.6620    6.5386 N   0  0  0  0  0  0  0  0  0  0  0  0
   66.9401   49.4408    7.7285 N   0  0  0  0  0  0  0  0  0  0  0  0
   67.6180   49.5048    8.9910 C   0  0  1  0  0  0  0  0  0  0  0  0
   67.3200   50.9605    9.4711 C   0  0  0  0  0  0  0  0  0  0  0  0
   69.1092   49.5304    8.7211 C   0  0  0  0  0  0  0  0  0  0  0  0
   69.6303   49.1538    7.4828 C   0  0  0  0  0  0  0  0  0  0  0  0
   69.9103   49.8838    9.7691 C   0  0  0  0  0  0  0  0  0  0  0  0
   69.5082   50.1652   11.0267 F   0  0  0  0  0  0  0  0  0  0  0  0
   71.3004   49.8664    9.5450 C   0  0  0  0  0  0  0  0  0  0  0  0
   72.1087   50.2301   10.6082 F   0  0  0  0  0  0  0  0  0  0  0  0
   71.7946   49.5071    8.3571 C   0  0  0  0  0  0  0  0  0  0  0  0
   70.9669   49.1176    7.2425 C   0  0  0  0  0  0  0  0  0  0  0  0
   71.6332   48.6260    6.1421 N   0  0  0  0  0  0  0  0  0  0  0  0
   72.5378   47.5641    5.9526 C   0  0  0  0  0  0  0  0  0  0  0  0
   73.1945   47.1888    6.9449 O   0  0  0  0  0  0  0  0  0  0  0  0
   72.6125   46.9506    4.6136 C   0  0  0  0  0  0  0  0  0  0  0  0
   73.4928   45.9310    4.3254 C   0  0  0  0  0  0  0  0  0  0  0  0
   73.3121   45.1900    3.2225 N   0  0  0  0  0  0  0  0  0  0  0  0
   71.6220   47.1299    3.7329 N   0  0  0  0  0  0  0  0  0  0  0  0
   71.4232   46.4348    2.6598 C   0  0  0  0  0  0  0  0  0  0  0  0
   72.3328   45.3444    2.3392 C   0  0  0  0  0  0  0  0  0  0  0  0
   71.9726   44.7420    1.2709 O   0  0  0  0  0  0  0  0  0  0  0  0
   71.4609   43.8325    0.4990 C   0  0  0  0  0  0  0  0  0  0  0  0
   71.5597   44.0499   -1.0371 C   0  0  0  0  0  0  0  0  0  0  0  0
   71.6519   44.2173   -2.1739 C   0  0  0  0  0  0  0  0  0  0  0  0
   64.5720   48.8094    5.7148 H   0  0  0  0  0  0  0  0  0  0  0  0
  1  2  1  6
  3  2  1  1
  3  4  1  0
  4  5  1  0
  6  4  1  1
  4  7  1  6
  5  6  1  6
  5 11  1  0
  7  8  1  0
  8  9  2  0
  8 10  1  0
 10 11  1  0
 12 11  1  6
 11 13  1  6
 13 14  2  0
 13 15  1  0
 14 20  1  0
 15 16  1  0
 15 17  2  0
 17 18  1  0
 17 19  1  0
 19 20  2  0
 20 21  1  0
 21 22  1  0
 22 23  2  0
 22 24  1  0
 24 25  2  0
 24 27  1  0
 25 26  1  0
 26 29  2  0
 27 28  2  0
 28 29  1  0
 29 30  1  0
 30 31  1  0
 31 32  1  6
 32 33  3  0
  9 34  1  0
M  END
$$$$
