
     RDKit          3D

 34 37  0  0  0  0  0  0  0  0999 V2000
   63.4506   46.4252   11.2887 C   0  0  0  0  0  0  0  0  0  0  0  0
   64.3129   46.9203   10.3325 O   0  0  0  0  0  0  0  0  0  0  0  0
   65.5815   46.9837   10.8212 C   0  0  0  0  0  0  0  0  0  0  0  0
   66.6424   46.8071    9.7288 C   0  0  1  0  0  0  0  0  0  0  0  0
   67.7550   47.7777    9.7642 C   0  0  1  0  0  0  0  0  0  0  0  0
   67.9986   46.3357    9.8953 C   0  0  0  0  0  0  0  0  0  0  0  0
   65.8910   46.5491    8.0742 S   0  0  0  0  0  0  0  0  0  0  0  0
   66.4111   47.8933    7.0969 C   0  0  0  0  0  0  0  0  0  0  0  0
   65.6885   48.1581    6.0356 N   0  0  0  0  0  0  0  0  0  0  0  0
   67.5218   48.6503    7.4272 N   0  0  0  0  0  0  0  0  0  0  0  0
   68.1440   48.6974    8.7233 C   0  0  1  0  0  0  0  0  0  0  0  0
   67.5890   50.1126    9.2482 C   0  0  0  0  0  0  0  0  0  0  0  0
   69.6290   48.9561    8.6545 C   0  0  0  0  0  0  0  0  0  0  0  0
   70.3330   48.8115    7.5050 C   0  0  0  0  0  0  0  0  0  0  0  0
   70.3213   49.3054    9.7289 C   0  0  0  0  0  0  0  0  0  0  0  0
   69.7137   49.4236   10.9860 F   0  0  0  0  0  0  0  0  0  0  0  0
   71.6622   49.5250    9.7124 C   0  0  0  0  0  0  0  0  0  0  0  0
   72.2667   49.9102   10.8755 F   0  0  0  0  0  0  0  0  0  0  0  0
   72.3274   49.3742    8.5616 C   0  0  0  0  0  0  0  0  0  0  0  0
   71.7105   48.9682    7.2531 C   0  0  0  0  0  0  0  0  0  0  0  0
   72.4817   48.6844    6.1775 N   0  0  0  0  0  0  0  0  0  0  0  0
   72.3973   47.7383    5.2299 C   0  0  0  0  0  0  0  0  0  0  0  0
   73.8782   47.1837    5.6144 O   0  0  0  0  0  0  0  0  0  0  0  0
   72.1816   46.8172    4.2258 C   0  0  0  0  0  0  0  0  0  0  0  0
   72.9943   45.6683    4.0742 C   0  0  0  0  0  0  0  0  0  0  0  0
   72.6845   44.7729    3.1388 N   0  0  0  0  0  0  0  0  0  0  0  0
   71.1255   46.9606    3.3772 N   0  0  0  0  0  0  0  0  0  0  0  0
   70.8242   46.0095    2.4128 C   0  0  0  0  0  0  0  0  0  0  0  0
   71.6876   44.8848    2.3590 C   0  0  0  0  0  0  0  0  0  0  0  0
   71.3395   43.9059    1.3921 O   0  0  0  0  0  0  0  0  0  0  0  0
   72.3701   43.8569    0.2184 C   0  0  0  0  0  0  0  0  0  0  0  0
   72.3619   43.0371   -0.4470 C   0  0  0  0  0  0  0  0  0  0  0  0
   72.3430   41.9468   -1.3573 C   0  0  0  0  0  0  0  0  0  0  0  0
   65.7427   49.0819    5.5173 H   0  0  0  0  0  0  0  0  0  0  0  0
  1  2  1  0
  2  3  1  0
  4  3  1  1
  4  5  1  0
  4  6  1  0
  4  7  1  0
  5  6  1  6
  5 11  1  0
  7  8  1  0
  8  9  2  0
  8 10  1  0
 10 11  1  0
 11 12  1  1
 11 13  1  0
 13 14  2  0
 13 15  1  0
 14 20  1  0
 15 16  1  0
 15 17  2  0
 17 18  1  0
 17 19  1  0
 19 20  2  0
 20 21  1  0
 21 22  1  0
 22 23  2  0
 22 24  1  0
 24 25  2  0
 24 27  1  0
 25 26  1  0
 26 29  2  0
 27 28  2  0
 28 29  1  0
 29 30  1  0
 30 31  1  0
 31 32  1  0
 32 33  3  0
  9 34  1  0
M  END
$$$$
