
     RDKit          3D

 34 37  0  0  0  0  0  0  0  0999 V2000
   63.8457   45.3683   11.7673 C   0  0  0  0  0  0  0  0  0  0  0  0
   65.0934   45.6967   11.3479 O   0  0  0  0  0  0  0  0  0  0  0  0
   65.4569   46.9739   11.1658 C   0  0  0  0  0  0  0  0  0  0  0  0
   66.5422   47.1866   10.1375 C   0  0  1  0  0  0  0  0  0  0  0  0
   67.4007   48.3446   10.1785 C   0  0  1  0  0  0  0  0  0  0  0  0
   67.9555   47.0219   10.6452 C   0  0  0  0  0  0  0  0  0  0  0  0
   66.0554   46.5781    8.4935 S   0  0  0  0  0  0  0  0  0  0  0  0
   66.0966   48.0802    7.4610 C   0  0  0  0  0  0  0  0  0  0  0  0
   65.2599   48.2362    6.6267 N   0  0  0  0  0  0  0  0  0  0  0  0
   67.2030   48.9335    7.7403 N   0  0  0  0  0  0  0  0  0  0  0  0
   67.8960   49.0436    8.9913 C   0  0  1  0  0  0  0  0  0  0  0  0
   67.7442   50.5583    9.3396 C   0  0  0  0  0  0  0  0  0  0  0  0
   69.3801   48.9006    8.7186 C   0  0  0  0  0  0  0  0  0  0  0  0
   69.8530   48.1298    7.6562 C   0  0  0  0  0  0  0  0  0  0  0  0
   70.2218   49.5165    9.6003 C   0  0  0  0  0  0  0  0  0  0  0  0
   69.8633   50.1964   10.7101 F   0  0  0  0  0  0  0  0  0  0  0  0
   71.6038   49.3526    9.3850 C   0  0  0  0  0  0  0  0  0  0  0  0
   72.4535   49.9825   10.2779 F   0  0  0  0  0  0  0  0  0  0  0  0
   72.0518   48.6152    8.3652 C   0  0  0  0  0  0  0  0  0  0  0  0
   71.1802   47.9460    7.4317 C   0  0  0  0  0  0  0  0  0  0  0  0
   71.7952   47.1006    6.5353 N   0  0  0  0  0  0  0  0  0  0  0  0
   72.6555   47.3098    5.4409 C   0  0  0  0  0  0  0  0  0  0  0  0
   73.3578   48.3411    5.4550 O   0  0  0  0  0  0  0  0  0  0  0  0
   72.6931   46.2811    4.3849 C   0  0  0  0  0  0  0  0  0  0  0  0
   73.7882   46.1146    3.5659 C   0  0  0  0  0  0  0  0  0  0  0  0
   73.9192   44.9857    2.8542 N   0  0  0  0  0  0  0  0  0  0  0  0
   71.8152   45.2721    4.3942 N   0  0  0  0  0  0  0  0  0  0  0  0
   71.9118   44.1736    3.7173 C   0  0  0  0  0  0  0  0  0  0  0  0
   73.0656   43.9687    2.8536 C   0  0  0  0  0  0  0  0  0  0  0  0
   73.0220   42.8224    2.2896 O   0  0  0  0  0  0  0  0  0  0  0  0
   72.7272   41.5744    2.0884 C   0  0  0  0  0  0  0  0  0  0  0  0
   72.4884   41.1160    0.6224 C   0  0  0  0  0  0  0  0  0  0  0  0
   72.3085   40.7572   -0.4583 C   0  0  0  0  0  0  0  0  0  0  0  0
   64.7568   48.4709    5.8236 H   0  0  0  0  0  0  0  0  0  0  0  0
  1  2  1  6
  3  2  1  1
  3  4  1  0
  4  5  1  0
  6  4  1  1
  4  7  1  6
  5  6  1  6
  5 11  1  0
  7  8  1  0
  8  9  2  0
  8 10  1  0
 10 11  1  0
 12 11  1  6
 11 13  1  6
 13 14  2  0
 13 15  1  0
 14 20  1  0
 15 16  1  0
 15 17  2  0
 17 18  1  0
 17 19  1  0
 19 20  2  0
 20 21  1  0
 21 22  1  0
 22 23  2  0
 22 24  1  0
 24 25  2  0
 24 27  1  0
 25 26  1  0
 26 29  2  0
 27 28  2  0
 28 29  1  0
 29 30  1  0
 30 31  1  0
 31 32  1  6
 32 33  3  0
  9 34  1  0
M  END
$$$$
