
     RDKit          3D

 34 37  0  0  0  0  0  0  0  0999 V2000
   64.5241   50.1911   13.3230 C   0  0  0  0  0  0  0  0  0  0  0  0
   64.7961   49.4178   12.2135 O   0  0  0  0  0  0  0  0  0  0  0  0
   66.0804   48.9690   12.2480 C   0  0  0  0  0  0  0  0  0  0  0  0
   66.4593   48.1723   10.9942 C   0  0  1  0  0  0  0  0  0  0  0  0
   67.7197   48.5807   10.3416 C   0  0  1  0  0  0  0  0  0  0  0  0
   67.5362   47.2181   10.8571 C   0  0  0  0  0  0  0  0  0  0  0  0
   65.0333   47.9554    9.8591 S   0  0  0  0  0  0  0  0  0  0  0  0
   65.4729   48.7596    8.3784 C   0  0  0  0  0  0  0  0  0  0  0  0
   64.4871   49.1041    7.5859 N   0  0  0  0  0  0  0  0  0  0  0  0
   66.7918   49.0319    8.0585 N   0  0  0  0  0  0  0  0  0  0  0  0
   67.8893   49.0498    8.9883 C   0  0  1  0  0  0  0  0  0  0  0  0
   68.0806   50.6369    9.1639 C   0  0  0  0  0  0  0  0  0  0  0  0
   69.2010   48.6500    8.3585 C   0  0  0  0  0  0  0  0  0  0  0  0
   69.2631   47.8183    7.2897 C   0  0  0  0  0  0  0  0  0  0  0  0
   70.3592   49.0695    8.8462 C   0  0  0  0  0  0  0  0  0  0  0  0
   70.4236   49.8809    9.9868 F   0  0  0  0  0  0  0  0  0  0  0  0
   71.5613   48.7138    8.3217 C   0  0  0  0  0  0  0  0  0  0  0  0
   72.6910   49.2315    8.8894 F   0  0  0  0  0  0  0  0  0  0  0  0
   71.5879   47.8919    7.2666 C   0  0  0  0  0  0  0  0  0  0  0  0
   70.3775   47.3072    6.5952 C   0  0  0  0  0  0  0  0  0  0  0  0
   70.5020   46.3599    5.6363 N   0  0  0  0  0  0  0  0  0  0  0  0
   71.4576   46.1154    4.7268 C   0  0  0  0  0  0  0  0  0  0  0  0
   72.5169   45.7368    5.9028 O   0  0  0  0  0  0  0  0  0  0  0  0
   72.3441   45.8978    3.6925 C   0  0  0  0  0  0  0  0  0  0  0  0
   73.3863   46.8077    3.3935 C   0  0  0  0  0  0  0  0  0  0  0  0
   74.2614   46.5012    2.4381 N   0  0  0  0  0  0  0  0  0  0  0  0
   72.2755   44.7522    2.9583 N   0  0  0  0  0  0  0  0  0  0  0  0
   73.2034   44.4571    1.9697 C   0  0  0  0  0  0  0  0  0  0  0  0
   74.2210   45.4245    1.7647 C   0  0  0  0  0  0  0  0  0  0  0  0
   75.1816   45.0858    0.7763 O   0  0  0  0  0  0  0  0  0  0  0  0
   74.5090   44.5341   -0.5220 C   0  0  0  0  0  0  0  0  0  0  0  0
   74.4858   45.1338   -1.3908 C   0  0  0  0  0  0  0  0  0  0  0  0
   74.4404   45.9534   -2.5500 C   0  0  0  0  0  0  0  0  0  0  0  0
   64.0625   48.4429    6.8735 H   0  0  0  0  0  0  0  0  0  0  0  0
  1  2  1  0
  2  3  1  0
  4  3  1  1
  4  5  1  0
  4  6  1  0
  4  7  1  0
  5  6  1  6
  5 11  1  0
  7  8  1  0
  8  9  2  0
  8 10  1  0
 10 11  1  0
 11 12  1  1
 11 13  1  0
 13 14  2  0
 13 15  1  0
 14 20  1  0
 15 16  1  0
 15 17  2  0
 17 18  1  0
 17 19  1  0
 19 20  2  0
 20 21  1  0
 21 22  1  0
 22 23  2  0
 22 24  1  0
 24 25  2  0
 24 27  1  0
 25 26  1  0
 26 29  2  0
 27 28  2  0
 28 29  1  0
 29 30  1  0
 30 31  1  0
 31 32  1  0
 32 33  3  0
  9 34  1  0
M  END
$$$$
