
     RDKit          3D

 34 37  0  0  0  0  0  0  0  0999 V2000
   65.1038   45.5525   13.0138 C   0  0  0  0  0  0  0  0  0  0  0  0
   65.6904   45.8486   11.8269 O   0  0  0  0  0  0  0  0  0  0  0  0
   65.5689   47.0615   11.2696 C   0  0  0  0  0  0  0  0  0  0  0  0
   66.5678   47.3637   10.1781 C   0  0  1  0  0  0  0  0  0  0  0  0
   67.3859   48.5507   10.2147 C   0  0  1  0  0  0  0  0  0  0  0  0
   68.0194   47.2300   10.5746 C   0  0  0  0  0  0  0  0  0  0  0  0
   65.9833   46.8145    8.5450 S   0  0  0  0  0  0  0  0  0  0  0  0
   65.8960   48.3637    7.5878 C   0  0  0  0  0  0  0  0  0  0  0  0
   64.9954   48.5263    6.8243 N   0  0  0  0  0  0  0  0  0  0  0  0
   66.9893   49.2450    7.8290 N   0  0  0  0  0  0  0  0  0  0  0  0
   67.7679   49.3231    9.0311 C   0  0  1  0  0  0  0  0  0  0  0  0
   67.5892   50.8128    9.4639 C   0  0  0  0  0  0  0  0  0  0  0  0
   69.2321   49.2503    8.6462 C   0  0  0  0  0  0  0  0  0  0  0  0
   69.6277   48.8996    7.3550 C   0  0  0  0  0  0  0  0  0  0  0  0
   70.1348   49.4883    9.6429 C   0  0  0  0  0  0  0  0  0  0  0  0
   69.8516   49.7344   10.9397 F   0  0  0  0  0  0  0  0  0  0  0  0
   71.4986   49.3781    9.3096 C   0  0  0  0  0  0  0  0  0  0  0  0
   72.4103   49.6250   10.3214 F   0  0  0  0  0  0  0  0  0  0  0  0
   71.8725   49.0439    8.0715 C   0  0  0  0  0  0  0  0  0  0  0  0
   70.9355   48.7754    7.0089 C   0  0  0  0  0  0  0  0  0  0  0  0
   71.4766   48.2920    5.8384 N   0  0  0  0  0  0  0  0  0  0  0  0
   72.4478   47.3139    5.5521 C   0  0  0  0  0  0  0  0  0  0  0  0
   73.3966   47.1988    6.3542 O   0  0  0  0  0  0  0  0  0  0  0  0
   72.2519   46.4753    4.3550 C   0  0  0  0  0  0  0  0  0  0  0  0
   71.2568   46.7326    3.4378 C   0  0  0  0  0  0  0  0  0  0  0  0
   71.3111   46.1667    2.2233 N   0  0  0  0  0  0  0  0  0  0  0  0
   73.2179   45.6449    3.9473 N   0  0  0  0  0  0  0  0  0  0  0  0
   73.2962   45.0815    2.7852 C   0  0  0  0  0  0  0  0  0  0  0  0
   72.2631   45.3465    1.7944 C   0  0  0  0  0  0  0  0  0  0  0  0
   72.5119   44.7428    0.6955 O   0  0  0  0  0  0  0  0  0  0  0  0
   72.6922   44.5522   -0.5757 C   0  0  0  0  0  0  0  0  0  0  0  0
   71.4751   44.7684   -1.5182 C   0  0  0  0  0  0  0  0  0  0  0  0
   70.5658   44.9104   -2.2126 C   0  0  0  0  0  0  0  0  0  0  0  0
   64.2767   48.4188    6.1723 H   0  0  0  0  0  0  0  0  0  0  0  0
  1  2  1  6
  3  2  1  1
  3  4  1  0
  4  5  1  0
  6  4  1  1
  4  7  1  6
  5  6  1  6
  5 11  1  0
  7  8  1  0
  8  9  2  0
  8 10  1  0
 10 11  1  0
 12 11  1  6
 11 13  1  6
 13 14  2  0
 13 15  1  0
 14 20  1  0
 15 16  1  0
 15 17  2  0
 17 18  1  0
 17 19  1  0
 19 20  2  0
 20 21  1  0
 21 22  1  0
 22 23  2  0
 22 24  1  0
 24 25  2  0
 24 27  1  0
 25 26  1  0
 26 29  2  0
 27 28  2  0
 28 29  1  0
 29 30  1  0
 30 31  1  0
 31 32  1  6
 32 33  3  0
  9 34  1  0
M  END
$$$$
