
     RDKit          3D

 34 37  0  0  0  0  0  0  0  0999 V2000
   64.4742   45.7986   12.7103 C   0  0  0  0  0  0  0  0  0  0  0  0
   65.3957   46.4801   11.9844 O   0  0  0  0  0  0  0  0  0  0  0  0
   65.0477   47.1925   10.9037 C   0  0  0  0  0  0  0  0  0  0  0  0
   66.1596   47.4240    9.9085 C   0  0  1  0  0  0  0  0  0  0  0  0
   67.0471   48.5551   10.0217 C   0  0  1  0  0  0  0  0  0  0  0  0
   67.5571   47.1973   10.4356 C   0  0  0  0  0  0  0  0  0  0  0  0
   65.6918   46.9072    8.2280 S   0  0  0  0  0  0  0  0  0  0  0  0
   65.7940   48.4546    7.2694 C   0  0  0  0  0  0  0  0  0  0  0  0
   64.9794   48.6725    6.4271 N   0  0  0  0  0  0  0  0  0  0  0  0
   66.9162   49.2635    7.6109 N   0  0  0  0  0  0  0  0  0  0  0  0
   67.5853   49.2957    8.8792 C   0  0  1  0  0  0  0  0  0  0  0  0
   67.4660   50.7958    9.2963 C   0  0  0  0  0  0  0  0  0  0  0  0
   69.0706   49.1255    8.6295 C   0  0  0  0  0  0  0  0  0  0  0  0
   69.5473   48.5157    7.4687 C   0  0  0  0  0  0  0  0  0  0  0  0
   69.9060   49.5467    9.6243 C   0  0  0  0  0  0  0  0  0  0  0  0
   69.5378   50.0536   10.8201 F   0  0  0  0  0  0  0  0  0  0  0  0
   71.2863   49.3517    9.4247 C   0  0  0  0  0  0  0  0  0  0  0  0
   72.1300   49.7845   10.4332 F   0  0  0  0  0  0  0  0  0  0  0  0
   71.7381   48.7692    8.3108 C   0  0  0  0  0  0  0  0  0  0  0  0
   70.8723   48.3053    7.2552 C   0  0  0  0  0  0  0  0  0  0  0  0
   71.4816   47.5879    6.2499 N   0  0  0  0  0  0  0  0  0  0  0  0
   72.5753   47.8463    5.4020 C   0  0  0  0  0  0  0  0  0  0  0  0
   73.4907   48.5644    5.8529 O   0  0  0  0  0  0  0  0  0  0  0  0
   72.5778   47.2199    4.0669 C   0  0  0  0  0  0  0  0  0  0  0  0
   73.6971   46.6048    3.5508 C   0  0  0  0  0  0  0  0  0  0  0  0
   73.5760   45.7782    2.5019 N   0  0  0  0  0  0  0  0  0  0  0  0
   71.4242   46.9401    3.4506 N   0  0  0  0  0  0  0  0  0  0  0  0
   71.2758   46.1508    2.4362 C   0  0  0  0  0  0  0  0  0  0  0  0
   72.4416   45.4798    1.8797 C   0  0  0  0  0  0  0  0  0  0  0  0
   72.1141   44.7133    0.9106 O   0  0  0  0  0  0  0  0  0  0  0  0
   71.3972   44.1762   -0.0288 C   0  0  0  0  0  0  0  0  0  0  0  0
   71.6507   44.6458   -1.4888 C   0  0  0  0  0  0  0  0  0  0  0  0
   71.8463   45.0113   -2.5645 C   0  0  0  0  0  0  0  0  0  0  0  0
   64.2602   48.6159    5.7694 H   0  0  0  0  0  0  0  0  0  0  0  0
  1  2  1  6
  3  2  1  1
  3  4  1  0
  4  5  1  0
  6  4  1  1
  4  7  1  6
  5  6  1  6
  5 11  1  0
  7  8  1  0
  8  9  2  0
  8 10  1  0
 10 11  1  0
 12 11  1  6
 11 13  1  6
 13 14  2  0
 13 15  1  0
 14 20  1  0
 15 16  1  0
 15 17  2  0
 17 18  1  0
 17 19  1  0
 19 20  2  0
 20 21  1  0
 21 22  1  0
 22 23  2  0
 22 24  1  0
 24 25  2  0
 24 27  1  0
 25 26  1  0
 26 29  2  0
 27 28  2  0
 28 29  1  0
 29 30  1  0
 30 31  1  0
 31 32  1  6
 32 33  3  0
  9 34  1  0
M  END
$$$$
