
     RDKit          3D

 34 37  0  0  0  0  0  0  0  0999 V2000
   64.1755   46.2055   12.3397 C   0  0  0  0  0  0  0  0  0  0  0  0
   65.4093   46.5863   11.9234 O   0  0  0  0  0  0  0  0  0  0  0  0
   65.5748   47.5945   11.0559 C   0  0  0  0  0  0  0  0  0  0  0  0
   66.7898   47.4766   10.1669 C   0  0  1  0  0  0  0  0  0  0  0  0
   67.7702   48.5314   10.0890 C   0  0  1  0  0  0  0  0  0  0  0  0
   68.1047   47.2972   10.8889 C   0  0  0  0  0  0  0  0  0  0  0  0
   66.4280   46.5713    8.6308 S   0  0  0  0  0  0  0  0  0  0  0  0
   66.7682   47.8013    7.3288 C   0  0  0  0  0  0  0  0  0  0  0  0
   66.0588   47.8478    6.3722 N   0  0  0  0  0  0  0  0  0  0  0  0
   67.9288   48.5893    7.5785 N   0  0  0  0  0  0  0  0  0  0  0  0
   68.4800   48.9056    8.8644 C   0  0  1  0  0  0  0  0  0  0  0  0
   68.4711   50.4672    8.8709 C   0  0  0  0  0  0  0  0  0  0  0  0
   69.9579   48.5704    8.8357 C   0  0  0  0  0  0  0  0  0  0  0  0
   70.4027   47.2486    8.7974 C   0  0  0  0  0  0  0  0  0  0  0  0
   70.8216   49.6257    8.9084 C   0  0  0  0  0  0  0  0  0  0  0  0
   70.4890   50.9264    9.0495 F   0  0  0  0  0  0  0  0  0  0  0  0
   72.1972   49.3250    8.9297 C   0  0  0  0  0  0  0  0  0  0  0  0
   73.0695   50.3976    8.9983 F   0  0  0  0  0  0  0  0  0  0  0  0
   72.6184   48.0580    8.8908 C   0  0  0  0  0  0  0  0  0  0  0  0
   71.7229   46.9296    8.8277 C   0  0  0  0  0  0  0  0  0  0  0  0
   72.3088   45.6896    8.9528 N   0  0  0  0  0  0  0  0  0  0  0  0
   73.0007   45.0466    9.9967 C   0  0  0  0  0  0  0  0  0  0  0  0
   73.6012   45.7714   10.8158 O   0  0  0  0  0  0  0  0  0  0  0  0
   72.9314   43.5752   10.0682 C   0  0  0  0  0  0  0  0  0  0  0  0
   73.8457   42.8349   10.7849 C   0  0  0  0  0  0  0  0  0  0  0  0
   73.5705   41.5594   11.0941 N   0  0  0  0  0  0  0  0  0  0  0  0
   71.8105   42.9347    9.7188 N   0  0  0  0  0  0  0  0  0  0  0  0
   71.5180   41.7058    9.9988 C   0  0  0  0  0  0  0  0  0  0  0  0
   72.4625   40.9060   10.7651 C   0  0  0  0  0  0  0  0  0  0  0  0
   72.0035   39.7331   10.9833 O   0  0  0  0  0  0  0  0  0  0  0  0
   71.9489   38.5041   11.3975 C   0  0  0  0  0  0  0  0  0  0  0  0
   73.0694   38.0151   12.3575 C   0  0  0  0  0  0  0  0  0  0  0  0
   73.9142   37.6595   13.0567 C   0  0  0  0  0  0  0  0  0  0  0  0
   65.5020   47.6444    5.5965 H   0  0  0  0  0  0  0  0  0  0  0  0
  1  2  1  6
  3  2  1  1
  3  4  1  0
  4  5  1  0
  6  4  1  1
  4  7  1  6
  5  6  1  1
  5 11  1  0
  7  8  1  0
  8  9  2  0
  8 10  1  0
 10 11  1  0
 12 11  1  6
 11 13  1  1
 13 14  2  0
 13 15  1  0
 14 20  1  0
 15 16  1  0
 15 17  2  0
 17 18  1  0
 17 19  1  0
 19 20  2  0
 20 21  1  0
 21 22  1  0
 22 23  2  0
 22 24  1  0
 24 25  2  0
 24 27  1  0
 25 26  1  0
 26 29  2  0
 27 28  2  0
 28 29  1  0
 29 30  1  0
 30 31  1  0
 31 32  1  6
 32 33  3  0
  9 34  1  0
M  END
$$$$
