
     RDKit          3D

 34 37  0  0  0  0  0  0  0  0999 V2000
   64.5738   47.8845   13.3196 C   0  0  0  0  0  0  0  0  0  0  0  0
   65.5776   47.8757   12.4070 O   0  0  0  0  0  0  0  0  0  0  0  0
   65.5326   47.0860   11.3250 C   0  0  0  0  0  0  0  0  0  0  0  0
   66.5888   47.3714   10.2841 C   0  0  1  0  0  0  0  0  0  0  0  0
   67.4006   48.5619   10.3428 C   0  0  1  0  0  0  0  0  0  0  0  0
   68.0170   47.2505   10.7616 C   0  0  0  0  0  0  0  0  0  0  0  0
   66.0959   46.7895    8.6322 S   0  0  0  0  0  0  0  0  0  0  0  0
   66.0569   48.3202    7.6425 C   0  0  0  0  0  0  0  0  0  0  0  0
   65.1989   48.4650    6.8280 N   0  0  0  0  0  0  0  0  0  0  0  0
   67.1331   49.2099    7.9263 N   0  0  0  0  0  0  0  0  0  0  0  0
   67.8447   49.3133    9.1674 C   0  0  1  0  0  0  0  0  0  0  0  0
   67.6386   50.8103    9.5615 C   0  0  0  0  0  0  0  0  0  0  0  0
   69.3279   49.2387    8.8644 C   0  0  0  0  0  0  0  0  0  0  0  0
   69.7940   48.9078    7.5917 C   0  0  0  0  0  0  0  0  0  0  0  0
   70.1740   49.4546    9.9144 C   0  0  0  0  0  0  0  0  0  0  0  0
   69.8192   49.6802   11.1972 F   0  0  0  0  0  0  0  0  0  0  0  0
   71.5539   49.3422    9.6565 C   0  0  0  0  0  0  0  0  0  0  0  0
   72.4082   49.5666   10.7222 F   0  0  0  0  0  0  0  0  0  0  0  0
   71.9954   49.0270    8.4358 C   0  0  0  0  0  0  0  0  0  0  0  0
   71.1187   48.7820    7.3177 C   0  0  0  0  0  0  0  0  0  0  0  0
   71.7227   48.3156    6.1713 N   0  0  0  0  0  0  0  0  0  0  0  0
   72.6166   47.2603    5.9086 C   0  0  0  0  0  0  0  0  0  0  0  0
   73.3056   46.8442    6.8620 O   0  0  0  0  0  0  0  0  0  0  0  0
   72.6433   46.7008    4.5443 C   0  0  0  0  0  0  0  0  0  0  0  0
   73.5495   45.7334    4.1693 C   0  0  0  0  0  0  0  0  0  0  0  0
   73.3400   45.0263    3.0493 N   0  0  0  0  0  0  0  0  0  0  0  0
   71.5988   46.8677    3.7259 N   0  0  0  0  0  0  0  0  0  0  0  0
   71.3711   46.2046    2.6385 C   0  0  0  0  0  0  0  0  0  0  0  0
   72.3076   45.1690    2.2267 C   0  0  0  0  0  0  0  0  0  0  0  0
   71.9151   44.5909    1.1563 O   0  0  0  0  0  0  0  0  0  0  0  0
   71.2168   43.8328    0.3673 C   0  0  0  0  0  0  0  0  0  0  0  0
   71.9580   42.6851   -0.3741 C   0  0  0  0  0  0  0  0  0  0  0  0
   72.4911   41.8228   -0.9230 C   0  0  0  0  0  0  0  0  0  0  0  0
   64.6846   48.6303    6.0149 H   0  0  0  0  0  0  0  0  0  0  0  0
  1  2  1  6
  3  2  1  1
  3  4  1  0
  4  5  1  0
  6  4  1  1
  4  7  1  6
  5  6  1  6
  5 11  1  0
  7  8  1  0
  8  9  2  0
  8 10  1  0
 10 11  1  0
 12 11  1  6
 11 13  1  6
 13 14  2  0
 13 15  1  0
 14 20  1  0
 15 16  1  0
 15 17  2  0
 17 18  1  0
 17 19  1  0
 19 20  2  0
 20 21  1  0
 21 22  1  0
 22 23  2  0
 22 24  1  0
 24 25  2  0
 24 27  1  0
 25 26  1  0
 26 29  2  0
 27 28  2  0
 28 29  1  0
 29 30  1  0
 30 31  1  0
 31 32  1  6
 32 33  3  0
  9 34  1  0
M  END
$$$$
