
     RDKit          3D

 34 37  0  0  0  0  0  0  0  0999 V2000
   63.3125   49.0770   11.5291 C   0  0  0  0  0  0  0  0  0  0  0  0
   64.1593   48.2661   10.8024 O   0  0  0  0  0  0  0  0  0  0  0  0
   65.4277   48.3427   11.2895 C   0  0  0  0  0  0  0  0  0  0  0  0
   66.4610   47.7260   10.3397 C   0  0  1  0  0  0  0  0  0  0  0  0
   67.7109   48.4960   10.1778 C   0  0  1  0  0  0  0  0  0  0  0  0
   67.7250   47.1221   10.6959 C   0  0  0  0  0  0  0  0  0  0  0  0
   65.6982   47.1479    8.7735 S   0  0  0  0  0  0  0  0  0  0  0  0
   66.4332   48.0896    7.5064 C   0  0  0  0  0  0  0  0  0  0  0  0
   65.7733   48.1639    6.3761 N   0  0  0  0  0  0  0  0  0  0  0  0
   67.6444   48.7354    7.6847 N   0  0  0  0  0  0  0  0  0  0  0  0
   68.2508   49.0358    8.9541 C   0  0  1  0  0  0  0  0  0  0  0  0
   67.9171   50.6055    9.0585 C   0  0  0  0  0  0  0  0  0  0  0  0
   69.7588   49.0452    8.8986 C   0  0  0  0  0  0  0  0  0  0  0  0
   70.4592   48.1288    8.1862 C   0  0  0  0  0  0  0  0  0  0  0  0
   70.4707   49.9345    9.5752 C   0  0  0  0  0  0  0  0  0  0  0  0
   69.8595   50.8906   10.3971 F   0  0  0  0  0  0  0  0  0  0  0  0
   71.8293   49.9617    9.5689 C   0  0  0  0  0  0  0  0  0  0  0  0
   72.4578   50.9437   10.2812 F   0  0  0  0  0  0  0  0  0  0  0  0
   72.4906   49.0435    8.8554 C   0  0  0  0  0  0  0  0  0  0  0  0
   71.8501   47.9534    8.0435 C   0  0  0  0  0  0  0  0  0  0  0  0
   72.5955   46.9722    7.4833 N   0  0  0  0  0  0  0  0  0  0  0  0
   72.6446   46.4743    6.2383 C   0  0  0  0  0  0  0  0  0  0  0  0
   72.0409   45.0538    6.7542 O   0  0  0  0  0  0  0  0  0  0  0  0
   72.7474   46.0883    4.9179 C   0  0  0  0  0  0  0  0  0  0  0  0
   71.6075   45.9029    4.0995 C   0  0  0  0  0  0  0  0  0  0  0  0
   71.7740   45.6127    2.8108 N   0  0  0  0  0  0  0  0  0  0  0  0
   73.9716   45.9320    4.3410 N   0  0  0  0  0  0  0  0  0  0  0  0
   74.1156   45.6320    2.9940 C   0  0  0  0  0  0  0  0  0  0  0  0
   72.9111   45.4893    2.2575 C   0  0  0  0  0  0  0  0  0  0  0  0
   73.0809   45.2208    0.8743 O   0  0  0  0  0  0  0  0  0  0  0  0
   71.8758   44.4182    0.2864 C   0  0  0  0  0  0  0  0  0  0  0  0
   71.0099   44.9351   -0.0266 C   0  0  0  0  0  0  0  0  0  0  0  0
   69.8482   45.6448   -0.4323 C   0  0  0  0  0  0  0  0  0  0  0  0
   66.2398   48.0636    5.4288 H   0  0  0  0  0  0  0  0  0  0  0  0
  1  2  1  0
  2  3  1  0
  4  3  1  1
  4  5  1  0
  4  6  1  0
  4  7  1  0
  5  6  1  6
  5 11  1  0
  7  8  1  0
  8  9  2  0
  8 10  1  0
 10 11  1  0
 11 12  1  1
 11 13  1  0
 13 14  2  0
 13 15  1  0
 14 20  1  0
 15 16  1  0
 15 17  2  0
 17 18  1  0
 17 19  1  0
 19 20  2  0
 20 21  1  0
 21 22  1  0
 22 23  2  0
 22 24  1  0
 24 25  2  0
 24 27  1  0
 25 26  1  0
 26 29  2  0
 27 28  2  0
 28 29  1  0
 29 30  1  0
 30 31  1  0
 31 32  1  0
 32 33  3  0
  9 34  1  0
M  END
$$$$
