
     RDKit          3D

 34 37  0  0  0  0  0  0  0  0999 V2000
   64.7910   47.3382   13.3459 C   0  0  0  0  0  0  0  0  0  0  0  0
   65.7516   47.2059   12.3648 O   0  0  0  0  0  0  0  0  0  0  0  0
   65.2211   47.4683   11.1393 C   0  0  0  0  0  0  0  0  0  0  0  0
   66.1682   47.0898    9.9948 C   0  0  1  0  0  0  0  0  0  0  0  0
   67.4081   47.8876    9.9092 C   0  0  1  0  0  0  0  0  0  0  0  0
   67.4510   46.4327   10.1027 C   0  0  0  0  0  0  0  0  0  0  0  0
   65.2755   46.8712    8.4060 S   0  0  0  0  0  0  0  0  0  0  0  0
   65.9144   48.0798    7.3273 C   0  0  0  0  0  0  0  0  0  0  0  0
   65.1659   48.4001    6.2998 N   0  0  0  0  0  0  0  0  0  0  0  0
   67.1421   48.6800    7.5473 N   0  0  0  0  0  0  0  0  0  0  0  0
   67.8522   48.6932    8.7982 C   0  0  1  0  0  0  0  0  0  0  0  0
   67.5430   50.1963    9.2790 C   0  0  0  0  0  0  0  0  0  0  0  0
   69.3507   48.7283    8.6242 C   0  0  0  0  0  0  0  0  0  0  0  0
   69.9844   47.9850    7.6841 C   0  0  0  0  0  0  0  0  0  0  0  0
   70.1216   49.4660    9.4096 C   0  0  0  0  0  0  0  0  0  0  0  0
   69.5860   50.2264   10.4576 F   0  0  0  0  0  0  0  0  0  0  0  0
   71.4754   49.5070    9.2994 C   0  0  0  0  0  0  0  0  0  0  0  0
   72.1666   50.3273   10.1456 F   0  0  0  0  0  0  0  0  0  0  0  0
   72.0700   48.7618    8.3609 C   0  0  0  0  0  0  0  0  0  0  0  0
   71.3579   47.8561    7.3964 C   0  0  0  0  0  0  0  0  0  0  0  0
   72.0483   47.0185    6.5877 N   0  0  0  0  0  0  0  0  0  0  0  0
   71.9415   46.7323    5.2812 C   0  0  0  0  0  0  0  0  0  0  0  0
   72.7872   48.0673    4.8926 O   0  0  0  0  0  0  0  0  0  0  0  0
   71.7585   46.3226    3.9767 C   0  0  0  0  0  0  0  0  0  0  0  0
   72.5033   45.2591    3.4128 C   0  0  0  0  0  0  0  0  0  0  0  0
   72.2221   44.8541    2.1760 N   0  0  0  0  0  0  0  0  0  0  0  0
   70.7974   46.9006    3.2033 N   0  0  0  0  0  0  0  0  0  0  0  0
   70.5237   46.4559    1.9178 C   0  0  0  0  0  0  0  0  0  0  0  0
   71.3114   45.3699    1.4557 C   0  0  0  0  0  0  0  0  0  0  0  0
   70.9896   44.9055    0.1537 O   0  0  0  0  0  0  0  0  0  0  0  0
   71.9012   43.7122   -0.2789 C   0  0  0  0  0  0  0  0  0  0  0  0
   71.5440   42.7233   -0.1823 C   0  0  0  0  0  0  0  0  0  0  0  0
   71.0729   41.3879   -0.0707 C   0  0  0  0  0  0  0  0  0  0  0  0
   65.5279   48.4070    5.3029 H   0  0  0  0  0  0  0  0  0  0  0  0
  1  2  1  0
  2  3  1  0
  4  3  1  1
  4  5  1  0
  4  6  1  0
  4  7  1  0
  5  6  1  6
  5 11  1  0
  7  8  1  0
  8  9  2  0
  8 10  1  0
 10 11  1  0
 11 12  1  1
 11 13  1  0
 13 14  2  0
 13 15  1  0
 14 20  1  0
 15 16  1  0
 15 17  2  0
 17 18  1  0
 17 19  1  0
 19 20  2  0
 20 21  1  0
 21 22  1  0
 22 23  2  0
 22 24  1  0
 24 25  2  0
 24 27  1  0
 25 26  1  0
 26 29  2  0
 27 28  2  0
 28 29  1  0
 29 30  1  0
 30 31  1  0
 31 32  1  0
 32 33  3  0
  9 34  1  0
M  END
$$$$
