
     RDKit          3D

 34 37  0  0  0  0  0  0  0  0999 V2000
   63.8420   49.8226   13.1590 C   0  0  0  0  0  0  0  0  0  0  0  0
   64.3064   49.0728   12.0983 O   0  0  0  0  0  0  0  0  0  0  0  0
   65.6671   49.0599   12.0827 C   0  0  0  0  0  0  0  0  0  0  0  0
   66.2347   48.2793   10.8917 C   0  0  1  0  0  0  0  0  0  0  0  0
   67.5285   48.7678   10.3732 C   0  0  1  0  0  0  0  0  0  0  0  0
   67.3825   47.4008   10.8891 C   0  0  0  0  0  0  0  0  0  0  0  0
   64.9601   47.9528    9.6119 S   0  0  0  0  0  0  0  0  0  0  0  0
   65.5040   48.7712    8.1742 C   0  0  0  0  0  0  0  0  0  0  0  0
   64.5902   49.0386    7.2732 N   0  0  0  0  0  0  0  0  0  0  0  0
   66.8285   49.1312    7.9952 N   0  0  0  0  0  0  0  0  0  0  0  0
   67.8135   49.2344    9.0385 C   0  0  1  0  0  0  0  0  0  0  0  0
   67.8760   50.8325    9.2064 C   0  0  0  0  0  0  0  0  0  0  0  0
   69.2105   48.9204    8.5623 C   0  0  0  0  0  0  0  0  0  0  0  0
   69.4657   47.9122    7.6927 C   0  0  0  0  0  0  0  0  0  0  0  0
   70.2603   49.5987    9.0019 C   0  0  0  0  0  0  0  0  0  0  0  0
   70.1276   50.6208    9.9512 F   0  0  0  0  0  0  0  0  0  0  0  0
   71.5352   49.3319    8.6147 C   0  0  0  0  0  0  0  0  0  0  0  0
   72.5374   50.1168    9.1109 F   0  0  0  0  0  0  0  0  0  0  0  0
   71.7531   48.3304    7.7550 C   0  0  0  0  0  0  0  0  0  0  0  0
   70.6882   47.4478    7.1679 C   0  0  0  0  0  0  0  0  0  0  0  0
   71.0130   46.3588    6.4324 N   0  0  0  0  0  0  0  0  0  0  0  0
   71.7375   46.2080    5.3132 C   0  0  0  0  0  0  0  0  0  0  0  0
   73.0660   45.8642    6.1880 O   0  0  0  0  0  0  0  0  0  0  0  0
   72.3637   46.0834    4.0904 C   0  0  0  0  0  0  0  0  0  0  0  0
   73.0189   44.8906    3.7010 C   0  0  0  0  0  0  0  0  0  0  0  0
   73.5313   44.8019    2.4754 N   0  0  0  0  0  0  0  0  0  0  0  0
   72.3146   47.1014    3.1863 N   0  0  0  0  0  0  0  0  0  0  0  0
   72.8550   46.9802    1.9141 C   0  0  0  0  0  0  0  0  0  0  0  0
   73.4690   45.7361    1.6164 C   0  0  0  0  0  0  0  0  0  0  0  0
   73.9810   45.6192    0.2978 O   0  0  0  0  0  0  0  0  0  0  0  0
   73.8017   44.1737   -0.2685 C   0  0  0  0  0  0  0  0  0  0  0  0
   72.8508   43.8613   -0.6050 C   0  0  0  0  0  0  0  0  0  0  0  0
   71.5641   43.4434   -1.0378 C   0  0  0  0  0  0  0  0  0  0  0  0
   64.6909   48.7685    6.2524 H   0  0  0  0  0  0  0  0  0  0  0  0
  1  2  1  0
  2  3  1  0
  4  3  1  1
  4  5  1  0
  4  6  1  0
  4  7  1  0
  5  6  1  6
  5 11  1  0
  7  8  1  0
  8  9  2  0
  8 10  1  0
 10 11  1  0
 11 12  1  1
 11 13  1  0
 13 14  2  0
 13 15  1  0
 14 20  1  0
 15 16  1  0
 15 17  2  0
 17 18  1  0
 17 19  1  0
 19 20  2  0
 20 21  1  0
 21 22  1  0
 22 23  2  0
 22 24  1  0
 24 25  2  0
 24 27  1  0
 25 26  1  0
 26 29  2  0
 27 28  2  0
 28 29  1  0
 29 30  1  0
 30 31  1  0
 31 32  1  0
 32 33  3  0
  9 34  1  0
M  END
$$$$
