
     RDKit          3D

 34 37  0  0  0  0  0  0  0  0999 V2000
   63.0700   48.3100   11.9292 C   0  0  0  0  0  0  0  0  0  0  0  0
   64.0043   48.7275   11.0042 O   0  0  0  0  0  0  0  0  0  0  0  0
   65.2647   48.4868   11.4574 C   0  0  0  0  0  0  0  0  0  0  0  0
   66.1532   47.8214   10.4000 C   0  0  1  0  0  0  0  0  0  0  0  0
   67.4596   48.4710   10.1712 C   0  0  1  0  0  0  0  0  0  0  0  0
   67.3717   47.0772   10.6247 C   0  0  0  0  0  0  0  0  0  0  0  0
   65.2171   47.4049    8.8771 S   0  0  0  0  0  0  0  0  0  0  0  0
   65.9459   48.3342    7.5974 C   0  0  0  0  0  0  0  0  0  0  0  0
   65.2126   48.5329    6.5292 N   0  0  0  0  0  0  0  0  0  0  0  0
   67.2273   48.8464    7.7050 N   0  0  0  0  0  0  0  0  0  0  0  0
   67.9570   49.0181    8.9327 C   0  0  1  0  0  0  0  0  0  0  0  0
   67.7958   50.6055    9.1337 C   0  0  0  0  0  0  0  0  0  0  0  0
   69.4491   48.8807    8.7549 C   0  0  0  0  0  0  0  0  0  0  0  0
   69.9955   47.9236    7.9654 C   0  0  0  0  0  0  0  0  0  0  0  0
   70.2980   49.6729    9.3930 C   0  0  0  0  0  0  0  0  0  0  0  0
   69.8528   50.6572   10.2854 F   0  0  0  0  0  0  0  0  0  0  0  0
   71.6477   49.5664    9.2769 C   0  0  0  0  0  0  0  0  0  0  0  0
   72.4260   50.4579    9.9597 F   0  0  0  0  0  0  0  0  0  0  0  0
   72.1550   48.6113    8.4894 C   0  0  0  0  0  0  0  0  0  0  0  0
   71.3461   47.6168    7.7057 C   0  0  0  0  0  0  0  0  0  0  0  0
   71.9425   46.5858    7.0625 N   0  0  0  0  0  0  0  0  0  0  0  0
   72.0719   46.2868    5.7610 C   0  0  0  0  0  0  0  0  0  0  0  0
   73.6649   46.0162    5.9544 O   0  0  0  0  0  0  0  0  0  0  0  0
   72.0655   46.0038    4.4108 C   0  0  0  0  0  0  0  0  0  0  0  0
   71.1602   45.0756    3.8430 C   0  0  0  0  0  0  0  0  0  0  0  0
   71.1455   44.9080    2.5222 N   0  0  0  0  0  0  0  0  0  0  0  0
   72.9037   46.6667    3.5658 N   0  0  0  0  0  0  0  0  0  0  0  0
   72.8646   46.4743    2.1923 C   0  0  0  0  0  0  0  0  0  0  0  0
   71.9057   45.5393    1.7235 C   0  0  0  0  0  0  0  0  0  0  0  0
   71.8557   45.3859    0.3134 O   0  0  0  0  0  0  0  0  0  0  0  0
   72.5545   44.0681   -0.1524 C   0  0  0  0  0  0  0  0  0  0  0  0
   72.0306   43.3926   -0.7723 C   0  0  0  0  0  0  0  0  0  0  0  0
   71.3190   42.4738   -1.5890 C   0  0  0  0  0  0  0  0  0  0  0  0
   65.6198   48.5782    5.5508 H   0  0  0  0  0  0  0  0  0  0  0  0
  1  2  1  0
  2  3  1  0
  4  3  1  1
  4  5  1  0
  4  6  1  0
  4  7  1  0
  5  6  1  6
  5 11  1  0
  7  8  1  0
  8  9  2  0
  8 10  1  0
 10 11  1  0
 11 12  1  1
 11 13  1  0
 13 14  2  0
 13 15  1  0
 14 20  1  0
 15 16  1  0
 15 17  2  0
 17 18  1  0
 17 19  1  0
 19 20  2  0
 20 21  1  0
 21 22  1  0
 22 23  2  0
 22 24  1  0
 24 25  2  0
 24 27  1  0
 25 26  1  0
 26 29  2  0
 27 28  2  0
 28 29  1  0
 29 30  1  0
 30 31  1  0
 31 32  1  0
 32 33  3  0
  9 34  1  0
M  END
$$$$
