
     RDKit          3D

 34 37  0  0  0  0  0  0  0  0999 V2000
   63.2446   46.2392   11.2521 C   0  0  0  0  0  0  0  0  0  0  0  0
   64.2334   46.8719   10.5719 O   0  0  0  0  0  0  0  0  0  0  0  0
   65.5148   46.7804   10.9539 C   0  0  0  0  0  0  0  0  0  0  0  0
   66.5237   47.1461    9.8914 C   0  0  1  0  0  0  0  0  0  0  0  0
   67.2689   48.3792    9.9541 C   0  0  1  0  0  0  0  0  0  0  0  0
   67.9693   47.0965   10.3275 C   0  0  0  0  0  0  0  0  0  0  0  0
   66.0178   46.5707    8.2412 S   0  0  0  0  0  0  0  0  0  0  0  0
   65.8653   48.1164    7.2864 C   0  0  0  0  0  0  0  0  0  0  0  0
   64.9780   48.2290    6.4987 N   0  0  0  0  0  0  0  0  0  0  0  0
   66.8976   49.0597    7.5604 N   0  0  0  0  0  0  0  0  0  0  0  0
   67.6369   49.1781    8.7838 C   0  0  1  0  0  0  0  0  0  0  0  0
   67.3585   50.6527    9.2159 C   0  0  0  0  0  0  0  0  0  0  0  0
   69.1129   49.1937    8.4394 C   0  0  0  0  0  0  0  0  0  0  0  0
   69.5686   48.8142    7.1765 C   0  0  0  0  0  0  0  0  0  0  0  0
   69.9679   49.5411    9.4460 C   0  0  0  0  0  0  0  0  0  0  0  0
   69.6314   49.8246   10.7222 F   0  0  0  0  0  0  0  0  0  0  0  0
   71.3449   49.5144    9.1523 C   0  0  0  0  0  0  0  0  0  0  0  0
   72.2079   49.8720   10.1737 F   0  0  0  0  0  0  0  0  0  0  0  0
   71.7763   49.1523    7.9410 C   0  0  0  0  0  0  0  0  0  0  0  0
   70.8911   48.7690    6.8693 C   0  0  0  0  0  0  0  0  0  0  0  0
   71.4980   48.2734    5.7368 N   0  0  0  0  0  0  0  0  0  0  0  0
   72.5029   47.3120    5.5187 C   0  0  0  0  0  0  0  0  0  0  0  0
   73.2765   47.0687    6.4669 O   0  0  0  0  0  0  0  0  0  0  0  0
   72.5415   46.6380    4.2075 C   0  0  0  0  0  0  0  0  0  0  0  0
   73.4913   45.6881    3.9022 C   0  0  0  0  0  0  0  0  0  0  0  0
   73.3046   44.8768    2.8510 N   0  0  0  0  0  0  0  0  0  0  0  0
   71.4798   46.6808    3.3952 N   0  0  0  0  0  0  0  0  0  0  0  0
   71.2730   45.9150    2.3729 C   0  0  0  0  0  0  0  0  0  0  0  0
   72.2562   44.8957    2.0364 C   0  0  0  0  0  0  0  0  0  0  0  0
   71.8807   44.2079    1.0266 O   0  0  0  0  0  0  0  0  0  0  0  0
   71.9511   43.5023   -0.0607 C   0  0  0  0  0  0  0  0  0  0  0  0
   72.4899   44.2001   -1.3409 C   0  0  0  0  0  0  0  0  0  0  0  0
   72.8868   44.7006   -2.3006 C   0  0  0  0  0  0  0  0  0  0  0  0
   64.2512   48.0786    5.8645 H   0  0  0  0  0  0  0  0  0  0  0  0
  1  2  1  6
  3  2  1  1
  3  4  1  0
  4  5  1  0
  6  4  1  1
  4  7  1  6
  5  6  1  6
  5 11  1  0
  7  8  1  0
  8  9  2  0
  8 10  1  0
 10 11  1  0
 12 11  1  6
 11 13  1  6
 13 14  2  0
 13 15  1  0
 14 20  1  0
 15 16  1  0
 15 17  2  0
 17 18  1  0
 17 19  1  0
 19 20  2  0
 20 21  1  0
 21 22  1  0
 22 23  2  0
 22 24  1  0
 24 25  2  0
 24 27  1  0
 25 26  1  0
 26 29  2  0
 27 28  2  0
 28 29  1  0
 29 30  1  0
 30 31  1  0
 31 32  1  6
 32 33  3  0
  9 34  1  0
M  END
$$$$
