
     RDKit          3D

 34 37  0  0  0  0  0  0  0  0999 V2000
   64.4810   45.4108   12.2752 C   0  0  0  0  0  0  0  0  0  0  0  0
   65.2339   45.8157   11.2217 O   0  0  0  0  0  0  0  0  0  0  0  0
   65.5736   47.1018   11.0577 C   0  0  0  0  0  0  0  0  0  0  0  0
   66.5361   47.3667    9.9246 C   0  0  1  0  0  0  0  0  0  0  0  0
   67.3408   48.5627    9.8851 C   0  0  1  0  0  0  0  0  0  0  0  0
   68.0003   47.2657   10.2826 C   0  0  0  0  0  0  0  0  0  0  0  0
   65.9101   46.7405    8.3352 S   0  0  0  0  0  0  0  0  0  0  0  0
   65.7760   48.2455    7.3148 C   0  0  0  0  0  0  0  0  0  0  0  0
   64.8514   48.3650    6.5724 N   0  0  0  0  0  0  0  0  0  0  0  0
   66.8655   49.1480    7.4846 N   0  0  0  0  0  0  0  0  0  0  0  0
   67.6784   49.2867    8.6582 C   0  0  1  0  0  0  0  0  0  0  0  0
   67.4949   50.7919    9.0313 C   0  0  0  0  0  0  0  0  0  0  0  0
   69.1313   49.2126    8.2329 C   0  0  0  0  0  0  0  0  0  0  0  0
   69.4956   48.7533    6.9668 C   0  0  0  0  0  0  0  0  0  0  0  0
   70.0580   49.5628    9.1729 C   0  0  0  0  0  0  0  0  0  0  0  0
   69.8089   49.9211   10.4504 F   0  0  0  0  0  0  0  0  0  0  0  0
   71.4132   49.4538    8.8057 C   0  0  0  0  0  0  0  0  0  0  0  0
   72.3492   49.8144    9.7596 F   0  0  0  0  0  0  0  0  0  0  0  0
   71.7570   49.0154    7.5917 C   0  0  0  0  0  0  0  0  0  0  0  0
   70.7948   48.6280    6.5901 C   0  0  0  0  0  0  0  0  0  0  0  0
   71.3117   48.0512    5.4514 N   0  0  0  0  0  0  0  0  0  0  0  0
   72.5274   47.4039    5.1602 C   0  0  0  0  0  0  0  0  0  0  0  0
   73.4181   47.4414    6.0332 O   0  0  0  0  0  0  0  0  0  0  0  0
   72.6434   46.6992    3.8700 C   0  0  0  0  0  0  0  0  0  0  0  0
   73.7006   45.8626    3.5871 C   0  0  0  0  0  0  0  0  0  0  0  0
   73.6104   45.0022    2.5625 N   0  0  0  0  0  0  0  0  0  0  0  0
   71.5817   46.5875    3.0643 N   0  0  0  0  0  0  0  0  0  0  0  0
   71.4661   45.7709    2.0673 C   0  0  0  0  0  0  0  0  0  0  0  0
   72.5648   44.8684    1.7551 C   0  0  0  0  0  0  0  0  0  0  0  0
   72.2724   44.1090    0.7694 O   0  0  0  0  0  0  0  0  0  0  0  0
   72.0366   43.7331   -0.4505 C   0  0  0  0  0  0  0  0  0  0  0  0
   72.8447   44.4201   -1.5869 C   0  0  0  0  0  0  0  0  0  0  0  0
   73.4499   44.9115   -2.4361 C   0  0  0  0  0  0  0  0  0  0  0  0
   64.1557   48.6977    5.9736 H   0  0  0  0  0  0  0  0  0  0  0  0
  1  2  1  6
  3  2  1  1
  3  4  1  0
  4  5  1  0
  6  4  1  1
  4  7  1  6
  5  6  1  6
  5 11  1  0
  7  8  1  0
  8  9  2  0
  8 10  1  0
 10 11  1  0
 12 11  1  6
 11 13  1  6
 13 14  2  0
 13 15  1  0
 14 20  1  0
 15 16  1  0
 15 17  2  0
 17 18  1  0
 17 19  1  0
 19 20  2  0
 20 21  1  0
 21 22  1  0
 22 23  2  0
 22 24  1  0
 24 25  2  0
 24 27  1  0
 25 26  1  0
 26 29  2  0
 27 28  2  0
 28 29  1  0
 29 30  1  0
 30 31  1  0
 31 32  1  6
 32 33  3  0
  9 34  1  0
M  END
$$$$
