
     RDKit          3D

 34 37  0  0  0  0  0  0  0  0999 V2000
   63.3078   47.9886   11.3637 C   0  0  0  0  0  0  0  0  0  0  0  0
   64.2449   47.6868   10.3975 O   0  0  0  0  0  0  0  0  0  0  0  0
   65.5021   47.9227   10.8622 C   0  0  0  0  0  0  0  0  0  0  0  0
   66.5860   47.5358    9.8495 C   0  0  1  0  0  0  0  0  0  0  0  0
   67.7640   48.4259    9.8121 C   0  0  1  0  0  0  0  0  0  0  0  0
   67.8976   46.9996   10.1348 C   0  0  0  0  0  0  0  0  0  0  0  0
   65.8778   47.1177    8.2086 S   0  0  0  0  0  0  0  0  0  0  0  0
   66.5287   48.2866    7.0939 C   0  0  0  0  0  0  0  0  0  0  0  0
   65.8657   48.4603    5.9764 N   0  0  0  0  0  0  0  0  0  0  0  0
   67.6787   49.0035    7.3757 N   0  0  0  0  0  0  0  0  0  0  0  0
   68.2557   49.1754    8.6821 C   0  0  1  0  0  0  0  0  0  0  0  0
   67.7861   50.6805    8.9989 C   0  0  0  0  0  0  0  0  0  0  0  0
   69.7571   49.3226    8.6479 C   0  0  0  0  0  0  0  0  0  0  0  0
   70.5010   48.8779    7.6055 C   0  0  0  0  0  0  0  0  0  0  0  0
   70.4224   49.8660    9.6566 C   0  0  0  0  0  0  0  0  0  0  0  0
   69.7676   50.3038   10.8155 F   0  0  0  0  0  0  0  0  0  0  0  0
   71.7749   49.9958    9.6734 C   0  0  0  0  0  0  0  0  0  0  0  0
   72.3514   50.5995   10.7550 F   0  0  0  0  0  0  0  0  0  0  0  0
   72.4799   49.5470    8.6288 C   0  0  0  0  0  0  0  0  0  0  0  0
   71.8964   48.8906    7.4097 C   0  0  0  0  0  0  0  0  0  0  0  0
   72.6939   48.3234    6.4745 N   0  0  0  0  0  0  0  0  0  0  0  0
   72.4296   47.5479    5.4120 C   0  0  0  0  0  0  0  0  0  0  0  0
   73.0415   46.2476    6.1756 O   0  0  0  0  0  0  0  0  0  0  0  0
   72.1052   46.8669    4.2570 C   0  0  0  0  0  0  0  0  0  0  0  0
   72.9416   45.8590    3.7202 C   0  0  0  0  0  0  0  0  0  0  0  0
   72.5340   45.1787    2.6508 N   0  0  0  0  0  0  0  0  0  0  0  0
   70.9222   47.1085    3.6261 N   0  0  0  0  0  0  0  0  0  0  0  0
   70.5213   46.3817    2.5142 C   0  0  0  0  0  0  0  0  0  0  0  0
   71.4219   45.3792    2.0700 C   0  0  0  0  0  0  0  0  0  0  0  0
   70.9758   44.6219    0.9556 O   0  0  0  0  0  0  0  0  0  0  0  0
   72.1697   44.0098    0.1543 C   0  0  0  0  0  0  0  0  0  0  0  0
   72.6699   44.5993   -0.5650 C   0  0  0  0  0  0  0  0  0  0  0  0
   73.3609   45.3823   -1.5278 C   0  0  0  0  0  0  0  0  0  0  0  0
   66.3422   48.5873    5.0374 H   0  0  0  0  0  0  0  0  0  0  0  0
  1  2  1  0
  2  3  1  0
  4  3  1  1
  4  5  1  0
  4  6  1  0
  4  7  1  0
  5  6  1  6
  5 11  1  0
  7  8  1  0
  8  9  2  0
  8 10  1  0
 10 11  1  0
 11 12  1  1
 11 13  1  0
 13 14  2  0
 13 15  1  0
 14 20  1  0
 15 16  1  0
 15 17  2  0
 17 18  1  0
 17 19  1  0
 19 20  2  0
 20 21  1  0
 21 22  1  0
 22 23  2  0
 22 24  1  0
 24 25  2  0
 24 27  1  0
 25 26  1  0
 26 29  2  0
 27 28  2  0
 28 29  1  0
 29 30  1  0
 30 31  1  0
 31 32  1  0
 32 33  3  0
  9 34  1  0
M  END
$$$$
