
     RDKit          3D

 34 37  0  0  0  0  0  0  0  0999 V2000
   63.9319   45.9187   12.0605 C   0  0  0  0  0  0  0  0  0  0  0  0
   65.2079   46.2146   11.7071 O   0  0  0  0  0  0  0  0  0  0  0  0
   65.5810   47.4692   11.4185 C   0  0  0  0  0  0  0  0  0  0  0  0
   66.4751   47.6055   10.2092 C   0  0  1  0  0  0  0  0  0  0  0  0
   67.4093   48.6969   10.0835 C   0  0  1  0  0  0  0  0  0  0  0  0
   67.9410   47.3351   10.4548 C   0  0  0  0  0  0  0  0  0  0  0  0
   65.6559   47.0410    8.6859 S   0  0  0  0  0  0  0  0  0  0  0  0
   65.6194   48.5400    7.6488 C   0  0  0  0  0  0  0  0  0  0  0  0
   64.6594   48.7605    6.9780 N   0  0  0  0  0  0  0  0  0  0  0  0
   66.8175   49.3084    7.7156 N   0  0  0  0  0  0  0  0  0  0  0  0
   67.7314   49.3622    8.8198 C   0  0  1  0  0  0  0  0  0  0  0  0
   67.7564   50.8826    9.1755 C   0  0  0  0  0  0  0  0  0  0  0  0
   69.1273   49.1114    8.2849 C   0  0  0  0  0  0  0  0  0  0  0  0
   69.3329   48.4810    7.0574 C   0  0  0  0  0  0  0  0  0  0  0  0
   70.1634   49.4818    9.0938 C   0  0  0  0  0  0  0  0  0  0  0  0
   70.0652   50.0033   10.3351 F   0  0  0  0  0  0  0  0  0  0  0  0
   71.4650   49.2117    8.6289 C   0  0  0  0  0  0  0  0  0  0  0  0
   72.5125   49.5932    9.4494 F   0  0  0  0  0  0  0  0  0  0  0  0
   71.6569   48.6097    7.4520 C   0  0  0  0  0  0  0  0  0  0  0  0
   70.5768   48.1987    6.5897 C   0  0  0  0  0  0  0  0  0  0  0  0
   70.9367   47.4529    5.4894 N   0  0  0  0  0  0  0  0  0  0  0  0
   72.1755   47.1111    4.9145 C   0  0  0  0  0  0  0  0  0  0  0  0
   73.1937   47.6588    5.3836 O   0  0  0  0  0  0  0  0  0  0  0  0
   72.1825   46.1069    3.8345 C   0  0  0  0  0  0  0  0  0  0  0  0
   71.0452   45.7893    3.1251 C   0  0  0  0  0  0  0  0  0  0  0  0
   71.1509   45.1322    1.9610 N   0  0  0  0  0  0  0  0  0  0  0  0
   73.3376   45.7101    3.2895 N   0  0  0  0  0  0  0  0  0  0  0  0
   73.4717   45.0727    2.1715 C   0  0  0  0  0  0  0  0  0  0  0  0
   72.2859   44.7357    1.3974 C   0  0  0  0  0  0  0  0  0  0  0  0
   72.5984   44.1426    0.3090 O   0  0  0  0  0  0  0  0  0  0  0  0
   72.9778   43.9745   -0.9209 C   0  0  0  0  0  0  0  0  0  0  0  0
   72.5034   45.0170   -1.9719 C   0  0  0  0  0  0  0  0  0  0  0  0
   72.1332   45.7818   -2.7511 C   0  0  0  0  0  0  0  0  0  0  0  0
   64.0398   48.9830    6.2570 H   0  0  0  0  0  0  0  0  0  0  0  0
  1  2  1  6
  3  2  1  1
  3  4  1  0
  4  5  1  0
  6  4  1  1
  4  7  1  6
  5  6  1  6
  5 11  1  0
  7  8  1  0
  8  9  2  0
  8 10  1  0
 10 11  1  0
 12 11  1  6
 11 13  1  6
 13 14  2  0
 13 15  1  0
 14 20  1  0
 15 16  1  0
 15 17  2  0
 17 18  1  0
 17 19  1  0
 19 20  2  0
 20 21  1  0
 21 22  1  0
 22 23  2  0
 22 24  1  0
 24 25  2  0
 24 27  1  0
 25 26  1  0
 26 29  2  0
 27 28  2  0
 28 29  1  0
 29 30  1  0
 30 31  1  0
 31 32  1  6
 32 33  3  0
  9 34  1  0
M  END
$$$$
