
     RDKit          3D

 34 37  0  0  0  0  0  0  0  0999 V2000
   63.6478   46.4135   11.3934 C   0  0  0  0  0  0  0  0  0  0  0  0
   64.2116   47.3189   10.5186 O   0  0  0  0  0  0  0  0  0  0  0  0
   65.4290   47.7250   10.9713 C   0  0  0  0  0  0  0  0  0  0  0  0
   66.5684   47.3422   10.0199 C   0  0  1  0  0  0  0  0  0  0  0  0
   67.7226   48.2636   10.0115 C   0  0  1  0  0  0  0  0  0  0  0  0
   67.8793   46.8506   10.3790 C   0  0  0  0  0  0  0  0  0  0  0  0
   65.9479   46.8616    8.3606 S   0  0  0  0  0  0  0  0  0  0  0  0
   66.6180   48.0186    7.2449 C   0  0  0  0  0  0  0  0  0  0  0  0
   66.0028   48.1444    6.0941 N   0  0  0  0  0  0  0  0  0  0  0  0
   67.7343   48.7745    7.5587 N   0  0  0  0  0  0  0  0  0  0  0  0
   68.2456   48.9967    8.8848 C   0  0  1  0  0  0  0  0  0  0  0  0
   67.7219   50.4959    9.1384 C   0  0  0  0  0  0  0  0  0  0  0  0
   69.7425   49.1849    8.9147 C   0  0  0  0  0  0  0  0  0  0  0  0
   70.5726   48.4887    8.0997 C   0  0  0  0  0  0  0  0  0  0  0  0
   70.3183   50.0195    9.7676 C   0  0  0  0  0  0  0  0  0  0  0  0
   69.5681   50.7458   10.7020 F   0  0  0  0  0  0  0  0  0  0  0  0
   71.6631   50.1999    9.8407 C   0  0  0  0  0  0  0  0  0  0  0  0
   72.1436   51.1097   10.7396 F   0  0  0  0  0  0  0  0  0  0  0  0
   72.4546   49.4977    9.0221 C   0  0  0  0  0  0  0  0  0  0  0  0
   71.9786   48.4978    8.0067 C   0  0  0  0  0  0  0  0  0  0  0  0
   72.8557   47.7171    7.3332 N   0  0  0  0  0  0  0  0  0  0  0  0
   72.8228   47.1708    6.1082 C   0  0  0  0  0  0  0  0  0  0  0  0
   72.8233   45.6740    6.7468 O   0  0  0  0  0  0  0  0  0  0  0  0
   72.7888   46.7418    4.7975 C   0  0  0  0  0  0  0  0  0  0  0  0
   72.4188   45.4205    4.4499 C   0  0  0  0  0  0  0  0  0  0  0  0
   72.3228   45.0904    3.1636 N   0  0  0  0  0  0  0  0  0  0  0  0
   73.0563   47.6107    3.7829 N   0  0  0  0  0  0  0  0  0  0  0  0
   72.9454   47.2400    2.4504 C   0  0  0  0  0  0  0  0  0  0  0  0
   72.5458   45.8999    2.2100 C   0  0  0  0  0  0  0  0  0  0  0  0
   72.4011   45.5524    0.8415 O   0  0  0  0  0  0  0  0  0  0  0  0
   71.3943   44.3735    0.6452 C   0  0  0  0  0  0  0  0  0  0  0  0
   70.3575   44.5727    0.6263 C   0  0  0  0  0  0  0  0  0  0  0  0
   68.9651   44.8505    0.5821 C   0  0  0  0  0  0  0  0  0  0  0  0
   66.0715   49.0178    5.4964 H   0  0  0  0  0  0  0  0  0  0  0  0
  1  2  1  0
  2  3  1  0
  4  3  1  1
  4  5  1  0
  4  6  1  0
  4  7  1  0
  5  6  1  6
  5 11  1  0
  7  8  1  0
  8  9  2  0
  8 10  1  0
 10 11  1  0
 11 12  1  1
 11 13  1  0
 13 14  2  0
 13 15  1  0
 14 20  1  0
 15 16  1  0
 15 17  2  0
 17 18  1  0
 17 19  1  0
 19 20  2  0
 20 21  1  0
 21 22  1  0
 22 23  2  0
 22 24  1  0
 24 25  2  0
 24 27  1  0
 25 26  1  0
 26 29  2  0
 27 28  2  0
 28 29  1  0
 29 30  1  0
 30 31  1  0
 31 32  1  0
 32 33  3  0
  9 34  1  0
M  END
$$$$
