
     RDKit          3D

 34 37  0  0  0  0  0  0  0  0999 V2000
   63.4697   46.8113   11.8632 C   0  0  0  0  0  0  0  0  0  0  0  0
   64.2002   47.2661   10.7851 O   0  0  0  0  0  0  0  0  0  0  0  0
   65.4759   47.5550   11.1610 C   0  0  0  0  0  0  0  0  0  0  0  0
   66.4799   47.3848   10.0151 C   0  0  1  0  0  0  0  0  0  0  0  0
   67.6449   48.2916   10.0543 C   0  0  1  0  0  0  0  0  0  0  0  0
   67.8136   46.8336   10.0960 C   0  0  0  0  0  0  0  0  0  0  0  0
   65.6483   47.2611    8.3835 S   0  0  0  0  0  0  0  0  0  0  0  0
   66.2015   48.6290    7.4588 C   0  0  0  0  0  0  0  0  0  0  0  0
   65.4518   48.9914    6.4463 N   0  0  0  0  0  0  0  0  0  0  0  0
   67.3649   49.3063    7.7807 N   0  0  0  0  0  0  0  0  0  0  0  0
   68.0412   49.2469    9.0489 C   0  0  1  0  0  0  0  0  0  0  0  0
   67.5872   50.6575    9.6738 C   0  0  0  0  0  0  0  0  0  0  0  0
   69.5342   49.4302    8.9292 C   0  0  0  0  0  0  0  0  0  0  0  0
   70.1866   49.2772    7.7507 C   0  0  0  0  0  0  0  0  0  0  0  0
   70.2831   49.7174    9.9837 C   0  0  0  0  0  0  0  0  0  0  0  0
   69.7295   49.8365   11.2654 F   0  0  0  0  0  0  0  0  0  0  0  0
   71.6322   49.8679    9.9209 C   0  0  0  0  0  0  0  0  0  0  0  0
   72.2987   50.1933   11.0683 F   0  0  0  0  0  0  0  0  0  0  0  0
   72.2455   49.7106    8.7425 C   0  0  0  0  0  0  0  0  0  0  0  0
   71.5602   49.3686    7.4499 C   0  0  0  0  0  0  0  0  0  0  0  0
   72.2751   49.0713    6.3395 N   0  0  0  0  0  0  0  0  0  0  0  0
   72.2162   48.0473    5.4746 C   0  0  0  0  0  0  0  0  0  0  0  0
   71.0899   47.3072    6.3868 O   0  0  0  0  0  0  0  0  0  0  0  0
   72.2540   47.0629    4.5089 C   0  0  0  0  0  0  0  0  0  0  0  0
   71.2904   46.9890    3.4747 C   0  0  0  0  0  0  0  0  0  0  0  0
   71.4285   46.0677    2.5235 N   0  0  0  0  0  0  0  0  0  0  0  0
   73.2717   46.1574    4.4901 N   0  0  0  0  0  0  0  0  0  0  0  0
   73.3924   45.2093    3.4843 C   0  0  0  0  0  0  0  0  0  0  0  0
   72.3872   45.2349    2.4831 C   0  0  0  0  0  0  0  0  0  0  0  0
   72.5505   44.2828    1.4434 O   0  0  0  0  0  0  0  0  0  0  0  0
   71.3867   44.3541    0.4028 C   0  0  0  0  0  0  0  0  0  0  0  0
   71.0284   45.2959    0.0872 C   0  0  0  0  0  0  0  0  0  0  0  0
   70.5336   46.5634   -0.3205 C   0  0  0  0  0  0  0  0  0  0  0  0
   65.8525   49.3400    5.5282 H   0  0  0  0  0  0  0  0  0  0  0  0
  1  2  1  0
  2  3  1  0
  4  3  1  1
  4  5  1  0
  4  6  1  0
  4  7  1  0
  5  6  1  6
  5 11  1  0
  7  8  1  0
  8  9  2  0
  8 10  1  0
 10 11  1  0
 11 12  1  1
 11 13  1  0
 13 14  2  0
 13 15  1  0
 14 20  1  0
 15 16  1  0
 15 17  2  0
 17 18  1  0
 17 19  1  0
 19 20  2  0
 20 21  1  0
 21 22  1  0
 22 23  2  0
 22 24  1  0
 24 25  2  0
 24 27  1  0
 25 26  1  0
 26 29  2  0
 27 28  2  0
 28 29  1  0
 29 30  1  0
 30 31  1  0
 31 32  1  0
 32 33  3  0
  9 34  1  0
M  END
$$$$
