
     RDKit          3D

 34 37  0  0  0  0  0  0  0  0999 V2000
   65.2536   45.3169   12.9494 C   0  0  0  0  0  0  0  0  0  0  0  0
   66.0864   45.7645   11.9764 O   0  0  0  0  0  0  0  0  0  0  0  0
   65.7906   46.8490   11.2465 C   0  0  0  0  0  0  0  0  0  0  0  0
   66.7492   47.1361   10.1155 C   0  0  1  0  0  0  0  0  0  0  0  0
   67.6101   48.2929   10.1343 C   0  0  1  0  0  0  0  0  0  0  0  0
   68.2116   46.9445   10.4426 C   0  0  0  0  0  0  0  0  0  0  0  0
   66.0722   46.6376    8.5020 S   0  0  0  0  0  0  0  0  0  0  0  0
   65.9970   48.2062    7.5758 C   0  0  0  0  0  0  0  0  0  0  0  0
   65.0692   48.4141    6.8572 N   0  0  0  0  0  0  0  0  0  0  0  0
   67.1309   49.0442    7.7813 N   0  0  0  0  0  0  0  0  0  0  0  0
   67.9655   49.0730    8.9475 C   0  0  1  0  0  0  0  0  0  0  0  0
   67.8598   50.5599    9.4129 C   0  0  0  0  0  0  0  0  0  0  0  0
   69.4072   48.9562    8.4947 C   0  0  0  0  0  0  0  0  0  0  0  0
   69.7520   48.2503    7.3416 C   0  0  0  0  0  0  0  0  0  0  0  0
   70.3467   49.5268    9.3051 C   0  0  0  0  0  0  0  0  0  0  0  0
   70.1211   50.1401   10.4864 F   0  0  0  0  0  0  0  0  0  0  0  0
   71.6937   49.3852    8.9200 C   0  0  0  0  0  0  0  0  0  0  0  0
   72.6425   49.9693    9.7414 F   0  0  0  0  0  0  0  0  0  0  0  0
   72.0188   48.7101    7.8141 C   0  0  0  0  0  0  0  0  0  0  0  0
   71.0436   48.0889    6.9526 C   0  0  0  0  0  0  0  0  0  0  0  0
   71.5491   47.3002    5.9432 N   0  0  0  0  0  0  0  0  0  0  0  0
   72.7945   47.2446    5.2894 C   0  0  0  0  0  0  0  0  0  0  0  0
   73.7785   47.7181    5.8932 O   0  0  0  0  0  0  0  0  0  0  0  0
   72.8515   46.5985    3.9650 C   0  0  0  0  0  0  0  0  0  0  0  0
   73.7687   45.6134    3.6718 C   0  0  0  0  0  0  0  0  0  0  0  0
   73.5849   44.8345    2.5957 N   0  0  0  0  0  0  0  0  0  0  0  0
   71.8235   46.7072    3.1163 N   0  0  0  0  0  0  0  0  0  0  0  0
   71.6207   45.9742    2.0695 C   0  0  0  0  0  0  0  0  0  0  0  0
   72.5692   44.9189    1.7447 C   0  0  0  0  0  0  0  0  0  0  0  0
   72.2010   44.2711    0.7060 O   0  0  0  0  0  0  0  0  0  0  0  0
   72.2269   43.4105   -0.2654 C   0  0  0  0  0  0  0  0  0  0  0  0
   71.1006   42.3401   -0.3122 C   0  0  0  0  0  0  0  0  0  0  0  0
   70.2577   41.5538   -0.3300 C   0  0  0  0  0  0  0  0  0  0  0  0
   64.3852   48.8142    6.2871 H   0  0  0  0  0  0  0  0  0  0  0  0
  1  2  1  6
  3  2  1  1
  3  4  1  0
  4  5  1  0
  6  4  1  1
  4  7  1  6
  5  6  1  6
  5 11  1  0
  7  8  1  0
  8  9  2  0
  8 10  1  0
 10 11  1  0
 12 11  1  6
 11 13  1  6
 13 14  2  0
 13 15  1  0
 14 20  1  0
 15 16  1  0
 15 17  2  0
 17 18  1  0
 17 19  1  0
 19 20  2  0
 20 21  1  0
 21 22  1  0
 22 23  2  0
 22 24  1  0
 24 25  2  0
 24 27  1  0
 25 26  1  0
 26 29  2  0
 27 28  2  0
 28 29  1  0
 29 30  1  0
 30 31  1  0
 31 32  1  6
 32 33  3  0
  9 34  1  0
M  END
$$$$
