
     RDKit          3D

 34 37  0  0  0  0  0  0  0  0999 V2000
   63.7234   50.1337   11.7037 C   0  0  0  0  0  0  0  0  0  0  0  0
   64.0641   48.9747   11.0379 O   0  0  0  0  0  0  0  0  0  0  0  0
   65.2044   48.4436   11.5574 C   0  0  0  0  0  0  0  0  0  0  0  0
   66.0971   47.8053   10.4870 C   0  0  1  0  0  0  0  0  0  0  0  0
   67.3786   48.4958   10.2374 C   0  0  1  0  0  0  0  0  0  0  0  0
   67.3420   47.1005   10.6935 C   0  0  0  0  0  0  0  0  0  0  0  0
   65.1514   47.3573    8.9791 S   0  0  0  0  0  0  0  0  0  0  0  0
   65.8305   48.3076    7.6875 C   0  0  0  0  0  0  0  0  0  0  0  0
   65.0749   48.4814    6.6305 N   0  0  0  0  0  0  0  0  0  0  0  0
   67.0965   48.8604    7.7748 N   0  0  0  0  0  0  0  0  0  0  0  0
   67.8392   49.0568    8.9910 C   0  0  1  0  0  0  0  0  0  0  0  0
   67.6307   50.6385    9.1931 C   0  0  0  0  0  0  0  0  0  0  0  0
   69.3320   48.9666    8.7903 C   0  0  0  0  0  0  0  0  0  0  0  0
   69.8953   48.0351    7.9824 C   0  0  0  0  0  0  0  0  0  0  0  0
   70.1659   49.7772    9.4251 C   0  0  0  0  0  0  0  0  0  0  0  0
   69.7043   50.7379   10.3347 F   0  0  0  0  0  0  0  0  0  0  0  0
   71.5163   49.7129    9.2884 C   0  0  0  0  0  0  0  0  0  0  0  0
   72.2773   50.6202    9.9700 F   0  0  0  0  0  0  0  0  0  0  0  0
   72.0405   48.7823    8.4831 C   0  0  0  0  0  0  0  0  0  0  0  0
   71.2506   47.7721    7.6999 C   0  0  0  0  0  0  0  0  0  0  0  0
   71.8683   46.7667    7.0368 N   0  0  0  0  0  0  0  0  0  0  0  0
   71.9811   46.4815    5.7306 C   0  0  0  0  0  0  0  0  0  0  0  0
   70.9716   47.7000    5.3504 O   0  0  0  0  0  0  0  0  0  0  0  0
   72.1848   46.0832    4.4256 C   0  0  0  0  0  0  0  0  0  0  0  0
   71.1283   46.0238    3.4856 C   0  0  0  0  0  0  0  0  0  0  0  0
   71.4020   45.7137    2.2201 N   0  0  0  0  0  0  0  0  0  0  0  0
   73.4401   45.7903    3.9846 N   0  0  0  0  0  0  0  0  0  0  0  0
   73.6970   45.4729    2.6585 C   0  0  0  0  0  0  0  0  0  0  0  0
   72.5723   45.4632    1.7934 C   0  0  0  0  0  0  0  0  0  0  0  0
   72.8622   45.1741    0.4344 O   0  0  0  0  0  0  0  0  0  0  0  0
   71.5968   44.6771   -0.3361 C   0  0  0  0  0  0  0  0  0  0  0  0
   71.6213   43.7435   -0.8289 C   0  0  0  0  0  0  0  0  0  0  0  0
   71.6511   42.4975   -1.5102 C   0  0  0  0  0  0  0  0  0  0  0  0
   65.4079   48.2781    5.6442 H   0  0  0  0  0  0  0  0  0  0  0  0
  1  2  1  0
  2  3  1  0
  4  3  1  1
  4  5  1  0
  4  6  1  0
  4  7  1  0
  5  6  1  6
  5 11  1  0
  7  8  1  0
  8  9  2  0
  8 10  1  0
 10 11  1  0
 11 12  1  1
 11 13  1  0
 13 14  2  0
 13 15  1  0
 14 20  1  0
 15 16  1  0
 15 17  2  0
 17 18  1  0
 17 19  1  0
 19 20  2  0
 20 21  1  0
 21 22  1  0
 22 23  2  0
 22 24  1  0
 24 25  2  0
 24 27  1  0
 25 26  1  0
 26 29  2  0
 27 28  2  0
 28 29  1  0
 29 30  1  0
 30 31  1  0
 31 32  1  0
 32 33  3  0
  9 34  1  0
M  END
$$$$
