
     RDKit          3D

 34 37  0  0  0  0  0  0  0  0999 V2000
   63.0299   48.0580   12.5148 C   0  0  0  0  0  0  0  0  0  0  0  0
   64.2930   47.5722   12.2476 O   0  0  0  0  0  0  0  0  0  0  0  0
   65.0161   48.4853   11.5436 C   0  0  0  0  0  0  0  0  0  0  0  0
   65.9143   47.8349   10.4852 C   0  0  1  0  0  0  0  0  0  0  0  0
   67.2157   48.4977   10.2655 C   0  0  1  0  0  0  0  0  0  0  0  0
   67.1387   47.1002   10.7094 C   0  0  0  0  0  0  0  0  0  0  0  0
   64.9876   47.4202    8.9561 S   0  0  0  0  0  0  0  0  0  0  0  0
   65.7127   48.3645    7.6853 C   0  0  0  0  0  0  0  0  0  0  0  0
   64.9814   48.5638    6.6157 N   0  0  0  0  0  0  0  0  0  0  0  0
   66.9890   48.8875    7.8010 N   0  0  0  0  0  0  0  0  0  0  0  0
   67.7126   49.0575    9.0325 C   0  0  1  0  0  0  0  0  0  0  0  0
   67.5365   50.6420    9.2435 C   0  0  0  0  0  0  0  0  0  0  0  0
   69.2066   48.9347    8.8593 C   0  0  0  0  0  0  0  0  0  0  0  0
   69.7660   47.9640    8.0959 C   0  0  0  0  0  0  0  0  0  0  0  0
   70.0446   49.7545    9.4766 C   0  0  0  0  0  0  0  0  0  0  0  0
   69.5859   50.7563   10.3423 F   0  0  0  0  0  0  0  0  0  0  0  0
   71.3957   49.6623    9.3642 C   0  0  0  0  0  0  0  0  0  0  0  0
   72.1617   50.5816   10.0235 F   0  0  0  0  0  0  0  0  0  0  0  0
   71.9159   48.6933    8.6027 C   0  0  0  0  0  0  0  0  0  0  0  0
   71.1206   47.6679    7.8453 C   0  0  0  0  0  0  0  0  0  0  0  0
   71.7309   46.6279    7.2301 N   0  0  0  0  0  0  0  0  0  0  0  0
   71.9976   46.3717    5.9404 C   0  0  0  0  0  0  0  0  0  0  0  0
   73.3387   47.2910    6.0078 O   0  0  0  0  0  0  0  0  0  0  0  0
   72.1540   46.0288    4.6134 C   0  0  0  0  0  0  0  0  0  0  0  0
   71.1579   46.3018    3.6455 C   0  0  0  0  0  0  0  0  0  0  0  0
   71.4021   46.0239    2.3665 N   0  0  0  0  0  0  0  0  0  0  0  0
   73.3163   45.4640    4.1819 N   0  0  0  0  0  0  0  0  0  0  0  0
   73.5450   45.1875    2.8416 C   0  0  0  0  0  0  0  0  0  0  0  0
   72.4920   45.5202    1.9506 C   0  0  0  0  0  0  0  0  0  0  0  0
   72.7611   45.2652    0.5806 O   0  0  0  0  0  0  0  0  0  0  0  0
   71.5947   45.7491   -0.3400 C   0  0  0  0  0  0  0  0  0  0  0  0
   70.7514   45.1292   -0.4802 C   0  0  0  0  0  0  0  0  0  0  0  0
   69.6077   44.3109   -0.6798 C   0  0  0  0  0  0  0  0  0  0  0  0
   65.0088   47.9226    5.7712 H   0  0  0  0  0  0  0  0  0  0  0  0
  1  2  1  0
  2  3  1  0
  4  3  1  1
  4  5  1  0
  4  6  1  0
  4  7  1  0
  5  6  1  6
  5 11  1  0
  7  8  1  0
  8  9  2  0
  8 10  1  0
 10 11  1  0
 11 12  1  1
 11 13  1  0
 13 14  2  0
 13 15  1  0
 14 20  1  0
 15 16  1  0
 15 17  2  0
 17 18  1  0
 17 19  1  0
 19 20  2  0
 20 21  1  0
 21 22  1  0
 22 23  2  0
 22 24  1  0
 24 25  2  0
 24 27  1  0
 25 26  1  0
 26 29  2  0
 27 28  2  0
 28 29  1  0
 29 30  1  0
 30 31  1  0
 31 32  1  0
 32 33  3  0
  9 34  1  0
M  END
$$$$
