
     RDKit          3D

 34 37  0  0  0  0  0  0  0  0999 V2000
   63.7887   45.9470   11.1960 C   0  0  0  0  0  0  0  0  0  0  0  0
   64.7482   46.3911   10.3458 O   0  0  0  0  0  0  0  0  0  0  0  0
   65.7473   47.1785   10.7679 C   0  0  0  0  0  0  0  0  0  0  0  0
   66.8161   47.4581    9.7384 C   0  0  1  0  0  0  0  0  0  0  0  0
   67.5561   48.6959    9.7394 C   0  0  1  0  0  0  0  0  0  0  0  0
   68.2339   47.4531   10.2602 C   0  0  0  0  0  0  0  0  0  0  0  0
   66.4072   46.7425    8.1164 S   0  0  0  0  0  0  0  0  0  0  0  0
   66.3101   48.2010    7.0268 C   0  0  0  0  0  0  0  0  0  0  0  0
   65.4700   48.2419    6.1823 N   0  0  0  0  0  0  0  0  0  0  0  0
   67.3244   49.1694    7.2791 N   0  0  0  0  0  0  0  0  0  0  0  0
   67.9913   49.3948    8.5288 C   0  0  1  0  0  0  0  0  0  0  0  0
   67.6880   50.8992    8.8173 C   0  0  0  0  0  0  0  0  0  0  0  0
   69.4848   49.3887    8.2703 C   0  0  0  0  0  0  0  0  0  0  0  0
   70.0089   48.9731    7.0459 C   0  0  0  0  0  0  0  0  0  0  0  0
   70.2837   49.7544    9.3158 C   0  0  0  0  0  0  0  0  0  0  0  0
   69.8770   50.0735   10.5629 F   0  0  0  0  0  0  0  0  0  0  0  0
   71.6751   49.7083    9.1033 C   0  0  0  0  0  0  0  0  0  0  0  0
   72.4812   50.0844   10.1638 F   0  0  0  0  0  0  0  0  0  0  0  0
   72.1721   49.3115    7.9286 C   0  0  0  0  0  0  0  0  0  0  0  0
   71.3465   48.9086    6.8173 C   0  0  0  0  0  0  0  0  0  0  0  0
   72.0128   48.3789    5.7347 N   0  0  0  0  0  0  0  0  0  0  0  0
   72.5751   47.1164    5.4669 C   0  0  0  0  0  0  0  0  0  0  0  0
   73.0135   46.4684    6.4388 O   0  0  0  0  0  0  0  0  0  0  0  0
   72.5677   46.6386    4.0717 C   0  0  0  0  0  0  0  0  0  0  0  0
   73.3876   45.6170    3.6452 C   0  0  0  0  0  0  0  0  0  0  0  0
   73.1287   44.9994    2.4834 N   0  0  0  0  0  0  0  0  0  0  0  0
   71.5523   46.9476    3.2579 N   0  0  0  0  0  0  0  0  0  0  0  0
   71.2788   46.3733    2.1311 C   0  0  0  0  0  0  0  0  0  0  0  0
   72.1233   45.2834    1.6641 C   0  0  0  0  0  0  0  0  0  0  0  0
   71.6932   44.8077    0.5584 O   0  0  0  0  0  0  0  0  0  0  0  0
   71.6507   44.0985   -0.5280 C   0  0  0  0  0  0  0  0  0  0  0  0
   72.5923   42.8653   -0.6228 C   0  0  0  0  0  0  0  0  0  0  0  0
   73.2853   41.9455   -0.6745 C   0  0  0  0  0  0  0  0  0  0  0  0
   64.9284   48.4443    5.3957 H   0  0  0  0  0  0  0  0  0  0  0  0
  1  2  1  6
  3  2  1  1
  3  4  1  0
  4  5  1  0
  6  4  1  1
  4  7  1  6
  5  6  1  1
  5 11  1  0
  7  8  1  0
  8  9  2  0
  8 10  1  0
 10 11  1  0
 12 11  1  6
 11 13  1  6
 13 14  2  0
 13 15  1  0
 14 20  1  0
 15 16  1  0
 15 17  2  0
 17 18  1  0
 17 19  1  0
 19 20  2  0
 20 21  1  0
 21 22  1  0
 22 23  2  0
 22 24  1  0
 24 25  2  0
 24 27  1  0
 25 26  1  0
 26 29  2  0
 27 28  2  0
 28 29  1  0
 29 30  1  0
 30 31  1  0
 31 32  1  6
 32 33  3  0
  9 34  1  0
M  END
$$$$
