
     RDKit          3D

 34 37  0  0  0  0  0  0  0  0999 V2000
   63.3191   46.9923   11.8964 C   0  0  0  0  0  0  0  0  0  0  0  0
   64.3472   46.9838   11.0112 O   0  0  0  0  0  0  0  0  0  0  0  0
   65.5818   47.3632   11.3690 C   0  0  0  0  0  0  0  0  0  0  0  0
   66.5601   47.5056   10.2274 C   0  0  1  0  0  0  0  0  0  0  0  0
   67.4920   48.6046   10.1679 C   0  0  1  0  0  0  0  0  0  0  0  0
   68.0065   47.2477   10.5791 C   0  0  0  0  0  0  0  0  0  0  0  0
   65.8581   46.9327    8.6497 S   0  0  0  0  0  0  0  0  0  0  0  0
   65.8846   48.4302    7.6102 C   0  0  0  0  0  0  0  0  0  0  0  0
   64.9740   48.6421    6.8711 N   0  0  0  0  0  0  0  0  0  0  0  0
   67.0684   49.2087    7.7623 N   0  0  0  0  0  0  0  0  0  0  0  0
   67.8994   49.2713    8.9297 C   0  0  1  0  0  0  0  0  0  0  0  0
   67.8860   50.7921    9.2837 C   0  0  0  0  0  0  0  0  0  0  0  0
   69.3324   49.0315    8.4979 C   0  0  0  0  0  0  0  0  0  0  0  0
   69.6326   48.2895    7.3551 C   0  0  0  0  0  0  0  0  0  0  0  0
   70.3051   49.5293    9.3170 C   0  0  0  0  0  0  0  0  0  0  0  0
   70.1156   50.1693   10.4905 F   0  0  0  0  0  0  0  0  0  0  0  0
   71.6408   49.2732    8.9517 C   0  0  0  0  0  0  0  0  0  0  0  0
   72.6237   49.7837    9.7819 F   0  0  0  0  0  0  0  0  0  0  0  0
   71.9233   48.5640    7.8555 C   0  0  0  0  0  0  0  0  0  0  0  0
   70.9114   48.0183    6.9853 C   0  0  0  0  0  0  0  0  0  0  0  0
   71.3630   47.1817    5.9890 N   0  0  0  0  0  0  0  0  0  0  0  0
   72.3889   47.2834    5.0304 C   0  0  0  0  0  0  0  0  0  0  0  0
   73.3596   48.0167    5.3078 O   0  0  0  0  0  0  0  0  0  0  0  0
   72.2610   46.4891    3.7944 C   0  0  0  0  0  0  0  0  0  0  0  0
   73.1309   46.6386    2.7368 C   0  0  0  0  0  0  0  0  0  0  0  0
   73.1874   45.6952    1.7855 N   0  0  0  0  0  0  0  0  0  0  0  0
   71.5110   45.3819    3.7784 N   0  0  0  0  0  0  0  0  0  0  0  0
   71.5401   44.4565    2.8745 C   0  0  0  0  0  0  0  0  0  0  0  0
   72.4591   44.5855    1.7530 C   0  0  0  0  0  0  0  0  0  0  0  0
   72.3853   43.5723    0.9770 O   0  0  0  0  0  0  0  0  0  0  0  0
   72.3403   42.8783   -0.1189 C   0  0  0  0  0  0  0  0  0  0  0  0
   73.5906   42.9043   -1.0422 C   0  0  0  0  0  0  0  0  0  0  0  0
   74.5172   42.9036   -1.7281 C   0  0  0  0  0  0  0  0  0  0  0  0
   64.4035   48.8146    6.0979 H   0  0  0  0  0  0  0  0  0  0  0  0
  1  2  1  6
  3  2  1  1
  3  4  1  0
  4  5  1  0
  6  4  1  1
  4  7  1  6
  5  6  1  6
  5 11  1  0
  7  8  1  0
  8  9  2  0
  8 10  1  0
 10 11  1  0
 12 11  1  6
 11 13  1  6
 13 14  2  0
 13 15  1  0
 14 20  1  0
 15 16  1  0
 15 17  2  0
 17 18  1  0
 17 19  1  0
 19 20  2  0
 20 21  1  0
 21 22  1  0
 22 23  2  0
 22 24  1  0
 24 25  2  0
 24 27  1  0
 25 26  1  0
 26 29  2  0
 27 28  2  0
 28 29  1  0
 29 30  1  0
 30 31  1  0
 31 32  1  6
 32 33  3  0
  9 34  1  0
M  END
$$$$
