
     RDKit          3D

 34 37  0  0  0  0  0  0  0  0999 V2000
   65.6974   44.8419   12.3920 C   0  0  0  0  0  0  0  0  0  0  0  0
   66.0180   45.2841   11.1501 O   0  0  0  0  0  0  0  0  0  0  0  0
   65.9915   46.5885   10.8433 C   0  0  0  0  0  0  0  0  0  0  0  0
   67.0291   47.0273    9.8377 C   0  0  1  0  0  0  0  0  0  0  0  0
   67.5971   48.3524    9.8723 C   0  0  1  0  0  0  0  0  0  0  0  0
   68.4267   47.2015   10.3844 C   0  0  0  0  0  0  0  0  0  0  0  0
   66.7444   46.2942    8.1971 S   0  0  0  0  0  0  0  0  0  0  0  0
   66.4702   47.7470    7.1302 C   0  0  0  0  0  0  0  0  0  0  0  0
   65.6454   47.6914    6.2717 N   0  0  0  0  0  0  0  0  0  0  0  0
   67.3422   48.8369    7.4164 N   0  0  0  0  0  0  0  0  0  0  0  0
   67.9537   49.1257    8.6813 C   0  0  1  0  0  0  0  0  0  0  0  0
   67.4477   50.5706    8.9893 C   0  0  0  0  0  0  0  0  0  0  0  0
   69.4385   49.3236    8.4494 C   0  0  0  0  0  0  0  0  0  0  0  0
   70.0707   48.8161    7.3139 C   0  0  0  0  0  0  0  0  0  0  0  0
   70.1265   49.9705    9.4359 C   0  0  0  0  0  0  0  0  0  0  0  0
   69.6243   50.4065   10.6107 F   0  0  0  0  0  0  0  0  0  0  0  0
   71.5149   50.1197    9.2541 C   0  0  0  0  0  0  0  0  0  0  0  0
   72.2078   50.7804   10.2538 F   0  0  0  0  0  0  0  0  0  0  0  0
   72.1155   49.6339    8.1643 C   0  0  0  0  0  0  0  0  0  0  0  0
   71.4097   48.9362    7.1183 C   0  0  0  0  0  0  0  0  0  0  0  0
   72.1946   48.3624    6.1430 N   0  0  0  0  0  0  0  0  0  0  0  0
   72.7327   47.0735    5.9672 C   0  0  0  0  0  0  0  0  0  0  0  0
   73.0702   46.4502    6.9941 O   0  0  0  0  0  0  0  0  0  0  0  0
   72.8194   46.5422    4.5942 C   0  0  0  0  0  0  0  0  0  0  0  0
   73.4268   45.3380    4.3140 C   0  0  0  0  0  0  0  0  0  0  0  0
   73.2042   44.7410    3.1341 N   0  0  0  0  0  0  0  0  0  0  0  0
   72.0393   47.0387    3.6279 N   0  0  0  0  0  0  0  0  0  0  0  0
   71.8078   46.4891    2.4797 C   0  0  0  0  0  0  0  0  0  0  0  0
   72.4285   45.2108    2.1642 C   0  0  0  0  0  0  0  0  0  0  0  0
   72.0670   44.7943    1.0110 O   0  0  0  0  0  0  0  0  0  0  0  0
   71.2986   44.5140    0.0031 C   0  0  0  0  0  0  0  0  0  0  0  0
   69.8324   45.0283    0.0476 C   0  0  0  0  0  0  0  0  0  0  0  0
   68.7438   45.4076    0.0608 C   0  0  0  0  0  0  0  0  0  0  0  0
   65.0825   47.8458    5.4892 H   0  0  0  0  0  0  0  0  0  0  0  0
  1  2  1  6
  3  2  1  1
  3  4  1  0
  4  5  1  0
  6  4  1  1
  4  7  1  6
  5  6  1  1
  5 11  1  0
  7  8  1  0
  8  9  2  0
  8 10  1  0
 10 11  1  0
 12 11  1  6
 11 13  1  6
 13 14  2  0
 13 15  1  0
 14 20  1  0
 15 16  1  0
 15 17  2  0
 17 18  1  0
 17 19  1  0
 19 20  2  0
 20 21  1  0
 21 22  1  0
 22 23  2  0
 22 24  1  0
 24 25  2  0
 24 27  1  0
 25 26  1  0
 26 29  2  0
 27 28  2  0
 28 29  1  0
 29 30  1  0
 30 31  1  0
 31 32  1  6
 32 33  3  0
  9 34  1  0
M  END
$$$$
