
     RDKit          3D

 34 37  0  0  0  0  0  0  0  0999 V2000
   64.8545   49.0491   13.0935 C   0  0  0  0  0  0  0  0  0  0  0  0
   65.8134   48.8357   12.1578 O   0  0  0  0  0  0  0  0  0  0  0  0
   65.6555   47.9223   11.1897 C   0  0  0  0  0  0  0  0  0  0  0  0
   66.7110   47.9497   10.1101 C   0  0  1  0  0  0  0  0  0  0  0  0
   67.5633   49.0975    9.9203 C   0  0  1  0  0  0  0  0  0  0  0  0
   68.1386   47.8796   10.5992 C   0  0  0  0  0  0  0  0  0  0  0  0
   66.1832   47.0577    8.6148 S   0  0  0  0  0  0  0  0  0  0  0  0
   66.1869   48.3520    7.3308 C   0  0  0  0  0  0  0  0  0  0  0  0
   65.3268   48.3561    6.5058 N   0  0  0  0  0  0  0  0  0  0  0  0
   67.2953   49.2427    7.4227 N   0  0  0  0  0  0  0  0  0  0  0  0
   68.0216   49.5745    8.6142 C   0  0  1  0  0  0  0  0  0  0  0  0
   67.8703   51.1268    8.6916 C   0  0  0  0  0  0  0  0  0  0  0  0
   69.4986   49.3869    8.3300 C   0  0  0  0  0  0  0  0  0  0  0  0
   69.9422   48.8137    7.1378 C   0  0  0  0  0  0  0  0  0  0  0  0
   70.3599   49.7541    9.3240 C   0  0  0  0  0  0  0  0  0  0  0  0
   70.0234   50.2211   10.5452 F   0  0  0  0  0  0  0  0  0  0  0  0
   71.7324   49.5417    9.0910 C   0  0  0  0  0  0  0  0  0  0  0  0
   72.6025   49.9198   10.0989 F   0  0  0  0  0  0  0  0  0  0  0  0
   72.1525   48.9944    7.9471 C   0  0  0  0  0  0  0  0  0  0  0  0
   71.2589   48.5875    6.8913 C   0  0  0  0  0  0  0  0  0  0  0  0
   71.8358   47.8983    5.8479 N   0  0  0  0  0  0  0  0  0  0  0  0
   72.8306   46.9048    5.7763 C   0  0  0  0  0  0  0  0  0  0  0  0
   73.6593   46.8577    6.7079 O   0  0  0  0  0  0  0  0  0  0  0  0
   72.7957   45.9731    4.6336 C   0  0  0  0  0  0  0  0  0  0  0  0
   73.7924   45.0475    4.4153 C   0  0  0  0  0  0  0  0  0  0  0  0
   73.5737   44.0214    3.5801 N   0  0  0  0  0  0  0  0  0  0  0  0
   71.6566   45.7703    3.9627 N   0  0  0  0  0  0  0  0  0  0  0  0
   71.4169   44.7934    3.1489 C   0  0  0  0  0  0  0  0  0  0  0  0
   72.4497   43.7958    2.9102 C   0  0  0  0  0  0  0  0  0  0  0  0
   72.0370   42.8859    2.1129 O   0  0  0  0  0  0  0  0  0  0  0  0
   72.0623   41.9623    1.2012 C   0  0  0  0  0  0  0  0  0  0  0  0
   73.4510   41.4210    0.7598 C   0  0  0  0  0  0  0  0  0  0  0  0
   74.4804   41.0063    0.4476 C   0  0  0  0  0  0  0  0  0  0  0  0
   64.8084   48.3188    5.6794 H   0  0  0  0  0  0  0  0  0  0  0  0
  1  2  1  6
  3  2  1  1
  3  4  1  0
  4  5  1  0
  6  4  1  1
  4  7  1  6
  5  6  1  1
  5 11  1  0
  7  8  1  0
  8  9  2  0
  8 10  1  0
 10 11  1  0
 12 11  1  6
 11 13  1  6
 13 14  2  0
 13 15  1  0
 14 20  1  0
 15 16  1  0
 15 17  2  0
 17 18  1  0
 17 19  1  0
 19 20  2  0
 20 21  1  0
 21 22  1  0
 22 23  2  0
 22 24  1  0
 24 25  2  0
 24 27  1  0
 25 26  1  0
 26 29  2  0
 27 28  2  0
 28 29  1  0
 29 30  1  0
 30 31  1  0
 31 32  1  6
 32 33  3  0
  9 34  1  0
M  END
$$$$
