
     RDKit          3D

 41 44  0  0  0  0  0  0  0  0999 V2000
   70.7555   57.6612   15.6082 C   0  0  1  0  0  0  0  0  0  0  0  0
   71.2036   56.2167   15.6090 C   0  0  2  0  0  0  0  0  0  0  0  0
   70.3298   54.0718   14.6872 C   0  0  0  0  0  0  0  0  0  0  0  0
   69.4428   51.8501   14.1229 C   0  0  1  0  0  0  0  0  0  0  0  0
   69.0720   50.6667   14.9444 C   0  0  0  0  0  0  0  0  0  0  0  0
   67.1500   51.4187   14.1883 C   0  0  1  0  0  0  0  0  0  0  0  0
   66.3821   53.2784   13.1896 C   0  0  0  0  0  0  0  0  0  0  0  0
   72.4979   56.0026   14.8915 C   0  0  0  0  0  0  0  0  0  0  0  0
   72.2067   60.0801   22.9938 C   0  0  0  0  0  0  0  0  0  0  0  0
   72.9615   60.3959   21.8651 C   0  0  0  0  0  0  0  0  0  0  0  0
   72.8014   59.6661   20.7103 C   0  0  0  0  0  0  0  0  0  0  0  0
   71.9136   58.6164   20.6107 C   0  0  0  0  0  0  0  0  0  0  0  0
   71.1776   58.3207   21.7390 C   0  0  0  0  0  0  0  0  0  0  0  0
   71.3236   59.0385   22.9017 C   0  0  0  0  0  0  0  0  0  0  0  0
   70.0812   59.5877   18.2166 C   0  0  0  0  0  0  0  0  0  0  0  0
   71.5345   58.4750   16.6183 C   0  0  0  0  0  0  0  0  0  0  0  0
   68.2129   51.8339   13.1939 C   0  0  1  0  0  0  0  0  0  0  0  0
   67.8348   53.1850   12.7030 C   0  0  0  0  0  0  0  0  0  0  0  0
   73.0947   54.6530   15.0928 C   0  0  0  0  0  0  0  0  0  0  0  0
   74.3504   54.4787   14.2498 C   0  0  0  0  0  0  0  0  0  0  0  0
   74.7863   53.0298   14.3103 C   0  0  0  0  0  0  0  0  0  0  0  0
   73.9641   52.2165   15.2612 C   0  0  0  0  0  0  0  0  0  0  0  0
   73.7934   52.8501   16.6099 C   0  0  0  0  0  0  0  0  0  0  0  0
   73.4584   54.3370   16.5150 C   0  0  0  0  0  0  0  0  0  0  0  0
   71.0712   60.9165   25.0130 C   0  0  0  0  0  0  0  0  0  0  0  0
   69.9046   60.5254   17.0515 C   0  0  1  0  0  0  0  0  0  0  0  0
   68.9235   61.6334   17.4398 C   0  0  0  0  0  0  0  0  0  0  0  0
   72.3681   60.8611   24.2354 C   0  0  2  0  0  0  0  0  0  0  0  0
   71.2076   61.2040   16.6667 C   0  0  0  0  0  0  0  0  0  0  0  0
   70.9726   58.5458   17.9059 N   0  0  0  0  0  0  0  0  0  0  0  0
   70.1182   55.4073   15.0987 N   0  0  0  0  0  0  0  0  0  0  0  0
   72.9956   57.0598   18.7370 O   0  0  0  0  0  0  0  0  0  0  0  0
   70.7922   56.5050   19.5497 O   0  0  0  0  0  0  0  0  0  0  0  0
   70.6402   58.2420   14.3806 O   0  0  0  0  0  0  0  0  0  0  0  0
   71.4101   53.7325   14.1916 O   0  0  0  0  0  0  0  0  0  0  0  0
   69.3647   53.0782   14.8084 O   0  0  0  0  0  0  0  0  0  0  0  0
   67.7734   50.9701   15.3234 O   0  0  0  0  0  0  0  0  0  0  0  0
   66.3690   52.5627   14.3820 O   0  0  0  0  0  0  0  0  0  0  0  0
   72.8081   62.1560   24.0150 O   0  0  0  0  0  0  0  0  0  0  0  0
   71.1776   61.7545   26.1187 O   0  0  0  0  0  0  0  0  0  0  0  0
   71.6817   57.6768   19.1560 S   0  0  1  0  0  6  0  0  0  0  0  0
  1  2  1  0
 16  1  1  0
  1 34  1  6
  2  8  1  6
  2 31  1  0
 31  3  1  0
  3 35  2  0
  3 36  1  0
  4  5  1  0
  4 17  1  0
  4 36  1  1
  5 37  1  0
 17  6  1  0
  6 37  1  1
  6 38  1  0
 18  7  1  0
  7 38  1  0
  8 19  1  0
 10  9  2  0
 14  9  1  0
  9 28  1  0
 11 10  1  0
 12 11  2  0
 12 13  1  0
 41 12  1  0
 13 14  2  0
 15 26  1  0
 30 15  1  0
 30 16  1  0
 17 18  1  1
 19 20  1  0
 19 24  1  0
 20 21  1  0
 21 22  1  0
 23 22  1  0
 24 23  1  0
 28 25  1  0
 25 40  1  0
 26 27  1  1
 26 29  1  0
 28 39  1  6
 41 30  1  6
 41 32  2  0
 41 33  2  0
M  END
$$$$
