
     RDKit          3D

 41 44  0  0  0  0  0  0  0  0999 V2000
   70.9214   57.5376   15.2925 C   0  0  1  0  0  0  0  0  0  0  0  0
   71.0164   58.2360   16.6306 C   0  0  2  0  0  0  0  0  0  0  0  0
   73.0340   58.6088   18.0463 C   0  0  0  0  0  0  0  0  0  0  0  0
   74.7599   59.3407   19.6358 C   0  0  1  0  0  0  0  0  0  0  0  0
   76.1171   59.9462   19.5695 C   0  0  0  0  0  0  0  0  0  0  0  0
   74.8232   61.5989   20.2221 C   0  0  1  0  0  0  0  0  0  0  0  0
   72.6211   62.0275   20.3324 C   0  0  0  0  0  0  0  0  0  0  0  0
   69.9880   59.3069   16.8088 C   0  0  0  0  0  0  0  0  0  0  0  0
   67.5966   51.8732   13.5484 C   0  0  0  0  0  0  0  0  0  0  0  0
   67.2836   53.2273   13.4404 C   0  0  0  0  0  0  0  0  0  0  0  0
   67.9770   54.1504   14.1881 C   0  0  0  0  0  0  0  0  0  0  0  0
   68.9870   53.7965   15.0568 C   0  0  0  0  0  0  0  0  0  0  0  0
   69.2799   52.4519   15.1487 C   0  0  0  0  0  0  0  0  0  0  0  0
   68.5982   51.5150   14.4097 C   0  0  0  0  0  0  0  0  0  0  0  0
   72.1947   54.0141   15.0529 C   0  0  0  0  0  0  0  0  0  0  0  0
   71.9438   56.4276   15.1824 C   0  0  0  0  0  0  0  0  0  0  0  0
   74.1646   60.3130   20.6732 C   0  0  1  0  0  0  0  0  0  0  0  0
   72.6990   60.5059   20.5181 C   0  0  0  0  0  0  0  0  0  0  0  0
   69.5260   59.4856   18.2133 C   0  0  0  0  0  0  0  0  0  0  0  0
   68.0069   59.4338   18.3005 C   0  0  0  0  0  0  0  0  0  0  0  0
   67.5797   59.8456   19.6937 C   0  0  0  0  0  0  0  0  0  0  0  0
   68.7395   60.0566   20.6168 C   0  0  0  0  0  0  0  0  0  0  0  0
   69.7390   58.9384   20.5999 C   0  0  0  0  0  0  0  0  0  0  0  0
   70.0683   58.4750   19.1825 C   0  0  0  0  0  0  0  0  0  0  0  0
   65.5790   50.4651   13.4358 C   0  0  0  0  0  0  0  0  0  0  0  0
   73.6453   54.3438   14.8188 C   0  0  1  0  0  0  0  0  0  0  0  0
   74.3025   54.7047   16.1525 C   0  0  0  0  0  0  0  0  0  0  0  0
   66.8615   50.8764   12.7462 C   0  0  2  0  0  0  0  0  0  0  0  0
   74.4122   53.1606   14.2543 C   0  0  0  0  0  0  0  0  0  0  0  0
   71.4788   55.1386   15.4998 N   0  0  0  0  0  0  0  0  0  0  0  0
   72.3749   58.7045   16.7996 N   0  0  0  0  0  0  0  0  0  0  0  0
   69.1508   56.2620   16.0562 O   0  0  0  0  0  0  0  0  0  0  0  0
   69.8629   54.4190   17.4415 O   0  0  0  0  0  0  0  0  0  0  0  0
   69.6641   57.1912   14.8962 O   0  0  0  0  0  0  0  0  0  0  0  0
   72.7802   57.6786   18.8195 O   0  0  0  0  0  0  0  0  0  0  0  0
   73.9849   59.5285   18.4747 O   0  0  0  0  0  0  0  0  0  0  0  0
   75.8290   61.2838   19.3461 O   0  0  0  0  0  0  0  0  0  0  0  0
   73.7915   62.3549   19.6562 O   0  0  0  0  0  0  0  0  0  0  0  0
   67.6025   49.7382   12.4735 O   0  0  0  0  0  0  0  0  0  0  0  0
   64.8171   49.6237   12.6311 O   0  0  0  0  0  0  0  0  0  0  0  0
   69.8913   54.9458   16.0130 S   0  0  1  0  0  6  0  0  0  0  0  0
  1  2  1  0
 16  1  1  0
  1 34  1  1
  2  8  1  6
  2 31  1  0
 31  3  1  0
  3 35  2  0
  3 36  1  0
  4  5  1  0
  4 17  1  0
  4 36  1  6
  5 37  1  0
 17  6  1  0
  6 37  1  6
  6 38  1  0
 18  7  1  0
  7 38  1  0
  8 19  1  0
 10  9  2  0
 14  9  1  0
  9 28  1  0
 11 10  1  0
 12 11  2  0
 12 13  1  0
 41 12  1  0
 13 14  2  0
 15 26  1  0
 30 15  1  0
 30 16  1  0
 17 18  1  6
 19 20  1  0
 19 24  1  0
 20 21  1  0
 21 22  1  0
 23 22  1  0
 24 23  1  0
 28 25  1  0
 25 40  1  0
 26 27  1  1
 26 29  1  0
 28 39  1  1
 41 30  1  6
 41 32  2  0
 41 33  2  0
M  END
$$$$
