
     RDKit          3D

 41 44  0  0  0  0  0  0  0  0999 V2000
   71.2539   57.6071   15.0171 C   0  0  1  0  0  0  0  0  0  0  0  0
   71.0664   57.9480   16.4785 C   0  0  2  0  0  0  0  0  0  0  0  0
   72.5331   58.4768   18.4236 C   0  0  0  0  0  0  0  0  0  0  0  0
   73.9991   59.5831   20.0570 C   0  0  1  0  0  0  0  0  0  0  0  0
   75.3418   60.1623   19.7839 C   0  0  0  0  0  0  0  0  0  0  0  0
   74.1077   61.8992   20.3242 C   0  0  1  0  0  0  0  0  0  0  0  0
   71.9237   62.3578   20.5794 C   0  0  0  0  0  0  0  0  0  0  0  0
   70.0326   59.0038   16.7077 C   0  0  0  0  0  0  0  0  0  0  0  0
   67.3042   51.2020   13.2776 C   0  0  0  0  0  0  0  0  0  0  0  0
   66.7973   52.4999   13.3212 C   0  0  0  0  0  0  0  0  0  0  0  0
   67.4247   53.4527   14.0895 C   0  0  0  0  0  0  0  0  0  0  0  0
   68.5531   53.1833   14.8339 C   0  0  0  0  0  0  0  0  0  0  0  0
   69.0374   51.8932   14.7768 C   0  0  0  0  0  0  0  0  0  0  0  0
   68.4242   50.9278   14.0149 C   0  0  0  0  0  0  0  0  0  0  0  0
   71.6076   54.5484   14.3663 C   0  0  0  0  0  0  0  0  0  0  0  0
   70.2585   56.5594   14.5689 C   0  0  0  0  0  0  0  0  0  0  0  0
   73.4991   60.6917   21.0041 C   0  0  1  0  0  0  0  0  0  0  0  0
   72.0246   60.8746   20.9611 C   0  0  0  0  0  0  0  0  0  0  0  0
   69.5167   59.0642   18.1035 C   0  0  0  0  0  0  0  0  0  0  0  0
   68.5581   60.2333   18.2824 C   0  0  0  0  0  0  0  0  0  0  0  0
   68.2431   60.3902   19.7553 C   0  0  0  0  0  0  0  0  0  0  0  0
   68.8379   59.3020   20.5942 C   0  0  0  0  0  0  0  0  0  0  0  0
   68.5806   57.9214   20.0677 C   0  0  0  0  0  0  0  0  0  0  0  0
   68.8052   57.8233   18.5604 C   0  0  0  0  0  0  0  0  0  0  0  0
   65.2309   49.9169   12.9374 C   0  0  0  0  0  0  0  0  0  0  0  0
   72.9387   55.0784   14.8301 C   0  0  1  0  0  0  0  0  0  0  0  0
   73.1543   54.6896   16.2941 C   0  0  0  0  0  0  0  0  0  0  0  0
   66.6406   50.1746   12.4520 C   0  0  2  0  0  0  0  0  0  0  0  0
   74.0922   54.4842   14.0408 C   0  0  0  0  0  0  0  0  0  0  0  0
   70.5420   55.2407   14.9681 N   0  0  0  0  0  0  0  0  0  0  0  0
   72.3613   58.2755   17.0352 N   0  0  0  0  0  0  0  0  0  0  0  0
   68.3622   55.2836   16.4640 O   0  0  0  0  0  0  0  0  0  0  0  0
   70.0234   53.6039   16.9559 O   0  0  0  0  0  0  0  0  0  0  0  0
   71.3744   58.6713   14.1741 O   0  0  0  0  0  0  0  0  0  0  0  0
   72.1582   57.6205   19.2321 O   0  0  0  0  0  0  0  0  0  0  0  0
   73.1186   59.6192   18.9581 O   0  0  0  0  0  0  0  0  0  0  0  0
   75.0289   61.4600   19.4094 O   0  0  0  0  0  0  0  0  0  0  0  0
   73.0248   62.5807   19.7595 O   0  0  0  0  0  0  0  0  0  0  0  0
   67.3252   48.9707   12.4205 O   0  0  0  0  0  0  0  0  0  0  0  0
   64.6017   48.9387   12.1736 O   0  0  0  0  0  0  0  0  0  0  0  0
   69.3770   54.3739   15.8120 S   0  0  1  0  0  6  0  0  0  0  0  0
  1  2  1  0
 16  1  1  0
  1 34  1  6
  2  8  1  6
  2 31  1  0
 31  3  1  0
  3 35  2  0
  3 36  1  0
  4  5  1  0
  4 17  1  0
  4 36  1  6
  5 37  1  0
 17  6  1  0
  6 37  1  6
  6 38  1  0
 18  7  1  0
  7 38  1  0
  8 19  1  0
 10  9  2  0
 14  9  1  0
  9 28  1  0
 11 10  1  0
 12 11  2  0
 12 13  1  0
 41 12  1  0
 13 14  2  0
 15 26  1  0
 30 15  1  0
 30 16  1  0
 17 18  1  6
 19 20  1  0
 19 24  1  0
 20 21  1  0
 21 22  1  0
 23 22  1  0
 24 23  1  0
 28 25  1  0
 25 40  1  0
 26 27  1  1
 26 29  1  0
 28 39  1  1
 41 30  1  6
 41 32  2  0
 41 33  2  0
M  END
$$$$
