
     RDKit          3D

 41 44  0  0  0  0  0  0  0  0999 V2000
   71.4547   57.2261   14.9452 C   0  0  1  0  0  0  0  0  0  0  0  0
   70.9714   57.8456   16.2374 C   0  0  2  0  0  0  0  0  0  0  0  0
   72.7473   58.5111   17.8553 C   0  0  0  0  0  0  0  0  0  0  0  0
   74.4358   59.4842   19.3529 C   0  0  1  0  0  0  0  0  0  0  0  0
   75.5602   59.9189   18.4811 C   0  0  0  0  0  0  0  0  0  0  0  0
   74.7520   61.7958   19.2905 C   0  0  1  0  0  0  0  0  0  0  0  0
   72.9061   62.4641   20.3821 C   0  0  0  0  0  0  0  0  0  0  0  0
   69.6084   58.4504   16.1255 C   0  0  0  0  0  0  0  0  0  0  0  0
   67.6004   50.8583   13.6029 C   0  0  0  0  0  0  0  0  0  0  0  0
   67.1372   52.1550   13.3851 C   0  0  0  0  0  0  0  0  0  0  0  0
   67.6341   53.1932   14.1380 C   0  0  0  0  0  0  0  0  0  0  0  0
   68.5869   53.0124   15.1175 C   0  0  0  0  0  0  0  0  0  0  0  0
   69.0308   51.7219   15.3168 C   0  0  0  0  0  0  0  0  0  0  0  0
   68.5463   50.6718   14.5745 C   0  0  0  0  0  0  0  0  0  0  0  0
   71.8537   54.1790   15.5696 C   0  0  0  0  0  0  0  0  0  0  0  0
   70.6203   56.0201   14.5726 C   0  0  0  0  0  0  0  0  0  0  0  0
   74.4358   60.7062   20.2924 C   0  0  1  0  0  0  0  0  0  0  0  0
   73.0925   61.0140   20.8492 C   0  0  0  0  0  0  0  0  0  0  0  0
   68.9891   58.8122   17.4308 C   0  0  0  0  0  0  0  0  0  0  0  0
   69.8646   58.3670   18.5940 C   0  0  0  0  0  0  0  0  0  0  0  0
   69.0954   58.5472   19.8858 C   0  0  0  0  0  0  0  0  0  0  0  0
   67.7725   59.2187   19.6837 C   0  0  0  0  0  0  0  0  0  0  0  0
   67.8452   60.4622   18.8483 C   0  0  0  0  0  0  0  0  0  0  0  0
   68.7156   60.2781   17.6071 C   0  0  0  0  0  0  0  0  0  0  0  0
   65.6377   49.4396   13.1548 C   0  0  0  0  0  0  0  0  0  0  0  0
   72.8217   54.5217   14.4680 C   0  0  1  0  0  0  0  0  0  0  0  0
   74.2025   53.9627   14.8176 C   0  0  0  0  0  0  0  0  0  0  0  0
   67.0768   49.7391   12.7962 C   0  0  2  0  0  0  0  0  0  0  0  0
   72.4163   53.9006   13.1427 C   0  0  0  0  0  0  0  0  0  0  0  0
   70.6758   54.9405   15.4725 N   0  0  0  0  0  0  0  0  0  0  0  0
   71.9808   58.7748   16.6975 N   0  0  0  0  0  0  0  0  0  0  0  0
   68.1945   55.3826   16.2719 O   0  0  0  0  0  0  0  0  0  0  0  0
   69.4776   53.7274   17.4706 O   0  0  0  0  0  0  0  0  0  0  0  0
   71.6797   58.0975   13.9215 O   0  0  0  0  0  0  0  0  0  0  0  0
   73.0725   57.3535   18.1414 O   0  0  0  0  0  0  0  0  0  0  0  0
   73.1747   59.5075   18.7259 O   0  0  0  0  0  0  0  0  0  0  0  0
   75.1768   61.2040   18.1297 O   0  0  0  0  0  0  0  0  0  0  0  0
   73.5637   62.5215   19.1579 O   0  0  0  0  0  0  0  0  0  0  0  0
   67.8173   48.5757   12.9274 O   0  0  0  0  0  0  0  0  0  0  0  0
   64.7832   49.7043   12.0890 O   0  0  0  0  0  0  0  0  0  0  0  0
   69.2434   54.3116   16.0839 S   0  0  1  0  0  6  0  0  0  0  0  0
  1  2  1  0
 16  1  1  0
  1 34  1  6
  2  8  1  6
  2 31  1  0
 31  3  1  0
  3 35  2  0
  3 36  1  0
  4  5  1  0
  4 17  1  0
  4 36  1  6
  5 37  1  0
 17  6  1  0
  6 37  1  6
  6 38  1  0
 18  7  1  0
  7 38  1  0
  8 19  1  0
 10  9  2  0
 14  9  1  0
  9 28  1  0
 11 10  1  0
 12 11  2  0
 12 13  1  0
 41 12  1  0
 13 14  2  0
 15 26  1  0
 30 15  1  0
 30 16  1  0
 17 18  1  6
 19 20  1  0
 19 24  1  0
 20 21  1  0
 21 22  1  0
 23 22  1  0
 24 23  1  0
 28 25  1  0
 25 40  1  0
 26 27  1  1
 26 29  1  0
 28 39  1  1
 41 30  1  6
 41 32  2  0
 41 33  2  0
M  END
$$$$
