
     RDKit          3D

 41 44  0  0  0  0  0  0  0  0999 V2000
   70.5712   57.2046   15.5030 C   0  0  1  0  0  0  0  0  0  0  0  0
   70.8379   57.9938   16.7652 C   0  0  2  0  0  0  0  0  0  0  0  0
   72.8516   58.5138   18.1394 C   0  0  0  0  0  0  0  0  0  0  0  0
   74.8685   59.1052   19.4136 C   0  0  1  0  0  0  0  0  0  0  0  0
   76.2521   59.6242   19.2427 C   0  0  0  0  0  0  0  0  0  0  0  0
   75.0486   61.4220   19.6315 C   0  0  1  0  0  0  0  0  0  0  0  0
   72.8714   61.9716   19.6864 C   0  0  0  0  0  0  0  0  0  0  0  0
   70.0824   59.2830   16.8229 C   0  0  0  0  0  0  0  0  0  0  0  0
   73.2007   50.2745   13.6792 C   0  0  0  0  0  0  0  0  0  0  0  0
   72.3805   50.1540   14.8000 C   0  0  0  0  0  0  0  0  0  0  0  0
   71.9711   51.2825   15.4713 C   0  0  0  0  0  0  0  0  0  0  0  0
   72.3385   52.5532   15.0835 C   0  0  0  0  0  0  0  0  0  0  0  0
   73.1504   52.6495   13.9728 C   0  0  0  0  0  0  0  0  0  0  0  0
   73.5696   51.5335   13.2891 C   0  0  0  0  0  0  0  0  0  0  0  0
   69.7862   54.0644   14.2000 C   0  0  0  0  0  0  0  0  0  0  0  0
   69.9285   55.8716   15.8182 C   0  0  0  0  0  0  0  0  0  0  0  0
   74.3356   60.2586   20.2864 C   0  0  1  0  0  0  0  0  0  0  0  0
   72.8788   60.4969   20.1121 C   0  0  0  0  0  0  0  0  0  0  0  0
   69.4469   59.5629   18.1404 C   0  0  0  0  0  0  0  0  0  0  0  0
   69.6032   58.3798   19.0856 C   0  0  0  0  0  0  0  0  0  0  0  0
   68.7527   58.6173   20.3159 C   0  0  0  0  0  0  0  0  0  0  0  0
   68.1136   59.9713   20.3259 C   0  0  0  0  0  0  0  0  0  0  0  0
   69.0636   61.0923   20.0257 C   0  0  0  0  0  0  0  0  0  0  0  0
   69.9797   60.7771   18.8452 C   0  0  0  0  0  0  0  0  0  0  0  0
   72.6666   48.7188   11.8461 C   0  0  0  0  0  0  0  0  0  0  0  0
   68.3146   54.0274   14.5173 C   0  0  1  0  0  0  0  0  0  0  0  0
   68.1277   53.8266   16.0225 C   0  0  0  0  0  0  0  0  0  0  0  0
   73.6405   49.0696   12.9498 C   0  0  2  0  0  0  0  0  0  0  0  0
   67.6233   55.3307   14.1563 C   0  0  0  0  0  0  0  0  0  0  0  0
   70.5074   54.7537   15.1908 N   0  0  0  0  0  0  0  0  0  0  0  0
   72.2693   58.1553   16.9025 N   0  0  0  0  0  0  0  0  0  0  0  0
   71.5739   53.6961   17.3669 O   0  0  0  0  0  0  0  0  0  0  0  0
   73.0299   54.9403   15.8989 O   0  0  0  0  0  0  0  0  0  0  0  0
   69.9753   57.8956   14.4905 O   0  0  0  0  0  0  0  0  0  0  0  0
   72.2663   58.2727   19.2010 O   0  0  0  0  0  0  0  0  0  0  0  0
   74.0868   59.1442   18.2425 O   0  0  0  0  0  0  0  0  0  0  0  0
   76.0254   60.9219   18.8105 O   0  0  0  0  0  0  0  0  0  0  0  0
   74.0463   62.1286   18.9590 O   0  0  0  0  0  0  0  0  0  0  0  0
   73.8013   47.9626   13.7669 O   0  0  0  0  0  0  0  0  0  0  0  0
   73.3314   48.3525   10.6799 O   0  0  0  0  0  0  0  0  0  0  0  0
   71.8279   54.0054   15.9100 S   0  0  1  0  0  6  0  0  0  0  0  0
  1  2  1  0
 16  1  1  0
  1 34  1  6
  2  8  1  6
  2 31  1  0
 31  3  1  0
  3 35  2  0
  3 36  1  0
  4  5  1  0
  4 17  1  0
  4 36  1  6
  5 37  1  0
 17  6  1  0
  6 37  1  6
  6 38  1  0
 18  7  1  0
  7 38  1  0
  8 19  1  0
 10  9  2  0
 14  9  1  0
  9 28  1  0
 11 10  1  0
 12 11  2  0
 12 13  1  0
 41 12  1  0
 13 14  2  0
 15 26  1  0
 30 15  1  0
 30 16  1  0
 17 18  1  6
 19 20  1  0
 19 24  1  0
 20 21  1  0
 21 22  1  0
 23 22  1  0
 24 23  1  0
 28 25  1  0
 25 40  1  0
 26 27  1  1
 26 29  1  0
 28 39  1  1
 41 30  1  6
 41 32  2  0
 41 33  2  0
M  END
$$$$
