
     RDKit          3D

 41 44  0  0  0  0  0  0  0  0999 V2000
   71.0178   56.0471   17.7880 C   0  0  1  0  0  0  0  0  0  0  0  0
   71.0261   57.3851   18.4931 C   0  0  2  0  0  0  0  0  0  0  0  0
   72.7382   58.8255   19.5922 C   0  0  0  0  0  0  0  0  0  0  0  0
   74.6592   60.2469   20.1668 C   0  0  1  0  0  0  0  0  0  0  0  0
   75.7880   60.9690   19.5208 C   0  0  0  0  0  0  0  0  0  0  0  0
   74.2708   62.5258   19.8457 C   0  0  1  0  0  0  0  0  0  0  0  0
   72.0911   62.6215   20.3801 C   0  0  0  0  0  0  0  0  0  0  0  0
   70.2191   58.4268   17.7863 C   0  0  0  0  0  0  0  0  0  0  0  0
   67.0876   51.7081   13.0704 C   0  0  0  0  0  0  0  0  0  0  0  0
   68.4478   51.5336   12.8199 C   0  0  0  0  0  0  0  0  0  0  0  0
   69.3298   52.5514   13.0992 C   0  0  0  0  0  0  0  0  0  0  0  0
   68.9281   53.7604   13.6254 C   0  0  0  0  0  0  0  0  0  0  0  0
   67.5783   53.9120   13.8650 C   0  0  0  0  0  0  0  0  0  0  0  0
   66.6820   52.9066   13.5925 C   0  0  0  0  0  0  0  0  0  0  0  0
   71.4923   54.0060   15.9517 C   0  0  0  0  0  0  0  0  0  0  0  0
   70.4870   56.1770   16.3770 C   0  0  0  0  0  0  0  0  0  0  0  0
   74.0459   61.4589   20.8954 C   0  0  1  0  0  0  0  0  0  0  0  0
   72.5756   61.3450   21.0813 C   0  0  0  0  0  0  0  0  0  0  0  0
   69.3427   59.2342   18.6797 C   0  0  0  0  0  0  0  0  0  0  0  0
   67.8889   58.7985   18.5595 C   0  0  0  0  0  0  0  0  0  0  0  0
   67.0159   59.7878   19.3028 C   0  0  0  0  0  0  0  0  0  0  0  0
   67.8095   60.8196   20.0424 C   0  0  0  0  0  0  0  0  0  0  0  0
   68.9170   60.2488   20.8774 C   0  0  0  0  0  0  0  0  0  0  0  0
   69.7120   59.1776   20.1341 C   0  0  0  0  0  0  0  0  0  0  0  0
   66.2533   50.1671   11.3397 C   0  0  0  0  0  0  0  0  0  0  0  0
   72.8969   54.3094   15.5013 C   0  0  1  0  0  0  0  0  0  0  0  0
   73.8824   53.4850   16.3321 C   0  0  0  0  0  0  0  0  0  0  0  0
   66.1348   50.6197   12.7787 C   0  0  2  0  0  0  0  0  0  0  0  0
   73.1207   53.9317   14.0474 C   0  0  0  0  0  0  0  0  0  0  0  0
   70.6014   55.0266   15.5758 N   0  0  0  0  0  0  0  0  0  0  0  0
   72.4033   57.7706   18.7131 N   0  0  0  0  0  0  0  0  0  0  0  0
   71.1491   55.0899   12.9898 O   0  0  0  0  0  0  0  0  0  0  0  0
   69.2433   56.3534   13.7607 O   0  0  0  0  0  0  0  0  0  0  0  0
   72.1628   55.3159   17.8975 O   0  0  0  0  0  0  0  0  0  0  0  0
   72.2082   58.9053   20.7059 O   0  0  0  0  0  0  0  0  0  0  0  0
   73.6598   59.8164   19.2724 O   0  0  0  0  0  0  0  0  0  0  0  0
   75.1422   62.0328   18.9099 O   0  0  0  0  0  0  0  0  0  0  0  0
   72.9976   62.8128   19.3428 O   0  0  0  0  0  0  0  0  0  0  0  0
   64.8164   50.9643   13.0275 O   0  0  0  0  0  0  0  0  0  0  0  0
   66.2764   48.7792   11.2442 O   0  0  0  0  0  0  0  0  0  0  0  0
   70.0248   55.0683   13.9988 S   0  0  1  0  0  6  0  0  0  0  0  0
  1  2  1  0
 16  1  1  0
  1 34  1  6
  2  8  1  6
  2 31  1  0
 31  3  1  0
  3 35  2  0
  3 36  1  0
  4  5  1  0
  4 17  1  0
  4 36  1  6
  5 37  1  0
 17  6  1  0
  6 37  1  6
  6 38  1  0
 18  7  1  0
  7 38  1  0
  8 19  1  0
 10  9  2  0
 14  9  1  0
  9 28  1  0
 11 10  1  0
 12 11  2  0
 12 13  1  0
 41 12  1  0
 13 14  2  0
 15 26  1  0
 30 15  1  0
 30 16  1  0
 17 18  1  6
 19 20  1  0
 19 24  1  0
 20 21  1  0
 21 22  1  0
 23 22  1  0
 24 23  1  0
 28 25  1  0
 25 40  1  0
 26 27  1  1
 26 29  1  0
 28 39  1  6
 41 30  1  1
 41 32  2  0
 41 33  2  0
M  END
$$$$
