
     RDKit          3D

 41 44  0  0  0  0  0  0  0  0999 V2000
   71.0468   57.2679   15.3846 C   0  0  1  0  0  0  0  0  0  0  0  0
   70.6586   57.7761   16.7551 C   0  0  2  0  0  0  0  0  0  0  0  0
   72.4699   58.6230   18.2438 C   0  0  0  0  0  0  0  0  0  0  0  0
   74.3880   59.3090   19.6191 C   0  0  1  0  0  0  0  0  0  0  0  0
   75.7159   59.9716   19.5157 C   0  0  0  0  0  0  0  0  0  0  0  0
   74.3495   61.5945   20.0905 C   0  0  1  0  0  0  0  0  0  0  0  0
   72.1303   61.9274   20.1899 C   0  0  0  0  0  0  0  0  0  0  0  0
   69.2322   58.2174   16.8360 C   0  0  0  0  0  0  0  0  0  0  0  0
   67.0184   51.2354   13.3194 C   0  0  0  0  0  0  0  0  0  0  0  0
   67.6387   50.8821   14.5168 C   0  0  0  0  0  0  0  0  0  0  0  0
   68.0791   51.8638   15.3735 C   0  0  0  0  0  0  0  0  0  0  0  0
   67.9349   53.2075   15.1022 C   0  0  0  0  0  0  0  0  0  0  0  0
   67.3192   53.5349   13.9123 C   0  0  0  0  0  0  0  0  0  0  0  0
   66.8725   52.5681   13.0437 C   0  0  0  0  0  0  0  0  0  0  0  0
   71.1272   54.2586   16.0403 C   0  0  0  0  0  0  0  0  0  0  0  0
   70.1154   56.1667   14.9268 C   0  0  0  0  0  0  0  0  0  0  0  0
   73.7516   60.3044   20.6091 C   0  0  1  0  0  0  0  0  0  0  0  0
   72.2782   60.4223   20.4517 C   0  0  0  0  0  0  0  0  0  0  0  0
   68.8640   58.8691   18.1235 C   0  0  0  0  0  0  0  0  0  0  0  0
   67.4566   59.4463   18.0618 C   0  0  0  0  0  0  0  0  0  0  0  0
   67.2160   60.2892   19.2966 C   0  0  0  0  0  0  0  0  0  0  0  0
   68.3466   60.2188   20.2757 C   0  0  0  0  0  0  0  0  0  0  0  0
   68.7988   58.8214   20.5799 C   0  0  0  0  0  0  0  0  0  0  0  0
   68.9294   57.9662   19.3215 C   0  0  0  0  0  0  0  0  0  0  0  0
   67.6941   49.5273   11.6788 C   0  0  0  0  0  0  0  0  0  0  0  0
   72.2275   54.5333   15.0495 C   0  0  1  0  0  0  0  0  0  0  0  0
   73.2746   55.4416   15.6971 C   0  0  0  0  0  0  0  0  0  0  0  0
   66.5380   50.1889   12.3967 C   0  0  2  0  0  0  0  0  0  0  0  0
   72.9443   53.2616   14.6304 C   0  0  0  0  0  0  0  0  0  0  0  0
   70.0025   55.0656   15.7947 N   0  0  0  0  0  0  0  0  0  0  0  0
   71.6043   58.8011   17.1408 N   0  0  0  0  0  0  0  0  0  0  0  0
   67.4429   55.5790   16.2151 O   0  0  0  0  0  0  0  0  0  0  0  0
   68.4793   53.8739   17.5722 O   0  0  0  0  0  0  0  0  0  0  0  0
   71.2934   58.2271   14.4482 O   0  0  0  0  0  0  0  0  0  0  0  0
   72.2432   57.7440   19.0827 O   0  0  0  0  0  0  0  0  0  0  0  0
   73.6021   59.4024   18.4538 O   0  0  0  0  0  0  0  0  0  0  0  0
   75.3663   61.2817   19.2266 O   0  0  0  0  0  0  0  0  0  0  0  0
   73.2828   62.2731   19.4923 O   0  0  0  0  0  0  0  0  0  0  0  0
   65.6416   50.6608   11.4518 O   0  0  0  0  0  0  0  0  0  0  0  0
   67.2534   48.5151   10.8318 O   0  0  0  0  0  0  0  0  0  0  0  0
   68.4758   54.4771   16.1739 S   0  0  1  0  0  6  0  0  0  0  0  0
  1  2  1  0
 16  1  1  0
  1 34  1  6
  2  8  1  6
  2 31  1  0
 31  3  1  0
  3 35  2  0
  3 36  1  0
  4  5  1  0
  4 17  1  0
  4 36  1  6
  5 37  1  0
 17  6  1  0
  6 37  1  6
  6 38  1  0
 18  7  1  0
  7 38  1  0
  8 19  1  0
 10  9  2  0
 14  9  1  0
  9 28  1  0
 11 10  1  0
 12 11  2  0
 12 13  1  0
 41 12  1  0
 13 14  2  0
 15 26  1  0
 30 15  1  0
 30 16  1  0
 17 18  1  6
 19 20  1  0
 19 24  1  0
 20 21  1  0
 21 22  1  0
 23 22  1  0
 24 23  1  0
 28 25  1  0
 25 40  1  0
 26 27  1  1
 26 29  1  0
 28 39  1  6
 41 30  1  6
 41 32  2  0
 41 33  2  0
M  END
$$$$
