
     RDKit          3D

 41 44  0  0  0  0  0  0  0  0999 V2000
   71.3132   57.4369   15.6868 C   0  0  1  0  0  0  0  0  0  0  0  0
   71.0242   58.0123   17.0552 C   0  0  2  0  0  0  0  0  0  0  0  0
   72.9017   58.5713   18.5968 C   0  0  0  0  0  0  0  0  0  0  0  0
   74.3821   59.5030   20.3236 C   0  0  1  0  0  0  0  0  0  0  0  0
   75.6010   59.9321   19.5867 C   0  0  0  0  0  0  0  0  0  0  0  0
   74.7144   61.8130   20.2991 C   0  0  1  0  0  0  0  0  0  0  0  0
   72.7587   62.4902   21.1720 C   0  0  0  0  0  0  0  0  0  0  0  0
   69.7025   58.7073   17.1334 C   0  0  0  0  0  0  0  0  0  0  0  0
   67.1658   51.1009   13.9297 C   0  0  0  0  0  0  0  0  0  0  0  0
   68.0526   50.7104   14.9319 C   0  0  0  0  0  0  0  0  0  0  0  0
   68.7043   51.6652   15.6772 C   0  0  0  0  0  0  0  0  0  0  0  0
   68.5208   53.0168   15.4790 C   0  0  0  0  0  0  0  0  0  0  0  0
   67.6397   53.3810   14.4824 C   0  0  0  0  0  0  0  0  0  0  0  0
   66.9794   52.4416   13.7274 C   0  0  0  0  0  0  0  0  0  0  0  0
   71.4345   54.4222   14.7944 C   0  0  0  0  0  0  0  0  0  0  0  0
   70.2244   56.4781   15.2568 C   0  0  0  0  0  0  0  0  0  0  0  0
   74.2802   60.7250   21.2575 C   0  0  1  0  0  0  0  0  0  0  0  0
   72.8833   61.0392   21.6567 C   0  0  0  0  0  0  0  0  0  0  0  0
   69.3080   59.1217   18.5084 C   0  0  0  0  0  0  0  0  0  0  0  0
   68.2358   60.2018   18.4678 C   0  0  0  0  0  0  0  0  0  0  0  0
   68.0352   60.7486   19.8656 C   0  0  0  0  0  0  0  0  0  0  0  0
   68.8276   60.0071   20.8972 C   0  0  0  0  0  0  0  0  0  0  0  0
   68.6922   58.5160   20.8093 C   0  0  0  0  0  0  0  0  0  0  0  0
   68.7933   58.0071   19.3730 C   0  0  0  0  0  0  0  0  0  0  0  0
   65.7926   49.0583   14.0207 C   0  0  0  0  0  0  0  0  0  0  0  0
   72.8280   54.8462   15.1767 C   0  0  1  0  0  0  0  0  0  0  0  0
   73.1125   54.4073   16.6145 C   0  0  0  0  0  0  0  0  0  0  0  0
   66.4582   50.0834   13.1287 C   0  0  2  0  0  0  0  0  0  0  0  0
   73.8809   54.1926   14.2987 C   0  0  0  0  0  0  0  0  0  0  0  0
   70.4646   55.1205   15.5351 N   0  0  0  0  0  0  0  0  0  0  0  0
   72.1413   58.8485   17.4381 N   0  0  0  0  0  0  0  0  0  0  0  0
   68.2981   55.1583   17.0504 O   0  0  0  0  0  0  0  0  0  0  0  0
   70.0007   53.5303   17.5737 O   0  0  0  0  0  0  0  0  0  0  0  0
   71.6827   58.3387   14.7340 O   0  0  0  0  0  0  0  0  0  0  0  0
   73.3382   57.4334   18.8025 O   0  0  0  0  0  0  0  0  0  0  0  0
   73.2013   59.5324   19.5560 O   0  0  0  0  0  0  0  0  0  0  0  0
   75.2666   61.2191   19.1944 O   0  0  0  0  0  0  0  0  0  0  0  0
   73.5526   62.5444   20.0314 O   0  0  0  0  0  0  0  0  0  0  0  0
   67.2814   49.4223   12.2319 O   0  0  0  0  0  0  0  0  0  0  0  0
   64.9999   48.1831   13.2847 O   0  0  0  0  0  0  0  0  0  0  0  0
   69.3269   54.2527   16.4147 S   0  0  1  0  0  6  0  0  0  0  0  0
  1  2  1  0
 16  1  1  0
  1 34  1  6
  2  8  1  6
  2 31  1  0
 31  3  1  0
  3 35  2  0
  3 36  1  0
  4  5  1  0
  4 17  1  0
  4 36  1  6
  5 37  1  0
 17  6  1  0
  6 37  1  6
  6 38  1  0
 18  7  1  0
  7 38  1  0
  8 19  1  0
 10  9  2  0
 14  9  1  0
  9 28  1  0
 11 10  1  0
 12 11  2  0
 12 13  1  0
 41 12  1  0
 13 14  2  0
 15 26  1  0
 30 15  1  0
 30 16  1  0
 17 18  1  6
 19 20  1  0
 19 24  1  0
 20 21  1  0
 21 22  1  0
 23 22  1  0
 24 23  1  0
 28 25  1  0
 25 40  1  0
 26 27  1  1
 26 29  1  0
 28 39  1  6
 41 30  1  6
 41 32  2  0
 41 33  2  0
M  END
$$$$
