
     RDKit          3D

 41 44  0  0  0  0  0  0  0  0999 V2000
   70.7967   57.2020   15.4451 C   0  0  1  0  0  0  0  0  0  0  0  0
   70.5222   58.0434   16.6715 C   0  0  2  0  0  0  0  0  0  0  0  0
   72.5499   58.7462   17.9397 C   0  0  0  0  0  0  0  0  0  0  0  0
   74.4075   59.5486   19.3348 C   0  0  1  0  0  0  0  0  0  0  0  0
   75.7234   60.2366   19.2437 C   0  0  0  0  0  0  0  0  0  0  0  0
   74.2963   61.8589   19.6475 C   0  0  1  0  0  0  0  0  0  0  0  0
   72.0680   62.1407   19.6286 C   0  0  0  0  0  0  0  0  0  0  0  0
   69.2042   58.7477   16.6179 C   0  0  0  0  0  0  0  0  0  0  0  0
   67.0682   51.4945   13.5687 C   0  0  0  0  0  0  0  0  0  0  0  0
   66.7422   52.8465   13.4731 C   0  0  0  0  0  0  0  0  0  0  0  0
   67.4279   53.7695   14.2279 C   0  0  0  0  0  0  0  0  0  0  0  0
   68.4424   53.4176   15.0922 C   0  0  0  0  0  0  0  0  0  0  0  0
   68.7483   52.0751   15.1717 C   0  0  0  0  0  0  0  0  0  0  0  0
   68.0744   51.1383   14.4255 C   0  0  0  0  0  0  0  0  0  0  0  0
   71.4798   53.8191   14.6625 C   0  0  0  0  0  0  0  0  0  0  0  0
   71.5912   55.9639   15.7992 C   0  0  0  0  0  0  0  0  0  0  0  0
   73.7053   60.5915   20.2265 C   0  0  1  0  0  0  0  0  0  0  0  0
   72.2381   60.6608   19.9984 C   0  0  0  0  0  0  0  0  0  0  0  0
   68.7492   59.2976   17.9251 C   0  0  0  0  0  0  0  0  0  0  0  0
   67.4993   60.1500   17.7549 C   0  0  0  0  0  0  0  0  0  0  0  0
   67.2113   60.8664   19.0576 C   0  0  0  0  0  0  0  0  0  0  0  0
   68.1305   60.4498   20.1635 C   0  0  0  0  0  0  0  0  0  0  0  0
   68.2661   58.9634   20.3116 C   0  0  0  0  0  0  0  0  0  0  0  0
   68.4492   58.2602   18.9685 C   0  0  0  0  0  0  0  0  0  0  0  0
   66.9398   49.1189   12.9315 C   0  0  0  0  0  0  0  0  0  0  0  0
   72.9836   53.7898   14.7384 C   0  0  1  0  0  0  0  0  0  0  0  0
   73.4966   52.5026   14.0897 C   0  0  0  0  0  0  0  0  0  0  0  0
   66.3414   50.4979   12.7587 C   0  0  2  0  0  0  0  0  0  0  0  0
   73.6127   54.9468   13.9820 C   0  0  0  0  0  0  0  0  0  0  0  0
   70.9378   54.7380   15.5782 N   0  0  0  0  0  0  0  0  0  0  0  0
   71.6461   58.9330   16.8693 N   0  0  0  0  0  0  0  0  0  0  0  0
   68.6100   55.8913   16.0706 O   0  0  0  0  0  0  0  0  0  0  0  0
   69.2709   54.0550   17.4898 O   0  0  0  0  0  0  0  0  0  0  0  0
   69.7251   56.9748   14.6341 O   0  0  0  0  0  0  0  0  0  0  0  0
   72.3678   57.8427   18.7632 O   0  0  0  0  0  0  0  0  0  0  0  0
   73.6725   59.5436   18.1332 O   0  0  0  0  0  0  0  0  0  0  0  0
   75.3575   61.5150   18.8513 O   0  0  0  0  0  0  0  0  0  0  0  0
   73.2422   62.4683   18.9593 O   0  0  0  0  0  0  0  0  0  0  0  0
   66.3155   50.8035   11.4078 O   0  0  0  0  0  0  0  0  0  0  0  0
   65.9856   48.1241   12.7422 O   0  0  0  0  0  0  0  0  0  0  0  0
   69.3371   54.5670   16.0571 S   0  0  1  0  0  6  0  0  0  0  0  0
  1  2  1  0
 16  1  1  0
  1 34  1  1
  2  8  1  6
  2 31  1  0
 31  3  1  0
  3 35  2  0
  3 36  1  0
  4  5  1  0
  4 17  1  0
  4 36  1  6
  5 37  1  0
 17  6  1  0
  6 37  1  6
  6 38  1  0
 18  7  1  0
  7 38  1  0
  8 19  1  0
 10  9  2  0
 14  9  1  0
  9 28  1  0
 11 10  1  0
 12 11  2  0
 12 13  1  0
 41 12  1  0
 13 14  2  0
 15 26  1  0
 30 15  1  0
 30 16  1  0
 17 18  1  6
 19 20  1  0
 19 24  1  0
 20 21  1  0
 21 22  1  0
 23 22  1  0
 24 23  1  0
 28 25  1  0
 25 40  1  0
 26 27  1  6
 26 29  1  0
 28 39  1  6
 41 30  1  6
 41 32  2  0
 41 33  2  0
M  END
$$$$
