
     RDKit          3D

 41 44  0  0  0  0  0  0  0  0999 V2000
   72.0312   57.3203   15.5111 C   0  0  1  0  0  0  0  0  0  0  0  0
   70.6199   57.3550   16.0536 C   0  0  2  0  0  0  0  0  0  0  0  0
   69.2470   59.0609   17.2449 C   0  0  0  0  0  0  0  0  0  0  0  0
   68.1884   60.7366   18.6983 C   0  0  1  0  0  0  0  0  0  0  0  0
   69.0313   61.4639   19.6850 C   0  0  0  0  0  0  0  0  0  0  0  0
   68.3253   63.0357   18.3204 C   0  0  1  0  0  0  0  0  0  0  0  0
   67.3325   63.1527   16.3089 C   0  0  0  0  0  0  0  0  0  0  0  0
   69.6326   56.6649   15.1676 C   0  0  0  0  0  0  0  0  0  0  0  0
   75.5172   59.7515   22.1633 C   0  0  0  0  0  0  0  0  0  0  0  0
   75.6493   58.4147   21.7906 C   0  0  0  0  0  0  0  0  0  0  0  0
   74.8026   57.8819   20.8467 C   0  0  0  0  0  0  0  0  0  0  0  0
   73.8093   58.6186   20.2380 C   0  0  0  0  0  0  0  0  0  0  0  0
   73.6957   59.9385   20.6217 C   0  0  0  0  0  0  0  0  0  0  0  0
   74.5324   60.4884   21.5629 C   0  0  0  0  0  0  0  0  0  0  0  0
   74.5051   58.7643   17.2138 C   0  0  0  0  0  0  0  0  0  0  0  0
   73.0219   56.9431   16.5908 C   0  0  0  0  0  0  0  0  0  0  0  0
   67.2963   61.9262   18.2920 C   0  0  1  0  0  0  0  0  0  0  0  0
   66.8042   61.8350   16.8923 C   0  0  0  0  0  0  0  0  0  0  0  0
   68.4961   56.0317   15.8924 C   0  0  0  0  0  0  0  0  0  0  0  0
   67.4739   55.4636   14.9176 C   0  0  0  0  0  0  0  0  0  0  0  0
   66.2411   55.0406   15.6885 C   0  0  0  0  0  0  0  0  0  0  0  0
   66.4116   55.1700   17.1704 C   0  0  0  0  0  0  0  0  0  0  0  0
   67.6824   54.5657   17.6894 C   0  0  0  0  0  0  0  0  0  0  0  0
   68.8909   54.9254   16.8279 C   0  0  0  0  0  0  0  0  0  0  0  0
   75.8034   60.2869   24.5502 C   0  0  0  0  0  0  0  0  0  0  0  0
   75.2249   58.2931   15.9778 C   0  0  1  0  0  0  0  0  0  0  0  0
   75.5275   59.4952   15.0809 C   0  0  0  0  0  0  0  0  0  0  0  0
   76.4246   60.3329   23.1713 C   0  0  2  0  0  0  0  0  0  0  0  0
   76.5569   57.6434   16.3099 C   0  0  0  0  0  0  0  0  0  0  0  0
   73.3734   57.9740   17.4809 N   0  0  0  0  0  0  0  0  0  0  0  0
   70.2792   58.7325   16.3370 N   0  0  0  0  0  0  0  0  0  0  0  0
   72.2659   56.5948   19.4463 O   0  0  0  0  0  0  0  0  0  0  0  0
   71.4769   58.8450   19.0760 O   0  0  0  0  0  0  0  0  0  0  0  0
   72.1942   56.6523   14.3343 O   0  0  0  0  0  0  0  0  0  0  0  0
   68.6320   58.1712   17.8430 O   0  0  0  0  0  0  0  0  0  0  0  0
   68.8646   60.3695   17.5184 O   0  0  0  0  0  0  0  0  0  0  0  0
   69.4455   62.5684   18.9567 O   0  0  0  0  0  0  0  0  0  0  0  0
   68.5313   63.3728   16.9787 O   0  0  0  0  0  0  0  0  0  0  0  0
   76.7877   61.6404   22.8925 O   0  0  0  0  0  0  0  0  0  0  0  0
   76.7581   60.4798   25.5439 O   0  0  0  0  0  0  0  0  0  0  0  0
   72.7245   57.9729   19.0300 S   0  0  1  0  0  6  0  0  0  0  0  0
  1  2  1  0
 16  1  1  0
  1 34  1  6
  2  8  1  6
  2 31  1  0
 31  3  1  0
  3 35  2  0
  3 36  1  0
  4  5  1  0
  4 17  1  0
  4 36  1  6
  5 37  1  0
 17  6  1  0
  6 37  1  6
  6 38  1  0
 18  7  1  0
  7 38  1  0
  8 19  1  0
 10  9  2  0
 14  9  1  0
  9 28  1  0
 11 10  1  0
 12 11  2  0
 12 13  1  0
 41 12  1  0
 13 14  2  0
 15 26  1  0
 30 15  1  0
 30 16  1  0
 17 18  1  6
 19 20  1  0
 19 24  1  0
 20 21  1  0
 21 22  1  0
 23 22  1  0
 24 23  1  0
 28 25  1  0
 25 40  1  0
 26 27  1  6
 26 29  1  0
 28 39  1  6
 41 30  1  6
 41 32  2  0
 41 33  2  0
M  END
$$$$
