
     RDKit          3D

 41 44  0  0  0  0  0  0  0  0999 V2000
   71.0521   57.2559   15.6203 C   0  0  1  0  0  0  0  0  0  0  0  0
   71.0767   58.0158   16.9277 C   0  0  2  0  0  0  0  0  0  0  0  0
   72.7895   59.0989   18.3793 C   0  0  0  0  0  0  0  0  0  0  0  0
   74.7393   59.8819   19.6546 C   0  0  1  0  0  0  0  0  0  0  0  0
   76.0299   60.6069   19.5072 C   0  0  0  0  0  0  0  0  0  0  0  0
   74.5711   62.1916   19.9454 C   0  0  1  0  0  0  0  0  0  0  0  0
   72.3362   62.4079   20.0057 C   0  0  0  0  0  0  0  0  0  0  0  0
   70.1653   59.2013   16.9356 C   0  0  0  0  0  0  0  0  0  0  0  0
   67.2420   51.4421   13.2650 C   0  0  0  0  0  0  0  0  0  0  0  0
   68.3690   51.0490   13.9854 C   0  0  0  0  0  0  0  0  0  0  0  0
   69.0524   51.9724   14.7417 C   0  0  0  0  0  0  0  0  0  0  0  0
   68.6712   53.2944   14.8250 C   0  0  0  0  0  0  0  0  0  0  0  0
   67.5542   53.6618   14.1043 C   0  0  0  0  0  0  0  0  0  0  0  0
   66.8584   52.7536   13.3431 C   0  0  0  0  0  0  0  0  0  0  0  0
   71.5025   54.2245   14.0317 C   0  0  0  0  0  0  0  0  0  0  0  0
   71.7575   55.9236   15.7500 C   0  0  0  0  0  0  0  0  0  0  0  0
   74.0395   60.9147   20.5599 C   0  0  1  0  0  0  0  0  0  0  0  0
   72.5635   60.9382   20.3854 C   0  0  0  0  0  0  0  0  0  0  0  0
   69.4147   59.3894   18.2081 C   0  0  0  0  0  0  0  0  0  0  0  0
   69.3368   58.0882   18.9948 C   0  0  0  0  0  0  0  0  0  0  0  0
   68.3796   58.2707   20.1539 C   0  0  0  0  0  0  0  0  0  0  0  0
   67.8880   59.6791   20.2832 C   0  0  0  0  0  0  0  0  0  0  0  0
   68.9780   60.7083   20.2354 C   0  0  0  0  0  0  0  0  0  0  0  0
   69.9862   60.4354   19.1214 C   0  0  0  0  0  0  0  0  0  0  0  0
   66.1159   49.2518   13.2856 C   0  0  0  0  0  0  0  0  0  0  0  0
   73.0058   54.2083   13.9442 C   0  0  1  0  0  0  0  0  0  0  0  0
   73.5895   53.9486   15.3345 C   0  0  0  0  0  0  0  0  0  0  0  0
   66.4995   50.4570   12.4551 C   0  0  2  0  0  0  0  0  0  0  0  0
   73.5096   53.0977   13.0390 C   0  0  0  0  0  0  0  0  0  0  0  0
   71.0648   54.8154   15.2300 N   0  0  0  0  0  0  0  0  0  0  0  0
   72.4527   58.3417   17.2344 N   0  0  0  0  0  0  0  0  0  0  0  0
   68.6754   55.7417   15.8811 O   0  0  0  0  0  0  0  0  0  0  0  0
   69.5690   53.9282   17.1986 O   0  0  0  0  0  0  0  0  0  0  0  0
   69.8426   57.1980   14.9947 O   0  0  0  0  0  0  0  0  0  0  0  0
   72.0327   59.1285   19.3560 O   0  0  0  0  0  0  0  0  0  0  0  0
   73.9612   59.8407   18.4811 O   0  0  0  0  0  0  0  0  0  0  0  0
   75.6122   61.8692   19.1145 O   0  0  0  0  0  0  0  0  0  0  0  0
   73.4749   62.7615   19.2898 O   0  0  0  0  0  0  0  0  0  0  0  0
   67.2006   50.0229   11.3420 O   0  0  0  0  0  0  0  0  0  0  0  0
   65.4115   48.3187   12.5311 O   0  0  0  0  0  0  0  0  0  0  0  0
   69.5132   54.4883   15.7835 S   0  0  1  0  0  6  0  0  0  0  0  0
  1  2  1  0
 16  1  1  0
  1 34  1  1
  2  8  1  6
  2 31  1  0
 31  3  1  0
  3 35  2  0
  3 36  1  0
  4  5  1  0
  4 17  1  0
  4 36  1  6
  5 37  1  0
 17  6  1  0
  6 37  1  6
  6 38  1  0
 18  7  1  0
  7 38  1  0
  8 19  1  0
 10  9  2  0
 14  9  1  0
  9 28  1  0
 11 10  1  0
 12 11  2  0
 12 13  1  0
 41 12  1  0
 13 14  2  0
 15 26  1  0
 30 15  1  0
 30 16  1  0
 17 18  1  6
 19 20  1  0
 19 24  1  0
 20 21  1  0
 21 22  1  0
 23 22  1  0
 24 23  1  0
 28 25  1  0
 25 40  1  0
 26 27  1  1
 26 29  1  0
 28 39  1  6
 41 30  1  6
 41 32  2  0
 41 33  2  0
M  END
$$$$
