
     RDKit          3D

 41 44  0  0  0  0  0  0  0  0999 V2000
   70.6962   57.6522   15.1437 C   0  0  1  0  0  0  0  0  0  0  0  0
   70.6097   58.1976   16.5516 C   0  0  2  0  0  0  0  0  0  0  0  0
   72.7571   58.6626   17.7290 C   0  0  0  0  0  0  0  0  0  0  0  0
   74.7364   59.2500   19.0626 C   0  0  1  0  0  0  0  0  0  0  0  0
   76.1042   59.8179   18.9230 C   0  0  0  0  0  0  0  0  0  0  0  0
   74.8631   61.5408   19.4910 C   0  0  1  0  0  0  0  0  0  0  0  0
   72.6742   62.0269   19.6236 C   0  0  0  0  0  0  0  0  0  0  0  0
   69.3135   58.8867   16.8363 C   0  0  0  0  0  0  0  0  0  0  0  0
   72.4805   50.1222   14.8989 C   0  0  0  0  0  0  0  0  0  0  0  0
   71.4505   50.1756   15.8368 C   0  0  0  0  0  0  0  0  0  0  0  0
   71.0614   51.3886   16.3555 C   0  0  0  0  0  0  0  0  0  0  0  0
   71.6508   52.5788   15.9869 C   0  0  0  0  0  0  0  0  0  0  0  0
   72.6677   52.5031   15.0584 C   0  0  0  0  0  0  0  0  0  0  0  0
   73.0703   51.3006   14.5289 C   0  0  0  0  0  0  0  0  0  0  0  0
   69.2772   55.1675   15.0604 C   0  0  0  0  0  0  0  0  0  0  0  0
   71.4151   56.3211   15.1172 C   0  0  0  0  0  0  0  0  0  0  0  0
   74.1885   60.3042   20.0447 C   0  0  1  0  0  0  0  0  0  0  0  0
   72.7239   60.5201   19.9114 C   0  0  0  0  0  0  0  0  0  0  0  0
   69.0071   59.0424   18.2854 C   0  0  0  0  0  0  0  0  0  0  0  0
   69.9366   60.0583   18.9351 C   0  0  0  0  0  0  0  0  0  0  0  0
   69.7424   60.0132   20.4362 C   0  0  0  0  0  0  0  0  0  0  0  0
   68.6273   59.1033   20.8492 C   0  0  0  0  0  0  0  0  0  0  0  0
   67.3552   59.3176   20.0842 C   0  0  0  0  0  0  0  0  0  0  0  0
   67.5975   59.4652   18.5837 C   0  0  0  0  0  0  0  0  0  0  0  0
   73.0934   47.7953   15.4242 C   0  0  0  0  0  0  0  0  0  0  0  0
   69.1284   54.9873   13.5728 C   0  0  1  0  0  0  0  0  0  0  0  0
   69.8830   53.7290   13.1389 C   0  0  0  0  0  0  0  0  0  0  0  0
   72.9010   48.8259   14.3331 C   0  0  2  0  0  0  0  0  0  0  0  0
   67.6777   54.7945   13.1668 C   0  0  0  0  0  0  0  0  0  0  0  0
   70.6304   55.1994   15.4405 N   0  0  0  0  0  0  0  0  0  0  0  0
   71.7706   59.0290   16.7856 N   0  0  0  0  0  0  0  0  0  0  0  0
   70.1510   53.9432   17.7172 O   0  0  0  0  0  0  0  0  0  0  0  0
   72.4050   54.7037   17.3125 O   0  0  0  0  0  0  0  0  0  0  0  0
   69.5375   57.6847   14.4266 O   0  0  0  0  0  0  0  0  0  0  0  0
   72.6003   57.6676   18.4454 O   0  0  0  0  0  0  0  0  0  0  0  0
   73.9367   59.3764   17.9100 O   0  0  0  0  0  0  0  0  0  0  0  0
   75.8396   61.1436   18.6153 O   0  0  0  0  0  0  0  0  0  0  0  0
   73.8340   62.2803   18.8992 O   0  0  0  0  0  0  0  0  0  0  0  0
   74.0663   48.9052   13.5883 O   0  0  0  0  0  0  0  0  0  0  0  0
   72.2327   46.7145   15.2592 O   0  0  0  0  0  0  0  0  0  0  0  0
   71.1730   54.1352   16.6212 S   0  0  1  0  0  6  0  0  0  0  0  0
  1  2  1  0
 16  1  1  0
  1 34  1  1
  2  8  1  6
  2 31  1  0
 31  3  1  0
  3 35  2  0
  3 36  1  0
  4  5  1  0
  4 17  1  0
  4 36  1  6
  5 37  1  0
 17  6  1  0
  6 37  1  6
  6 38  1  0
 18  7  1  0
  7 38  1  0
  8 19  1  0
 10  9  2  0
 14  9  1  0
  9 28  1  0
 11 10  1  0
 12 11  2  0
 12 13  1  0
 41 12  1  0
 13 14  2  0
 15 26  1  0
 30 15  1  0
 30 16  1  0
 17 18  1  6
 19 20  1  0
 19 24  1  0
 20 21  1  0
 21 22  1  0
 23 22  1  0
 24 23  1  0
 28 25  1  0
 25 40  1  0
 26 27  1  1
 26 29  1  0
 28 39  1  1
 41 30  1  6
 41 32  2  0
 41 33  2  0
M  END
$$$$
