
     RDKit          3D

 41 44  0  0  0  0  0  0  0  0999 V2000
   71.3805   57.2723   15.3453 C   0  0  1  0  0  0  0  0  0  0  0  0
   71.1173   57.7938   16.7404 C   0  0  2  0  0  0  0  0  0  0  0  0
   72.6143   58.7304   18.4999 C   0  0  0  0  0  0  0  0  0  0  0  0
   74.2191   59.3346   20.2607 C   0  0  1  0  0  0  0  0  0  0  0  0
   75.4837   60.0923   20.4598 C   0  0  0  0  0  0  0  0  0  0  0  0
   73.9662   61.6522   20.1517 C   0  0  1  0  0  0  0  0  0  0  0  0
   71.8458   61.7718   19.4202 C   0  0  0  0  0  0  0  0  0  0  0  0
   69.8042   58.4980   16.8665 C   0  0  0  0  0  0  0  0  0  0  0  0
   67.1888   50.7958   14.3075 C   0  0  0  0  0  0  0  0  0  0  0  0
   67.7120   50.6159   15.5871 C   0  0  0  0  0  0  0  0  0  0  0  0
   68.4048   51.6387   16.1917 C   0  0  0  0  0  0  0  0  0  0  0  0
   68.6120   52.8582   15.5836 C   0  0  0  0  0  0  0  0  0  0  0  0
   68.0864   53.0146   14.3181 C   0  0  0  0  0  0  0  0  0  0  0  0
   67.3914   52.0043   13.6979 C   0  0  0  0  0  0  0  0  0  0  0  0
   71.4407   54.1637   14.5260 C   0  0  0  0  0  0  0  0  0  0  0  0
   70.3176   56.2816   14.9234 C   0  0  0  0  0  0  0  0  0  0  0  0
   73.2539   60.4445   20.7217 C   0  0  1  0  0  0  0  0  0  0  0  0
   71.9267   60.3770   20.0557 C   0  0  0  0  0  0  0  0  0  0  0  0
   69.4298   58.8516   18.2639 C   0  0  0  0  0  0  0  0  0  0  0  0
   68.1548   59.6830   18.2950 C   0  0  0  0  0  0  0  0  0  0  0  0
   67.9433   60.2070   19.7000 C   0  0  0  0  0  0  0  0  0  0  0  0
   68.9445   59.6704   20.6754 C   0  0  0  0  0  0  0  0  0  0  0  0
   69.1189   58.1822   20.6082 C   0  0  0  0  0  0  0  0  0  0  0  0
   69.2228   57.6738   19.1720 C   0  0  0  0  0  0  0  0  0  0  0  0
   65.7942   50.1852   12.3715 C   0  0  0  0  0  0  0  0  0  0  0  0
   72.7831   54.0436   15.1978 C   0  0  1  0  0  0  0  0  0  0  0  0
   73.1823   55.4035   15.7743 C   0  0  0  0  0  0  0  0  0  0  0  0
   66.4396   49.7057   13.6533 C   0  0  2  0  0  0  0  0  0  0  0  0
   72.7515   53.0641   16.3580 C   0  0  0  0  0  0  0  0  0  0  0  0
   70.5536   54.9438   15.2884 N   0  0  0  0  0  0  0  0  0  0  0  0
   72.2485   58.6025   17.1407 N   0  0  0  0  0  0  0  0  0  0  0  0
   68.4965   55.1518   16.9365 O   0  0  0  0  0  0  0  0  0  0  0  0
   70.2322   53.5757   17.5075 O   0  0  0  0  0  0  0  0  0  0  0  0
   71.6780   58.2171   14.4091 O   0  0  0  0  0  0  0  0  0  0  0  0
   71.7902   58.5093   19.3941 O   0  0  0  0  0  0  0  0  0  0  0  0
   73.8892   59.1032   18.9110 O   0  0  0  0  0  0  0  0  0  0  0  0
   75.2280   61.2711   19.7765 O   0  0  0  0  0  0  0  0  0  0  0  0
   73.1614   62.0797   19.0907 O   0  0  0  0  0  0  0  0  0  0  0  0
   65.4606   49.1516   14.4618 O   0  0  0  0  0  0  0  0  0  0  0  0
   65.5495   49.1284   11.5000 O   0  0  0  0  0  0  0  0  0  0  0  0
   69.4798   54.1789   16.3289 S   0  0  1  0  0  6  0  0  0  0  0  0
  1  2  1  0
 16  1  1  0
  1 34  1  6
  2  8  1  6
  2 31  1  0
 31  3  1  0
  3 35  2  0
  3 36  1  0
  4  5  1  0
  4 17  1  0
  4 36  1  6
  5 37  1  0
 17  6  1  0
  6 37  1  6
  6 38  1  0
 18  7  1  0
  7 38  1  0
  8 19  1  0
 10  9  2  0
 14  9  1  0
  9 28  1  0
 11 10  1  0
 12 11  2  0
 12 13  1  0
 41 12  1  0
 13 14  2  0
 15 26  1  0
 30 15  1  0
 30 16  1  0
 17 18  1  6
 19 20  1  0
 19 24  1  0
 20 21  1  0
 21 22  1  0
 23 22  1  0
 24 23  1  0
 28 25  1  0
 25 40  1  0
 26 27  1  1
 26 29  1  0
 28 39  1  1
 41 30  1  6
 41 32  2  0
 41 33  2  0
M  END
$$$$
