
     RDKit          3D

 23 24  0  0  0  0  0  0  0  0999 V2000
   -7.2671  -33.7909  -14.8881 C   0  0  1  0  0  0  0  0  0  0  0  0
   -6.9760  -35.0392  -14.1084 C   0  0  1  0  0  0  0  0  0  0  0  0
   -6.9024  -36.2768  -14.9293 C   0  0  2  0  0  0  0  0  0  0  0  0
   -6.7308  -35.9730  -16.4014 C   0  0  1  0  0  0  0  0  0  0  0  0
   -5.8356  -34.7424  -16.4491 C   0  0  1  0  0  0  0  0  0  0  0  0
   -5.4088  -34.5449  -17.8961 C   0  0  0  0  0  0  0  0  0  0  0  0
   -6.9528  -32.6761  -14.0928 O   0  0  0  0  0  0  0  0  0  0  0  0
   -5.7744  -34.8576  -13.4342 O   0  0  0  0  0  0  0  0  0  0  0  0
   -8.0081  -37.1107  -14.7823 O   0  0  0  0  0  0  0  0  0  0  0  0
   -6.1309  -37.0406  -17.0665 O   0  0  0  0  0  0  0  0  0  0  0  0
   -6.5947  -33.6658  -16.0581 O   0  0  0  0  0  0  0  0  0  0  0  0
   -6.4309  -33.8749  -18.5934 O   0  0  0  0  0  0  0  0  0  0  0  0
   -7.8480  -29.0974  -15.4106 C   0  0  1  0  0  0  0  0  0  0  0  0
   -7.7723  -29.1384  -13.9238 C   0  0  1  0  0  0  0  0  0  0  0  0
   -7.8331  -30.6093  -13.5021 C   0  0  2  0  0  0  0  0  0  0  0  0
   -7.3054  -31.4859  -14.6581 C   0  0  1  0  0  0  0  0  0  0  0  0
   -6.1881  -30.6973  -15.2513 C   0  0  1  0  0  0  0  0  0  0  0  0
   -5.2488  -31.4279  -16.1407 C   0  0  0  0  0  0  0  0  0  0  0  0
   -8.0327  -27.7749  -15.8089 O   0  0  0  0  0  0  0  0  0  0  0  0
   -6.6821  -28.4875  -13.3846 O   0  0  0  0  0  0  0  0  0  0  0  0
   -9.1461  -30.8905  -13.2222 O   0  0  0  0  0  0  0  0  0  0  0  0
   -6.6857  -29.6073  -15.9606 O   0  0  0  0  0  0  0  0  0  0  0  0
   -4.5268  -30.6778  -17.0185 O   0  0  0  0  0  0  0  0  0  0  0  0
  1  2  1  0
  1  7  1  1
  1 11  1  0
  2  3  1  0
  2  8  1  6
  3  4  1  0
  3  9  1  6
  5  4  1  0
  4 10  1  6
  5  6  1  0
  5 11  1  6
  6 12  1  6
 16  7  1  1
 13 14  1  0
 13 19  1  1
 22 13  1  0
 15 14  1  0
 14 20  1  6
 16 15  1  0
 15 21  1  6
 17 16  1  0
 18 17  1  0
 17 22  1  6
 18 23  1  6
M  END
$$$$
