
     RDKit          3D

 23 24  0  0  0  0  0  0  0  0999 V2000
   -7.0438  -33.7541  -16.3710 C   0  0  1  0  0  0  0  0  0  0  0  0
   -7.8354  -34.7956  -17.1058 C   0  0  1  0  0  0  0  0  0  0  0  0
   -7.0688  -36.0205  -17.4561 C   0  0  2  0  0  0  0  0  0  0  0  0
   -5.7893  -36.1382  -16.6574 C   0  0  1  0  0  0  0  0  0  0  0  0
   -6.1321  -35.5894  -15.2792 C   0  0  1  0  0  0  0  0  0  0  0  0
   -4.9715  -35.9236  -14.3539 C   0  0  0  0  0  0  0  0  0  0  0  0
   -7.9336  -32.8383  -15.7851 O   0  0  0  0  0  0  0  0  0  0  0  0
   -8.9288  -35.1413  -16.3207 O   0  0  0  0  0  0  0  0  0  0  0  0
   -6.7483  -36.1106  -18.8084 O   0  0  0  0  0  0  0  0  0  0  0  0
   -5.3761  -37.4659  -16.5665 O   0  0  0  0  0  0  0  0  0  0  0  0
   -6.2315  -34.2236  -15.3931 O   0  0  0  0  0  0  0  0  0  0  0  0
   -3.7592  -35.6515  -15.0141 O   0  0  0  0  0  0  0  0  0  0  0  0
   -6.4916  -30.0126  -13.4869 C   0  0  1  0  0  0  0  0  0  0  0  0
   -7.6841  -29.5519  -14.2510 C   0  0  1  0  0  0  0  0  0  0  0  0
   -7.9116  -30.5492  -15.3906 C   0  0  2  0  0  0  0  0  0  0  0  0
   -7.3212  -31.9173  -14.9867 C   0  0  1  0  0  0  0  0  0  0  0  0
   -7.6060  -32.0365  -13.5284 C   0  0  1  0  0  0  0  0  0  0  0  0
   -7.4887  -33.3913  -12.9299 C   0  0  0  0  0  0  0  0  0  0  0  0
   -6.1200  -29.0072  -12.5965 O   0  0  0  0  0  0  0  0  0  0  0  0
   -8.8189  -29.3646  -13.4895 O   0  0  0  0  0  0  0  0  0  0  0  0
   -7.2812  -30.0412  -16.4978 O   0  0  0  0  0  0  0  0  0  0  0  0
   -6.7864  -31.1772  -12.8013 O   0  0  0  0  0  0  0  0  0  0  0  0
   -6.9432  -33.4662  -11.6845 O   0  0  0  0  0  0  0  0  0  0  0  0
  1  2  1  0
  1  7  1  1
  1 11  1  0
  2  3  1  0
  2  8  1  1
  3  4  1  0
  3  9  1  6
  5  4  1  0
  4 10  1  1
  5  6  1  0
  5 11  1  6
  6 12  1  6
 16  7  1  6
 13 14  1  0
 13 19  1  1
 22 13  1  0
 15 14  1  0
 14 20  1  1
 16 15  1  0
 15 21  1  6
 17 16  1  0
 18 17  1  0
 17 22  1  1
 18 23  1  6
M  END
$$$$
