
     RDKit          3D

 23 24  0  0  0  0  0  0  0  0999 V2000
   -7.4986  -34.0662  -15.2048 C   0  0  1  0  0  0  0  0  0  0  0  0
   -7.6656  -34.9264  -13.9819 C   0  0  1  0  0  0  0  0  0  0  0  0
   -6.3428  -35.6686  -13.7408 C   0  0  2  0  0  0  0  0  0  0  0  0
   -6.1298  -36.5207  -14.9788 C   0  0  1  0  0  0  0  0  0  0  0  0
   -6.1119  -35.5884  -16.1730 C   0  0  1  0  0  0  0  0  0  0  0  0
   -5.7322  -36.3584  -17.3940 C   0  0  0  0  0  0  0  0  0  0  0  0
   -6.5714  -33.1017  -15.1335 O   0  0  0  0  0  0  0  0  0  0  0  0
   -7.9824  -34.2642  -12.8336 O   0  0  0  0  0  0  0  0  0  0  0  0
   -6.5318  -36.4571  -12.6168 O   0  0  0  0  0  0  0  0  0  0  0  0
   -4.9373  -37.2040  -14.8939 O   0  0  0  0  0  0  0  0  0  0  0  0
   -7.3415  -34.9349  -16.3124 O   0  0  0  0  0  0  0  0  0  0  0  0
   -6.7322  -37.2641  -17.7518 O   0  0  0  0  0  0  0  0  0  0  0  0
   -6.4296  -29.5073  -16.8247 C   0  0  1  0  0  0  0  0  0  0  0  0
   -7.5910  -29.6081  -15.8740 C   0  0  1  0  0  0  0  0  0  0  0  0
   -7.4382  -30.8437  -15.0113 C   0  0  2  0  0  0  0  0  0  0  0  0
   -6.7365  -31.9437  -15.8094 C   0  0  1  0  0  0  0  0  0  0  0  0
   -5.3312  -31.3989  -16.0625 C   0  0  1  0  0  0  0  0  0  0  0  0
   -4.6632  -32.0452  -17.2340 C   0  0  0  0  0  0  0  0  0  0  0  0
   -6.1660  -28.1357  -17.0465 O   0  0  0  0  0  0  0  0  0  0  0  0
   -7.6308  -28.4682  -15.0772 O   0  0  0  0  0  0  0  0  0  0  0  0
   -8.6871  -31.1954  -14.5687 O   0  0  0  0  0  0  0  0  0  0  0  0
   -5.3209  -30.0255  -16.2023 O   0  0  0  0  0  0  0  0  0  0  0  0
   -5.2368  -31.6388  -18.4487 O   0  0  0  0  0  0  0  0  0  0  0  0
  1  2  1  0
  1  7  1  1
  1 11  1  0
  2  3  1  0
  2  8  1  1
  3  4  1  0
  3  9  1  1
  5  4  1  0
  4 10  1  1
  5  6  1  6
 11  5  1  0
  6 12  1  0
 16  7  1  1
 13 14  1  0
 13 19  1  1
 22 13  1  0
 15 14  1  0
 14 20  1  1
 16 15  1  0
 15 21  1  6
 17 16  1  0
 17 18  1  6
 17 22  1  0
 23 18  1  0
M  END
$$$$
