
     RDKit          3D

 23 24  0  0  0  0  0  0  0  0999 V2000
   -7.3590  -34.0441  -15.6304 C   0  0  1  0  0  0  0  0  0  0  0  0
   -8.3205  -35.1943  -15.5697 C   0  0  1  0  0  0  0  0  0  0  0  0
   -8.0171  -36.3030  -16.5129 C   0  0  2  0  0  0  0  0  0  0  0  0
   -6.6000  -36.2310  -17.0378 C   0  0  1  0  0  0  0  0  0  0  0  0
   -5.7706  -35.7211  -15.8672 C   0  0  1  0  0  0  0  0  0  0  0  0
   -4.3050  -35.8789  -16.2440 C   0  0  0  0  0  0  0  0  0  0  0  0
   -7.5216  -33.2562  -14.4787 O   0  0  0  0  0  0  0  0  0  0  0  0
   -8.3297  -35.6819  -14.2683 O   0  0  0  0  0  0  0  0  0  0  0  0
   -8.8829  -36.3618  -17.6022 O   0  0  0  0  0  0  0  0  0  0  0  0
   -6.1523  -37.4865  -17.4445 O   0  0  0  0  0  0  0  0  0  0  0  0
   -6.0500  -34.3842  -15.7164 O   0  0  0  0  0  0  0  0  0  0  0  0
   -3.5187  -35.0842  -15.3897 O   0  0  0  0  0  0  0  0  0  0  0  0
   -6.3029  -29.5341  -14.5584 C   0  0  1  0  0  0  0  0  0  0  0  0
   -7.5812  -29.6836  -13.8089 C   0  0  1  0  0  0  0  0  0  0  0  0
   -8.1728  -31.0467  -14.1789 C   0  0  2  0  0  0  0  0  0  0  0  0
   -7.0297  -31.9907  -14.6095 C   0  0  1  0  0  0  0  0  0  0  0  0
   -5.8934  -31.6439  -13.7092 C   0  0  1  0  0  0  0  0  0  0  0  0
   -4.7771  -32.6212  -13.6299 C   0  0  0  0  0  0  0  0  0  0  0  0
   -5.8638  -28.2181  -14.4280 O   0  0  0  0  0  0  0  0  0  0  0  0
   -7.4712  -29.5176  -12.4439 O   0  0  0  0  0  0  0  0  0  0  0  0
   -9.0567  -30.8330  -15.2058 O   0  0  0  0  0  0  0  0  0  0  0  0
   -5.3543  -30.4091  -14.0607 O   0  0  0  0  0  0  0  0  0  0  0  0
   -3.5141  -32.1144  -13.6768 O   0  0  0  0  0  0  0  0  0  0  0  0
  1  2  1  0
  1  7  1  1
  1 11  1  0
  2  3  1  0
  2  8  1  1
  3  4  1  0
  3  9  1  6
  5  4  1  0
  4 10  1  1
  5  6  1  0
  5 11  1  6
  6 12  1  6
 16  7  1  1
 13 14  1  0
 13 19  1  1
 22 13  1  0
 15 14  1  0
 14 20  1  1
 16 15  1  0
 15 21  1  6
 17 16  1  0
 18 17  1  0
 17 22  1  6
 18 23  1  6
M  END
$$$$
