
     RDKit          3D

 23 24  0  0  0  0  0  0  0  0999 V2000
   -7.5124  -32.4785  -15.4779 C   0  0  1  0  0  0  0  0  0  0  0  0
   -7.4404  -31.0629  -14.9860 C   0  0  1  0  0  0  0  0  0  0  0  0
   -7.4723  -30.9212  -13.5062 C   0  0  2  0  0  0  0  0  0  0  0  0
   -7.1621  -32.2246  -12.8036 C   0  0  1  0  0  0  0  0  0  0  0  0
   -6.1132  -32.9028  -13.6742 C   0  0  1  0  0  0  0  0  0  0  0  0
   -5.5661  -34.0865  -12.8902 C   0  0  0  0  0  0  0  0  0  0  0  0
   -7.1111  -32.5116  -16.8239 O   0  0  0  0  0  0  0  0  0  0  0  0
   -6.2745  -30.4917  -15.4817 O   0  0  0  0  0  0  0  0  0  0  0  0
   -8.6845  -30.4403  -13.0176 O   0  0  0  0  0  0  0  0  0  0  0  0
   -6.6620  -31.9964  -11.5230 O   0  0  0  0  0  0  0  0  0  0  0  0
   -6.7507  -33.3699  -14.7982 O   0  0  0  0  0  0  0  0  0  0  0  0
   -6.5867  -35.0395  -12.7176 O   0  0  0  0  0  0  0  0  0  0  0  0
   -6.0808  -35.9425  -18.4091 C   0  0  1  0  0  0  0  0  0  0  0  0
   -6.5143  -34.9616  -19.4426 C   0  0  1  0  0  0  0  0  0  0  0  0
   -7.2693  -33.8407  -18.7224 C   0  0  2  0  0  0  0  0  0  0  0  0
   -6.7746  -33.7586  -17.2623 C   0  0  1  0  0  0  0  0  0  0  0  0
   -5.3132  -34.0421  -17.3416 C   0  0  1  0  0  0  0  0  0  0  0  0
   -4.4933  -33.6774  -16.1575 C   0  0  0  0  0  0  0  0  0  0  0  0
   -5.6027  -37.0823  -19.0525 O   0  0  0  0  0  0  0  0  0  0  0  0
   -5.4974  -34.4761  -20.2381 O   0  0  0  0  0  0  0  0  0  0  0  0
   -8.6029  -34.1562  -18.7802 O   0  0  0  0  0  0  0  0  0  0  0  0
   -5.0937  -35.3901  -17.6129 O   0  0  0  0  0  0  0  0  0  0  0  0
   -3.5074  -34.5472  -15.8030 O   0  0  0  0  0  0  0  0  0  0  0  0
  1  2  1  0
  1  7  1  6
  1 11  1  0
  2  3  1  0
  2  8  1  1
  3  4  1  0
  3  9  1  1
  5  4  1  0
  4 10  1  1
  5  6  1  0
  5 11  1  6
  6 12  1  6
 16  7  1  6
 13 14  1  0
 13 19  1  6
 22 13  1  0
 15 14  1  0
 14 20  1  1
 16 15  1  0
 15 21  1  1
 17 16  1  0
 18 17  1  0
 17 22  1  1
 18 23  1  6
M  END
$$$$
