
     RDKit          3D

 23 24  0  0  0  0  0  0  0  0999 V2000
   -7.6080  -33.2216  -14.8573 C   0  0  1  0  0  0  0  0  0  0  0  0
   -8.0583  -32.1109  -13.9479 C   0  0  1  0  0  0  0  0  0  0  0  0
   -6.8156  -31.3169  -13.5190 C   0  0  2  0  0  0  0  0  0  0  0  0
   -5.9434  -32.3099  -12.7723 C   0  0  1  0  0  0  0  0  0  0  0  0
   -5.6530  -33.4581  -13.7172 C   0  0  1  0  0  0  0  0  0  0  0  0
   -4.6573  -34.3748  -13.0879 C   0  0  0  0  0  0  0  0  0  0  0  0
   -7.0228  -32.8527  -16.0047 O   0  0  0  0  0  0  0  0  0  0  0  0
   -8.9453  -31.2287  -14.4886 O   0  0  0  0  0  0  0  0  0  0  0  0
   -7.2616  -30.3103  -12.6771 O   0  0  0  0  0  0  0  0  0  0  0  0
   -4.7669  -31.7144  -12.3754 O   0  0  0  0  0  0  0  0  0  0  0  0
   -6.8341  -34.1162  -14.0782 O   0  0  0  0  0  0  0  0  0  0  0  0
   -5.1690  -35.6673  -12.9620 O   0  0  0  0  0  0  0  0  0  0  0  0
   -6.5827  -34.8054  -19.4389 C   0  0  1  0  0  0  0  0  0  0  0  0
   -8.0375  -34.5681  -19.1386 C   0  0  1  0  0  0  0  0  0  0  0  0
   -8.1688  -33.5568  -18.0186 C   0  0  2  0  0  0  0  0  0  0  0  0
   -6.9879  -33.6992  -17.0571 C   0  0  1  0  0  0  0  0  0  0  0  0
   -5.7675  -33.2949  -17.8834 C   0  0  1  0  0  0  0  0  0  0  0  0
   -4.4899  -33.8455  -17.3347 C   0  0  0  0  0  0  0  0  0  0  0  0
   -6.4631  -35.0858  -20.8198 O   0  0  0  0  0  0  0  0  0  0  0  0
   -8.6712  -34.0998  -20.2852 O   0  0  0  0  0  0  0  0  0  0  0  0
   -9.3890  -33.7533  -17.4257 O   0  0  0  0  0  0  0  0  0  0  0  0
   -5.9028  -33.6337  -19.2148 O   0  0  0  0  0  0  0  0  0  0  0  0
   -4.3685  -35.2216  -17.5817 O   0  0  0  0  0  0  0  0  0  0  0  0
  1  2  1  0
  1  7  1  6
  1 11  1  0
  2  3  1  0
  2  8  1  6
  3  4  1  0
  3  9  1  1
  5  4  1  0
  4 10  1  6
  5  6  1  1
 11  5  1  0
  6 12  1  0
 16  7  1  1
 13 14  1  0
 13 19  1  6
 22 13  1  0
 15 14  1  0
 14 20  1  6
 16 15  1  0
 15 21  1  1
 17 16  1  0
 17 18  1  1
 17 22  1  0
 23 18  1  0
M  END
$$$$
