
     RDKit          3D

 23 24  0  0  0  0  0  0  0  0999 V2000
   -7.3545  -34.0335  -15.9263 C   0  0  1  0  0  0  0  0  0  0  0  0
   -8.3299  -35.0376  -16.4662 C   0  0  1  0  0  0  0  0  0  0  0  0
   -7.7080  -36.1614  -17.2155 C   0  0  2  0  0  0  0  0  0  0  0  0
   -6.2262  -36.2807  -16.9345 C   0  0  1  0  0  0  0  0  0  0  0  0
   -6.0719  -35.9133  -15.4650 C   0  0  1  0  0  0  0  0  0  0  0  0
   -4.6513  -36.2695  -15.0528 C   0  0  0  0  0  0  0  0  0  0  0  0
   -8.0009  -33.2508  -14.9550 O   0  0  0  0  0  0  0  0  0  0  0  0
   -9.0660  -35.5418  -15.4007 O   0  0  0  0  0  0  0  0  0  0  0  0
   -7.8849  -36.0784  -18.5944 O   0  0  0  0  0  0  0  0  0  0  0  0
   -5.7760  -37.5794  -17.1641 O   0  0  0  0  0  0  0  0  0  0  0  0
   -6.2377  -34.5532  -15.3613 O   0  0  0  0  0  0  0  0  0  0  0  0
   -3.7567  -35.8306  -16.0462 O   0  0  0  0  0  0  0  0  0  0  0  0
   -6.6402  -29.6433  -14.2619 C   0  0  1  0  0  0  0  0  0  0  0  0
   -8.1185  -29.6535  -14.4437 C   0  0  1  0  0  0  0  0  0  0  0  0
   -8.4900  -30.9848  -15.1029 C   0  0  2  0  0  0  0  0  0  0  0  0
   -7.4142  -32.0358  -14.7547 C   0  0  1  0  0  0  0  0  0  0  0  0
   -7.0280  -31.7300  -13.3477 C   0  0  1  0  0  0  0  0  0  0  0  0
   -6.2851  -32.7847  -12.6109 C   0  0  0  0  0  0  0  0  0  0  0  0
   -6.2486  -28.3600  -13.8859 O   0  0  0  0  0  0  0  0  0  0  0  0
   -8.8418  -29.4237  -13.2919 O   0  0  0  0  0  0  0  0  0  0  0  0
   -8.5475  -30.7590  -16.4546 O   0  0  0  0  0  0  0  0  0  0  0  0
   -6.2734  -30.5610  -13.2941 O   0  0  0  0  0  0  0  0  0  0  0  0
   -4.9271  -32.7602  -12.7088 O   0  0  0  0  0  0  0  0  0  0  0  0
  1  2  1  0
  1  7  1  1
  1 11  1  0
  2  3  1  0
  2  8  1  1
  3  4  1  0
  3  9  1  6
  5  4  1  0
  4 10  1  1
  5  6  1  0
  5 11  1  6
  6 12  1  6
 16  7  1  1
 13 14  1  0
 13 19  1  1
 22 13  1  0
 15 14  1  0
 14 20  1  1
 16 15  1  0
 15 21  1  6
 17 16  1  0
 18 17  1  0
 17 22  1  6
 18 23  1  6
M  END
$$$$
