
     RDKit          3D

 23 24  0  0  0  0  0  0  0  0999 V2000
   -7.6773  -32.3296  -14.7438 C   0  0  1  0  0  0  0  0  0  0  0  0
   -7.9798  -30.8846  -14.4761 C   0  0  1  0  0  0  0  0  0  0  0  0
   -7.4440  -30.3700  -13.1880 C   0  0  2  0  0  0  0  0  0  0  0  0
   -6.3755  -31.2747  -12.6149 C   0  0  1  0  0  0  0  0  0  0  0  0
   -5.6124  -31.7996  -13.8234 C   0  0  1  0  0  0  0  0  0  0  0  0
   -4.3646  -32.4997  -13.3059 C   0  0  0  0  0  0  0  0  0  0  0  0
   -7.8994  -32.5944  -16.1056 O   0  0  0  0  0  0  0  0  0  0  0  0
   -7.4650  -30.1333  -15.5258 O   0  0  0  0  0  0  0  0  0  0  0  0
   -8.4208  -30.1780  -12.2141 O   0  0  0  0  0  0  0  0  0  0  0  0
   -5.5238  -30.5691  -11.7672 O   0  0  0  0  0  0  0  0  0  0  0  0
   -6.4151  -32.7242  -14.4472 O   0  0  0  0  0  0  0  0  0  0  0  0
   -4.7157  -33.3392  -12.2327 O   0  0  0  0  0  0  0  0  0  0  0  0
   -6.4792  -35.9097  -17.6343 C   0  0  1  0  0  0  0  0  0  0  0  0
   -7.3299  -35.1697  -18.6074 C   0  0  1  0  0  0  0  0  0  0  0  0
   -8.1494  -34.1473  -17.8149 C   0  0  2  0  0  0  0  0  0  0  0  0
   -7.3903  -33.7905  -16.5188 C   0  0  1  0  0  0  0  0  0  0  0  0
   -5.9529  -33.7781  -16.9135 C   0  0  1  0  0  0  0  0  0  0  0  0
   -5.0062  -33.1138  -15.9809 C   0  0  0  0  0  0  0  0  0  0  0  0
   -5.9027  -36.9976  -18.2870 O   0  0  0  0  0  0  0  0  0  0  0  0
   -6.6392  -34.5872  -19.6496 O   0  0  0  0  0  0  0  0  0  0  0  0
   -9.3591  -34.7322  -17.5394 O   0  0  0  0  0  0  0  0  0  0  0  0
   -5.4973  -35.0759  -17.1302 O   0  0  0  0  0  0  0  0  0  0  0  0
   -4.0114  -33.8866  -15.4636 O   0  0  0  0  0  0  0  0  0  0  0  0
  1  2  1  0
  1  7  1  6
  1 11  1  0
  2  3  1  0
  2  8  1  6
  3  4  1  0
  3  9  1  1
  5  4  1  0
  4 10  1  1
  5  6  1  0
  5 11  1  1
  6 12  1  6
 16  7  1  6
 13 14  1  0
 13 19  1  6
 22 13  1  0
 15 14  1  0
 14 20  1  6
 16 15  1  0
 15 21  1  1
 17 16  1  0
 18 17  1  0
 17 22  1  1
 18 23  1  6
M  END
$$$$
