
     RDKit          3D

 23 24  0  0  0  0  0  0  0  0999 V2000
   -7.0434  -32.6991  -13.9721 C   0  0  1  0  0  0  0  0  0  0  0  0
   -8.1400  -31.7167  -13.6836 C   0  0  1  0  0  0  0  0  0  0  0  0
   -7.6858  -30.3077  -13.5444 C   0  0  2  0  0  0  0  0  0  0  0  0
   -6.3013  -30.0976  -14.1169 C   0  0  1  0  0  0  0  0  0  0  0  0
   -6.2374  -31.0038  -15.3387 C   0  0  1  0  0  0  0  0  0  0  0  0
   -4.9759  -30.6424  -16.1088 C   0  0  0  0  0  0  0  0  0  0  0  0
   -7.6165  -33.8944  -14.4375 O   0  0  0  0  0  0  0  0  0  0  0  0
   -9.0777  -31.8029  -14.7057 O   0  0  0  0  0  0  0  0  0  0  0  0
   -7.6883  -29.8478  -12.2298 O   0  0  0  0  0  0  0  0  0  0  0  0
   -6.1077  -28.7672  -14.4837 O   0  0  0  0  0  0  0  0  0  0  0  0
   -6.1279  -32.2969  -14.8869 O   0  0  0  0  0  0  0  0  0  0  0  0
   -3.8597  -30.7897  -15.2650 O   0  0  0  0  0  0  0  0  0  0  0  0
   -6.1933  -35.2875  -17.8108 C   0  0  1  0  0  0  0  0  0  0  0  0
   -7.6747  -35.4221  -17.7358 C   0  0  1  0  0  0  0  0  0  0  0  0
   -8.0770  -35.2476  -16.2686 C   0  0  2  0  0  0  0  0  0  0  0  0
   -7.0094  -34.3924  -15.5528 C   0  0  1  0  0  0  0  0  0  0  0  0
   -6.5925  -33.3818  -16.5662 C   0  0  1  0  0  0  0  0  0  0  0  0
   -5.8505  -32.1958  -16.0660 C   0  0  0  0  0  0  0  0  0  0  0  0
   -5.7769  -35.6737  -19.0833 O   0  0  0  0  0  0  0  0  0  0  0  0
   -8.3729  -34.5749  -18.5709 O   0  0  0  0  0  0  0  0  0  0  0  0
   -8.1568  -36.5039  -15.7241 O   0  0  0  0  0  0  0  0  0  0  0  0
   -5.8210  -33.9792  -17.5595 O   0  0  0  0  0  0  0  0  0  0  0  0
   -4.5385  -32.1003  -16.4179 O   0  0  0  0  0  0  0  0  0  0  0  0
  1  2  1  0
  1  7  1  6
  1 11  1  0
  2  3  1  0
  2  8  1  6
  3  4  1  0
  3  9  1  1
  5  4  1  0
  4 10  1  6
  5  6  1  0
  5 11  1  1
  6 12  1  6
 16  7  1  1
 13 14  1  0
 13 19  1  6
 22 13  1  0
 15 14  1  0
 14 20  1  6
 16 15  1  0
 15 21  1  1
 17 16  1  0
 18 17  1  0
 17 22  1  6
 18 23  1  6
M  END
$$$$
