
     RDKit          3D

 23 24  0  0  0  0  0  0  0  0999 V2000
   -7.6633  -34.4346  -15.4900 C   0  0  1  0  0  0  0  0  0  0  0  0
   -7.6478  -35.8021  -14.8632 C   0  0  1  0  0  0  0  0  0  0  0  0
   -6.2589  -36.4145  -15.0973 C   0  0  2  0  0  0  0  0  0  0  0  0
   -6.1103  -36.5067  -16.6051 C   0  0  1  0  0  0  0  0  0  0  0  0
   -6.2760  -35.1079  -17.1632 C   0  0  1  0  0  0  0  0  0  0  0  0
   -5.9660  -35.1197  -18.6232 C   0  0  0  0  0  0  0  0  0  0  0  0
   -6.8034  -33.5384  -14.9875 O   0  0  0  0  0  0  0  0  0  0  0  0
   -7.8950  -35.8399  -13.5235 O   0  0  0  0  0  0  0  0  0  0  0  0
   -6.2801  -37.6736  -14.5183 O   0  0  0  0  0  0  0  0  0  0  0  0
   -4.8704  -37.0051  -16.9373 O   0  0  0  0  0  0  0  0  0  0  0  0
   -7.5561  -34.6122  -16.8911 O   0  0  0  0  0  0  0  0  0  0  0  0
   -7.1200  -35.3157  -19.3835 O   0  0  0  0  0  0  0  0  0  0  0  0
   -6.8840  -29.5643  -15.0175 C   0  0  1  0  0  0  0  0  0  0  0  0
   -7.9866  -30.1174  -14.1566 C   0  0  1  0  0  0  0  0  0  0  0  0
   -7.7423  -31.5898  -13.8983 C   0  0  2  0  0  0  0  0  0  0  0  0
   -7.0470  -32.2150  -15.1086 C   0  0  1  0  0  0  0  0  0  0  0  0
   -5.6782  -31.5371  -15.1590 C   0  0  1  0  0  0  0  0  0  0  0  0
   -5.0534  -31.5968  -16.5164 C   0  0  0  0  0  0  0  0  0  0  0  0
   -6.6823  -28.2131  -14.6522 O   0  0  0  0  0  0  0  0  0  0  0  0
   -8.0230  -29.4185  -12.9541 O   0  0  0  0  0  0  0  0  0  0  0  0
   -8.9514  -32.1630  -13.6004 O   0  0  0  0  0  0  0  0  0  0  0  0
   -5.7247  -30.2326  -14.7097 O   0  0  0  0  0  0  0  0  0  0  0  0
   -5.8793  -31.0216  -17.4945 O   0  0  0  0  0  0  0  0  0  0  0  0
  1  2  1  0
  1  7  1  1
  1 11  1  0
  2  3  1  0
  2  8  1  1
  3  4  1  0
  3  9  1  1
  5  4  1  0
  4 10  1  1
  5  6  1  6
 11  5  1  0
  6 12  1  0
 16  7  1  1
 13 14  1  0
 13 19  1  1
 22 13  1  0
 15 14  1  0
 14 20  1  1
 16 15  1  0
 15 21  1  6
 17 16  1  0
 17 18  1  6
 17 22  1  0
 23 18  1  0
M  END
$$$$
