
     RDKit          3D

 23 24  0  0  0  0  0  0  0  0999 V2000
   -6.8215  -32.4315  -14.1424 C   0  0  1  0  0  0  0  0  0  0  0  0
   -7.7213  -31.7250  -13.1656 C   0  0  1  0  0  0  0  0  0  0  0  0
   -8.1674  -30.4015  -13.8045 C   0  0  2  0  0  0  0  0  0  0  0  0
   -6.8891  -29.6151  -14.0318 C   0  0  1  0  0  0  0  0  0  0  0  0
   -5.9885  -30.4585  -14.9111 C   0  0  1  0  0  0  0  0  0  0  0  0
   -4.7928  -29.6568  -15.3051 C   0  0  0  0  0  0  0  0  0  0  0  0
   -7.3710  -32.7829  -15.3128 O   0  0  0  0  0  0  0  0  0  0  0  0
   -8.8439  -32.4052  -12.7989 O   0  0  0  0  0  0  0  0  0  0  0  0
   -8.9845  -29.7720  -12.8787 O   0  0  0  0  0  0  0  0  0  0  0  0
   -7.1649  -28.4156  -14.6492 O   0  0  0  0  0  0  0  0  0  0  0  0
   -5.6446  -31.6538  -14.2696 O   0  0  0  0  0  0  0  0  0  0  0  0
   -3.7014  -29.9387  -14.4819 O   0  0  0  0  0  0  0  0  0  0  0  0
   -6.8012  -35.9938  -17.5857 C   0  0  1  0  0  0  0  0  0  0  0  0
   -7.5265  -36.3548  -16.3182 C   0  0  1  0  0  0  0  0  0  0  0  0
   -8.0156  -35.0951  -15.6339 C   0  0  2  0  0  0  0  0  0  0  0  0
   -7.0357  -33.9517  -15.9017 C   0  0  1  0  0  0  0  0  0  0  0  0
   -7.1306  -33.7079  -17.4074 C   0  0  1  0  0  0  0  0  0  0  0  0
   -5.9201  -33.0252  -17.9597 C   0  0  0  0  0  0  0  0  0  0  0  0
   -7.0132  -37.0338  -18.5202 O   0  0  0  0  0  0  0  0  0  0  0  0
   -8.6016  -37.1826  -16.6258 O   0  0  0  0  0  0  0  0  0  0  0  0
   -8.1756  -35.3834  -14.3034 O   0  0  0  0  0  0  0  0  0  0  0  0
   -7.3885  -34.8685  -18.1091 O   0  0  0  0  0  0  0  0  0  0  0  0
   -4.7424  -33.7207  -17.6453 O   0  0  0  0  0  0  0  0  0  0  0  0
  1  2  1  0
  1  7  1  6
  1 11  1  0
  2  3  1  0
  2  8  1  6
  3  4  1  0
  3  9  1  1
  5  4  1  0
  4 10  1  6
  5  6  1  1
 11  5  1  0
  6 12  1  0
 16  7  1  1
 13 14  1  0
 13 19  1  6
 22 13  1  0
 15 14  1  0
 14 20  1  6
 16 15  1  0
 15 21  1  1
 17 16  1  0
 17 18  1  6
 17 22  1  0
 23 18  1  0
M  END
$$$$
