
     RDKit          3D

 23 24  0  0  0  0  0  0  0  0999 V2000
   -7.3433  -33.8981  -15.4073 C   0  0  1  0  0  0  0  0  0  0  0  0
   -7.8025  -35.2188  -14.8633 C   0  0  1  0  0  0  0  0  0  0  0  0
   -7.5844  -36.3721  -15.7762 C   0  0  2  0  0  0  0  0  0  0  0  0
   -6.5921  -36.0499  -16.8718 C   0  0  1  0  0  0  0  0  0  0  0  0
   -5.5588  -35.1447  -16.2153 C   0  0  1  0  0  0  0  0  0  0  0  0
   -4.3956  -35.0019  -17.1856 C   0  0  0  0  0  0  0  0  0  0  0  0
   -7.2591  -32.9770  -14.3499 O   0  0  0  0  0  0  0  0  0  0  0  0
   -7.1402  -35.4458  -13.6628 O   0  0  0  0  0  0  0  0  0  0  0  0
   -8.7528  -36.8420  -16.3708 O   0  0  0  0  0  0  0  0  0  0  0  0
   -5.9892  -37.2085  -17.3579 O   0  0  0  0  0  0  0  0  0  0  0  0
   -6.1435  -33.9140  -16.0373 O   0  0  0  0  0  0  0  0  0  0  0  0
   -4.8305  -34.3119  -18.3321 O   0  0  0  0  0  0  0  0  0  0  0  0
   -7.4350  -29.1484  -15.1601 C   0  0  1  0  0  0  0  0  0  0  0  0
   -8.0153  -29.4601  -13.8244 C   0  0  1  0  0  0  0  0  0  0  0  0
   -8.2766  -30.9684  -13.7789 C   0  0  2  0  0  0  0  0  0  0  0  0
   -7.3116  -31.6754  -14.7547 C   0  0  1  0  0  0  0  0  0  0  0  0
   -6.0354  -30.9131  -14.6434 C   0  0  1  0  0  0  0  0  0  0  0  0
   -4.8138  -31.5670  -15.1797 C   0  0  0  0  0  0  0  0  0  0  0  0
   -7.4072  -27.7643  -15.3193 O   0  0  0  0  0  0  0  0  0  0  0  0
   -7.2591  -29.0308  -12.7536 O   0  0  0  0  0  0  0  0  0  0  0  0
   -9.5846  -31.1583  -14.1457 O   0  0  0  0  0  0  0  0  0  0  0  0
   -6.1573  -29.6693  -15.2573 O   0  0  0  0  0  0  0  0  0  0  0  0
   -3.6991  -30.7919  -15.2838 O   0  0  0  0  0  0  0  0  0  0  0  0
  1  2  1  0
  1  7  1  1
  1 11  1  0
  2  3  1  0
  2  8  1  1
  3  4  1  0
  3  9  1  6
  5  4  1  0
  4 10  1  1
  5  6  1  0
  5 11  1  6
  6 12  1  6
 16  7  1  1
 13 14  1  0
 13 19  1  1
 22 13  1  0
 15 14  1  0
 14 20  1  1
 16 15  1  0
 15 21  1  6
 17 16  1  0
 18 17  1  0
 17 22  1  6
 18 23  1  6
M  END
$$$$
