
     RDKit          3D

 23 24  0  0  0  0  0  0  0  0999 V2000
   -7.9986  -33.2554  -14.7371 C   0  0  1  0  0  0  0  0  0  0  0  0
   -7.5901  -34.1115  -13.5747 C   0  0  1  0  0  0  0  0  0  0  0  0
   -7.1197  -35.4725  -13.9455 C   0  0  2  0  0  0  0  0  0  0  0  0
   -6.7667  -35.5716  -15.4132 C   0  0  1  0  0  0  0  0  0  0  0  0
   -6.1543  -34.2225  -15.7642 C   0  0  1  0  0  0  0  0  0  0  0  0
   -5.5376  -34.3483  -17.1494 C   0  0  0  0  0  0  0  0  0  0  0  0
   -8.0654  -31.9176  -14.3133 O   0  0  0  0  0  0  0  0  0  0  0  0
   -6.5864  -33.4471  -12.8800 O   0  0  0  0  0  0  0  0  0  0  0  0
   -8.0347  -36.4795  -13.6483 O   0  0  0  0  0  0  0  0  0  0  0  0
   -5.8518  -36.5981  -15.6400 O   0  0  0  0  0  0  0  0  0  0  0  0
   -7.1775  -33.3066  -15.8141 O   0  0  0  0  0  0  0  0  0  0  0  0
   -6.2928  -35.2581  -17.9120 O   0  0  0  0  0  0  0  0  0  0  0  0
   -7.0503  -29.1250  -16.8661 C   0  0  1  0  0  0  0  0  0  0  0  0
   -7.1831  -28.5903  -15.4824 C   0  0  1  0  0  0  0  0  0  0  0  0
   -7.9632  -29.6237  -14.6646 C   0  0  2  0  0  0  0  0  0  0  0  0
   -7.7606  -31.0191  -15.2933 C   0  0  1  0  0  0  0  0  0  0  0  0
   -6.3433  -31.0238  -15.7549 C   0  0  1  0  0  0  0  0  0  0  0  0
   -5.7438  -32.3465  -16.0690 C   0  0  0  0  0  0  0  0  0  0  0  0
   -6.5574  -28.1128  -17.6871 O   0  0  0  0  0  0  0  0  0  0  0  0
   -5.9905  -28.2445  -14.8817 O   0  0  0  0  0  0  0  0  0  0  0  0
   -9.2818  -29.2477  -14.6992 O   0  0  0  0  0  0  0  0  0  0  0  0
   -6.1947  -30.2118  -16.8762 O   0  0  0  0  0  0  0  0  0  0  0  0
   -4.8300  -32.3815  -17.0779 O   0  0  0  0  0  0  0  0  0  0  0  0
  1  2  1  0
  1  7  1  1
  1 11  1  0
  2  3  1  0
  2  8  1  6
  3  4  1  0
  3  9  1  6
  5  4  1  0
  4 10  1  1
  5  6  1  0
  5 11  1  6
  6 12  1  6
 16  7  1  1
 13 14  1  0
 13 19  1  6
 22 13  1  0
 15 14  1  0
 14 20  1  1
 16 15  1  0
 15 21  1  6
 17 16  1  0
 18 17  1  0
 17 22  1  6
 18 23  1  6
M  END
$$$$
