
     RDKit          3D

 23 24  0  0  0  0  0  0  0  0999 V2000
   -7.4239  -33.8640  -16.8165 C   0  0  1  0  0  0  0  0  0  0  0  0
   -8.3312  -35.0587  -16.8399 C   0  0  1  0  0  0  0  0  0  0  0  0
   -7.6397  -36.3547  -17.0703 C   0  0  2  0  0  0  0  0  0  0  0  0
   -6.1497  -36.2548  -16.8287 C   0  0  1  0  0  0  0  0  0  0  0  0
   -6.0028  -35.2903  -15.6598 C   0  0  1  0  0  0  0  0  0  0  0  0
   -4.5548  -35.3523  -15.1967 C   0  0  0  0  0  0  0  0  0  0  0  0
   -8.1121  -32.7834  -16.2399 O   0  0  0  0  0  0  0  0  0  0  0  0
   -9.0148  -35.1062  -15.6308 O   0  0  0  0  0  0  0  0  0  0  0  0
   -7.8405  -36.8753  -18.3464 O   0  0  0  0  0  0  0  0  0  0  0  0
   -5.6099  -37.4987  -16.5074 O   0  0  0  0  0  0  0  0  0  0  0  0
   -6.2650  -34.0271  -16.1331 O   0  0  0  0  0  0  0  0  0  0  0  0
   -3.7392  -34.6959  -16.1367 O   0  0  0  0  0  0  0  0  0  0  0  0
   -6.0787  -30.4170  -13.8712 C   0  0  1  0  0  0  0  0  0  0  0  0
   -7.5368  -30.3852  -13.5691 C   0  0  1  0  0  0  0  0  0  0  0  0
   -8.2672  -30.9905  -14.7712 C   0  0  2  0  0  0  0  0  0  0  0  0
   -7.3133  -31.9582  -15.5040 C   0  0  1  0  0  0  0  0  0  0  0  0
   -6.5335  -32.6159  -14.4171 C   0  0  1  0  0  0  0  0  0  0  0  0
   -5.7969  -33.8556  -14.7749 C   0  0  0  0  0  0  0  0  0  0  0  0
   -5.4099  -29.6638  -12.9083 O   0  0  0  0  0  0  0  0  0  0  0  0
   -7.8926  -30.9943  -12.3837 O   0  0  0  0  0  0  0  0  0  0  0  0
   -8.6373  -29.9468  -15.5806 O   0  0  0  0  0  0  0  0  0  0  0  0
   -5.6198  -31.7218  -13.8652 O   0  0  0  0  0  0  0  0  0  0  0  0
   -4.4924  -33.9261  -14.3908 O   0  0  0  0  0  0  0  0  0  0  0  0
  1  2  1  0
  1  7  1  1
  1 11  1  0
  2  3  1  0
  2  8  1  1
  3  4  1  0
  3  9  1  6
  5  4  1  0
  4 10  1  1
  5  6  1  0
  5 11  1  6
  6 12  1  6
 16  7  1  1
 13 14  1  0
 13 19  1  1
 22 13  1  0
 15 14  1  0
 14 20  1  1
 16 15  1  0
 15 21  1  6
 17 16  1  0
 18 17  1  0
 17 22  1  6
 18 23  1  6
M  END
$$$$
