
     RDKit          3D

 23 24  0  0  0  0  0  0  0  0999 V2000
   -7.9782  -33.9928  -15.8509 C   0  0  1  0  0  0  0  0  0  0  0  0
   -8.6630  -35.2342  -15.3476 C   0  0  1  0  0  0  0  0  0  0  0  0
   -7.5792  -36.2677  -15.0069 C   0  0  2  0  0  0  0  0  0  0  0  0
   -6.8576  -36.5381  -16.3147 C   0  0  1  0  0  0  0  0  0  0  0  0
   -6.3192  -35.2140  -16.8173 C   0  0  1  0  0  0  0  0  0  0  0  0
   -5.4541  -35.4542  -18.0097 C   0  0  0  0  0  0  0  0  0  0  0  0
   -7.1666  -33.3677  -14.9874 O   0  0  0  0  0  0  0  0  0  0  0  0
   -9.4406  -35.0714  -14.2404 O   0  0  0  0  0  0  0  0  0  0  0  0
   -8.2407  -37.3995  -14.5568 O   0  0  0  0  0  0  0  0  0  0  0  0
   -5.8235  -37.4261  -16.1196 O   0  0  0  0  0  0  0  0  0  0  0  0
   -7.3635  -34.3213  -17.0839 O   0  0  0  0  0  0  0  0  0  0  0  0
   -4.1252  -35.6616  -17.6366 O   0  0  0  0  0  0  0  0  0  0  0  0
   -6.1884  -29.5279  -14.6725 C   0  0  1  0  0  0  0  0  0  0  0  0
   -7.5739  -29.7745  -14.1411 C   0  0  1  0  0  0  0  0  0  0  0  0
   -7.7968  -31.2628  -13.9690 C   0  0  2  0  0  0  0  0  0  0  0  0
   -7.0158  -32.0262  -15.0398 C   0  0  1  0  0  0  0  0  0  0  0  0
   -5.5479  -31.7536  -14.7135 C   0  0  1  0  0  0  0  0  0  0  0  0
   -4.6478  -31.9507  -15.8914 C   0  0  0  0  0  0  0  0  0  0  0  0
   -5.7341  -28.2952  -14.1491 O   0  0  0  0  0  0  0  0  0  0  0  0
   -7.7187  -29.1230  -12.9203 O   0  0  0  0  0  0  0  0  0  0  0  0
   -9.1488  -31.4853  -14.0095 O   0  0  0  0  0  0  0  0  0  0  0  0
   -5.3581  -30.4990  -14.1697 O   0  0  0  0  0  0  0  0  0  0  0  0
   -3.4173  -31.2976  -15.7203 O   0  0  0  0  0  0  0  0  0  0  0  0
  1  2  1  0
  1  7  1  1
  1 11  1  0
  2  3  1  0
  2  8  1  1
  3  4  1  0
  3  9  1  6
  5  4  1  0
  4 10  1  1
  5  6  1  6
 11  5  1  0
  6 12  1  0
 16  7  1  1
 13 14  1  0
 13 19  1  1
 22 13  1  0
 15 14  1  0
 14 20  1  1
 16 15  1  0
 15 21  1  6
 17 16  1  0
 17 18  1  6
 17 22  1  0
 23 18  1  0
M  END
$$$$
