
     RDKit          3D

 23 24  0  0  0  0  0  0  0  0999 V2000
   -6.0228  -32.6110  -14.4846 C   0  0  1  0  0  0  0  0  0  0  0  0
   -6.3380  -31.9602  -13.1654 C   0  0  1  0  0  0  0  0  0  0  0  0
   -7.7076  -31.2766  -13.2900 C   0  0  2  0  0  0  0  0  0  0  0  0
   -7.5385  -30.2359  -14.3821 C   0  0  1  0  0  0  0  0  0  0  0  0
   -7.0887  -30.9616  -15.6338 C   0  0  1  0  0  0  0  0  0  0  0  0
   -7.0765  -30.0059  -16.7802 C   0  0  0  0  0  0  0  0  0  0  0  0
   -6.8558  -33.5809  -14.8853 O   0  0  0  0  0  0  0  0  0  0  0  0
   -6.3912  -32.7981  -12.0919 O   0  0  0  0  0  0  0  0  0  0  0  0
   -7.9639  -30.6802  -12.0655 O   0  0  0  0  0  0  0  0  0  0  0  0
   -8.7289  -29.5841  -14.6148 O   0  0  0  0  0  0  0  0  0  0  0  0
   -5.8467  -31.5749  -15.4341 O   0  0  0  0  0  0  0  0  0  0  0  0
   -6.8043  -30.6615  -17.9820 O   0  0  0  0  0  0  0  0  0  0  0  0
   -6.1935  -36.8164  -17.0974 C   0  0  1  0  0  0  0  0  0  0  0  0
   -5.3040  -36.8038  -15.8843 C   0  0  1  0  0  0  0  0  0  0  0  0
   -5.7917  -35.7563  -14.9050 C   0  0  2  0  0  0  0  0  0  0  0  0
   -6.4083  -34.5848  -15.6709 C   0  0  1  0  0  0  0  0  0  0  0  0
   -7.6454  -35.1750  -16.3468 C   0  0  1  0  0  0  0  0  0  0  0  0
   -8.0913  -34.3796  -17.5321 C   0  0  0  0  0  0  0  0  0  0  0  0
   -6.2416  -38.1416  -17.5886 O   0  0  0  0  0  0  0  0  0  0  0  0
   -5.3220  -38.0618  -15.2903 O   0  0  0  0  0  0  0  0  0  0  0  0
   -4.7280  -35.4006  -14.1169 O   0  0  0  0  0  0  0  0  0  0  0  0
   -7.4677  -36.4985  -16.6970 O   0  0  0  0  0  0  0  0  0  0  0  0
   -7.4647  -34.8095  -18.7120 O   0  0  0  0  0  0  0  0  0  0  0  0
  1  2  1  0
  1  7  1  6
  1 11  1  0
  2  3  1  0
  2  8  1  1
  3  4  1  0
  3  9  1  1
  5  4  1  0
  4 10  1  6
  5  6  1  6
 11  5  1  0
  6 12  1  0
 16  7  1  1
 13 14  1  0
 13 19  1  1
 22 13  1  0
 15 14  1  0
 14 20  1  1
 16 15  1  0
 15 21  1  6
 17 16  1  0
 17 18  1  6
 17 22  1  0
 23 18  1  0
M  END
$$$$
