
     RDKit          3D

 23 24  0  0  0  0  0  0  0  0999 V2000
   -7.8601  -33.7652  -14.9531 C   0  0  1  0  0  0  0  0  0  0  0  0
   -7.0796  -34.7218  -14.1005 C   0  0  1  0  0  0  0  0  0  0  0  0
   -6.3251  -35.7527  -14.8615 C   0  0  2  0  0  0  0  0  0  0  0  0
   -6.1708  -35.3828  -16.3203 C   0  0  1  0  0  0  0  0  0  0  0  0
   -5.9917  -33.8708  -16.3276 C   0  0  1  0  0  0  0  0  0  0  0  0
   -5.5670  -33.4689  -17.7323 C   0  0  0  0  0  0  0  0  0  0  0  0
   -8.2158  -32.6510  -14.1747 O   0  0  0  0  0  0  0  0  0  0  0  0
   -6.1981  -33.9844  -13.3191 O   0  0  0  0  0  0  0  0  0  0  0  0
   -6.8908  -37.0234  -14.7915 O   0  0  0  0  0  0  0  0  0  0  0  0
   -5.0599  -36.0099  -16.8811 O   0  0  0  0  0  0  0  0  0  0  0  0
   -7.2162  -33.3099  -16.0553 O   0  0  0  0  0  0  0  0  0  0  0  0
   -6.4124  -34.0924  -18.6683 O   0  0  0  0  0  0  0  0  0  0  0  0
   -7.1721  -29.1252  -15.5258 C   0  0  1  0  0  0  0  0  0  0  0  0
   -7.2777  -29.1413  -14.0402 C   0  0  1  0  0  0  0  0  0  0  0  0
   -8.0696  -30.3927  -13.6505 C   0  0  2  0  0  0  0  0  0  0  0  0
   -7.9037  -31.4572  -14.7563 C   0  0  1  0  0  0  0  0  0  0  0  0
   -6.4922  -31.3115  -15.2129 C   0  0  1  0  0  0  0  0  0  0  0  0
   -5.9243  -32.4315  -16.0069 C   0  0  0  0  0  0  0  0  0  0  0  0
   -6.6677  -27.8878  -15.9210 O   0  0  0  0  0  0  0  0  0  0  0  0
   -6.0711  -29.0617  -13.3764 O   0  0  0  0  0  0  0  0  0  0  0  0
   -9.3804  -30.0108  -13.5185 O   0  0  0  0  0  0  0  0  0  0  0  0
   -6.3396  -30.1432  -15.9548 O   0  0  0  0  0  0  0  0  0  0  0  0
   -5.9088  -32.2778  -17.3598 O   0  0  0  0  0  0  0  0  0  0  0  0
  1  2  1  0
  1  7  1  1
  1 11  1  0
  2  3  1  0
  2  8  1  6
  3  4  1  0
  3  9  1  6
  5  4  1  0
  4 10  1  1
  5  6  1  0
  5 11  1  6
  6 12  1  6
 16  7  1  1
 13 14  1  0
 13 19  1  1
 22 13  1  0
 15 14  1  0
 14 20  1  1
 16 15  1  0
 15 21  1  6
 17 16  1  0
 18 17  1  0
 17 22  1  6
 18 23  1  6
M  END
$$$$
