
     RDKit          3D

 23 24  0  0  0  0  0  0  0  0999 V2000
   -7.4310  -31.7466  -15.5287 C   0  0  1  0  0  0  0  0  0  0  0  0
   -7.3607  -30.2553  -15.6775 C   0  0  1  0  0  0  0  0  0  0  0  0
   -7.7905  -29.4939  -14.4748 C   0  0  2  0  0  0  0  0  0  0  0  0
   -7.8183  -30.3593  -13.2342 C   0  0  1  0  0  0  0  0  0  0  0  0
   -6.6398  -31.3107  -13.3897 C   0  0  1  0  0  0  0  0  0  0  0  0
   -6.4524  -32.0254  -12.0596 C   0  0  0  0  0  0  0  0  0  0  0  0
   -6.6750  -32.3404  -16.5533 O   0  0  0  0  0  0  0  0  0  0  0  0
   -6.0525  -29.9141  -15.9995 O   0  0  0  0  0  0  0  0  0  0  0  0
   -9.0377  -28.8898  -14.6130 O   0  0  0  0  0  0  0  0  0  0  0  0
   -7.6759  -29.5880  -12.0824 O   0  0  0  0  0  0  0  0  0  0  0  0
   -6.9807  -32.2351  -14.3475 O   0  0  0  0  0  0  0  0  0  0  0  0
   -6.2923  -33.4037  -12.2927 O   0  0  0  0  0  0  0  0  0  0  0  0
   -6.9255  -36.2212  -17.0251 C   0  0  1  0  0  0  0  0  0  0  0  0
   -7.2016  -35.4891  -18.2924 C   0  0  1  0  0  0  0  0  0  0  0  0
   -7.4861  -34.0297  -17.9260 C   0  0  2  0  0  0  0  0  0  0  0  0
   -6.7819  -33.6997  -16.5924 C   0  0  1  0  0  0  0  0  0  0  0  0
   -5.4933  -34.4469  -16.6501 C   0  0  1  0  0  0  0  0  0  0  0  0
   -4.4397  -34.0441  -15.6831 C   0  0  0  0  0  0  0  0  0  0  0  0
   -6.8972  -37.5871  -17.2993 O   0  0  0  0  0  0  0  0  0  0  0  0
   -6.2146  -35.6021  -19.2494 O   0  0  0  0  0  0  0  0  0  0  0  0
   -8.8474  -33.9037  -17.8157 O   0  0  0  0  0  0  0  0  0  0  0  0
   -5.7159  -35.8124  -16.4931 O   0  0  0  0  0  0  0  0  0  0  0  0
   -4.5246  -34.5694  -14.4297 O   0  0  0  0  0  0  0  0  0  0  0  0
  1  2  1  0
  1  7  1  6
  1 11  1  0
  2  3  1  0
  2  8  1  1
  3  4  1  0
  3  9  1  6
  5  4  1  0
  4 10  1  1
  5  6  1  0
  5 11  1  6
  6 12  1  6
 16  7  1  6
 13 14  1  0
 13 19  1  6
 22 13  1  0
 15 14  1  0
 14 20  1  6
 16 15  1  0
 15 21  1  1
 17 16  1  0
 18 17  1  0
 17 22  1  1
 18 23  1  6
M  END
$$$$
