
     RDKit          3D

 23 24  0  0  0  0  0  0  0  0999 V2000
   -7.0845  -32.8882  -14.1680 C   0  0  1  0  0  0  0  0  0  0  0  0
   -7.9530  -31.8406  -13.5266 C   0  0  1  0  0  0  0  0  0  0  0  0
   -7.5039  -30.4682  -14.0494 C   0  0  2  0  0  0  0  0  0  0  0  0
   -6.0598  -30.3226  -13.6049 C   0  0  1  0  0  0  0  0  0  0  0  0
   -5.2880  -31.4918  -14.1821 C   0  0  1  0  0  0  0  0  0  0  0  0
   -3.8316  -31.2997  -13.9179 C   0  0  0  0  0  0  0  0  0  0  0  0
   -7.1572  -32.9881  -15.5021 O   0  0  0  0  0  0  0  0  0  0  0  0
   -9.2899  -31.9558  -13.7649 O   0  0  0  0  0  0  0  0  0  0  0  0
   -8.3143  -29.5270  -13.4344 O   0  0  0  0  0  0  0  0  0  0  0  0
   -5.5325  -29.1355  -14.0619 O   0  0  0  0  0  0  0  0  0  0  0  0
   -5.7693  -32.7043  -13.6755 O   0  0  0  0  0  0  0  0  0  0  0  0
   -3.5022  -31.6656  -12.6118 O   0  0  0  0  0  0  0  0  0  0  0  0
   -6.8160  -36.1786  -17.8483 C   0  0  1  0  0  0  0  0  0  0  0  0
   -8.2409  -35.9872  -17.4058 C   0  0  1  0  0  0  0  0  0  0  0  0
   -8.4053  -34.6102  -16.7967 C   0  0  2  0  0  0  0  0  0  0  0  0
   -7.1072  -34.1983  -16.1006 C   0  0  1  0  0  0  0  0  0  0  0  0
   -6.0882  -34.0676  -17.2320 C   0  0  1  0  0  0  0  0  0  0  0  0
   -4.6762  -34.1900  -16.7550 C   0  0  0  0  0  0  0  0  0  0  0  0
   -6.8225  -37.0156  -18.9881 O   0  0  0  0  0  0  0  0  0  0  0  0
   -9.0842  -36.1307  -18.5031 O   0  0  0  0  0  0  0  0  0  0  0  0
   -9.4894  -34.6559  -15.9589 O   0  0  0  0  0  0  0  0  0  0  0  0
   -6.3274  -34.9620  -18.2561 O   0  0  0  0  0  0  0  0  0  0  0  0
   -3.7568  -33.8536  -17.7606 O   0  0  0  0  0  0  0  0  0  0  0  0
  1  2  1  0
  1  7  1  6
  1 11  1  0
  2  3  1  0
  2  8  1  6
  3  4  1  0
  3  9  1  1
  5  4  1  0
  4 10  1  6
  5  6  1  1
 11  5  1  0
  6 12  1  0
 16  7  1  6
 13 14  1  0
 13 19  1  6
 22 13  1  0
 15 14  1  0
 14 20  1  6
 16 15  1  0
 15 21  1  1
 17 16  1  0
 17 18  1  1
 17 22  1  0
 23 18  1  0
M  END
$$$$
