
     RDKit          3D

 23 24  0  0  0  0  0  0  0  0999 V2000
   -7.4911  -34.2394  -15.3648 C   0  0  1  0  0  0  0  0  0  0  0  0
   -7.4405  -35.5765  -14.6773 C   0  0  1  0  0  0  0  0  0  0  0  0
   -6.0550  -36.1880  -14.9324 C   0  0  2  0  0  0  0  0  0  0  0  0
   -5.9586  -36.3482  -16.4388 C   0  0  1  0  0  0  0  0  0  0  0  0
   -6.1572  -34.9779  -17.0539 C   0  0  1  0  0  0  0  0  0  0  0  0
   -5.8986  -35.0542  -18.5219 C   0  0  0  0  0  0  0  0  0  0  0  0
   -6.6227  -33.3143  -14.9346 O   0  0  0  0  0  0  0  0  0  0  0  0
   -7.6401  -35.5548  -13.3293 O   0  0  0  0  0  0  0  0  0  0  0  0
   -6.0438  -37.4193  -14.2963 O   0  0  0  0  0  0  0  0  0  0  0  0
   -4.7264  -36.8515  -16.7918 O   0  0  0  0  0  0  0  0  0  0  0  0
   -7.4316  -34.4803  -16.7593 O   0  0  0  0  0  0  0  0  0  0  0  0
   -6.9529  -35.6800  -19.1890 O   0  0  0  0  0  0  0  0  0  0  0  0
   -6.6664  -29.3547  -15.2803 C   0  0  1  0  0  0  0  0  0  0  0  0
   -7.7580  -29.8254  -14.3585 C   0  0  1  0  0  0  0  0  0  0  0  0
   -7.5227  -31.2751  -13.9878 C   0  0  2  0  0  0  0  0  0  0  0  0
   -6.8560  -32.0022  -15.1566 C   0  0  1  0  0  0  0  0  0  0  0  0
   -5.4821  -31.3454  -15.2854 C   0  0  1  0  0  0  0  0  0  0  0  0
   -4.8833  -31.5199  -16.6446 C   0  0  0  0  0  0  0  0  0  0  0  0
   -6.4452  -27.9809  -15.0278 O   0  0  0  0  0  0  0  0  0  0  0  0
   -7.7653  -29.0326  -13.2152 O   0  0  0  0  0  0  0  0  0  0  0  0
   -8.7314  -31.8096  -13.6237 O   0  0  0  0  0  0  0  0  0  0  0  0
   -5.5079  -30.0088  -14.9409 O   0  0  0  0  0  0  0  0  0  0  0  0
   -5.6836  -30.9433  -17.6430 O   0  0  0  0  0  0  0  0  0  0  0  0
  1  2  1  0
  1  7  1  1
  1 11  1  0
  2  3  1  0
  2  8  1  1
  3  4  1  0
  3  9  1  1
  5  4  1  0
  4 10  1  1
  5  6  1  6
 11  5  1  0
  6 12  1  0
 16  7  1  1
 13 14  1  0
 13 19  1  1
 22 13  1  0
 15 14  1  0
 14 20  1  1
 16 15  1  0
 15 21  1  6
 17 16  1  0
 17 18  1  6
 17 22  1  0
 23 18  1  0
M  END
$$$$
