
     RDKit          3D

 23 24  0  0  0  0  0  0  0  0999 V2000
   -6.1172  -32.6306  -14.2199 C   0  0  1  0  0  0  0  0  0  0  0  0
   -6.8372  -31.8172  -13.1791 C   0  0  1  0  0  0  0  0  0  0  0  0
   -7.6963  -30.7719  -13.9059 C   0  0  2  0  0  0  0  0  0  0  0  0
   -6.7131  -29.9137  -14.6811 C   0  0  1  0  0  0  0  0  0  0  0  0
   -5.9383  -30.8328  -15.6033 C   0  0  1  0  0  0  0  0  0  0  0  0
   -5.0815  -30.0135  -16.5102 C   0  0  0  0  0  0  0  0  0  0  0  0
   -6.8846  -33.3395  -15.0587 O   0  0  0  0  0  0  0  0  0  0  0  0
   -7.6569  -32.5178  -12.3458 O   0  0  0  0  0  0  0  0  0  0  0  0
   -8.3371  -30.0350  -12.9224 O   0  0  0  0  0  0  0  0  0  0  0  0
   -7.3813  -28.9598  -15.4157 O   0  0  0  0  0  0  0  0  0  0  0  0
   -5.2002  -31.7678  -14.8687 O   0  0  0  0  0  0  0  0  0  0  0  0
   -4.1936  -29.2179  -15.7845 O   0  0  0  0  0  0  0  0  0  0  0  0
   -6.0597  -36.5781  -17.2109 C   0  0  1  0  0  0  0  0  0  0  0  0
   -6.2246  -36.9270  -15.7570 C   0  0  1  0  0  0  0  0  0  0  0  0
   -6.8501  -35.7607  -15.0202 C   0  0  2  0  0  0  0  0  0  0  0  0
   -6.3976  -34.4472  -15.6598 C   0  0  1  0  0  0  0  0  0  0  0  0
   -7.0085  -34.4703  -17.0604 C   0  0  1  0  0  0  0  0  0  0  0  0
   -6.2908  -33.5743  -18.0188 C   0  0  0  0  0  0  0  0  0  0  0  0
   -6.2100  -37.7657  -17.9637 O   0  0  0  0  0  0  0  0  0  0  0  0
   -7.0325  -38.0543  -15.6454 O   0  0  0  0  0  0  0  0  0  0  0  0
   -6.5080  -35.8763  -13.6978 O   0  0  0  0  0  0  0  0  0  0  0  0
   -7.0934  -35.7497  -17.5721 O   0  0  0  0  0  0  0  0  0  0  0  0
   -6.7648  -33.7302  -19.3306 O   0  0  0  0  0  0  0  0  0  0  0  0
  1  2  1  0
  1  7  1  6
  1 11  1  0
  2  3  1  0
  2  8  1  6
  3  4  1  0
  3  9  1  1
  5  4  1  0
  4 10  1  6
  5  6  1  1
 11  5  1  0
  6 12  1  0
 16  7  1  1
 13 14  1  0
 13 19  1  6
 22 13  1  0
 15 14  1  0
 14 20  1  6
 16 15  1  0
 15 21  1  1
 17 16  1  0
 17 18  1  6
 17 22  1  0
 23 18  1  0
M  END
$$$$
