
     RDKit          3D

 23 24  0  0  0  0  0  0  0  0999 V2000
   -7.7252  -32.4402  -14.4518 C   0  0  1  0  0  0  0  0  0  0  0  0
   -8.0270  -30.9717  -14.5107 C   0  0  1  0  0  0  0  0  0  0  0  0
   -7.2594  -30.1443  -13.5426 C   0  0  2  0  0  0  0  0  0  0  0  0
   -6.0583  -30.8813  -12.9921 C   0  0  1  0  0  0  0  0  0  0  0  0
   -5.5393  -31.7153  -14.1554 C   0  0  1  0  0  0  0  0  0  0  0  0
   -4.1831  -32.2719  -13.7480 C   0  0  0  0  0  0  0  0  0  0  0  0
   -8.2119  -33.0502  -15.6200 O   0  0  0  0  0  0  0  0  0  0  0  0
   -7.7719  -30.5294  -15.8033 O   0  0  0  0  0  0  0  0  0  0  0  0
   -8.0217  -29.6901  -12.4692 O   0  0  0  0  0  0  0  0  0  0  0  0
   -5.0808  -29.9895  -12.5550 O   0  0  0  0  0  0  0  0  0  0  0  0
   -6.4135  -32.7602  -14.3349 O   0  0  0  0  0  0  0  0  0  0  0  0
   -4.3713  -33.4411  -12.9883 O   0  0  0  0  0  0  0  0  0  0  0  0
   -6.0257  -35.8082  -17.3403 C   0  0  1  0  0  0  0  0  0  0  0  0
   -7.2967  -35.5672  -18.0783 C   0  0  1  0  0  0  0  0  0  0  0  0
   -8.2370  -34.8096  -17.1365 C   0  0  2  0  0  0  0  0  0  0  0  0
   -7.3939  -34.0273  -16.1067 C   0  0  1  0  0  0  0  0  0  0  0  0
   -6.2065  -33.5524  -16.8725 C   0  0  1  0  0  0  0  0  0  0  0  0
   -5.3986  -32.4691  -16.2551 C   0  0  0  0  0  0  0  0  0  0  0  0
   -5.2448  -36.6943  -18.0798 O   0  0  0  0  0  0  0  0  0  0  0  0
   -7.1462  -34.9253  -19.2899 O   0  0  0  0  0  0  0  0  0  0  0  0
   -9.0289  -35.7470  -16.5237 O   0  0  0  0  0  0  0  0  0  0  0  0
   -5.3514  -34.6153  -17.1516 O   0  0  0  0  0  0  0  0  0  0  0  0
   -4.0454  -32.6180  -16.2892 O   0  0  0  0  0  0  0  0  0  0  0  0
  1  2  1  0
  1  7  1  6
  1 11  1  0
  2  3  1  0
  2  8  1  6
  3  4  1  0
  3  9  1  1
  5  4  1  0
  4 10  1  6
  5  6  1  0
  5 11  1  1
  6 12  1  6
 16  7  1  6
 13 14  1  0
 13 19  1  6
 22 13  1  0
 15 14  1  0
 14 20  1  6
 16 15  1  0
 15 21  1  1
 17 16  1  0
 18 17  1  0
 17 22  1  1
 18 23  1  6
M  END
$$$$
