
     RDKit          3D

 23 24  0  0  0  0  0  0  0  0999 V2000
   -7.7286  -33.7410  -14.6239 C   0  0  1  0  0  0  0  0  0  0  0  0
   -7.5130  -34.5999  -13.4077 C   0  0  1  0  0  0  0  0  0  0  0  0
   -6.0838  -35.1586  -13.4700 C   0  0  2  0  0  0  0  0  0  0  0  0
   -6.0336  -35.9911  -14.7383 C   0  0  1  0  0  0  0  0  0  0  0  0
   -6.3967  -35.0799  -15.8931 C   0  0  1  0  0  0  0  0  0  0  0  0
   -6.1923  -35.8088  -17.1794 C   0  0  0  0  0  0  0  0  0  0  0  0
   -6.9426  -32.6621  -14.7391 O   0  0  0  0  0  0  0  0  0  0  0  0
   -7.6581  -33.9705  -12.2076 O   0  0  0  0  0  0  0  0  0  0  0  0
   -5.9202  -35.9507  -12.3445 O   0  0  0  0  0  0  0  0  0  0  0  0
   -4.7719  -36.5106  -14.9239 O   0  0  0  0  0  0  0  0  0  0  0  0
   -7.7022  -34.5956  -15.7531 O   0  0  0  0  0  0  0  0  0  0  0  0
   -5.2047  -35.1991  -17.9546 O   0  0  0  0  0  0  0  0  0  0  0  0
   -7.6413  -29.1634  -16.4914 C   0  0  1  0  0  0  0  0  0  0  0  0
   -8.1140  -29.1527  -15.0634 C   0  0  1  0  0  0  0  0  0  0  0  0
   -7.5529  -30.3543  -14.3314 C   0  0  2  0  0  0  0  0  0  0  0  0
   -7.4158  -31.5287  -15.3016 C   0  0  1  0  0  0  0  0  0  0  0  0
   -6.3524  -31.0788  -16.3029 C   0  0  1  0  0  0  0  0  0  0  0  0
   -6.4329  -31.8160  -17.6016 C   0  0  0  0  0  0  0  0  0  0  0  0
   -7.5042  -27.8211  -16.9149 O   0  0  0  0  0  0  0  0  0  0  0  0
   -7.6924  -27.9771  -14.4503 O   0  0  0  0  0  0  0  0  0  0  0  0
   -8.3780  -30.6120  -13.2674 O   0  0  0  0  0  0  0  0  0  0  0  0
   -6.3849  -29.7162  -16.5222 O   0  0  0  0  0  0  0  0  0  0  0  0
   -5.3494  -31.5113  -18.4400 O   0  0  0  0  0  0  0  0  0  0  0  0
  1  2  1  0
  1  7  1  6
  1 11  1  0
  2  3  1  0
  2  8  1  1
  3  4  1  0
  3  9  1  1
  5  4  1  0
  4 10  1  6
  5  6  1  6
 11  5  1  0
  6 12  1  0
 16  7  1  1
 13 14  1  0
 13 19  1  1
 22 13  1  0
 15 14  1  0
 14 20  1  1
 16 15  1  0
 15 21  1  1
 17 16  1  0
 17 18  1  6
 17 22  1  0
 23 18  1  0
M  END
$$$$
