
     RDKit          3D

 23 24  0  0  0  0  0  0  0  0999 V2000
   -7.6863  -34.0115  -15.3141 C   0  0  1  0  0  0  0  0  0  0  0  0
   -7.7665  -35.3692  -14.6712 C   0  0  1  0  0  0  0  0  0  0  0  0
   -6.4048  -36.0575  -14.8466 C   0  0  2  0  0  0  0  0  0  0  0  0
   -6.2069  -36.1781  -16.3468 C   0  0  1  0  0  0  0  0  0  0  0  0
   -6.2773  -34.7802  -16.9270 C   0  0  1  0  0  0  0  0  0  0  0  0
   -5.9157  -34.8283  -18.3743 C   0  0  0  0  0  0  0  0  0  0  0  0
   -6.7985  -33.1553  -14.7907 O   0  0  0  0  0  0  0  0  0  0  0  0
   -8.0638  -35.3756  -13.3411 O   0  0  0  0  0  0  0  0  0  0  0  0
   -6.5142  -37.3057  -14.2542 O   0  0  0  0  0  0  0  0  0  0  0  0
   -4.9841  -36.7459  -16.6272 O   0  0  0  0  0  0  0  0  0  0  0  0
   -7.5381  -34.2137  -16.7081 O   0  0  0  0  0  0  0  0  0  0  0  0
   -6.9824  -35.2907  -19.1468 O   0  0  0  0  0  0  0  0  0  0  0  0
   -6.5918  -29.1907  -14.9888 C   0  0  1  0  0  0  0  0  0  0  0  0
   -7.7386  -29.6259  -14.1180 C   0  0  1  0  0  0  0  0  0  0  0  0
   -7.6033  -31.0996  -13.7952 C   0  0  2  0  0  0  0  0  0  0  0  0
   -6.9449  -31.8243  -14.9701 C   0  0  1  0  0  0  0  0  0  0  0  0
   -5.5304  -31.2491  -15.0335 C   0  0  1  0  0  0  0  0  0  0  0  0
   -4.9002  -31.4115  -16.3800 C   0  0  0  0  0  0  0  0  0  0  0  0
   -6.2961  -27.8431  -14.6784 O   0  0  0  0  0  0  0  0  0  0  0  0
   -7.7344  -28.8754  -12.9465 O   0  0  0  0  0  0  0  0  0  0  0  0
   -8.8530  -31.5714  -13.4873 O   0  0  0  0  0  0  0  0  0  0  0  0
   -5.4863  -29.9266  -14.6400 O   0  0  0  0  0  0  0  0  0  0  0  0
   -5.3080  -30.4054  -17.2694 O   0  0  0  0  0  0  0  0  0  0  0  0
  1  2  1  0
  1  7  1  1
  1 11  1  0
  2  3  1  0
  2  8  1  1
  3  4  1  0
  3  9  1  1
  5  4  1  0
  4 10  1  1
  5  6  1  6
 11  5  1  0
  6 12  1  0
 16  7  1  1
 13 14  1  0
 13 19  1  1
 22 13  1  0
 15 14  1  0
 14 20  1  1
 16 15  1  0
 15 21  1  6
 17 16  1  0
 17 18  1  6
 17 22  1  0
 23 18  1  0
M  END
$$$$
