
     RDKit          3D

 23 24  0  0  0  0  0  0  0  0999 V2000
   -7.9209  -33.7792  -15.6039 C   0  0  1  0  0  0  0  0  0  0  0  0
   -7.6563  -32.6642  -14.6356 C   0  0  1  0  0  0  0  0  0  0  0  0
   -7.0612  -33.0967  -13.3434 C   0  0  2  0  0  0  0  0  0  0  0  0
   -6.4756  -34.4893  -13.4253 C   0  0  1  0  0  0  0  0  0  0  0  0
   -5.8884  -34.5892  -14.8265 C   0  0  1  0  0  0  0  0  0  0  0  0
   -5.0544  -35.8606  -14.8817 C   0  0  0  0  0  0  0  0  0  0  0  0
   -8.1253  -33.2313  -16.8813 O   0  0  0  0  0  0  0  0  0  0  0  0
   -6.8121  -31.7479  -15.2514 O   0  0  0  0  0  0  0  0  0  0  0  0
   -7.9566  -33.0624  -12.2773 O   0  0  0  0  0  0  0  0  0  0  0  0
   -5.4829  -34.6723  -12.4645 O   0  0  0  0  0  0  0  0  0  0  0  0
   -6.9382  -34.7070  -15.7052 O   0  0  0  0  0  0  0  0  0  0  0  0
   -5.6944  -36.7988  -15.7123 O   0  0  0  0  0  0  0  0  0  0  0  0
   -5.0561  -30.9952  -17.8435 C   0  0  1  0  0  0  0  0  0  0  0  0
   -5.7303  -30.5100  -16.6072 C   0  0  1  0  0  0  0  0  0  0  0  0
   -7.1124  -31.1671  -16.5510 C   0  0  2  0  0  0  0  0  0  0  0  0
   -7.0694  -32.4963  -17.3349 C   0  0  1  0  0  0  0  0  0  0  0  0
   -5.7199  -33.0609  -17.0484 C   0  0  1  0  0  0  0  0  0  0  0  0
   -5.5137  -34.4990  -17.3597 C   0  0  0  0  0  0  0  0  0  0  0  0
   -3.9025  -30.2399  -18.0448 O   0  0  0  0  0  0  0  0  0  0  0  0
   -5.0134  -30.7066  -15.4453 O   0  0  0  0  0  0  0  0  0  0  0  0
   -7.9977  -30.2840  -17.1148 O   0  0  0  0  0  0  0  0  0  0  0  0
   -4.7376  -32.3353  -17.7172 O   0  0  0  0  0  0  0  0  0  0  0  0
   -4.5360  -34.7975  -18.2591 O   0  0  0  0  0  0  0  0  0  0  0  0
  1  2  1  0
  1  7  1  6
  1 11  1  0
  2  3  1  0
  2  8  1  6
  3  4  1  0
  3  9  1  1
  5  4  1  0
  4 10  1  1
  5  6  1  0
  5 11  1  6
  6 12  1  6
 16  7  1  1
 13 14  1  0
 13 19  1  1
 22 13  1  0
 15 14  1  0
 14 20  1  1
 16 15  1  0
 15 21  1  6
 17 16  1  0
 18 17  1  0
 17 22  1  6
 18 23  1  6
M  END
$$$$
