
     RDKit          3D

 23 24  0  0  0  0  0  0  0  0999 V2000
   -7.2451  -32.8251  -14.5577 C   0  0  1  0  0  0  0  0  0  0  0  0
   -8.2018  -32.1184  -13.6432 C   0  0  1  0  0  0  0  0  0  0  0  0
   -7.9060  -30.6760  -13.4356 C   0  0  2  0  0  0  0  0  0  0  0  0
   -6.9659  -30.1313  -14.4884 C   0  0  1  0  0  0  0  0  0  0  0  0
   -7.3532  -30.8500  -15.7736 C   0  0  1  0  0  0  0  0  0  0  0  0
   -6.6293  -30.1577  -16.9189 C   0  0  0  0  0  0  0  0  0  0  0  0
   -7.8190  -34.0425  -14.9608 O   0  0  0  0  0  0  0  0  0  0  0  0
   -9.4822  -32.2589  -14.1647 O   0  0  0  0  0  0  0  0  0  0  0  0
   -7.3691  -30.3911  -12.1825 O   0  0  0  0  0  0  0  0  0  0  0  0
   -7.1198  -28.7538  -14.6327 O   0  0  0  0  0  0  0  0  0  0  0  0
   -6.8974  -32.1426  -15.6757 O   0  0  0  0  0  0  0  0  0  0  0  0
   -5.2570  -30.0775  -16.6188 O   0  0  0  0  0  0  0  0  0  0  0  0
   -5.5569  -36.6366  -16.8313 C   0  0  1  0  0  0  0  0  0  0  0  0
   -6.3127  -37.2647  -15.7122 C   0  0  1  0  0  0  0  0  0  0  0  0
   -6.8218  -36.1351  -14.8121 C   0  0  2  0  0  0  0  0  0  0  0  0
   -6.9617  -34.8474  -15.6520 C   0  0  1  0  0  0  0  0  0  0  0  0
   -7.4459  -35.3141  -16.9823 C   0  0  1  0  0  0  0  0  0  0  0  0
   -8.0226  -34.2853  -17.8858 C   0  0  0  0  0  0  0  0  0  0  0  0
   -4.8862  -37.6382  -17.5304 O   0  0  0  0  0  0  0  0  0  0  0  0
   -7.3268  -38.1125  -16.1066 O   0  0  0  0  0  0  0  0  0  0  0  0
   -5.9002  -35.9782  -13.8083 O   0  0  0  0  0  0  0  0  0  0  0  0
   -6.4240  -35.9617  -17.6716 O   0  0  0  0  0  0  0  0  0  0  0  0
   -7.1862  -33.7486  -18.8167 O   0  0  0  0  0  0  0  0  0  0  0  0
  1  2  1  0
  1  7  1  6
  1 11  1  0
  2  3  1  0
  2  8  1  6
  3  4  1  0
  3  9  1  1
  5  4  1  0
  4 10  1  6
  5  6  1  0
  5 11  1  1
  6 12  1  6
 16  7  1  1
 13 14  1  0
 13 19  1  6
 22 13  1  0
 15 14  1  0
 14 20  1  6
 16 15  1  0
 15 21  1  1
 17 16  1  0
 18 17  1  0
 17 22  1  6
 18 23  1  6
M  END
$$$$
