
     RDKit          3D

 23 24  0  0  0  0  0  0  0  0999 V2000
   -7.8324  -34.0214  -15.6066 C   0  0  1  0  0  0  0  0  0  0  0  0
   -7.9205  -35.3624  -14.9304 C   0  0  1  0  0  0  0  0  0  0  0  0
   -6.5480  -36.0418  -15.0456 C   0  0  2  0  0  0  0  0  0  0  0  0
   -6.3027  -36.2001  -16.5353 C   0  0  1  0  0  0  0  0  0  0  0  0
   -6.3675  -34.8187  -17.1544 C   0  0  1  0  0  0  0  0  0  0  0  0
   -5.9610  -34.9015  -18.5882 C   0  0  0  0  0  0  0  0  0  0  0  0
   -6.9689  -33.1432  -15.0793 O   0  0  0  0  0  0  0  0  0  0  0  0
   -8.2586  -35.3365  -13.6104 O   0  0  0  0  0  0  0  0  0  0  0  0
   -6.6645  -37.2749  -14.4237 O   0  0  0  0  0  0  0  0  0  0  0  0
   -5.0669  -36.7632  -16.7627 O   0  0  0  0  0  0  0  0  0  0  0  0
   -7.6395  -34.2589  -16.9895 O   0  0  0  0  0  0  0  0  0  0  0  0
   -6.8977  -35.6136  -19.3389 O   0  0  0  0  0  0  0  0  0  0  0  0
   -6.9367  -29.1691  -15.1552 C   0  0  1  0  0  0  0  0  0  0  0  0
   -8.1312  -29.6821  -14.3983 C   0  0  1  0  0  0  0  0  0  0  0  0
   -7.9532  -31.1572  -14.1036 C   0  0  2  0  0  0  0  0  0  0  0  0
   -7.1632  -31.8154  -15.2358 C   0  0  1  0  0  0  0  0  0  0  0  0
   -5.7777  -31.1746  -15.1618 C   0  0  1  0  0  0  0  0  0  0  0  0
   -5.0284  -31.2675  -16.4527 C   0  0  0  0  0  0  0  0  0  0  0  0
   -6.7336  -27.8193  -14.7854 O   0  0  0  0  0  0  0  0  0  0  0  0
   -8.2626  -28.9678  -13.2116 O   0  0  0  0  0  0  0  0  0  0  0  0
   -9.2005  -31.6945  -13.9171 O   0  0  0  0  0  0  0  0  0  0  0  0
   -5.8309  -29.8640  -14.7316 O   0  0  0  0  0  0  0  0  0  0  0  0
   -5.7103  -30.6241  -17.4970 O   0  0  0  0  0  0  0  0  0  0  0  0
  1  2  1  0
  1  7  1  1
  1 11  1  0
  2  3  1  0
  2  8  1  1
  3  4  1  0
  3  9  1  1
  5  4  1  0
  4 10  1  1
  5  6  1  6
 11  5  1  0
  6 12  1  0
 16  7  1  1
 13 14  1  0
 13 19  1  1
 22 13  1  0
 15 14  1  0
 14 20  1  1
 16 15  1  0
 15 21  1  6
 17 16  1  0
 17 18  1  6
 17 22  1  0
 23 18  1  0
M  END
$$$$
