
     RDKit          3D

 24 27  0  0  0  0  0  0  0  0999 V2000
  -16.6740   12.2535  -22.4623 C   0  0  0  0  0  0  0  0  0  0  0  0
  -15.0056   11.0360  -24.3253 C   0  0  0  0  0  0  0  0  0  0  0  0
  -12.6250    9.3562  -26.6229 C   0  0  0  0  0  0  0  0  0  0  0  0
  -11.7753    7.6573  -28.1388 C   0  0  0  0  0  0  0  0  0  0  0  0
  -12.2518    8.0753  -26.8928 C   0  0  0  0  0  0  0  0  0  0  0  0
  -16.2062   11.5560  -26.1211 C   0  0  0  0  0  0  0  0  0  0  0  0
  -15.4691   12.5927  -17.1282 N   0  0  0  0  0  0  0  0  0  0  0  0
  -15.1830   12.0077  -18.3941 C   0  0  0  0  0  0  0  0  0  0  0  0
  -14.3289   11.0123  -18.6821 N   0  0  0  0  0  0  0  0  0  0  0  0
  -14.3325   10.7393  -19.9737 N   0  0  0  0  0  0  0  0  0  0  0  0
  -15.1925   11.5410  -20.6201 C   0  0  0  0  0  0  0  0  0  0  0  0
  -15.7491   12.3620  -19.6274 C   0  0  0  0  0  0  0  0  0  0  0  0
  -16.7146   13.3468  -19.8262 C   0  0  0  0  0  0  0  0  0  0  0  0
  -17.5678   14.2011  -19.9817 N   0  0  0  0  0  0  0  0  0  0  0  0
  -15.5374   11.6121  -22.0236 C   0  0  0  0  0  0  0  0  0  0  0  0
  -16.9919   12.2971  -23.8229 C   0  0  0  0  0  0  0  0  0  0  0  0
  -16.1477   11.6845  -24.7286 C   0  0  0  0  0  0  0  0  0  0  0  0
  -14.7263   11.0173  -22.9547 C   0  0  0  0  0  0  0  0  0  0  0  0
  -14.3606   10.5173  -25.3919 N   0  0  0  0  0  0  0  0  0  0  0  0
  -13.1191    9.7962  -25.3178 C   0  0  0  0  0  0  0  0  0  0  0  0
  -12.5124   10.2704  -27.6688 C   0  0  0  0  0  0  0  0  0  0  0  0
  -12.0434    9.8565  -28.8935 C   0  0  0  0  0  0  0  0  0  0  0  0
  -11.6859    8.5767  -29.1107 N   0  0  0  0  0  0  0  0  0  0  0  0
  -15.0919   10.8330  -26.4890 C   0  0  0  0  0  0  0  0  0  0  0  0
 15  1  2  0
 16  1  1  0
  2 17  1  0
  2 18  2  0
 19  2  1  0
  3  5  1  0
 20  3  1  0
  3 21  2  0
  5  4  2  0
  4 23  1  0
 17  6  1  0
  6 24  2  0
  8  7  1  0
  8  9  1  0
 12  8  2  0
 10  9  1  0
 11 10  2  0
 11 12  1  0
 15 11  1  0
 12 13  1  0
 13 14  3  0
 18 15  1  0
 17 16  2  0
 20 19  1  6
 19 24  1  0
 21 22  1  0
 22 23  2  0
M  END
$$$$
