
     RDKit          3D

 24 27  0  0  0  0  0  0  0  0999 V2000
  -21.2101   19.8201  -12.5492 C   0  0  0  0  0  0  0  0  0  0  0  0
  -23.3816   19.3622  -10.8979 C   0  0  0  0  0  0  0  0  0  0  0  0
  -26.3716   17.9303   -9.6316 C   0  0  0  0  0  0  0  0  0  0  0  0
  -28.2972   16.5135   -9.2556 C   0  0  0  0  0  0  0  0  0  0  0  0
  -26.9943   16.9124   -8.9525 C   0  0  0  0  0  0  0  0  0  0  0  0
  -24.3949   21.3581  -11.2879 C   0  0  0  0  0  0  0  0  0  0  0  0
  -17.4152   15.9033  -13.4338 N   0  0  0  0  0  0  0  0  0  0  0  0
  -18.5217   16.3799  -12.6829 C   0  0  0  0  0  0  0  0  0  0  0  0
  -19.0257   15.8290  -11.5649 N   0  0  0  0  0  0  0  0  0  0  0  0
  -20.0374   16.5738  -11.1905 N   0  0  0  0  0  0  0  0  0  0  0  0
  -20.2228   17.6047  -12.0256 C   0  0  0  0  0  0  0  0  0  0  0  0
  -19.2759   17.5159  -12.9906 C   0  0  0  0  0  0  0  0  0  0  0  0
  -19.0696   18.3770  -14.0903 C   0  0  0  0  0  0  0  0  0  0  0  0
  -18.9065   19.0943  -14.9762 N   0  0  0  0  0  0  0  0  0  0  0  0
  -21.2835   18.6212  -11.8711 C   0  0  0  0  0  0  0  0  0  0  0  0
  -22.2078   20.7763  -12.4039 C   0  0  0  0  0  0  0  0  0  0  0  0
  -23.2984   20.5676  -11.5857 C   0  0  0  0  0  0  0  0  0  0  0  0
  -22.3784   18.4248  -11.0566 C   0  0  0  0  0  0  0  0  0  0  0  0
  -24.5250   19.4313  -10.1905 N   0  0  0  0  0  0  0  0  0  0  0  0
  -24.9965   18.3669   -9.3288 C   0  0  0  0  0  0  0  0  0  0  0  0
  -27.0691   18.5598  -10.6335 C   0  0  0  0  0  0  0  0  0  0  0  0
  -28.3682   18.1289  -10.9027 C   0  0  0  0  0  0  0  0  0  0  0  0
  -28.9425   17.1391  -10.2256 N   0  0  0  0  0  0  0  0  0  0  0  0
  -25.1481   20.6057  -10.4024 C   0  0  0  0  0  0  0  0  0  0  0  0
 15  1  2  0
 16  1  1  0
  2 17  1  0
  2 18  2  0
 19  2  1  0
  3  5  1  0
 20  3  1  0
  3 21  2  0
  5  4  2  0
  4 23  1  0
 17  6  1  0
  6 24  2  0
  8  7  1  0
  8  9  1  0
 12  8  2  0
 10  9  1  0
 11 10  2  0
 11 12  1  0
 15 11  1  0
 12 13  1  0
 13 14  3  0
 18 15  1  0
 17 16  2  0
 19 20  1  0
 19 24  1  0
 21 22  1  0
 22 23  2  0
M  END
$$$$
