
     RDKit          3D

 24 27  0  0  0  0  0  0  0  0999 V2000
  -13.2471    9.7611  -27.2823 C   0  0  0  0  0  0  0  0  0  0  0  0
  -11.9916    7.4008  -27.9929 C   0  0  0  0  0  0  0  0  0  0  0  0
  -11.3462    3.9587  -28.0371 C   0  0  0  0  0  0  0  0  0  0  0  0
  -11.7239    1.8279  -29.1206 C   0  0  0  0  0  0  0  0  0  0  0  0
  -11.1214    3.0862  -29.0731 C   0  0  0  0  0  0  0  0  0  0  0  0
  -12.5389    7.5007  -30.1959 C   0  0  0  0  0  0  0  0  0  0  0  0
  -13.1887   11.6355  -22.0976 N   0  0  0  0  0  0  0  0  0  0  0  0
  -12.8152   10.6322  -23.0299 C   0  0  0  0  0  0  0  0  0  0  0  0
  -12.1229    9.5110  -22.7631 N   0  0  0  0  0  0  0  0  0  0  0  0
  -11.9915    8.8609  -23.8937 N   0  0  0  0  0  0  0  0  0  0  0  0
  -12.5755    9.5151  -24.9063 C   0  0  0  0  0  0  0  0  0  0  0  0
  -13.1121   10.6497  -24.3958 C   0  0  0  0  0  0  0  0  0  0  0  0
  -13.8276   11.6581  -25.0773 C   0  0  0  0  0  0  0  0  0  0  0  0
  -14.4066   12.4722  -25.6500 N   0  0  0  0  0  0  0  0  0  0  0  0
  -12.5980    9.0373  -26.3040 C   0  0  0  0  0  0  0  0  0  0  0  0
  -13.2683    9.3115  -28.5970 C   0  0  0  0  0  0  0  0  0  0  0  0
  -12.6487    8.1376  -28.9719 C   0  0  0  0  0  0  0  0  0  0  0  0
  -11.9827    7.8659  -26.6914 C   0  0  0  0  0  0  0  0  0  0  0  0
  -11.4899    6.3259  -28.6296 N   0  0  0  0  0  0  0  0  0  0  0  0
  -10.7215    5.2921  -27.9675 C   0  0  0  0  0  0  0  0  0  0  0  0
  -12.1912    3.5613  -27.0298 C   0  0  0  0  0  0  0  0  0  0  0  0
  -12.7714    2.2958  -27.1177 C   0  0  0  0  0  0  0  0  0  0  0  0
  -12.5325    1.4745  -28.1357 N   0  0  0  0  0  0  0  0  0  0  0  0
  -11.7993    6.3584  -29.9394 C   0  0  0  0  0  0  0  0  0  0  0  0
 15  1  2  0
 16  1  1  0
  2 17  1  0
  2 18  2  0
 19  2  1  0
  3  5  1  0
 20  3  1  0
  3 21  2  0
  5  4  2  0
  4 23  1  0
 17  6  1  0
  6 24  2  0
  8  7  1  0
  8  9  1  0
 12  8  2  0
 10  9  1  0
 11 10  2  0
 11 12  1  0
 15 11  1  0
 12 13  1  0
 13 14  3  0
 18 15  1  0
 17 16  2  0
 19 20  1  0
 19 24  1  0
 21 22  1  0
 22 23  2  0
M  END
$$$$
