
     RDKit          3D

 24 27  0  0  0  0  0  0  0  0999 V2000
  -12.9172   10.6939  -26.5649 C   0  0  0  0  0  0  0  0  0  0  0  0
  -12.8793    8.5164  -28.2705 C   0  0  0  0  0  0  0  0  0  0  0  0
  -11.7679    5.5437  -28.7332 C   0  0  0  0  0  0  0  0  0  0  0  0
  -10.6742    3.7342  -27.5558 C   0  0  0  0  0  0  0  0  0  0  0  0
  -11.8267    4.3822  -28.0035 C   0  0  0  0  0  0  0  0  0  0  0  0
  -12.4465    9.7065  -30.1570 C   0  0  0  0  0  0  0  0  0  0  0  0
  -13.3050    9.9435  -21.0880 N   0  0  0  0  0  0  0  0  0  0  0  0
  -13.4865    9.4512  -22.4070 C   0  0  0  0  0  0  0  0  0  0  0  0
  -14.1542    8.3389  -22.7603 N   0  0  0  0  0  0  0  0  0  0  0  0
  -14.0848    8.2461  -24.0660 N   0  0  0  0  0  0  0  0  0  0  0  0
  -13.3909    9.2632  -24.5938 C   0  0  0  0  0  0  0  0  0  0  0  0
  -12.9926   10.0534  -23.5679 C   0  0  0  0  0  0  0  0  0  0  0  0
  -12.2353   11.2435  -23.6282 C   0  0  0  0  0  0  0  0  0  0  0  0
  -11.6271   12.2207  -23.6619 N   0  0  0  0  0  0  0  0  0  0  0  0
  -13.1388    9.4383  -26.0388 C   0  0  0  0  0  0  0  0  0  0  0  0
  -12.6801   10.8586  -27.9242 C   0  0  0  0  0  0  0  0  0  0  0  0
  -12.6571    9.7862  -28.7913 C   0  0  0  0  0  0  0  0  0  0  0  0
  -13.1132    8.3748  -26.9157 C   0  0  0  0  0  0  0  0  0  0  0  0
  -12.8017    7.6791  -29.3220 N   0  0  0  0  0  0  0  0  0  0  0  0
  -12.9719    6.2448  -29.2150 C   0  0  0  0  0  0  0  0  0  0  0  0
  -10.5297    6.0649  -29.0192 C   0  0  0  0  0  0  0  0  0  0  0  0
   -9.4050    5.3847  -28.5521 C   0  0  0  0  0  0  0  0  0  0  0  0
   -9.4967    4.2610  -27.8473 N   0  0  0  0  0  0  0  0  0  0  0  0
  -12.5456    8.3580  -30.4560 C   0  0  0  0  0  0  0  0  0  0  0  0
 15  1  2  0
 16  1  1  0
  2 17  1  0
  2 18  2  0
 19  2  1  0
  3  5  1  0
 20  3  1  0
  3 21  2  0
  5  4  2  0
  4 23  1  0
 17  6  1  0
  6 24  2  0
  8  7  1  0
  8  9  1  0
 12  8  2  0
 10  9  1  0
 11 10  2  0
 11 12  1  0
 15 11  1  0
 12 13  1  0
 13 14  3  0
 18 15  1  0
 17 16  2  0
 19 20  1  0
 19 24  1  0
 21 22  1  0
 22 23  2  0
M  END
$$$$
