
     RDKit          3D

 24 27  0  0  0  0  0  0  0  0999 V2000
  -13.4488    4.0512  -29.2685 C   0  0  0  0  0  0  0  0  0  0  0  0
  -12.4905    6.6189  -28.7943 C   0  0  0  0  0  0  0  0  0  0  0  0
  -11.6331    9.5920  -27.0498 C   0  0  0  0  0  0  0  0  0  0  0  0
  -11.3742   11.7871  -26.0397 C   0  0  0  0  0  0  0  0  0  0  0  0
  -10.9262   10.7373  -26.8468 C   0  0  0  0  0  0  0  0  0  0  0  0
  -13.8924    7.6706  -30.1601 C   0  0  0  0  0  0  0  0  0  0  0  0
  -10.5942   -0.3503  -27.5255 N   0  0  0  0  0  0  0  0  0  0  0  0
  -10.9610    1.0140  -27.3504 C   0  0  0  0  0  0  0  0  0  0  0  0
  -10.7816    1.7974  -26.2745 N   0  0  0  0  0  0  0  0  0  0  0  0
  -11.2550    3.0117  -26.4842 N   0  0  0  0  0  0  0  0  0  0  0  0
  -11.7782    3.1049  -27.7161 C   0  0  0  0  0  0  0  0  0  0  0  0
  -11.6006    1.8363  -28.2894 C   0  0  0  0  0  0  0  0  0  0  0  0
  -11.9750    1.4607  -29.5780 C   0  0  0  0  0  0  0  0  0  0  0  0
  -12.3046    1.1533  -30.7088 N   0  0  0  0  0  0  0  0  0  0  0  0
  -12.4028    4.2229  -28.3898 C   0  0  0  0  0  0  0  0  0  0  0  0
  -14.0268    5.1466  -29.9169 C   0  0  0  0  0  0  0  0  0  0  0  0
  -13.5328    6.4118  -29.6651 C   0  0  0  0  0  0  0  0  0  0  0  0
  -11.9426    5.4947  -28.1676 C   0  0  0  0  0  0  0  0  0  0  0  0
  -12.1908    7.9337  -28.7275 N   0  0  0  0  0  0  0  0  0  0  0  0
  -11.1632    8.4903  -27.8903 C   0  0  0  0  0  0  0  0  0  0  0  0
  -12.8638    9.4976  -26.4025 C   0  0  0  0  0  0  0  0  0  0  0  0
  -13.3021   10.5318  -25.6091 C   0  0  0  0  0  0  0  0  0  0  0  0
  -12.5647   11.6455  -25.4393 N   0  0  0  0  0  0  0  0  0  0  0  0
  -13.0449    8.5774  -29.5608 C   0  0  0  0  0  0  0  0  0  0  0  0
 15  1  2  0
 16  1  1  0
  2 17  1  0
  2 18  2  0
 19  2  1  0
  3  5  1  0
 20  3  1  0
  3 21  2  0
  5  4  2  0
  4 23  1  0
 17  6  1  0
  6 24  2  0
  8  7  1  0
  8  9  1  0
 12  8  2  0
 10  9  1  0
 11 10  2  0
 11 12  1  0
 15 11  1  0
 12 13  1  0
 13 14  3  0
 18 15  1  0
 17 16  2  0
 20 19  1  6
 19 24  1  0
 21 22  1  0
 22 23  2  0
M  END
$$$$
