
     RDKit          3D

 24 27  0  0  0  0  0  0  0  0999 V2000
  -11.0719    7.9167  -29.4574 C   0  0  0  0  0  0  0  0  0  0  0  0
  -12.7126    9.0721  -27.5534 C   0  0  0  0  0  0  0  0  0  0  0  0
  -13.5684   10.1530  -24.3868 C   0  0  0  0  0  0  0  0  0  0  0  0
  -13.5998   10.6877  -22.0268 C   0  0  0  0  0  0  0  0  0  0  0  0
  -14.1412   10.0485  -23.1435 C   0  0  0  0  0  0  0  0  0  0  0  0
  -12.8364   11.1067  -28.5573 C   0  0  0  0  0  0  0  0  0  0  0  0
   -8.8434    2.9267  -28.2811 N   0  0  0  0  0  0  0  0  0  0  0  0
   -9.9045    3.8655  -28.1915 C   0  0  0  0  0  0  0  0  0  0  0  0
  -11.1780    3.6023  -27.8502 N   0  0  0  0  0  0  0  0  0  0  0  0
  -11.8302    4.7387  -27.8891 N   0  0  0  0  0  0  0  0  0  0  0  0
  -11.0296    5.7516  -28.2460 C   0  0  0  0  0  0  0  0  0  0  0  0
   -9.7933    5.2353  -28.4476 C   0  0  0  0  0  0  0  0  0  0  0  0
   -8.6182    5.9148  -28.8358 C   0  0  0  0  0  0  0  0  0  0  0  0
   -7.6521    6.4522  -29.1581 N   0  0  0  0  0  0  0  0  0  0  0  0
  -11.4710    7.1551  -28.3789 C   0  0  0  0  0  0  0  0  0  0  0  0
  -11.4871    9.2370  -29.5823 C   0  0  0  0  0  0  0  0  0  0  0  0
  -12.3049    9.8316  -28.6442 C   0  0  0  0  0  0  0  0  0  0  0  0
  -12.2882    7.7610  -27.4484 C   0  0  0  0  0  0  0  0  0  0  0  0
  -13.4862    9.8907  -26.8158 N   0  0  0  0  0  0  0  0  0  0  0  0
  -14.1237    9.4876  -25.5793 C   0  0  0  0  0  0  0  0  0  0  0  0
  -12.4311   10.9130  -24.5123 C   0  0  0  0  0  0  0  0  0  0  0  0
  -11.9246   11.5338  -23.3705 C   0  0  0  0  0  0  0  0  0  0  0  0
  -12.5042   11.4122  -22.1800 N   0  0  0  0  0  0  0  0  0  0  0  0
  -13.5777   11.1061  -27.3876 C   0  0  0  0  0  0  0  0  0  0  0  0
 15  1  2  0
 16  1  1  0
  2 17  1  0
  2 18  2  0
 19  2  1  0
  3  5  1  0
 20  3  1  0
  3 21  2  0
  5  4  2  0
  4 23  1  0
 17  6  1  0
  6 24  2  0
  8  7  1  0
  8  9  1  0
 12  8  2  0
 10  9  1  0
 11 10  2  0
 11 12  1  0
 15 11  1  0
 12 13  1  0
 13 14  3  0
 18 15  1  0
 17 16  2  0
 19 20  1  0
 19 24  1  0
 21 22  1  0
 22 23  2  0
M  END
$$$$
