
     RDKit          3D

 24 27  0  0  0  0  0  0  0  0999 V2000
  -22.3638   16.6032  -12.3410 C   0  0  0  0  0  0  0  0  0  0  0  0
  -23.0094   19.2002  -11.6405 C   0  0  0  0  0  0  0  0  0  0  0  0
  -22.6731   21.8366   -9.6126 C   0  0  0  0  0  0  0  0  0  0  0  0
  -21.5618   22.9923   -7.7999 C   0  0  0  0  0  0  0  0  0  0  0  0
  -21.7752   22.7722   -9.1617 C   0  0  0  0  0  0  0  0  0  0  0  0
  -25.2554   18.8671  -11.5578 C   0  0  0  0  0  0  0  0  0  0  0  0
  -16.4572   17.4283  -13.1371 N   0  0  0  0  0  0  0  0  0  0  0  0
  -17.7807   17.0375  -12.8044 C   0  0  0  0  0  0  0  0  0  0  0  0
  -18.1943   15.7956  -12.4973 N   0  0  0  0  0  0  0  0  0  0  0  0
  -19.4807   15.8664  -12.2557 N   0  0  0  0  0  0  0  0  0  0  0  0
  -19.9372   17.1184  -12.3926 C   0  0  0  0  0  0  0  0  0  0  0  0
  -18.8832   17.8948  -12.7419 C   0  0  0  0  0  0  0  0  0  0  0  0
  -18.8708   19.2834  -12.9964 C   0  0  0  0  0  0  0  0  0  0  0  0
  -18.8748   20.4136  -13.2169 N   0  0  0  0  0  0  0  0  0  0  0  0
  -21.3441   17.5191  -12.1870 C   0  0  0  0  0  0  0  0  0  0  0  0
  -23.6873   16.9802  -12.1477 C   0  0  0  0  0  0  0  0  0  0  0  0
  -24.0302   18.2697  -11.7982 C   0  0  0  0  0  0  0  0  0  0  0  0
  -21.6999   18.8044  -11.8376 C   0  0  0  0  0  0  0  0  0  0  0  0
  -23.6223   20.3515  -11.3064 N   0  0  0  0  0  0  0  0  0  0  0  0
  -22.9133   21.5872  -11.0456 C   0  0  0  0  0  0  0  0  0  0  0  0
  -23.3701   21.1081   -8.6798 C   0  0  0  0  0  0  0  0  0  0  0  0
  -23.1255   21.3609   -7.3300 C   0  0  0  0  0  0  0  0  0  0  0  0
  -22.2483   22.2749   -6.9264 N   0  0  0  0  0  0  0  0  0  0  0  0
  -24.9568   20.1837  -11.2498 C   0  0  0  0  0  0  0  0  0  0  0  0
 15  1  2  0
 16  1  1  0
  2 17  1  0
  2 18  2  0
 19  2  1  0
  3  5  1  0
 20  3  1  0
  3 21  2  0
  5  4  2  0
  4 23  1  0
 17  6  1  0
  6 24  2  0
  8  7  1  0
  8  9  1  0
 12  8  2  0
 10  9  1  0
 11 10  2  0
 11 12  1  0
 15 11  1  0
 12 13  1  0
 13 14  3  0
 18 15  1  0
 17 16  2  0
 19 20  1  0
 19 24  1  0
 21 22  1  0
 22 23  2  0
M  END
$$$$
