
     RDKit          3D

 24 27  0  0  0  0  0  0  0  0999 V2000
  -10.8920    9.9550  -29.2161 C   0  0  0  0  0  0  0  0  0  0  0  0
  -12.7901    9.9750  -27.2039 C   0  0  0  0  0  0  0  0  0  0  0  0
  -13.6898    9.7709  -23.9562 C   0  0  0  0  0  0  0  0  0  0  0  0
  -12.7982   11.3918  -22.3959 C   0  0  0  0  0  0  0  0  0  0  0  0
  -13.2895   11.0497  -23.6569 C   0  0  0  0  0  0  0  0  0  0  0  0
  -13.6474   12.0165  -27.7137 C   0  0  0  0  0  0  0  0  0  0  0  0
   -7.6712    5.5546  -30.0825 N   0  0  0  0  0  0  0  0  0  0  0  0
   -8.6079    6.2339  -29.2602 C   0  0  0  0  0  0  0  0  0  0  0  0
   -9.0162    5.8586  -28.0354 N   0  0  0  0  0  0  0  0  0  0  0  0
   -9.8801    6.7553  -27.6255 N   0  0  0  0  0  0  0  0  0  0  0  0
  -10.0598    7.7171  -28.5404 C   0  0  0  0  0  0  0  0  0  0  0  0
   -9.2659    7.4203  -29.5974 C   0  0  0  0  0  0  0  0  0  0  0  0
   -9.1140    8.1406  -30.8021 C   0  0  0  0  0  0  0  0  0  0  0  0
   -8.9995    8.7139  -31.7942 N   0  0  0  0  0  0  0  0  0  0  0  0
  -10.9712    8.8674  -28.3715 C   0  0  0  0  0  0  0  0  0  0  0  0
  -11.7492   11.0370  -29.0571 C   0  0  0  0  0  0  0  0  0  0  0  0
  -12.7023   11.0666  -28.0605 C   0  0  0  0  0  0  0  0  0  0  0  0
  -11.9278    8.9092  -27.3795 C   0  0  0  0  0  0  0  0  0  0  0  0
  -13.7854   10.2710  -26.3470 N   0  0  0  0  0  0  0  0  0  0  0  0
  -14.2105    9.3875  -25.2810 C   0  0  0  0  0  0  0  0  0  0  0  0
  -13.5955    8.8175  -22.9719 C   0  0  0  0  0  0  0  0  0  0  0  0
  -13.0990    9.2034  -21.7267 C   0  0  0  0  0  0  0  0  0  0  0  0
  -12.7196   10.4515  -21.4694 N   0  0  0  0  0  0  0  0  0  0  0  0
  -14.3133   11.4776  -26.6256 C   0  0  0  0  0  0  0  0  0  0  0  0
 15  1  2  0
 16  1  1  0
  2 17  1  0
  2 18  2  0
 19  2  1  0
  3  5  1  0
 20  3  1  0
  3 21  2  0
  5  4  2  0
  4 23  1  0
 17  6  1  0
  6 24  2  0
  8  7  1  0
  8  9  1  0
 12  8  2  0
 10  9  1  0
 11 10  2  0
 11 12  1  0
 15 11  1  0
 12 13  1  0
 13 14  3  0
 18 15  1  0
 17 16  2  0
 19 20  1  0
 19 24  1  0
 21 22  1  0
 22 23  2  0
M  END
$$$$
