
     RDKit          3D

 24 27  0  0  0  0  0  0  0  0999 V2000
  -22.5707   18.1654  -13.1325 C   0  0  0  0  0  0  0  0  0  0  0  0
  -23.1802   19.6630  -10.8881 C   0  0  0  0  0  0  0  0  0  0  0  0
  -22.3346   21.9493   -8.6055 C   0  0  0  0  0  0  0  0  0  0  0  0
  -21.2461   23.8463   -9.6416 C   0  0  0  0  0  0  0  0  0  0  0  0
  -22.0188   22.6864   -9.7200 C   0  0  0  0  0  0  0  0  0  0  0  0
  -25.1074   20.5411  -11.7111 C   0  0  0  0  0  0  0  0  0  0  0  0
  -17.3575   16.0289  -13.2646 N   0  0  0  0  0  0  0  0  0  0  0  0
  -18.5736   16.3411  -12.6020 C   0  0  0  0  0  0  0  0  0  0  0  0
  -19.0529   15.7532  -11.4919 N   0  0  0  0  0  0  0  0  0  0  0  0
  -20.1947   16.3325  -11.2113 N   0  0  0  0  0  0  0  0  0  0  0  0
  -20.4910   17.2891  -12.1011 C   0  0  0  0  0  0  0  0  0  0  0  0
  -19.4814   17.3252  -13.0039 C   0  0  0  0  0  0  0  0  0  0  0  0
  -19.3471   18.1701  -14.1270 C   0  0  0  0  0  0  0  0  0  0  0  0
  -19.2425   18.8744  -15.0320 N   0  0  0  0  0  0  0  0  0  0  0  0
  -21.7112   18.1206  -12.0548 C   0  0  0  0  0  0  0  0  0  0  0  0
  -23.7184   18.9476  -13.0890 C   0  0  0  0  0  0  0  0  0  0  0  0
  -24.0403   19.7015  -11.9797 C   0  0  0  0  0  0  0  0  0  0  0  0
  -22.0441   18.8785  -10.9522 C   0  0  0  0  0  0  0  0  0  0  0  0
  -23.7314   20.4774   -9.9686 N   0  0  0  0  0  0  0  0  0  0  0  0
  -23.1480   20.7213   -8.6656 C   0  0  0  0  0  0  0  0  0  0  0  0
  -21.8664   22.3840   -7.3896 C   0  0  0  0  0  0  0  0  0  0  0  0
  -21.0981   23.5478   -7.3576 C   0  0  0  0  0  0  0  0  0  0  0  0
  -20.8102   24.2389   -8.4564 N   0  0  0  0  0  0  0  0  0  0  0  0
  -24.8770   21.0132  -10.4298 C   0  0  0  0  0  0  0  0  0  0  0  0
 15  1  2  0
 16  1  1  0
  2 17  1  0
  2 18  2  0
 19  2  1  0
  3  5  1  0
 20  3  1  0
  3 21  2  0
  5  4  2  0
  4 23  1  0
 17  6  1  0
  6 24  2  0
  8  7  1  0
  8  9  1  0
 12  8  2  0
 10  9  1  0
 11 10  2  0
 11 12  1  0
 15 11  1  0
 12 13  1  0
 13 14  3  0
 18 15  1  0
 17 16  2  0
 19 20  1  0
 19 24  1  0
 21 22  1  0
 22 23  2  0
M  END
$$$$
