
     RDKit          3D

 24 27  0  0  0  0  0  0  0  0999 V2000
  -13.3171   11.0618  -27.1200 C   0  0  0  0  0  0  0  0  0  0  0  0
  -12.2752    8.7289  -28.1800 C   0  0  0  0  0  0  0  0  0  0  0  0
  -12.0529    5.3683  -28.3055 C   0  0  0  0  0  0  0  0  0  0  0  0
  -14.1384    4.3305  -27.6495 C   0  0  0  0  0  0  0  0  0  0  0  0
  -13.3287    5.4568  -27.8060 C   0  0  0  0  0  0  0  0  0  0  0  0
  -12.8649    9.1670  -30.3301 C   0  0  0  0  0  0  0  0  0  0  0  0
  -12.9118    9.9357  -21.2995 N   0  0  0  0  0  0  0  0  0  0  0  0
  -12.6854   10.3833  -22.6275 C   0  0  0  0  0  0  0  0  0  0  0  0
  -12.1543   11.5630  -22.9938 N   0  0  0  0  0  0  0  0  0  0  0  0
  -12.1194   11.5797  -24.3041 N   0  0  0  0  0  0  0  0  0  0  0  0
  -12.6113   10.4465  -24.8222 C   0  0  0  0  0  0  0  0  0  0  0  0
  -12.9829    9.6580  -23.7849 C   0  0  0  0  0  0  0  0  0  0  0  0
  -13.5543    8.3679  -23.8325 C   0  0  0  0  0  0  0  0  0  0  0  0
  -14.0076    7.3106  -23.8851 N   0  0  0  0  0  0  0  0  0  0  0  0
  -12.7060   10.1646  -26.2692 C   0  0  0  0  0  0  0  0  0  0  0  0
  -13.4062   10.7966  -28.4812 C   0  0  0  0  0  0  0  0  0  0  0  0
  -12.8932    9.6396  -29.0295 C   0  0  0  0  0  0  0  0  0  0  0  0
  -12.1974    9.0121  -26.8295 C   0  0  0  0  0  0  0  0  0  0  0  0
  -11.8779    7.7140  -28.9705 N   0  0  0  0  0  0  0  0  0  0  0  0
  -11.1805    6.5440  -28.4781 C   0  0  0  0  0  0  0  0  0  0  0  0
  -11.5805    4.1266  -28.6545 C   0  0  0  0  0  0  0  0  0  0  0  0
  -12.4235    3.0288  -28.4815 C   0  0  0  0  0  0  0  0  0  0  0  0
  -13.6550    3.1490  -27.9946 N   0  0  0  0  0  0  0  0  0  0  0  0
  -12.2148    7.9467  -30.2530 C   0  0  0  0  0  0  0  0  0  0  0  0
 15  1  2  0
 16  1  1  0
  2 17  1  0
  2 18  2  0
 19  2  1  0
  3  5  1  0
 20  3  1  0
  3 21  2  0
  5  4  2  0
  4 23  1  0
 17  6  1  0
  6 24  2  0
  8  7  1  0
  8  9  1  0
 12  8  2  0
 10  9  1  0
 11 10  2  0
 11 12  1  0
 15 11  1  0
 12 13  1  0
 13 14  3  0
 18 15  1  0
 17 16  2  0
 19 20  1  0
 19 24  1  0
 21 22  1  0
 22 23  2  0
M  END
$$$$
