
     RDKit          3D

 24 27  0  0  0  0  0  0  0  0999 V2000
  -13.5481    8.5295  -26.1058 C   0  0  0  0  0  0  0  0  0  0  0  0
  -12.6801    9.9471  -28.3359 C   0  0  0  0  0  0  0  0  0  0  0  0
  -10.6223   11.6954  -30.7170 C   0  0  0  0  0  0  0  0  0  0  0  0
   -9.5707   10.8794  -32.7503 C   0  0  0  0  0  0  0  0  0  0  0  0
  -10.6215   10.9101  -31.8288 C   0  0  0  0  0  0  0  0  0  0  0  0
  -13.2752    8.4323  -29.8485 C   0  0  0  0  0  0  0  0  0  0  0  0
  -13.3168   10.4772  -20.9985 N   0  0  0  0  0  0  0  0  0  0  0  0
  -12.9576   10.6412  -22.3662 C   0  0  0  0  0  0  0  0  0  0  0  0
  -12.1765   11.5833  -22.9191 N   0  0  0  0  0  0  0  0  0  0  0  0
  -12.0728   11.4117  -24.2239 N   0  0  0  0  0  0  0  0  0  0  0  0
  -12.7821   10.3417  -24.6140 C   0  0  0  0  0  0  0  0  0  0  0  0
  -13.3574    9.8322  -23.4398 C   0  0  0  0  0  0  0  0  0  0  0  0
  -14.1698    8.7037  -23.3493 C   0  0  0  0  0  0  0  0  0  0  0  0
  -14.8915    7.7279  -23.2553 N   0  0  0  0  0  0  0  0  0  0  0  0
  -12.9670    9.7650  -25.9282 C   0  0  0  0  0  0  0  0  0  0  0  0
  -13.7037    7.9883  -27.3853 C   0  0  0  0  0  0  0  0  0  0  0  0
  -13.2641    8.7115  -28.4771 C   0  0  0  0  0  0  0  0  0  0  0  0
  -12.5447   10.4502  -27.0376 C   0  0  0  0  0  0  0  0  0  0  0  0
  -12.3325   10.4411  -29.5434 N   0  0  0  0  0  0  0  0  0  0  0  0
  -11.7192   11.7249  -29.7490 C   0  0  0  0  0  0  0  0  0  0  0  0
   -9.4996   12.4976  -30.5212 C   0  0  0  0  0  0  0  0  0  0  0  0
   -8.4673   12.4654  -31.4293 C   0  0  0  0  0  0  0  0  0  0  0  0
   -8.5137   11.6699  -32.5147 N   0  0  0  0  0  0  0  0  0  0  0  0
  -12.6944    9.5179  -30.4680 C   0  0  0  0  0  0  0  0  0  0  0  0
 15  1  2  0
 16  1  1  0
  2 17  1  0
  2 18  2  0
 19  2  1  0
  3  5  1  0
 20  3  1  0
  3 21  2  0
  5  4  2  0
  4 23  1  0
 17  6  1  0
  6 24  2  0
  8  7  1  0
  8  9  1  0
 12  8  2  0
 10  9  1  0
 11 10  2  0
 11 12  1  0
 15 11  1  0
 12 13  1  0
 13 14  3  0
 18 15  1  0
 17 16  2  0
 20 19  1  6
 19 24  1  0
 21 22  1  0
 22 23  2  0
M  END
$$$$
