
     RDKit          3D

 24 27  0  0  0  0  0  0  0  0999 V2000
  -21.6851   18.0787  -11.5976 C   0  0  0  0  0  0  0  0  0  0  0  0
  -23.6266   18.9127  -13.4065 C   0  0  0  0  0  0  0  0  0  0  0  0
  -24.3605   21.0360  -15.7476 C   0  0  0  0  0  0  0  0  0  0  0  0
  -23.6914   23.2528  -15.0096 C   0  0  0  0  0  0  0  0  0  0  0  0
  -24.0309   21.9188  -14.7653 C   0  0  0  0  0  0  0  0  0  0  0  0
  -25.3209   18.9364  -11.9692 C   0  0  0  0  0  0  0  0  0  0  0  0
  -16.7148   16.4392  -13.3471 N   0  0  0  0  0  0  0  0  0  0  0  0
  -17.8769   17.2350  -13.5539 C   0  0  0  0  0  0  0  0  0  0  0  0
  -18.0628   18.2316  -14.4346 N   0  0  0  0  0  0  0  0  0  0  0  0
  -19.2776   18.7381  -14.3326 N   0  0  0  0  0  0  0  0  0  0  0  0
  -19.9708   18.1047  -13.3743 C   0  0  0  0  0  0  0  0  0  0  0  0
  -19.0928   17.1372  -12.8619 C   0  0  0  0  0  0  0  0  0  0  0  0
  -19.3830   16.2208  -11.8531 C   0  0  0  0  0  0  0  0  0  0  0  0
  -19.6474   15.4355  -10.9613 N   0  0  0  0  0  0  0  0  0  0  0  0
  -21.3261   18.3032  -12.9077 C   0  0  0  0  0  0  0  0  0  0  0  0
  -23.0044   18.2654  -11.1744 C   0  0  0  0  0  0  0  0  0  0  0  0
  -23.9505   18.6795  -12.0918 C   0  0  0  0  0  0  0  0  0  0  0  0
  -22.2950   18.7136  -13.7860 C   0  0  0  0  0  0  0  0  0  0  0  0
  -24.7210   19.2981  -14.0968 N   0  0  0  0  0  0  0  0  0  0  0  0
  -24.7209   19.6410  -15.4929 C   0  0  0  0  0  0  0  0  0  0  0  0
  -24.3472   21.5243  -17.0528 C   0  0  0  0  0  0  0  0  0  0  0  0
  -24.0129   22.8370  -17.2903 C   0  0  0  0  0  0  0  0  0  0  0  0
  -23.6947   23.6721  -16.2832 N   0  0  0  0  0  0  0  0  0  0  0  0
  -25.7564   19.3127  -13.2216 C   0  0  0  0  0  0  0  0  0  0  0  0
 15  1  2  0
 16  1  1  0
  2 17  1  0
  2 18  2  0
 19  2  1  0
  3  5  1  0
 20  3  1  0
  3 21  2  0
  5  4  2  0
  4 23  1  0
 17  6  1  0
  6 24  2  0
  8  7  1  0
  8  9  1  0
 12  8  2  0
 10  9  1  0
 11 10  2  0
 11 12  1  0
 15 11  1  0
 12 13  1  0
 13 14  3  0
 18 15  1  0
 17 16  2  0
 20 19  1  6
 19 24  1  0
 21 22  1  0
 22 23  2  0
M  END
$$$$
