
     RDKit          3D

 24 27  0  0  0  0  0  0  0  0999 V2000
  -22.3627   18.6939  -13.2019 C   0  0  0  0  0  0  0  0  0  0  0  0
  -23.2600   19.9359  -10.8805 C   0  0  0  0  0  0  0  0  0  0  0  0
  -22.5188   21.8135   -8.2729 C   0  0  0  0  0  0  0  0  0  0  0  0
  -21.1855   23.2012   -6.7888 C   0  0  0  0  0  0  0  0  0  0  0  0
  -22.0323   22.1173   -7.0385 C   0  0  0  0  0  0  0  0  0  0  0  0
  -25.0663   20.8718  -11.7738 C   0  0  0  0  0  0  0  0  0  0  0  0
  -17.1100   16.8144  -13.2434 N   0  0  0  0  0  0  0  0  0  0  0  0
  -18.3478   17.0091  -12.5678 C   0  0  0  0  0  0  0  0  0  0  0  0
  -18.8048   16.3945  -11.4647 N   0  0  0  0  0  0  0  0  0  0  0  0
  -20.0021   16.8398  -11.1317 N   0  0  0  0  0  0  0  0  0  0  0  0
  -20.4107   17.7792  -11.9981 C   0  0  0  0  0  0  0  0  0  0  0  0
  -19.3661   17.9041  -12.9269 C   0  0  0  0  0  0  0  0  0  0  0  0
  -19.3337   18.7811  -14.0093 C   0  0  0  0  0  0  0  0  0  0  0  0
  -19.3011   19.5307  -14.9678 N   0  0  0  0  0  0  0  0  0  0  0  0
  -21.6357   18.5483  -12.0418 C   0  0  0  0  0  0  0  0  0  0  0  0
  -23.5365   19.4531  -13.2212 C   0  0  0  0  0  0  0  0  0  0  0  0
  -23.9611   20.0605  -12.0554 C   0  0  0  0  0  0  0  0  0  0  0  0
  -22.0917   19.1669  -10.9069 C   0  0  0  0  0  0  0  0  0  0  0  0
  -23.8730   20.6249   -9.8944 N   0  0  0  0  0  0  0  0  0  0  0  0
  -23.4091   20.6823   -8.5349 C   0  0  0  0  0  0  0  0  0  0  0  0
  -22.1301   22.6498   -9.3179 C   0  0  0  0  0  0  0  0  0  0  0  0
  -21.2971   23.7155   -9.0694 C   0  0  0  0  0  0  0  0  0  0  0  0
  -20.8424   23.9748   -7.8288 N   0  0  0  0  0  0  0  0  0  0  0  0
  -24.9754   21.1974  -10.4376 C   0  0  0  0  0  0  0  0  0  0  0  0
 15  1  2  0
 16  1  1  0
  2 17  1  0
  2 18  2  0
 19  2  1  0
  3  5  1  0
 20  3  1  0
  3 21  2  0
  5  4  2  0
  4 23  1  0
 17  6  1  0
  6 24  2  0
  8  7  1  0
  8  9  1  0
 12  8  2  0
 10  9  1  0
 11 10  2  0
 11 12  1  0
 15 11  1  0
 12 13  1  0
 13 14  3  0
 18 15  1  0
 17 16  2  0
 20 19  1  6
 19 24  1  0
 21 22  1  0
 22 23  2  0
M  END
$$$$
