
     RDKit          3D

 24 27  0  0  0  0  0  0  0  0999 V2000
  -12.6451    5.8981  -29.5588 C   0  0  0  0  0  0  0  0  0  0  0  0
  -12.4266    8.4258  -28.4566 C   0  0  0  0  0  0  0  0  0  0  0  0
  -12.4323   10.4595  -25.7994 C   0  0  0  0  0  0  0  0  0  0  0  0
  -13.3487   11.7169  -23.9458 C   0  0  0  0  0  0  0  0  0  0  0  0
  -12.7075   11.6557  -25.1842 C   0  0  0  0  0  0  0  0  0  0  0  0
  -14.0480    9.3768  -29.7331 C   0  0  0  0  0  0  0  0  0  0  0  0
   -9.9267    1.7237  -27.0170 N   0  0  0  0  0  0  0  0  0  0  0  0
  -10.0265    3.0837  -27.4116 C   0  0  0  0  0  0  0  0  0  0  0  0
   -9.0215    3.9748  -27.4702 N   0  0  0  0  0  0  0  0  0  0  0  0
   -9.5354    5.1090  -27.8798 N   0  0  0  0  0  0  0  0  0  0  0  0
  -10.8530    5.0006  -28.0960 C   0  0  0  0  0  0  0  0  0  0  0  0
  -11.2041    3.7240  -27.8086 C   0  0  0  0  0  0  0  0  0  0  0  0
  -12.4847    3.1346  -27.8848 C   0  0  0  0  0  0  0  0  0  0  0  0
  -13.5345    2.6674  -27.9599 N   0  0  0  0  0  0  0  0  0  0  0  0
  -11.7142    6.1065  -28.5626 C   0  0  0  0  0  0  0  0  0  0  0  0
  -13.4551    6.9384  -29.9977 C   0  0  0  0  0  0  0  0  0  0  0  0
  -13.3619    8.2057  -29.4614 C   0  0  0  0  0  0  0  0  0  0  0  0
  -11.6309    7.3774  -28.0348 C   0  0  0  0  0  0  0  0  0  0  0  0
  -12.5528    9.7253  -28.1278 N   0  0  0  0  0  0  0  0  0  0  0  0
  -11.7555   10.3716  -27.1060 C   0  0  0  0  0  0  0  0  0  0  0  0
  -12.8075    9.3031  -25.1602 C   0  0  0  0  0  0  0  0  0  0  0  0
  -13.4456    9.4109  -23.9244 C   0  0  0  0  0  0  0  0  0  0  0  0
  -13.6974   10.5861  -23.3556 N   0  0  0  0  0  0  0  0  0  0  0  0
  -13.5085   10.3156  -28.8699 C   0  0  0  0  0  0  0  0  0  0  0  0
 15  1  2  0
 16  1  1  0
  2 17  1  0
  2 18  2  0
 19  2  1  0
  3  5  1  0
 20  3  1  0
  3 21  2  0
  5  4  2  0
  4 23  1  0
 17  6  1  0
  6 24  2  0
  8  7  1  0
  8  9  1  0
 12  8  2  0
 10  9  1  0
 11 10  2  0
 11 12  1  0
 15 11  1  0
 12 13  1  0
 13 14  3  0
 18 15  1  0
 17 16  2  0
 19 20  1  0
 19 24  1  0
 21 22  1  0
 22 23  2  0
M  END
$$$$
