
     RDKit          3D

 24 27  0  0  0  0  0  0  0  0999 V2000
  -12.7962   10.7046  -26.7313 C   0  0  0  0  0  0  0  0  0  0  0  0
  -12.9022    8.5117  -28.4142 C   0  0  0  0  0  0  0  0  0  0  0  0
  -11.9373    5.4628  -28.9631 C   0  0  0  0  0  0  0  0  0  0  0  0
  -10.8625    3.4992  -28.0435 C   0  0  0  0  0  0  0  0  0  0  0  0
  -12.0084    4.2183  -28.3877 C   0  0  0  0  0  0  0  0  0  0  0  0
  -12.4271    9.6570  -30.3183 C   0  0  0  0  0  0  0  0  0  0  0  0
  -13.2258   10.0774  -21.2495 N   0  0  0  0  0  0  0  0  0  0  0  0
  -13.4103    9.5558  -22.5569 C   0  0  0  0  0  0  0  0  0  0  0  0
  -14.0709    8.4311  -22.8830 N   0  0  0  0  0  0  0  0  0  0  0  0
  -14.0076    8.3112  -24.1867 N   0  0  0  0  0  0  0  0  0  0  0  0
  -13.3245    9.3223  -24.7396 C   0  0  0  0  0  0  0  0  0  0  0  0
  -12.9271   10.1372  -23.7328 C   0  0  0  0  0  0  0  0  0  0  0  0
  -12.1796   11.3315  -23.8224 C   0  0  0  0  0  0  0  0  0  0  0  0
  -11.5737   12.3092  -23.8768 N   0  0  0  0  0  0  0  0  0  0  0  0
  -13.0813    9.4687  -26.1893 C   0  0  0  0  0  0  0  0  0  0  0  0
  -12.5674   10.8423  -28.0950 C   0  0  0  0  0  0  0  0  0  0  0  0
  -12.6156    9.7618  -28.9510 C   0  0  0  0  0  0  0  0  0  0  0  0
  -13.1265    8.3969  -27.0553 C   0  0  0  0  0  0  0  0  0  0  0  0
  -12.8850    7.6611  -29.4577 N   0  0  0  0  0  0  0  0  0  0  0  0
  -13.1341    6.2398  -29.3335 C   0  0  0  0  0  0  0  0  0  0  0  0
  -10.6934    5.9960  -29.1976 C   0  0  0  0  0  0  0  0  0  0  0  0
   -9.5756    5.2429  -28.8380 C   0  0  0  0  0  0  0  0  0  0  0  0
   -9.6793    4.0396  -28.2819 N   0  0  0  0  0  0  0  0  0  0  0  0
  -12.6056    8.3134  -30.6018 C   0  0  0  0  0  0  0  0  0  0  0  0
 15  1  2  0
 16  1  1  0
  2 17  1  0
  2 18  2  0
 19  2  1  0
  3  5  1  0
 20  3  1  0
  3 21  2  0
  5  4  2  0
  4 23  1  0
 17  6  1  0
  6 24  2  0
  8  7  1  0
  8  9  1  0
 12  8  2  0
 10  9  1  0
 11 10  2  0
 11 12  1  0
 15 11  1  0
 12 13  1  0
 13 14  3  0
 18 15  1  0
 17 16  2  0
 19 20  1  0
 19 24  1  0
 21 22  1  0
 22 23  2  0
M  END
$$$$
