
     RDKit          3D

 24 27  0  0  0  0  0  0  0  0999 V2000
  -13.0584   10.6252  -27.0081 C   0  0  0  0  0  0  0  0  0  0  0  0
  -13.2592    8.2423  -28.3986 C   0  0  0  0  0  0  0  0  0  0  0  0
  -12.3207    5.0681  -28.9080 C   0  0  0  0  0  0  0  0  0  0  0  0
  -11.0559    3.0396  -29.2846 C   0  0  0  0  0  0  0  0  0  0  0  0
  -12.2280    3.7891  -29.3984 C   0  0  0  0  0  0  0  0  0  0  0  0
  -12.8725    9.1377  -30.4508 C   0  0  0  0  0  0  0  0  0  0  0  0
  -13.2898   10.7256  -21.4857 N   0  0  0  0  0  0  0  0  0  0  0  0
  -13.5004   10.0251  -22.7023 C   0  0  0  0  0  0  0  0  0  0  0  0
  -14.1097    8.8351  -22.8444 N   0  0  0  0  0  0  0  0  0  0  0  0
  -14.0957    8.5450  -24.1226 N   0  0  0  0  0  0  0  0  0  0  0  0
  -13.4952    9.5061  -24.8370 C   0  0  0  0  0  0  0  0  0  0  0  0
  -13.1017   10.4674  -23.9671 C   0  0  0  0  0  0  0  0  0  0  0  0
  -12.4275   11.6751  -24.2500 C   0  0  0  0  0  0  0  0  0  0  0  0
  -11.8780   12.6558  -24.4997 N   0  0  0  0  0  0  0  0  0  0  0  0
  -13.3230    9.4692  -26.3037 C   0  0  0  0  0  0  0  0  0  0  0  0
  -12.8964   10.5904  -28.3878 C   0  0  0  0  0  0  0  0  0  0  0  0
  -12.9927    9.4130  -29.0996 C   0  0  0  0  0  0  0  0  0  0  0  0
  -13.4168    8.2990  -27.0267 C   0  0  0  0  0  0  0  0  0  0  0  0
  -13.2981    7.2690  -29.3280 N   0  0  0  0  0  0  0  0  0  0  0  0
  -13.5485    5.8769  -29.0164 C   0  0  0  0  0  0  0  0  0  0  0  0
  -11.2169    5.6053  -28.2920 C   0  0  0  0  0  0  0  0  0  0  0  0
  -10.0669    4.8211  -28.2003 C   0  0  0  0  0  0  0  0  0  0  0  0
  -10.0102    3.5847  -28.6861 N   0  0  0  0  0  0  0  0  0  0  0  0
  -13.0720    7.7714  -30.5563 C   0  0  0  0  0  0  0  0  0  0  0  0
 15  1  2  0
 16  1  1  0
  2 17  1  0
  2 18  2  0
 19  2  1  0
  3  5  1  0
 20  3  1  0
  3 21  2  0
  5  4  2  0
  4 23  1  0
 17  6  1  0
  6 24  2  0
  8  7  1  0
  8  9  1  0
 12  8  2  0
 10  9  1  0
 11 10  2  0
 11 12  1  0
 15 11  1  0
 12 13  1  0
 13 14  3  0
 18 15  1  0
 17 16  2  0
 19 20  1  0
 19 24  1  0
 21 22  1  0
 22 23  2  0
M  END
$$$$
