
     RDKit          3D

 24 27  0  0  0  0  0  0  0  0999 V2000
  -21.5748   16.7749  -13.1351 C   0  0  0  0  0  0  0  0  0  0  0  0
  -20.3519   18.1339  -15.2314 C   0  0  0  0  0  0  0  0  0  0  0  0
  -17.9251   17.9930  -17.3005 C   0  0  0  0  0  0  0  0  0  0  0  0
  -15.9044   16.7886  -17.9106 C   0  0  0  0  0  0  0  0  0  0  0  0
  -16.5700   17.8659  -17.3184 C   0  0  0  0  0  0  0  0  0  0  0  0
  -22.2208   18.7153  -16.2831 C   0  0  0  0  0  0  0  0  0  0  0  0
  -18.6902   15.0486   -8.7672 N   0  0  0  0  0  0  0  0  0  0  0  0
  -18.7117   15.4140  -10.1429 C   0  0  0  0  0  0  0  0  0  0  0  0
  -17.7574   15.2365  -11.0709 N   0  0  0  0  0  0  0  0  0  0  0  0
  -18.1388   15.7076  -12.2437 N   0  0  0  0  0  0  0  0  0  0  0  0
  -19.3730   16.2272  -12.1614 C   0  0  0  0  0  0  0  0  0  0  0  0
  -19.7598   16.0498  -10.8242 C   0  0  0  0  0  0  0  0  0  0  0  0
  -20.9831   16.4211  -10.2698 C   0  0  0  0  0  0  0  0  0  0  0  0
  -22.0450   16.7658   -9.7845 N   0  0  0  0  0  0  0  0  0  0  0  0
  -20.2005   16.8483  -13.1731 C   0  0  0  0  0  0  0  0  0  0  0  0
  -22.3519   17.3726  -14.1319 C   0  0  0  0  0  0  0  0  0  0  0  0
  -21.7210   18.0414  -15.1628 C   0  0  0  0  0  0  0  0  0  0  0  0
  -19.6139   17.5216  -14.2129 C   0  0  0  0  0  0  0  0  0  0  0  0
  -19.9842   18.8266  -16.3304 N   0  0  0  0  0  0  0  0  0  0  0  0
  -18.6229   19.1225  -16.6854 C   0  0  0  0  0  0  0  0  0  0  0  0
  -18.6535   16.9758  -17.9145 C   0  0  0  0  0  0  0  0  0  0  0  0
  -17.9962   15.9172  -18.4964 C   0  0  0  0  0  0  0  0  0  0  0  0
  -16.6521   15.8373  -18.4883 N   0  0  0  0  0  0  0  0  0  0  0  0
  -21.1233   19.1820  -16.9741 C   0  0  0  0  0  0  0  0  0  0  0  0
 15  1  2  0
 16  1  1  0
  2 17  1  0
  2 18  2  0
 19  2  1  0
  3  5  1  0
 20  3  1  0
  3 21  2  0
  5  4  2  0
  4 23  1  0
 17  6  1  0
  6 24  2  0
  8  7  1  0
  8  9  1  0
 12  8  2  0
 10  9  1  0
 11 10  2  0
 11 12  1  0
 15 11  1  0
 12 13  1  0
 13 14  3  0
 18 15  1  0
 17 16  2  0
 20 19  1  6
 19 24  1  0
 21 22  1  0
 22 23  2  0
M  END
$$$$
