
     RDKit          3D

 24 27  0  0  0  0  0  0  0  0999 V2000
  -11.2148    7.4844  -29.5461 C   0  0  0  0  0  0  0  0  0  0  0  0
  -12.8228    8.9529  -27.8403 C   0  0  0  0  0  0  0  0  0  0  0  0
  -13.6188   10.1273  -24.7788 C   0  0  0  0  0  0  0  0  0  0  0  0
  -12.0286   11.5326  -23.6157 C   0  0  0  0  0  0  0  0  0  0  0  0
  -12.6608   11.1108  -24.7865 C   0  0  0  0  0  0  0  0  0  0  0  0
  -12.6314   10.9140  -28.9715 C   0  0  0  0  0  0  0  0  0  0  0  0
   -9.6806    2.3773  -27.8227 N   0  0  0  0  0  0  0  0  0  0  0  0
  -10.6304    3.4279  -27.9198 C   0  0  0  0  0  0  0  0  0  0  0  0
  -11.9599    3.3218  -27.7496 N   0  0  0  0  0  0  0  0  0  0  0  0
  -12.4675    4.5176  -27.9246 N   0  0  0  0  0  0  0  0  0  0  0  0
  -11.5162    5.4177  -28.2064 C   0  0  0  0  0  0  0  0  0  0  0  0
  -10.3308    4.7616  -28.2124 C   0  0  0  0  0  0  0  0  0  0  0  0
   -9.0446    5.2889  -28.4594 C   0  0  0  0  0  0  0  0  0  0  0  0
   -7.9888    5.7091  -28.6457 N   0  0  0  0  0  0  0  0  0  0  0  0
  -11.7733    6.8509  -28.4556 C   0  0  0  0  0  0  0  0  0  0  0  0
  -11.4566    8.8325  -29.7805 C   0  0  0  0  0  0  0  0  0  0  0  0
  -12.2551    9.5824  -28.9423 C   0  0  0  0  0  0  0  0  0  0  0  0
  -12.5694    7.6112  -27.6255 C   0  0  0  0  0  0  0  0  0  0  0  0
  -13.5370    9.9055  -27.2118 N   0  0  0  0  0  0  0  0  0  0  0  0
  -14.2982    9.6661  -26.0031 C   0  0  0  0  0  0  0  0  0  0  0  0
  -13.9487    9.5564  -23.5740 C   0  0  0  0  0  0  0  0  0  0  0  0
  -13.2921   10.0083  -22.4293 C   0  0  0  0  0  0  0  0  0  0  0  0
  -12.3681   10.9635  -22.4713 N   0  0  0  0  0  0  0  0  0  0  0  0
  -13.4419   11.0809  -27.8612 C   0  0  0  0  0  0  0  0  0  0  0  0
 15  1  2  0
 16  1  1  0
  2 17  1  0
  2 18  2  0
 19  2  1  0
  3  5  1  0
 20  3  1  0
  3 21  2  0
  5  4  2  0
  4 23  1  0
 17  6  1  0
  6 24  2  0
  8  7  1  0
  8  9  1  0
 12  8  2  0
 10  9  1  0
 11 10  2  0
 11 12  1  0
 15 11  1  0
 12 13  1  0
 13 14  3  0
 18 15  1  0
 17 16  2  0
 19 20  1  0
 19 24  1  0
 21 22  1  0
 22 23  2  0
M  END
$$$$
