
     RDKit          3D

 24 27  0  0  0  0  0  0  0  0999 V2000
  -22.3765   18.1093  -12.7025 C   0  0  0  0  0  0  0  0  0  0  0  0
  -22.8483   20.2685  -11.0138 C   0  0  0  0  0  0  0  0  0  0  0  0
  -22.9902   23.5887   -9.6308 C   0  0  0  0  0  0  0  0  0  0  0  0
  -23.6295   25.5783  -10.8714 C   0  0  0  0  0  0  0  0  0  0  0  0
  -23.1435   24.2695  -10.7995 C   0  0  0  0  0  0  0  0  0  0  0  0
  -25.0601   20.0659  -10.9527 C   0  0  0  0  0  0  0  0  0  0  0  0
  -17.2221   16.2579  -13.4824 N   0  0  0  0  0  0  0  0  0  0  0  0
  -18.1019   17.3401  -13.1972 C   0  0  0  0  0  0  0  0  0  0  0  0
  -17.8430   18.6576  -13.2207 N   0  0  0  0  0  0  0  0  0  0  0  0
  -18.9126   19.3599  -12.8961 N   0  0  0  0  0  0  0  0  0  0  0  0
  -19.9473   18.5459  -12.6371 C   0  0  0  0  0  0  0  0  0  0  0  0
  -19.4506   17.2468  -12.8241 C   0  0  0  0  0  0  0  0  0  0  0  0
  -20.1761   16.0653  -12.6847 C   0  0  0  0  0  0  0  0  0  0  0  0
  -20.7921   15.0219  -12.5680 N   0  0  0  0  0  0  0  0  0  0  0  0
  -21.3079   18.8498  -12.2494 C   0  0  0  0  0  0  0  0  0  0  0  0
  -23.6831   18.4311  -12.3236 C   0  0  0  0  0  0  0  0  0  0  0  0
  -23.8916   19.5084  -11.4845 C   0  0  0  0  0  0  0  0  0  0  0  0
  -21.5579   19.9105  -11.4181 C   0  0  0  0  0  0  0  0  0  0  0  0
  -23.3113   21.2604  -10.2234 N   0  0  0  0  0  0  0  0  0  0  0  0
  -22.4771   22.2206   -9.5536 C   0  0  0  0  0  0  0  0  0  0  0  0
  -23.3474   24.2649   -8.4656 C   0  0  0  0  0  0  0  0  0  0  0  0
  -23.8252   25.5524   -8.5393 C   0  0  0  0  0  0  0  0  0  0  0  0
  -23.9581   26.1837   -9.7211 N   0  0  0  0  0  0  0  0  0  0  0  0
  -24.6611   21.1390  -10.1852 C   0  0  0  0  0  0  0  0  0  0  0  0
 15  1  2  0
 16  1  1  0
  2 17  1  0
  2 18  2  0
 19  2  1  0
  3  5  1  0
 20  3  1  0
  3 21  2  0
  5  4  2  0
  4 23  1  0
 17  6  1  0
  6 24  2  0
  8  7  1  0
  8  9  1  0
 12  8  2  0
 10  9  1  0
 11 10  2  0
 11 12  1  0
 15 11  1  0
 12 13  1  0
 13 14  3  0
 18 15  1  0
 17 16  2  0
 20 19  1  6
 19 24  1  0
 21 22  1  0
 22 23  2  0
M  END
$$$$
