
     RDKit          3D

 24 27  0  0  0  0  0  0  0  0999 V2000
  -15.2470   10.4896  -25.3440 C   0  0  0  0  0  0  0  0  0  0  0  0
  -13.4575    9.8175  -27.3436 C   0  0  0  0  0  0  0  0  0  0  0  0
  -11.4381    7.6097  -28.8858 C   0  0  0  0  0  0  0  0  0  0  0  0
  -10.3007    5.6122  -29.6429 C   0  0  0  0  0  0  0  0  0  0  0  0
  -10.3183    6.9816  -29.3721 C   0  0  0  0  0  0  0  0  0  0  0  0
  -14.8110   10.4017  -29.0726 C   0  0  0  0  0  0  0  0  0  0  0  0
  -11.7605   10.0432  -20.5459 N   0  0  0  0  0  0  0  0  0  0  0  0
  -12.6973    9.8136  -21.5875 C   0  0  0  0  0  0  0  0  0  0  0  0
  -13.8700    9.1649  -21.4793 N   0  0  0  0  0  0  0  0  0  0  0  0
  -14.4264    9.1738  -22.6662 N   0  0  0  0  0  0  0  0  0  0  0  0
  -13.6597    9.8091  -23.5624 C   0  0  0  0  0  0  0  0  0  0  0  0
  -12.5481   10.2316  -22.9131 C   0  0  0  0  0  0  0  0  0  0  0  0
  -11.4509   10.9473  -23.4397 C   0  0  0  0  0  0  0  0  0  0  0  0
  -10.5593   11.5451  -23.8562 N   0  0  0  0  0  0  0  0  0  0  0  0
  -14.0142    9.9854  -24.9856 C   0  0  0  0  0  0  0  0  0  0  0  0
  -15.5804   10.6554  -26.6828 C   0  0  0  0  0  0  0  0  0  0  0  0
  -14.7027   10.3265  -27.6947 C   0  0  0  0  0  0  0  0  0  0  0  0
  -13.1460    9.6605  -26.0062 C   0  0  0  0  0  0  0  0  0  0  0  0
  -12.8223    9.5889  -28.5084 N   0  0  0  0  0  0  0  0  0  0  0  0
  -11.4790    9.0542  -28.5940 C   0  0  0  0  0  0  0  0  0  0  0  0
  -12.5613    6.8500  -28.6671 C   0  0  0  0  0  0  0  0  0  0  0  0
  -12.4993    5.4858  -28.9514 C   0  0  0  0  0  0  0  0  0  0  0  0
  -11.3980    4.9080  -29.4219 N   0  0  0  0  0  0  0  0  0  0  0  0
  -13.6021    9.9264  -29.5526 C   0  0  0  0  0  0  0  0  0  0  0  0
 15  1  2  0
 16  1  1  0
  2 17  1  0
  2 18  2  0
 19  2  1  0
  3  5  1  0
 20  3  1  0
  3 21  2  0
  5  4  2  0
  4 23  1  0
 17  6  1  0
  6 24  2  0
  8  7  1  0
  8  9  1  0
 12  8  2  0
 10  9  1  0
 11 10  2  0
 11 12  1  0
 15 11  1  0
 12 13  1  0
 13 14  3  0
 18 15  1  0
 17 16  2  0
 19 20  1  0
 19 24  1  0
 21 22  1  0
 22 23  2  0
M  END
$$$$
