
     RDKit          3D

 24 27  0  0  0  0  0  0  0  0999 V2000
  -13.1344   10.3751  -26.6080 C   0  0  0  0  0  0  0  0  0  0  0  0
  -12.4113    8.0153  -27.8905 C   0  0  0  0  0  0  0  0  0  0  0  0
  -12.1528    4.6346  -29.2429 C   0  0  0  0  0  0  0  0  0  0  0  0
  -13.7385    3.5981  -30.7653 C   0  0  0  0  0  0  0  0  0  0  0  0
  -13.3711    4.5872  -29.8481 C   0  0  0  0  0  0  0  0  0  0  0  0
  -12.4184    8.8349  -29.9558 C   0  0  0  0  0  0  0  0  0  0  0  0
  -13.0080   10.8121  -21.1158 N   0  0  0  0  0  0  0  0  0  0  0  0
  -13.1150    9.9816  -22.2671 C   0  0  0  0  0  0  0  0  0  0  0  0
  -13.4741    8.6895  -22.3363 N   0  0  0  0  0  0  0  0  0  0  0  0
  -13.4572    8.2558  -23.5831 N   0  0  0  0  0  0  0  0  0  0  0  0
  -13.0843    9.2388  -24.4166 C   0  0  0  0  0  0  0  0  0  0  0  0
  -12.8602   10.3541  -23.5949 C   0  0  0  0  0  0  0  0  0  0  0  0
  -12.4716   11.6218  -24.0237 C   0  0  0  0  0  0  0  0  0  0  0  0
  -12.1286   12.7212  -24.4179 N   0  0  0  0  0  0  0  0  0  0  0  0
  -12.9254    9.2417  -25.8549 C   0  0  0  0  0  0  0  0  0  0  0  0
  -12.9870   10.3488  -27.9980 C   0  0  0  0  0  0  0  0  0  0  0  0
  -12.6277    9.1646  -28.6117 C   0  0  0  0  0  0  0  0  0  0  0  0
  -12.5697    8.0873  -26.5025 C   0  0  0  0  0  0  0  0  0  0  0  0
  -12.0812    6.9997  -28.7167 N   0  0  0  0  0  0  0  0  0  0  0  0
  -11.7688    5.6664  -28.2791 C   0  0  0  0  0  0  0  0  0  0  0  0
  -11.2508    3.6274  -29.5807 C   0  0  0  0  0  0  0  0  0  0  0  0
  -11.6148    2.6556  -30.4831 C   0  0  0  0  0  0  0  0  0  0  0  0
  -12.8338    2.6519  -31.0550 N   0  0  0  0  0  0  0  0  0  0  0  0
  -12.0854    7.4976  -29.9777 C   0  0  0  0  0  0  0  0  0  0  0  0
 15  1  2  0
 16  1  1  0
  2 17  1  0
  2 18  2  0
 19  2  1  0
  3  5  1  0
 20  3  1  0
  3 21  2  0
  5  4  2  0
  4 23  1  0
 17  6  1  0
  6 24  2  0
  8  7  1  0
  8  9  1  0
 12  8  2  0
 10  9  1  0
 11 10  2  0
 11 12  1  0
 15 11  1  0
 12 13  1  0
 13 14  3  0
 18 15  1  0
 17 16  2  0
 20 19  1  6
 19 24  1  0
 21 22  1  0
 22 23  2  0
M  END
$$$$
