
     RDKit          3D

 24 27  0  0  0  0  0  0  0  0999 V2000
  -22.1130   18.2438  -13.4684 C   0  0  0  0  0  0  0  0  0  0  0  0
  -23.2844   19.3551  -11.2223 C   0  0  0  0  0  0  0  0  0  0  0  0
  -23.0079   21.3299   -8.6093 C   0  0  0  0  0  0  0  0  0  0  0  0
  -21.9362   23.4069   -9.2372 C   0  0  0  0  0  0  0  0  0  0  0  0
  -22.6566   22.2557   -9.5603 C   0  0  0  0  0  0  0  0  0  0  0  0
  -25.1440   20.1164  -12.2828 C   0  0  0  0  0  0  0  0  0  0  0  0
  -16.7147   16.7354  -12.8724 N   0  0  0  0  0  0  0  0  0  0  0  0
  -18.0565   16.8190  -12.4165 C   0  0  0  0  0  0  0  0  0  0  0  0
  -18.6361   16.0361  -11.4897 N   0  0  0  0  0  0  0  0  0  0  0  0
  -19.8756   16.4429  -11.3621 N   0  0  0  0  0  0  0  0  0  0  0  0
  -20.1398   17.4735  -12.1760 C   0  0  0  0  0  0  0  0  0  0  0  0
  -19.0047   17.7431  -12.8650 C   0  0  0  0  0  0  0  0  0  0  0  0
  -18.7938   18.7429  -13.8392 C   0  0  0  0  0  0  0  0  0  0  0  0
  -18.6257   19.5455  -14.6477 N   0  0  0  0  0  0  0  0  0  0  0  0
  -21.4492   18.1520  -12.2628 C   0  0  0  0  0  0  0  0  0  0  0  0
  -23.3446   18.8820  -13.5500 C   0  0  0  0  0  0  0  0  0  0  0  0
  -23.9456   19.4425  -12.4422 C   0  0  0  0  0  0  0  0  0  0  0  0
  -22.0602   18.7161  -11.1632 C   0  0  0  0  0  0  0  0  0  0  0  0
  -24.0853   19.9750  -10.3353 N   0  0  0  0  0  0  0  0  0  0  0  0
  -23.7673   20.1073   -8.9285 C   0  0  0  0  0  0  0  0  0  0  0  0
  -22.6296   21.5634   -7.3097 C   0  0  0  0  0  0  0  0  0  0  0  0
  -21.9111   22.7263   -7.0318 C   0  0  0  0  0  0  0  0  0  0  0  0
  -21.5865   23.6033   -7.9770 N   0  0  0  0  0  0  0  0  0  0  0  0
  -25.1973   20.4375  -10.9368 C   0  0  0  0  0  0  0  0  0  0  0  0
 15  1  2  0
 16  1  1  0
  2 17  1  0
  2 18  2  0
 19  2  1  0
  3  5  1  0
 20  3  1  0
  3 21  2  0
  5  4  2  0
  4 23  1  0
 17  6  1  0
  6 24  2  0
  8  7  1  0
  8  9  1  0
 12  8  2  0
 10  9  1  0
 11 10  2  0
 11 12  1  0
 15 11  1  0
 12 13  1  0
 13 14  3  0
 18 15  1  0
 17 16  2  0
 19 20  1  0
 19 24  1  0
 21 22  1  0
 22 23  2  0
M  END
$$$$
