
     RDKit          3D

 24 27  0  0  0  0  0  0  0  0999 V2000
  -21.0919   20.0943  -12.0269 C   0  0  0  0  0  0  0  0  0  0  0  0
  -23.7777   19.8805  -11.3360 C   0  0  0  0  0  0  0  0  0  0  0  0
  -26.0983   18.3855   -9.5012 C   0  0  0  0  0  0  0  0  0  0  0  0
  -25.4353   18.3078   -7.1644 C   0  0  0  0  0  0  0  0  0  0  0  0
  -25.3446   18.8294   -8.4582 C   0  0  0  0  0  0  0  0  0  0  0  0
  -24.1302   22.0496  -11.0079 C   0  0  0  0  0  0  0  0  0  0  0  0
  -17.8493   15.7609  -12.8562 N   0  0  0  0  0  0  0  0  0  0  0  0
  -19.1715   16.2618  -12.6915 C   0  0  0  0  0  0  0  0  0  0  0  0
  -20.3361   15.6019  -12.8007 N   0  0  0  0  0  0  0  0  0  0  0  0
  -21.3612   16.4034  -12.5783 N   0  0  0  0  0  0  0  0  0  0  0  0
  -20.9348   17.6464  -12.3080 C   0  0  0  0  0  0  0  0  0  0  0  0
  -19.5346   17.5789  -12.3748 C   0  0  0  0  0  0  0  0  0  0  0  0
  -18.6525   18.6329  -12.1454 C   0  0  0  0  0  0  0  0  0  0  0  0
  -17.8771   19.5453  -11.9258 N   0  0  0  0  0  0  0  0  0  0  0  0
  -21.6785   18.8490  -12.0003 C   0  0  0  0  0  0  0  0  0  0  0  0
  -21.8289   21.2401  -11.7129 C   0  0  0  0  0  0  0  0  0  0  0  0
  -23.1611   21.1078  -11.3724 C   0  0  0  0  0  0  0  0  0  0  0  0
  -23.0027   18.7613  -11.6576 C   0  0  0  0  0  0  0  0  0  0  0  0
  -25.0701   20.0169  -10.9699 N   0  0  0  0  0  0  0  0  0  0  0  0
  -26.0009   18.9272  -10.8569 C   0  0  0  0  0  0  0  0  0  0  0  0
  -26.9965   17.3561   -9.2258 C   0  0  0  0  0  0  0  0  0  0  0  0
  -27.0836   16.8448   -7.9521 C   0  0  0  0  0  0  0  0  0  0  0  0
  -26.3149   17.3180   -6.9532 N   0  0  0  0  0  0  0  0  0  0  0  0
  -25.2872   21.3400  -10.7686 C   0  0  0  0  0  0  0  0  0  0  0  0
 15  1  2  0
 16  1  1  0
  2 17  1  0
  2 18  2  0
 19  2  1  0
  3  5  1  0
 20  3  1  0
  3 21  2  0
  5  4  2  0
  4 23  1  0
 17  6  1  0
  6 24  2  0
  8  7  1  0
  8  9  1  0
 12  8  2  0
 10  9  1  0
 11 10  2  0
 11 12  1  0
 15 11  1  0
 12 13  1  0
 13 14  3  0
 18 15  1  0
 17 16  2  0
 20 19  1  6
 19 24  1  0
 21 22  1  0
 22 23  2  0
M  END
$$$$
