
     RDKit          3D

 24 27  0  0  0  0  0  0  0  0999 V2000
  -22.5871   18.4245  -11.9457 C   0  0  0  0  0  0  0  0  0  0  0  0
  -22.7179   20.7574  -10.4367 C   0  0  0  0  0  0  0  0  0  0  0  0
  -22.2021   24.1401   -9.5280 C   0  0  0  0  0  0  0  0  0  0  0  0
  -22.0814   26.5261   -9.0822 C   0  0  0  0  0  0  0  0  0  0  0  0
  -21.9291   25.1888   -8.7043 C   0  0  0  0  0  0  0  0  0  0  0  0
  -24.9345   20.8995  -10.3784 C   0  0  0  0  0  0  0  0  0  0  0  0
  -17.8875   15.8446  -13.0761 N   0  0  0  0  0  0  0  0  0  0  0  0
  -18.5331   17.0200  -12.5986 C   0  0  0  0  0  0  0  0  0  0  0  0
  -17.9861   18.2042  -12.2794 N   0  0  0  0  0  0  0  0  0  0  0  0
  -18.9049   19.0595  -11.8705 N   0  0  0  0  0  0  0  0  0  0  0  0
  -20.1195   18.4900  -11.8946 C   0  0  0  0  0  0  0  0  0  0  0  0
  -19.9052   17.1829  -12.3582 C   0  0  0  0  0  0  0  0  0  0  0  0
  -20.8875   16.2166  -12.5656 C   0  0  0  0  0  0  0  0  0  0  0  0
  -21.7346   15.3588  -12.7345 N   0  0  0  0  0  0  0  0  0  0  0  0
  -21.4164   19.0273  -11.5435 C   0  0  0  0  0  0  0  0  0  0  0  0
  -23.8280   18.9706  -11.6044 C   0  0  0  0  0  0  0  0  0  0  0  0
  -23.8666   20.1302  -10.8547 C   0  0  0  0  0  0  0  0  0  0  0  0
  -21.4987   20.1762  -10.8007 C   0  0  0  0  0  0  0  0  0  0  0  0
  -23.0213   21.8678   -9.7311 N   0  0  0  0  0  0  0  0  0  0  0  0
  -22.0480   22.7399   -9.1322 C   0  0  0  0  0  0  0  0  0  0  0  0
  -22.6548   24.4558  -10.8078 C   0  0  0  0  0  0  0  0  0  0  0  0
  -22.8037   25.7722  -11.1769 C   0  0  0  0  0  0  0  0  0  0  0  0
  -22.5205   26.7751  -10.3243 N   0  0  0  0  0  0  0  0  0  0  0  0
  -24.3737   21.9567   -9.6947 C   0  0  0  0  0  0  0  0  0  0  0  0
 15  1  2  0
 16  1  1  0
  2 17  1  0
  2 18  2  0
 19  2  1  0
  3  5  1  0
 20  3  1  0
  3 21  2  0
  5  4  2  0
  4 23  1  0
 17  6  1  0
  6 24  2  0
  8  7  1  0
  8  9  1  0
 12  8  2  0
 10  9  1  0
 11 10  2  0
 11 12  1  0
 15 11  1  0
 12 13  1  0
 13 14  3  0
 18 15  1  0
 17 16  2  0
 20 19  1  6
 19 24  1  0
 21 22  1  0
 22 23  2  0
M  END
$$$$
