
     RDKit          3D

 24 27  0  0  0  0  0  0  0  0999 V2000
  -12.6617    6.4900  -30.0519 C   0  0  0  0  0  0  0  0  0  0  0  0
  -12.3136    8.7160  -28.4470 C   0  0  0  0  0  0  0  0  0  0  0  0
  -12.5337   10.5307  -25.5214 C   0  0  0  0  0  0  0  0  0  0  0  0
  -13.0510   11.5808  -23.4033 C   0  0  0  0  0  0  0  0  0  0  0  0
  -12.1832   11.3414  -24.4703 C   0  0  0  0  0  0  0  0  0  0  0  0
  -13.5825   10.1142  -29.7109 C   0  0  0  0  0  0  0  0  0  0  0  0
  -10.7984    1.9034  -27.0120 N   0  0  0  0  0  0  0  0  0  0  0  0
  -10.7352    3.1119  -27.7541 C   0  0  0  0  0  0  0  0  0  0  0  0
   -9.7534    3.4839  -28.5939 N   0  0  0  0  0  0  0  0  0  0  0  0
  -10.0792    4.6607  -29.0706 N   0  0  0  0  0  0  0  0  0  0  0  0
  -11.2488    5.0844  -28.5737 C   0  0  0  0  0  0  0  0  0  0  0  0
  -11.6988    4.1244  -27.7302 C   0  0  0  0  0  0  0  0  0  0  0  0
  -12.8893    4.1200  -26.9713 C   0  0  0  0  0  0  0  0  0  0  0  0
  -13.8562    4.1343  -26.3460 N   0  0  0  0  0  0  0  0  0  0  0  0
  -11.8828    6.3731  -28.9196 C   0  0  0  0  0  0  0  0  0  0  0  0
  -13.2580    7.7022  -30.3773 C   0  0  0  0  0  0  0  0  0  0  0  0
  -13.0970    8.8237  -29.5906 C   0  0  0  0  0  0  0  0  0  0  0  0
  -11.7296    7.5011  -28.1418 C   0  0  0  0  0  0  0  0  0  0  0  0
  -12.3306    9.9390  -27.8845 N   0  0  0  0  0  0  0  0  0  0  0  0
  -11.6329   10.2634  -26.6574 C   0  0  0  0  0  0  0  0  0  0  0  0
  -13.7780    9.9493  -25.5019 C   0  0  0  0  0  0  0  0  0  0  0  0
  -14.6125   10.2160  -24.4165 C   0  0  0  0  0  0  0  0  0  0  0  0
  -14.2422   11.0065  -23.4136 N   0  0  0  0  0  0  0  0  0  0  0  0
  -13.0765   10.7903  -28.6135 C   0  0  0  0  0  0  0  0  0  0  0  0
 15  1  2  0
 16  1  1  0
  2 17  1  0
  2 18  2  0
 19  2  1  0
  3  5  1  0
 20  3  1  0
  3 21  2  0
  5  4  2  0
  4 23  1  0
 17  6  1  0
  6 24  2  0
  8  7  1  0
  8  9  1  0
 12  8  2  0
 10  9  1  0
 11 10  2  0
 11 12  1  0
 15 11  1  0
 12 13  1  0
 13 14  3  0
 18 15  1  0
 17 16  2  0
 19 20  1  0
 19 24  1  0
 21 22  1  0
 22 23  2  0
M  END
$$$$
