
     RDKit          3D

 24 27  0  0  0  0  0  0  0  0999 V2000
  -24.1185   20.4279   -9.6275 C   0  0  0  0  0  0  0  0  0  0  0  0
  -22.6343   19.6054  -11.8121 C   0  0  0  0  0  0  0  0  0  0  0  0
  -19.9831   18.0350  -13.2107 C   0  0  0  0  0  0  0  0  0  0  0  0
  -17.8329   16.9299  -13.1007 C   0  0  0  0  0  0  0  0  0  0  0  0
  -18.6150   18.0650  -13.3214 C   0  0  0  0  0  0  0  0  0  0  0  0
  -24.3188   18.4611  -12.8199 C   0  0  0  0  0  0  0  0  0  0  0  0
  -21.6296   24.4522   -6.5223 N   0  0  0  0  0  0  0  0  0  0  0  0
  -21.6409   23.2193   -7.2258 C   0  0  0  0  0  0  0  0  0  0  0  0
  -20.8243   22.1719   -7.0166 N   0  0  0  0  0  0  0  0  0  0  0  0
  -21.1653   21.2401   -7.8731 N   0  0  0  0  0  0  0  0  0  0  0  0
  -22.1850   21.6349   -8.6471 C   0  0  0  0  0  0  0  0  0  0  0  0
  -22.5167   22.8917   -8.2651 C   0  0  0  0  0  0  0  0  0  0  0  0
  -23.5310   23.7223   -8.7891 C   0  0  0  0  0  0  0  0  0  0  0  0
  -24.3539   24.3935   -9.2344 N   0  0  0  0  0  0  0  0  0  0  0  0
  -22.7948   20.8068   -9.7076 C   0  0  0  0  0  0  0  0  0  0  0  0
  -24.6921   19.6489  -10.6251 C   0  0  0  0  0  0  0  0  0  0  0  0
  -23.9695   19.2285  -11.7222 C   0  0  0  0  0  0  0  0  0  0  0  0
  -22.0834   20.3803  -10.8089 C   0  0  0  0  0  0  0  0  0  0  0  0
  -22.1859   19.0650  -12.9608 N   0  0  0  0  0  0  0  0  0  0  0  0
  -20.8281   19.2209  -13.4402 C   0  0  0  0  0  0  0  0  0  0  0  0
  -20.5779   16.8441  -12.8722 C   0  0  0  0  0  0  0  0  0  0  0  0
  -19.7582   15.7353  -12.6608 C   0  0  0  0  0  0  0  0  0  0  0  0
  -18.4351   15.7982  -12.7762 N   0  0  0  0  0  0  0  0  0  0  0  0
  -23.1647   18.3794  -13.5808 C   0  0  0  0  0  0  0  0  0  0  0  0
 15  1  2  0
 16  1  1  0
  2 17  1  0
  2 18  2  0
 19  2  1  0
  3  5  1  0
 20  3  1  0
  3 21  2  0
  5  4  2  0
  4 23  1  0
 17  6  1  0
  6 24  2  0
  8  7  1  0
  8  9  1  0
 12  8  2  0
 10  9  1  0
 11 10  2  0
 11 12  1  0
 15 11  1  0
 12 13  1  0
 13 14  3  0
 18 15  1  0
 17 16  2  0
 19 20  1  0
 19 24  1  0
 21 22  1  0
 22 23  2  0
M  END
$$$$
