
     RDKit          3D

 24 27  0  0  0  0  0  0  0  0999 V2000
  -12.8056    3.7614  -28.8973 C   0  0  0  0  0  0  0  0  0  0  0  0
  -12.4410    6.5189  -28.8990 C   0  0  0  0  0  0  0  0  0  0  0  0
  -12.1784    9.6647  -27.4601 C   0  0  0  0  0  0  0  0  0  0  0  0
  -13.9325   10.2216  -25.8729 C   0  0  0  0  0  0  0  0  0  0  0  0
  -13.3133    9.3528  -26.7763 C   0  0  0  0  0  0  0  0  0  0  0  0
  -14.1249    6.9980  -30.2671 C   0  0  0  0  0  0  0  0  0  0  0  0
   -9.1064    0.3526  -26.6705 N   0  0  0  0  0  0  0  0  0  0  0  0
   -9.6667    1.6598  -26.7335 C   0  0  0  0  0  0  0  0  0  0  0  0
   -9.4541    2.7018  -25.9136 N   0  0  0  0  0  0  0  0  0  0  0  0
  -10.1538    3.7559  -26.2904 N   0  0  0  0  0  0  0  0  0  0  0  0
  -10.8743    3.4733  -27.3863 C   0  0  0  0  0  0  0  0  0  0  0  0
  -10.5775    2.1353  -27.6882 C   0  0  0  0  0  0  0  0  0  0  0  0
  -11.0827    1.4073  -28.7636 C   0  0  0  0  0  0  0  0  0  0  0  0
  -11.5330    0.7893  -29.7108 N   0  0  0  0  0  0  0  0  0  0  0  0
  -11.7784    4.3006  -28.1558 C   0  0  0  0  0  0  0  0  0  0  0  0
  -13.6579    4.5813  -29.6429 C   0  0  0  0  0  0  0  0  0  0  0  0
  -13.4560    5.9477  -29.6279 C   0  0  0  0  0  0  0  0  0  0  0  0
  -11.6126    5.6610  -28.1677 C   0  0  0  0  0  0  0  0  0  0  0  0
  -12.4500    7.8599  -29.0553 N   0  0  0  0  0  0  0  0  0  0  0  0
  -11.5320    8.7583  -28.4096 C   0  0  0  0  0  0  0  0  0  0  0  0
  -11.6343   10.9252  -27.2204 C   0  0  0  0  0  0  0  0  0  0  0  0
  -12.2455   11.7779  -26.3312 C   0  0  0  0  0  0  0  0  0  0  0  0
  -13.3687   11.4226  -25.6791 N   0  0  0  0  0  0  0  0  0  0  0  0
  -13.4767    8.1545  -29.8903 C   0  0  0  0  0  0  0  0  0  0  0  0
 15  1  2  0
 16  1  1  0
  2 17  1  0
  2 18  2  0
 19  2  1  0
  3  5  1  0
 20  3  1  0
  3 21  2  0
  5  4  2  0
  4 23  1  0
 17  6  1  0
  6 24  2  0
  8  7  1  0
  8  9  1  0
 12  8  2  0
 10  9  1  0
 11 10  2  0
 11 12  1  0
 15 11  1  0
 12 13  1  0
 13 14  3  0
 18 15  1  0
 17 16  2  0
 20 19  1  6
 19 24  1  0
 21 22  1  0
 22 23  2  0
M  END
$$$$
