
     RDKit          3D

 24 27  0  0  0  0  0  0  0  0999 V2000
  -21.9264   17.2414  -12.3157 C   0  0  0  0  0  0  0  0  0  0  0  0
  -22.8097   19.7355  -11.4582 C   0  0  0  0  0  0  0  0  0  0  0  0
  -23.0979   22.6109   -9.4234 C   0  0  0  0  0  0  0  0  0  0  0  0
  -23.8667   24.3357   -7.8936 C   0  0  0  0  0  0  0  0  0  0  0  0
  -23.6061   23.8496   -9.1782 C   0  0  0  0  0  0  0  0  0  0  0  0
  -24.9569   19.1953  -11.2714 C   0  0  0  0  0  0  0  0  0  0  0  0
  -16.8077   16.4036  -14.1215 N   0  0  0  0  0  0  0  0  0  0  0  0
  -17.7092   17.2125  -13.3735 C   0  0  0  0  0  0  0  0  0  0  0  0
  -17.4311   18.2510  -12.5688 N   0  0  0  0  0  0  0  0  0  0  0  0
  -18.5320   18.7554  -12.0431 N   0  0  0  0  0  0  0  0  0  0  0  0
  -19.6086   18.0780  -12.4700 C   0  0  0  0  0  0  0  0  0  0  0  0
  -19.1050   17.0847  -13.3239 C   0  0  0  0  0  0  0  0  0  0  0  0
  -19.8609   16.1446  -14.0213 C   0  0  0  0  0  0  0  0  0  0  0  0
  -20.5049   15.3207  -14.6443 N   0  0  0  0  0  0  0  0  0  0  0  0
  -21.0129   18.2616  -12.1733 C   0  0  0  0  0  0  0  0  0  0  0  0
  -23.2803   17.4477  -12.0350 C   0  0  0  0  0  0  0  0  0  0  0  0
  -23.6944   18.6955  -11.6111 C   0  0  0  0  0  0  0  0  0  0  0  0
  -21.4649   19.4844  -11.7500 C   0  0  0  0  0  0  0  0  0  0  0  0
  -23.4586   20.8447  -11.0439 N   0  0  0  0  0  0  0  0  0  0  0  0
  -22.8201   22.1026  -10.7671 C   0  0  0  0  0  0  0  0  0  0  0  0
  -22.8368   21.8141   -8.3101 C   0  0  0  0  0  0  0  0  0  0  0  0
  -23.0939   22.2948   -7.0476 C   0  0  0  0  0  0  0  0  0  0  0  0
  -23.5969   23.5292   -6.8570 N   0  0  0  0  0  0  0  0  0  0  0  0
  -24.7693   20.5174  -10.9298 C   0  0  0  0  0  0  0  0  0  0  0  0
 15  1  2  0
 16  1  1  0
  2 17  1  0
  2 18  2  0
 19  2  1  0
  3  5  1  0
 20  3  1  0
  3 21  2  0
  5  4  2  0
  4 23  1  0
 17  6  1  0
  6 24  2  0
  8  7  1  0
  8  9  1  0
 12  8  2  0
 10  9  1  0
 11 10  2  0
 11 12  1  0
 15 11  1  0
 12 13  1  0
 13 14  3  0
 18 15  1  0
 17 16  2  0
 20 19  1  6
 19 24  1  0
 21 22  1  0
 22 23  2  0
M  END
$$$$
