
     RDKit          3D

 24 27  0  0  0  0  0  0  0  0999 V2000
  -22.5970   17.9521  -12.5127 C   0  0  0  0  0  0  0  0  0  0  0  0
  -23.0265   20.4087  -11.2808 C   0  0  0  0  0  0  0  0  0  0  0  0
  -22.5382   22.8579   -8.8709 C   0  0  0  0  0  0  0  0  0  0  0  0
  -22.1716   22.0755   -6.5993 C   0  0  0  0  0  0  0  0  0  0  0  0
  -22.2527   21.8694   -7.9797 C   0  0  0  0  0  0  0  0  0  0  0  0
  -25.2077   20.1485  -10.9465 C   0  0  0  0  0  0  0  0  0  0  0  0
  -17.4996   16.1324  -13.5641 N   0  0  0  0  0  0  0  0  0  0  0  0
  -18.3785   17.2312  -13.3475 C   0  0  0  0  0  0  0  0  0  0  0  0
  -18.1519   18.5381  -13.5575 N   0  0  0  0  0  0  0  0  0  0  0  0
  -19.2083   19.2627  -13.2386 N   0  0  0  0  0  0  0  0  0  0  0  0
  -20.2009   18.4756  -12.7966 C   0  0  0  0  0  0  0  0  0  0  0  0
  -19.6914   17.1695  -12.8580 C   0  0  0  0  0  0  0  0  0  0  0  0
  -20.3768   16.0064  -12.5128 C   0  0  0  0  0  0  0  0  0  0  0  0
  -20.9568   14.9807  -12.2074 N   0  0  0  0  0  0  0  0  0  0  0  0
  -21.5334   18.8095  -12.3417 C   0  0  0  0  0  0  0  0  0  0  0  0
  -23.8777   18.3035  -12.0759 C   0  0  0  0  0  0  0  0  0  0  0  0
  -24.0656   19.5293  -11.4674 C   0  0  0  0  0  0  0  0  0  0  0  0
  -21.7623   20.0160  -11.7329 C   0  0  0  0  0  0  0  0  0  0  0  0
  -23.4671   21.5319  -10.6749 N   0  0  0  0  0  0  0  0  0  0  0  0
  -22.6282   22.6425  -10.3154 C   0  0  0  0  0  0  0  0  0  0  0  0
  -22.7546   24.1289   -8.3418 C   0  0  0  0  0  0  0  0  0  0  0  0
  -22.6743   24.3289   -6.9836 C   0  0  0  0  0  0  0  0  0  0  0  0
  -22.3891   23.3172   -6.1422 N   0  0  0  0  0  0  0  0  0  0  0  0
  -24.7982   21.3754  -10.4704 C   0  0  0  0  0  0  0  0  0  0  0  0
 15  1  2  0
 16  1  1  0
  2 17  1  0
  2 18  2  0
 19  2  1  0
  3  5  1  0
 20  3  1  0
  3 21  2  0
  5  4  2  0
  4 23  1  0
 17  6  1  0
  6 24  2  0
  8  7  1  0
  8  9  1  0
 12  8  2  0
 10  9  1  0
 11 10  2  0
 11 12  1  0
 15 11  1  0
 12 13  1  0
 13 14  3  0
 18 15  1  0
 17 16  2  0
 20 19  1  6
 19 24  1  0
 21 22  1  0
 22 23  2  0
M  END
$$$$
