
     RDKit          3D

 20 20  0  0  0  0  0  0  0  0999 V2000
    2.6205  -14.3074    9.2926 C   0  0  2  0  0  0  0  0  0  0  0  0
    4.0115  -14.4802    8.6936 C   0  0  0  0  0  0  0  0  0  0  0  0
    4.3375  -15.8925    8.3914 C   0  0  0  0  0  0  0  0  0  0  0  0
    3.2687  -16.8456    8.7971 C   0  0  0  0  0  0  0  0  0  0  0  0
    2.8877  -16.5208   10.2287 C   0  0  0  0  0  0  0  0  0  0  0  0
    2.5626  -15.2654   10.4750 C   0  0  0  0  0  0  0  0  0  0  0  0
    2.1495  -14.8210   11.7571 C   0  0  0  0  0  0  0  0  0  0  0  0
    1.1143  -15.0947   12.4849 C   0  0  0  0  0  0  0  0  0  0  0  0
    1.0012  -14.3864   13.7793 C   0  0  0  0  0  0  0  0  0  0  0  0
    0.2871  -14.8197   14.7516 C   0  0  0  0  0  0  0  0  0  0  0  0
   -1.1509  -15.1691   14.7133 C   0  0  0  0  0  0  0  0  0  0  0  0
   -1.8075  -15.4406   15.7616 C   0  0  0  0  0  0  0  0  0  0  0  0
   -2.5154  -15.7336   16.8911 C   0  0  0  0  0  0  0  0  0  0  0  0
   -3.1939  -16.9032   17.0072 C   0  0  0  0  0  0  0  0  0  0  0  0
   -4.0824  -17.1837   18.1333 C   0  0  0  0  0  0  0  0  0  0  0  0
    1.5166  -14.5493    8.3149 C   0  0  0  0  0  0  0  0  0  0  0  0
    2.5625  -12.8804    9.7511 C   0  0  0  0  0  0  0  0  0  0  0  0
    2.9223  -17.6260   11.2148 C   0  0  0  0  0  0  0  0  0  0  0  0
    1.7594  -13.0940   13.9496 C   0  0  0  0  0  0  0  0  0  0  0  0
   -2.6342  -14.8273   18.1238 C   0  0  0  0  0  0  0  0  0  0  0  0
  1  2  1  0
  1  6  1  0
  1 16  1  6
  1 17  1  0
  2  3  1  0
  3  4  1  0
  4  5  1  0
  5  6  2  0
  5 18  1  0
  6  7  1  0
  7  8  2  0
  8  9  1  0
  9 10  2  0
  9 19  1  0
 10 11  1  0
 11 12  2  0
 12 13  1  0
 13 14  2  0
 13 20  1  0
 14 15  1  0
M  END
$$$$
