
     RDKit          3D

 20 20  0  0  0  0  0  0  0  0999 V2000
   -1.3068  -16.9622   17.0388 C   0  0  2  0  0  0  0  0  0  0  0  0
   -2.7823  -17.0867   16.8833 C   0  0  0  0  0  0  0  0  0  0  0  0
   -3.5680  -16.0127   17.5695 C   0  0  0  0  0  0  0  0  0  0  0  0
   -2.7269  -14.9932   18.2354 C   0  0  0  0  0  0  0  0  0  0  0  0
   -1.5706  -14.6353   17.3009 C   0  0  0  0  0  0  0  0  0  0  0  0
   -0.8406  -15.5180   16.7025 C   0  0  0  0  0  0  0  0  0  0  0  0
    0.3546  -15.3694   15.9700 C   0  0  0  0  0  0  0  0  0  0  0  0
    1.0140  -15.4416   14.9100 C   0  0  0  0  0  0  0  0  0  0  0  0
    2.2886  -15.5301   14.3416 C   0  0  0  0  0  0  0  0  0  0  0  0
    2.5010  -14.7975   13.2052 C   0  0  0  0  0  0  0  0  0  0  0  0
    2.3281  -15.3032   11.8861 C   0  0  0  0  0  0  0  0  0  0  0  0
    2.4144  -14.6572   10.7626 C   0  0  0  0  0  0  0  0  0  0  0  0
    2.2626  -15.0280    9.4025 C   0  0  0  0  0  0  0  0  0  0  0  0
    3.1718  -14.5656    8.5085 C   0  0  0  0  0  0  0  0  0  0  0  0
    2.7635  -13.5223    7.5471 C   0  0  0  0  0  0  0  0  0  0  0  0
   -0.7009  -17.9564   16.0754 C   0  0  0  0  0  0  0  0  0  0  0  0
   -0.8036  -17.2314   18.4316 C   0  0  0  0  0  0  0  0  0  0  0  0
   -1.4036  -13.2005   16.9518 C   0  0  0  0  0  0  0  0  0  0  0  0
    3.3835  -16.4191   14.7004 C   0  0  0  0  0  0  0  0  0  0  0  0
    1.2052  -15.8769    8.8452 C   0  0  0  0  0  0  0  0  0  0  0  0
  1  2  1  0
  1  6  1  6
 16  1  1  6
 17  1  1  6
  2  3  1  6
  3  4  1  6
  4  5  1  6
  5  6  2  0
 18  5  1  6
  6  7  1  0
  7  8  2  0
  8  9  1  0
  9 10  2  0
 19  9  1  6
 10 11  1  0
 11 12  2  0
 12 13  1  0
 13 14  2  0
 20 13  1  6
 15 14  1  6
M  END
$$$$
