
     RDKit          3D

 20 20  0  0  0  0  0  0  0  0999 V2000
    3.1078  -17.4159    8.6345 C   0  0  2  0  0  0  0  0  0  0  0  0
    3.0535  -17.3770    7.1117 C   0  0  0  0  0  0  0  0  0  0  0  0
    4.3728  -17.1110    6.4945 C   0  0  0  0  0  0  0  0  0  0  0  0
    5.4536  -16.8727    7.4898 C   0  0  0  0  0  0  0  0  0  0  0  0
    4.9411  -15.8467    8.4823 C   0  0  0  0  0  0  0  0  0  0  0  0
    3.7818  -16.1160    9.0530 C   0  0  0  0  0  0  0  0  0  0  0  0
    3.1953  -15.2687   10.0276 C   0  0  0  0  0  0  0  0  0  0  0  0
    3.0073  -15.4018   11.3017 C   0  0  0  0  0  0  0  0  0  0  0  0
    2.3748  -14.2647   12.0063 C   0  0  0  0  0  0  0  0  0  0  0  0
    1.4015  -14.4075   12.8283 C   0  0  0  0  0  0  0  0  0  0  0  0
    0.9253  -13.4213   13.8240 C   0  0  0  0  0  0  0  0  0  0  0  0
   -0.0078  -13.6824   14.6396 C   0  0  0  0  0  0  0  0  0  0  0  0
   -1.0133  -13.9643   15.5184 C   0  0  0  0  0  0  0  0  0  0  0  0
   -1.3297  -13.1032   16.5185 C   0  0  0  0  0  0  0  0  0  0  0  0
   -2.4963  -13.2963   17.3772 C   0  0  0  0  0  0  0  0  0  0  0  0
    3.8130  -18.6174    9.1750 C   0  0  0  0  0  0  0  0  0  0  0  0
    1.6758  -17.4489    9.0799 C   0  0  0  0  0  0  0  0  0  0  0  0
    5.7726  -14.6427    8.7143 C   0  0  0  0  0  0  0  0  0  0  0  0
    2.9023  -12.8785   11.7333 C   0  0  0  0  0  0  0  0  0  0  0  0
   -1.8819  -15.2292   15.4966 C   0  0  0  0  0  0  0  0  0  0  0  0
  1  2  1  0
  1  6  1  0
  1 16  1  6
  1 17  1  0
  2  3  1  0
  3  4  1  0
  4  5  1  0
  5  6  2  0
  5 18  1  0
  6  7  1  0
  7  8  2  0
  8  9  1  0
  9 10  2  0
  9 19  1  0
 10 11  1  0
 11 12  2  0
 12 13  1  0
 13 14  2  0
 13 20  1  0
 14 15  1  0
M  END
$$$$
