
     RDKit          3D

 20 20  0  0  0  0  0  0  0  0999 V2000
   -2.2530  -15.6397   17.1633 C   0  0  2  0  0  0  0  0  0  0  0  0
   -2.3164  -15.7112   18.6490 C   0  0  0  0  0  0  0  0  0  0  0  0
   -2.4415  -17.0996   19.1952 C   0  0  0  0  0  0  0  0  0  0  0  0
   -2.4276  -18.1519   18.1548 C   0  0  0  0  0  0  0  0  0  0  0  0
   -1.3381  -17.8111   17.1374 C   0  0  0  0  0  0  0  0  0  0  0  0
   -1.1980  -16.6389   16.6114 C   0  0  0  0  0  0  0  0  0  0  0  0
   -0.3837  -16.2087   15.5442 C   0  0  0  0  0  0  0  0  0  0  0  0
   -0.1424  -15.4549   14.5761 C   0  0  0  0  0  0  0  0  0  0  0  0
    0.8315  -14.7164   13.8966 C   0  0  0  0  0  0  0  0  0  0  0  0
    1.4720  -15.3535   12.8685 C   0  0  0  0  0  0  0  0  0  0  0  0
    2.0794  -14.6833   11.7698 C   0  0  0  0  0  0  0  0  0  0  0  0
    2.7083  -15.2062   10.7606 C   0  0  0  0  0  0  0  0  0  0  0  0
    3.1301  -14.7086    9.5017 C   0  0  0  0  0  0  0  0  0  0  0  0
    3.8844  -15.5162    8.7152 C   0  0  0  0  0  0  0  0  0  0  0  0
    4.2997  -16.8347    9.2333 C   0  0  0  0  0  0  0  0  0  0  0  0
   -1.8658  -14.2173   16.8307 C   0  0  0  0  0  0  0  0  0  0  0  0
   -3.5407  -15.9924   16.4684 C   0  0  0  0  0  0  0  0  0  0  0  0
   -0.3042  -18.8476   16.8821 C   0  0  0  0  0  0  0  0  0  0  0  0
    1.3760  -13.4084   14.2291 C   0  0  0  0  0  0  0  0  0  0  0  0
    2.8317  -13.3856    8.9451 C   0  0  0  0  0  0  0  0  0  0  0  0
  1  2  1  0
  1  6  1  6
 16  1  1  6
 17  1  1  6
  2  3  1  6
  3  4  1  6
  4  5  1  6
  5  6  2  0
 18  5  1  6
  6  7  1  0
  7  8  2  0
  8  9  1  0
  9 10  2  0
 19  9  1  6
 10 11  1  0
 11 12  2  0
 12 13  1  0
 13 14  2  0
 20 13  1  6
 15 14  1  6
M  END
$$$$
