
     RDKit          3D

 20 20  0  0  0  0  0  0  0  0999 V2000
    4.4018  -15.5057    6.3306 C   0  0  2  0  0  0  0  0  0  0  0  0
    5.7050  -15.7301    5.5724 C   0  0  0  0  0  0  0  0  0  0  0  0
    5.8980  -17.1397    5.1624 C   0  0  0  0  0  0  0  0  0  0  0  0
    4.8155  -18.0458    5.6342 C   0  0  0  0  0  0  0  0  0  0  0  0
    4.6141  -17.7833    7.1142 C   0  0  0  0  0  0  0  0  0  0  0  0
    4.4051  -16.5268    7.4604 C   0  0  0  0  0  0  0  0  0  0  0  0
    4.1640  -16.1343    8.8019 C   0  0  0  0  0  0  0  0  0  0  0  0
    3.0866  -15.7869    9.4303 C   0  0  0  0  0  0  0  0  0  0  0  0
    3.2283  -15.4512   10.8646 C   0  0  0  0  0  0  0  0  0  0  0  0
    2.2392  -15.4422   11.6800 C   0  0  0  0  0  0  0  0  0  0  0  0
    2.3030  -15.3451   13.1556 C   0  0  0  0  0  0  0  0  0  0  0  0
    1.2691  -15.1699   13.8657 C   0  0  0  0  0  0  0  0  0  0  0  0
    0.1545  -14.9813   14.6305 C   0  0  0  0  0  0  0  0  0  0  0  0
   -0.7360  -15.9861   14.8282 C   0  0  0  0  0  0  0  0  0  0  0  0
   -1.7691  -15.9240   15.8601 C   0  0  0  0  0  0  0  0  0  0  0  0
    3.1851  -15.6189    5.4704 C   0  0  0  0  0  0  0  0  0  0  0  0
    4.4924  -14.1077    6.8666 C   0  0  0  0  0  0  0  0  0  0  0  0
    4.6778  -18.9452    8.0313 C   0  0  0  0  0  0  0  0  0  0  0  0
    4.6016  -15.0992   11.3787 C   0  0  0  0  0  0  0  0  0  0  0  0
   -0.2251  -13.6734   15.3379 C   0  0  0  0  0  0  0  0  0  0  0  0
  1  2  1  0
  1  6  1  0
  1 16  1  6
  1 17  1  0
  2  3  1  0
  3  4  1  0
  4  5  1  0
  5  6  2  0
  5 18  1  0
  6  7  1  0
  7  8  2  0
  8  9  1  0
  9 10  2  0
  9 19  1  0
 10 11  1  0
 11 12  2  0
 12 13  1  0
 13 14  2  0
 13 20  1  0
 14 15  1  0
M  END
$$$$
