
     RDKit          3D

 20 20  0  0  0  0  0  0  0  0999 V2000
   -1.8490   -1.5207  -11.8644 C   0  0  2  0  0  0  0  0  0  0  0  0
   -3.3168   -1.6926  -11.6844 C   0  0  0  0  0  0  0  0  0  0  0  0
   -3.9976   -2.4046  -12.8119 C   0  0  0  0  0  0  0  0  0  0  0  0
   -3.0733   -2.8526  -13.8773 C   0  0  0  0  0  0  0  0  0  0  0  0
   -1.8292   -3.4492  -13.2183 C   0  0  0  0  0  0  0  0  0  0  0  0
   -1.1842   -2.8687  -12.2606 C   0  0  0  0  0  0  0  0  0  0  0  0
    0.0603   -3.1818  -11.6772 C   0  0  0  0  0  0  0  0  0  0  0  0
    0.7575   -3.7219  -10.7907 C   0  0  0  0  0  0  0  0  0  0  0  0
    1.9697   -3.6970  -10.0939 C   0  0  0  0  0  0  0  0  0  0  0  0
    1.9932   -4.3458   -8.8890 C   0  0  0  0  0  0  0  0  0  0  0  0
    3.1765   -4.5880   -8.1363 C   0  0  0  0  0  0  0  0  0  0  0  0
    3.2749   -4.9655   -6.8974 C   0  0  0  0  0  0  0  0  0  0  0  0
    2.4546   -4.8010   -5.7526 C   0  0  0  0  0  0  0  0  0  0  0  0
    1.7386   -3.6547   -5.6386 C   0  0  0  0  0  0  0  0  0  0  0  0
    0.8888   -3.4573   -4.4476 C   0  0  0  0  0  0  0  0  0  0  0  0
   -1.3201   -1.0355  -10.5345 C   0  0  0  0  0  0  0  0  0  0  0  0
   -1.4650   -0.5507  -12.9494 C   0  0  0  0  0  0  0  0  0  0  0  0
   -1.4611   -4.8370  -13.6021 C   0  0  0  0  0  0  0  0  0  0  0  0
    3.1760   -2.9411  -10.3962 C   0  0  0  0  0  0  0  0  0  0  0  0
    2.2927   -5.7580   -4.6539 C   0  0  0  0  0  0  0  0  0  0  0  0
  1  2  1  0
  1  6  1  6
 16  1  1  6
 17  1  1  6
  2  3  1  6
  3  4  1  6
  4  5  1  6
  5  6  2  0
 18  5  1  6
  6  7  1  0
  7  8  2  0
  8  9  1  0
  9 10  2  0
 19  9  1  6
 10 11  1  0
 11 12  2  0
 12 13  1  0
 13 14  2  0
 20 13  1  6
 15 14  1  6
M  END
$$$$
