
     RDKit          3D

 20 20  0  0  0  0  0  0  0  0999 V2000
    3.7135  -15.6143   10.2399 C   0  0  2  0  0  0  0  0  0  0  0  0
    3.7528  -16.8674    9.3729 C   0  0  0  0  0  0  0  0  0  0  0  0
    2.8660  -16.7782    8.1905 C   0  0  0  0  0  0  0  0  0  0  0  0
    2.0779  -15.5167    8.1367 C   0  0  0  0  0  0  0  0  0  0  0  0
    1.4314  -15.3248    9.4951 C   0  0  0  0  0  0  0  0  0  0  0  0
    2.2403  -15.3688   10.5372 C   0  0  0  0  0  0  0  0  0  0  0  0
    1.7855  -15.1696   11.8659 C   0  0  0  0  0  0  0  0  0  0  0  0
    0.9078  -15.7867   12.5905 C   0  0  0  0  0  0  0  0  0  0  0  0
    0.5593  -15.1683   13.8890 C   0  0  0  0  0  0  0  0  0  0  0  0
   -0.5563  -15.3782   14.4846 C   0  0  0  0  0  0  0  0  0  0  0  0
   -1.0474  -14.7158   15.7139 C   0  0  0  0  0  0  0  0  0  0  0  0
   -2.0529  -15.1426   16.3547 C   0  0  0  0  0  0  0  0  0  0  0  0
   -3.1363  -15.6030   17.0455 C   0  0  0  0  0  0  0  0  0  0  0  0
   -4.2942  -14.8960   17.0820 C   0  0  0  0  0  0  0  0  0  0  0  0
   -5.2084  -14.9505   18.2210 C   0  0  0  0  0  0  0  0  0  0  0  0
    4.3667  -14.4298    9.6048 C   0  0  0  0  0  0  0  0  0  0  0  0
    4.4632  -15.9743   11.4882 C   0  0  0  0  0  0  0  0  0  0  0  0
   -0.0349  -15.1163    9.5330 C   0  0  0  0  0  0  0  0  0  0  0  0
    1.5664  -14.2462   14.5290 C   0  0  0  0  0  0  0  0  0  0  0  0
   -3.1921  -16.9179   17.8348 C   0  0  0  0  0  0  0  0  0  0  0  0
  1  2  1  0
  1  6  1  0
  1 16  1  6
  1 17  1  0
  2  3  1  0
  3  4  1  0
  4  5  1  0
  5  6  2  0
  5 18  1  0
  6  7  1  0
  7  8  2  0
  8  9  1  0
  9 10  2  0
  9 19  1  0
 10 11  1  0
 11 12  2  0
 12 13  1  0
 13 14  2  0
 13 20  1  0
 14 15  1  0
M  END
$$$$
