
     RDKit          3D

 20 20  0  0  0  0  0  0  0  0999 V2000
   -1.1480   -4.4486  -12.1952 C   0  0  2  0  0  0  0  0  0  0  0  0
   -2.3594   -3.5772  -12.5061 C   0  0  0  0  0  0  0  0  0  0  0  0
   -2.0004   -2.3140  -13.1902 C   0  0  0  0  0  0  0  0  0  0  0  0
   -0.5335   -2.1343  -13.3677 C   0  0  0  0  0  0  0  0  0  0  0  0
    0.1236   -2.3989  -12.0267 C   0  0  0  0  0  0  0  0  0  0  0  0
   -0.1763   -3.5461  -11.4467 C   0  0  0  0  0  0  0  0  0  0  0  0
    0.3894   -3.9470  -10.2093 C   0  0  0  0  0  0  0  0  0  0  0  0
    1.6050   -4.2081   -9.8482 C   0  0  0  0  0  0  0  0  0  0  0  0
    1.7972   -4.7309   -8.4772 C   0  0  0  0  0  0  0  0  0  0  0  0
    2.7172   -4.3070   -7.6916 C   0  0  0  0  0  0  0  0  0  0  0  0
    2.9426   -4.7106   -6.2854 C   0  0  0  0  0  0  0  0  0  0  0  0
    3.9872   -4.3834   -5.6486 C   0  0  0  0  0  0  0  0  0  0  0  0
    5.1133   -4.0312   -4.9624 C   0  0  0  0  0  0  0  0  0  0  0  0
    5.2393   -4.3035   -3.6388 C   0  0  0  0  0  0  0  0  0  0  0  0
    5.9041   -5.5090   -3.1481 C   0  0  0  0  0  0  0  0  0  0  0  0
   -0.5285   -5.0624  -13.4087 C   0  0  0  0  0  0  0  0  0  0  0  0
   -1.6648   -5.5403  -11.3058 C   0  0  0  0  0  0  0  0  0  0  0  0
    1.0266   -1.3551  -11.4880 C   0  0  0  0  0  0  0  0  0  0  0  0
    0.8676   -5.8157   -7.9945 C   0  0  0  0  0  0  0  0  0  0  0  0
    6.3311   -3.3164   -5.5632 C   0  0  0  0  0  0  0  0  0  0  0  0
  1  2  1  0
  1  6  1  0
  1 16  1  6
  1 17  1  0
  2  3  1  0
  3  4  1  0
  4  5  1  0
  5  6  2  0
  5 18  1  0
  6  7  1  0
  7  8  2  0
  8  9  1  0
  9 10  2  0
  9 19  1  0
 10 11  1  0
 11 12  2  0
 12 13  1  0
 13 14  2  0
 13 20  1  0
 14 15  1  0
M  END
$$$$
