
     RDKit          3D

 20 20  0  0  0  0  0  0  0  0999 V2000
    2.4505  -14.4520    9.7259 C   0  0  2  0  0  0  0  0  0  0  0  0
    3.9325  -14.3736    9.3780 C   0  0  0  0  0  0  0  0  0  0  0  0
    4.6590  -15.6317    9.6640 C   0  0  0  0  0  0  0  0  0  0  0  0
    3.8052  -16.6780   10.2899 C   0  0  0  0  0  0  0  0  0  0  0  0
    3.0689  -16.0326   11.4481 C   0  0  0  0  0  0  0  0  0  0  0  0
    2.3943  -14.9327   11.1698 C   0  0  0  0  0  0  0  0  0  0  0  0
    1.6282  -14.2401   12.1421 C   0  0  0  0  0  0  0  0  0  0  0  0
    1.4647  -14.4175   13.4141 C   0  0  0  0  0  0  0  0  0  0  0  0
    0.4882  -13.5361   14.0918 C   0  0  0  0  0  0  0  0  0  0  0  0
   -0.2121  -13.9134   15.0969 C   0  0  0  0  0  0  0  0  0  0  0  0
   -0.9730  -15.1764   15.2278 C   0  0  0  0  0  0  0  0  0  0  0  0
   -1.8381  -15.3520   16.1358 C   0  0  0  0  0  0  0  0  0  0  0  0
   -2.7703  -15.5415   17.1147 C   0  0  0  0  0  0  0  0  0  0  0  0
   -2.4828  -15.2770   18.4144 C   0  0  0  0  0  0  0  0  0  0  0  0
   -3.3583  -15.6908   19.5090 C   0  0  0  0  0  0  0  0  0  0  0  0
    1.6685  -15.3330    8.8064 C   0  0  0  0  0  0  0  0  0  0  0  0
    1.9416  -13.0462    9.6050 C   0  0  0  0  0  0  0  0  0  0  0  0
    3.1776  -16.6808   12.7759 C   0  0  0  0  0  0  0  0  0  0  0  0
    0.3119  -12.1344   13.5642 C   0  0  0  0  0  0  0  0  0  0  0  0
   -4.2000  -16.0524   16.8914 C   0  0  0  0  0  0  0  0  0  0  0  0
  1  2  1  0
  1  6  1  0
  1 16  1  6
  1 17  1  0
  2  3  1  0
  3  4  1  0
  4  5  1  0
  5  6  2  0
  5 18  1  0
  6  7  1  0
  7  8  2  0
  8  9  1  0
  9 10  2  0
  9 19  1  0
 10 11  1  0
 11 12  2  0
 12 13  1  0
 13 14  2  0
 13 20  1  0
 14 15  1  0
M  END
$$$$
