
     RDKit          3D

 20 20  0  0  0  0  0  0  0  0999 V2000
   -2.4462  -14.5271   17.2898 C   0  0  2  0  0  0  0  0  0  0  0  0
   -3.9008  -14.4607   16.8389 C   0  0  0  0  0  0  0  0  0  0  0  0
   -4.6133  -15.7487   16.9995 C   0  0  0  0  0  0  0  0  0  0  0  0
   -3.7433  -16.8468   17.5020 C   0  0  0  0  0  0  0  0  0  0  0  0
   -2.4877  -16.8589   16.6515 C   0  0  0  0  0  0  0  0  0  0  0  0
   -1.8420  -15.7122   16.5486 C   0  0  0  0  0  0  0  0  0  0  0  0
   -0.6336  -15.5791   15.8179 C   0  0  0  0  0  0  0  0  0  0  0  0
   -0.2322  -14.7125   14.9439 C   0  0  0  0  0  0  0  0  0  0  0  0
    1.0889  -14.9531   14.3221 C   0  0  0  0  0  0  0  0  0  0  0  0
    1.2677  -14.9831   13.0531 C   0  0  0  0  0  0  0  0  0  0  0  0
    2.4336  -14.4606   12.3057 C   0  0  0  0  0  0  0  0  0  0  0  0
    2.6448  -14.7555   11.0924 C   0  0  0  0  0  0  0  0  0  0  0  0
    2.8721  -15.0731    9.7845 C   0  0  0  0  0  0  0  0  0  0  0  0
    3.8443  -15.9543    9.4378 C   0  0  0  0  0  0  0  0  0  0  0  0
    4.2328  -16.1833    8.0477 C   0  0  0  0  0  0  0  0  0  0  0  0
   -2.2865  -14.6460   18.7709 C   0  0  0  0  0  0  0  0  0  0  0  0
   -1.8325  -13.2363   16.8347 C   0  0  0  0  0  0  0  0  0  0  0  0
   -2.1059  -18.1393   16.0112 C   0  0  0  0  0  0  0  0  0  0  0  0
    2.2708  -15.1783   15.2313 C   0  0  0  0  0  0  0  0  0  0  0  0
    2.0974  -14.5074    8.5867 C   0  0  0  0  0  0  0  0  0  0  0  0
  1  2  1  0
  1  6  1  0
  1 16  1  1
  1 17  1  0
  2  3  1  0
  3  4  1  0
  4  5  1  0
  5  6  2  0
  5 18  1  0
  6  7  1  0
  7  8  2  0
  8  9  1  0
  9 10  2  0
  9 19  1  0
 10 11  1  0
 11 12  2  0
 12 13  1  0
 13 14  2  0
 13 20  1  0
 14 15  1  0
M  END
$$$$
