
     RDKit          3D

 20 20  0  0  0  0  0  0  0  0999 V2000
   -1.0667   -3.4670  -12.1064 C   0  0  2  0  0  0  0  0  0  0  0  0
   -1.0705   -3.3192  -13.5878 C   0  0  0  0  0  0  0  0  0  0  0  0
   -0.6866   -1.9557  -14.0729 C   0  0  0  0  0  0  0  0  0  0  0  0
   -0.3236   -1.0181  -12.9870 C   0  0  0  0  0  0  0  0  0  0  0  0
    0.5546   -1.7617  -11.9799 C   0  0  0  0  0  0  0  0  0  0  0  0
    0.2614   -2.9275  -11.5055 C   0  0  0  0  0  0  0  0  0  0  0  0
    0.8497   -3.6594  -10.4541 C   0  0  0  0  0  0  0  0  0  0  0  0
    1.4459   -4.6647  -10.0095 C   0  0  0  0  0  0  0  0  0  0  0  0
    2.3618   -5.1478   -9.0697 C   0  0  0  0  0  0  0  0  0  0  0  0
    2.3513   -4.5427   -7.8421 C   0  0  0  0  0  0  0  0  0  0  0  0
    2.7586   -5.1787   -6.6358 C   0  0  0  0  0  0  0  0  0  0  0  0
    2.8734   -4.6545   -5.4529 C   0  0  0  0  0  0  0  0  0  0  0  0
    3.8595   -3.8510   -4.8264 C   0  0  0  0  0  0  0  0  0  0  0  0
    4.3052   -4.2252   -3.6012 C   0  0  0  0  0  0  0  0  0  0  0  0
    5.1024   -3.2695   -2.8071 C   0  0  0  0  0  0  0  0  0  0  0  0
   -1.2130   -4.9464  -11.8349 C   0  0  0  0  0  0  0  0  0  0  0  0
   -2.1611   -2.7098  -11.4033 C   0  0  0  0  0  0  0  0  0  0  0  0
    1.8822   -1.1682  -11.6738 C   0  0  0  0  0  0  0  0  0  0  0  0
    3.4406   -6.1055   -9.2616 C   0  0  0  0  0  0  0  0  0  0  0  0
    4.4635   -2.6319   -5.3722 C   0  0  0  0  0  0  0  0  0  0  0  0
  1  2  1  0
  1  6  1  1
 16  1  1  6
 17  1  1  6
  2  3  1  6
  3  4  1  6
  4  5  1  6
  5  6  2  0
 18  5  1  6
  6  7  1  0
  7  8  2  0
  8  9  1  0
  9 10  2  0
 19  9  1  6
 10 11  1  0
 11 12  2  0
 12 13  1  0
 13 14  2  0
 20 13  1  6
 15 14  1  6
M  END
$$$$
