
     RDKit          3D

 20 20  0  0  0  0  0  0  0  0999 V2000
    3.6388   -5.9242   -5.2555 C   0  0  2  0  0  0  0  0  0  0  0  0
    5.0632   -5.8382   -4.7197 C   0  0  0  0  0  0  0  0  0  0  0  0
    5.2492   -4.7332   -3.7519 C   0  0  0  0  0  0  0  0  0  0  0  0
    4.0282   -3.9040   -3.5599 C   0  0  0  0  0  0  0  0  0  0  0  0
    3.5096   -3.5310   -4.9354 C   0  0  0  0  0  0  0  0  0  0  0  0
    3.3124   -4.5304   -5.7749 C   0  0  0  0  0  0  0  0  0  0  0  0
    2.7960   -4.3391   -7.0821 C   0  0  0  0  0  0  0  0  0  0  0  0
    1.6907   -4.7066   -7.6471 C   0  0  0  0  0  0  0  0  0  0  0  0
    1.5754   -4.4742   -9.1040 C   0  0  0  0  0  0  0  0  0  0  0  0
    0.4679   -4.1790   -9.6779 C   0  0  0  0  0  0  0  0  0  0  0  0
    0.2828   -3.7201  -11.0730 C   0  0  0  0  0  0  0  0  0  0  0  0
   -0.8321   -3.8020  -11.6681 C   0  0  0  0  0  0  0  0  0  0  0  0
   -2.0335   -3.8901  -12.3098 C   0  0  0  0  0  0  0  0  0  0  0  0
   -2.8576   -2.8157  -12.4013 C   0  0  0  0  0  0  0  0  0  0  0  0
   -3.6100   -2.5081  -13.6158 C   0  0  0  0  0  0  0  0  0  0  0  0
    2.6480   -6.3953   -4.2408 C   0  0  0  0  0  0  0  0  0  0  0  0
    3.6983   -6.9179   -6.3776 C   0  0  0  0  0  0  0  0  0  0  0  0
    3.2813   -2.0942   -5.2155 C   0  0  0  0  0  0  0  0  0  0  0  0
    2.8221   -4.5990   -9.9434 C   0  0  0  0  0  0  0  0  0  0  0  0
   -2.5890   -5.1519  -12.9837 C   0  0  0  0  0  0  0  0  0  0  0  0
  1  2  1  0
  1  6  1  0
  1 16  1  1
  1 17  1  0
  2  3  1  0
  3  4  1  0
  4  5  1  0
  5  6  2  0
  5 18  1  0
  6  7  1  0
  7  8  2  0
  8  9  1  0
  9 10  2  0
  9 19  1  0
 10 11  1  0
 11 12  2  0
 12 13  1  0
 13 14  2  0
 13 20  1  0
 14 15  1  0
M  END
$$$$
