
     RDKit          3D

 20 20  0  0  0  0  0  0  0  0999 V2000
   -1.8124  -14.7261   16.6494 C   0  0  2  0  0  0  0  0  0  0  0  0
   -2.7509  -15.8635   17.0355 C   0  0  0  0  0  0  0  0  0  0  0  0
   -2.1061  -16.8721   17.9069 C   0  0  0  0  0  0  0  0  0  0  0  0
   -0.6662  -16.5968   18.1642 C   0  0  0  0  0  0  0  0  0  0  0  0
   -0.0076  -16.3255   16.8253 C   0  0  0  0  0  0  0  0  0  0  0  0
   -0.5713  -15.3968   16.0757 C   0  0  0  0  0  0  0  0  0  0  0  0
   -0.0466  -15.0094   14.8161 C   0  0  0  0  0  0  0  0  0  0  0  0
    0.7363  -15.6061   13.9751 C   0  0  0  0  0  0  0  0  0  0  0  0
    1.2553  -14.7931   12.8527 C   0  0  0  0  0  0  0  0  0  0  0  0
    2.1090  -15.2373   12.0059 C   0  0  0  0  0  0  0  0  0  0  0  0
    2.2000  -14.8924   10.5693 C   0  0  0  0  0  0  0  0  0  0  0  0
    3.1098  -15.3562    9.8203 C   0  0  0  0  0  0  0  0  0  0  0  0
    4.0906  -15.8559    9.0134 C   0  0  0  0  0  0  0  0  0  0  0  0
    4.8130  -15.0406    8.2039 C   0  0  0  0  0  0  0  0  0  0  0  0
    5.5902  -15.5480    7.0750 C   0  0  0  0  0  0  0  0  0  0  0  0
   -1.4863  -13.8113   17.7851 C   0  0  0  0  0  0  0  0  0  0  0  0
   -2.5441  -13.9517   15.5934 C   0  0  0  0  0  0  0  0  0  0  0  0
    1.1911  -17.1236   16.4768 C   0  0  0  0  0  0  0  0  0  0  0  0
    0.7557  -13.3772   12.7116 C   0  0  0  0  0  0  0  0  0  0  0  0
    4.4925  -17.3338    8.9166 C   0  0  0  0  0  0  0  0  0  0  0  0
  1  2  1  0
  1  6  1  0
  1 16  1  1
  1 17  1  0
  2  3  1  0
  3  4  1  0
  4  5  1  0
  5  6  2  0
  5 18  1  0
  6  7  1  0
  7  8  2  0
  8  9  1  0
  9 10  2  0
  9 19  1  0
 10 11  1  0
 11 12  2  0
 12 13  1  0
 13 14  2  0
 13 20  1  0
 14 15  1  0
M  END
$$$$
