
     RDKit          3D

 20 20  0  0  0  0  0  0  0  0999 V2000
   -1.6934   -2.4229  -11.8892 C   0  0  2  0  0  0  0  0  0  0  0  0
   -2.1347   -1.0781  -12.4551 C   0  0  0  0  0  0  0  0  0  0  0  0
   -1.6356   -0.8390  -13.8284 C   0  0  0  0  0  0  0  0  0  0  0  0
   -0.7577   -1.9283  -14.3363 C   0  0  0  0  0  0  0  0  0  0  0  0
    0.2814   -2.2115  -13.2684 C   0  0  0  0  0  0  0  0  0  0  0  0
   -0.1803   -2.4606  -12.0572 C   0  0  0  0  0  0  0  0  0  0  0  0
    0.6691   -2.7784  -10.9666 C   0  0  0  0  0  0  0  0  0  0  0  0
    1.6595   -3.6030  -10.8420 C   0  0  0  0  0  0  0  0  0  0  0  0
    2.3565   -3.6179   -9.5368 C   0  0  0  0  0  0  0  0  0  0  0  0
    2.4180   -4.6584   -8.7906 C   0  0  0  0  0  0  0  0  0  0  0  0
    3.1981   -4.8137   -7.5422 C   0  0  0  0  0  0  0  0  0  0  0  0
    3.1877   -5.8864   -6.8690 C   0  0  0  0  0  0  0  0  0  0  0  0
    3.1766   -7.0421   -6.1430 C   0  0  0  0  0  0  0  0  0  0  0  0
    2.0080   -7.6131   -5.7556 C   0  0  0  0  0  0  0  0  0  0  0  0
    1.8935   -8.4104   -4.5361 C   0  0  0  0  0  0  0  0  0  0  0  0
   -2.3631   -3.5908  -12.5378 C   0  0  0  0  0  0  0  0  0  0  0  0
   -2.0745   -2.3853  -10.4389 C   0  0  0  0  0  0  0  0  0  0  0  0
    1.7064   -2.1753  -13.6720 C   0  0  0  0  0  0  0  0  0  0  0  0
    3.0157   -2.3446   -9.0696 C   0  0  0  0  0  0  0  0  0  0  0  0
    4.4212   -7.8168   -5.6894 C   0  0  0  0  0  0  0  0  0  0  0  0
  1  2  1  0
  1  6  1  0
  1 16  1  6
  1 17  1  0
  2  3  1  0
  3  4  1  0
  4  5  1  0
  5  6  2  0
  5 18  1  0
  6  7  1  0
  7  8  2  0
  8  9  1  0
  9 10  2  0
  9 19  1  0
 10 11  1  0
 11 12  2  0
 12 13  1  0
 13 14  2  0
 13 20  1  0
 14 15  1  0
M  END
$$$$
