
     RDKit          3D

 20 20  0  0  0  0  0  0  0  0999 V2000
   -1.1004   -1.8889  -12.7116 C   0  0  2  0  0  0  0  0  0  0  0  0
   -2.5616   -1.6967  -12.5005 C   0  0  0  0  0  0  0  0  0  0  0  0
   -3.3814   -2.9341  -12.6963 C   0  0  0  0  0  0  0  0  0  0  0  0
   -2.5784   -4.1357  -13.0149 C   0  0  0  0  0  0  0  0  0  0  0  0
   -1.3504   -4.1518  -12.1038 C   0  0  0  0  0  0  0  0  0  0  0  0
   -0.5900   -3.1236  -11.9172 C   0  0  0  0  0  0  0  0  0  0  0  0
    0.6587   -3.0169  -11.2720 C   0  0  0  0  0  0  0  0  0  0  0  0
    1.6740   -3.5222  -10.7451 C   0  0  0  0  0  0  0  0  0  0  0  0
    2.9585   -3.2878  -10.2444 C   0  0  0  0  0  0  0  0  0  0  0  0
    3.1296   -3.4661   -8.8983 C   0  0  0  0  0  0  0  0  0  0  0  0
    2.0781   -3.7941   -7.9971 C   0  0  0  0  0  0  0  0  0  0  0  0
    2.1475   -3.9586   -6.7105 C   0  0  0  0  0  0  0  0  0  0  0  0
    2.3298   -5.0884   -5.8734 C   0  0  0  0  0  0  0  0  0  0  0  0
    1.6211   -6.2110   -6.1513 C   0  0  0  0  0  0  0  0  0  0  0  0
    1.8129   -7.4060   -5.3060 C   0  0  0  0  0  0  0  0  0  0  0  0
   -0.4379   -0.6243  -12.2158 C   0  0  0  0  0  0  0  0  0  0  0  0
   -0.7070   -2.1423  -14.1421 C   0  0  0  0  0  0  0  0  0  0  0  0
   -1.1375   -5.3691  -11.2784 C   0  0  0  0  0  0  0  0  0  0  0  0
    4.1123   -2.7256  -10.9305 C   0  0  0  0  0  0  0  0  0  0  0  0
    3.2223   -5.1767   -4.7137 C   0  0  0  0  0  0  0  0  0  0  0  0
  1  2  1  0
  1  6  1  1
 16  1  1  6
 17  1  1  6
  2  3  1  6
  3  4  1  6
  4  5  1  6
  5  6  2  0
 18  5  1  6
  6  7  1  0
  7  8  2  0
  8  9  1  0
  9 10  2  0
 19  9  1  6
 10 11  1  0
 11 12  2  0
 12 13  1  0
 13 14  2  0
 20 13  1  6
 15 14  1  6
M  END
$$$$
