
     RDKit          3D

 20 20  0  0  0  0  0  0  0  0999 V2000
    3.8822  -15.5378    8.9335 C   0  0  2  0  0  0  0  0  0  0  0  0
    4.5311  -16.9169    8.9133 C   0  0  0  0  0  0  0  0  0  0  0  0
    3.6571  -17.9566    8.3238 C   0  0  0  0  0  0  0  0  0  0  0  0
    2.3116  -17.4493    7.9397 C   0  0  0  0  0  0  0  0  0  0  0  0
    1.7594  -16.6797    9.1242 C   0  0  0  0  0  0  0  0  0  0  0  0
    2.5339  -15.7302    9.6150 C   0  0  0  0  0  0  0  0  0  0  0  0
    2.1367  -14.9039   10.6972 C   0  0  0  0  0  0  0  0  0  0  0  0
    1.9236  -13.6303   10.7915 C   0  0  0  0  0  0  0  0  0  0  0  0
    1.5900  -13.1062   12.1345 C   0  0  0  0  0  0  0  0  0  0  0  0
    0.9696  -13.7967   13.0186 C   0  0  0  0  0  0  0  0  0  0  0  0
    0.3192  -13.2906   14.2482 C   0  0  0  0  0  0  0  0  0  0  0  0
   -0.3226  -14.0492   15.0333 C   0  0  0  0  0  0  0  0  0  0  0  0
   -1.0145  -14.8665   15.8797 C   0  0  0  0  0  0  0  0  0  0  0  0
   -1.2925  -14.4819   17.1512 C   0  0  0  0  0  0  0  0  0  0  0  0
   -2.5296  -14.8614   17.8303 C   0  0  0  0  0  0  0  0  0  0  0  0
    3.7475  -14.9229    7.5782 C   0  0  0  0  0  0  0  0  0  0  0  0
    4.7918  -14.6856    9.7681 C   0  0  0  0  0  0  0  0  0  0  0  0
    0.4190  -17.0628    9.6258 C   0  0  0  0  0  0  0  0  0  0  0  0
    1.9969  -11.6924   12.4658 C   0  0  0  0  0  0  0  0  0  0  0  0
   -1.5478  -16.2616   15.5273 C   0  0  0  0  0  0  0  0  0  0  0  0
  1  2  1  0
  1  6  1  0
  1 16  1  6
  1 17  1  0
  2  3  1  0
  3  4  1  0
  4  5  1  0
  5  6  2  0
  5 18  1  0
  6  7  1  0
  7  8  2  0
  8  9  1  0
  9 10  2  0
  9 19  1  0
 10 11  1  0
 11 12  2  0
 12 13  1  0
 13 14  2  0
 13 20  1  0
 14 15  1  0
M  END
$$$$
