
     RDKit          3D

 20 20  0  0  0  0  0  0  0  0999 V2000
   -2.0122  -16.8190   16.9733 C   0  0  2  0  0  0  0  0  0  0  0  0
   -2.2776  -16.6134   18.4602 C   0  0  0  0  0  0  0  0  0  0  0  0
   -2.9381  -15.3213   18.7544 C   0  0  0  0  0  0  0  0  0  0  0  0
   -3.1405  -14.4728   17.5484 C   0  0  0  0  0  0  0  0  0  0  0  0
   -1.8198  -14.4145   16.8052 C   0  0  0  0  0  0  0  0  0  0  0  0
   -1.2617  -15.5753   16.5161 C   0  0  0  0  0  0  0  0  0  0  0  0
   -0.0459  -15.6790   15.7928 C   0  0  0  0  0  0  0  0  0  0  0  0
    0.2129  -15.9492   14.5534 C   0  0  0  0  0  0  0  0  0  0  0  0
    1.6297  -15.8688   14.1337 C   0  0  0  0  0  0  0  0  0  0  0  0
    2.0470  -16.2989   13.0005 C   0  0  0  0  0  0  0  0  0  0  0  0
    1.3899  -16.1250   11.6855 C   0  0  0  0  0  0  0  0  0  0  0  0
    2.0474  -16.0705   10.6045 C   0  0  0  0  0  0  0  0  0  0  0  0
    2.7563  -16.0116    9.4397 C   0  0  0  0  0  0  0  0  0  0  0  0
    3.8067  -15.1631    9.3028 C   0  0  0  0  0  0  0  0  0  0  0  0
    4.5508  -15.0351    8.0515 C   0  0  0  0  0  0  0  0  0  0  0  0
   -3.2523  -17.0563   16.1740 C   0  0  0  0  0  0  0  0  0  0  0  0
   -1.1391  -18.0361   16.8927 C   0  0  0  0  0  0  0  0  0  0  0  0
   -1.2743  -13.0757   16.4809 C   0  0  0  0  0  0  0  0  0  0  0  0
    2.6203  -15.2574   15.0923 C   0  0  0  0  0  0  0  0  0  0  0  0
    2.4783  -16.8551    8.1882 C   0  0  0  0  0  0  0  0  0  0  0  0
  1  2  1  0
  1  6  1  0
  1 16  1  6
  1 17  1  0
  2  3  1  0
  3  4  1  0
  4  5  1  0
  5  6  2  0
  5 18  1  0
  6  7  1  0
  7  8  2  0
  8  9  1  0
  9 10  2  0
  9 19  1  0
 10 11  1  0
 11 12  2  0
 12 13  1  0
 13 14  2  0
 13 20  1  0
 14 15  1  0
M  END
$$$$
