
     RDKit          3D

 20 20  0  0  0  0  0  0  0  0999 V2000
   -1.2046   -4.0137  -12.2599 C   0  0  2  0  0  0  0  0  0  0  0  0
   -1.6026   -3.4895  -13.5953 C   0  0  0  0  0  0  0  0  0  0  0  0
   -1.6428   -1.9954  -13.6848 C   0  0  0  0  0  0  0  0  0  0  0  0
   -1.2282   -1.3133  -12.4386 C   0  0  0  0  0  0  0  0  0  0  0  0
    0.0054   -2.0269  -11.8845 C   0  0  0  0  0  0  0  0  0  0  0  0
    0.0877   -3.3105  -11.7583 C   0  0  0  0  0  0  0  0  0  0  0  0
    1.0553   -4.1037  -11.1092 C   0  0  0  0  0  0  0  0  0  0  0  0
    1.6770   -4.4678  -10.0870 C   0  0  0  0  0  0  0  0  0  0  0  0
    2.5359   -5.4209   -9.5309 C   0  0  0  0  0  0  0  0  0  0  0  0
    3.2015   -5.0512   -8.3935 C   0  0  0  0  0  0  0  0  0  0  0  0
    2.5645   -4.5493   -7.2240 C   0  0  0  0  0  0  0  0  0  0  0  0
    3.0411   -4.4836   -6.0175 C   0  0  0  0  0  0  0  0  0  0  0  0
    2.5641   -3.9309   -4.8019 C   0  0  0  0  0  0  0  0  0  0  0  0
    3.4726   -3.4362   -3.9246 C   0  0  0  0  0  0  0  0  0  0  0  0
    2.9963   -2.8430   -2.6595 C   0  0  0  0  0  0  0  0  0  0  0  0
   -0.9678   -5.4945  -12.4473 C   0  0  0  0  0  0  0  0  0  0  0  0
   -2.2261   -3.7948  -11.1764 C   0  0  0  0  0  0  0  0  0  0  0  0
    1.2136   -1.1965  -11.6410 C   0  0  0  0  0  0  0  0  0  0  0  0
    2.9459   -6.7048  -10.0800 C   0  0  0  0  0  0  0  0  0  0  0  0
    1.1631   -3.8336   -4.3814 C   0  0  0  0  0  0  0  0  0  0  0  0
  1  2  1  0
  1  6  1  1
 16  1  1  6
 17  1  1  6
  2  3  1  6
  3  4  1  6
  4  5  1  6
  5  6  2  0
 18  5  1  6
  6  7  1  0
  7  8  2  0
  8  9  1  0
  9 10  2  0
 19  9  1  6
 10 11  1  0
 11 12  2  0
 12 13  1  0
 13 14  2  0
 20 13  1  6
 15 14  1  6
M  END
$$$$
