
     RDKit          3D

 20 20  0  0  0  0  0  0  0  0999 V2000
    1.7447   -6.5546   -6.9848 C   0  0  2  0  0  0  0  0  0  0  0  0
    1.5150   -8.0218   -6.8781 C   0  0  0  0  0  0  0  0  0  0  0  0
    0.2863   -8.5068   -7.5828 C   0  0  0  0  0  0  0  0  0  0  0  0
   -0.4479   -7.4411   -8.3007 C   0  0  0  0  0  0  0  0  0  0  0  0
    0.5685   -6.5589   -9.0266 C   0  0  0  0  0  0  0  0  0  0  0  0
    1.6324   -6.0887   -8.4634 C   0  0  0  0  0  0  0  0  0  0  0  0
    2.5595   -5.1302   -8.9204 C   0  0  0  0  0  0  0  0  0  0  0  0
    2.8786   -4.1647   -9.6482 C   0  0  0  0  0  0  0  0  0  0  0  0
    3.3383   -2.8446   -9.6869 C   0  0  0  0  0  0  0  0  0  0  0  0
    2.5091   -1.9277  -10.2742 C   0  0  0  0  0  0  0  0  0  0  0  0
    2.9610   -0.7471  -10.9279 C   0  0  0  0  0  0  0  0  0  0  0  0
    2.3810   -0.0899  -11.8865 C   0  0  0  0  0  0  0  0  0  0  0  0
    2.7029    1.0909  -12.6025 C   0  0  0  0  0  0  0  0  0  0  0  0
    1.9293    1.4250  -13.6653 C   0  0  0  0  0  0  0  0  0  0  0  0
    2.2722    2.6275  -14.4501 C   0  0  0  0  0  0  0  0  0  0  0  0
    3.1383   -6.3114   -6.4531 C   0  0  0  0  0  0  0  0  0  0  0  0
    0.7555   -5.7136   -6.2235 C   0  0  0  0  0  0  0  0  0  0  0  0
    0.3870   -6.3842  -10.4912 C   0  0  0  0  0  0  0  0  0  0  0  0
    4.6513   -2.3291   -9.3287 C   0  0  0  0  0  0  0  0  0  0  0  0
    3.8064    2.0110  -12.3113 C   0  0  0  0  0  0  0  0  0  0  0  0
  1  2  1  0
  1  6  1  6
 16  1  1  6
 17  1  1  6
  2  3  1  6
  3  4  1  6
  4  5  1  6
  5  6  2  0
 18  5  1  6
  6  7  1  0
  7  8  2  0
  8  9  1  0
  9 10  2  0
 19  9  1  6
 10 11  1  0
 11 12  2  0
 12 13  1  0
 13 14  2  0
 20 13  1  6
 15 14  1  6
M  END
$$$$
