
     RDKit          3D

 20 20  0  0  0  0  0  0  0  0999 V2000
   -1.6010   -1.6568  -12.4818 C   0  0  2  0  0  0  0  0  0  0  0  0
   -3.0862   -1.7156  -12.5673 C   0  0  0  0  0  0  0  0  0  0  0  0
   -3.6141   -2.8863  -13.3372 C   0  0  0  0  0  0  0  0  0  0  0  0
   -2.5587   -3.7996  -13.8293 C   0  0  0  0  0  0  0  0  0  0  0  0
   -1.5343   -4.0010  -12.7120 C   0  0  0  0  0  0  0  0  0  0  0  0
   -1.0235   -3.0279  -12.0319 C   0  0  0  0  0  0  0  0  0  0  0  0
    0.0463   -3.0188  -11.1140 C   0  0  0  0  0  0  0  0  0  0  0  0
    0.9236   -3.5992  -10.4378 C   0  0  0  0  0  0  0  0  0  0  0  0
    2.2814   -3.6614  -10.1091 C   0  0  0  0  0  0  0  0  0  0  0  0
    2.6337   -4.5651   -9.1435 C   0  0  0  0  0  0  0  0  0  0  0  0
    2.4542   -4.3519   -7.7479 C   0  0  0  0  0  0  0  0  0  0  0  0
    2.8666   -5.0934   -6.7644 C   0  0  0  0  0  0  0  0  0  0  0  0
    2.8017   -4.9775   -5.3528 C   0  0  0  0  0  0  0  0  0  0  0  0
    3.8410   -5.4547   -4.6236 C   0  0  0  0  0  0  0  0  0  0  0  0
    3.8864   -5.1760   -3.1746 C   0  0  0  0  0  0  0  0  0  0  0  0
   -1.2844   -0.5849  -11.4646 C   0  0  0  0  0  0  0  0  0  0  0  0
   -0.9154   -1.3412  -13.7839 C   0  0  0  0  0  0  0  0  0  0  0  0
   -1.2531   -5.4001  -12.2975 C   0  0  0  0  0  0  0  0  0  0  0  0
    3.3612   -2.7857  -10.5394 C   0  0  0  0  0  0  0  0  0  0  0  0
    1.7078   -4.3835   -4.5783 C   0  0  0  0  0  0  0  0  0  0  0  0
  1  2  1  0
  1  6  1  1
 16  1  1  6
 17  1  1  6
  2  3  1  6
  3  4  1  6
  4  5  1  6
  5  6  2  0
 18  5  1  6
  6  7  1  0
  7  8  2  0
  8  9  1  0
  9 10  2  0
 19  9  1  6
 10 11  1  0
 11 12  2  0
 12 13  1  0
 13 14  2  0
 20 13  1  6
 15 14  1  6
M  END
$$$$
