
     RDKit          3D

 20 20  0  0  0  0  0  0  0  0999 V2000
    6.4009   -2.3008   -2.4553 C   0  0  2  0  0  0  0  0  0  0  0  0
    5.5461   -2.0007   -1.2294 C   0  0  0  0  0  0  0  0  0  0  0  0
    5.6066   -3.0714   -0.2085 C   0  0  0  0  0  0  0  0  0  0  0  0
    6.4323   -4.2380   -0.6238 C   0  0  0  0  0  0  0  0  0  0  0  0
    5.9839   -4.6416   -2.0153 C   0  0  0  0  0  0  0  0  0  0  0  0
    5.9715   -3.6846   -2.9244 C   0  0  0  0  0  0  0  0  0  0  0  0
    5.6111   -3.9198   -4.2759 C   0  0  0  0  0  0  0  0  0  0  0  0
    4.5112   -3.7310   -4.9322 C   0  0  0  0  0  0  0  0  0  0  0  0
    4.4842   -4.1923   -6.3380 C   0  0  0  0  0  0  0  0  0  0  0  0
    3.5451   -4.9232   -6.8145 C   0  0  0  0  0  0  0  0  0  0  0  0
    3.2990   -5.2391   -8.2396 C   0  0  0  0  0  0  0  0  0  0  0  0
    2.3525   -5.9948   -8.6095 C   0  0  0  0  0  0  0  0  0  0  0  0
    1.3325   -6.8096   -9.0079 C   0  0  0  0  0  0  0  0  0  0  0  0
    1.3544   -8.1396   -8.7388 C   0  0  0  0  0  0  0  0  0  0  0  0
    1.4385   -8.6607   -7.3760 C   0  0  0  0  0  0  0  0  0  0  0  0
    7.8696   -2.2244   -2.1907 C   0  0  0  0  0  0  0  0  0  0  0  0
    6.0308   -1.2513   -3.4612 C   0  0  0  0  0  0  0  0  0  0  0  0
    5.5952   -6.0555   -2.2270 C   0  0  0  0  0  0  0  0  0  0  0  0
    5.6209   -3.7838   -7.2409 C   0  0  0  0  0  0  0  0  0  0  0  0
    0.0829   -6.3565   -9.7748 C   0  0  0  0  0  0  0  0  0  0  0  0
  1  2  1  0
  1  6  1  0
  1 16  1  1
  1 17  1  0
  2  3  1  0
  3  4  1  0
  4  5  1  0
  5  6  2  0
  5 18  1  0
  6  7  1  0
  7  8  2  0
  8  9  1  0
  9 10  2  0
  9 19  1  0
 10 11  1  0
 11 12  2  0
 12 13  1  0
 13 14  2  0
 13 20  1  0
 14 15  1  0
M  END
$$$$
