
     RDKit          3D

 20 20  0  0  0  0  0  0  0  0999 V2000
   -2.1912   -3.0683  -12.8749 C   0  0  2  0  0  0  0  0  0  0  0  0
   -2.2082   -3.2567  -14.3516 C   0  0  0  0  0  0  0  0  0  0  0  0
   -2.0389   -1.9932  -15.1369 C   0  0  0  0  0  0  0  0  0  0  0  0
   -1.8342   -0.7927  -14.2959 C   0  0  0  0  0  0  0  0  0  0  0  0
   -0.8574   -1.1490  -13.1747 C   0  0  0  0  0  0  0  0  0  0  0  0
   -0.9678   -2.2107  -12.4461 C   0  0  0  0  0  0  0  0  0  0  0  0
   -0.2794   -2.5905  -11.2761 C   0  0  0  0  0  0  0  0  0  0  0  0
    0.0692   -3.4423  -10.4296 C   0  0  0  0  0  0  0  0  0  0  0  0
    1.1420   -4.0421   -9.7626 C   0  0  0  0  0  0  0  0  0  0  0  0
    1.2892   -3.7272   -8.4389 C   0  0  0  0  0  0  0  0  0  0  0  0
    2.2241   -4.3551   -7.5688 C   0  0  0  0  0  0  0  0  0  0  0  0
    2.7919   -3.8596   -6.5108 C   0  0  0  0  0  0  0  0  0  0  0  0
    3.6648   -4.3880   -5.5262 C   0  0  0  0  0  0  0  0  0  0  0  0
    3.9645   -3.6120   -4.4548 C   0  0  0  0  0  0  0  0  0  0  0  0
    3.3153   -3.8980   -3.1601 C   0  0  0  0  0  0  0  0  0  0  0  0
   -2.1063   -4.4545  -12.2790 C   0  0  0  0  0  0  0  0  0  0  0  0
   -3.3953   -2.3511  -12.3258 C   0  0  0  0  0  0  0  0  0  0  0  0
    0.3591   -0.3053  -13.0452 C   0  0  0  0  0  0  0  0  0  0  0  0
    2.2261   -4.8385  -10.3180 C   0  0  0  0  0  0  0  0  0  0  0  0
    4.2925   -5.7127   -5.5410 C   0  0  0  0  0  0  0  0  0  0  0  0
  1  2  1  0
  1  6  1  6
 16  1  1  6
 17  1  1  6
  2  3  1  6
  3  4  1  6
  4  5  1  6
  5  6  2  0
 18  5  1  6
  6  7  1  0
  7  8  2  0
  8  9  1  0
  9 10  2  0
 19  9  1  6
 10 11  1  0
 11 12  2  0
 12 13  1  0
 13 14  2  0
 20 13  1  6
 15 14  1  6
M  END
$$$$
