
     RDKit          3D

 20 20  0  0  0  0  0  0  0  0999 V2000
    0.5430  -13.2653   13.7084 C   0  0  2  0  0  0  0  0  0  0  0  0
    0.6372  -12.9112   15.1514 C   0  0  0  0  0  0  0  0  0  0  0  0
    0.5903  -14.0853   16.0793 C   0  0  0  0  0  0  0  0  0  0  0  0
    0.5100  -15.3897   15.3849 C   0  0  0  0  0  0  0  0  0  0  0  0
    1.4814  -15.3692   14.2041 C   0  0  0  0  0  0  0  0  0  0  0  0
    1.5484  -14.3969   13.3553 C   0  0  0  0  0  0  0  0  0  0  0  0
    2.2397  -14.3003   12.1307 C   0  0  0  0  0  0  0  0  0  0  0  0
    3.2790  -14.3920   11.4412 C   0  0  0  0  0  0  0  0  0  0  0  0
    4.1974  -15.2572   10.8383 C   0  0  0  0  0  0  0  0  0  0  0  0
    3.7812  -15.8885    9.6975 C   0  0  0  0  0  0  0  0  0  0  0  0
    4.6603  -16.3824    8.6931 C   0  0  0  0  0  0  0  0  0  0  0  0
    4.3542  -17.0165    7.6016 C   0  0  0  0  0  0  0  0  0  0  0  0
    4.9802  -18.0478    6.8566 C   0  0  0  0  0  0  0  0  0  0  0  0
    4.9290  -17.9800    5.5029 C   0  0  0  0  0  0  0  0  0  0  0  0
    5.6505  -18.9932    4.7078 C   0  0  0  0  0  0  0  0  0  0  0  0
    0.8724  -12.0021   12.9470 C   0  0  0  0  0  0  0  0  0  0  0  0
   -0.8054  -13.7799   13.2813 C   0  0  0  0  0  0  0  0  0  0  0  0
    2.4976  -16.4520   14.1465 C   0  0  0  0  0  0  0  0  0  0  0  0
    5.4875  -15.7058   11.3403 C   0  0  0  0  0  0  0  0  0  0  0  0
    5.6934  -19.2059    7.4037 C   0  0  0  0  0  0  0  0  0  0  0  0
  1  2  1  0
  1  6  1  6
 16  1  1  6
 17  1  1  6
  2  3  1  6
  3  4  1  6
  4  5  1  6
  5  6  2  0
 18  5  1  6
  6  7  1  0
  7  8  2  0
  8  9  1  0
  9 10  2  0
 19  9  1  6
 10 11  1  0
 11 12  2  0
 12 13  1  0
 13 14  2  0
 20 13  1  6
 15 14  1  6
M  END
$$$$
