
     RDKit          3D

 20 20  0  0  0  0  0  0  0  0999 V2000
   -3.0153  -16.7315   16.7292 C   0  0  2  0  0  0  0  0  0  0  0  0
   -4.3221  -16.0308   16.8627 C   0  0  0  0  0  0  0  0  0  0  0  0
   -4.5142  -15.3267   18.1700 C   0  0  0  0  0  0  0  0  0  0  0  0
   -3.3437  -15.4154   19.0713 C   0  0  0  0  0  0  0  0  0  0  0  0
   -2.0782  -15.1882   18.2435 C   0  0  0  0  0  0  0  0  0  0  0  0
   -1.8449  -15.7872   17.1223 C   0  0  0  0  0  0  0  0  0  0  0  0
   -0.6738  -15.8343   16.3391 C   0  0  0  0  0  0  0  0  0  0  0  0
   -0.0752  -15.7454   15.2447 C   0  0  0  0  0  0  0  0  0  0  0  0
    1.1221  -15.4157   14.6019 C   0  0  0  0  0  0  0  0  0  0  0  0
    1.0833  -15.3557   13.2351 C   0  0  0  0  0  0  0  0  0  0  0  0
    2.2357  -15.2335   12.4090 C   0  0  0  0  0  0  0  0  0  0  0  0
    2.3292  -15.4353   11.1293 C   0  0  0  0  0  0  0  0  0  0  0  0
    3.2251  -14.9845   10.1270 C   0  0  0  0  0  0  0  0  0  0  0  0
    3.0289  -15.4121    8.8548 C   0  0  0  0  0  0  0  0  0  0  0  0
    3.9403  -14.9417    7.7931 C   0  0  0  0  0  0  0  0  0  0  0  0
   -2.9075  -17.1393   15.2781 C   0  0  0  0  0  0  0  0  0  0  0  0
   -2.8663  -17.9424   17.6107 C   0  0  0  0  0  0  0  0  0  0  0  0
   -1.1666  -14.1018   18.6874 C   0  0  0  0  0  0  0  0  0  0  0  0
    2.4529  -15.2787   15.1748 C   0  0  0  0  0  0  0  0  0  0  0  0
    4.3664  -14.0852   10.3213 C   0  0  0  0  0  0  0  0  0  0  0  0
  1  2  1  0
  1  6  1  1
 16  1  1  6
 17  1  1  6
  2  3  1  6
  3  4  1  6
  4  5  1  6
  5  6  2  0
 18  5  1  6
  6  7  1  0
  7  8  2  0
  8  9  1  0
  9 10  2  0
 19  9  1  6
 10 11  1  0
 11 12  2  0
 12 13  1  0
 13 14  2  0
 20 13  1  6
 15 14  1  6
M  END
$$$$
