
     RDKit          3D

 20 20  0  0  0  0  0  0  0  0999 V2000
    3.8857  -14.4252   10.4230 C   0  0  2  0  0  0  0  0  0  0  0  0
    5.1977  -15.0883   10.8261 C   0  0  0  0  0  0  0  0  0  0  0  0
    5.5546  -16.2341    9.9589 C   0  0  0  0  0  0  0  0  0  0  0  0
    4.5275  -16.5349    8.9245 C   0  0  0  0  0  0  0  0  0  0  0  0
    3.1823  -16.5956    9.6222 C   0  0  0  0  0  0  0  0  0  0  0  0
    2.8610  -15.5502   10.3613 C   0  0  0  0  0  0  0  0  0  0  0  0
    1.6212  -15.4487   11.0427 C   0  0  0  0  0  0  0  0  0  0  0  0
    1.3042  -15.5252   12.2956 C   0  0  0  0  0  0  0  0  0  0  0  0
   -0.0937  -15.1958   12.6526 C   0  0  0  0  0  0  0  0  0  0  0  0
   -0.5681  -15.3539   13.8329 C   0  0  0  0  0  0  0  0  0  0  0  0
   -1.7281  -14.6525   14.4274 C   0  0  0  0  0  0  0  0  0  0  0  0
   -2.2819  -15.0491   15.4950 C   0  0  0  0  0  0  0  0  0  0  0  0
   -2.8784  -15.4770   16.6457 C   0  0  0  0  0  0  0  0  0  0  0  0
   -2.1393  -15.9322   17.6889 C   0  0  0  0  0  0  0  0  0  0  0  0
   -1.3907  -17.1860   17.6289 C   0  0  0  0  0  0  0  0  0  0  0  0
    3.9712  -13.6678    9.1377 C   0  0  0  0  0  0  0  0  0  0  0  0
    3.5695  -13.4679   11.5337 C   0  0  0  0  0  0  0  0  0  0  0  0
    2.3608  -17.8123    9.4223 C   0  0  0  0  0  0  0  0  0  0  0  0
   -0.9943  -14.6563   11.5700 C   0  0  0  0  0  0  0  0  0  0  0  0
   -4.3907  -15.4995   16.9057 C   0  0  0  0  0  0  0  0  0  0  0  0
  1  2  1  0
  1  6  1  0
  1 16  1  6
  1 17  1  0
  2  3  1  0
  3  4  1  0
  4  5  1  0
  5  6  2  0
  5 18  1  0
  6  7  1  0
  7  8  2  0
  8  9  1  0
  9 10  2  0
  9 19  1  0
 10 11  1  0
 11 12  2  0
 12 13  1  0
 13 14  2  0
 13 20  1  0
 14 15  1  0
M  END
$$$$
