
     RDKit          3D

 20 20  0  0  0  0  0  0  0  0999 V2000
    0.8706  -15.0433    9.5629 C   0  0  2  0  0  0  0  0  0  0  0  0
    1.6456  -14.1263    8.6238 C   0  0  0  0  0  0  0  0  0  0  0  0
    2.9090  -14.7296    8.1419 C   0  0  0  0  0  0  0  0  0  0  0  0
    3.1849  -16.0699    8.7273 C   0  0  0  0  0  0  0  0  0  0  0  0
    3.0080  -15.9564   10.2293 C   0  0  0  0  0  0  0  0  0  0  0  0
    1.8612  -15.4521   10.6449 C   0  0  0  0  0  0  0  0  0  0  0  0
    1.5388  -15.3194   12.0199 C   0  0  0  0  0  0  0  0  0  0  0  0
    0.8355  -16.0480   12.8265 C   0  0  0  0  0  0  0  0  0  0  0  0
    0.6493  -15.5335   14.2015 C   0  0  0  0  0  0  0  0  0  0  0  0
   -0.4951  -15.4771   14.7762 C   0  0  0  0  0  0  0  0  0  0  0  0
   -0.7727  -15.0539   16.1672 C   0  0  0  0  0  0  0  0  0  0  0  0
   -1.9357  -15.0976   16.6665 C   0  0  0  0  0  0  0  0  0  0  0  0
   -3.1892  -15.1451   17.2046 C   0  0  0  0  0  0  0  0  0  0  0  0
   -3.9502  -14.0258   17.3040 C   0  0  0  0  0  0  0  0  0  0  0  0
   -4.7714  -13.7401   18.4787 C   0  0  0  0  0  0  0  0  0  0  0  0
    0.2644  -16.2242    8.8766 C   0  0  0  0  0  0  0  0  0  0  0  0
   -0.2266  -14.1918   10.1298 C   0  0  0  0  0  0  0  0  0  0  0  0
    4.1283  -16.4079   11.0874 C   0  0  0  0  0  0  0  0  0  0  0  0
    1.8664  -15.0503   14.9493 C   0  0  0  0  0  0  0  0  0  0  0  0
   -3.8764  -16.4074   17.7425 C   0  0  0  0  0  0  0  0  0  0  0  0
  1  2  1  0
  1  6  1  0
  1 16  1  6
  1 17  1  0
  2  3  1  0
  3  4  1  0
  4  5  1  0
  5  6  2  0
  5 18  1  0
  6  7  1  0
  7  8  2  0
  8  9  1  0
  9 10  2  0
  9 19  1  0
 10 11  1  0
 11 12  2  0
 12 13  1  0
 13 14  2  0
 13 20  1  0
 14 15  1  0
M  END
$$$$
