
     RDKit          3D

 20 20  0  0  0  0  0  0  0  0999 V2000
   -0.3625   -0.9637  -11.9634 C   0  0  2  0  0  0  0  0  0  0  0  0
   -1.6845   -0.4151  -12.3734 C   0  0  0  0  0  0  0  0  0  0  0  0
   -2.1993   -0.9523  -13.6727 C   0  0  0  0  0  0  0  0  0  0  0  0
   -1.3188   -1.9714  -14.2861 C   0  0  0  0  0  0  0  0  0  0  0  0
   -0.8392   -2.9202  -13.1870 C   0  0  0  0  0  0  0  0  0  0  0  0
   -0.3604   -2.5152  -12.0570 C   0  0  0  0  0  0  0  0  0  0  0  0
    0.2849   -3.2326  -11.0294 C   0  0  0  0  0  0  0  0  0  0  0  0
    0.3678   -4.2062  -10.2490 C   0  0  0  0  0  0  0  0  0  0  0  0
    1.2253   -5.0696   -9.5599 C   0  0  0  0  0  0  0  0  0  0  0  0
    1.8170   -4.5685   -8.4321 C   0  0  0  0  0  0  0  0  0  0  0  0
    2.5388   -5.3569   -7.4925 C   0  0  0  0  0  0  0  0  0  0  0  0
    3.5380   -4.9972   -6.7445 C   0  0  0  0  0  0  0  0  0  0  0  0
    3.6746   -4.6994   -5.3650 C   0  0  0  0  0  0  0  0  0  0  0  0
    4.9253   -4.5295   -4.8685 C   0  0  0  0  0  0  0  0  0  0  0  0
    5.0918   -4.2511   -3.4283 C   0  0  0  0  0  0  0  0  0  0  0  0
   -0.1498   -0.5150  -10.5361 C   0  0  0  0  0  0  0  0  0  0  0  0
    0.7909   -0.5093  -12.8170 C   0  0  0  0  0  0  0  0  0  0  0  0
   -1.0987   -4.3700  -13.3856 C   0  0  0  0  0  0  0  0  0  0  0  0
    1.7041   -6.3844   -9.9598 C   0  0  0  0  0  0  0  0  0  0  0  0
    2.5853   -4.5515   -4.3951 C   0  0  0  0  0  0  0  0  0  0  0  0
  1  2  1  0
  1  6  1  1
 16  1  1  6
 17  1  1  6
  2  3  1  6
  3  4  1  6
  4  5  1  6
  5  6  2  0
 18  5  1  6
  6  7  1  0
  7  8  2  0
  8  9  1  0
  9 10  2  0
 19  9  1  6
 10 11  1  0
 11 12  2  0
 12 13  1  0
 13 14  2  0
 20 13  1  6
 15 14  1  6
M  END
$$$$
