
     RDKit          3D

 20 20  0  0  0  0  0  0  0  0999 V2000
   -0.5970   -1.2211  -12.2331 C   0  0  2  0  0  0  0  0  0  0  0  0
   -1.9964   -0.8660  -12.5967 C   0  0  0  0  0  0  0  0  0  0  0  0
   -2.5880   -1.7170  -13.6772 C   0  0  0  0  0  0  0  0  0  0  0  0
   -1.6860   -2.7908  -14.1501 C   0  0  0  0  0  0  0  0  0  0  0  0
   -1.0178   -3.4314  -12.9330 C   0  0  0  0  0  0  0  0  0  0  0  0
   -0.4670   -2.7497  -11.9832 C   0  0  0  0  0  0  0  0  0  0  0  0
    0.3379   -3.1712  -10.9055 C   0  0  0  0  0  0  0  0  0  0  0  0
    1.2456   -3.8806  -10.4190 C   0  0  0  0  0  0  0  0  0  0  0  0
    2.4155   -3.9018   -9.6532 C   0  0  0  0  0  0  0  0  0  0  0  0
    2.2698   -4.2049   -8.3266 C   0  0  0  0  0  0  0  0  0  0  0  0
    3.3567   -4.4276   -7.4352 C   0  0  0  0  0  0  0  0  0  0  0  0
    3.3101   -4.8073   -6.1939 C   0  0  0  0  0  0  0  0  0  0  0  0
    4.2939   -5.0288   -5.1971 C   0  0  0  0  0  0  0  0  0  0  0  0
    3.9131   -5.6397   -4.0476 C   0  0  0  0  0  0  0  0  0  0  0  0
    4.9510   -6.1007   -3.1043 C   0  0  0  0  0  0  0  0  0  0  0  0
   -0.2842   -0.4462  -10.9739 C   0  0  0  0  0  0  0  0  0  0  0  0
    0.4214   -0.9007  -13.2940 C   0  0  0  0  0  0  0  0  0  0  0  0
   -1.1665   -4.9018  -12.7767 C   0  0  0  0  0  0  0  0  0  0  0  0
    3.7586   -3.4913  -10.0349 C   0  0  0  0  0  0  0  0  0  0  0  0
    5.7107   -4.6608   -5.2766 C   0  0  0  0  0  0  0  0  0  0  0  0
  1  2  1  0
  1  6  1  1
 16  1  1  6
 17  1  1  6
  2  3  1  6
  3  4  1  6
  4  5  1  6
  5  6  2  0
 18  5  1  6
  6  7  1  0
  7  8  2  0
  8  9  1  0
  9 10  2  0
 19  9  1  6
 10 11  1  0
 11 12  2  0
 12 13  1  0
 13 14  2  0
 20 13  1  6
 15 14  1  6
M  END
$$$$
