
     RDKit          3D

 20 20  0  0  0  0  0  0  0  0999 V2000
    2.3980   -4.3390   -5.0454 C   0  0  2  0  0  0  0  0  0  0  0  0
    2.8378   -3.2084   -4.1823 C   0  0  0  0  0  0  0  0  0  0  0  0
    4.3208   -3.1114   -4.0006 C   0  0  0  0  0  0  0  0  0  0  0  0
    5.0810   -4.1311   -4.7571 C   0  0  0  0  0  0  0  0  0  0  0  0
    4.4743   -4.2469   -6.1560 C   0  0  0  0  0  0  0  0  0  0  0  0
    3.2054   -4.3605   -6.3735 C   0  0  0  0  0  0  0  0  0  0  0  0
    2.5058   -4.6573   -7.5607 C   0  0  0  0  0  0  0  0  0  0  0  0
    2.1984   -4.4164   -8.7487 C   0  0  0  0  0  0  0  0  0  0  0  0
    1.3968   -4.7802   -9.8351 C   0  0  0  0  0  0  0  0  0  0  0  0
    0.4203   -3.8917  -10.1963 C   0  0  0  0  0  0  0  0  0  0  0  0
   -0.4455   -4.0680  -11.3120 C   0  0  0  0  0  0  0  0  0  0  0  0
   -1.4241   -3.3047  -11.6952 C   0  0  0  0  0  0  0  0  0  0  0  0
   -2.5126   -3.4771  -12.5873 C   0  0  0  0  0  0  0  0  0  0  0  0
   -3.5461   -2.6020  -12.5114 C   0  0  0  0  0  0  0  0  0  0  0  0
   -4.6824   -2.7541  -13.4415 C   0  0  0  0  0  0  0  0  0  0  0  0
    0.9294   -4.1087   -5.3175 C   0  0  0  0  0  0  0  0  0  0  0  0
    2.5951   -5.7005   -4.4347 C   0  0  0  0  0  0  0  0  0  0  0  0
    5.3919   -4.0520   -7.3085 C   0  0  0  0  0  0  0  0  0  0  0  0
    1.3505   -6.0498  -10.5450 C   0  0  0  0  0  0  0  0  0  0  0  0
   -2.6448   -4.5226  -13.6064 C   0  0  0  0  0  0  0  0  0  0  0  0
  1  2  1  0
  1  6  1  6
 16  1  1  6
 17  1  1  6
  2  3  1  6
  3  4  1  6
  4  5  1  6
  5  6  2  0
 18  5  1  6
  6  7  1  0
  7  8  2  0
  8  9  1  0
  9 10  2  0
 19  9  1  6
 10 11  1  0
 11 12  2  0
 12 13  1  0
 13 14  2  0
 20 13  1  6
 15 14  1  6
M  END
$$$$
