
     RDKit          3D

 20 20  0  0  0  0  0  0  0  0999 V2000
   -2.7249  -15.1807   17.1651 C   0  0  2  0  0  0  0  0  0  0  0  0
   -3.3025  -15.0537   18.5314 C   0  0  0  0  0  0  0  0  0  0  0  0
   -3.5957  -16.3602   19.2013 C   0  0  0  0  0  0  0  0  0  0  0  0
   -3.2081  -17.5411   18.3980 C   0  0  0  0  0  0  0  0  0  0  0  0
   -1.8356  -17.2748   17.7787 C   0  0  0  0  0  0  0  0  0  0  0  0
   -1.5330  -16.1785   17.1649 C   0  0  0  0  0  0  0  0  0  0  0  0
   -0.4019  -15.8476   16.3916 C   0  0  0  0  0  0  0  0  0  0  0  0
    0.1368  -15.5085   15.3152 C   0  0  0  0  0  0  0  0  0  0  0  0
    1.3421  -15.2961   14.6387 C   0  0  0  0  0  0  0  0  0  0  0  0
    1.2672  -15.2032   13.2753 C   0  0  0  0  0  0  0  0  0  0  0  0
    2.0314  -14.2909   12.4948 C   0  0  0  0  0  0  0  0  0  0  0  0
    2.7778  -14.5485   11.4634 C   0  0  0  0  0  0  0  0  0  0  0  0
    2.5092  -14.7861   10.0916 C   0  0  0  0  0  0  0  0  0  0  0  0
    3.4428  -14.4092    9.1827 C   0  0  0  0  0  0  0  0  0  0  0  0
    3.2169  -14.7147    7.7561 C   0  0  0  0  0  0  0  0  0  0  0  0
   -2.2611  -13.7954   16.7784 C   0  0  0  0  0  0  0  0  0  0  0  0
   -3.6850  -15.7033   16.1304 C   0  0  0  0  0  0  0  0  0  0  0  0
   -0.7666  -18.2704   18.0517 C   0  0  0  0  0  0  0  0  0  0  0  0
    2.6972  -15.3155   15.1691 C   0  0  0  0  0  0  0  0  0  0  0  0
    1.3041  -15.4098    9.5366 C   0  0  0  0  0  0  0  0  0  0  0  0
  1  2  1  0
  1  6  1  1
 16  1  1  6
 17  1  1  6
  2  3  1  6
  3  4  1  6
  4  5  1  6
  5  6  2  0
 18  5  1  6
  6  7  1  0
  7  8  2  0
  8  9  1  0
  9 10  2  0
 19  9  1  6
 10 11  1  0
 11 12  2  0
 12 13  1  0
 13 14  2  0
 20 13  1  6
 15 14  1  6
M  END
$$$$
