
     RDKit          3D

 36 36  0  0  0  0  0  0  0  0999 V2000
  -14.6756   24.6740  -85.8105 C   0  0  2  0  0  0  0  0  0  0  0  0
  -13.1947   24.3701  -85.7055 C   0  0  2  0  0  0  0  0  0  0  0  0
  -12.6861   24.4222  -87.1250 C   0  0  1  0  0  0  0  0  0  0  0  0
  -13.2189   23.1274  -87.7335 C   0  0  2  0  0  0  0  0  0  0  0  0
  -14.7085   23.2033  -87.8720 C   0  0  1  0  0  0  0  0  0  0  0  0
  -15.4246   23.6853  -86.6439 C   0  0  2  0  0  0  0  0  0  0  0  0
  -14.7781   25.9840  -86.2771 O   0  0  0  0  0  0  0  0  0  0  0  0
  -15.9326   26.8740  -85.4174 P   0  0  2  0  0  5  0  0  0  0  0  0
  -16.5175   28.0929  -86.4392 O   0  0  0  0  0  0  0  0  0  0  0  0
  -15.3800   27.4263  -84.1399 O   0  0  0  0  0  0  0  0  0  0  0  0
  -17.2552   25.8609  -85.0685 O   0  0  0  0  0  0  0  0  0  0  0  0
  -12.9588   23.2066  -85.0578 O   0  0  0  0  0  0  0  0  0  0  0  0
  -12.2043   23.3037  -83.5877 P   0  0  1  0  0  5  0  0  0  0  0  0
  -11.3357   24.7262  -83.3556 O   0  0  0  0  0  0  0  0  0  0  0  0
  -13.3114   23.1131  -82.3052 O   0  0  0  0  0  0  0  0  0  0  0  0
  -11.2176   22.1550  -83.4771 O   0  0  0  0  0  0  0  0  0  0  0  0
  -13.0174   25.5330  -87.8128 O   0  0  0  0  0  0  0  0  0  0  0  0
  -11.8184   26.7034  -87.9066 P   0  0  2  0  0  5  0  0  0  0  0  0
  -12.1948   27.8786  -87.0332 O   0  0  0  0  0  0  0  0  0  0  0  0
  -11.8066   27.2701  -89.5140 O   0  0  0  0  0  0  0  0  0  0  0  0
  -10.3178   26.0749  -87.5342 O   0  0  0  0  0  0  0  0  0  0  0  0
  -12.7402   22.0301  -87.0936 O   0  0  0  0  0  0  0  0  0  0  0  0
  -11.9680   20.9084  -88.0519 P   0  0  2  0  0  5  0  0  0  0  0  0
  -10.4862   21.2305  -88.0558 O   0  0  0  0  0  0  0  0  0  0  0  0
  -12.5079   21.1243  -89.6619 O   0  0  0  0  0  0  0  0  0  0  0  0
  -12.2464   19.3295  -87.6160 O   0  0  0  0  0  0  0  0  0  0  0  0
  -15.1400   23.9736  -88.9253 O   0  0  0  0  0  0  0  0  0  0  0  0
  -15.8102   23.2309  -90.2093 P   0  0  1  0  0  5  0  0  0  0  0  0
  -17.2995   23.0266  -90.1523 O   0  0  0  0  0  0  0  0  0  0  0  0
  -15.5123   24.1645  -91.6011 O   0  0  0  0  0  0  0  0  0  0  0  0
  -15.0050   21.7433  -90.4773 O   0  0  0  0  0  0  0  0  0  0  0  0
  -16.6409   24.2981  -86.9568 O   0  0  0  0  0  0  0  0  0  0  0  0
  -17.9582   23.2879  -86.7323 P   0  0  2  0  0  5  0  0  0  0  0  0
  -18.5114   23.3284  -85.1420 O   0  0  0  0  0  0  0  0  0  0  0  0
  -17.6332   21.9099  -87.2104 O   0  0  0  0  0  0  0  0  0  0  0  0
  -19.2151   23.8752  -87.7349 O   0  0  0  0  0  0  0  0  0  0  0  0
  1  2  1  0
  1  6  1  0
  1  7  1  6
  2  3  1  0
  2 12  1  6
  3  4  1  0
  3 17  1  6
  4  5  1  0
  4 22  1  1
  5  6  1  0
  5 27  1  6
  6 32  1  6
  7  8  1  0
  8  9  1  6
  8 10  2  0
  8 11  1  0
 12 13  1  0
 13 14  1  1
 13 15  1  0
 13 16  2  0
 17 18  1  0
 18 19  2  0
 18 20  1  6
 18 21  1  0
 22 23  1  0
 23 24  2  0
 23 25  1  6
 23 26  1  0
 27 28  1  0
 28 29  2  0
 28 30  1  6
 28 31  1  0
 32 33  1  0
 33 34  1  1
 33 35  2  0
 33 36  1  0
M  END
$$$$
