
     RDKit          3D

 36 36  0  0  0  0  0  0  0  0999 V2000
    8.6803  -21.7460  -77.6734 C   0  0  2  0  0  0  0  0  0  0  0  0
    9.7676  -20.6937  -77.5900 C   0  0  2  0  0  0  0  0  0  0  0  0
    9.2839  -19.5654  -78.4671 C   0  0  1  0  0  0  0  0  0  0  0  0
    9.4940  -20.1071  -79.8788 C   0  0  2  0  0  0  0  0  0  0  0  0
    8.5302  -21.2221  -80.1467 C   0  0  1  0  0  0  0  0  0  0  0  0
    8.4553  -22.2552  -79.0602 C   0  0  2  0  0  0  0  0  0  0  0  0
    7.5417  -21.1844  -77.0967 O   0  0  0  0  0  0  0  0  0  0  0  0
    7.1204  -21.9529  -75.6489 P   0  0  2  0  0  5  0  0  0  0  0  0
    7.2515  -23.6252  -75.8894 O   0  0  0  0  0  0  0  0  0  0  0  0
    5.7552  -21.5563  -75.1783 O   0  0  0  0  0  0  0  0  0  0  0  0
    8.2676  -21.5450  -74.4595 O   0  0  0  0  0  0  0  0  0  0  0  0
   10.9821  -21.1900  -77.9176 O   0  0  0  0  0  0  0  0  0  0  0  0
   12.2281  -20.8805  -76.8728 P   0  0  1  0  0  5  0  0  0  0  0  0
   12.9094  -22.2597  -76.1907 O   0  0  0  0  0  0  0  0  0  0  0  0
   13.4568  -19.9660  -77.6217 O   0  0  0  0  0  0  0  0  0  0  0  0
   11.6979  -20.0326  -75.7303 O   0  0  0  0  0  0  0  0  0  0  0  0
    8.0282  -19.1433  -78.2186 O   0  0  0  0  0  0  0  0  0  0  0  0
    7.9104  -17.7238  -77.3312 P   0  0  2  0  0  5  0  0  0  0  0  0
    8.9062  -16.7170  -77.8605 O   0  0  0  0  0  0  0  0  0  0  0  0
    8.3884  -18.0966  -75.7382 O   0  0  0  0  0  0  0  0  0  0  0  0
    6.3470  -17.1398  -77.3136 O   0  0  0  0  0  0  0  0  0  0  0  0
   10.7996  -20.3818  -80.1290 O   0  0  0  0  0  0  0  0  0  0  0  0
   11.3514  -19.9719  -81.6457 P   0  0  2  0  0  5  0  0  0  0  0  0
   10.1486  -19.7463  -82.5411 O   0  0  0  0  0  0  0  0  0  0  0  0
   12.1811  -21.3227  -82.2915 O   0  0  0  0  0  0  0  0  0  0  0  0
   12.3807  -18.6679  -81.6693 O   0  0  0  0  0  0  0  0  0  0  0  0
    7.2455  -20.8089  -80.4068 O   0  0  0  0  0  0  0  0  0  0  0  0
    6.5640  -21.2314  -81.8233 P   0  0  1  0  0  5  0  0  0  0  0  0
    7.4021  -22.0903  -82.7305 O   0  0  0  0  0  0  0  0  0  0  0  0
    5.1456  -22.1179  -81.5075 O   0  0  0  0  0  0  0  0  0  0  0  0
    6.0457  -19.8169  -82.6378 O   0  0  0  0  0  0  0  0  0  0  0  0
    7.2122  -22.8929  -79.0324 O   0  0  0  0  0  0  0  0  0  0  0  0
    7.3087  -24.5281  -79.3831 P   0  0  2  0  0  5  0  0  0  0  0  0
    8.4238  -24.8388  -80.6065 O   0  0  0  0  0  0  0  0  0  0  0  0
    5.9465  -25.0702  -79.6729 O   0  0  0  0  0  0  0  0  0  0  0  0
    7.8610  -25.3118  -77.9652 O   0  0  0  0  0  0  0  0  0  0  0  0
  1  2  1  0
  1  6  1  0
  1  7  1  6
  2  3  1  0
  2 12  1  6
  3  4  1  0
  3 17  1  1
  4  5  1  0
  4 22  1  1
  5  6  1  0
  5 27  1  1
  6 32  1  1
  7  8  1  0
  8  9  1  6
  8 10  2  0
  8 11  1  0
 12 13  1  0
 13 14  1  1
 13 15  1  0
 13 16  2  0
 17 18  1  0
 18 19  2  0
 18 20  1  1
 18 21  1  0
 22 23  1  0
 23 24  2  0
 23 25  1  6
 23 26  1  0
 27 28  1  0
 28 29  2  0
 28 30  1  1
 28 31  1  0
 32 33  1  0
 33 34  1  6
 33 35  2  0
 33 36  1  0
M  END
$$$$
