
     RDKit          3D

 36 36  0  0  0  0  0  0  0  0999 V2000
   -8.7713   25.1171  -86.1757 C   0  0  2  0  0  0  0  0  0  0  0  0
   -7.3791   24.5203  -86.2177 C   0  0  2  0  0  0  0  0  0  0  0  0
   -6.4516   25.7058  -86.3210 C   0  0  1  0  0  0  0  0  0  0  0  0
   -6.6295   26.1623  -87.7669 C   0  0  2  0  0  0  0  0  0  0  0  0
   -7.9965   26.7456  -87.9537 C   0  0  1  0  0  0  0  0  0  0  0  0
   -9.1118   25.9103  -87.3954 C   0  0  2  0  0  0  0  0  0  0  0  0
   -8.8501   25.8539  -84.9945 O   0  0  0  0  0  0  0  0  0  0  0  0
  -10.2235   25.4552  -84.0896 P   0  0  2  0  0  5  0  0  0  0  0  0
  -11.5502   25.4218  -85.1434 O   0  0  0  0  0  0  0  0  0  0  0  0
  -10.4360   26.3974  -82.9452 O   0  0  0  0  0  0  0  0  0  0  0  0
  -10.0430   23.8721  -83.4907 O   0  0  0  0  0  0  0  0  0  0  0  0
   -7.2472   23.6056  -87.2051 O   0  0  0  0  0  0  0  0  0  0  0  0
   -7.3905   22.0126  -86.7787 P   0  0  1  0  0  5  0  0  0  0  0  0
   -7.2081   20.9403  -88.0627 O   0  0  0  0  0  0  0  0  0  0  0  0
   -6.2888   21.5960  -85.5461 O   0  0  0  0  0  0  0  0  0  0  0  0
   -8.7791   21.7914  -86.2060 O   0  0  0  0  0  0  0  0  0  0  0  0
   -6.6552   26.6750  -85.4068 O   0  0  0  0  0  0  0  0  0  0  0  0
   -5.3372   27.0290  -84.4302 P   0  0  2  0  0  5  0  0  0  0  0  0
   -5.5924   26.5072  -83.0344 O   0  0  0  0  0  0  0  0  0  0  0  0
   -5.2526   28.7272  -84.3118 O   0  0  0  0  0  0  0  0  0  0  0  0
   -3.9153   26.4520  -85.0868 O   0  0  0  0  0  0  0  0  0  0  0  0
   -6.2730   25.1971  -88.6524 O   0  0  0  0  0  0  0  0  0  0  0  0
   -5.2042   25.6605  -89.8423 P   0  0  2  0  0  5  0  0  0  0  0  0
   -3.7998   25.5687  -89.2778 O   0  0  0  0  0  0  0  0  0  0  0  0
   -5.4747   27.3161  -90.1831 O   0  0  0  0  0  0  0  0  0  0  0  0
   -5.3473   24.8063  -91.2601 O   0  0  0  0  0  0  0  0  0  0  0  0
   -8.1437   28.0148  -87.4474 O   0  0  0  0  0  0  0  0  0  0  0  0
   -9.4972   28.8442  -87.8077 P   0  0  1  0  0  5  0  0  0  0  0  0
  -10.5229   28.9445  -86.7119 O   0  0  0  0  0  0  0  0  0  0  0  0
   -9.0715   30.4432  -88.2069 O   0  0  0  0  0  0  0  0  0  0  0  0
  -10.1922   28.1890  -89.2292 O   0  0  0  0  0  0  0  0  0  0  0  0
  -10.2194   26.6871  -87.0450 O   0  0  0  0  0  0  0  0  0  0  0  0
  -11.5778   25.7698  -86.6996 P   0  0  2  0  0  5  0  0  0  0  0  0
  -11.4121   24.1825  -87.2380 O   0  0  0  0  0  0  0  0  0  0  0  0
  -12.8007   26.4483  -87.2264 O   0  0  0  0  0  0  0  0  0  0  0  0
  -11.7320   25.7270  -84.9953 O   0  0  0  0  0  0  0  0  0  0  0  0
  1  2  1  0
  1  6  1  0
  1  7  1  1
  2  3  1  0
  2 12  1  6
  3  4  1  0
  3 17  1  1
  4  5  1  0
  4 22  1  6
  5  6  1  0
  5 27  1  1
  6 32  1  1
  7  8  1  0
  8  9  1  6
  8 10  2  0
  8 11  1  0
 12 13  1  0
 13 14  1  6
 13 15  1  0
 13 16  2  0
 17 18  1  0
 18 19  2  0
 18 20  1  1
 18 21  1  0
 22 23  1  0
 23 24  2  0
 23 25  1  6
 23 26  1  0
 27 28  1  0
 28 29  2  0
 28 30  1  6
 28 31  1  0
 32 33  1  0
 33 34  1  6
 33 35  2  0
 33 36  1  0
M  END
$$$$
