
     RDKit          3D

 36 36  0  0  0  0  0  0  0  0999 V2000
    7.8993  -21.9589  -78.3806 C   0  0  2  0  0  0  0  0  0  0  0  0
    9.0144  -22.6262  -77.6011 C   0  0  2  0  0  0  0  0  0  0  0  0
   10.0533  -21.5488  -77.4104 C   0  0  1  0  0  0  0  0  0  0  0  0
   10.6839  -21.4242  -78.7951 C   0  0  2  0  0  0  0  0  0  0  0  0
    9.7004  -20.8235  -79.7520 C   0  0  1  0  0  0  0  0  0  0  0  0
    8.3351  -21.4464  -79.7149 C   0  0  2  0  0  0  0  0  0  0  0  0
    7.3739  -20.9694  -77.5505 O   0  0  0  0  0  0  0  0  0  0  0  0
    5.6986  -21.1219  -77.3651 P   0  0  2  0  0  5  0  0  0  0  0  0
    5.2372  -20.1997  -76.0204 O   0  0  0  0  0  0  0  0  0  0  0  0
    5.2746  -22.5526  -77.2400 O   0  0  0  0  0  0  0  0  0  0  0  0
    4.9333  -20.4228  -78.7153 O   0  0  0  0  0  0  0  0  0  0  0  0
    9.4612  -23.7474  -78.2110 O   0  0  0  0  0  0  0  0  0  0  0  0
    8.6929  -25.1648  -77.8360 P   0  0  1  0  0  5  0  0  0  0  0  0
    9.6497  -26.5354  -78.0303 O   0  0  0  0  0  0  0  0  0  0  0  0
    8.0768  -25.1380  -76.2464 O   0  0  0  0  0  0  0  0  0  0  0  0
    7.4963  -25.3213  -78.7574 O   0  0  0  0  0  0  0  0  0  0  0  0
    9.5897  -20.3871  -76.9081 O   0  0  0  0  0  0  0  0  0  0  0  0
    9.6908  -20.2354  -75.2398 P   0  0  2  0  0  5  0  0  0  0  0  0
    9.0680  -18.9244  -74.8166 O   0  0  0  0  0  0  0  0  0  0  0  0
   11.3478  -20.1397  -74.8524 O   0  0  0  0  0  0  0  0  0  0  0  0
    9.0195  -21.5512  -74.4629 O   0  0  0  0  0  0  0  0  0  0  0  0
   11.2650  -22.5838  -79.1955 O   0  0  0  0  0  0  0  0  0  0  0  0
   12.8788  -22.4888  -79.5945 P   0  0  2  0  0  5  0  0  0  0  0  0
   13.5668  -21.6039  -78.5732 O   0  0  0  0  0  0  0  0  0  0  0  0
   13.0074  -21.6753  -81.0951 O   0  0  0  0  0  0  0  0  0  0  0  0
   13.6366  -23.9610  -79.7330 O   0  0  0  0  0  0  0  0  0  0  0  0
    9.5341  -19.4662  -79.6143 O   0  0  0  0  0  0  0  0  0  0  0  0
    9.4157  -18.5563  -80.9587 P   0  0  1  0  0  5  0  0  0  0  0  0
   10.6493  -18.4798  -81.8164 O   0  0  0  0  0  0  0  0  0  0  0  0
    8.1883  -19.1967  -81.9490 O   0  0  0  0  0  0  0  0  0  0  0  0
    8.8809  -16.9878  -80.5265 O   0  0  0  0  0  0  0  0  0  0  0  0
    7.3422  -20.5498  -80.1189 O   0  0  0  0  0  0  0  0  0  0  0  0
    6.5250  -19.8563  -78.8315 P   0  0  2  0  0  5  0  0  0  0  0  0
    7.0690  -18.2937  -78.5164 O   0  0  0  0  0  0  0  0  0  0  0  0
    6.5894  -20.7563  -77.6403 O   0  0  0  0  0  0  0  0  0  0  0  0
    4.8773  -19.7516  -79.2832 O   0  0  0  0  0  0  0  0  0  0  0  0
  1  2  1  0
  1  6  1  0
  1  7  1  1
  2  3  1  0
  2 12  1  6
  3  4  1  0
  3 17  1  6
  4  5  1  0
  4 22  1  6
  5  6  1  0
  5 27  1  1
  6 32  1  1
  7  8  1  0
  8  9  1  1
  8 10  2  0
  8 11  1  0
 12 13  1  0
 13 14  1  1
 13 15  1  0
 13 16  2  0
 17 18  1  0
 18 19  2  0
 18 20  1  6
 18 21  1  0
 22 23  1  0
 23 24  2  0
 23 25  1  6
 23 26  1  0
 27 28  1  0
 28 29  2  0
 28 30  1  6
 28 31  1  0
 32 33  1  0
 33 34  1  1
 33 35  2  0
 33 36  1  0
M  END
$$$$
