
     RDKit          3D

 36 36  0  0  0  0  0  0  0  0999 V2000
  -15.2156   24.7714  -85.0985 C   0  0  2  0  0  0  0  0  0  0  0  0
  -14.5217   25.8162  -85.9410 C   0  0  2  0  0  0  0  0  0  0  0  0
  -13.8811   25.1300  -87.1323 C   0  0  1  0  0  0  0  0  0  0  0  0
  -14.9092   24.5053  -88.0320 C   0  0  2  0  0  0  0  0  0  0  0  0
  -16.2752   24.4681  -87.3568 C   0  0  1  0  0  0  0  0  0  0  0  0
  -16.1132   23.9390  -85.9497 C   0  0  2  0  0  0  0  0  0  0  0  0
  -15.9219   25.3925  -84.0744 O   0  0  0  0  0  0  0  0  0  0  0  0
  -14.9454   26.4078  -83.1505 P   0  0  2  0  0  5  0  0  0  0  0  0
  -13.7104   25.5461  -82.3860 O   0  0  0  0  0  0  0  0  0  0  0  0
  -15.8432   27.1011  -82.1326 O   0  0  0  0  0  0  0  0  0  0  0  0
  -14.2883   27.5752  -84.2053 O   0  0  0  0  0  0  0  0  0  0  0  0
  -13.4944   26.3490  -85.1532 O   0  0  0  0  0  0  0  0  0  0  0  0
  -12.2296   25.2372  -84.9728 P   0  0  1  0  0  5  0  0  0  0  0  0
  -12.0175   24.4922  -86.4892 O   0  0  0  0  0  0  0  0  0  0  0  0
  -10.7820   25.9940  -84.5686 O   0  0  0  0  0  0  0  0  0  0  0  0
  -12.6034   24.1894  -83.9574 O   0  0  0  0  0  0  0  0  0  0  0  0
  -13.1219   26.1026  -87.7695 O   0  0  0  0  0  0  0  0  0  0  0  0
  -11.6153   25.6110  -88.2359 P   0  0  2  0  0  5  0  0  0  0  0  0
  -11.5950   24.3345  -89.0296 O   0  0  0  0  0  0  0  0  0  0  0  0
  -10.6506   25.3688  -86.8665 O   0  0  0  0  0  0  0  0  0  0  0  0
  -10.8884   26.8853  -89.1140 O   0  0  0  0  0  0  0  0  0  0  0  0
  -14.5441   23.1644  -88.2280 O   0  0  0  0  0  0  0  0  0  0  0  0
  -14.4035   22.7509  -89.8337 P   0  0  2  0  0  5  0  0  0  0  0  0
  -13.0169   22.8767  -90.3820 O   0  0  0  0  0  0  0  0  0  0  0  0
  -15.5216   23.6823  -90.7148 O   0  0  0  0  0  0  0  0  0  0  0  0
  -14.8774   21.1235  -89.9974 O   0  0  0  0  0  0  0  0  0  0  0  0
  -16.9368   25.6680  -87.4213 O   0  0  0  0  0  0  0  0  0  0  0  0
  -18.3346   25.6153  -88.3687 P   0  0  1  0  0  5  0  0  0  0  0  0
  -19.2736   26.7524  -88.0450 O   0  0  0  0  0  0  0  0  0  0  0  0
  -17.9450   25.7468  -90.0171 O   0  0  0  0  0  0  0  0  0  0  0  0
  -19.1848   24.1758  -88.1663 O   0  0  0  0  0  0  0  0  0  0  0  0
  -17.3789   23.7538  -85.3965 O   0  0  0  0  0  0  0  0  0  0  0  0
  -18.1323   25.2101  -85.0502 P   0  0  2  0  0  5  0  0  0  0  0  0
  -17.4460   25.8577  -83.6488 O   0  0  0  0  0  0  0  0  0  0  0  0
  -19.6259   24.9813  -84.8603 O   0  0  0  0  0  0  0  0  0  0  0  0
  -17.8700   26.3070  -86.3116 O   0  0  0  0  0  0  0  0  0  0  0  0
  1  2  1  0
  1  6  1  0
  1  7  1  1
  2  3  1  0
  2 12  1  1
  3  4  1  0
  3 17  1  6
  4  5  1  0
  4 22  1  1
  5  6  1  0
  5 27  1  1
  6 32  1  1
  7  8  1  0
  8  9  1  1
  8 10  2  0
  8 11  1  0
 12 13  1  0
 13 14  1  6
 13 15  1  0
 13 16  2  0
 17 18  1  0
 18 19  2  0
 18 20  1  1
 18 21  1  0
 22 23  1  0
 23 24  2  0
 23 25  1  6
 23 26  1  0
 27 28  1  0
 28 29  2  0
 28 30  1  6
 28 31  1  0
 32 33  1  0
 33 34  1  1
 33 35  2  0
 33 36  1  0
M  END
$$$$
