
     RDKit          3D

 36 36  0  0  0  0  0  0  0  0999 V2000
  -14.6092   23.5836  -86.9651 C   0  0  2  0  0  0  0  0  0  0  0  0
  -15.1608   24.7546  -87.7442 C   0  0  2  0  0  0  0  0  0  0  0  0
  -16.5600   25.0544  -87.2415 C   0  0  1  0  0  0  0  0  0  0  0  0
  -16.5513   25.4948  -85.8053 C   0  0  2  0  0  0  0  0  0  0  0  0
  -15.1942   25.2335  -85.1624 C   0  0  1  0  0  0  0  0  0  0  0  0
  -14.7528   23.8277  -85.5012 C   0  0  2  0  0  0  0  0  0  0  0  0
  -13.2797   23.3755  -87.3156 O   0  0  0  0  0  0  0  0  0  0  0  0
  -12.9358   21.7469  -87.5750 P   0  0  2  0  0  5  0  0  0  0  0  0
  -11.4585   21.5484  -88.3693 O   0  0  0  0  0  0  0  0  0  0  0  0
  -14.0820   21.1638  -88.3929 O   0  0  0  0  0  0  0  0  0  0  0  0
  -12.8942   20.9890  -86.0482 O   0  0  0  0  0  0  0  0  0  0  0  0
  -15.2674   24.3358  -89.0758 O   0  0  0  0  0  0  0  0  0  0  0  0
  -14.5032   25.4297  -90.1188 P   0  0  1  0  0  5  0  0  0  0  0  0
  -14.9590   26.9884  -89.6068 O   0  0  0  0  0  0  0  0  0  0  0  0
  -12.8266   25.3281  -90.0155 O   0  0  0  0  0  0  0  0  0  0  0  0
  -14.9802   25.2163  -91.5313 O   0  0  0  0  0  0  0  0  0  0  0  0
  -17.0759   26.0158  -88.1005 O   0  0  0  0  0  0  0  0  0  0  0  0
  -18.2437   25.4685  -89.1329 P   0  0  2  0  0  5  0  0  0  0  0  0
  -17.7325   24.5924  -90.2425 O   0  0  0  0  0  0  0  0  0  0  0  0
  -19.0263   26.7863  -89.8506 O   0  0  0  0  0  0  0  0  0  0  0  0
  -19.4291   24.6524  -88.2099 O   0  0  0  0  0  0  0  0  0  0  0  0
  -17.4649   24.6893  -85.1080 O   0  0  0  0  0  0  0  0  0  0  0  0
  -18.7172   25.5520  -84.4323 P   0  0  2  0  0  5  0  0  0  0  0  0
  -20.0473   24.8712  -84.5135 O   0  0  0  0  0  0  0  0  0  0  0  0
  -18.7459   27.0902  -85.1583 O   0  0  0  0  0  0  0  0  0  0  0  0
  -18.3587   25.7892  -82.7846 O   0  0  0  0  0  0  0  0  0  0  0  0
  -14.2628   26.1925  -85.4700 O   0  0  0  0  0  0  0  0  0  0  0  0
  -13.6056   26.9520  -84.1117 P   0  0  1  0  0  5  0  0  0  0  0  0
  -13.4867   28.4444  -84.3072 O   0  0  0  0  0  0  0  0  0  0  0  0
  -14.5946   26.7065  -82.7522 O   0  0  0  0  0  0  0  0  0  0  0  0
  -12.0746   26.3617  -83.7328 O   0  0  0  0  0  0  0  0  0  0  0  0
  -13.5956   23.5395  -84.7799 O   0  0  0  0  0  0  0  0  0  0  0  0
  -12.2082   23.8779  -85.6568 P   0  0  2  0  0  5  0  0  0  0  0  0
  -12.3419   23.1652  -87.1827 O   0  0  0  0  0  0  0  0  0  0  0  0
  -10.9911   23.3389  -84.9171 O   0  0  0  0  0  0  0  0  0  0  0  0
  -12.0601   25.5493  -85.8755 O   0  0  0  0  0  0  0  0  0  0  0  0
  1  2  1  0
  1  6  1  0
  1  7  1  1
  2  3  1  0
  2 12  1  6
  3  4  1  0
  3 17  1  6
  4  5  1  0
  4 22  1  1
  5  6  1  0
  5 27  1  6
  6 32  1  1
  7  8  1  0
  8  9  1  6
  8 10  2  0
  8 11  1  0
 12 13  1  0
 13 14  1  1
 13 15  1  0
 13 16  2  0
 17 18  1  0
 18 19  2  0
 18 20  1  6
 18 21  1  0
 22 23  1  0
 23 24  2  0
 23 25  1  6
 23 26  1  0
 27 28  1  0
 28 29  2  0
 28 30  1  1
 28 31  1  0
 32 33  1  0
 33 34  1  6
 33 35  2  0
 33 36  1  0
M  END
$$$$
