
     RDKit          3D

 36 36  0  0  0  0  0  0  0  0999 V2000
  -14.2626   23.9824  -86.4547 C   0  0  2  0  0  0  0  0  0  0  0  0
  -13.3120   24.2442  -87.6054 C   0  0  2  0  0  0  0  0  0  0  0  0
  -12.3606   25.2963  -87.0913 C   0  0  1  0  0  0  0  0  0  0  0  0
  -13.2073   26.5667  -87.1024 C   0  0  2  0  0  0  0  0  0  0  0  0
  -14.2687   26.4822  -86.0488 C   0  0  1  0  0  0  0  0  0  0  0  0
  -15.0357   25.1919  -86.0393 C   0  0  2  0  0  0  0  0  0  0  0  0
  -13.4971   23.4329  -85.4269 O   0  0  0  0  0  0  0  0  0  0  0  0
  -14.3863   22.3393  -84.4901 P   0  0  2  0  0  5  0  0  0  0  0  0
  -14.9929   23.1764  -83.1473 O   0  0  0  0  0  0  0  0  0  0  0  0
  -13.5712   21.1482  -84.0908 O   0  0  0  0  0  0  0  0  0  0  0  0
  -15.7373   21.8229  -85.3876 O   0  0  0  0  0  0  0  0  0  0  0  0
  -13.9672   24.5742  -88.7415 O   0  0  0  0  0  0  0  0  0  0  0  0
  -13.8579   23.5140  -90.0079 P   0  0  1  0  0  5  0  0  0  0  0  0
  -14.8933   23.8652  -91.2872 O   0  0  0  0  0  0  0  0  0  0  0  0
  -12.2615   23.4101  -90.5976 O   0  0  0  0  0  0  0  0  0  0  0  0
  -14.2214   22.1277  -89.5069 O   0  0  0  0  0  0  0  0  0  0  0  0
  -11.7912   25.0225  -85.9007 O   0  0  0  0  0  0  0  0  0  0  0  0
  -10.1222   24.8493  -85.9262 P   0  0  2  0  0  5  0  0  0  0  0  0
   -9.4743   26.2017  -85.7346 O   0  0  0  0  0  0  0  0  0  0  0  0
   -9.7046   24.3222  -87.4923 O   0  0  0  0  0  0  0  0  0  0  0  0
   -9.6059   23.7206  -84.8103 O   0  0  0  0  0  0  0  0  0  0  0  0
  -13.6378   26.8799  -88.3511 O   0  0  0  0  0  0  0  0  0  0  0  0
  -12.9497   28.2306  -89.0403 P   0  0  2  0  0  5  0  0  0  0  0  0
  -14.0104   28.9317  -89.8666 O   0  0  0  0  0  0  0  0  0  0  0  0
  -11.7502   27.7101  -90.1450 O   0  0  0  0  0  0  0  0  0  0  0  0
  -12.2417   29.2677  -87.9524 O   0  0  0  0  0  0  0  0  0  0  0  0
  -13.8141   26.6968  -84.7697 O   0  0  0  0  0  0  0  0  0  0  0  0
  -13.7772   28.2221  -84.2026 P   0  0  1  0  0  5  0  0  0  0  0  0
  -13.0323   29.2226  -85.0435 O   0  0  0  0  0  0  0  0  0  0  0  0
  -15.3732   28.8009  -84.0790 O   0  0  0  0  0  0  0  0  0  0  0  0
  -13.1720   28.2080  -82.6006 O   0  0  0  0  0  0  0  0  0  0  0  0
  -15.5459   24.8984  -84.7719 O   0  0  0  0  0  0  0  0  0  0  0  0
  -17.1581   25.3206  -84.6028 P   0  0  2  0  0  5  0  0  0  0  0  0
  -17.9969   25.1742  -86.0560 O   0  0  0  0  0  0  0  0  0  0  0  0
  -17.2695   26.6790  -83.9899 O   0  0  0  0  0  0  0  0  0  0  0  0
  -17.8495   24.2185  -83.4904 O   0  0  0  0  0  0  0  0  0  0  0  0
  1  2  1  0
  1  6  1  0
  1  7  1  1
  2  3  1  0
  2 12  1  6
  3  4  1  0
  3 17  1  1
  4  5  1  0
  4 22  1  6
  5  6  1  0
  5 27  1  1
  6 32  1  1
  7  8  1  0
  8  9  1  1
  8 10  2  0
  8 11  1  0
 12 13  1  0
 13 14  1  6
 13 15  1  0
 13 16  2  0
 17 18  1  0
 18 19  2  0
 18 20  1  6
 18 21  1  0
 22 23  1  0
 23 24  2  0
 23 25  1  6
 23 26  1  0
 27 28  1  0
 28 29  2  0
 28 30  1  1
 28 31  1  0
 32 33  1  0
 33 34  1  6
 33 35  2  0
 33 36  1  0
M  END
$$$$
