
     RDKit          3D

 36 36  0  0  0  0  0  0  0  0999 V2000
    7.9507  -19.1643  -79.2354 C   0  0  2  0  0  0  0  0  0  0  0  0
    6.7373  -18.9168  -78.3699 C   0  0  2  0  0  0  0  0  0  0  0  0
    7.0352  -19.4090  -76.9666 C   0  0  1  0  0  0  0  0  0  0  0  0
    8.1497  -18.6288  -76.3296 C   0  0  2  0  0  0  0  0  0  0  0  0
    8.8723  -17.7687  -77.3598 C   0  0  1  0  0  0  0  0  0  0  0  0
    9.1701  -18.6103  -78.5801 C   0  0  2  0  0  0  0  0  0  0  0  0
    7.7504  -18.6009  -80.4908 O   0  0  0  0  0  0  0  0  0  0  0  0
    6.4332  -19.2799  -81.2920 P   0  0  2  0  0  5  0  0  0  0  0  0
    4.9718  -18.7725  -80.6143 O   0  0  0  0  0  0  0  0  0  0  0  0
    6.5808  -20.7945  -81.2089 O   0  0  0  0  0  0  0  0  0  0  0  0
    6.5293  -18.7959  -82.9241 O   0  0  0  0  0  0  0  0  0  0  0  0
    5.7062  -19.7087  -78.8891 O   0  0  0  0  0  0  0  0  0  0  0  0
    5.7958  -19.7901  -80.5784 P   0  0  1  0  0  5  0  0  0  0  0  0
    7.1066  -18.8077  -81.0434 O   0  0  0  0  0  0  0  0  0  0  0  0
    6.1135  -21.3531  -81.1152 O   0  0  0  0  0  0  0  0  0  0  0  0
    4.5316  -19.2461  -81.1899 O   0  0  0  0  0  0  0  0  0  0  0  0
    5.8389  -19.3151  -76.2677 O   0  0  0  0  0  0  0  0  0  0  0  0
    5.1882  -20.7625  -75.8089 P   0  0  2  0  0  5  0  0  0  0  0  0
    4.9819  -21.7370  -76.9348 O   0  0  0  0  0  0  0  0  0  0  0  0
    3.6805  -20.5006  -75.0860 O   0  0  0  0  0  0  0  0  0  0  0  0
    6.1894  -21.4352  -74.5972 O   0  0  0  0  0  0  0  0  0  0  0  0
    9.1023  -19.5494  -75.8661 O   0  0  0  0  0  0  0  0  0  0  0  0
    9.3373  -19.4773  -74.2203 P   0  0  2  0  0  5  0  0  0  0  0  0
   10.7322  -19.7978  -73.7835 O   0  0  0  0  0  0  0  0  0  0  0  0
    8.1911  -20.4947  -73.4820 O   0  0  0  0  0  0  0  0  0  0  0  0
    8.9895  -17.8896  -73.7121 O   0  0  0  0  0  0  0  0  0  0  0  0
    8.2081  -16.6026  -77.6438 O   0  0  0  0  0  0  0  0  0  0  0  0
    8.8527  -15.2530  -76.8585 P   0  0  1  0  0  5  0  0  0  0  0  0
   10.3242  -15.4246  -76.5669 O   0  0  0  0  0  0  0  0  0  0  0  0
    8.6970  -13.8662  -77.8275 O   0  0  0  0  0  0  0  0  0  0  0  0
    8.0751  -14.9362  -75.3987 O   0  0  0  0  0  0  0  0  0  0  0  0
    9.9707  -17.8684  -79.4467 O   0  0  0  0  0  0  0  0  0  0  0  0
    9.0658  -17.0703  -80.6097 P   0  0  2  0  0  5  0  0  0  0  0  0
    7.6323  -16.5231  -79.9024 O   0  0  0  0  0  0  0  0  0  0  0  0
    8.7675  -18.0169  -81.7647 O   0  0  0  0  0  0  0  0  0  0  0  0
    9.9158  -15.7197  -81.1722 O   0  0  0  0  0  0  0  0  0  0  0  0
  1  2  1  0
  1  6  1  0
  1  7  1  6
  2  3  1  0
  2 12  1  6
  3  4  1  0
  3 17  1  1
  4  5  1  0
  4 22  1  6
  5  6  1  0
  5 27  1  6
  6 32  1  6
  7  8  1  0
  8  9  1  1
  8 10  2  0
  8 11  1  0
 12 13  1  0
 13 14  1  6
 13 15  1  0
 13 16  2  0
 17 18  1  0
 18 19  2  0
 18 20  1  1
 18 21  1  0
 22 23  1  0
 23 24  2  0
 23 25  1  1
 23 26  1  0
 27 28  1  0
 28 29  2  0
 28 30  1  6
 28 31  1  0
 32 33  1  0
 33 34  1  1
 33 35  2  0
 33 36  1  0
M  END
$$$$
