
     RDKit          3D

 36 36  0  0  0  0  0  0  0  0999 V2000
  -15.6224   26.9492  -87.9416 C   0  0  2  0  0  0  0  0  0  0  0  0
  -16.0369   25.4993  -88.0914 C   0  0  2  0  0  0  0  0  0  0  0  0
  -16.3249   25.0308  -86.6864 C   0  0  1  0  0  0  0  0  0  0  0  0
  -14.9333   24.8867  -86.0753 C   0  0  2  0  0  0  0  0  0  0  0  0
  -14.3127   26.2380  -85.8940 C   0  0  1  0  0  0  0  0  0  0  0  0
  -14.4034   27.1315  -87.0967 C   0  0  2  0  0  0  0  0  0  0  0  0
  -16.7389   27.6317  -87.4598 O   0  0  0  0  0  0  0  0  0  0  0  0
  -17.2241   28.8704  -88.5059 P   0  0  2  0  0  5  0  0  0  0  0  0
  -18.6192   28.3517  -89.3159 O   0  0  0  0  0  0  0  0  0  0  0  0
  -16.1346   29.2641  -89.4549 O   0  0  0  0  0  0  0  0  0  0  0  0
  -17.6795   30.2227  -87.5778 O   0  0  0  0  0  0  0  0  0  0  0  0
  -15.1112   24.7717  -88.7565 O   0  0  0  0  0  0  0  0  0  0  0  0
  -15.4019   24.4673  -90.3573 P   0  0  1  0  0  5  0  0  0  0  0  0
  -16.8304   23.6263  -90.6469 O   0  0  0  0  0  0  0  0  0  0  0  0
  -15.4080   25.9049  -91.2739 O   0  0  0  0  0  0  0  0  0  0  0  0
  -14.2661   23.6178  -90.8990 O   0  0  0  0  0  0  0  0  0  0  0  0
  -17.1599   25.8175  -85.9790 O   0  0  0  0  0  0  0  0  0  0  0  0
  -18.6931   25.1863  -85.7194 P   0  0  2  0  0  5  0  0  0  0  0  0
  -19.3140   24.8142  -87.0466 O   0  0  0  0  0  0  0  0  0  0  0  0
  -19.6412   26.4445  -85.0691 O   0  0  0  0  0  0  0  0  0  0  0  0
  -18.6569   23.9119  -84.6421 O   0  0  0  0  0  0  0  0  0  0  0  0
  -14.1785   23.9741  -86.7389 O   0  0  0  0  0  0  0  0  0  0  0  0
  -13.9578   22.5145  -85.9685 P   0  0  2  0  0  5  0  0  0  0  0  0
  -14.8077   21.4750  -86.6733 O   0  0  0  0  0  0  0  0  0  0  0  0
  -14.5875   22.6509  -84.3826 O   0  0  0  0  0  0  0  0  0  0  0  0
  -12.3717   22.0318  -85.8599 O   0  0  0  0  0  0  0  0  0  0  0  0
  -14.8013   26.9452  -84.8216 O   0  0  0  0  0  0  0  0  0  0  0  0
  -13.7661   27.3926  -83.6478 P   0  0  1  0  0  5  0  0  0  0  0  0
  -13.9101   26.6787  -82.3315 O   0  0  0  0  0  0  0  0  0  0  0  0
  -12.1753   27.0971  -84.1764 O   0  0  0  0  0  0  0  0  0  0  0  0
  -13.8668   29.0884  -83.4307 O   0  0  0  0  0  0  0  0  0  0  0  0
  -14.3861   28.4836  -86.7437 O   0  0  0  0  0  0  0  0  0  0  0  0
  -14.8190   28.7476  -85.1472 P   0  0  2  0  0  5  0  0  0  0  0  0
  -15.8657   27.5564  -84.5795 O   0  0  0  0  0  0  0  0  0  0  0  0
  -15.3561   30.1328  -84.9853 O   0  0  0  0  0  0  0  0  0  0  0  0
  -13.3832   28.6629  -84.2192 O   0  0  0  0  0  0  0  0  0  0  0  0
  1  2  1  0
  1  6  1  0
  1  7  1  1
  2  3  1  0
  2 12  1  1
  3  4  1  0
  3 17  1  1
  4  5  1  0
  4 22  1  6
  5  6  1  0
  5 27  1  1
  6 32  1  1
  7  8  1  0
  8  9  1  6
  8 10  2  0
  8 11  1  0
 12 13  1  0
 13 14  1  1
 13 15  1  0
 13 16  2  0
 17 18  1  0
 18 19  2  0
 18 20  1  1
 18 21  1  0
 22 23  1  0
 23 24  2  0
 23 25  1  1
 23 26  1  0
 27 28  1  0
 28 29  2  0
 28 30  1  6
 28 31  1  0
 32 33  1  0
 33 34  1  1
 33 35  2  0
 33 36  1  0
M  END
$$$$
