
     RDKit          3D

 36 36  0  0  0  0  0  0  0  0999 V2000
  -16.3702   24.9845  -87.6129 C   0  0  2  0  0  0  0  0  0  0  0  0
  -16.9067   26.0216  -86.6470 C   0  0  2  0  0  0  0  0  0  0  0  0
  -15.6993   26.8240  -86.2291 C   0  0  1  0  0  0  0  0  0  0  0  0
  -14.9641   25.8792  -85.2817 C   0  0  2  0  0  0  0  0  0  0  0  0
  -14.3937   24.7270  -86.0505 C   0  0  1  0  0  0  0  0  0  0  0  0
  -15.3559   24.0743  -86.9999 C   0  0  2  0  0  0  0  0  0  0  0  0
  -15.8909   25.6850  -88.7191 O   0  0  0  0  0  0  0  0  0  0  0  0
  -16.3126   24.9339  -90.1758 P   0  0  2  0  0  5  0  0  0  0  0  0
  -15.2651   25.5055  -91.3791 O   0  0  0  0  0  0  0  0  0  0  0  0
  -17.7509   25.1570  -90.5279 O   0  0  0  0  0  0  0  0  0  0  0  0
  -16.0192   23.2632  -90.0344 O   0  0  0  0  0  0  0  0  0  0  0  0
  -17.5979   25.4599  -85.6295 O   0  0  0  0  0  0  0  0  0  0  0  0
  -19.2449   25.3977  -85.7829 P   0  0  1  0  0  5  0  0  0  0  0  0
  -19.8250   23.9250  -86.3542 O   0  0  0  0  0  0  0  0  0  0  0  0
  -20.0222   25.7679  -84.3114 O   0  0  0  0  0  0  0  0  0  0  0  0
  -19.6757   26.4626  -86.7756 O   0  0  0  0  0  0  0  0  0  0  0  0
  -14.9418   27.2906  -87.2416 O   0  0  0  0  0  0  0  0  0  0  0  0
  -15.0826   28.9352  -87.5447 P   0  0  2  0  0  5  0  0  0  0  0  0
  -16.2096   29.1701  -88.5246 O   0  0  0  0  0  0  0  0  0  0  0  0
  -13.6457   29.4183  -88.3237 O   0  0  0  0  0  0  0  0  0  0  0  0
  -15.2615   29.8057  -86.1319 O   0  0  0  0  0  0  0  0  0  0  0  0
  -15.7191   25.5529  -84.2018 O   0  0  0  0  0  0  0  0  0  0  0  0
  -15.1090   26.0123  -82.7221 P   0  0  2  0  0  5  0  0  0  0  0  0
  -15.4834   27.4627  -82.4864 O   0  0  0  0  0  0  0  0  0  0  0  0
  -13.4003   25.9692  -82.8161 O   0  0  0  0  0  0  0  0  0  0  0  0
  -15.5859   25.0472  -81.4566 O   0  0  0  0  0  0  0  0  0  0  0  0
  -13.2582   25.0297  -86.7633 O   0  0  0  0  0  0  0  0  0  0  0  0
  -12.2315   23.8241  -87.1401 P   0  0  1  0  0  5  0  0  0  0  0  0
  -11.3090   23.3731  -86.0408 O   0  0  0  0  0  0  0  0  0  0  0  0
  -13.1352   22.4545  -87.5929 O   0  0  0  0  0  0  0  0  0  0  0  0
  -11.3410   24.2643  -88.5351 O   0  0  0  0  0  0  0  0  0  0  0  0
  -14.6978   23.4645  -88.0713 O   0  0  0  0  0  0  0  0  0  0  0  0
  -13.1484   22.9588  -87.6840 P   0  0  2  0  0  5  0  0  0  0  0  0
  -12.8207   21.4255  -88.2991 O   0  0  0  0  0  0  0  0  0  0  0  0
  -12.9299   23.0636  -86.2094 O   0  0  0  0  0  0  0  0  0  0  0  0
  -12.0643   24.0579  -88.4235 O   0  0  0  0  0  0  0  0  0  0  0  0
  1  2  1  0
  1  6  1  0
  1  7  1  6
  2  3  1  0
  2 12  1  1
  3  4  1  0
  3 17  1  6
  4  5  1  0
  4 22  1  1
  5  6  1  0
  5 27  1  6
  6 32  1  6
  7  8  1  0
  8  9  1  6
  8 10  2  0
  8 11  1  0
 12 13  1  0
 13 14  1  6
 13 15  1  0
 13 16  2  0
 17 18  1  0
 18 19  2  0
 18 20  1  6
 18 21  1  0
 22 23  1  0
 23 24  2  0
 23 25  1  6
 23 26  1  0
 27 28  1  0
 28 29  2  0
 28 30  1  6
 28 31  1  0
 32 33  1  0
 33 34  1  6
 33 35  2  0
 33 36  1  0
M  END
$$$$
