
     RDKit          3D

 36 36  0  0  0  0  0  0  0  0999 V2000
  -13.5491   26.0290  -87.9988 C   0  0  2  0  0  0  0  0  0  0  0  0
  -13.4853   27.2288  -87.0754 C   0  0  2  0  0  0  0  0  0  0  0  0
  -13.1897   26.6541  -85.7121 C   0  0  1  0  0  0  0  0  0  0  0  0
  -14.5200   26.0270  -85.3026 C   0  0  2  0  0  0  0  0  0  0  0  0
  -14.8033   24.8282  -86.1551 C   0  0  1  0  0  0  0  0  0  0  0  0
  -14.6184   25.0534  -87.6277 C   0  0  2  0  0  0  0  0  0  0  0  0
  -12.2707   25.4726  -88.0128 O   0  0  0  0  0  0  0  0  0  0  0  0
  -11.7782   25.0563  -89.5776 P   0  0  2  0  0  5  0  0  0  0  0  0
  -12.9225   23.9813  -90.2152 O   0  0  0  0  0  0  0  0  0  0  0  0
  -10.3944   24.4844  -89.5982 O   0  0  0  0  0  0  0  0  0  0  0  0
  -11.8274   26.4491  -90.5548 O   0  0  0  0  0  0  0  0  0  0  0  0
  -14.6046   27.9845  -87.1451 O   0  0  0  0  0  0  0  0  0  0  0  0
  -14.4787   29.4467  -87.9105 P   0  0  1  0  0  5  0  0  0  0  0  0
  -13.0750   30.2968  -87.5380 O   0  0  0  0  0  0  0  0  0  0  0  0
  -14.5920   29.2758  -89.6031 O   0  0  0  0  0  0  0  0  0  0  0  0
  -15.6512   30.3134  -87.4873 O   0  0  0  0  0  0  0  0  0  0  0  0
  -12.1414   25.8085  -85.6608 O   0  0  0  0  0  0  0  0  0  0  0  0
  -11.1794   25.9399  -84.2920 P   0  0  2  0  0  5  0  0  0  0  0  0
  -11.7087   25.0188  -83.2164 O   0  0  0  0  0  0  0  0  0  0  0  0
  -11.3637   27.5313  -83.7102 O   0  0  0  0  0  0  0  0  0  0  0  0
   -9.5712   25.6661  -84.6445 O   0  0  0  0  0  0  0  0  0  0  0  0
  -15.5148   26.9476  -85.2285 O   0  0  0  0  0  0  0  0  0  0  0  0
  -16.8471   26.5082  -84.3316 P   0  0  2  0  0  5  0  0  0  0  0  0
  -17.9467   26.0946  -85.2904 O   0  0  0  0  0  0  0  0  0  0  0  0
  -17.4218   27.9003  -83.5178 O   0  0  0  0  0  0  0  0  0  0  0  0
  -16.5507   25.3282  -83.2001 O   0  0  0  0  0  0  0  0  0  0  0  0
  -14.0777   23.7107  -85.8183 O   0  0  0  0  0  0  0  0  0  0  0  0
  -12.9264   23.8456  -84.6757 P   0  0  1  0  0  5  0  0  0  0  0  0
  -11.6700   24.5650  -85.0842 O   0  0  0  0  0  0  0  0  0  0  0  0
  -13.5616   24.7125  -83.3556 O   0  0  0  0  0  0  0  0  0  0  0  0
  -12.5605   22.2881  -84.0646 O   0  0  0  0  0  0  0  0  0  0  0  0
  -14.3013   23.8700  -88.2998 O   0  0  0  0  0  0  0  0  0  0  0  0
  -15.3297   22.6047  -87.9158 P   0  0  2  0  0  5  0  0  0  0  0  0
  -16.8943   22.8808  -88.4750 O   0  0  0  0  0  0  0  0  0  0  0  0
  -15.2670   22.3216  -86.4498 O   0  0  0  0  0  0  0  0  0  0  0  0
  -14.7307   21.2138  -88.7137 O   0  0  0  0  0  0  0  0  0  0  0  0
  1  2  1  0
  1  6  1  0
  1  7  1  1
  2  3  1  0
  2 12  1  1
  3  4  1  0
  3 17  1  6
  4  5  1  0
  4 22  1  6
  5  6  1  0
  5 27  1  1
  6 32  1  6
  7  8  1  0
  8  9  1  6
  8 10  2  0
  8 11  1  0
 12 13  1  0
 13 14  1  6
 13 15  1  0
 13 16  2  0
 17 18  1  0
 18 19  2  0
 18 20  1  1
 18 21  1  0
 22 23  1  0
 23 24  2  0
 23 25  1  1
 23 26  1  0
 27 28  1  0
 28 29  2  0
 28 30  1  1
 28 31  1  0
 32 33  1  0
 33 34  1  6
 33 35  2  0
 33 36  1  0
M  END
$$$$
