
     RDKit          3D

 36 36  0  0  0  0  0  0  0  0999 V2000
    7.4059  -18.2631  -82.2423 C   0  0  2  0  0  0  0  0  0  0  0  0
    7.0482  -17.8407  -80.8316 C   0  0  2  0  0  0  0  0  0  0  0  0
    8.3734  -17.6198  -80.1449 C   0  0  1  0  0  0  0  0  0  0  0  0
    8.8875  -19.0388  -79.9154 C   0  0  2  0  0  0  0  0  0  0  0  0
    9.2509  -19.6684  -81.2251 C   0  0  1  0  0  0  0  0  0  0  0  0
    8.2104  -19.5211  -82.2970 C   0  0  2  0  0  0  0  0  0  0  0  0
    8.0418  -17.1715  -82.8325 O   0  0  0  0  0  0  0  0  0  0  0  0
    7.2165  -16.6235  -84.2047 P   0  0  2  0  0  5  0  0  0  0  0  0
    7.7233  -15.0373  -84.5187 O   0  0  0  0  0  0  0  0  0  0  0  0
    5.7308  -16.7191  -84.0429 O   0  0  0  0  0  0  0  0  0  0  0  0
    7.6994  -17.5583  -85.5427 O   0  0  0  0  0  0  0  0  0  0  0  0
    6.2334  -18.7331  -80.2246 O   0  0  0  0  0  0  0  0  0  0  0  0
    4.6094  -18.4149  -80.2612 P   0  0  1  0  0  5  0  0  0  0  0  0
    4.1807  -16.9541  -79.5443 O   0  0  0  0  0  0  0  0  0  0  0  0
    4.0031  -18.4509  -81.8544 O   0  0  0  0  0  0  0  0  0  0  0  0
    3.8871  -19.5137  -79.5023 O   0  0  0  0  0  0  0  0  0  0  0  0
    9.2350  -16.8200  -80.8042 O   0  0  0  0  0  0  0  0  0  0  0  0
    9.6450  -15.3987  -80.0117 P   0  0  2  0  0  5  0  0  0  0  0  0
   10.9398  -14.8632  -80.5794 O   0  0  0  0  0  0  0  0  0  0  0  0
    9.9544  -15.8110  -78.3872 O   0  0  0  0  0  0  0  0  0  0  0  0
    8.4035  -14.2847  -80.0694 O   0  0  0  0  0  0  0  0  0  0  0  0
    8.0530  -19.7603  -79.1243 O   0  0  0  0  0  0  0  0  0  0  0  0
    8.7514  -20.4783  -77.7942 P   0  0  2  0  0  5  0  0  0  0  0  0
    9.1953  -21.8736  -78.1890 O   0  0  0  0  0  0  0  0  0  0  0  0
    7.5390  -20.6820  -76.6031 O   0  0  0  0  0  0  0  0  0  0  0  0
    9.9993  -19.6094  -77.1245 O   0  0  0  0  0  0  0  0  0  0  0  0
   10.4435  -19.2322  -81.7506 O   0  0  0  0  0  0  0  0  0  0  0  0
   11.7662  -20.1604  -81.5545 P   0  0  1  0  0  5  0  0  0  0  0  0
   13.0048  -19.4541  -81.0749 O   0  0  0  0  0  0  0  0  0  0  0  0
   11.4272  -21.3622  -80.3977 O   0  0  0  0  0  0  0  0  0  0  0  0
   12.0770  -21.0050  -83.0116 O   0  0  0  0  0  0  0  0  0  0  0  0
    8.7717  -19.5565  -83.5763 O   0  0  0  0  0  0  0  0  0  0  0  0
   10.3915  -19.1294  -83.5911 P   0  0  2  0  0  5  0  0  0  0  0  0
   11.1958  -19.7798  -84.9204 O   0  0  0  0  0  0  0  0  0  0  0  0
   11.0256  -19.4833  -82.2850 O   0  0  0  0  0  0  0  0  0  0  0  0
   10.4578  -17.4244  -83.7267 O   0  0  0  0  0  0  0  0  0  0  0  0
  1  2  1  0
  1  6  1  0
  1  7  1  1
  2  3  1  0
  2 12  1  1
  3  4  1  0
  3 17  1  6
  4  5  1  0
  4 22  1  6
  5  6  1  0
  5 27  1  6
  6 32  1  6
  7  8  1  0
  8  9  1  6
  8 10  2  0
  8 11  1  0
 12 13  1  0
 13 14  1  1
 13 15  1  0
 13 16  2  0
 17 18  1  0
 18 19  2  0
 18 20  1  1
 18 21  1  0
 22 23  1  0
 23 24  2  0
 23 25  1  1
 23 26  1  0
 27 28  1  0
 28 29  2  0
 28 30  1  1
 28 31  1  0
 32 33  1  0
 33 34  1  6
 33 35  2  0
 33 36  1  0
M  END
$$$$
