
     RDKit          3D

 36 36  0  0  0  0  0  0  0  0999 V2000
  -15.5463   24.5234  -85.4233 C   0  0  2  0  0  0  0  0  0  0  0  0
  -14.1057   24.9919  -85.3836 C   0  0  2  0  0  0  0  0  0  0  0  0
  -14.1699   26.4698  -85.6803 C   0  0  1  0  0  0  0  0  0  0  0  0
  -14.4612   26.5119  -87.1783 C   0  0  2  0  0  0  0  0  0  0  0  0
  -15.8519   26.0216  -87.4421 C   0  0  1  0  0  0  0  0  0  0  0  0
  -16.2012   24.7366  -86.7494 C   0  0  2  0  0  0  0  0  0  0  0  0
  -16.1998   25.1652  -84.3720 O   0  0  0  0  0  0  0  0  0  0  0  0
  -15.8880   26.8285  -84.3535 P   0  0  2  0  0  5  0  0  0  0  0  0
  -14.4610   27.0814  -83.4751 O   0  0  0  0  0  0  0  0  0  0  0  0
  -17.0381   27.6102  -83.7978 O   0  0  0  0  0  0  0  0  0  0  0  0
  -15.5727   27.3433  -85.9450 O   0  0  0  0  0  0  0  0  0  0  0  0
  -13.3152   24.2771  -86.2160 O   0  0  0  0  0  0  0  0  0  0  0  0
  -11.9762   23.5639  -85.5539 P   0  0  1  0  0  5  0  0  0  0  0  0
  -12.2701   22.0533  -84.8730 O   0  0  0  0  0  0  0  0  0  0  0  0
  -10.7166   23.4237  -86.6944 O   0  0  0  0  0  0  0  0  0  0  0  0
  -11.4533   24.4594  -84.4450 O   0  0  0  0  0  0  0  0  0  0  0  0
  -15.0430   27.1687  -84.9280 O   0  0  0  0  0  0  0  0  0  0  0  0
  -14.6748   27.2529  -83.2929 P   0  0  2  0  0  5  0  0  0  0  0  0
  -14.2302   28.6566  -82.9502 O   0  0  0  0  0  0  0  0  0  0  0  0
  -13.3314   26.2359  -83.0365 O   0  0  0  0  0  0  0  0  0  0  0  0
  -15.9486   26.7293  -82.3500 O   0  0  0  0  0  0  0  0  0  0  0  0
  -13.4785   25.9202  -87.9042 O   0  0  0  0  0  0  0  0  0  0  0  0
  -13.5891   26.0949  -89.5565 P   0  0  2  0  0  5  0  0  0  0  0  0
  -14.0841   24.7848  -90.1380 O   0  0  0  0  0  0  0  0  0  0  0  0
  -12.0088   26.3242  -90.1729 O   0  0  0  0  0  0  0  0  0  0  0  0
  -14.5306   27.3728  -90.0473 O   0  0  0  0  0  0  0  0  0  0  0  0
  -16.8383   26.9297  -87.1404 O   0  0  0  0  0  0  0  0  0  0  0  0
  -18.0736   27.1125  -88.1844 P   0  0  1  0  0  5  0  0  0  0  0  0
  -18.9479   25.9061  -88.3924 O   0  0  0  0  0  0  0  0  0  0  0  0
  -19.0969   28.3473  -87.6138 O   0  0  0  0  0  0  0  0  0  0  0  0
  -17.4621   27.6817  -89.6794 O   0  0  0  0  0  0  0  0  0  0  0  0
  -17.5746   24.6274  -86.5155 O   0  0  0  0  0  0  0  0  0  0  0  0
  -18.1927   23.1295  -86.9401 P   0  0  2  0  0  5  0  0  0  0  0  0
  -17.3431   21.8736  -86.2068 O   0  0  0  0  0  0  0  0  0  0  0  0
  -18.2611   23.0075  -88.4279 O   0  0  0  0  0  0  0  0  0  0  0  0
  -19.8039   23.0722  -86.3650 O   0  0  0  0  0  0  0  0  0  0  0  0
  1  2  1  0
  1  6  1  0
  1  7  1  1
  2  3  1  0
  2 12  1  6
  3  4  1  0
  3 17  1  1
  4  5  1  0
  4 22  1  6
  5  6  1  0
  5 27  1  1
  6 32  1  1
  7  8  1  0
  8  9  1  1
  8 10  2  0
  8 11  1  0
 12 13  1  0
 13 14  1  1
 13 15  1  0
 13 16  2  0
 17 18  1  0
 18 19  2  0
 18 20  1  6
 18 21  1  0
 22 23  1  0
 23 24  2  0
 23 25  1  6
 23 26  1  0
 27 28  1  0
 28 29  2  0
 28 30  1  1
 28 31  1  0
 32 33  1  0
 33 34  1  1
 33 35  2  0
 33 36  1  0
M  END
$$$$
