
     RDKit          3D

 36 36  0  0  0  0  0  0  0  0999 V2000
    3.8404   -9.7415  -84.9402 C   0  0  2  0  0  0  0  0  0  0  0  0
    3.0958   -8.9162  -85.9702 C   0  0  2  0  0  0  0  0  0  0  0  0
    4.1669   -8.3876  -86.8920 C   0  0  1  0  0  0  0  0  0  0  0  0
    4.8375   -7.2986  -86.0583 C   0  0  2  0  0  0  0  0  0  0  0  0
    5.5978   -7.9179  -84.9259 C   0  0  1  0  0  0  0  0  0  0  0  0
    4.8300   -8.9482  -84.1499 C   0  0  2  0  0  0  0  0  0  0  0  0
    4.4101  -10.8121  -85.6284 O   0  0  0  0  0  0  0  0  0  0  0  0
    3.7530  -12.2957  -85.1475 P   0  0  2  0  0  5  0  0  0  0  0  0
    5.0271  -13.4005  -84.9814 O   0  0  0  0  0  0  0  0  0  0  0  0
    2.7055  -12.7823  -86.1007 O   0  0  0  0  0  0  0  0  0  0  0  0
    3.0670  -12.1140  -83.6003 O   0  0  0  0  0  0  0  0  0  0  0  0
    2.3181   -7.9694  -85.3978 O   0  0  0  0  0  0  0  0  0  0  0  0
    0.6938   -8.0418  -85.7079 P   0  0  1  0  0  5  0  0  0  0  0  0
    0.0755   -9.6059  -85.7634 O   0  0  0  0  0  0  0  0  0  0  0  0
   -0.1981   -7.1317  -84.5752 O   0  0  0  0  0  0  0  0  0  0  0  0
    0.4349   -7.4110  -87.0645 O   0  0  0  0  0  0  0  0  0  0  0  0
    5.0168   -9.3152  -87.3755 O   0  0  0  0  0  0  0  0  0  0  0  0
    5.1733   -9.3439  -89.0462 P   0  0  2  0  0  5  0  0  0  0  0  0
    6.3767   -8.5235  -89.4516 O   0  0  0  0  0  0  0  0  0  0  0  0
    3.8036   -8.5551  -89.6838 O   0  0  0  0  0  0  0  0  0  0  0  0
    5.2293  -10.9066  -89.6298 O   0  0  0  0  0  0  0  0  0  0  0  0
    3.9696   -6.3120  -85.7177 O   0  0  0  0  0  0  0  0  0  0  0  0
    4.4148   -4.7684  -86.1556 P   0  0  2  0  0  5  0  0  0  0  0  0
    4.4484   -3.9133  -84.9037 O   0  0  0  0  0  0  0  0  0  0  0  0
    3.1771   -4.1194  -87.1441 O   0  0  0  0  0  0  0  0  0  0  0  0
    5.8484   -4.6813  -86.9908 O   0  0  0  0  0  0  0  0  0  0  0  0
    6.7927   -8.4892  -85.2926 O   0  0  0  0  0  0  0  0  0  0  0  0
    8.0827   -8.2868  -84.3207 P   0  0  1  0  0  5  0  0  0  0  0  0
    8.7734   -9.5441  -83.8677 O   0  0  0  0  0  0  0  0  0  0  0  0
    9.2560   -7.3729  -85.1486 O   0  0  0  0  0  0  0  0  0  0  0  0
    7.6246   -7.3299  -82.9763 O   0  0  0  0  0  0  0  0  0  0  0  0
    5.6753   -9.8861  -83.5509 O   0  0  0  0  0  0  0  0  0  0  0  0
    5.5691  -11.4034  -84.2527 P   0  0  2  0  0  5  0  0  0  0  0  0
    6.4745  -11.5000  -85.6696 O   0  0  0  0  0  0  0  0  0  0  0  0
    4.1354  -11.7811  -84.4400 O   0  0  0  0  0  0  0  0  0  0  0  0
    6.2318  -12.5183  -83.1356 O   0  0  0  0  0  0  0  0  0  0  0  0
  1  2  1  0
  1  6  1  0
  1  7  1  6
  2  3  1  0
  2 12  1  1
  3  4  1  0
  3 17  1  1
  4  5  1  0
  4 22  1  1
  5  6  1  0
  5 27  1  6
  6 32  1  6
  7  8  1  0
  8  9  1  1
  8 10  2  0
  8 11  1  0
 12 13  1  0
 13 14  1  6
 13 15  1  0
 13 16  2  0
 17 18  1  0
 18 19  2  0
 18 20  1  6
 18 21  1  0
 22 23  1  0
 23 24  2  0
 23 25  1  6
 23 26  1  0
 27 28  1  0
 28 29  2  0
 28 30  1  6
 28 31  1  0
 32 33  1  0
 33 34  1  6
 33 35  2  0
 33 36  1  0
M  END
$$$$
