
     RDKit          3D

 36 36  0  0  0  0  0  0  0  0999 V2000
    8.4994  -21.8387  -79.8009 C   0  0  2  0  0  0  0  0  0  0  0  0
    9.3975  -21.1962  -78.7698 C   0  0  2  0  0  0  0  0  0  0  0  0
    9.4588  -22.0981  -77.5519 C   0  0  1  0  0  0  0  0  0  0  0  0
   10.0955  -23.4206  -77.8721 C   0  0  2  0  0  0  0  0  0  0  0  0
   10.2295  -23.6115  -79.3784 C   0  0  1  0  0  0  0  0  0  0  0  0
    8.9177  -23.2501  -80.0378 C   0  0  2  0  0  0  0  0  0  0  0  0
    8.5339  -21.0964  -80.9762 O   0  0  0  0  0  0  0  0  0  0  0  0
    7.3275  -21.5579  -82.0578 P   0  0  2  0  0  5  0  0  0  0  0  0
    7.8252  -22.8543  -83.0190 O   0  0  0  0  0  0  0  0  0  0  0  0
    6.9892  -20.3403  -82.9096 O   0  0  0  0  0  0  0  0  0  0  0  0
    5.9612  -21.9942  -81.1358 O   0  0  0  0  0  0  0  0  0  0  0  0
    8.7759  -20.0024  -78.3847 O   0  0  0  0  0  0  0  0  0  0  0  0
    7.3573  -20.3110  -77.5125 P   0  0  1  0  0  5  0  0  0  0  0  0
    6.9647  -21.9452  -77.7860 O   0  0  0  0  0  0  0  0  0  0  0  0
    7.5826  -20.1101  -75.8570 O   0  0  0  0  0  0  0  0  0  0  0  0
    6.2373  -19.4434  -78.0234 O   0  0  0  0  0  0  0  0  0  0  0  0
   10.1506  -21.3835  -76.5828 O   0  0  0  0  0  0  0  0  0  0  0  0
    9.2034  -20.7155  -75.4057 P   0  0  2  0  0  5  0  0  0  0  0  0
    8.0546  -21.5797  -74.9661 O   0  0  0  0  0  0  0  0  0  0  0  0
    8.5522  -19.2567  -75.9645 O   0  0  0  0  0  0  0  0  0  0  0  0
   10.2062  -20.3152  -74.0800 O   0  0  0  0  0  0  0  0  0  0  0  0
    9.2226  -24.4293  -77.4361 O   0  0  0  0  0  0  0  0  0  0  0  0
    9.7548  -25.2103  -76.0665 P   0  0  2  0  0  5  0  0  0  0  0  0
    9.8278  -24.3400  -74.8513 O   0  0  0  0  0  0  0  0  0  0  0  0
   11.2543  -25.9304  -76.4228 O   0  0  0  0  0  0  0  0  0  0  0  0
    8.6658  -26.4756  -75.7302 O   0  0  0  0  0  0  0  0  0  0  0  0
   11.3112  -22.9542  -79.9070 O   0  0  0  0  0  0  0  0  0  0  0  0
   12.1689  -23.8711  -81.0373 P   0  0  1  0  0  5  0  0  0  0  0  0
   11.9475  -23.3739  -82.4456 O   0  0  0  0  0  0  0  0  0  0  0  0
   13.8386  -23.7822  -80.7360 O   0  0  0  0  0  0  0  0  0  0  0  0
   11.7362  -25.4980  -80.9947 O   0  0  0  0  0  0  0  0  0  0  0  0
    8.9941  -23.5811  -81.3894 O   0  0  0  0  0  0  0  0  0  0  0  0
    8.9881  -22.2223  -82.3702 P   0  0  2  0  0  5  0  0  0  0  0  0
   10.5560  -21.5971  -82.4428 O   0  0  0  0  0  0  0  0  0  0  0  0
    8.0232  -21.1881  -81.8061 O   0  0  0  0  0  0  0  0  0  0  0  0
    8.5262  -22.6496  -83.9410 O   0  0  0  0  0  0  0  0  0  0  0  0
  1  2  1  0
  1  6  1  0
  1  7  1  6
  2  3  1  0
  2 12  1  1
  3  4  1  0
  3 17  1  1
  4  5  1  0
  4 22  1  6
  5  6  1  0
  5 27  1  6
  6 32  1  6
  7  8  1  0
  8  9  1  6
  8 10  2  0
  8 11  1  0
 12 13  1  0
 13 14  1  1
 13 15  1  0
 13 16  2  0
 17 18  1  0
 18 19  2  0
 18 20  1  6
 18 21  1  0
 22 23  1  0
 23 24  2  0
 23 25  1  6
 23 26  1  0
 27 28  1  0
 28 29  2  0
 28 30  1  1
 28 31  1  0
 32 33  1  0
 33 34  1  6
 33 35  2  0
 33 36  1  0
M  END
$$$$
