
     RDKit          3D

 36 36  0  0  0  0  0  0  0  0999 V2000
  -14.5603   25.3129  -85.1137 C   0  0  2  0  0  0  0  0  0  0  0  0
  -13.1707   24.9871  -85.6228 C   0  0  2  0  0  0  0  0  0  0  0  0
  -13.0079   25.8226  -86.8686 C   0  0  1  0  0  0  0  0  0  0  0  0
  -13.8823   25.0991  -87.8898 C   0  0  2  0  0  0  0  0  0  0  0  0
  -15.3272   25.2553  -87.5267 C   0  0  1  0  0  0  0  0  0  0  0  0
  -15.6418   24.9713  -86.0866 C   0  0  2  0  0  0  0  0  0  0  0  0
  -14.5433   26.6597  -84.7530 O   0  0  0  0  0  0  0  0  0  0  0  0
  -15.1937   26.9106  -83.2108 P   0  0  2  0  0  5  0  0  0  0  0  0
  -14.0609   26.3685  -82.0731 O   0  0  0  0  0  0  0  0  0  0  0  0
  -16.5232   26.2416  -83.0455 O   0  0  0  0  0  0  0  0  0  0  0  0
  -15.3693   28.5846  -82.9572 O   0  0  0  0  0  0  0  0  0  0  0  0
  -12.9925   23.6583  -85.8003 O   0  0  0  0  0  0  0  0  0  0  0  0
  -11.7676   22.9432  -84.9471 P   0  0  1  0  0  5  0  0  0  0  0  0
  -10.6843   22.0760  -85.8992 O   0  0  0  0  0  0  0  0  0  0  0  0
  -10.9034   24.0850  -84.0217 O   0  0  0  0  0  0  0  0  0  0  0  0
  -12.3774   21.9640  -83.9599 O   0  0  0  0  0  0  0  0  0  0  0  0
  -13.2959   27.1313  -86.7235 O   0  0  0  0  0  0  0  0  0  0  0  0
  -12.1566   28.1909  -87.3524 P   0  0  2  0  0  5  0  0  0  0  0  0
  -10.7722   27.6191  -87.1472 O   0  0  0  0  0  0  0  0  0  0  0  0
  -12.2420   29.6165  -86.4223 O   0  0  0  0  0  0  0  0  0  0  0  0
  -12.4753   28.5564  -88.9495 O   0  0  0  0  0  0  0  0  0  0  0  0
  -13.4622   23.8269  -88.1084 O   0  0  0  0  0  0  0  0  0  0  0  0
  -13.4897   23.3140  -89.6924 P   0  0  2  0  0  5  0  0  0  0  0  0
  -13.3878   24.5348  -90.5862 O   0  0  0  0  0  0  0  0  0  0  0  0
  -15.0255   22.6236  -90.0001 O   0  0  0  0  0  0  0  0  0  0  0  0
  -12.3273   22.1873  -90.0664 O   0  0  0  0  0  0  0  0  0  0  0  0
  -15.8550   26.4887  -87.8247 O   0  0  0  0  0  0  0  0  0  0  0  0
  -17.0884   26.5721  -88.8836 P   0  0  1  0  0  5  0  0  0  0  0  0
  -16.9028   25.8242  -90.1755 O   0  0  0  0  0  0  0  0  0  0  0  0
  -18.4826   25.9219  -88.1550 O   0  0  0  0  0  0  0  0  0  0  0  0
  -17.4563   28.2175  -89.1842 O   0  0  0  0  0  0  0  0  0  0  0  0
  -16.7741   25.6666  -85.6538 O   0  0  0  0  0  0  0  0  0  0  0  0
  -18.1203   24.6838  -85.4871 P   0  0  2  0  0  5  0  0  0  0  0  0
  -18.5990   24.5493  -83.8779 O   0  0  0  0  0  0  0  0  0  0  0  0
  -17.8742   23.3638  -86.1432 O   0  0  0  0  0  0  0  0  0  0  0  0
  -19.3960   25.4330  -86.3479 O   0  0  0  0  0  0  0  0  0  0  0  0
  1  2  1  0
  1  6  1  0
  1  7  1  6
  2  3  1  0
  2 12  1  6
  3  4  1  0
  3 17  1  1
  4  5  1  0
  4 22  1  1
  5  6  1  0
  5 27  1  1
  6 32  1  1
  7  8  1  0
  8  9  1  1
  8 10  2  0
  8 11  1  0
 12 13  1  0
 13 14  1  6
 13 15  1  0
 13 16  2  0
 17 18  1  0
 18 19  2  0
 18 20  1  1
 18 21  1  0
 22 23  1  0
 23 24  2  0
 23 25  1  6
 23 26  1  0
 27 28  1  0
 28 29  2  0
 28 30  1  1
 28 31  1  0
 32 33  1  0
 33 34  1  1
 33 35  2  0
 33 36  1  0
M  END
$$$$
