
     RDKit          3D

 36 36  0  0  0  0  0  0  0  0999 V2000
    8.3899  -22.5933  -78.4990 C   0  0  2  0  0  0  0  0  0  0  0  0
    9.0284  -21.5607  -79.3984 C   0  0  2  0  0  0  0  0  0  0  0  0
    8.1169  -20.3506  -79.4692 C   0  0  1  0  0  0  0  0  0  0  0  0
    7.9734  -19.6846  -78.1303 C   0  0  2  0  0  0  0  0  0  0  0  0
    8.5298  -20.5673  -77.0191 C   0  0  1  0  0  0  0  0  0  0  0  0
    8.0039  -21.9733  -77.1991 C   0  0  2  0  0  0  0  0  0  0  0  0
    9.2678  -23.6554  -78.3124 O   0  0  0  0  0  0  0  0  0  0  0  0
    9.1074  -24.8330  -79.5063 P   0  0  2  0  0  5  0  0  0  0  0  0
    9.9117  -24.3872  -80.9230 O   0  0  0  0  0  0  0  0  0  0  0  0
    7.6168  -25.0262  -79.7583 O   0  0  0  0  0  0  0  0  0  0  0  0
    9.7626  -26.2784  -78.8827 O   0  0  0  0  0  0  0  0  0  0  0  0
    9.0871  -22.1251  -80.6782 O   0  0  0  0  0  0  0  0  0  0  0  0
    7.8899  -21.4741  -81.6837 P   0  0  1  0  0  5  0  0  0  0  0  0
    7.9712  -22.3304  -83.1533 O   0  0  0  0  0  0  0  0  0  0  0  0
    6.3477  -21.6963  -81.0479 O   0  0  0  0  0  0  0  0  0  0  0  0
    8.1709  -20.0180  -81.9462 O   0  0  0  0  0  0  0  0  0  0  0  0
    8.6654  -19.5161  -80.4341 O   0  0  0  0  0  0  0  0  0  0  0  0
    7.5651  -18.7897  -81.4295 P   0  0  2  0  0  5  0  0  0  0  0  0
    7.6641  -19.2010  -82.8720 O   0  0  0  0  0  0  0  0  0  0  0  0
    7.7699  -17.1108  -81.3685 O   0  0  0  0  0  0  0  0  0  0  0  0
    6.0017  -19.1038  -80.8128 O   0  0  0  0  0  0  0  0  0  0  0  0
    6.6014  -19.5560  -77.8641 O   0  0  0  0  0  0  0  0  0  0  0  0
    6.2042  -18.1038  -77.1555 P   0  0  2  0  0  5  0  0  0  0  0  0
    7.1030  -17.7032  -76.0282 O   0  0  0  0  0  0  0  0  0  0  0  0
    4.5755  -18.1851  -76.6709 O   0  0  0  0  0  0  0  0  0  0  0  0
    6.3050  -16.8947  -78.3503 O   0  0  0  0  0  0  0  0  0  0  0  0
    9.8959  -20.4993  -76.9151 O   0  0  0  0  0  0  0  0  0  0  0  0
   10.4272  -19.8465  -75.4503 P   0  0  1  0  0  5  0  0  0  0  0  0
    9.3630  -18.9985  -74.7964 O   0  0  0  0  0  0  0  0  0  0  0  0
   10.8213  -21.0823  -74.3530 O   0  0  0  0  0  0  0  0  0  0  0  0
   11.7988  -18.8886  -75.6426 O   0  0  0  0  0  0  0  0  0  0  0  0
    8.3818  -22.7337  -76.0939 O   0  0  0  0  0  0  0  0  0  0  0  0
    9.3897  -24.0030  -76.5197 P   0  0  2  0  0  5  0  0  0  0  0  0
    9.0136  -24.4920  -78.0925 O   0  0  0  0  0  0  0  0  0  0  0  0
    9.2043  -25.1545  -75.5405 O   0  0  0  0  0  0  0  0  0  0  0  0
   11.0009  -23.4861  -76.5079 O   0  0  0  0  0  0  0  0  0  0  0  0
  1  2  1  0
  1  6  1  0
  1  7  1  1
  2  3  1  0
  2 12  1  6
  3  4  1  0
  3 17  1  6
  4  5  1  0
  4 22  1  1
  5  6  1  0
  5 27  1  6
  6 32  1  1
  7  8  1  0
  8  9  1  6
  8 10  2  0
  8 11  1  0
 12 13  1  0
 13 14  1  6
 13 15  1  0
 13 16  2  0
 17 18  1  0
 18 19  2  0
 18 20  1  6
 18 21  1  0
 22 23  1  0
 23 24  2  0
 23 25  1  1
 23 26  1  0
 27 28  1  0
 28 29  2  0
 28 30  1  1
 28 31  1  0
 32 33  1  0
 33 34  1  6
 33 35  2  0
 33 36  1  0
M  END
$$$$
