
     RDKit          3D

 36 36  0  0  0  0  0  0  0  0999 V2000
    0.9553   -2.5591  -87.5227 C   0  0  2  0  0  0  0  0  0  0  0  0
    0.3827   -2.8197  -88.8964 C   0  0  2  0  0  0  0  0  0  0  0  0
    0.2771   -4.3189  -89.1003 C   0  0  1  0  0  0  0  0  0  0  0  0
   -0.6906   -4.9435  -88.1359 C   0  0  2  0  0  0  0  0  0  0  0  0
   -1.0696   -3.9638  -87.0314 C   0  0  1  0  0  0  0  0  0  0  0  0
    0.1880   -3.3188  -86.4944 C   0  0  2  0  0  0  0  0  0  0  0  0
    0.9369   -1.1934  -87.2616 O   0  0  0  0  0  0  0  0  0  0  0  0
   -0.6232   -0.5587  -87.2939 P   0  0  2  0  0  5  0  0  0  0  0  0
   -0.6873    0.9563  -86.5501 O   0  0  0  0  0  0  0  0  0  0  0  0
   -1.5355   -1.5558  -86.5893 O   0  0  0  0  0  0  0  0  0  0  0  0
   -1.0855   -0.4354  -88.9305 O   0  0  0  0  0  0  0  0  0  0  0  0
    1.3145   -2.3289  -89.8188 O   0  0  0  0  0  0  0  0  0  0  0  0
    2.8199   -3.0781  -89.6172 P   0  0  1  0  0  5  0  0  0  0  0  0
    2.6271   -4.6967  -90.1098 O   0  0  0  0  0  0  0  0  0  0  0  0
    4.0017   -2.3844  -90.5940 O   0  0  0  0  0  0  0  0  0  0  0  0
    3.2212   -3.0496  -88.1658 O   0  0  0  0  0  0  0  0  0  0  0  0
   -0.0883   -4.4981  -90.4280 O   0  0  0  0  0  0  0  0  0  0  0  0
    0.4086   -5.9242  -91.0976 P   0  0  2  0  0  5  0  0  0  0  0  0
    1.8818   -6.1934  -90.9667 O   0  0  0  0  0  0  0  0  0  0  0  0
    0.0393   -5.9320  -92.7493 O   0  0  0  0  0  0  0  0  0  0  0  0
   -0.5057   -7.1876  -90.3969 O   0  0  0  0  0  0  0  0  0  0  0  0
   -0.0288   -6.0026  -87.4956 O   0  0  0  0  0  0  0  0  0  0  0  0
   -0.9839   -7.3514  -87.3022 P   0  0  2  0  0  5  0  0  0  0  0  0
   -0.5074   -8.2959  -86.2438 O   0  0  0  0  0  0  0  0  0  0  0  0
   -1.1271   -8.1140  -88.8161 O   0  0  0  0  0  0  0  0  0  0  0  0
   -2.5437   -6.8282  -86.8624 O   0  0  0  0  0  0  0  0  0  0  0  0
   -2.0277   -3.0627  -87.4209 O   0  0  0  0  0  0  0  0  0  0  0  0
   -3.5179   -3.2942  -86.6596 P   0  0  1  0  0  5  0  0  0  0  0  0
   -3.5110   -4.5183  -85.7758 O   0  0  0  0  0  0  0  0  0  0  0  0
   -3.8950   -1.9675  -85.6675 O   0  0  0  0  0  0  0  0  0  0  0  0
   -4.7756   -3.4684  -87.7657 O   0  0  0  0  0  0  0  0  0  0  0  0
   -0.1474   -2.5509  -85.3807 O   0  0  0  0  0  0  0  0  0  0  0  0
    0.4708   -0.9965  -85.4800 P   0  0  2  0  0  5  0  0  0  0  0  0
    2.1072   -1.0344  -85.0617 O   0  0  0  0  0  0  0  0  0  0  0  0
   -0.3018   -0.0775  -84.5433 O   0  0  0  0  0  0  0  0  0  0  0  0
    0.3546   -0.4325  -87.0711 O   0  0  0  0  0  0  0  0  0  0  0  0
  1  2  1  0
  1  6  1  0
  1  7  1  1
  2  3  1  0
  2 12  1  6
  3  4  1  0
  3 17  1  6
  4  5  1  0
  4 22  1  1
  5  6  1  0
  5 27  1  6
  6 32  1  1
  7  8  1  0
  8  9  1  1
  8 10  2  0
  8 11  1  0
 12 13  1  0
 13 14  1  6
 13 15  1  0
 13 16  2  0
 17 18  1  0
 18 19  2  0
 18 20  1  6
 18 21  1  0
 22 23  1  0
 23 24  2  0
 23 25  1  6
 23 26  1  0
 27 28  1  0
 28 29  2  0
 28 30  1  1
 28 31  1  0
 32 33  1  0
 33 34  1  1
 33 35  2  0
 33 36  1  0
M  END
$$$$
