
     RDKit          3D

 36 36  0  0  0  0  0  0  0  0999 V2000
    9.4164  -22.5270  -80.8841 C   0  0  2  0  0  0  0  0  0  0  0  0
    9.1823  -21.0470  -80.6906 C   0  0  2  0  0  0  0  0  0  0  0  0
    8.2721  -20.8535  -79.4929 C   0  0  1  0  0  0  0  0  0  0  0  0
    8.9179  -21.3283  -78.2224 C   0  0  2  0  0  0  0  0  0  0  0  0
   10.1722  -22.1422  -78.5187 C   0  0  1  0  0  0  0  0  0  0  0  0
    9.8598  -23.1483  -79.6033 C   0  0  2  0  0  0  0  0  0  0  0  0
   10.3534  -22.7226  -81.8927 O   0  0  0  0  0  0  0  0  0  0  0  0
    9.7131  -23.5646  -83.2038 P   0  0  2  0  0  5  0  0  0  0  0  0
   10.7064  -23.4349  -84.5635 O   0  0  0  0  0  0  0  0  0  0  0  0
    8.3272  -22.9933  -83.4793 O   0  0  0  0  0  0  0  0  0  0  0  0
    9.5633  -25.1965  -82.7329 O   0  0  0  0  0  0  0  0  0  0  0  0
    8.4951  -20.5981  -81.8247 O   0  0  0  0  0  0  0  0  0  0  0  0
    7.7882  -19.0845  -81.5460 P   0  0  1  0  0  5  0  0  0  0  0  0
    8.5744  -17.9833  -82.5799 O   0  0  0  0  0  0  0  0  0  0  0  0
    6.1519  -19.0745  -81.9386 O   0  0  0  0  0  0  0  0  0  0  0  0
    8.0126  -18.6645  -80.1172 O   0  0  0  0  0  0  0  0  0  0  0  0
    7.9565  -19.5014  -79.4685 O   0  0  0  0  0  0  0  0  0  0  0  0
    6.4214  -19.1565  -78.9648 P   0  0  2  0  0  5  0  0  0  0  0  0
    5.3549  -19.4251  -79.9897 O   0  0  0  0  0  0  0  0  0  0  0  0
    6.3182  -17.5198  -78.5465 O   0  0  0  0  0  0  0  0  0  0  0  0
    6.1223  -20.0369  -77.5300 O   0  0  0  0  0  0  0  0  0  0  0  0
    8.0269  -22.2147  -77.5980 O   0  0  0  0  0  0  0  0  0  0  0  0
    7.9222  -21.9888  -75.9527 P   0  0  2  0  0  5  0  0  0  0  0  0
    7.0155  -20.8715  -75.5417 O   0  0  0  0  0  0  0  0  0  0  0  0
    9.4996  -21.7808  -75.3506 O   0  0  0  0  0  0  0  0  0  0  0  0
    7.3159  -23.4243  -75.2660 O   0  0  0  0  0  0  0  0  0  0  0  0
   11.2656  -21.3601  -78.7912 O   0  0  0  0  0  0  0  0  0  0  0  0
   12.6410  -21.7974  -77.9131 P   0  0  1  0  0  5  0  0  0  0  0  0
   13.5730  -22.6628  -78.7267 O   0  0  0  0  0  0  0  0  0  0  0  0
   13.5196  -20.4183  -77.4521 O   0  0  0  0  0  0  0  0  0  0  0  0
   12.2553  -22.6409  -76.5076 O   0  0  0  0  0  0  0  0  0  0  0  0
   10.9573  -23.9941  -79.7538 O   0  0  0  0  0  0  0  0  0  0  0  0
   12.0018  -23.4608  -80.9508 P   0  0  2  0  0  5  0  0  0  0  0  0
   13.4041  -22.8632  -80.2223 O   0  0  0  0  0  0  0  0  0  0  0  0
   11.3225  -22.3772  -81.7775 O   0  0  0  0  0  0  0  0  0  0  0  0
   12.4450  -24.7561  -81.9455 O   0  0  0  0  0  0  0  0  0  0  0  0
  1  2  1  0
  1  6  1  0
  1  7  1  6
  2  3  1  0
  2 12  1  6
  3  4  1  0
  3 17  1  1
  4  5  1  0
  4 22  1  6
  5  6  1  0
  5 27  1  6
  6 32  1  6
  7  8  1  0
  8  9  1  6
  8 10  2  0
  8 11  1  0
 12 13  1  0
 13 14  1  6
 13 15  1  0
 13 16  2  0
 17 18  1  0
 18 19  2  0
 18 20  1  1
 18 21  1  0
 22 23  1  0
 23 24  2  0
 23 25  1  1
 23 26  1  0
 27 28  1  0
 28 29  2  0
 28 30  1  1
 28 31  1  0
 32 33  1  0
 33 34  1  1
 33 35  2  0
 33 36  1  0
M  END
$$$$
