
     RDKit          3D

 36 36  0  0  0  0  0  0  0  0999 V2000
    8.0660  -21.3764  -78.3518 C   0  0  2  0  0  0  0  0  0  0  0  0
    6.8756  -20.4807  -78.0740 C   0  0  2  0  0  0  0  0  0  0  0  0
    7.2566  -19.1392  -78.6500 C   0  0  1  0  0  0  0  0  0  0  0  0
    8.2772  -18.6068  -77.6471 C   0  0  2  0  0  0  0  0  0  0  0  0
    9.5373  -19.4130  -77.7240 C   0  0  1  0  0  0  0  0  0  0  0  0
    9.3278  -20.8993  -77.7090 C   0  0  2  0  0  0  0  0  0  0  0  0
    8.1586  -21.4921  -79.7382 O   0  0  0  0  0  0  0  0  0  0  0  0
    8.6050  -23.0534  -80.2151 P   0  0  2  0  0  5  0  0  0  0  0  0
    7.2106  -24.0165  -80.2162 O   0  0  0  0  0  0  0  0  0  0  0  0
    9.6818  -23.6215  -79.3432 O   0  0  0  0  0  0  0  0  0  0  0  0
    9.1540  -22.9972  -81.8253 O   0  0  0  0  0  0  0  0  0  0  0  0
    6.5456  -20.4651  -76.7627 O   0  0  0  0  0  0  0  0  0  0  0  0
    5.0562  -21.0609  -76.3548 P   0  0  1  0  0  5  0  0  0  0  0  0
    5.0918  -22.2195  -75.1348 O   0  0  0  0  0  0  0  0  0  0  0  0
    3.9875  -19.8114  -75.9033 O   0  0  0  0  0  0  0  0  0  0  0  0
    4.4506  -21.7215  -77.5803 O   0  0  0  0  0  0  0  0  0  0  0  0
    7.6961  -19.1655  -79.9239 O   0  0  0  0  0  0  0  0  0  0  0  0
    6.5020  -19.3286  -81.0918 P   0  0  2  0  0  5  0  0  0  0  0  0
    6.4230  -20.7732  -81.5304 O   0  0  0  0  0  0  0  0  0  0  0  0
    7.0121  -18.4309  -82.4478 O   0  0  0  0  0  0  0  0  0  0  0  0
    5.0370  -18.7335  -80.5578 O   0  0  0  0  0  0  0  0  0  0  0  0
    7.7437  -18.4613  -76.4073 O   0  0  0  0  0  0  0  0  0  0  0  0
    6.8674  -17.0687  -76.1514 P   0  0  2  0  0  5  0  0  0  0  0  0
    7.3811  -16.0057  -77.1031 O   0  0  0  0  0  0  0  0  0  0  0  0
    7.2154  -16.5052  -74.5730 O   0  0  0  0  0  0  0  0  0  0  0  0
    5.2226  -17.2617  -76.2851 O   0  0  0  0  0  0  0  0  0  0  0  0
   10.3288  -19.1229  -78.8095 O   0  0  0  0  0  0  0  0  0  0  0  0
   11.9452  -19.1320  -78.6186 P   0  0  1  0  0  5  0  0  0  0  0  0
   12.6471  -20.4118  -78.9829 O   0  0  0  0  0  0  0  0  0  0  0  0
   12.6218  -17.9221  -79.6064 O   0  0  0  0  0  0  0  0  0  0  0  0
   12.3207  -18.6720  -77.0123 O   0  0  0  0  0  0  0  0  0  0  0  0
   10.3631  -21.5780  -78.3574 O   0  0  0  0  0  0  0  0  0  0  0  0
   10.0029  -23.1863  -78.6573 P   0  0  2  0  0  5  0  0  0  0  0  0
    9.1791  -23.3798  -80.1135 O   0  0  0  0  0  0  0  0  0  0  0  0
    9.2833  -23.7759  -77.4878 O   0  0  0  0  0  0  0  0  0  0  0  0
   11.4940  -24.0163  -78.7896 O   0  0  0  0  0  0  0  0  0  0  0  0
  1  2  1  0
  1  6  1  0
  1  7  1  6
  2  3  1  0
  2 12  1  1
  3  4  1  0
  3 17  1  6
  4  5  1  0
  4 22  1  1
  5  6  1  0
  5 27  1  6
  6 32  1  6
  7  8  1  0
  8  9  1  6
  8 10  2  0
  8 11  1  0
 12 13  1  0
 13 14  1  1
 13 15  1  0
 13 16  2  0
 17 18  1  0
 18 19  2  0
 18 20  1  6
 18 21  1  0
 22 23  1  0
 23 24  2  0
 23 25  1  1
 23 26  1  0
 27 28  1  0
 28 29  2  0
 28 30  1  6
 28 31  1  0
 32 33  1  0
 33 34  1  6
 33 35  2  0
 33 36  1  0
M  END
$$$$
