
     RDKit          3D

 36 36  0  0  0  0  0  0  0  0999 V2000
    7.0030  -17.6522  -76.7724 C   0  0  2  0  0  0  0  0  0  0  0  0
    6.5468  -19.0343  -76.3668 C   0  0  2  0  0  0  0  0  0  0  0  0
    7.6155  -20.0335  -76.7666 C   0  0  1  0  0  0  0  0  0  0  0  0
    8.9000  -19.7995  -76.0236 C   0  0  2  0  0  0  0  0  0  0  0  0
    8.8778  -18.4557  -75.3047 C   0  0  1  0  0  0  0  0  0  0  0  0
    8.3797  -17.3955  -76.2607 C   0  0  2  0  0  0  0  0  0  0  0  0
    6.1017  -16.7059  -76.2974 O   0  0  0  0  0  0  0  0  0  0  0  0
    4.5494  -16.9402  -76.9084 P   0  0  2  0  0  5  0  0  0  0  0  0
    4.1893  -18.5832  -77.0613 O   0  0  0  0  0  0  0  0  0  0  0  0
    4.4794  -16.2346  -78.2575 O   0  0  0  0  0  0  0  0  0  0  0  0
    3.4621  -16.1933  -75.8280 O   0  0  0  0  0  0  0  0  0  0  0  0
    5.3993  -19.3144  -77.1184 O   0  0  0  0  0  0  0  0  0  0  0  0
    5.4449  -18.5205  -78.6137 P   0  0  1  0  0  5  0  0  0  0  0  0
    5.1693  -19.7078  -79.8028 O   0  0  0  0  0  0  0  0  0  0  0  0
    4.2255  -17.3687  -78.7498 O   0  0  0  0  0  0  0  0  0  0  0  0
    6.8039  -17.9098  -78.8334 O   0  0  0  0  0  0  0  0  0  0  0  0
    7.0719  -21.2889  -76.5282 O   0  0  0  0  0  0  0  0  0  0  0  0
    6.9537  -22.2580  -77.8608 P   0  0  2  0  0  5  0  0  0  0  0  0
    6.1672  -21.6629  -78.9954 O   0  0  0  0  0  0  0  0  0  0  0  0
    6.2031  -23.7141  -77.4359 O   0  0  0  0  0  0  0  0  0  0  0  0
    8.5362  -22.6645  -78.3645 O   0  0  0  0  0  0  0  0  0  0  0  0
    9.9295  -19.7070  -76.9729 O   0  0  0  0  0  0  0  0  0  0  0  0
   11.0798  -20.8985  -76.8110 P   0  0  2  0  0  5  0  0  0  0  0  0
   10.5272  -22.2425  -76.4540 O   0  0  0  0  0  0  0  0  0  0  0  0
   12.2320  -20.3645  -75.6791 O   0  0  0  0  0  0  0  0  0  0  0  0
   11.8863  -21.0520  -78.3030 O   0  0  0  0  0  0  0  0  0  0  0  0
    8.1899  -18.4947  -74.1185 O   0  0  0  0  0  0  0  0  0  0  0  0
    9.0433  -17.8244  -72.8238 P   0  0  1  0  0  5  0  0  0  0  0  0
    9.7504  -16.5502  -73.2188 O   0  0  0  0  0  0  0  0  0  0  0  0
    7.9884  -17.4329  -71.5509 O   0  0  0  0  0  0  0  0  0  0  0  0
   10.2004  -18.8829  -72.2101 O   0  0  0  0  0  0  0  0  0  0  0  0
    8.5161  -16.1491  -75.6520 O   0  0  0  0  0  0  0  0  0  0  0  0
    7.0829  -15.2810  -75.6700 P   0  0  2  0  0  5  0  0  0  0  0  0
    6.8396  -14.6014  -74.1425 O   0  0  0  0  0  0  0  0  0  0  0  0
    5.9293  -16.2051  -76.0365 O   0  0  0  0  0  0  0  0  0  0  0  0
    7.1908  -14.0169  -76.7896 O   0  0  0  0  0  0  0  0  0  0  0  0
  1  2  1  0
  1  6  1  0
  1  7  1  1
  2  3  1  0
  2 12  1  6
  3  4  1  0
  3 17  1  1
  4  5  1  0
  4 22  1  6
  5  6  1  0
  5 27  1  1
  6 32  1  1
  7  8  1  0
  8  9  1  6
  8 10  2  0
  8 11  1  0
 12 13  1  0
 13 14  1  6
 13 15  1  0
 13 16  2  0
 17 18  1  0
 18 19  2  0
 18 20  1  1
 18 21  1  0
 22 23  1  0
 23 24  2  0
 23 25  1  1
 23 26  1  0
 27 28  1  0
 28 29  2  0
 28 30  1  1
 28 31  1  0
 32 33  1  0
 33 34  1  1
 33 35  2  0
 33 36  1  0
M  END
$$$$
