
     RDKit          3D

 36 36  0  0  0  0  0  0  0  0999 V2000
  -15.9016   25.2625  -87.1604 C   0  0  2  0  0  0  0  0  0  0  0  0
  -15.3443   23.9678  -86.6166 C   0  0  2  0  0  0  0  0  0  0  0  0
  -13.8302   24.0572  -86.6107 C   0  0  1  0  0  0  0  0  0  0  0  0
  -13.3411   25.1289  -85.6785 C   0  0  2  0  0  0  0  0  0  0  0  0
  -14.4882   26.0258  -85.2279 C   0  0  1  0  0  0  0  0  0  0  0  0
  -15.3057   26.4219  -86.4366 C   0  0  2  0  0  0  0  0  0  0  0  0
  -17.2878   25.2557  -87.0508 O   0  0  0  0  0  0  0  0  0  0  0  0
  -17.9884   23.9799  -87.8991 P   0  0  2  0  0  5  0  0  0  0  0  0
  -18.7179   22.8722  -86.8536 O   0  0  0  0  0  0  0  0  0  0  0  0
  -16.8870   23.3185  -88.7189 O   0  0  0  0  0  0  0  0  0  0  0  0
  -19.1475   24.6502  -88.9549 O   0  0  0  0  0  0  0  0  0  0  0  0
  -15.7081   22.9633  -87.5213 O   0  0  0  0  0  0  0  0  0  0  0  0
  -17.3441   23.0884  -87.9408 P   0  0  1  0  0  5  0  0  0  0  0  0
  -17.8172   24.6843  -87.5820 O   0  0  0  0  0  0  0  0  0  0  0  0
  -17.5904   22.8407  -89.5870 O   0  0  0  0  0  0  0  0  0  0  0  0
  -18.1643   22.1340  -87.1134 O   0  0  0  0  0  0  0  0  0  0  0  0
  -13.3750   22.7909  -86.2679 O   0  0  0  0  0  0  0  0  0  0  0  0
  -13.1760   21.7572  -87.5411 P   0  0  2  0  0  5  0  0  0  0  0  0
  -11.7634   21.2847  -87.7442 O   0  0  0  0  0  0  0  0  0  0  0  0
  -13.6627   22.5213  -88.9707 O   0  0  0  0  0  0  0  0  0  0  0  0
  -14.2352   20.4332  -87.3216 O   0  0  0  0  0  0  0  0  0  0  0  0
  -12.4709   25.9580  -86.4031 O   0  0  0  0  0  0  0  0  0  0  0  0
  -10.8664   25.6904  -86.0525 P   0  0  2  0  0  5  0  0  0  0  0  0
  -10.5457   25.7035  -84.5909 O   0  0  0  0  0  0  0  0  0  0  0  0
   -9.9441   26.8302  -86.9152 O   0  0  0  0  0  0  0  0  0  0  0  0
  -10.4483   24.1550  -86.6587 O   0  0  0  0  0  0  0  0  0  0  0  0
  -15.2326   25.4748  -84.2160 O   0  0  0  0  0  0  0  0  0  0  0  0
  -15.1720   26.3593  -82.7781 P   0  0  1  0  0  5  0  0  0  0  0  0
  -16.4174   26.1635  -81.9473 O   0  0  0  0  0  0  0  0  0  0  0  0
  -13.8561   25.8621  -81.8252 O   0  0  0  0  0  0  0  0  0  0  0  0
  -14.9961   28.0110  -83.0556 O   0  0  0  0  0  0  0  0  0  0  0  0
  -16.2500   27.3684  -86.0432 O   0  0  0  0  0  0  0  0  0  0  0  0
  -17.7294   26.6680  -85.6838 P   0  0  2  0  0  5  0  0  0  0  0  0
  -18.3960   27.4600  -84.3486 O   0  0  0  0  0  0  0  0  0  0  0  0
  -17.5360   25.1867  -85.3881 O   0  0  0  0  0  0  0  0  0  0  0  0
  -18.7902   26.8650  -86.9873 O   0  0  0  0  0  0  0  0  0  0  0  0
  1  2  1  0
  1  6  1  0
  1  7  1  1
  2  3  1  0
  2 12  1  6
  3  4  1  0
  3 17  1  1
  4  5  1  0
  4 22  1  6
  5  6  1  0
  5 27  1  1
  6 32  1  1
  7  8  1  0
  8  9  1  1
  8 10  2  0
  8 11  1  0
 12 13  1  0
 13 14  1  1
 13 15  1  0
 13 16  2  0
 17 18  1  0
 18 19  2  0
 18 20  1  6
 18 21  1  0
 22 23  1  0
 23 24  2  0
 23 25  1  6
 23 26  1  0
 27 28  1  0
 28 29  2  0
 28 30  1  1
 28 31  1  0
 32 33  1  0
 33 34  1  1
 33 35  2  0
 33 36  1  0
M  END
$$$$
