
     RDKit          3D

 36 36  0  0  0  0  0  0  0  0999 V2000
   -2.0016   -3.4394  -55.6957 C   0  0  2  0  0  0  0  0  0  0  0  0
   -2.0546   -2.0352  -55.1407 C   0  0  2  0  0  0  0  0  0  0  0  0
   -3.0937   -1.2474  -55.9153 C   0  0  1  0  0  0  0  0  0  0  0  0
   -4.4736   -1.8089  -55.7221 C   0  0  2  0  0  0  0  0  0  0  0  0
   -4.4174   -3.1782  -55.0549 C   0  0  1  0  0  0  0  0  0  0  0  0
   -3.3733   -4.0213  -55.7515 C   0  0  2  0  0  0  0  0  0  0  0  0
   -1.1532   -4.2172  -54.9155 O   0  0  0  0  0  0  0  0  0  0  0  0
    0.1242   -3.3237  -54.2769 P   0  0  2  0  0  5  0  0  0  0  0  0
    1.5416   -4.2394  -54.2065 O   0  0  0  0  0  0  0  0  0  0  0  0
   -0.2966   -2.8548  -52.8892 O   0  0  0  0  0  0  0  0  0  0  0  0
    0.3454   -1.9659  -55.2843 O   0  0  0  0  0  0  0  0  0  0  0  0
   -0.8053   -1.4566  -55.3942 O   0  0  0  0  0  0  0  0  0  0  0  0
    0.4024   -2.6398  -55.4929 P   0  0  1  0  0  5  0  0  0  0  0  0
    0.1176   -3.5060  -56.9310 O   0  0  0  0  0  0  0  0  0  0  0  0
    1.9384   -1.9609  -55.6015 O   0  0  0  0  0  0  0  0  0  0  0  0
    0.3001   -3.5817  -54.3222 O   0  0  0  0  0  0  0  0  0  0  0  0
   -2.9770    0.0666  -55.4818 O   0  0  0  0  0  0  0  0  0  0  0  0
   -2.6720    1.1665  -56.6760 P   0  0  2  0  0  5  0  0  0  0  0  0
   -3.9014    1.7802  -57.2858 O   0  0  0  0  0  0  0  0  0  0  0  0
   -1.8087    0.4193  -57.9253 O   0  0  0  0  0  0  0  0  0  0  0  0
   -1.6421    2.3727  -56.0375 O   0  0  0  0  0  0  0  0  0  0  0  0
   -5.0259   -2.0267  -56.9938 O   0  0  0  0  0  0  0  0  0  0  0  0
   -6.5780   -1.4457  -57.1429 P   0  0  2  0  0  5  0  0  0  0  0  0
   -7.3704   -1.4750  -55.8740 O   0  0  0  0  0  0  0  0  0  0  0  0
   -7.3445   -2.3118  -58.3904 O   0  0  0  0  0  0  0  0  0  0  0  0
   -6.4817    0.1760  -57.6536 O   0  0  0  0  0  0  0  0  0  0  0  0
   -4.2487   -3.1046  -53.6956 O   0  0  0  0  0  0  0  0  0  0  0  0
   -5.3497   -4.0486  -52.8291 P   0  0  1  0  0  5  0  0  0  0  0  0
   -5.0520   -4.0392  -51.3490 O   0  0  0  0  0  0  0  0  0  0  0  0
   -6.9292   -3.4532  -53.0218 O   0  0  0  0  0  0  0  0  0  0  0  0
   -5.3511   -5.6529  -53.3410 O   0  0  0  0  0  0  0  0  0  0  0  0
   -3.4409   -5.3186  -55.2466 O   0  0  0  0  0  0  0  0  0  0  0  0
   -2.5876   -6.4064  -56.1934 P   0  0  2  0  0  5  0  0  0  0  0  0
   -2.8177   -7.9621  -55.5760 O   0  0  0  0  0  0  0  0  0  0  0  0
   -1.1095   -6.0399  -56.1883 O   0  0  0  0  0  0  0  0  0  0  0  0
   -3.1850   -6.3824  -57.7764 O   0  0  0  0  0  0  0  0  0  0  0  0
  1  2  1  0
  1  6  1  0
  1  7  1  1
  2  3  1  0
  2 12  1  6
  3  4  1  0
  3 17  1  1
  4  5  1  0
  4 22  1  6
  5  6  1  0
  5 27  1  1
  6 32  1  1
  7  8  1  0
  8  9  1  1
  8 10  2  0
  8 11  1  0
 12 13  1  0
 13 14  1  6
 13 15  1  0
 13 16  2  0
 17 18  1  0
 18 19  2  0
 18 20  1  6
 18 21  1  0
 22 23  1  0
 23 24  2  0
 23 25  1  6
 23 26  1  0
 27 28  1  0
 28 29  2  0
 28 30  1  1
 28 31  1  0
 32 33  1  0
 33 34  1  1
 33 35  2  0
 33 36  1  0
M  END
$$$$
