
     RDKit          3D

 36 36  0  0  0  0  0  0  0  0999 V2000
  -14.0015   24.1544  -86.6288 C   0  0  2  0  0  0  0  0  0  0  0  0
  -14.9249   24.6216  -85.5218 C   0  0  2  0  0  0  0  0  0  0  0  0
  -16.3124   24.5229  -86.1063 C   0  0  1  0  0  0  0  0  0  0  0  0
  -16.3698   25.7066  -87.0687 C   0  0  2  0  0  0  0  0  0  0  0  0
  -15.4603   25.4623  -88.2336 C   0  0  1  0  0  0  0  0  0  0  0  0
  -14.0831   24.9954  -87.8614 C   0  0  2  0  0  0  0  0  0  0  0  0
  -14.3007   22.8111  -86.8527 O   0  0  0  0  0  0  0  0  0  0  0  0
  -13.0534   21.7899  -86.3372 P   0  0  2  0  0  5  0  0  0  0  0  0
  -11.7092   22.0665  -87.3313 O   0  0  0  0  0  0  0  0  0  0  0  0
  -13.4683   20.3510  -86.3374 O   0  0  0  0  0  0  0  0  0  0  0  0
  -12.5910   22.2433  -84.7631 O   0  0  0  0  0  0  0  0  0  0  0  0
  -14.5866   25.8468  -85.0602 O   0  0  0  0  0  0  0  0  0  0  0  0
  -13.9091   25.9217  -83.5518 P   0  0  1  0  0  5  0  0  0  0  0  0
  -13.5784   27.4855  -83.0257 O   0  0  0  0  0  0  0  0  0  0  0  0
  -14.8835   25.1396  -82.3916 O   0  0  0  0  0  0  0  0  0  0  0  0
  -12.5894   25.1715  -83.5798 O   0  0  0  0  0  0  0  0  0  0  0  0
  -16.6142   23.3368  -86.6709 O   0  0  0  0  0  0  0  0  0  0  0  0
  -18.0770   22.6665  -86.1943 P   0  0  2  0  0  5  0  0  0  0  0  0
  -17.9592   22.1636  -84.7734 O   0  0  0  0  0  0  0  0  0  0  0  0
  -18.3377   21.2999  -87.1789 O   0  0  0  0  0  0  0  0  0  0  0  0
  -19.3386   23.7400  -86.3983 O   0  0  0  0  0  0  0  0  0  0  0  0
  -16.2037   26.8916  -86.4277 O   0  0  0  0  0  0  0  0  0  0  0  0
  -17.5016   27.9336  -86.4773 P   0  0  2  0  0  5  0  0  0  0  0  0
  -17.3616   28.8043  -87.7109 O   0  0  0  0  0  0  0  0  0  0  0  0
  -17.3875   28.9877  -85.1333 O   0  0  0  0  0  0  0  0  0  0  0  0
  -18.9830   27.1832  -86.4269 O   0  0  0  0  0  0  0  0  0  0  0  0
  -15.9550   24.5771  -89.1613 O   0  0  0  0  0  0  0  0  0  0  0  0
  -15.3690   24.6319  -90.6789 P   0  0  1  0  0  5  0  0  0  0  0  0
  -15.9727   23.6610  -91.6565 O   0  0  0  0  0  0  0  0  0  0  0  0
  -15.6467   26.1844  -91.3192 O   0  0  0  0  0  0  0  0  0  0  0  0
  -13.6660   24.4583  -90.6267 O   0  0  0  0  0  0  0  0  0  0  0  0
  -13.4982   24.2354  -88.8778 O   0  0  0  0  0  0  0  0  0  0  0  0
  -14.5105   23.0349  -89.4610 P   0  0  2  0  0  5  0  0  0  0  0  0
  -16.0230   23.6447  -89.8824 O   0  0  0  0  0  0  0  0  0  0  0  0
  -14.5793   21.9052  -88.4852 O   0  0  0  0  0  0  0  0  0  0  0  0
  -13.7852   22.4163  -90.8827 O   0  0  0  0  0  0  0  0  0  0  0  0
  1  2  1  0
  1  6  1  0
  1  7  1  6
  2  3  1  0
  2 12  1  6
  3  4  1  0
  3 17  1  6
  4  5  1  0
  4 22  1  1
  5  6  1  0
  5 27  1  6
  6 32  1  6
  7  8  1  0
  8  9  1  6
  8 10  2  0
  8 11  1  0
 12 13  1  0
 13 14  1  1
 13 15  1  0
 13 16  2  0
 17 18  1  0
 18 19  2  0
 18 20  1  6
 18 21  1  0
 22 23  1  0
 23 24  2  0
 23 25  1  1
 23 26  1  0
 27 28  1  0
 28 29  2  0
 28 30  1  6
 28 31  1  0
 32 33  1  0
 33 34  1  6
 33 35  2  0
 33 36  1  0
M  END
$$$$
