
     RDKit          3D

 36 36  0  0  0  0  0  0  0  0999 V2000
    7.1711  -19.2447  -75.2527 C   0  0  2  0  0  0  0  0  0  0  0  0
    7.0928  -17.7357  -75.1383 C   0  0  2  0  0  0  0  0  0  0  0  0
    6.2357  -17.3022  -76.3018 C   0  0  1  0  0  0  0  0  0  0  0  0
    7.1666  -17.4674  -77.5005 C   0  0  2  0  0  0  0  0  0  0  0  0
    7.4222  -18.9218  -77.7520 C   0  0  1  0  0  0  0  0  0  0  0  0
    7.7934  -19.7095  -76.5293 C   0  0  2  0  0  0  0  0  0  0  0  0
    5.8757  -19.7235  -75.0602 O   0  0  0  0  0  0  0  0  0  0  0  0
    5.8320  -21.0061  -73.9568 P   0  0  2  0  0  5  0  0  0  0  0  0
    7.4067  -21.6119  -73.7995 O   0  0  0  0  0  0  0  0  0  0  0  0
    4.8579  -22.0672  -74.3663 O   0  0  0  0  0  0  0  0  0  0  0  0
    5.3939  -20.3978  -72.4286 O   0  0  0  0  0  0  0  0  0  0  0  0
    8.3178  -17.1650  -75.0887 O   0  0  0  0  0  0  0  0  0  0  0  0
    8.7459  -16.4247  -73.6715 P   0  0  1  0  0  5  0  0  0  0  0  0
    9.6928  -15.0487  -73.8757 O   0  0  0  0  0  0  0  0  0  0  0  0
    7.3758  -16.0231  -72.7396 O   0  0  0  0  0  0  0  0  0  0  0  0
    9.5562  -17.4053  -72.8426 O   0  0  0  0  0  0  0  0  0  0  0  0
    5.0604  -17.9508  -76.4218 O   0  0  0  0  0  0  0  0  0  0  0  0
    3.6988  -16.9701  -76.4485 P   0  0  2  0  0  5  0  0  0  0  0  0
    2.4870  -17.8032  -76.7990 O   0  0  0  0  0  0  0  0  0  0  0  0
    3.9159  -15.8588  -77.7224 O   0  0  0  0  0  0  0  0  0  0  0  0
    3.5170  -16.1346  -75.0151 O   0  0  0  0  0  0  0  0  0  0  0  0
    8.2696  -16.6824  -77.3998 O   0  0  0  0  0  0  0  0  0  0  0  0
    8.5344  -15.6343  -78.6663 P   0  0  2  0  0  5  0  0  0  0  0  0
    7.2300  -14.9242  -78.9726 O   0  0  0  0  0  0  0  0  0  0  0  0
    8.9100  -16.5631  -80.0543 O   0  0  0  0  0  0  0  0  0  0  0  0
    9.7705  -14.5535  -78.4122 O   0  0  0  0  0  0  0  0  0  0  0  0
    6.3827  -19.5812  -78.3629 O   0  0  0  0  0  0  0  0  0  0  0  0
    6.5688  -20.0678  -79.9050 P   0  0  1  0  0  5  0  0  0  0  0  0
    7.2743  -19.1059  -80.8216 O   0  0  0  0  0  0  0  0  0  0  0  0
    7.4882  -21.5002  -79.9218 O   0  0  0  0  0  0  0  0  0  0  0  0
    5.0394  -20.5002  -80.5429 O   0  0  0  0  0  0  0  0  0  0  0  0
    7.4446  -21.0571  -76.6520 O   0  0  0  0  0  0  0  0  0  0  0  0
    8.7723  -22.0786  -76.6482 P   0  0  2  0  0  5  0  0  0  0  0  0
    9.6892  -21.9149  -78.0515 O   0  0  0  0  0  0  0  0  0  0  0  0
    8.3356  -23.4839  -76.3877 O   0  0  0  0  0  0  0  0  0  0  0  0
    9.7567  -21.6142  -75.3271 O   0  0  0  0  0  0  0  0  0  0  0  0
  1  2  1  0
  1  6  1  0
  1  7  1  6
  2  3  1  0
  2 12  1  6
  3  4  1  0
  3 17  1  6
  4  5  1  0
  4 22  1  1
  5  6  1  0
  5 27  1  1
  6 32  1  6
  7  8  1  0
  8  9  1  1
  8 10  2  0
  8 11  1  0
 12 13  1  0
 13 14  1  6
 13 15  1  0
 13 16  2  0
 17 18  1  0
 18 19  2  0
 18 20  1  6
 18 21  1  0
 22 23  1  0
 23 24  2  0
 23 25  1  6
 23 26  1  0
 27 28  1  0
 28 29  2  0
 28 30  1  1
 28 31  1  0
 32 33  1  0
 33 34  1  6
 33 35  2  0
 33 36  1  0
M  END
$$$$
