
     RDKit          3D

 36 36  0  0  0  0  0  0  0  0999 V2000
  -14.9439   25.1664  -84.9604 C   0  0  2  0  0  0  0  0  0  0  0  0
  -13.8901   26.1097  -85.5045 C   0  0  2  0  0  0  0  0  0  0  0  0
  -14.6076   26.9350  -86.5441 C   0  0  1  0  0  0  0  0  0  0  0  0
  -14.7730   25.9613  -87.7083 C   0  0  2  0  0  0  0  0  0  0  0  0
  -15.7559   24.8914  -87.3434 C   0  0  1  0  0  0  0  0  0  0  0  0
  -15.5224   24.2628  -86.0005 C   0  0  2  0  0  0  0  0  0  0  0  0
  -15.8961   25.9620  -84.3244 O   0  0  0  0  0  0  0  0  0  0  0  0
  -15.7830   25.8601  -82.6389 P   0  0  2  0  0  5  0  0  0  0  0  0
  -16.3569   27.3161  -81.9892 O   0  0  0  0  0  0  0  0  0  0  0  0
  -14.3892   25.5514  -82.1864 O   0  0  0  0  0  0  0  0  0  0  0  0
  -16.8364   24.6396  -82.0930 O   0  0  0  0  0  0  0  0  0  0  0  0
  -12.7993   25.4490  -85.9544 O   0  0  0  0  0  0  0  0  0  0  0  0
  -11.3241   26.1298  -85.6383 P   0  0  1  0  0  5  0  0  0  0  0  0
  -11.1421   26.6666  -84.0537 O   0  0  0  0  0  0  0  0  0  0  0  0
  -10.0508   25.0592  -86.0118 O   0  0  0  0  0  0  0  0  0  0  0  0
  -11.1484   27.3374  -86.5416 O   0  0  0  0  0  0  0  0  0  0  0  0
  -15.7580   27.5034  -86.1317 O   0  0  0  0  0  0  0  0  0  0  0  0
  -15.7663   29.1815  -86.1220 P   0  0  2  0  0  5  0  0  0  0  0  0
  -17.1042   29.6738  -85.6188 O   0  0  0  0  0  0  0  0  0  0  0  0
  -15.6365   29.6851  -87.7451 O   0  0  0  0  0  0  0  0  0  0  0  0
  -14.4818   29.7958  -85.2513 O   0  0  0  0  0  0  0  0  0  0  0  0
  -13.5772   25.5282  -88.1827 O   0  0  0  0  0  0  0  0  0  0  0  0
  -13.3762   25.6118  -89.8336 P   0  0  2  0  0  5  0  0  0  0  0  0
  -13.3875   27.0734  -90.2375 O   0  0  0  0  0  0  0  0  0  0  0  0
  -14.7478   24.9017  -90.5718 O   0  0  0  0  0  0  0  0  0  0  0  0
  -12.0201   24.8350  -90.3975 O   0  0  0  0  0  0  0  0  0  0  0  0
  -17.0696   25.2928  -87.3839 O   0  0  0  0  0  0  0  0  0  0  0  0
  -17.9899   24.8185  -88.6399 P   0  0  1  0  0  5  0  0  0  0  0  0
  -17.2548   24.4804  -89.9081 O   0  0  0  0  0  0  0  0  0  0  0  0
  -18.8422   23.4134  -88.1965 O   0  0  0  0  0  0  0  0  0  0  0  0
  -19.1891   26.0054  -88.9335 O   0  0  0  0  0  0  0  0  0  0  0  0
  -16.7032   23.7580  -85.4492 O   0  0  0  0  0  0  0  0  0  0  0  0
  -17.9489   24.8779  -85.4357 P   0  0  2  0  0  5  0  0  0  0  0  0
  -17.9112   25.8362  -84.0512 O   0  0  0  0  0  0  0  0  0  0  0  0
  -19.2586   24.1885  -85.6422 O   0  0  0  0  0  0  0  0  0  0  0  0
  -17.7129   25.9045  -86.7849 O   0  0  0  0  0  0  0  0  0  0  0  0
  1  2  1  0
  1  6  1  0
  1  7  1  6
  2  3  1  0
  2 12  1  6
  3  4  1  0
  3 17  1  1
  4  5  1  0
  4 22  1  1
  5  6  1  0
  5 27  1  1
  6 32  1  1
  7  8  1  0
  8  9  1  1
  8 10  2  0
  8 11  1  0
 12 13  1  0
 13 14  1  1
 13 15  1  0
 13 16  2  0
 17 18  1  0
 18 19  2  0
 18 20  1  6
 18 21  1  0
 22 23  1  0
 23 24  2  0
 23 25  1  6
 23 26  1  0
 27 28  1  0
 28 29  2  0
 28 30  1  1
 28 31  1  0
 32 33  1  0
 33 34  1  1
 33 35  2  0
 33 36  1  0
M  END
$$$$
