
     RDKit          3D

 36 36  0  0  0  0  0  0  0  0999 V2000
  -13.1185   29.1894  -81.9195 C   0  0  2  0  0  0  0  0  0  0  0  0
  -13.2598   30.1403  -83.0850 C   0  0  2  0  0  0  0  0  0  0  0  0
  -12.7044   29.4697  -84.3269 C   0  0  1  0  0  0  0  0  0  0  0  0
  -13.4994   28.2517  -84.7026 C   0  0  2  0  0  0  0  0  0  0  0  0
  -14.4489   27.8516  -83.5793 C   0  0  1  0  0  0  0  0  0  0  0  0
  -13.6917   27.8584  -82.2706 C   0  0  2  0  0  0  0  0  0  0  0  0
  -13.7411   29.7292  -80.7995 O   0  0  0  0  0  0  0  0  0  0  0  0
  -13.5323   31.3976  -80.6955 P   0  0  2  0  0  5  0  0  0  0  0  0
  -15.0160   32.1994  -80.6046 O   0  0  0  0  0  0  0  0  0  0  0  0
  -12.7453   31.8357  -81.9249 O   0  0  0  0  0  0  0  0  0  0  0  0
  -12.6057   31.7055  -79.2977 O   0  0  0  0  0  0  0  0  0  0  0  0
  -12.4504   31.2465  -82.8003 O   0  0  0  0  0  0  0  0  0  0  0  0
  -13.2993   32.6941  -83.0288 P   0  0  1  0  0  5  0  0  0  0  0  0
  -14.0088   33.0831  -81.5304 O   0  0  0  0  0  0  0  0  0  0  0  0
  -12.2763   33.9609  -83.4536 O   0  0  0  0  0  0  0  0  0  0  0  0
  -14.3866   32.4995  -84.0526 O   0  0  0  0  0  0  0  0  0  0  0  0
  -12.7027   30.4431  -85.3172 O   0  0  0  0  0  0  0  0  0  0  0  0
  -11.3108   30.5292  -86.2027 P   0  0  2  0  0  5  0  0  0  0  0  0
  -10.4523   31.7251  -85.8981 O   0  0  0  0  0  0  0  0  0  0  0  0
  -11.6920   30.5887  -87.8506 O   0  0  0  0  0  0  0  0  0  0  0  0
  -10.4391   29.0777  -85.9653 O   0  0  0  0  0  0  0  0  0  0  0  0
  -12.6002   27.1830  -84.8406 O   0  0  0  0  0  0  0  0  0  0  0  0
  -12.7239   26.4071  -86.3075 P   0  0  2  0  0  5  0  0  0  0  0  0
  -14.1131   25.9780  -86.6612 O   0  0  0  0  0  0  0  0  0  0  0  0
  -11.6372   25.0984  -86.3016 O   0  0  0  0  0  0  0  0  0  0  0  0
  -12.1938   27.4849  -87.5147 O   0  0  0  0  0  0  0  0  0  0  0  0
  -15.5965   28.6026  -83.5557 O   0  0  0  0  0  0  0  0  0  0  0  0
  -16.9619   27.7615  -84.0867 P   0  0  1  0  0  5  0  0  0  0  0  0
  -17.4305   28.2496  -85.4364 O   0  0  0  0  0  0  0  0  0  0  0  0
  -16.6182   26.1055  -84.2493 O   0  0  0  0  0  0  0  0  0  0  0  0
  -18.2524   27.9042  -83.0142 O   0  0  0  0  0  0  0  0  0  0  0  0
  -14.5178   27.3365  -81.2769 O   0  0  0  0  0  0  0  0  0  0  0  0
  -15.6362   28.4607  -80.7351 P   0  0  2  0  0  5  0  0  0  0  0  0
  -15.1529   29.0199  -79.2158 O   0  0  0  0  0  0  0  0  0  0  0  0
  -17.0135   27.8158  -80.6567 O   0  0  0  0  0  0  0  0  0  0  0  0
  -15.6756   29.7852  -81.7875 O   0  0  0  0  0  0  0  0  0  0  0  0
  1  2  1  0
  1  6  1  0
  1  7  1  1
  2  3  1  0
  2 12  1  1
  3  4  1  0
  3 17  1  6
  4  5  1  0
  4 22  1  1
  5  6  1  0
  5 27  1  1
  6 32  1  1
  7  8  1  0
  8  9  1  1
  8 10  2  0
  8 11  1  0
 12 13  1  0
 13 14  1  1
 13 15  1  0
 13 16  2  0
 17 18  1  0
 18 19  2  0
 18 20  1  6
 18 21  1  0
 22 23  1  0
 23 24  2  0
 23 25  1  1
 23 26  1  0
 27 28  1  0
 28 29  2  0
 28 30  1  6
 28 31  1  0
 32 33  1  0
 33 34  1  1
 33 35  2  0
 33 36  1  0
M  END
$$$$
