
     RDKit          3D

 36 36  0  0  0  0  0  0  0  0999 V2000
  -14.9516   24.9022  -86.5050 C   0  0  2  0  0  0  0  0  0  0  0  0
  -15.0524   23.9114  -87.6471 C   0  0  2  0  0  0  0  0  0  0  0  0
  -13.7595   23.1350  -87.6027 C   0  0  1  0  0  0  0  0  0  0  0  0
  -12.7381   24.1279  -88.1519 C   0  0  2  0  0  0  0  0  0  0  0  0
  -12.5327   25.2433  -87.1733 C   0  0  1  0  0  0  0  0  0  0  0  0
  -13.8002   25.8452  -86.6399 C   0  0  2  0  0  0  0  0  0  0  0  0
  -14.9186   24.1503  -85.3312 O   0  0  0  0  0  0  0  0  0  0  0  0
  -16.2774   24.4297  -84.3617 P   0  0  2  0  0  5  0  0  0  0  0  0
  -16.3529   26.0911  -84.0367 O   0  0  0  0  0  0  0  0  0  0  0  0
  -16.2519   23.6106  -83.1082 O   0  0  0  0  0  0  0  0  0  0  0  0
  -17.6747   24.0488  -85.2560 O   0  0  0  0  0  0  0  0  0  0  0  0
  -15.3119   24.5196  -88.8268 O   0  0  0  0  0  0  0  0  0  0  0  0
  -16.6225   23.9775  -89.6802 P   0  0  1  0  0  5  0  0  0  0  0  0
  -17.3016   22.5641  -89.0692 O   0  0  0  0  0  0  0  0  0  0  0  0
  -17.8329   25.1732  -89.7897 O   0  0  0  0  0  0  0  0  0  0  0  0
  -16.1811   23.6821  -91.1026 O   0  0  0  0  0  0  0  0  0  0  0  0
  -13.4390   22.6225  -86.3980 O   0  0  0  0  0  0  0  0  0  0  0  0
  -13.2169   20.9595  -86.3615 P   0  0  2  0  0  5  0  0  0  0  0  0
  -12.4682   20.5260  -87.6013 O   0  0  0  0  0  0  0  0  0  0  0  0
  -14.7652   20.2527  -86.4505 O   0  0  0  0  0  0  0  0  0  0  0  0
  -12.4700   20.4717  -84.9509 O   0  0  0  0  0  0  0  0  0  0  0  0
  -13.0272   24.5036  -89.4239 O   0  0  0  0  0  0  0  0  0  0  0  0
  -11.7536   24.4813  -90.4963 P   0  0  2  0  0  5  0  0  0  0  0  0
  -10.4750   24.2764  -89.7071 O   0  0  0  0  0  0  0  0  0  0  0  0
  -11.6319   26.0333  -91.2081 O   0  0  0  0  0  0  0  0  0  0  0  0
  -11.9039   23.3600  -91.7131 O   0  0  0  0  0  0  0  0  0  0  0  0
  -11.7519   24.9105  -86.0924 O   0  0  0  0  0  0  0  0  0  0  0  0
  -10.4993   25.8772  -85.7103 P   0  0  1  0  0  5  0  0  0  0  0  0
   -9.8304   26.5789  -86.8606 O   0  0  0  0  0  0  0  0  0  0  0  0
  -11.0496   27.1012  -84.6632 O   0  0  0  0  0  0  0  0  0  0  0  0
   -9.3577   24.9798  -84.8024 O   0  0  0  0  0  0  0  0  0  0  0  0
  -13.6181   26.4045  -85.3723 O   0  0  0  0  0  0  0  0  0  0  0  0
  -12.5023   25.5687  -84.4435 P   0  0  2  0  0  5  0  0  0  0  0  0
  -11.2597   24.9312  -85.3851 O   0  0  0  0  0  0  0  0  0  0  0  0
  -13.1978   24.5427  -83.6088 O   0  0  0  0  0  0  0  0  0  0  0  0
  -11.8071   26.6978  -83.3610 O   0  0  0  0  0  0  0  0  0  0  0  0
  1  2  1  0
  1  6  1  0
  1  7  1  1
  2  3  1  0
  2 12  1  6
  3  4  1  0
  3 17  1  1
  4  5  1  0
  4 22  1  6
  5  6  1  0
  5 27  1  1
  6 32  1  1
  7  8  1  0
  8  9  1  1
  8 10  2  0
  8 11  1  0
 12 13  1  0
 13 14  1  1
 13 15  1  0
 13 16  2  0
 17 18  1  0
 18 19  2  0
 18 20  1  6
 18 21  1  0
 22 23  1  0
 23 24  2  0
 23 25  1  6
 23 26  1  0
 27 28  1  0
 28 29  2  0
 28 30  1  1
 28 31  1  0
 32 33  1  0
 33 34  1  6
 33 35  2  0
 33 36  1  0
M  END
$$$$
