
     RDKit          3D

 47 47  0  0  0  0  0  0  0  0999 V2000
  -20.8363   14.3421    1.9609 N   0  0  0  0  0  4  0  0  0  0  0  0
  -20.9306   13.1387    2.7499 C   0  0  2  0  0  0  0  0  0  0  0  0
  -21.6072   12.0963    1.9413 C   0  0  0  0  0  0  0  0  0  0  0  0
  -21.9549   12.3304    0.7278 O   0  0  0  0  0  0  0  0  0  0  0  0
  -21.8013   13.4233    3.9713 C   0  0  0  0  0  0  0  0  0  0  0  0
  -21.9211   10.7900    2.4213 N   0  0  0  0  0  0  0  0  0  0  0  0
  -22.4238    9.7971    1.5153 C   0  0  2  0  0  0  0  0  0  0  0  0
  -22.7154    8.4847    2.1197 C   0  0  0  0  0  0  0  0  0  0  0  0
  -21.7539    7.8616    2.6758 O   0  0  0  0  0  0  0  0  0  0  0  0
  -21.4044    9.5841    0.3729 C   0  0  0  0  0  0  0  0  0  0  0  0
  -23.9761    7.8325    2.1501 N   0  0  0  0  0  0  0  0  0  0  0  0
  -24.1164    6.5359    2.8392 C   0  0  2  0  0  0  0  0  0  0  0  0
  -23.5019    5.4584    1.9914 C   0  0  0  0  0  0  0  0  0  0  0  0
  -23.1462    5.8097    0.8612 O   0  0  0  0  0  0  0  0  0  0  0  0
  -25.6073    6.3537    2.9877 C   0  0  0  0  0  0  0  0  0  0  0  0
  -25.9702    5.0681    3.5580 C   0  0  0  0  0  0  0  0  0  0  0  0
  -24.9354    4.1844    3.9122 O   0  0  0  0  0  0  0  0  0  0  0  0
  -27.1279    4.6980    3.7534 O   0  0  0  0  0  0  0  0  0  0  0  0
  -23.3348    4.1531    2.4354 N   0  0  0  0  0  0  0  0  0  0  0  0
  -22.3645    3.1838    1.9455 C   0  0  2  0  0  0  0  0  0  0  0  0
  -22.3854    1.9828    2.7434 C   0  0  0  0  0  0  0  0  0  0  0  0
  -22.1683    2.1209    4.0095 O   0  0  0  0  0  0  0  0  0  0  0  0
  -20.9856    3.8231    1.8396 C   0  0  2  0  0  0  0  0  0  0  0  0
  -20.1617    2.8581    1.2031 O   0  0  0  0  0  0  0  0  0  0  0  0
  -20.3555    3.9764    3.2297 C   0  0  0  0  0  0  0  0  0  0  0  0
  -22.6130    0.6625    2.3330 N   0  0  0  0  0  0  0  0  0  0  0  0
  -23.4226   -0.2801    3.1492 C   0  0  2  0  0  0  0  0  0  0  0  0
  -23.3946   -1.5389    2.4012 C   0  0  0  0  0  0  0  0  0  0  0  0
  -24.0407   -1.5825    1.2866 O   0  0  0  0  0  0  0  0  0  0  0  0
  -24.7783    0.2948    3.3952 C   0  0  2  0  0  0  0  0  0  0  0  0
  -25.3382    0.6537    2.1229 O   0  0  0  0  0  0  0  0  0  0  0  0
  -24.6054    1.6439    4.1219 C   0  0  0  0  0  0  0  0  0  0  0  0
  -22.7417   -2.7389    2.7344 N   0  0  0  0  0  0  0  0  0  0  0  0
  -22.9204   -3.9518    2.0080 C   0  0  2  0  0  0  0  0  0  0  0  0
  -24.2240   -4.5915    2.0183 C   0  0  0  0  0  0  0  0  0  0  0  0
  -24.9389   -4.3299    3.0723 O   0  0  0  0  0  0  0  0  0  0  0  0
  -21.7919   -4.8847    2.3996 C   0  0  2  0  0  0  0  0  0  0  0  0
  -21.8679   -6.1081    1.7207 O   0  0  0  0  0  0  0  0  0  0  0  0
  -21.6795   -5.0756    3.8859 C   0  0  0  0  0  0  0  0  0  0  0  0
  -24.8254   -5.4367    1.0812 N   0  0  0  0  0  0  0  0  0  0  0  0
  -26.2451   -5.8194    1.1150 C   0  0  2  0  0  0  0  0  0  0  0  0
  -26.4454   -7.2073    1.5867 C   0  0  0  0  0  0  0  0  0  0  0  0
  -25.5615   -8.0913    1.4584 O   0  0  0  0  0  0  0  0  0  0  0  0
  -26.6310   -5.7160   -0.3391 C   0  0  0  0  0  0  0  0  0  0  0  0
  -25.3153   -5.6634   -1.1327 C   0  0  0  0  0  0  0  0  0  0  0  0
  -24.3077   -6.1343   -0.0757 C   0  0  0  0  0  0  0  0  0  0  0  0
  -27.6218   -7.6207    2.2010 O   0  0  0  0  0  0  0  0  0  0  0  0
  1  2  1  0
  2  3  1  0
  2  5  1  1
  3  4  2  0
  3  6  1  0
  6  7  1  0
  7  8  1  0
  7 10  1  6
  8  9  2  0
  8 11  1  0
 11 12  1  0
 12 13  1  0
 12 15  1  6
 13 14  2  0
 13 19  1  0
 15 16  1  0
 16 17  1  0
 16 18  2  0
 20 19  1  1
 20 21  1  0
 20 23  1  0
 21 22  2  0
 21 26  1  0
 23 24  1  0
 23 25  1  1
 27 26  1  6
 27 28  1  0
 27 30  1  0
 28 29  2  0
 28 33  1  0
 30 31  1  0
 30 32  1  1
 34 33  1  1
 34 35  1  0
 34 37  1  0
 35 36  2  0
 35 40  1  0
 37 38  1  0
 37 39  1  1
 40 41  1  0
 40 46  1  0
 41 42  1  6
 41 44  1  0
 42 43  2  0
 42 47  1  0
 44 45  1  0
 45 46  1  0
M  CHG  1   1   1
M  END
$$$$
