
     RDKit          3D

 47 47  0  0  0  0  0  0  0  0999 V2000
  -21.2465   11.3924    2.9074 N   0  0  0  0  0  4  0  0  0  0  0  0
  -20.6584   10.1888    2.2932 C   0  0  2  0  0  0  0  0  0  0  0  0
  -21.6578    9.1061    2.3175 C   0  0  0  0  0  0  0  0  0  0  0  0
  -22.5800    9.1414    3.1683 O   0  0  0  0  0  0  0  0  0  0  0  0
  -19.4019    9.8805    3.0608 C   0  0  0  0  0  0  0  0  0  0  0  0
  -21.6505    8.0085    1.4332 N   0  0  0  0  0  0  0  0  0  0  0  0
  -22.5971    6.9456    1.3638 C   0  0  2  0  0  0  0  0  0  0  0  0
  -22.0608    5.7093    2.0458 C   0  0  0  0  0  0  0  0  0  0  0  0
  -20.8624    5.5799    2.3203 O   0  0  0  0  0  0  0  0  0  0  0  0
  -23.0492    6.6990   -0.0313 C   0  0  0  0  0  0  0  0  0  0  0  0
  -22.9714    4.6755    2.3709 N   0  0  0  0  0  0  0  0  0  0  0  0
  -22.6029    3.4189    3.0116 C   0  0  2  0  0  0  0  0  0  0  0  0
  -23.2258    2.2710    2.3061 C   0  0  0  0  0  0  0  0  0  0  0  0
  -24.4597    2.3379    2.0334 O   0  0  0  0  0  0  0  0  0  0  0  0
  -22.6817    3.4119    4.4802 C   0  0  0  0  0  0  0  0  0  0  0  0
  -24.0163    3.3404    5.0709 C   0  0  0  0  0  0  0  0  0  0  0  0
  -24.9772    4.3196    5.0112 O   0  0  0  0  0  0  0  0  0  0  0  0
  -24.3076    2.2771    5.6928 O   0  0  0  0  0  0  0  0  0  0  0  0
  -22.5686    1.0900    1.8982 N   0  0  0  0  0  0  0  0  0  0  0  0
  -23.1827    0.1133    1.0342 C   0  0  2  0  0  0  0  0  0  0  0  0
  -23.8862   -0.9932    1.7406 C   0  0  0  0  0  0  0  0  0  0  0  0
  -25.0806   -1.2861    1.6306 O   0  0  0  0  0  0  0  0  0  0  0  0
  -22.1093   -0.4811    0.1676 C   0  0  2  0  0  0  0  0  0  0  0  0
  -21.4760   -1.4691    0.9551 O   0  0  0  0  0  0  0  0  0  0  0  0
  -21.0650    0.5662   -0.1521 C   0  0  0  0  0  0  0  0  0  0  0  0
  -23.0473   -1.7557    2.6103 N   0  0  0  0  0  0  0  0  0  0  0  0
  -23.5242   -2.6208    3.6485 C   0  0  2  0  0  0  0  0  0  0  0  0
  -24.6758   -3.4405    3.1867 C   0  0  0  0  0  0  0  0  0  0  0  0
  -25.4484   -3.0503    2.2780 O   0  0  0  0  0  0  0  0  0  0  0  0
  -23.8491   -1.8105    4.8645 C   0  0  2  0  0  0  0  0  0  0  0  0
  -22.7421   -1.0475    5.2080 O   0  0  0  0  0  0  0  0  0  0  0  0
  -24.3059   -2.5987    6.0487 C   0  0  0  0  0  0  0  0  0  0  0  0
  -24.9259   -4.7019    3.7829 N   0  0  0  0  0  0  0  0  0  0  0  0
  -26.0261   -5.5119    3.1849 C   0  0  2  0  0  0  0  0  0  0  0  0
  -26.3666   -6.6274    4.1003 C   0  0  0  0  0  0  0  0  0  0  0  0
  -25.4788   -7.0729    4.8649 O   0  0  0  0  0  0  0  0  0  0  0  0
  -25.4791   -6.0721    1.8728 C   0  0  2  0  0  0  0  0  0  0  0  0
  -24.9625   -5.0784    1.0572 O   0  0  0  0  0  0  0  0  0  0  0  0
  -26.3291   -7.0860    1.2112 C   0  0  0  0  0  0  0  0  0  0  0  0
  -27.6831   -7.1804    4.1185 N   0  0  0  0  0  0  0  0  0  0  0  0
  -28.2528   -8.1257    5.0369 C   0  0  2  0  0  0  0  0  0  0  0  0
  -27.3784   -9.2561    5.3816 C   0  0  0  0  0  0  0  0  0  0  0  0
  -26.1410   -9.1016    5.2590 O   0  0  0  0  0  0  0  0  0  0  0  0
  -29.5017   -8.6521    4.3662 C   0  0  0  0  0  0  0  0  0  0  0  0
  -29.4287   -8.1124    2.9365 C   0  0  0  0  0  0  0  0  0  0  0  0
  -28.7459   -6.7881    3.2065 C   0  0  0  0  0  0  0  0  0  0  0  0
  -27.8273  -10.4840    5.8347 O   0  0  0  0  0  0  0  0  0  0  0  0
  1  2  1  6
  2  3  1  1
  5  2  1  6
  3  4  2  0
  3  6  1  0
  7  6  1  6
  7  8  1  0
 10  7  1  6
  8  9  2  0
  8 11  1  0
 12 11  1  6
 12 13  1  0
 12 15  1  0
 13 14  2  0
 13 19  1  0
 15 16  1  6
 16 17  1  0
 16 18  2  0
 20 19  1  1
 20 21  1  0
 20 23  1  0
 21 22  2  0
 21 26  1  0
 23 24  1  1
 25 23  1  6
 27 26  1  6
 27 28  1  0
 27 30  1  0
 28 29  2  0
 28 33  1  0
 30 31  1  1
 32 30  1  6
 34 33  1  1
 34 35  1  0
 34 37  1  0
 35 36  2  0
 35 40  1  0
 37 38  1  6
 39 37  1  6
 40 41  1  0
 46 40  1  1
 41 42  1  6
 44 41  1  1
 42 43  2  0
 42 47  1  0
 44 45  1  0
 45 46  1  6
M  CHG  1   1   1
M  END
$$$$
