
     RDKit          3D

 47 47  0  0  0  0  0  0  0  0999 V2000
  -17.7278    9.1695    2.5522 N   0  0  0  0  0  4  0  0  0  0  0  0
  -18.9503    9.2478    3.3131 C   0  0  2  0  0  0  0  0  0  0  0  0
  -20.0558    8.7069    2.4862 C   0  0  0  0  0  0  0  0  0  0  0  0
  -19.8288    8.2394    1.3122 O   0  0  0  0  0  0  0  0  0  0  0  0
  -19.2537   10.7165    3.5989 C   0  0  0  0  0  0  0  0  0  0  0  0
  -21.4189    8.6601    2.9049 N   0  0  0  0  0  0  0  0  0  0  0  0
  -22.4033    8.0375    2.0667 C   0  0  2  0  0  0  0  0  0  0  0  0
  -22.9577    6.7724    2.5813 C   0  0  0  0  0  0  0  0  0  0  0  0
  -23.8239    6.1711    1.8673 O   0  0  0  0  0  0  0  0  0  0  0  0
  -21.7896    7.7621    0.6748 C   0  0  0  0  0  0  0  0  0  0  0  0
  -22.6204    6.1419    3.8079 N   0  0  0  0  0  0  0  0  0  0  0  0
  -23.3445    4.9297    4.2346 C   0  0  2  0  0  0  0  0  0  0  0  0
  -23.3326    3.9288    3.1141 C   0  0  0  0  0  0  0  0  0  0  0  0
  -23.8401    4.3115    2.0544 O   0  0  0  0  0  0  0  0  0  0  0  0
  -24.7399    5.4183    4.5381 C   0  0  0  0  0  0  0  0  0  0  0  0
  -25.5409    4.4436    5.2579 C   0  0  0  0  0  0  0  0  0  0  0  0
  -25.8401    3.2284    4.6167 O   0  0  0  0  0  0  0  0  0  0  0  0
  -25.9775    4.6098    6.3967 O   0  0  0  0  0  0  0  0  0  0  0  0
  -22.7882    2.6577    3.2444 N   0  0  0  0  0  0  0  0  0  0  0  0
  -22.8140    1.5929    2.2511 C   0  0  2  0  0  0  0  0  0  0  0  0
  -23.6728    0.5138    2.6723 C   0  0  0  0  0  0  0  0  0  0  0  0
  -24.8914    0.8219    2.9709 O   0  0  0  0  0  0  0  0  0  0  0  0
  -21.3959    1.1495    1.9142 C   0  0  2  0  0  0  0  0  0  0  0  0
  -20.7565    2.2906    1.3629 O   0  0  0  0  0  0  0  0  0  0  0  0
  -21.4075    0.1456    0.7545 C   0  0  0  0  0  0  0  0  0  0  0  0
  -23.3678   -0.8474    2.8052 N   0  0  0  0  0  0  0  0  0  0  0  0
  -24.3993   -1.8438    3.1967 C   0  0  2  0  0  0  0  0  0  0  0  0
  -24.0007   -3.0786    2.5174 C   0  0  0  0  0  0  0  0  0  0  0  0
  -23.9186   -3.0496    1.2313 O   0  0  0  0  0  0  0  0  0  0  0  0
  -25.7589   -1.3295    2.8560 C   0  0  2  0  0  0  0  0  0  0  0  0
  -26.7035   -2.3745    3.1331 O   0  0  0  0  0  0  0  0  0  0  0  0
  -25.8372   -1.1503    1.3263 C   0  0  0  0  0  0  0  0  0  0  0  0
  -23.6829   -4.3249    3.0858 N   0  0  0  0  0  0  0  0  0  0  0  0
  -23.1463   -5.4105    2.3347 C   0  0  2  0  0  0  0  0  0  0  0  0
  -24.0098   -6.1167    1.4051 C   0  0  0  0  0  0  0  0  0  0  0  0
  -25.2512   -5.7309    1.4311 O   0  0  0  0  0  0  0  0  0  0  0  0
  -22.4369   -6.3290    3.3096 C   0  0  2  0  0  0  0  0  0  0  0  0
  -21.7699   -7.3713    2.6524 O   0  0  0  0  0  0  0  0  0  0  0  0
  -23.3410   -6.8400    4.3957 C   0  0  0  0  0  0  0  0  0  0  0  0
  -23.7187   -7.1370    0.4950 N   0  0  0  0  0  0  0  0  0  0  0  0
  -24.7380   -7.8547   -0.2854 C   0  0  2  0  0  0  0  0  0  0  0  0
  -24.9869   -9.2193    0.2292 C   0  0  0  0  0  0  0  0  0  0  0  0
  -25.7959  -10.0056   -0.3245 O   0  0  0  0  0  0  0  0  0  0  0  0
  -24.0915   -7.9343   -1.6454 C   0  0  0  0  0  0  0  0  0  0  0  0
  -22.6041   -7.6058   -1.4366 C   0  0  0  0  0  0  0  0  0  0  0  0
  -22.4748   -7.7518    0.0853 C   0  0  0  0  0  0  0  0  0  0  0  0
  -24.3425   -9.7177    1.3554 O   0  0  0  0  0  0  0  0  0  0  0  0
  1  2  1  0
  2  3  1  0
  2  5  1  6
  3  4  2  0
  3  6  1  0
  6  7  1  0
  7  8  1  0
  7 10  1  6
  8  9  2  0
  8 11  1  0
 11 12  1  0
 12 13  1  0
 12 15  1  6
 13 14  2  0
 13 19  1  0
 15 16  1  0
 16 17  1  0
 16 18  2  0
 20 19  1  1
 20 21  1  0
 20 23  1  0
 21 22  2  0
 21 26  1  0
 23 24  1  0
 23 25  1  6
 27 26  1  6
 27 28  1  0
 27 30  1  0
 28 29  2  0
 28 33  1  0
 30 31  1  0
 30 32  1  6
 34 33  1  1
 34 35  1  0
 34 37  1  0
 35 36  2  0
 35 40  1  0
 37 38  1  0
 37 39  1  1
 40 41  1  0
 40 46  1  0
 41 42  1  1
 41 44  1  0
 42 43  2  0
 42 47  1  0
 44 45  1  0
 45 46  1  0
M  CHG  1   1   1
M  END
$$$$
