
     RDKit          3D

 47 47  0  0  0  0  0  0  0  0999 V2000
  -20.9952   10.4921   -0.2683 N   0  0  0  0  0  4  0  0  0  0  0  0
  -19.6328   10.4272    0.2898 C   0  0  2  0  0  0  0  0  0  0  0  0
  -19.7176   10.0283    1.7058 C   0  0  0  0  0  0  0  0  0  0  0  0
  -19.4482   10.8697    2.5975 O   0  0  0  0  0  0  0  0  0  0  0  0
  -19.0098   11.7788    0.0700 C   0  0  0  0  0  0  0  0  0  0  0  0
  -20.0877    8.7391    2.1393 N   0  0  0  0  0  0  0  0  0  0  0  0
  -20.3635    8.3195    3.4729 C   0  0  2  0  0  0  0  0  0  0  0  0
  -20.7617    6.8629    3.5015 C   0  0  0  0  0  0  0  0  0  0  0  0
  -20.1902    6.0413    4.2271 O   0  0  0  0  0  0  0  0  0  0  0  0
  -21.3482    9.2122    4.1400 C   0  0  0  0  0  0  0  0  0  0  0  0
  -21.8217    6.4420    2.6631 N   0  0  0  0  0  0  0  0  0  0  0  0
  -22.8710    5.5107    3.0596 C   0  0  2  0  0  0  0  0  0  0  0  0
  -22.4832    4.1163    2.7299 C   0  0  0  0  0  0  0  0  0  0  0  0
  -21.2501    3.8452    2.6448 O   0  0  0  0  0  0  0  0  0  0  0  0
  -24.2404    5.9153    2.7074 C   0  0  0  0  0  0  0  0  0  0  0  0
  -25.3016    4.9407    2.9509 C   0  0  0  0  0  0  0  0  0  0  0  0
  -25.6485    3.9033    2.1208 O   0  0  0  0  0  0  0  0  0  0  0  0
  -25.9572    5.0693    4.0260 O   0  0  0  0  0  0  0  0  0  0  0  0
  -23.3672    3.0400    2.4992 N   0  0  0  0  0  0  0  0  0  0  0  0
  -22.9121    1.7119    2.1731 C   0  0  2  0  0  0  0  0  0  0  0  0
  -23.9949    0.7382    1.8606 C   0  0  0  0  0  0  0  0  0  0  0  0
  -25.0912    1.0027    1.3578 O   0  0  0  0  0  0  0  0  0  0  0  0
  -22.1248    1.1903    3.3412 C   0  0  2  0  0  0  0  0  0  0  0  0
  -23.0582    0.9975    4.3847 O   0  0  0  0  0  0  0  0  0  0  0  0
  -21.1442    2.2413    3.8136 C   0  0  0  0  0  0  0  0  0  0  0  0
  -23.6755   -0.6146    2.1914 N   0  0  0  0  0  0  0  0  0  0  0  0
  -24.5662   -1.7249    2.0253 C   0  0  2  0  0  0  0  0  0  0  0  0
  -23.9813   -2.9776    2.5730 C   0  0  0  0  0  0  0  0  0  0  0  0
  -23.7460   -3.1224    3.7971 O   0  0  0  0  0  0  0  0  0  0  0  0
  -24.9430   -1.8519    0.5821 C   0  0  2  0  0  0  0  0  0  0  0  0
  -25.8122   -2.9236    0.4347 O   0  0  0  0  0  0  0  0  0  0  0  0
  -23.7950   -1.9995   -0.3626 C   0  0  0  0  0  0  0  0  0  0  0  0
  -23.6701   -4.0496    1.6995 N   0  0  0  0  0  0  0  0  0  0  0  0
  -23.1984   -5.3113    2.3395 C   0  0  2  0  0  0  0  0  0  0  0  0
  -24.0383   -6.4409    1.8739 C   0  0  0  0  0  0  0  0  0  0  0  0
  -25.2790   -6.3795    2.0421 O   0  0  0  0  0  0  0  0  0  0  0  0
  -23.3812   -5.1207    3.8445 C   0  0  2  0  0  0  0  0  0  0  0  0
  -24.0061   -6.2070    4.4351 O   0  0  0  0  0  0  0  0  0  0  0  0
  -23.8578   -3.7842    4.2627 C   0  0  0  0  0  0  0  0  0  0  0  0
  -23.4484   -7.5751    1.2378 N   0  0  0  0  0  0  0  0  0  0  0  0
  -24.0346   -8.8527    0.9452 C   0  0  2  0  0  0  0  0  0  0  0  0
  -24.8438   -9.4244    2.0313 C   0  0  0  0  0  0  0  0  0  0  0  0
  -24.2952   -9.6005    3.1440 O   0  0  0  0  0  0  0  0  0  0  0  0
  -22.8775   -9.7801    0.6488 C   0  0  0  0  0  0  0  0  0  0  0  0
  -21.6328   -8.9813    1.0400 C   0  0  0  0  0  0  0  0  0  0  0  0
  -22.1070   -7.5900    0.6760 C   0  0  0  0  0  0  0  0  0  0  0  0
  -26.1750   -9.7827    1.9114 O   0  0  0  0  0  0  0  0  0  0  0  0
  1  2  1  6
  2  3  1  1
  5  2  1  6
  3  4  2  0
  3  6  1  0
  7  6  1  6
  7  8  1  0
 10  7  1  6
  8  9  2  0
  8 11  1  0
 12 11  1  6
 12 13  1  0
 12 15  1  0
 13 14  2  0
 13 19  1  0
 15 16  1  6
 16 17  1  0
 16 18  2  0
 20 19  1  1
 20 21  1  0
 20 23  1  0
 21 22  2  0
 21 26  1  0
 23 24  1  1
 25 23  1  6
 27 26  1  6
 27 28  1  0
 27 30  1  0
 28 29  2  0
 28 33  1  0
 30 31  1  1
 32 30  1  6
 34 33  1  6
 34 35  1  0
 34 37  1  0
 35 36  2  0
 35 40  1  0
 37 38  1  6
 39 37  1  6
 40 41  1  0
 46 40  1  1
 41 42  1  1
 44 41  1  1
 42 43  2  0
 42 47  1  0
 44 45  1  0
 45 46  1  6
M  CHG  1   1   1
M  END
$$$$
