
     RDKit          3D

 47 47  0  0  0  0  0  0  0  0999 V2000
  -21.4312   13.5193    2.4627 N   0  0  0  0  0  4  0  0  0  0  0  0
  -21.2544   12.0886    2.4998 C   0  0  2  0  0  0  0  0  0  0  0  0
  -21.8337   11.5096    1.2639 C   0  0  0  0  0  0  0  0  0  0  0  0
  -21.1816   11.5372    0.1583 O   0  0  0  0  0  0  0  0  0  0  0  0
  -22.0337   11.5315    3.6886 C   0  0  0  0  0  0  0  0  0  0  0  0
  -23.1190   10.8941    1.1951 N   0  0  0  0  0  0  0  0  0  0  0  0
  -23.4180    9.9804    0.1298 C   0  0  2  0  0  0  0  0  0  0  0  0
  -23.2999    8.5522    0.4749 C   0  0  0  0  0  0  0  0  0  0  0  0
  -22.9025    7.7538   -0.4342 O   0  0  0  0  0  0  0  0  0  0  0  0
  -22.4807   10.2647   -1.0662 C   0  0  0  0  0  0  0  0  0  0  0  0
  -23.5847    7.9636    1.7351 N   0  0  0  0  0  0  0  0  0  0  0  0
  -24.2571    6.6522    1.7987 C   0  0  2  0  0  0  0  0  0  0  0  0
  -23.2411    5.5668    1.5820 C   0  0  0  0  0  0  0  0  0  0  0  0
  -22.1073    5.9533    1.2784 O   0  0  0  0  0  0  0  0  0  0  0  0
  -25.2740    6.7020    0.6846 C   0  0  0  0  0  0  0  0  0  0  0  0
  -26.1306    5.5298    0.6423 C   0  0  0  0  0  0  0  0  0  0  0  0
  -25.6308    4.3245    1.1665 O   0  0  0  0  0  0  0  0  0  0  0  0
  -27.2701    5.5198    0.1766 O   0  0  0  0  0  0  0  0  0  0  0  0
  -23.5402    4.2170    1.7142 N   0  0  0  0  0  0  0  0  0  0  0  0
  -22.6362    3.0980    1.4865 C   0  0  2  0  0  0  0  0  0  0  0  0
  -23.3462    1.8435    1.5259 C   0  0  0  0  0  0  0  0  0  0  0  0
  -24.5717    1.8805    1.9331 O   0  0  0  0  0  0  0  0  0  0  0  0
  -21.4589    3.1644    2.4512 C   0  0  2  0  0  0  0  0  0  0  0  0
  -22.0129    2.9936    3.7470 O   0  0  0  0  0  0  0  0  0  0  0  0
  -20.8755    4.5824    2.4911 C   0  0  0  0  0  0  0  0  0  0  0  0
  -22.8873    0.5661    1.1777 N   0  0  0  0  0  0  0  0  0  0  0  0
  -23.7867   -0.6175    1.1935 C   0  0  2  0  0  0  0  0  0  0  0  0
  -23.5730   -1.2299    2.5066 C   0  0  0  0  0  0  0  0  0  0  0  0
  -22.3566   -1.3482    2.9163 O   0  0  0  0  0  0  0  0  0  0  0  0
  -23.4977   -1.4920    0.0185 C   0  0  2  0  0  0  0  0  0  0  0  0
  -22.0743   -1.6631   -0.0593 O   0  0  0  0  0  0  0  0  0  0  0  0
  -23.8512   -0.7103   -1.2629 C   0  0  0  0  0  0  0  0  0  0  0  0
  -24.5339   -1.7174    3.4101 N   0  0  0  0  0  0  0  0  0  0  0  0
  -24.2058   -2.5264    4.5364 C   0  0  2  0  0  0  0  0  0  0  0  0
  -25.2296   -3.3822    5.1091 C   0  0  0  0  0  0  0  0  0  0  0  0
  -26.4458   -2.9717    4.9021 O   0  0  0  0  0  0  0  0  0  0  0  0
  -23.5336   -1.6303    5.5573 C   0  0  2  0  0  0  0  0  0  0  0  0
  -23.1086   -2.3495    6.6823 O   0  0  0  0  0  0  0  0  0  0  0  0
  -24.3731   -0.4431    5.9366 C   0  0  0  0  0  0  0  0  0  0  0  0
  -25.1139   -4.5673    5.8414 N   0  0  0  0  0  0  0  0  0  0  0  0
  -26.0789   -5.6746    5.7664 C   0  0  2  0  0  0  0  0  0  0  0  0
  -26.9546   -5.7429    6.9569 C   0  0  0  0  0  0  0  0  0  0  0  0
  -26.4936   -5.8548    8.1207 O   0  0  0  0  0  0  0  0  0  0  0  0
  -25.1712   -6.8782    5.7333 C   0  0  0  0  0  0  0  0  0  0  0  0
  -23.7856   -6.3871    6.1835 C   0  0  0  0  0  0  0  0  0  0  0  0
  -24.1353   -5.0274    6.8025 C   0  0  0  0  0  0  0  0  0  0  0  0
  -28.3404   -5.6875    6.8642 O   0  0  0  0  0  0  0  0  0  0  0  0
  1  2  1  0
  2  3  1  0
  2  5  1  1
  3  4  2  0
  3  6  1  0
  6  7  1  0
  7  8  1  0
  7 10  1  6
  8  9  2  0
  8 11  1  0
 11 12  1  0
 12 13  1  0
 12 15  1  6
 13 14  2  0
 13 19  1  0
 15 16  1  0
 16 17  1  0
 16 18  2  0
 20 19  1  1
 20 21  1  0
 20 23  1  0
 21 22  2  0
 21 26  1  0
 23 24  1  0
 23 25  1  1
 27 26  1  6
 27 28  1  0
 27 30  1  0
 28 29  2  0
 28 33  1  0
 30 31  1  0
 30 32  1  6
 34 33  1  6
 34 35  1  0
 34 37  1  0
 35 36  2  0
 35 40  1  0
 37 38  1  0
 37 39  1  1
 40 41  1  0
 40 46  1  0
 41 42  1  1
 41 44  1  0
 42 43  2  0
 42 47  1  0
 44 45  1  0
 45 46  1  0
M  CHG  1   1   1
M  END
$$$$
