
     RDKit          3D

 47 47  0  0  0  0  0  0  0  0999 V2000
  -25.1154   11.2608    1.7734 N   0  0  0  0  0  4  0  0  0  0  0  0
  -25.2231    9.7948    1.8781 C   0  0  2  0  0  0  0  0  0  0  0  0
  -23.9936    9.2710    2.4991 C   0  0  0  0  0  0  0  0  0  0  0  0
  -22.8861    9.4977    1.9535 O   0  0  0  0  0  0  0  0  0  0  0  0
  -25.4755    9.2786    0.4878 C   0  0  0  0  0  0  0  0  0  0  0  0
  -23.9733    8.5158    3.6891 N   0  0  0  0  0  0  0  0  0  0  0  0
  -22.8340    7.9748    4.3524 C   0  0  2  0  0  0  0  0  0  0  0  0
  -21.9348    7.2616    3.3707 C   0  0  0  0  0  0  0  0  0  0  0  0
  -21.0753    7.8606    2.7144 O   0  0  0  0  0  0  0  0  0  0  0  0
  -23.2206    7.1328    5.5156 C   0  0  0  0  0  0  0  0  0  0  0  0
  -22.0966    5.8650    3.2069 N   0  0  0  0  0  0  0  0  0  0  0  0
  -21.2984    5.0387    2.3094 C   0  0  2  0  0  0  0  0  0  0  0  0
  -21.7300    3.6203    2.3835 C   0  0  0  0  0  0  0  0  0  0  0  0
  -21.0553    2.8293    3.1048 O   0  0  0  0  0  0  0  0  0  0  0  0
  -19.8496    5.2897    2.3411 C   0  0  0  0  0  0  0  0  0  0  0  0
  -19.2585    5.5908    3.6430 C   0  0  0  0  0  0  0  0  0  0  0  0
  -19.7577    6.4725    4.5699 O   0  0  0  0  0  0  0  0  0  0  0  0
  -18.1894    4.9806    3.9380 O   0  0  0  0  0  0  0  0  0  0  0  0
  -22.8395    3.0533    1.7199 N   0  0  0  0  0  0  0  0  0  0  0  0
  -22.9044    1.6595    1.3582 C   0  0  2  0  0  0  0  0  0  0  0  0
  -22.3336    0.7239    2.3665 C   0  0  0  0  0  0  0  0  0  0  0  0
  -21.1365    0.5788    2.6320 O   0  0  0  0  0  0  0  0  0  0  0  0
  -22.1600    1.4795    0.0660 C   0  0  2  0  0  0  0  0  0  0  0  0
  -22.5508    2.5564   -0.7616 O   0  0  0  0  0  0  0  0  0  0  0  0
  -22.6136    0.2085   -0.6185 C   0  0  0  0  0  0  0  0  0  0  0  0
  -23.3123   -0.0487    3.0642 N   0  0  0  0  0  0  0  0  0  0  0  0
  -23.0845   -1.3584    3.5998 C   0  0  2  0  0  0  0  0  0  0  0  0
  -24.1011   -2.3287    3.1138 C   0  0  0  0  0  0  0  0  0  0  0  0
  -25.1504   -1.9585    2.5335 O   0  0  0  0  0  0  0  0  0  0  0  0
  -23.0311   -1.2850    5.0940 C   0  0  2  0  0  0  0  0  0  0  0  0
  -24.2579   -1.6783    5.6098 O   0  0  0  0  0  0  0  0  0  0  0  0
  -22.6538    0.0492    5.6506 C   0  0  0  0  0  0  0  0  0  0  0  0
  -23.8970   -3.7180    3.3071 N   0  0  0  0  0  0  0  0  0  0  0  0
  -24.9309   -4.6266    2.7330 C   0  0  2  0  0  0  0  0  0  0  0  0
  -24.7776   -5.9782    3.3231 C   0  0  0  0  0  0  0  0  0  0  0  0
  -23.6491   -6.3298    3.7406 O   0  0  0  0  0  0  0  0  0  0  0  0
  -24.6589   -4.6875    1.2307 C   0  0  2  0  0  0  0  0  0  0  0  0
  -25.5147   -5.5625    0.5814 O   0  0  0  0  0  0  0  0  0  0  0  0
  -23.2326   -4.7600    0.8454 C   0  0  0  0  0  0  0  0  0  0  0  0
  -25.8949   -6.8618    3.4229 N   0  0  0  0  0  0  0  0  0  0  0  0
  -25.9846   -8.1330    4.0844 C   0  0  2  0  0  0  0  0  0  0  0  0
  -24.8344   -9.0232    3.8703 C   0  0  0  0  0  0  0  0  0  0  0  0
  -24.3674   -9.1129    2.7111 O   0  0  0  0  0  0  0  0  0  0  0  0
  -27.2309   -8.7946    3.5408 C   0  0  0  0  0  0  0  0  0  0  0  0
  -27.6626   -7.9046    2.3736 C   0  0  0  0  0  0  0  0  0  0  0  0
  -27.2228   -6.5595    2.9124 C   0  0  0  0  0  0  0  0  0  0  0  0
  -24.2279   -9.7720    4.8633 O   0  0  0  0  0  0  0  0  0  0  0  0
  1  2  1  6
  2  3  1  6
  5  2  1  6
  3  4  2  0
  3  6  1  0
  7  6  1  6
  7  8  1  0
 10  7  1  6
  8  9  2  0
  8 11  1  0
 12 11  1  1
 12 13  1  0
 12 15  1  0
 13 14  2  0
 13 19  1  0
 15 16  1  6
 16 17  1  0
 16 18  2  0
 20 19  1  1
 20 21  1  0
 20 23  1  0
 21 22  2  0
 21 26  1  0
 23 24  1  6
 25 23  1  6
 27 26  1  6
 27 28  1  0
 27 30  1  0
 28 29  2  0
 28 33  1  0
 30 31  1  1
 32 30  1  6
 34 33  1  1
 34 35  1  0
 34 37  1  0
 35 36  2  0
 35 40  1  0
 37 38  1  1
 39 37  1  6
 40 41  1  0
 46 40  1  1
 41 42  1  6
 44 41  1  1
 42 43  2  0
 42 47  1  0
 44 45  1  0
 45 46  1  6
M  CHG  1   1   1
M  END
$$$$
