
     RDKit          3D

 47 47  0  0  0  0  0  0  0  0999 V2000
  -21.3126    9.5826    4.0651 N   0  0  0  0  0  4  0  0  0  0  0  0
  -20.5849    9.5306    2.8212 C   0  0  2  0  0  0  0  0  0  0  0  0
  -20.4972    8.1164    2.3848 C   0  0  0  0  0  0  0  0  0  0  0  0
  -21.0728    7.7260    1.3056 O   0  0  0  0  0  0  0  0  0  0  0  0
  -19.1647   10.0349    3.0656 C   0  0  0  0  0  0  0  0  0  0  0  0
  -19.7929    7.1013    3.0983 N   0  0  0  0  0  0  0  0  0  0  0  0
  -19.6984    5.7778    2.5517 C   0  0  2  0  0  0  0  0  0  0  0  0
  -20.9769    5.0537    2.4337 C   0  0  0  0  0  0  0  0  0  0  0  0
  -21.8490    5.2391    3.3430 O   0  0  0  0  0  0  0  0  0  0  0  0
  -18.7452    4.9305    3.4254 C   0  0  0  0  0  0  0  0  0  0  0  0
  -21.3454    4.1587    1.3951 N   0  0  0  0  0  0  0  0  0  0  0  0
  -22.4988    3.2572    1.5765 C   0  0  2  0  0  0  0  0  0  0  0  0
  -22.0878    2.0996    2.4417 C   0  0  0  0  0  0  0  0  0  0  0  0
  -21.1149    2.3041    3.1758 O   0  0  0  0  0  0  0  0  0  0  0  0
  -22.8496    2.8166    0.1762 C   0  0  0  0  0  0  0  0  0  0  0  0
  -24.1643    2.2064    0.0835 C   0  0  0  0  0  0  0  0  0  0  0  0
  -25.0263    2.3181    1.1889 O   0  0  0  0  0  0  0  0  0  0  0  0
  -24.5774    1.5951   -0.9019 O   0  0  0  0  0  0  0  0  0  0  0  0
  -22.7491    0.8784    2.4310 N   0  0  0  0  0  0  0  0  0  0  0  0
  -22.4574   -0.2776    3.2675 C   0  0  2  0  0  0  0  0  0  0  0  0
  -23.3831   -1.3519    3.0060 C   0  0  0  0  0  0  0  0  0  0  0  0
  -24.5583   -1.0184    2.5855 O   0  0  0  0  0  0  0  0  0  0  0  0
  -22.3957    0.1325    4.7335 C   0  0  2  0  0  0  0  0  0  0  0  0
  -23.6820    0.6462    5.0440 O   0  0  0  0  0  0  0  0  0  0  0  0
  -21.4696    1.3417    4.9153 C   0  0  0  0  0  0  0  0  0  0  0  0
  -23.1850   -2.7320    3.1447 N   0  0  0  0  0  0  0  0  0  0  0  0
  -24.2660   -3.7092    2.8505 C   0  0  2  0  0  0  0  0  0  0  0  0
  -24.9834   -3.8635    4.1180 C   0  0  0  0  0  0  0  0  0  0  0  0
  -24.2861   -3.8436    5.2019 O   0  0  0  0  0  0  0  0  0  0  0  0
  -23.6808   -4.9602    2.2834 C   0  0  2  0  0  0  0  0  0  0  0  0
  -22.2650   -4.9262    2.5192 O   0  0  0  0  0  0  0  0  0  0  0  0
  -23.8059   -4.8980    0.7477 C   0  0  0  0  0  0  0  0  0  0  0  0
  -26.3640   -4.0315    4.3256 N   0  0  0  0  0  0  0  0  0  0  0  0
  -26.9424   -4.2121    5.6154 C   0  0  2  0  0  0  0  0  0  0  0  0
  -27.6313   -5.4562    5.9087 C   0  0  0  0  0  0  0  0  0  0  0  0
  -28.4424   -5.8510    4.9724 O   0  0  0  0  0  0  0  0  0  0  0  0
  -27.7745   -2.9812    5.9150 C   0  0  2  0  0  0  0  0  0  0  0  0
  -28.7890   -2.7945    4.9666 O   0  0  0  0  0  0  0  0  0  0  0  0
  -26.9430   -1.7426    6.0961 C   0  0  0  0  0  0  0  0  0  0  0  0
  -27.5600   -6.2884    7.0297 N   0  0  0  0  0  0  0  0  0  0  0  0
  -26.5805   -6.1208    8.1139 C   0  0  2  0  0  0  0  0  0  0  0  0
  -25.4973   -7.1269    8.0577 C   0  0  0  0  0  0  0  0  0  0  0  0
  -24.6343   -7.2318    8.9652 O   0  0  0  0  0  0  0  0  0  0  0  0
  -27.4279   -6.3541    9.3392 C   0  0  0  0  0  0  0  0  0  0  0  0
  -28.7252   -7.0167    8.8476 C   0  0  0  0  0  0  0  0  0  0  0  0
  -28.3237   -7.4497    7.4314 C   0  0  0  0  0  0  0  0  0  0  0  0
  -25.3658   -8.0189    6.9997 O   0  0  0  0  0  0  0  0  0  0  0  0
  1  2  1  0
  2  3  1  0
  2  5  1  1
  3  4  2  0
  3  6  1  0
  6  7  1  0
  7  8  1  0
  7 10  1  1
  8  9  2  0
  8 11  1  0
 11 12  1  0
 12 13  1  0
 12 15  1  6
 13 14  2  0
 13 19  1  0
 15 16  1  0
 16 17  1  0
 16 18  2  0
 20 19  1  6
 20 21  1  0
 20 23  1  0
 21 22  2  0
 21 26  1  0
 23 24  1  0
 23 25  1  6
 27 26  1  1
 27 28  1  0
 27 30  1  0
 28 29  2  0
 28 33  1  0
 30 31  1  0
 30 32  1  6
 34 33  1  6
 34 35  1  0
 34 37  1  0
 35 36  2  0
 35 40  1  0
 37 38  1  0
 37 39  1  6
 40 41  1  0
 40 46  1  0
 41 42  1  6
 41 44  1  0
 42 43  2  0
 42 47  1  0
 44 45  1  0
 45 46  1  0
M  CHG  1   1   1
M  END
$$$$
