
     RDKit          3D

 47 47  0  0  0  0  0  0  0  0999 V2000
  -21.0209    8.8292    4.2692 N   0  0  0  0  0  4  0  0  0  0  0  0
  -20.3719    7.8142    5.1179 C   0  0  2  0  0  0  0  0  0  0  0  0
  -20.1552    6.5949    4.3193 C   0  0  0  0  0  0  0  0  0  0  0  0
  -19.5587    5.6197    4.8379 O   0  0  0  0  0  0  0  0  0  0  0  0
  -21.2638    7.6139    6.3127 C   0  0  0  0  0  0  0  0  0  0  0  0
  -20.5795    6.4432    2.9837 N   0  0  0  0  0  0  0  0  0  0  0  0
  -20.5322    5.2616    2.1885 C   0  0  2  0  0  0  0  0  0  0  0  0
  -21.3316    4.1538    2.8326 C   0  0  0  0  0  0  0  0  0  0  0  0
  -20.9861    3.6301    3.8977 O   0  0  0  0  0  0  0  0  0  0  0  0
  -19.1347    4.8685    1.8664 C   0  0  0  0  0  0  0  0  0  0  0  0
  -22.5082    3.7115    2.1817 N   0  0  0  0  0  0  0  0  0  0  0  0
  -23.4194    2.7048    2.7125 C   0  0  2  0  0  0  0  0  0  0  0  0
  -22.9999    1.3456    2.2886 C   0  0  0  0  0  0  0  0  0  0  0  0
  -22.2072    1.2458    1.3073 O   0  0  0  0  0  0  0  0  0  0  0  0
  -24.8505    3.0215    2.5906 C   0  0  0  0  0  0  0  0  0  0  0  0
  -25.3224    4.2249    3.2720 C   0  0  0  0  0  0  0  0  0  0  0  0
  -24.7156    4.8350    4.3421 O   0  0  0  0  0  0  0  0  0  0  0  0
  -26.3874    4.7481    2.8315 O   0  0  0  0  0  0  0  0  0  0  0  0
  -23.4013    0.1289    2.8816 N   0  0  0  0  0  0  0  0  0  0  0  0
  -23.1178   -1.1567    2.2946 C   0  0  2  0  0  0  0  0  0  0  0  0
  -24.3153   -2.0019    2.0303 C   0  0  0  0  0  0  0  0  0  0  0  0
  -25.2420   -2.2205    2.8164 O   0  0  0  0  0  0  0  0  0  0  0  0
  -22.2048   -1.9019    3.2260 C   0  0  2  0  0  0  0  0  0  0  0  0
  -22.8899   -1.9844    4.4593 O   0  0  0  0  0  0  0  0  0  0  0  0
  -20.9478   -1.0960    3.4713 C   0  0  0  0  0  0  0  0  0  0  0  0
  -24.3410   -2.5842    0.7258 N   0  0  0  0  0  0  0  0  0  0  0  0
  -24.9511   -3.8415    0.4079 C   0  0  2  0  0  0  0  0  0  0  0  0
  -25.5988   -4.4484    1.6010 C   0  0  0  0  0  0  0  0  0  0  0  0
  -26.0815   -5.6066    1.5791 O   0  0  0  0  0  0  0  0  0  0  0  0
  -23.9348   -4.7470   -0.2149 C   0  0  2  0  0  0  0  0  0  0  0  0
  -23.5424   -5.6957    0.7188 O   0  0  0  0  0  0  0  0  0  0  0  0
  -22.7310   -4.0606   -0.7735 C   0  0  0  0  0  0  0  0  0  0  0  0
  -25.6860   -3.7089    2.8071 N   0  0  0  0  0  0  0  0  0  0  0  0
  -26.3235   -4.4003    3.9645 C   0  0  2  0  0  0  0  0  0  0  0  0
  -26.4461   -3.4501    5.0960 C   0  0  0  0  0  0  0  0  0  0  0  0
  -25.4768   -2.7015    5.3629 O   0  0  0  0  0  0  0  0  0  0  0  0
  -25.3834   -5.5413    4.3507 C   0  0  2  0  0  0  0  0  0  0  0  0
  -24.2385   -5.0822    4.9816 O   0  0  0  0  0  0  0  0  0  0  0  0
  -25.1890   -6.5820    3.3176 C   0  0  0  0  0  0  0  0  0  0  0  0
  -27.6481   -3.3811    5.8639 N   0  0  0  0  0  0  0  0  0  0  0  0
  -27.9369   -2.5785    7.0189 C   0  0  2  0  0  0  0  0  0  0  0  0
  -26.8618   -2.5278    8.0204 C   0  0  0  0  0  0  0  0  0  0  0  0
  -26.3905   -1.4065    8.3214 O   0  0  0  0  0  0  0  0  0  0  0  0
  -29.1705   -3.1872    7.6470 C   0  0  0  0  0  0  0  0  0  0  0  0
  -29.3757   -4.5045    6.8965 C   0  0  0  0  0  0  0  0  0  0  0  0
  -28.8723   -4.0915    5.5294 C   0  0  0  0  0  0  0  0  0  0  0  0
  -26.3317   -3.6358    8.6575 O   0  0  0  0  0  0  0  0  0  0  0  0
  1  2  1  6
  2  3  1  6
  5  2  1  6
  3  4  2  0
  3  6  1  0
  7  6  1  1
  7  8  1  0
 10  7  1  6
  8  9  2  0
  8 11  1  0
 12 11  1  6
 12 13  1  0
 12 15  1  0
 13 14  2  0
 13 19  1  0
 15 16  1  6
 16 17  1  0
 16 18  2  0
 20 19  1  1
 20 21  1  0
 20 23  1  0
 21 22  2  0
 21 26  1  0
 23 24  1  1
 25 23  1  6
 27 26  1  1
 27 28  1  0
 27 30  1  0
 28 29  2  0
 28 33  1  0
 30 31  1  1
 32 30  1  6
 34 33  1  6
 34 35  1  0
 34 37  1  0
 35 36  2  0
 35 40  1  0
 37 38  1  6
 39 37  1  6
 40 41  1  0
 46 40  1  1
 41 42  1  1
 44 41  1  1
 42 43  2  0
 42 47  1  0
 44 45  1  0
 45 46  1  6
M  CHG  1   1   1
M  END
$$$$
