
     RDKit          3D

 47 47  0  0  0  0  0  0  0  0999 V2000
  -23.7198   13.8082    1.0042 N   0  0  0  0  0  4  0  0  0  0  0  0
  -23.2681   12.6455    1.7890 C   0  0  2  0  0  0  0  0  0  0  0  0
  -23.4728   11.4243    0.9901 C   0  0  0  0  0  0  0  0  0  0  0  0
  -24.6407   11.0769    0.6886 O   0  0  0  0  0  0  0  0  0  0  0  0
  -24.0385   12.6691    3.0810 C   0  0  0  0  0  0  0  0  0  0  0  0
  -22.4258   10.5997    0.5309 N   0  0  0  0  0  0  0  0  0  0  0  0
  -22.5327    9.4419   -0.2930 C   0  0  2  0  0  0  0  0  0  0  0  0
  -23.3428    8.3701    0.3969 C   0  0  0  0  0  0  0  0  0  0  0  0
  -24.4626    8.0343   -0.0049 O   0  0  0  0  0  0  0  0  0  0  0  0
  -21.2008    8.9679   -0.7544 C   0  0  0  0  0  0  0  0  0  0  0  0
  -22.7892    7.7433    1.5390 N   0  0  0  0  0  0  0  0  0  0  0  0
  -23.4559    6.7086    2.3203 C   0  0  2  0  0  0  0  0  0  0  0  0
  -23.1009    5.3601    1.8113 C   0  0  0  0  0  0  0  0  0  0  0  0
  -23.9891    4.7038    1.1935 O   0  0  0  0  0  0  0  0  0  0  0  0
  -24.8776    6.9519    2.6077 C   0  0  0  0  0  0  0  0  0  0  0  0
  -25.5634    5.9641    3.4377 C   0  0  0  0  0  0  0  0  0  0  0  0
  -25.1577    5.5316    4.6763 O   0  0  0  0  0  0  0  0  0  0  0  0
  -26.6274    5.4651    2.9674 O   0  0  0  0  0  0  0  0  0  0  0  0
  -21.8481    4.7236    1.9468 N   0  0  0  0  0  0  0  0  0  0  0  0
  -21.7137    3.3187    2.2397 C   0  0  2  0  0  0  0  0  0  0  0  0
  -22.9564    2.5190    2.0544 C   0  0  0  0  0  0  0  0  0  0  0  0
  -24.1136    2.9247    2.1991 O   0  0  0  0  0  0  0  0  0  0  0  0
  -21.2675    3.1820    3.6674 C   0  0  2  0  0  0  0  0  0  0  0  0
  -22.2520    3.8306    4.4467 O   0  0  0  0  0  0  0  0  0  0  0  0
  -19.9712    3.9337    3.8775 C   0  0  0  0  0  0  0  0  0  0  0  0
  -22.7245    1.1630    1.6684 N   0  0  0  0  0  0  0  0  0  0  0  0
  -23.7010    0.1168    1.7453 C   0  0  2  0  0  0  0  0  0  0  0  0
  -23.2939   -0.9366    2.7127 C   0  0  0  0  0  0  0  0  0  0  0  0
  -22.3694   -0.7569    3.5421 O   0  0  0  0  0  0  0  0  0  0  0  0
  -23.9555   -0.4310    0.3756 C   0  0  2  0  0  0  0  0  0  0  0  0
  -23.2877   -1.6400    0.2412 O   0  0  0  0  0  0  0  0  0  0  0  0
  -23.5847    0.4783   -0.7504 C   0  0  0  0  0  0  0  0  0  0  0  0
  -23.9568   -2.1895    2.7093 N   0  0  0  0  0  0  0  0  0  0  0  0
  -23.6188   -3.1218    3.8231 C   0  0  2  0  0  0  0  0  0  0  0  0
  -24.3040   -4.4180    3.6022 C   0  0  0  0  0  0  0  0  0  0  0  0
  -25.4207   -4.4207    3.0328 O   0  0  0  0  0  0  0  0  0  0  0  0
  -24.1486   -2.4712    5.1001 C   0  0  2  0  0  0  0  0  0  0  0  0
  -25.5326   -2.4118    5.1191 O   0  0  0  0  0  0  0  0  0  0  0  0
  -23.4349   -1.2506    5.5347 C   0  0  0  0  0  0  0  0  0  0  0  0
  -23.7013   -5.6427    4.0217 N   0  0  0  0  0  0  0  0  0  0  0  0
  -24.0509   -6.9893    3.6664 C   0  0  2  0  0  0  0  0  0  0  0  0
  -25.4932   -7.2739    3.6680 C   0  0  0  0  0  0  0  0  0  0  0  0
  -26.1895   -6.7800    4.5853 O   0  0  0  0  0  0  0  0  0  0  0  0
  -23.3700   -7.8754    4.6851 C   0  0  0  0  0  0  0  0  0  0  0  0
  -22.8394   -6.9079    5.7448 C   0  0  0  0  0  0  0  0  0  0  0  0
  -22.5146   -5.7239    4.8585 C   0  0  0  0  0  0  0  0  0  0  0  0
  -26.1393   -8.0517    2.7234 O   0  0  0  0  0  0  0  0  0  0  0  0
  1  2  1  6
  2  3  1  6
  5  2  1  6
  3  4  2  0
  3  6  1  0
  7  6  1  1
  7  8  1  0
 10  7  1  6
  8  9  2  0
  8 11  1  0
 12 11  1  6
 12 13  1  0
 12 15  1  0
 13 14  2  0
 13 19  1  0
 15 16  1  6
 16 17  1  0
 16 18  2  0
 20 19  1  1
 20 21  1  0
 20 23  1  0
 21 22  2  0
 21 26  1  0
 23 24  1  1
 25 23  1  6
 27 26  1  6
 27 28  1  0
 27 30  1  0
 28 29  2  0
 28 33  1  0
 30 31  1  6
 32 30  1  6
 34 33  1  6
 34 35  1  0
 34 37  1  0
 35 36  2  0
 35 40  1  0
 37 38  1  6
 39 37  1  6
 40 41  1  0
 46 40  1  1
 41 42  1  1
 44 41  1  1
 42 43  2  0
 42 47  1  0
 44 45  1  0
 45 46  1  6
M  CHG  1   1   1
M  END
$$$$
