
     RDKit          3D

 47 47  0  0  0  0  0  0  0  0999 V2000
  -22.7803    8.2802    5.4267 N   0  0  0  0  0  4  0  0  0  0  0  0
  -23.1902    8.7944    4.1433 C   0  0  2  0  0  0  0  0  0  0  0  0
  -22.4041    8.1107    3.0884 C   0  0  0  0  0  0  0  0  0  0  0  0
  -21.7523    8.7875    2.2134 O   0  0  0  0  0  0  0  0  0  0  0  0
  -22.8573   10.2832    4.0854 C   0  0  0  0  0  0  0  0  0  0  0  0
  -22.3058    6.6936    2.9558 N   0  0  0  0  0  0  0  0  0  0  0  0
  -21.4304    6.1267    1.9701 C   0  0  2  0  0  0  0  0  0  0  0  0
  -21.3696    4.6539    1.9559 C   0  0  0  0  0  0  0  0  0  0  0  0
  -21.8666    4.0500    0.9509 O   0  0  0  0  0  0  0  0  0  0  0  0
  -19.9976    6.6645    2.1886 C   0  0  0  0  0  0  0  0  0  0  0  0
  -20.8039    3.8244    2.9597 N   0  0  0  0  0  0  0  0  0  0  0  0
  -21.6092    2.7442    3.5603 C   0  0  2  0  0  0  0  0  0  0  0  0
  -22.4071    2.0670    2.4824 C   0  0  0  0  0  0  0  0  0  0  0  0
  -22.8992    2.8187    1.6338 O   0  0  0  0  0  0  0  0  0  0  0  0
  -22.4954    3.4518    4.5564 C   0  0  0  0  0  0  0  0  0  0  0  0
  -22.5431    2.7890    5.8480 C   0  0  0  0  0  0  0  0  0  0  0  0
  -21.5029    1.9016    6.1763 O   0  0  0  0  0  0  0  0  0  0  0  0
  -23.4367    2.9523    6.6787 O   0  0  0  0  0  0  0  0  0  0  0  0
  -22.5850    0.6907    2.4279 N   0  0  0  0  0  0  0  0  0  0  0  0
  -23.5535   -0.0311    1.6142 C   0  0  2  0  0  0  0  0  0  0  0  0
  -24.3696   -0.8973    2.4286 C   0  0  0  0  0  0  0  0  0  0  0  0
  -23.9133   -2.0848    2.6539 O   0  0  0  0  0  0  0  0  0  0  0  0
  -22.8509   -0.7514    0.4702 C   0  0  2  0  0  0  0  0  0  0  0  0
  -23.8318   -1.5950   -0.1138 O   0  0  0  0  0  0  0  0  0  0  0  0
  -21.8060   -1.7338    1.0141 C   0  0  0  0  0  0  0  0  0  0  0  0
  -25.6101   -0.6285    3.0222 N   0  0  0  0  0  0  0  0  0  0  0  0
  -26.6593   -1.6745    3.1456 C   0  0  2  0  0  0  0  0  0  0  0  0
  -25.9343   -2.9429    3.0424 C   0  0  0  0  0  0  0  0  0  0  0  0
  -25.3041   -3.1795    1.9431 O   0  0  0  0  0  0  0  0  0  0  0  0
  -27.7219   -1.4530    2.1205 C   0  0  2  0  0  0  0  0  0  0  0  0
  -27.0920   -1.4563    0.8304 O   0  0  0  0  0  0  0  0  0  0  0  0
  -28.2488   -0.0121    2.2760 C   0  0  0  0  0  0  0  0  0  0  0  0
  -25.8225   -3.9658    4.0008 N   0  0  0  0  0  0  0  0  0  0  0  0
  -25.4921   -5.3119    3.6698 C   0  0  2  0  0  0  0  0  0  0  0  0
  -26.2895   -6.3890    4.2287 C   0  0  0  0  0  0  0  0  0  0  0  0
  -27.0160   -6.0413    5.2494 O   0  0  0  0  0  0  0  0  0  0  0  0
  -24.0045   -5.4838    3.9039 C   0  0  2  0  0  0  0  0  0  0  0  0
  -23.7422   -6.2676    5.0354 O   0  0  0  0  0  0  0  0  0  0  0  0
  -23.2637   -4.1770    3.9444 C   0  0  0  0  0  0  0  0  0  0  0  0
  -26.3977   -7.7289    3.8452 N   0  0  0  0  0  0  0  0  0  0  0  0
  -27.4717   -8.6265    4.2967 C   0  0  2  0  0  0  0  0  0  0  0  0
  -27.0098   -9.5918    5.3182 C   0  0  0  0  0  0  0  0  0  0  0  0
  -25.8122   -9.9655    5.3920 O   0  0  0  0  0  0  0  0  0  0  0  0
  -27.8211   -9.3594    3.0259 C   0  0  0  0  0  0  0  0  0  0  0  0
  -26.6630   -9.1041    2.0475 C   0  0  0  0  0  0  0  0  0  0  0  0
  -25.5816   -8.5682    2.9950 C   0  0  0  0  0  0  0  0  0  0  0  0
  -27.8693  -10.1455    6.2599 O   0  0  0  0  0  0  0  0  0  0  0  0
  1  2  1  0
  2  3  1  0
  2  5  1  1
  3  4  2  0
  3  6  1  0
  6  7  1  0
  7  8  1  0
  7 10  1  1
  8  9  2  0
  8 11  1  0
 11 12  1  0
 12 13  1  0
 12 15  1  1
 13 14  2  0
 13 19  1  0
 15 16  1  0
 16 17  1  0
 16 18  2  0
 20 19  1  1
 20 21  1  0
 20 23  1  0
 21 22  2  0
 21 26  1  0
 23 24  1  0
 23 25  1  1
 27 26  1  6
 27 28  1  0
 27 30  1  0
 28 29  2  0
 28 33  1  0
 30 31  1  0
 30 32  1  1
 34 33  1  1
 34 35  1  0
 34 37  1  0
 35 36  2  0
 35 40  1  0
 37 38  1  0
 37 39  1  1
 40 41  1  0
 40 46  1  0
 41 42  1  1
 41 44  1  0
 42 43  2  0
 42 47  1  0
 44 45  1  0
 45 46  1  0
M  CHG  1   1   1
M  END
$$$$
