
     RDKit          3D

 47 47  0  0  0  0  0  0  0  0999 V2000
  -22.2889    9.9202    3.0151 N   0  0  0  0  0  4  0  0  0  0  0  0
  -20.8631    9.7294    2.6952 C   0  0  2  0  0  0  0  0  0  0  0  0
  -20.7196    8.5194    1.8665 C   0  0  0  0  0  0  0  0  0  0  0  0
  -20.9902    8.5786    0.6422 O   0  0  0  0  0  0  0  0  0  0  0  0
  -20.1297    9.6644    4.0071 C   0  0  0  0  0  0  0  0  0  0  0  0
  -20.2909    7.2718    2.3631 N   0  0  0  0  0  0  0  0  0  0  0  0
  -20.1506    6.0528    1.6385 C   0  0  2  0  0  0  0  0  0  0  0  0
  -21.1645    5.0356    2.1059 C   0  0  0  0  0  0  0  0  0  0  0  0
  -21.8515    5.2123    3.1183 O   0  0  0  0  0  0  0  0  0  0  0  0
  -18.7521    5.5484    1.6721 C   0  0  0  0  0  0  0  0  0  0  0  0
  -21.3179    3.8477    1.3516 N   0  0  0  0  0  0  0  0  0  0  0  0
  -22.4852    2.9760    1.4081 C   0  0  2  0  0  0  0  0  0  0  0  0
  -22.5030    2.2093    2.6790 C   0  0  0  0  0  0  0  0  0  0  0  0
  -21.4431    2.1763    3.3697 O   0  0  0  0  0  0  0  0  0  0  0  0
  -22.7697    2.2211    0.1784 C   0  0  0  0  0  0  0  0  0  0  0  0
  -23.8109    1.1988    0.2554 C   0  0  0  0  0  0  0  0  0  0  0  0
  -23.6146   -0.1316    0.5333 O   0  0  0  0  0  0  0  0  0  0  0  0
  -24.9997    1.5798    0.0463 O   0  0  0  0  0  0  0  0  0  0  0  0
  -23.6040    1.5011    3.2073 N   0  0  0  0  0  0  0  0  0  0  0  0
  -23.4549    0.3629    4.0790 C   0  0  2  0  0  0  0  0  0  0  0  0
  -24.2604   -0.8295    3.6949 C   0  0  0  0  0  0  0  0  0  0  0  0
  -24.8163   -1.0153    2.6082 O   0  0  0  0  0  0  0  0  0  0  0  0
  -23.8557    0.7826    5.4644 C   0  0  2  0  0  0  0  0  0  0  0  0
  -25.2623    0.9172    5.4387 O   0  0  0  0  0  0  0  0  0  0  0  0
  -23.2862    2.1497    5.7749 C   0  0  0  0  0  0  0  0  0  0  0  0
  -24.3598   -1.8202    4.7197 N   0  0  0  0  0  0  0  0  0  0  0  0
  -24.7910   -3.1703    4.5071 C   0  0  2  0  0  0  0  0  0  0  0  0
  -24.8584   -3.9270    5.7854 C   0  0  0  0  0  0  0  0  0  0  0  0
  -24.3758   -3.4755    6.8522 O   0  0  0  0  0  0  0  0  0  0  0  0
  -23.8999   -3.8268    3.4993 C   0  0  2  0  0  0  0  0  0  0  0  0
  -22.6237   -3.9424    4.0318 O   0  0  0  0  0  0  0  0  0  0  0  0
  -23.8329   -3.1445    2.1718 C   0  0  0  0  0  0  0  0  0  0  0  0
  -25.4795   -5.2007    5.8175 N   0  0  0  0  0  0  0  0  0  0  0  0
  -26.2015   -5.5553    7.0733 C   0  0  2  0  0  0  0  0  0  0  0  0
  -26.7246   -6.9383    6.9640 C   0  0  0  0  0  0  0  0  0  0  0  0
  -27.4530   -7.2324    5.9871 O   0  0  0  0  0  0  0  0  0  0  0  0
  -27.3659   -4.5727    7.1883 C   0  0  2  0  0  0  0  0  0  0  0  0
  -28.5848   -5.2207    7.3057 O   0  0  0  0  0  0  0  0  0  0  0  0
  -27.3222   -3.4237    6.2576 C   0  0  0  0  0  0  0  0  0  0  0  0
  -26.3994   -7.9213    7.9474 N   0  0  0  0  0  0  0  0  0  0  0  0
  -26.8436   -9.2833    8.0441 C   0  0  2  0  0  0  0  0  0  0  0  0
  -28.2770   -9.4852    7.7877 C   0  0  0  0  0  0  0  0  0  0  0  0
  -29.0940   -8.7828    8.4274 O   0  0  0  0  0  0  0  0  0  0  0  0
  -26.5264   -9.7220    9.4560 C   0  0  0  0  0  0  0  0  0  0  0  0
  -26.1112   -8.4372   10.1754 C   0  0  0  0  0  0  0  0  0  0  0  0
  -25.4443   -7.7136    9.0244 C   0  0  0  0  0  0  0  0  0  0  0  0
  -28.7901  -10.3999    6.8850 O   0  0  0  0  0  0  0  0  0  0  0  0
  1  2  1  6
  2  3  1  1
  5  2  1  6
  3  4  2  0
  3  6  1  0
  7  6  1  1
  7  8  1  0
 10  7  1  6
  8  9  2  0
  8 11  1  0
 12 11  1  6
 12 13  1  0
 12 15  1  0
 13 14  2  0
 13 19  1  0
 15 16  1  6
 16 17  1  0
 16 18  2  0
 20 19  1  6
 20 21  1  0
 20 23  1  0
 21 22  2  0
 21 26  1  0
 23 24  1  6
 25 23  1  6
 27 26  1  1
 27 28  1  0
 27 30  1  0
 28 29  2  0
 28 33  1  0
 30 31  1  1
 32 30  1  6
 34 33  1  6
 34 35  1  0
 34 37  1  0
 35 36  2  0
 35 40  1  0
 37 38  1  6
 39 37  1  6
 40 41  1  0
 46 40  1  1
 41 42  1  1
 44 41  1  1
 42 43  2  0
 42 47  1  0
 44 45  1  0
 45 46  1  6
M  CHG  1   1   1
M  END
$$$$
