
     RDKit          3D

 47 47  0  0  0  0  0  0  0  0999 V2000
  -22.7266   10.5351    2.1149 N   0  0  0  0  0  4  0  0  0  0  0  0
  -21.4568   10.6289    1.3727 C   0  0  2  0  0  0  0  0  0  0  0  0
  -20.9304    9.2694    1.1577 C   0  0  0  0  0  0  0  0  0  0  0  0
  -20.0364    9.0869    0.2957 O   0  0  0  0  0  0  0  0  0  0  0  0
  -20.5488   11.5176    2.1782 C   0  0  0  0  0  0  0  0  0  0  0  0
  -21.3706    8.1339    1.8673 N   0  0  0  0  0  0  0  0  0  0  0  0
  -20.8134    6.8226    1.8355 C   0  0  2  0  0  0  0  0  0  0  0  0
  -21.4734    5.9382    2.8665 C   0  0  0  0  0  0  0  0  0  0  0  0
  -21.7074    6.3321    4.0147 O   0  0  0  0  0  0  0  0  0  0  0  0
  -19.3306    6.8500    1.9457 C   0  0  0  0  0  0  0  0  0  0  0  0
  -21.8256    4.6197    2.4909 N   0  0  0  0  0  0  0  0  0  0  0  0
  -23.1787    4.1849    2.1660 C   0  0  2  0  0  0  0  0  0  0  0  0
  -23.1950    2.7402    1.8252 C   0  0  0  0  0  0  0  0  0  0  0  0
  -22.9523    2.4076    0.6286 O   0  0  0  0  0  0  0  0  0  0  0  0
  -23.9333    5.0809    1.2767 C   0  0  0  0  0  0  0  0  0  0  0  0
  -25.3514    4.7841    1.0868 C   0  0  0  0  0  0  0  0  0  0  0  0
  -26.0638    3.8060    1.7361 O   0  0  0  0  0  0  0  0  0  0  0  0
  -25.9748    5.4964    0.2464 O   0  0  0  0  0  0  0  0  0  0  0  0
  -23.4568    1.6784    2.7180 N   0  0  0  0  0  0  0  0  0  0  0  0
  -22.9852    0.3350    2.4933 C   0  0  2  0  0  0  0  0  0  0  0  0
  -23.3616   -0.6454    3.5493 C   0  0  0  0  0  0  0  0  0  0  0  0
  -23.9631   -0.3936    4.5978 O   0  0  0  0  0  0  0  0  0  0  0  0
  -21.4869    0.3785    2.3956 C   0  0  2  0  0  0  0  0  0  0  0  0
  -21.0239    0.7509    3.6779 O   0  0  0  0  0  0  0  0  0  0  0  0
  -21.0633    1.4707    1.4380 C   0  0  0  0  0  0  0  0  0  0  0  0
  -22.9673   -1.9888    3.2643 N   0  0  0  0  0  0  0  0  0  0  0  0
  -23.8415   -3.1230    3.3222 C   0  0  2  0  0  0  0  0  0  0  0  0
  -23.4991   -4.1268    2.2799 C   0  0  0  0  0  0  0  0  0  0  0  0
  -22.8008   -3.8350    1.2789 O   0  0  0  0  0  0  0  0  0  0  0  0
  -25.2632   -2.6636    3.2297 C   0  0  2  0  0  0  0  0  0  0  0  0
  -26.1027   -3.7329    3.5080 O   0  0  0  0  0  0  0  0  0  0  0  0
  -25.6471   -2.0470    1.9241 C   0  0  0  0  0  0  0  0  0  0  0  0
  -23.9709   -5.4578    2.4026 N   0  0  0  0  0  0  0  0  0  0  0  0
  -23.4784   -6.4325    1.3871 C   0  0  2  0  0  0  0  0  0  0  0  0
  -24.5400   -7.4297    1.1096 C   0  0  0  0  0  0  0  0  0  0  0  0
  -25.1307   -7.9667    2.0760 O   0  0  0  0  0  0  0  0  0  0  0  0
  -22.2707   -7.1280    2.0134 C   0  0  2  0  0  0  0  0  0  0  0  0
  -21.4525   -7.7111    1.0594 O   0  0  0  0  0  0  0  0  0  0  0  0
  -22.5583   -7.9418    3.2148 C   0  0  0  0  0  0  0  0  0  0  0  0
  -24.8909   -7.7676   -0.2328 N   0  0  0  0  0  0  0  0  0  0  0  0
  -25.7956   -8.7788   -0.7024 C   0  0  2  0  0  0  0  0  0  0  0  0
  -25.6819  -10.0752   -0.0185 C   0  0  0  0  0  0  0  0  0  0  0  0
  -24.7770  -10.2117    0.8374 O   0  0  0  0  0  0  0  0  0  0  0  0
  -25.4825   -8.9640   -2.1701 C   0  0  0  0  0  0  0  0  0  0  0  0
  -24.1955   -8.1675   -2.3937 C   0  0  0  0  0  0  0  0  0  0  0  0
  -24.4251   -7.0437   -1.4051 C   0  0  0  0  0  0  0  0  0  0  0  0
  -26.5079  -11.1601   -0.2537 O   0  0  0  0  0  0  0  0  0  0  0  0
  1  2  1  6
  2  3  1  1
  5  2  1  6
  3  4  2  0
  3  6  1  0
  7  6  1  1
  7  8  1  0
 10  7  1  6
  8  9  2  0
  8 11  1  0
 12 11  1  6
 12 13  1  0
 12 15  1  0
 13 14  2  0
 13 19  1  0
 15 16  1  6
 16 17  1  0
 16 18  2  0
 20 19  1  1
 20 21  1  0
 20 23  1  0
 21 22  2  0
 21 26  1  0
 23 24  1  1
 25 23  1  6
 27 26  1  6
 27 28  1  0
 27 30  1  0
 28 29  2  0
 28 33  1  0
 30 31  1  6
 32 30  1  6
 34 33  1  1
 34 35  1  0
 34 37  1  0
 35 36  2  0
 35 40  1  0
 37 38  1  6
 39 37  1  6
 40 41  1  0
 46 40  1  1
 41 42  1  1
 44 41  1  1
 42 43  2  0
 42 47  1  0
 44 45  1  0
 45 46  1  6
M  CHG  1   1   1
M  END
$$$$
