
     RDKit          3D

 47 47  0  0  0  0  0  0  0  0999 V2000
  -18.6276   10.4864    2.2605 N   0  0  0  0  0  4  0  0  0  0  0  0
  -19.9840   10.0657    1.8668 C   0  0  2  0  0  0  0  0  0  0  0  0
  -20.5441    9.2123    2.9296 C   0  0  0  0  0  0  0  0  0  0  0  0
  -19.9323    8.1688    3.2649 O   0  0  0  0  0  0  0  0  0  0  0  0
  -19.8551    9.3798    0.5341 C   0  0  0  0  0  0  0  0  0  0  0  0
  -21.7460    9.4912    3.6110 N   0  0  0  0  0  0  0  0  0  0  0  0
  -22.3512    8.7252    4.6492 C   0  0  2  0  0  0  0  0  0  0  0  0
  -22.6304    7.3174    4.1788 C   0  0  0  0  0  0  0  0  0  0  0  0
  -21.8560    6.3825    4.4124 O   0  0  0  0  0  0  0  0  0  0  0  0
  -23.5475    9.4060    5.2120 C   0  0  0  0  0  0  0  0  0  0  0  0
  -23.8182    7.0792    3.4466 N   0  0  0  0  0  0  0  0  0  0  0  0
  -24.2878    5.7613    3.0367 C   0  0  2  0  0  0  0  0  0  0  0  0
  -23.1428    4.8379    2.8374 C   0  0  0  0  0  0  0  0  0  0  0  0
  -22.0955    5.2962    2.2947 O   0  0  0  0  0  0  0  0  0  0  0  0
  -25.3276    5.7568    1.9966 C   0  0  0  0  0  0  0  0  0  0  0  0
  -26.5751    5.0640    2.3109 C   0  0  0  0  0  0  0  0  0  0  0  0
  -26.7527    4.1377    3.3091 O   0  0  0  0  0  0  0  0  0  0  0  0
  -27.5798    5.3471    1.5951 O   0  0  0  0  0  0  0  0  0  0  0  0
  -23.1015    3.4743    3.2007 N   0  0  0  0  0  0  0  0  0  0  0  0
  -22.5216    2.4590    2.3579 C   0  0  2  0  0  0  0  0  0  0  0  0
  -23.4017    1.2869    2.0938 C   0  0  0  0  0  0  0  0  0  0  0  0
  -23.2067    0.4022    1.2548 O   0  0  0  0  0  0  0  0  0  0  0  0
  -21.2630    1.9710    3.0166 C   0  0  2  0  0  0  0  0  0  0  0  0
  -21.6437    1.5289    4.3039 O   0  0  0  0  0  0  0  0  0  0  0  0
  -20.3017    3.1233    3.2111 C   0  0  0  0  0  0  0  0  0  0  0  0
  -24.5636    1.2320    2.9237 N   0  0  0  0  0  0  0  0  0  0  0  0
  -25.5575    0.2012    2.8648 C   0  0  2  0  0  0  0  0  0  0  0  0
  -24.9418   -1.1363    2.6569 C   0  0  0  0  0  0  0  0  0  0  0  0
  -24.2602   -1.4039    1.6378 O   0  0  0  0  0  0  0  0  0  0  0  0
  -26.5651    0.5380    1.8102 C   0  0  2  0  0  0  0  0  0  0  0  0
  -26.4931   -0.4083    0.7978 O   0  0  0  0  0  0  0  0  0  0  0  0
  -26.4413    1.9090    1.2293 C   0  0  0  0  0  0  0  0  0  0  0  0
  -25.1235   -2.1533    3.6274 N   0  0  0  0  0  0  0  0  0  0  0  0
  -24.6256   -3.5118    3.2660 C   0  0  2  0  0  0  0  0  0  0  0  0
  -25.6736   -4.5151    3.5714 C   0  0  0  0  0  0  0  0  0  0  0  0
  -26.4565   -4.2983    4.5261 O   0  0  0  0  0  0  0  0  0  0  0  0
  -23.4003   -3.7647    4.1431 C   0  0  2  0  0  0  0  0  0  0  0  0
  -23.7495   -4.1323    5.4325 O   0  0  0  0  0  0  0  0  0  0  0  0
  -22.3127   -2.7700    4.0178 C   0  0  0  0  0  0  0  0  0  0  0  0
  -25.7965   -5.7033    2.7888 N   0  0  0  0  0  0  0  0  0  0  0  0
  -26.6233   -6.8544    3.0187 C   0  0  2  0  0  0  0  0  0  0  0  0
  -26.6468   -7.3304    4.4094 C   0  0  0  0  0  0  0  0  0  0  0  0
  -27.6087   -8.0481    4.7696 O   0  0  0  0  0  0  0  0  0  0  0  0
  -26.0684   -7.9456    2.1310 C   0  0  0  0  0  0  0  0  0  0  0  0
  -24.7504   -7.3783    1.6002 C   0  0  0  0  0  0  0  0  0  0  0  0
  -25.1277   -5.9143    1.5147 C   0  0  0  0  0  0  0  0  0  0  0  0
  -25.6768   -7.0412    5.3529 O   0  0  0  0  0  0  0  0  0  0  0  0
  1  2  1  6
  2  3  1  1
  5  2  1  6
  3  4  2  0
  3  6  1  0
  7  6  1  6
  7  8  1  0
 10  7  1  6
  8  9  2  0
  8 11  1  0
 12 11  1  6
 12 13  1  0
 12 15  1  0
 13 14  2  0
 13 19  1  0
 15 16  1  6
 16 17  1  0
 16 18  2  0
 20 19  1  1
 20 21  1  0
 20 23  1  0
 21 22  2  0
 21 26  1  0
 23 24  1  1
 25 23  1  6
 27 26  1  6
 27 28  1  0
 27 30  1  0
 28 29  2  0
 28 33  1  0
 30 31  1  6
 32 30  1  6
 34 33  1  1
 34 35  1  0
 34 37  1  0
 35 36  2  0
 35 40  1  0
 37 38  1  1
 39 37  1  6
 40 41  1  0
 46 40  1  1
 41 42  1  1
 44 41  1  1
 42 43  2  0
 42 47  1  0
 44 45  1  0
 45 46  1  6
M  CHG  1   1   1
M  END
$$$$
