
     RDKit          3D

 47 47  0  0  0  0  0  0  0  0999 V2000
  -20.0101   11.6850    4.7063 N   0  0  0  0  0  4  0  0  0  0  0  0
  -20.6432   10.3547    4.7428 C   0  0  2  0  0  0  0  0  0  0  0  0
  -20.9206    9.9222    3.3617 C   0  0  0  0  0  0  0  0  0  0  0  0
  -21.4827   10.7184    2.5706 O   0  0  0  0  0  0  0  0  0  0  0  0
  -21.8706   10.4825    5.6033 C   0  0  0  0  0  0  0  0  0  0  0  0
  -20.5925    8.6484    2.8551 N   0  0  0  0  0  0  0  0  0  0  0  0
  -20.7544    8.1793    1.5193 C   0  0  2  0  0  0  0  0  0  0  0  0
  -20.3512    6.7278    1.4119 C   0  0  0  0  0  0  0  0  0  0  0  0
  -19.1947    6.3507    1.6320 O   0  0  0  0  0  0  0  0  0  0  0  0
  -20.0622    9.0567    0.5383 C   0  0  0  0  0  0  0  0  0  0  0  0
  -21.3396    5.7837    1.0438 N   0  0  0  0  0  0  0  0  0  0  0  0
  -22.3446    5.2412    1.9501 C   0  0  2  0  0  0  0  0  0  0  0  0
  -22.0967    3.7994    2.2014 C   0  0  0  0  0  0  0  0  0  0  0  0
  -20.9591    3.4578    2.6379 O   0  0  0  0  0  0  0  0  0  0  0  0
  -23.7327    5.6310    1.6600 C   0  0  0  0  0  0  0  0  0  0  0  0
  -24.5647    4.6496    0.9674 C   0  0  0  0  0  0  0  0  0  0  0  0
  -25.2245    3.5968    1.5523 O   0  0  0  0  0  0  0  0  0  0  0  0
  -24.6847    4.7873   -0.2851 O   0  0  0  0  0  0  0  0  0  0  0  0
  -23.0196    2.7500    2.0014 N   0  0  0  0  0  0  0  0  0  0  0  0
  -22.6964    1.3677    2.2509 C   0  0  2  0  0  0  0  0  0  0  0  0
  -23.8118    0.4106    2.0100 C   0  0  0  0  0  0  0  0  0  0  0  0
  -25.0060    0.6984    1.8846 O   0  0  0  0  0  0  0  0  0  0  0  0
  -22.2625    1.2429    3.6835 C   0  0  2  0  0  0  0  0  0  0  0  0
  -23.4390    1.3582    4.4580 O   0  0  0  0  0  0  0  0  0  0  0  0
  -21.3716    2.4077    4.0566 C   0  0  0  0  0  0  0  0  0  0  0  0
  -23.3992   -0.9544    1.9200 N   0  0  0  0  0  0  0  0  0  0  0  0
  -24.1611   -1.9952    1.2954 C   0  0  2  0  0  0  0  0  0  0  0  0
  -23.9547   -3.3020    1.9743 C   0  0  0  0  0  0  0  0  0  0  0  0
  -23.0192   -4.0761    1.6574 O   0  0  0  0  0  0  0  0  0  0  0  0
  -23.8310   -2.0494   -0.1637 C   0  0  2  0  0  0  0  0  0  0  0  0
  -22.5254   -2.4946   -0.3154 O   0  0  0  0  0  0  0  0  0  0  0  0
  -24.0154   -0.7648   -0.9040 C   0  0  0  0  0  0  0  0  0  0  0  0
  -24.8346   -3.7035    3.0105 N   0  0  0  0  0  0  0  0  0  0  0  0
  -24.7278   -5.1217    3.4592 C   0  0  2  0  0  0  0  0  0  0  0  0
  -25.6756   -5.9547    2.6807 C   0  0  0  0  0  0  0  0  0  0  0  0
  -26.8347   -5.5220    2.4799 O   0  0  0  0  0  0  0  0  0  0  0  0
  -25.1248   -5.1337    4.9347 C   0  0  2  0  0  0  0  0  0  0  0  0
  -25.2037   -6.4203    5.4425 O   0  0  0  0  0  0  0  0  0  0  0  0
  -26.2238   -4.2152    5.3046 C   0  0  0  0  0  0  0  0  0  0  0  0
  -25.2752   -7.2231    2.1610 N   0  0  0  0  0  0  0  0  0  0  0  0
  -26.0842   -8.2557    1.5771 C   0  0  2  0  0  0  0  0  0  0  0  0
  -27.3396   -8.5340    2.2896 C   0  0  0  0  0  0  0  0  0  0  0  0
  -27.3460   -8.4196    3.5373 O   0  0  0  0  0  0  0  0  0  0  0  0
  -25.2275   -9.5018    1.5780 C   0  0  0  0  0  0  0  0  0  0  0  0
  -24.0051   -9.1292    2.4192 C   0  0  0  0  0  0  0  0  0  0  0  0
  -23.8930   -7.6632    2.0568 C   0  0  0  0  0  0  0  0  0  0  0  0
  -28.5205   -8.9144    1.6766 O   0  0  0  0  0  0  0  0  0  0  0  0
  1  2  1  6
  2  3  1  6
  5  2  1  6
  3  4  2  0
  3  6  1  0
  7  6  1  1
  7  8  1  0
 10  7  1  6
  8  9  2  0
  8 11  1  0
 12 11  1  6
 12 13  1  0
 12 15  1  0
 13 14  2  0
 13 19  1  0
 15 16  1  6
 16 17  1  0
 16 18  2  0
 20 19  1  1
 20 21  1  0
 20 23  1  0
 21 22  2  0
 21 26  1  0
 23 24  1  1
 25 23  1  6
 27 26  1  1
 27 28  1  0
 27 30  1  0
 28 29  2  0
 28 33  1  0
 30 31  1  1
 32 30  1  6
 34 33  1  6
 34 35  1  0
 34 37  1  0
 35 36  2  0
 35 40  1  0
 37 38  1  6
 39 37  1  6
 40 41  1  0
 46 40  1  1
 41 42  1  1
 44 41  1  1
 42 43  2  0
 42 47  1  0
 44 45  1  0
 45 46  1  6
M  CHG  1   1   1
M  END
$$$$
