
     RDKit          3D

 47 47  0  0  0  0  0  0  0  0999 V2000
  -22.3694   11.5427    3.4250 N   0  0  0  0  0  4  0  0  0  0  0  0
  -21.0964   11.7613    2.7837 C   0  0  2  0  0  0  0  0  0  0  0  0
  -20.6664   10.4944    2.1448 C   0  0  0  0  0  0  0  0  0  0  0  0
  -19.5956   10.4465    1.4381 O   0  0  0  0  0  0  0  0  0  0  0  0
  -20.0671   12.1205    3.8525 C   0  0  0  0  0  0  0  0  0  0  0  0
  -21.3773    9.2622    2.2535 N   0  0  0  0  0  0  0  0  0  0  0  0
  -20.9007    8.0985    1.5623 C   0  0  2  0  0  0  0  0  0  0  0  0
  -21.9413    7.1325    1.1660 C   0  0  0  0  0  0  0  0  0  0  0  0
  -22.2247    7.0414   -0.0722 O   0  0  0  0  0  0  0  0  0  0  0  0
  -19.8736    7.3604    2.4512 C   0  0  0  0  0  0  0  0  0  0  0  0
  -22.6710    6.2773    2.0331 N   0  0  0  0  0  0  0  0  0  0  0  0
  -22.0638    5.0189    2.5061 C   0  0  2  0  0  0  0  0  0  0  0  0
  -22.4057    3.9155    1.5454 C   0  0  0  0  0  0  0  0  0  0  0  0
  -21.9446    4.0414    0.4058 O   0  0  0  0  0  0  0  0  0  0  0  0
  -22.6837    4.7951    3.8640 C   0  0  0  0  0  0  0  0  0  0  0  0
  -24.0956    5.1330    3.9084 C   0  0  0  0  0  0  0  0  0  0  0  0
  -24.7873    4.9330    5.1163 O   0  0  0  0  0  0  0  0  0  0  0  0
  -24.7309    5.5850    2.9558 O   0  0  0  0  0  0  0  0  0  0  0  0
  -23.1824    2.8203    1.9007 N   0  0  0  0  0  0  0  0  0  0  0  0
  -23.2744    1.5510    1.1925 C   0  0  2  0  0  0  0  0  0  0  0  0
  -24.1989    0.6592    1.8477 C   0  0  0  0  0  0  0  0  0  0  0  0
  -24.1311    0.5941    3.1363 O   0  0  0  0  0  0  0  0  0  0  0  0
  -21.8867    0.9545    0.9937 C   0  0  2  0  0  0  0  0  0  0  0  0
  -22.0929   -0.2939    0.3501 O   0  0  0  0  0  0  0  0  0  0  0  0
  -21.2689    0.5681    2.3434 C   0  0  0  0  0  0  0  0  0  0  0  0
  -25.1795   -0.1616    1.2747 N   0  0  0  0  0  0  0  0  0  0  0  0
  -26.0874   -0.9919    2.1091 C   0  0  2  0  0  0  0  0  0  0  0  0
  -25.3540   -2.2407    2.3278 C   0  0  0  0  0  0  0  0  0  0  0  0
  -24.3072   -2.4494    1.6052 O   0  0  0  0  0  0  0  0  0  0  0  0
  -27.4126   -1.1310    1.4356 C   0  0  2  0  0  0  0  0  0  0  0  0
  -27.1759   -1.5914    0.0965 O   0  0  0  0  0  0  0  0  0  0  0  0
  -28.0077    0.2791    1.2467 C   0  0  0  0  0  0  0  0  0  0  0  0
  -25.6362   -3.2710    3.2422 N   0  0  0  0  0  0  0  0  0  0  0  0
  -25.0658   -4.5736    3.1497 C   0  0  2  0  0  0  0  0  0  0  0  0
  -25.9275   -5.6967    2.8261 C   0  0  0  0  0  0  0  0  0  0  0  0
  -27.1894   -5.3947    2.7423 O   0  0  0  0  0  0  0  0  0  0  0  0
  -24.2368   -4.7948    4.3992 C   0  0  2  0  0  0  0  0  0  0  0  0
  -25.0280   -4.7980    5.5556 O   0  0  0  0  0  0  0  0  0  0  0  0
  -23.0833   -3.8384    4.5129 C   0  0  0  0  0  0  0  0  0  0  0  0
  -25.6161   -7.0393    2.5926 N   0  0  0  0  0  0  0  0  0  0  0  0
  -26.5836   -8.0312    2.0995 C   0  0  2  0  0  0  0  0  0  0  0  0
  -27.0371   -8.9554    3.1620 C   0  0  0  0  0  0  0  0  0  0  0  0
  -26.4587   -9.0298    4.2753 O   0  0  0  0  0  0  0  0  0  0  0  0
  -25.7652   -8.7873    1.0834 C   0  0  0  0  0  0  0  0  0  0  0  0
  -24.2960   -8.4254    1.3561 C   0  0  0  0  0  0  0  0  0  0  0  0
  -24.3952   -7.7987    2.7531 C   0  0  0  0  0  0  0  0  0  0  0  0
  -28.1299   -9.7984    2.9970 O   0  0  0  0  0  0  0  0  0  0  0  0
  1  2  1  0
  2  3  1  0
  2  5  1  1
  3  4  2  0
  3  6  1  0
  6  7  1  0
  7  8  1  0
  7 10  1  1
  8  9  2  0
  8 11  1  0
 11 12  1  0
 12 13  1  0
 12 15  1  1
 13 14  2  0
 13 19  1  0
 15 16  1  0
 16 17  1  0
 16 18  2  0
 20 19  1  1
 20 21  1  0
 20 23  1  0
 21 22  2  0
 21 26  1  0
 23 24  1  0
 23 25  1  1
 27 26  1  6
 27 28  1  0
 27 30  1  0
 28 29  2  0
 28 33  1  0
 30 31  1  0
 30 32  1  6
 34 33  1  1
 34 35  1  0
 34 37  1  0
 35 36  2  0
 35 40  1  0
 37 38  1  0
 37 39  1  1
 40 41  1  0
 40 46  1  0
 41 42  1  1
 41 44  1  0
 42 43  2  0
 42 47  1  0
 44 45  1  0
 45 46  1  0
M  CHG  1   1   1
M  END
$$$$
