
     RDKit          3D

 47 47  0  0  0  0  0  0  0  0999 V2000
  -24.6211   10.3113    2.2486 N   0  0  0  0  0  4  0  0  0  0  0  0
  -24.3197   10.5593    3.6368 C   0  0  2  0  0  0  0  0  0  0  0  0
  -22.8539   10.4464    3.8286 C   0  0  0  0  0  0  0  0  0  0  0  0
  -22.3113   10.7734    4.9454 O   0  0  0  0  0  0  0  0  0  0  0  0
  -24.9879    9.4774    4.4818 C   0  0  0  0  0  0  0  0  0  0  0  0
  -21.9495    9.9827    2.8273 N   0  0  0  0  0  0  0  0  0  0  0  0
  -21.1711    8.7998    3.0595 C   0  0  2  0  0  0  0  0  0  0  0  0
  -21.5539    7.6270    2.2527 C   0  0  0  0  0  0  0  0  0  0  0  0
  -21.6380    7.7776    0.9910 O   0  0  0  0  0  0  0  0  0  0  0  0
  -21.2679    8.4085    4.5519 C   0  0  0  0  0  0  0  0  0  0  0  0
  -21.8409    6.3254    2.7417 N   0  0  0  0  0  0  0  0  0  0  0  0
  -21.0962    5.1637    2.2204 C   0  0  2  0  0  0  0  0  0  0  0  0
  -21.5476    3.9253    2.9416 C   0  0  0  0  0  0  0  0  0  0  0  0
  -21.3475    3.9179    4.1610 O   0  0  0  0  0  0  0  0  0  0  0  0
  -19.6510    5.4887    2.5103 C   0  0  0  0  0  0  0  0  0  0  0  0
  -18.7475    4.3952    2.1979 C   0  0  0  0  0  0  0  0  0  0  0  0
  -18.3129    3.5728    3.2525 O   0  0  0  0  0  0  0  0  0  0  0  0
  -18.3345    4.1382    1.0671 O   0  0  0  0  0  0  0  0  0  0  0  0
  -22.1535    2.8554    2.2957 N   0  0  0  0  0  0  0  0  0  0  0  0
  -23.4444    2.2622    2.6161 C   0  0  2  0  0  0  0  0  0  0  0  0
  -23.3059    0.8620    2.9316 C   0  0  0  0  0  0  0  0  0  0  0  0
  -24.3411    0.2726    3.4319 O   0  0  0  0  0  0  0  0  0  0  0  0
  -24.4459    2.5415    1.5024 C   0  0  2  0  0  0  0  0  0  0  0  0
  -23.7640    2.2551    0.2908 O   0  0  0  0  0  0  0  0  0  0  0  0
  -24.7384    4.0442    1.4065 C   0  0  0  0  0  0  0  0  0  0  0  0
  -22.1874    0.0339    2.7688 N   0  0  0  0  0  0  0  0  0  0  0  0
  -22.1183   -1.3156    3.3886 C   0  0  2  0  0  0  0  0  0  0  0  0
  -23.2544   -2.0447    2.8204 C   0  0  0  0  0  0  0  0  0  0  0  0
  -24.3714   -1.4112    2.7089 O   0  0  0  0  0  0  0  0  0  0  0  0
  -22.1093   -1.1924    4.8765 C   0  0  2  0  0  0  0  0  0  0  0  0
  -23.3981   -0.7072    5.2826 O   0  0  0  0  0  0  0  0  0  0  0  0
  -21.1429   -0.0535    5.2601 C   0  0  0  0  0  0  0  0  0  0  0  0
  -23.2991   -3.3738    2.3634 N   0  0  0  0  0  0  0  0  0  0  0  0
  -24.5133   -4.0493    2.0470 C   0  0  2  0  0  0  0  0  0  0  0  0
  -24.8018   -5.3165    2.6946 C   0  0  0  0  0  0  0  0  0  0  0  0
  -23.8247   -5.7830    3.4144 O   0  0  0  0  0  0  0  0  0  0  0  0
  -24.6167   -4.1111    0.5361 C   0  0  2  0  0  0  0  0  0  0  0  0
  -23.5530   -4.8261   -0.0302 O   0  0  0  0  0  0  0  0  0  0  0  0
  -24.7797   -2.7571   -0.0951 C   0  0  0  0  0  0  0  0  0  0  0  0
  -25.9548   -6.1065    2.6657 N   0  0  0  0  0  0  0  0  0  0  0  0
  -26.2219   -7.2013    3.6107 C   0  0  2  0  0  0  0  0  0  0  0  0
  -26.0314   -8.5350    2.9994 C   0  0  0  0  0  0  0  0  0  0  0  0
  -26.3969   -8.7905    1.8245 O   0  0  0  0  0  0  0  0  0  0  0  0
  -27.6812   -6.9912    3.9277 C   0  0  0  0  0  0  0  0  0  0  0  0
  -28.2253   -6.0411    2.8483 C   0  0  0  0  0  0  0  0  0  0  0  0
  -27.1109   -6.1119    1.7960 C   0  0  0  0  0  0  0  0  0  0  0  0
  -25.4367   -9.5883    3.6843 O   0  0  0  0  0  0  0  0  0  0  0  0
  1  2  1  0
  2  3  1  0
  2  5  1  1
  3  4  2  0
  3  6  1  0
  6  7  1  0
  7  8  1  0
  7 10  1  1
  8  9  2  0
  8 11  1  0
 11 12  1  0
 12 13  1  0
 12 15  1  1
 13 14  2  0
 13 19  1  0
 15 16  1  0
 16 17  1  0
 16 18  2  0
 20 19  1  6
 20 21  1  0
 20 23  1  0
 21 22  2  0
 21 26  1  0
 23 24  1  0
 23 25  1  6
 27 26  1  6
 27 28  1  0
 27 30  1  0
 28 29  2  0
 28 33  1  0
 30 31  1  0
 30 32  1  6
 34 33  1  6
 34 35  1  0
 34 37  1  0
 35 36  2  0
 35 40  1  0
 37 38  1  0
 37 39  1  6
 40 41  1  0
 40 46  1  0
 41 42  1  6
 41 44  1  0
 42 43  2  0
 42 47  1  0
 44 45  1  0
 45 46  1  0
M  CHG  1   1   1
M  END
$$$$
