
     RDKit          3D

 47 47  0  0  0  0  0  0  0  0999 V2000
  -21.4043   10.3979    1.0919 N   0  0  0  0  0  4  0  0  0  0  0  0
  -21.9655    9.4021    2.0222 C   0  0  2  0  0  0  0  0  0  0  0  0
  -20.9727    8.3332    2.2299 C   0  0  0  0  0  0  0  0  0  0  0  0
  -19.7949    8.6408    2.5365 O   0  0  0  0  0  0  0  0  0  0  0  0
  -23.2600    8.9279    1.4201 C   0  0  0  0  0  0  0  0  0  0  0  0
  -21.2586    6.9586    2.1052 N   0  0  0  0  0  0  0  0  0  0  0  0
  -20.4535    5.8638    2.5339 C   0  0  2  0  0  0  0  0  0  0  0  0
  -21.1135    4.5499    2.1890 C   0  0  0  0  0  0  0  0  0  0  0  0
  -20.4673    3.5802    1.7762 O   0  0  0  0  0  0  0  0  0  0  0  0
  -20.0853    5.9785    3.9702 C   0  0  0  0  0  0  0  0  0  0  0  0
  -22.5163    4.4437    2.3459 N   0  0  0  0  0  0  0  0  0  0  0  0
  -23.3039    3.2727    1.9800 C   0  0  2  0  0  0  0  0  0  0  0  0
  -22.5239    2.0292    2.2009 C   0  0  0  0  0  0  0  0  0  0  0  0
  -21.2621    2.0973    2.1319 O   0  0  0  0  0  0  0  0  0  0  0  0
  -24.0348    3.3756    0.7079 C   0  0  0  0  0  0  0  0  0  0  0  0
  -24.8922    2.2496    0.3444 C   0  0  0  0  0  0  0  0  0  0  0  0
  -24.5007    0.9367    0.2499 O   0  0  0  0  0  0  0  0  0  0  0  0
  -26.1046    2.5141    0.0950 O   0  0  0  0  0  0  0  0  0  0  0  0
  -23.0565    0.7537    2.4879 N   0  0  0  0  0  0  0  0  0  0  0  0
  -22.3419   -0.2366    3.2536 C   0  0  2  0  0  0  0  0  0  0  0  0
  -22.9904   -1.5764    3.3044 C   0  0  0  0  0  0  0  0  0  0  0  0
  -22.5394   -2.5849    3.8559 O   0  0  0  0  0  0  0  0  0  0  0  0
  -22.1978    0.2766    4.6579 C   0  0  2  0  0  0  0  0  0  0  0  0
  -21.4379   -0.6930    5.3506 O   0  0  0  0  0  0  0  0  0  0  0  0
  -23.5534    0.3370    5.3273 C   0  0  0  0  0  0  0  0  0  0  0  0
  -24.2535   -1.6380    2.6393 N   0  0  0  0  0  0  0  0  0  0  0  0
  -25.0466   -2.8243    2.5075 C   0  0  2  0  0  0  0  0  0  0  0  0
  -25.8576   -3.0743    3.7286 C   0  0  0  0  0  0  0  0  0  0  0  0
  -26.3895   -2.1407    4.3768 O   0  0  0  0  0  0  0  0  0  0  0  0
  -24.1620   -3.9811    2.1608 C   0  0  2  0  0  0  0  0  0  0  0  0
  -24.0471   -4.8098    3.2679 O   0  0  0  0  0  0  0  0  0  0  0  0
  -22.8023   -3.6130    1.6626 C   0  0  0  0  0  0  0  0  0  0  0  0
  -26.0427   -4.4014    4.1911 N   0  0  0  0  0  0  0  0  0  0  0  0
  -27.0273   -4.5877    5.2956 C   0  0  2  0  0  0  0  0  0  0  0  0
  -27.1579   -6.0336    5.5969 C   0  0  0  0  0  0  0  0  0  0  0  0
  -27.7053   -6.7790    4.7508 O   0  0  0  0  0  0  0  0  0  0  0  0
  -28.3590   -4.0483    4.7758 C   0  0  2  0  0  0  0  0  0  0  0  0
  -28.1838   -3.0611    3.8197 O   0  0  0  0  0  0  0  0  0  0  0  0
  -29.3846   -3.7846    5.8088 C   0  0  0  0  0  0  0  0  0  0  0  0
  -26.6628   -6.5709    6.8237 N   0  0  0  0  0  0  0  0  0  0  0  0
  -26.7829   -7.9059    7.3385 C   0  0  2  0  0  0  0  0  0  0  0  0
  -28.1158   -8.5080    7.1890 C   0  0  0  0  0  0  0  0  0  0  0  0
  -28.7708   -8.2382    6.1555 O   0  0  0  0  0  0  0  0  0  0  0  0
  -26.4432   -7.8138    8.8091 C   0  0  0  0  0  0  0  0  0  0  0  0
  -26.3739   -6.3126    9.0959 C   0  0  0  0  0  0  0  0  0  0  0  0
  -25.8367   -5.8309    7.7646 C   0  0  0  0  0  0  0  0  0  0  0  0
  -28.7004   -9.3560    8.1130 O   0  0  0  0  0  0  0  0  0  0  0  0
  1  2  1  6
  2  3  1  6
  5  2  1  6
  3  4  2  0
  3  6  1  0
  7  6  1  1
  7  8  1  0
 10  7  1  6
  8  9  2  0
  8 11  1  0
 12 11  1  6
 12 13  1  0
 12 15  1  0
 13 14  2  0
 13 19  1  0
 15 16  1  6
 16 17  1  0
 16 18  2  0
 20 19  1  6
 20 21  1  0
 20 23  1  0
 21 22  2  0
 21 26  1  0
 23 24  1  1
 25 23  1  6
 27 26  1  1
 27 28  1  0
 27 30  1  0
 28 29  2  0
 28 33  1  0
 30 31  1  1
 32 30  1  6
 34 33  1  6
 34 35  1  0
 34 37  1  0
 35 36  2  0
 35 40  1  0
 37 38  1  1
 39 37  1  6
 40 41  1  0
 46 40  1  1
 41 42  1  1
 44 41  1  1
 42 43  2  0
 42 47  1  0
 44 45  1  0
 45 46  1  6
M  CHG  1   1   1
M  END
$$$$
