
     RDKit          3D

 47 47  0  0  0  0  0  0  0  0999 V2000
  -25.6998    6.5936    4.7767 N   0  0  0  0  0  4  0  0  0  0  0  0
  -25.2679    6.8461    3.3905 C   0  0  2  0  0  0  0  0  0  0  0  0
  -23.8609    6.4320    3.2481 C   0  0  0  0  0  0  0  0  0  0  0  0
  -23.2228    6.0668    4.2655 O   0  0  0  0  0  0  0  0  0  0  0  0
  -25.5073    8.3067    3.1213 C   0  0  0  0  0  0  0  0  0  0  0  0
  -23.1651    6.4174    2.0223 N   0  0  0  0  0  0  0  0  0  0  0  0
  -21.8173    6.0137    1.7959 C   0  0  2  0  0  0  0  0  0  0  0  0
  -21.7039    4.5077    1.8035 C   0  0  0  0  0  0  0  0  0  0  0  0
  -21.4441    3.8647    0.7801 O   0  0  0  0  0  0  0  0  0  0  0  0
  -20.8763    6.6797    2.7352 C   0  0  0  0  0  0  0  0  0  0  0  0
  -21.9073    3.8271    3.0279 N   0  0  0  0  0  0  0  0  0  0  0  0
  -21.8146    2.3820    3.1970 C   0  0  2  0  0  0  0  0  0  0  0  0
  -22.6728    1.6845    2.2069 C   0  0  0  0  0  0  0  0  0  0  0  0
  -23.7500    2.2459    1.8520 O   0  0  0  0  0  0  0  0  0  0  0  0
  -21.8865    1.9029    4.5857 C   0  0  0  0  0  0  0  0  0  0  0  0
  -21.7907    0.4597    4.7936 C   0  0  0  0  0  0  0  0  0  0  0  0
  -21.7000   -0.4919    3.8077 O   0  0  0  0  0  0  0  0  0  0  0  0
  -21.7918    0.0558    5.9931 O   0  0  0  0  0  0  0  0  0  0  0  0
  -22.4035    0.4351    1.6072 N   0  0  0  0  0  0  0  0  0  0  0  0
  -23.3983   -0.3125    0.8798 C   0  0  2  0  0  0  0  0  0  0  0  0
  -24.3307   -1.1048    1.7289 C   0  0  0  0  0  0  0  0  0  0  0  0
  -25.5286   -1.3051    1.5064 O   0  0  0  0  0  0  0  0  0  0  0  0
  -22.6855   -1.2523   -0.0502 C   0  0  2  0  0  0  0  0  0  0  0  0
  -21.8808   -2.0755    0.7696 O   0  0  0  0  0  0  0  0  0  0  0  0
  -21.7501   -0.4762   -0.9515 C   0  0  0  0  0  0  0  0  0  0  0  0
  -23.7237   -1.6654    2.8946 N   0  0  0  0  0  0  0  0  0  0  0  0
  -24.4215   -2.4234    3.8907 C   0  0  2  0  0  0  0  0  0  0  0  0
  -25.7721   -1.8603    4.1552 C   0  0  0  0  0  0  0  0  0  0  0  0
  -26.1028   -0.7139    3.7663 O   0  0  0  0  0  0  0  0  0  0  0  0
  -23.5850   -2.5110    5.1291 C   0  0  2  0  0  0  0  0  0  0  0  0
  -23.5585   -1.2679    5.7453 O   0  0  0  0  0  0  0  0  0  0  0  0
  -22.1889   -2.9998    4.9184 C   0  0  0  0  0  0  0  0  0  0  0  0
  -26.7263   -2.6263    4.8705 N   0  0  0  0  0  0  0  0  0  0  0  0
  -28.0526   -1.9851    5.1025 C   0  0  2  0  0  0  0  0  0  0  0  0
  -28.7824   -2.7348    6.1531 C   0  0  0  0  0  0  0  0  0  0  0  0
  -28.6969   -3.9852    6.1715 O   0  0  0  0  0  0  0  0  0  0  0  0
  -28.8113   -2.0830    3.7798 C   0  0  2  0  0  0  0  0  0  0  0  0
  -29.8476   -1.1665    3.7046 O   0  0  0  0  0  0  0  0  0  0  0  0
  -29.1172   -3.4562    3.3228 C   0  0  0  0  0  0  0  0  0  0  0  0
  -29.5621   -2.0471    7.1320 N   0  0  0  0  0  0  0  0  0  0  0  0
  -30.3231   -2.5878    8.2229 C   0  0  2  0  0  0  0  0  0  0  0  0
  -31.1227   -3.7756    7.8894 C   0  0  0  0  0  0  0  0  0  0  0  0
  -30.7475   -4.8830    8.3398 O   0  0  0  0  0  0  0  0  0  0  0  0
  -31.2475   -1.4785    8.6717 C   0  0  0  0  0  0  0  0  0  0  0  0
  -31.1043   -0.3985    7.5975 C   0  0  0  0  0  0  0  0  0  0  0  0
  -29.6471   -0.5991    7.2378 C   0  0  0  0  0  0  0  0  0  0  0  0
  -32.2661   -3.7567    7.1103 O   0  0  0  0  0  0  0  0  0  0  0  0
  1  2  1  6
  2  3  1  1
  5  2  1  6
  3  4  2  0
  3  6  1  0
  7  6  1  1
  7  8  1  0
 10  7  1  6
  8  9  2  0
  8 11  1  0
 12 11  1  1
 12 13  1  0
 12 15  1  0
 13 14  2  0
 13 19  1  0
 15 16  1  6
 16 17  1  0
 16 18  2  0
 20 19  1  1
 20 21  1  0
 20 23  1  0
 21 22  2  0
 21 26  1  0
 23 24  1  1
 25 23  1  6
 27 26  1  6
 27 28  1  0
 27 30  1  0
 28 29  2  0
 28 33  1  0
 30 31  1  6
 32 30  1  6
 34 33  1  6
 34 35  1  0
 34 37  1  0
 35 36  2  0
 35 40  1  0
 37 38  1  1
 39 37  1  6
 40 41  1  0
 46 40  1  1
 41 42  1  6
 44 41  1  1
 42 43  2  0
 42 47  1  0
 44 45  1  0
 45 46  1  6
M  CHG  1   1   1
M  END
$$$$
