
     RDKit          3D

 47 47  0  0  0  0  0  0  0  0999 V2000
  -21.9836   10.4653    2.8341 N   0  0  0  0  0  4  0  0  0  0  0  0
  -22.3982    9.1116    3.1084 C   0  0  2  0  0  0  0  0  0  0  0  0
  -21.4407    8.1843    2.4590 C   0  0  0  0  0  0  0  0  0  0  0  0
  -20.5193    8.6298    1.6838 O   0  0  0  0  0  0  0  0  0  0  0  0
  -23.7706    8.8849    2.4790 C   0  0  0  0  0  0  0  0  0  0  0  0
  -21.4573    6.7681    2.6305 N   0  0  0  0  0  0  0  0  0  0  0  0
  -20.5103    5.9515    1.9265 C   0  0  2  0  0  0  0  0  0  0  0  0
  -21.0771    4.7674    1.2562 C   0  0  0  0  0  0  0  0  0  0  0  0
  -21.7870    4.9582    0.2163 O   0  0  0  0  0  0  0  0  0  0  0  0
  -19.4189    5.4704    2.9101 C   0  0  0  0  0  0  0  0  0  0  0  0
  -20.9100    3.4144    1.6525 N   0  0  0  0  0  0  0  0  0  0  0  0
  -21.9363    2.4141    1.3030 C   0  0  2  0  0  0  0  0  0  0  0  0
  -22.2545    1.5896    2.5181 C   0  0  0  0  0  0  0  0  0  0  0  0
  -21.2795    1.2325    3.1881 O   0  0  0  0  0  0  0  0  0  0  0  0
  -21.2944    1.5883    0.2148 C   0  0  0  0  0  0  0  0  0  0  0  0
  -22.1103    0.4609   -0.2011 C   0  0  0  0  0  0  0  0  0  0  0  0
  -21.4808   -0.7846   -0.3741 O   0  0  0  0  0  0  0  0  0  0  0  0
  -23.3213    0.5220   -0.4133 O   0  0  0  0  0  0  0  0  0  0  0  0
  -23.5514    1.2477    2.8786 N   0  0  0  0  0  0  0  0  0  0  0  0
  -23.9580    0.4918    4.0552 C   0  0  2  0  0  0  0  0  0  0  0  0
  -23.7498   -0.9215    3.8592 C   0  0  0  0  0  0  0  0  0  0  0  0
  -23.3635   -1.2958    2.6845 O   0  0  0  0  0  0  0  0  0  0  0  0
  -25.3860    0.8506    4.4469 C   0  0  2  0  0  0  0  0  0  0  0  0
  -26.1963    0.4582    3.3494 O   0  0  0  0  0  0  0  0  0  0  0  0
  -25.5625    2.3733    4.5008 C   0  0  0  0  0  0  0  0  0  0  0  0
  -23.9091   -1.9662    4.7793 N   0  0  0  0  0  0  0  0  0  0  0  0
  -23.6754   -3.3841    4.3985 C   0  0  2  0  0  0  0  0  0  0  0  0
  -24.9040   -4.0810    4.7859 C   0  0  0  0  0  0  0  0  0  0  0  0
  -25.5834   -3.5884    5.7643 O   0  0  0  0  0  0  0  0  0  0  0  0
  -22.4215   -3.8827    5.0376 C   0  0  2  0  0  0  0  0  0  0  0  0
  -22.3262   -5.2906    4.7731 O   0  0  0  0  0  0  0  0  0  0  0  0
  -22.5947   -3.8004    6.5678 C   0  0  0  0  0  0  0  0  0  0  0  0
  -25.4645   -5.2415    4.2235 N   0  0  0  0  0  0  0  0  0  0  0  0
  -26.8264   -5.6181    4.4081 C   0  0  2  0  0  0  0  0  0  0  0  0
  -27.1639   -7.0293    4.4643 C   0  0  0  0  0  0  0  0  0  0  0  0
  -26.3351   -7.8023    3.8270 O   0  0  0  0  0  0  0  0  0  0  0  0
  -27.6511   -4.8444    3.3989 C   0  0  2  0  0  0  0  0  0  0  0  0
  -27.1992   -5.0510    2.0887 O   0  0  0  0  0  0  0  0  0  0  0  0
  -27.7594   -3.3825    3.7294 C   0  0  0  0  0  0  0  0  0  0  0  0
  -28.2303   -7.6813    5.0903 N   0  0  0  0  0  0  0  0  0  0  0  0
  -28.2486   -9.1211    5.3895 C   0  0  2  0  0  0  0  0  0  0  0  0
  -29.1245   -9.8788    4.4689 C   0  0  0  0  0  0  0  0  0  0  0  0
  -30.2446   -9.4432    4.1014 O   0  0  0  0  0  0  0  0  0  0  0  0
  -28.8321   -9.1437    6.7799 C   0  0  0  0  0  0  0  0  0  0  0  0
  -29.4587   -7.7584    7.0082 C   0  0  0  0  0  0  0  0  0  0  0  0
  -29.5100   -7.2120    5.5753 C   0  0  0  0  0  0  0  0  0  0  0  0
  -28.7646  -11.1181    3.9524 O   0  0  0  0  0  0  0  0  0  0  0  0
  1  2  1  0
  2  3  1  0
  2  5  1  6
  3  4  2  0
  3  6  1  0
  6  7  1  0
  7  8  1  0
  7 10  1  1
  8  9  2  0
  8 11  1  0
 11 12  1  0
 12 13  1  0
 12 15  1  6
 13 14  2  0
 13 19  1  0
 15 16  1  0
 16 17  1  0
 16 18  2  0
 20 19  1  6
 20 21  1  0
 20 23  1  0
 21 22  2  0
 21 26  1  0
 23 24  1  0
 23 25  1  6
 27 26  1  1
 27 28  1  0
 27 30  1  0
 28 29  2  0
 28 33  1  0
 30 31  1  0
 30 32  1  1
 34 33  1  6
 34 35  1  0
 34 37  1  0
 35 36  2  0
 35 40  1  0
 37 38  1  0
 37 39  1  1
 40 41  1  0
 40 46  1  0
 41 42  1  6
 41 44  1  0
 42 43  2  0
 42 47  1  0
 44 45  1  0
 45 46  1  0
M  CHG  1   1   1
M  END
$$$$
