
     RDKit          3D

 47 47  0  0  0  0  0  0  0  0999 V2000
  -20.4084   11.0401    0.9280 N   0  0  0  0  0  4  0  0  0  0  0  0
  -21.6398   10.5623    0.2744 C   0  0  2  0  0  0  0  0  0  0  0  0
  -22.1106    9.3534    0.9733 C   0  0  0  0  0  0  0  0  0  0  0  0
  -21.4661    8.9262    1.9621 O   0  0  0  0  0  0  0  0  0  0  0  0
  -21.3031   10.3406   -1.1749 C   0  0  0  0  0  0  0  0  0  0  0  0
  -23.2591    8.6261    0.6008 N   0  0  0  0  0  0  0  0  0  0  0  0
  -23.7893    7.4624    1.2296 C   0  0  2  0  0  0  0  0  0  0  0  0
  -22.7331    6.3886    1.3402 C   0  0  0  0  0  0  0  0  0  0  0  0
  -21.8365    6.2618    0.4986 O   0  0  0  0  0  0  0  0  0  0  0  0
  -25.0359    6.9960    0.5663 C   0  0  0  0  0  0  0  0  0  0  0  0
  -22.7881    5.5067    2.4461 N   0  0  0  0  0  0  0  0  0  0  0  0
  -21.8818    4.3841    2.6556 C   0  0  2  0  0  0  0  0  0  0  0  0
  -22.5898    3.0960    2.4485 C   0  0  0  0  0  0  0  0  0  0  0  0
  -23.6092    2.8557    3.1587 O   0  0  0  0  0  0  0  0  0  0  0  0
  -21.0218    4.4802    3.8448 C   0  0  0  0  0  0  0  0  0  0  0  0
  -20.9929    3.3226    4.7359 C   0  0  0  0  0  0  0  0  0  0  0  0
  -19.8936    2.5485    5.0157 O   0  0  0  0  0  0  0  0  0  0  0  0
  -22.0828    3.0094    5.2982 O   0  0  0  0  0  0  0  0  0  0  0  0
  -22.2363    2.0929    1.5202 N   0  0  0  0  0  0  0  0  0  0  0  0
  -23.0325    0.9104    1.3072 C   0  0  2  0  0  0  0  0  0  0  0  0
  -22.5140   -0.3205    1.9662 C   0  0  0  0  0  0  0  0  0  0  0  0
  -21.3786   -0.7902    1.8445 O   0  0  0  0  0  0  0  0  0  0  0  0
  -23.1100    0.6623   -0.1722 C   0  0  2  0  0  0  0  0  0  0  0  0
  -24.0868   -0.3439   -0.3475 O   0  0  0  0  0  0  0  0  0  0  0  0
  -21.7980    0.0966   -0.6703 C   0  0  0  0  0  0  0  0  0  0  0  0
  -23.4638   -0.9737    2.8103 N   0  0  0  0  0  0  0  0  0  0  0  0
  -23.2395   -2.2254    3.4713 C   0  0  2  0  0  0  0  0  0  0  0  0
  -24.3107   -3.2069    3.1547 C   0  0  0  0  0  0  0  0  0  0  0  0
  -25.4944   -2.8525    2.9359 O   0  0  0  0  0  0  0  0  0  0  0  0
  -23.0914   -1.9940    4.9429 C   0  0  2  0  0  0  0  0  0  0  0  0
  -24.3224   -1.6281    5.4688 O   0  0  0  0  0  0  0  0  0  0  0  0
  -22.0589   -0.9843    5.3256 C   0  0  0  0  0  0  0  0  0  0  0  0
  -24.0040   -4.5897    3.0982 N   0  0  0  0  0  0  0  0  0  0  0  0
  -25.1540   -5.5163    2.8915 C   0  0  2  0  0  0  0  0  0  0  0  0
  -25.9465   -5.6005    4.1418 C   0  0  0  0  0  0  0  0  0  0  0  0
  -25.3451   -5.5611    5.2409 O   0  0  0  0  0  0  0  0  0  0  0  0
  -24.5492   -6.8829    2.5730 C   0  0  2  0  0  0  0  0  0  0  0  0
  -24.3093   -7.6259    3.7174 O   0  0  0  0  0  0  0  0  0  0  0  0
  -23.4746   -6.8810    1.5563 C   0  0  0  0  0  0  0  0  0  0  0  0
  -27.3691   -5.7159    4.0976 N   0  0  0  0  0  0  0  0  0  0  0  0
  -28.2647   -6.2300    5.0952 C   0  0  2  0  0  0  0  0  0  0  0  0
  -27.8188   -7.4710    5.7451 C   0  0  0  0  0  0  0  0  0  0  0  0
  -27.8727   -7.5327    6.9955 O   0  0  0  0  0  0  0  0  0  0  0  0
  -29.5735   -6.4867    4.3826 C   0  0  0  0  0  0  0  0  0  0  0  0
  -29.2463   -6.3090    2.8987 C   0  0  0  0  0  0  0  0  0  0  0  0
  -28.1944   -5.2249    3.0054 C   0  0  0  0  0  0  0  0  0  0  0  0
  -27.3423   -8.5811    5.0704 O   0  0  0  0  0  0  0  0  0  0  0  0
  1  2  1  6
  2  3  1  1
  5  2  1  6
  3  4  2  0
  3  6  1  0
  7  6  1  6
  7  8  1  0
 10  7  1  6
  8  9  2  0
  8 11  1  0
 12 11  1  1
 12 13  1  0
 12 15  1  0
 13 14  2  0
 13 19  1  0
 15 16  1  6
 16 17  1  0
 16 18  2  0
 20 19  1  6
 20 21  1  0
 20 23  1  0
 21 22  2  0
 21 26  1  0
 23 24  1  1
 25 23  1  6
 27 26  1  6
 27 28  1  0
 27 30  1  0
 28 29  2  0
 28 33  1  0
 30 31  1  6
 32 30  1  6
 34 33  1  1
 34 35  1  0
 34 37  1  0
 35 36  2  0
 35 40  1  0
 37 38  1  1
 39 37  1  6
 40 41  1  0
 46 40  1  1
 41 42  1  6
 44 41  1  1
 42 43  2  0
 42 47  1  0
 44 45  1  0
 45 46  1  6
M  CHG  1   1   1
M  END
$$$$
