
     RDKit          3D

 47 47  0  0  0  0  0  0  0  0999 V2000
  -21.0737    8.4838    0.4568 N   0  0  0  0  0  4  0  0  0  0  0  0
  -21.6876    8.6813    1.7466 C   0  0  2  0  0  0  0  0  0  0  0  0
  -21.3796    7.5087    2.6000 C   0  0  0  0  0  0  0  0  0  0  0  0
  -20.1900    7.0285    2.6506 O   0  0  0  0  0  0  0  0  0  0  0  0
  -23.2019    8.7421    1.5619 C   0  0  0  0  0  0  0  0  0  0  0  0
  -22.3411    6.8342    3.4100 N   0  0  0  0  0  0  0  0  0  0  0  0
  -21.9459    5.6982    4.1925 C   0  0  2  0  0  0  0  0  0  0  0  0
  -21.5719    4.5009    3.4183 C   0  0  0  0  0  0  0  0  0  0  0  0
  -20.3656    4.4047    3.0215 O   0  0  0  0  0  0  0  0  0  0  0  0
  -23.0965    5.3112    5.1498 C   0  0  0  0  0  0  0  0  0  0  0  0
  -22.4280    3.4249    3.0647 N   0  0  0  0  0  0  0  0  0  0  0  0
  -21.9770    2.0335    3.2560 C   0  0  2  0  0  0  0  0  0  0  0  0
  -23.0350    1.0980    2.7434 C   0  0  0  0  0  0  0  0  0  0  0  0
  -23.9745    0.8833    3.5169 O   0  0  0  0  0  0  0  0  0  0  0  0
  -21.7881    1.9063    4.7481 C   0  0  0  0  0  0  0  0  0  0  0  0
  -21.4910    0.5488    5.1710 C   0  0  0  0  0  0  0  0  0  0  0  0
  -20.6690   -0.2378    4.3447 O   0  0  0  0  0  0  0  0  0  0  0  0
  -21.9120    0.0379    6.2088 O   0  0  0  0  0  0  0  0  0  0  0  0
  -22.9767    0.5101    1.4864 N   0  0  0  0  0  0  0  0  0  0  0  0
  -23.9191   -0.4504    0.9293 C   0  0  2  0  0  0  0  0  0  0  0  0
  -23.6475   -1.7814    1.4131 C   0  0  0  0  0  0  0  0  0  0  0  0
  -23.2744   -2.6546    0.5371 O   0  0  0  0  0  0  0  0  0  0  0  0
  -23.9445   -0.3460   -0.5905 C   0  0  2  0  0  0  0  0  0  0  0  0
  -22.6765   -0.8093   -1.0294 O   0  0  0  0  0  0  0  0  0  0  0  0
  -23.9641    1.1239   -1.0284 C   0  0  0  0  0  0  0  0  0  0  0  0
  -23.7314   -2.2712    2.7233 N   0  0  0  0  0  0  0  0  0  0  0  0
  -23.4879   -3.7036    3.0382 C   0  0  2  0  0  0  0  0  0  0  0  0
  -24.3392   -3.9797    4.1976 C   0  0  0  0  0  0  0  0  0  0  0  0
  -24.2116   -5.1283    4.7685 O   0  0  0  0  0  0  0  0  0  0  0  0
  -22.0274   -3.9394    3.2388 C   0  0  2  0  0  0  0  0  0  0  0  0
  -21.5950   -3.1045    4.3238 O   0  0  0  0  0  0  0  0  0  0  0  0
  -21.2760   -3.3801    2.0138 C   0  0  0  0  0  0  0  0  0  0  0  0
  -25.3001   -3.1444    4.7947 N   0  0  0  0  0  0  0  0  0  0  0  0
  -26.1558   -3.5712    5.8512 C   0  0  2  0  0  0  0  0  0  0  0  0
  -27.5582   -3.8153    5.5645 C   0  0  0  0  0  0  0  0  0  0  0  0
  -28.0188   -3.1504    4.5465 O   0  0  0  0  0  0  0  0  0  0  0  0
  -25.9379   -2.6297    7.0189 C   0  0  2  0  0  0  0  0  0  0  0  0
  -26.4611   -1.3549    6.7650 O   0  0  0  0  0  0  0  0  0  0  0  0
  -24.5029   -2.5679    7.4607 C   0  0  0  0  0  0  0  0  0  0  0  0
  -28.4824   -4.6455    6.2054 N   0  0  0  0  0  0  0  0  0  0  0  0
  -29.7820   -5.0233    5.6296 C   0  0  2  0  0  0  0  0  0  0  0  0
  -30.9105   -4.3049    6.2615 C   0  0  0  0  0  0  0  0  0  0  0  0
  -30.8811   -3.9384    7.4632 O   0  0  0  0  0  0  0  0  0  0  0  0
  -29.8594   -6.4905    5.9692 C   0  0  0  0  0  0  0  0  0  0  0  0
  -28.7885   -6.7425    7.0432 C   0  0  0  0  0  0  0  0  0  0  0  0
  -28.4684   -5.3101    7.4904 C   0  0  0  0  0  0  0  0  0  0  0  0
  -32.0728   -3.9900    5.5672 O   0  0  0  0  0  0  0  0  0  0  0  0
  1  2  1  0
  2  3  1  0
  2  5  1  6
  3  4  2  0
  3  6  1  0
  6  7  1  0
  7  8  1  0
  7 10  1  1
  8  9  2  0
  8 11  1  0
 11 12  1  0
 12 13  1  0
 12 15  1  1
 13 14  2  0
 13 19  1  0
 15 16  1  0
 16 17  1  0
 16 18  2  0
 20 19  1  6
 20 21  1  0
 20 23  1  0
 21 22  2  0
 21 26  1  0
 23 24  1  0
 23 25  1  1
 27 26  1  1
 27 28  1  0
 27 30  1  0
 28 29  2  0
 28 33  1  0
 30 31  1  0
 30 32  1  6
 34 33  1  6
 34 35  1  0
 34 37  1  0
 35 36  2  0
 35 40  1  0
 37 38  1  0
 37 39  1  6
 40 41  1  0
 40 46  1  0
 41 42  1  1
 41 44  1  0
 42 43  2  0
 42 47  1  0
 44 45  1  0
 45 46  1  0
M  CHG  1   1   1
M  END
$$$$
