
     RDKit          3D

 47 47  0  0  0  0  0  0  0  0999 V2000
  -22.0315   11.8913    1.9629 N   0  0  0  0  0  4  0  0  0  0  0  0
  -23.0984   11.1108    2.6144 C   0  0  2  0  0  0  0  0  0  0  0  0
  -22.8546    9.6778    2.3721 C   0  0  0  0  0  0  0  0  0  0  0  0
  -23.7874    8.8576    2.5531 O   0  0  0  0  0  0  0  0  0  0  0  0
  -24.4033   11.6131    2.0594 C   0  0  0  0  0  0  0  0  0  0  0  0
  -21.6197    9.1514    1.9422 N   0  0  0  0  0  0  0  0  0  0  0  0
  -21.2999    7.7852    1.6934 C   0  0  2  0  0  0  0  0  0  0  0  0
  -22.1992    6.8732    2.4938 C   0  0  0  0  0  0  0  0  0  0  0  0
  -21.9385    6.5534    3.6591 O   0  0  0  0  0  0  0  0  0  0  0  0
  -19.8525    7.5112    1.8966 C   0  0  0  0  0  0  0  0  0  0  0  0
  -23.3709    6.3760    1.8743 N   0  0  0  0  0  0  0  0  0  0  0  0
  -24.1366    5.2304    2.3505 C   0  0  2  0  0  0  0  0  0  0  0  0
  -23.3907    3.9691    2.1134 C   0  0  0  0  0  0  0  0  0  0  0  0
  -22.2344    4.0474    1.6053 O   0  0  0  0  0  0  0  0  0  0  0  0
  -25.5628    5.2307    1.9912 C   0  0  0  0  0  0  0  0  0  0  0  0
  -26.0097    6.2621    1.0575 C   0  0  0  0  0  0  0  0  0  0  0  0
  -25.2147    7.2136    0.4673 O   0  0  0  0  0  0  0  0  0  0  0  0
  -27.2424    6.2748    0.7704 O   0  0  0  0  0  0  0  0  0  0  0  0
  -23.8478    2.6656    2.4048 N   0  0  0  0  0  0  0  0  0  0  0  0
  -22.9591    1.5394    2.5440 C   0  0  2  0  0  0  0  0  0  0  0  0
  -23.6083    0.2840    3.0138 C   0  0  0  0  0  0  0  0  0  0  0  0
  -23.7027   -0.0944    4.1853 O   0  0  0  0  0  0  0  0  0  0  0  0
  -21.8830    1.9144    3.5226 C   0  0  2  0  0  0  0  0  0  0  0  0
  -22.0685    1.0763    4.6452 O   0  0  0  0  0  0  0  0  0  0  0  0
  -22.0874    3.3375    3.9945 C   0  0  0  0  0  0  0  0  0  0  0  0
  -24.1599   -0.5145    1.9652 N   0  0  0  0  0  0  0  0  0  0  0  0
  -24.1307   -1.9470    1.9319 C   0  0  2  0  0  0  0  0  0  0  0  0
  -24.2468   -2.5248    3.2972 C   0  0  0  0  0  0  0  0  0  0  0  0
  -23.7444   -3.6356    3.5946 O   0  0  0  0  0  0  0  0  0  0  0  0
  -22.8968   -2.4054    1.2191 C   0  0  2  0  0  0  0  0  0  0  0  0
  -21.7815   -1.9612    1.9151 O   0  0  0  0  0  0  0  0  0  0  0  0
  -22.7984   -1.9871   -0.2119 C   0  0  0  0  0  0  0  0  0  0  0  0
  -24.9465   -1.8146    4.3049 N   0  0  0  0  0  0  0  0  0  0  0  0
  -24.9490   -2.4242    5.6659 C   0  0  2  0  0  0  0  0  0  0  0  0
  -25.9462   -3.5205    5.7099 C   0  0  0  0  0  0  0  0  0  0  0  0
  -26.9507   -3.4528    4.9631 O   0  0  0  0  0  0  0  0  0  0  0  0
  -25.3628   -1.3136    6.6303 C   0  0  2  0  0  0  0  0  0  0  0  0
  -26.6655   -1.4689    7.0756 O   0  0  0  0  0  0  0  0  0  0  0  0
  -24.9658    0.0546    6.2320 C   0  0  0  0  0  0  0  0  0  0  0  0
  -25.7640   -4.6381    6.5800 N   0  0  0  0  0  0  0  0  0  0  0  0
  -26.6700   -5.7134    6.8706 C   0  0  2  0  0  0  0  0  0  0  0  0
  -28.0645   -5.3036    7.0916 C   0  0  0  0  0  0  0  0  0  0  0  0
  -28.7388   -4.9505    6.0963 O   0  0  0  0  0  0  0  0  0  0  0  0
  -26.1421   -6.3707    8.1259 C   0  0  0  0  0  0  0  0  0  0  0  0
  -25.0420   -5.4297    8.6209 C   0  0  0  0  0  0  0  0  0  0  0  0
  -24.5271   -4.9283    7.2880 C   0  0  0  0  0  0  0  0  0  0  0  0
  -28.6880   -5.2809    8.3267 O   0  0  0  0  0  0  0  0  0  0  0  0
  1  2  1  6
  2  3  1  6
  5  2  1  6
  3  4  2  0
  3  6  1  0
  7  6  1  1
  7  8  1  0
 10  7  1  6
  8  9  2  0
  8 11  1  0
 12 11  1  6
 12 13  1  0
 12 15  1  0
 13 14  2  0
 13 19  1  0
 15 16  1  6
 16 17  1  0
 16 18  2  0
 20 19  1  1
 20 21  1  0
 20 23  1  0
 21 22  2  0
 21 26  1  0
 23 24  1  1
 25 23  1  6
 27 26  1  1
 27 28  1  0
 27 30  1  0
 28 29  2  0
 28 33  1  0
 30 31  1  1
 32 30  1  6
 34 33  1  6
 34 35  1  0
 34 37  1  0
 35 36  2  0
 35 40  1  0
 37 38  1  6
 39 37  1  6
 40 41  1  0
 46 40  1  1
 41 42  1  1
 44 41  1  1
 42 43  2  0
 42 47  1  0
 44 45  1  0
 45 46  1  6
M  CHG  1   1   1
M  END
$$$$
