
     RDKit          3D

 47 47  0  0  0  0  0  0  0  0999 V2000
  -22.8887   13.3315    1.7997 N   0  0  0  0  0  4  0  0  0  0  0  0
  -21.5912   12.8069    2.1473 C   0  0  2  0  0  0  0  0  0  0  0  0
  -21.3754   11.5467    1.3966 C   0  0  0  0  0  0  0  0  0  0  0  0
  -20.7559   11.5509    0.2720 O   0  0  0  0  0  0  0  0  0  0  0  0
  -21.5834   12.4725    3.6369 C   0  0  0  0  0  0  0  0  0  0  0  0
  -21.8206   10.2656    1.8394 N   0  0  0  0  0  0  0  0  0  0  0  0
  -21.7388    9.1362    0.9578 C   0  0  2  0  0  0  0  0  0  0  0  0
  -22.3936    7.9091    1.4459 C   0  0  0  0  0  0  0  0  0  0  0  0
  -22.2140    7.5862    2.6646 O   0  0  0  0  0  0  0  0  0  0  0  0
  -20.2533    8.8104    0.6805 C   0  0  0  0  0  0  0  0  0  0  0  0
  -23.2188    7.0364    0.6889 N   0  0  0  0  0  0  0  0  0  0  0  0
  -23.8693    5.8866    1.3452 C   0  0  2  0  0  0  0  0  0  0  0  0
  -22.8349    4.8372    1.6389 C   0  0  0  0  0  0  0  0  0  0  0  0
  -21.6767    5.1296    1.3224 O   0  0  0  0  0  0  0  0  0  0  0  0
  -24.8849    5.4089    0.3361 C   0  0  0  0  0  0  0  0  0  0  0  0
  -26.0856    6.2256    0.3058 C   0  0  0  0  0  0  0  0  0  0  0  0
  -26.4123    6.9665    1.4555 O   0  0  0  0  0  0  0  0  0  0  0  0
  -26.8403    6.3138   -0.6627 O   0  0  0  0  0  0  0  0  0  0  0  0
  -23.1438    3.6186    2.2292 N   0  0  0  0  0  0  0  0  0  0  0  0
  -22.2361    2.5004    2.4454 C   0  0  2  0  0  0  0  0  0  0  0  0
  -22.9181    1.3941    3.0703 C   0  0  0  0  0  0  0  0  0  0  0  0
  -22.4231    0.9572    4.1808 O   0  0  0  0  0  0  0  0  0  0  0  0
  -20.9986    2.9627    3.2044 C   0  0  2  0  0  0  0  0  0  0  0  0
  -20.7047    1.9266    4.1291 O   0  0  0  0  0  0  0  0  0  0  0  0
  -21.3338    4.1623    4.0997 C   0  0  0  0  0  0  0  0  0  0  0  0
  -24.0636    0.7136    2.6365 N   0  0  0  0  0  0  0  0  0  0  0  0
  -24.0430   -0.7448    2.3487 C   0  0  2  0  0  0  0  0  0  0  0  0
  -24.1282   -1.3848    3.6634 C   0  0  0  0  0  0  0  0  0  0  0  0
  -23.0710   -1.3711    4.4007 O   0  0  0  0  0  0  0  0  0  0  0  0
  -22.8349   -1.0872    1.5411 C   0  0  2  0  0  0  0  0  0  0  0  0
  -22.8748   -0.3011    0.3404 O   0  0  0  0  0  0  0  0  0  0  0  0
  -22.9836   -2.5390    1.0429 C   0  0  0  0  0  0  0  0  0  0  0  0
  -25.2319   -2.0268    4.2526 N   0  0  0  0  0  0  0  0  0  0  0  0
  -25.1587   -2.7198    5.4956 C   0  0  2  0  0  0  0  0  0  0  0  0
  -25.2578   -4.1685    5.4994 C   0  0  0  0  0  0  0  0  0  0  0  0
  -25.5228   -4.6886    4.3376 O   0  0  0  0  0  0  0  0  0  0  0  0
  -26.1316   -2.0501    6.4455 C   0  0  2  0  0  0  0  0  0  0  0  0
  -27.4233   -1.9830    5.9067 O   0  0  0  0  0  0  0  0  0  0  0  0
  -25.6536   -0.7074    6.9220 C   0  0  0  0  0  0  0  0  0  0  0  0
  -25.1143   -5.0833    6.5466 N   0  0  0  0  0  0  0  0  0  0  0  0
  -25.1478   -6.5430    6.3699 C   0  0  2  0  0  0  0  0  0  0  0  0
  -26.4188   -7.1399    6.8358 C   0  0  0  0  0  0  0  0  0  0  0  0
  -26.6414   -8.3750    6.7698 O   0  0  0  0  0  0  0  0  0  0  0  0
  -24.0182   -6.9916    7.2626 C   0  0  0  0  0  0  0  0  0  0  0  0
  -23.6861   -5.7976    8.1723 C   0  0  0  0  0  0  0  0  0  0  0  0
  -24.9233   -4.9127    7.9704 C   0  0  0  0  0  0  0  0  0  0  0  0
  -27.4456   -6.3740    7.3755 O   0  0  0  0  0  0  0  0  0  0  0  0
  1  2  1  0
  2  3  1  0
  2  5  1  1
  3  4  2  0
  3  6  1  0
  6  7  1  0
  7  8  1  0
  7 10  1  1
  8  9  2  0
  8 11  1  0
 11 12  1  0
 12 13  1  0
 12 15  1  6
 13 14  2  0
 13 19  1  0
 15 16  1  0
 16 17  1  0
 16 18  2  0
 20 19  1  1
 20 21  1  0
 20 23  1  0
 21 22  2  0
 21 26  1  0
 23 24  1  0
 23 25  1  1
 27 26  1  1
 27 28  1  0
 27 30  1  0
 28 29  2  0
 28 33  1  0
 30 31  1  0
 30 32  1  6
 34 33  1  6
 34 35  1  0
 34 37  1  0
 35 36  2  0
 35 40  1  0
 37 38  1  0
 37 39  1  6
 40 41  1  0
 40 46  1  0
 41 42  1  1
 41 44  1  0
 42 43  2  0
 42 47  1  0
 44 45  1  0
 45 46  1  0
M  CHG  1   1   1
M  END
$$$$
