
     RDKit          3D

 47 47  0  0  0  0  0  0  0  0999 V2000
  -26.9595    8.3100    3.2325 N   0  0  0  0  0  4  0  0  0  0  0  0
  -26.5852    9.5092    2.5245 C   0  0  2  0  0  0  0  0  0  0  0  0
  -25.2445    9.3042    1.9255 C   0  0  0  0  0  0  0  0  0  0  0  0
  -25.1217    8.9552    0.6960 O   0  0  0  0  0  0  0  0  0  0  0  0
  -26.4802   10.6553    3.5277 C   0  0  0  0  0  0  0  0  0  0  0  0
  -24.0177    9.4693    2.6348 N   0  0  0  0  0  0  0  0  0  0  0  0
  -22.7679    9.2884    1.9533 C   0  0  2  0  0  0  0  0  0  0  0  0
  -22.2604    7.9047    1.9277 C   0  0  0  0  0  0  0  0  0  0  0  0
  -23.0185    7.0043    1.4415 O   0  0  0  0  0  0  0  0  0  0  0  0
  -21.6922   10.1825    2.6116 C   0  0  0  0  0  0  0  0  0  0  0  0
  -20.9938    7.4632    2.3931 N   0  0  0  0  0  0  0  0  0  0  0  0
  -20.6484    6.0302    2.3357 C   0  0  2  0  0  0  0  0  0  0  0  0
  -21.8990    5.2149    2.5049 C   0  0  0  0  0  0  0  0  0  0  0  0
  -22.9588    5.8462    2.4312 O   0  0  0  0  0  0  0  0  0  0  0  0
  -19.6885    5.8334    3.4837 C   0  0  0  0  0  0  0  0  0  0  0  0
  -18.8575    4.6515    3.3352 C   0  0  0  0  0  0  0  0  0  0  0  0
  -18.9529    3.9204    2.1378 O   0  0  0  0  0  0  0  0  0  0  0  0
  -18.0714    4.2444    4.1905 O   0  0  0  0  0  0  0  0  0  0  0  0
  -21.8810    3.8438    2.7257 N   0  0  0  0  0  0  0  0  0  0  0  0
  -23.0347    2.9580    2.7990 C   0  0  2  0  0  0  0  0  0  0  0  0
  -22.6228    1.5790    2.8894 C   0  0  0  0  0  0  0  0  0  0  0  0
  -21.4152    1.3065    2.5198 O   0  0  0  0  0  0  0  0  0  0  0  0
  -23.9893    3.2362    1.6446 C   0  0  2  0  0  0  0  0  0  0  0  0
  -23.2534    2.9623    0.4620 O   0  0  0  0  0  0  0  0  0  0  0  0
  -24.2894    4.7371    1.5446 C   0  0  0  0  0  0  0  0  0  0  0  0
  -23.3599    0.4719    3.3304 N   0  0  0  0  0  0  0  0  0  0  0  0
  -22.7571   -0.8845    3.4127 C   0  0  2  0  0  0  0  0  0  0  0  0
  -23.6957   -1.7529    2.6985 C   0  0  0  0  0  0  0  0  0  0  0  0
  -24.9407   -1.4193    2.7103 O   0  0  0  0  0  0  0  0  0  0  0  0
  -22.5036   -1.2432    4.8396 C   0  0  2  0  0  0  0  0  0  0  0  0
  -23.6758   -0.8958    5.5923 O   0  0  0  0  0  0  0  0  0  0  0  0
  -21.4139   -0.2997    5.3876 C   0  0  0  0  0  0  0  0  0  0  0  0
  -23.4226   -2.9297    1.9788 N   0  0  0  0  0  0  0  0  0  0  0  0
  -24.4409   -3.7907    1.4765 C   0  0  2  0  0  0  0  0  0  0  0  0
  -25.0322   -4.7738    2.3667 C   0  0  0  0  0  0  0  0  0  0  0  0
  -24.2724   -5.1155    3.3649 O   0  0  0  0  0  0  0  0  0  0  0  0
  -23.9311   -4.3865    0.1794 C   0  0  2  0  0  0  0  0  0  0  0  0
  -22.9010   -5.3105    0.3998 O   0  0  0  0  0  0  0  0  0  0  0  0
  -23.5412   -3.3439   -0.8300 C   0  0  0  0  0  0  0  0  0  0  0  0
  -26.2787   -5.4048    2.3192 N   0  0  0  0  0  0  0  0  0  0  0  0
  -26.7932   -6.2837    3.3803 C   0  0  2  0  0  0  0  0  0  0  0  0
  -26.7381   -7.7140    3.0059 C   0  0  0  0  0  0  0  0  0  0  0  0
  -27.2486   -8.1470    1.9423 O   0  0  0  0  0  0  0  0  0  0  0  0
  -28.2308   -5.8403    3.4833 C   0  0  0  0  0  0  0  0  0  0  0  0
  -28.5227   -5.0223    2.2146 C   0  0  0  0  0  0  0  0  0  0  0  0
  -27.3319   -5.4086    1.3274 C   0  0  0  0  0  0  0  0  0  0  0  0
  -26.1190   -8.6680    3.8052 O   0  0  0  0  0  0  0  0  0  0  0  0
  1  2  1  0
  2  3  1  0
  2  5  1  1
  3  4  2  0
  3  6  1  0
  6  7  1  0
  7  8  1  0
  7 10  1  1
  8  9  2  0
  8 11  1  0
 11 12  1  0
 12 13  1  0
 12 15  1  1
 13 14  2  0
 13 19  1  0
 15 16  1  0
 16 17  1  0
 16 18  2  0
 20 19  1  6
 20 21  1  0
 20 23  1  0
 21 22  2  0
 21 26  1  0
 23 24  1  0
 23 25  1  6
 27 26  1  1
 27 28  1  0
 27 30  1  0
 28 29  2  0
 28 33  1  0
 30 31  1  0
 30 32  1  1
 34 33  1  1
 34 35  1  0
 34 37  1  0
 35 36  2  0
 35 40  1  0
 37 38  1  0
 37 39  1  6
 40 41  1  0
 40 46  1  0
 41 42  1  6
 41 44  1  0
 42 43  2  0
 42 47  1  0
 44 45  1  0
 45 46  1  0
M  CHG  1   1   1
M  END
$$$$
