
     RDKit          3D

 47 47  0  0  0  0  0  0  0  0999 V2000
  -30.4531   -4.4395   -0.7015 N   0  0  0  0  0  4  0  0  0  0  0  0
  -30.7003   -4.9117    0.6385 C   0  0  2  0  0  0  0  0  0  0  0  0
  -29.5167   -5.6799    1.0937 C   0  0  0  0  0  0  0  0  0  0  0  0
  -29.5168   -6.2706    2.2337 O   0  0  0  0  0  0  0  0  0  0  0  0
  -31.8936   -5.8634    0.6078 C   0  0  0  0  0  0  0  0  0  0  0  0
  -28.3173   -5.8253    0.3351 N   0  0  0  0  0  0  0  0  0  0  0  0
  -27.1217   -6.2994    0.9716 C   0  0  2  0  0  0  0  0  0  0  0  0
  -26.3896   -5.2938    1.7626 C   0  0  0  0  0  0  0  0  0  0  0  0
  -27.0456   -4.2965    2.2061 O   0  0  0  0  0  0  0  0  0  0  0  0
  -26.1597   -6.8608   -0.1004 C   0  0  0  0  0  0  0  0  0  0  0  0
  -25.0083   -5.3218    2.0896 N   0  0  0  0  0  0  0  0  0  0  0  0
  -24.4220   -4.2352    2.8967 C   0  0  2  0  0  0  0  0  0  0  0  0
  -23.8512   -3.1922    1.9781 C   0  0  0  0  0  0  0  0  0  0  0  0
  -23.6175   -3.5703    0.8251 O   0  0  0  0  0  0  0  0  0  0  0  0
  -23.3491   -4.9154    3.7117 C   0  0  0  0  0  0  0  0  0  0  0  0
  -23.8643   -5.9766    4.5592 C   0  0  0  0  0  0  0  0  0  0  0  0
  -25.2569   -6.1632    4.6149 O   0  0  0  0  0  0  0  0  0  0  0  0
  -23.1610   -6.7274    5.2353 O   0  0  0  0  0  0  0  0  0  0  0  0
  -23.6017   -1.8870    2.3820 N   0  0  0  0  0  0  0  0  0  0  0  0
  -22.5532   -1.0067    1.8852 C   0  0  2  0  0  0  0  0  0  0  0  0
  -22.4228    0.1633    2.7180 C   0  0  0  0  0  0  0  0  0  0  0  0
  -21.3836    0.9053    2.5212 O   0  0  0  0  0  0  0  0  0  0  0  0
  -22.7845   -0.6867    0.4137 C   0  0  2  0  0  0  0  0  0  0  0  0
  -24.0883   -0.1300    0.3412 O   0  0  0  0  0  0  0  0  0  0  0  0
  -22.8963   -1.9780   -0.4065 C   0  0  0  0  0  0  0  0  0  0  0  0
  -23.2797    0.6189    3.7288 N   0  0  0  0  0  0  0  0  0  0  0  0
  -22.8536    1.6566    4.7043 C   0  0  2  0  0  0  0  0  0  0  0  0
  -22.3866    2.7733    3.8796 C   0  0  0  0  0  0  0  0  0  0  0  0
  -21.2764    2.6185    3.2431 O   0  0  0  0  0  0  0  0  0  0  0  0
  -21.8471    1.0856    5.6477 C   0  0  2  0  0  0  0  0  0  0  0  0
  -21.1327    0.0528    4.9519 O   0  0  0  0  0  0  0  0  0  0  0  0
  -22.6029    0.3328    6.7613 C   0  0  0  0  0  0  0  0  0  0  0  0
  -22.9967    4.0237    3.6757 N   0  0  0  0  0  0  0  0  0  0  0  0
  -22.3751    5.0871    2.9590 C   0  0  2  0  0  0  0  0  0  0  0  0
  -21.8179    6.2036    3.7016 C   0  0  0  0  0  0  0  0  0  0  0  0
  -22.0955    6.1917    4.9718 O   0  0  0  0  0  0  0  0  0  0  0  0
  -23.3308    5.5137    1.8627 C   0  0  2  0  0  0  0  0  0  0  0  0
  -24.3624    6.3232    2.3566 O   0  0  0  0  0  0  0  0  0  0  0  0
  -23.8611    4.3557    1.0653 C   0  0  0  0  0  0  0  0  0  0  0  0
  -21.0370    7.2794    3.2691 N   0  0  0  0  0  0  0  0  0  0  0  0
  -20.4443    8.2772    4.1725 C   0  0  2  0  0  0  0  0  0  0  0  0
  -21.1593    9.5717    4.1323 C   0  0  0  0  0  0  0  0  0  0  0  0
  -22.0490    9.8181    3.2795 O   0  0  0  0  0  0  0  0  0  0  0  0
  -19.0621    8.4418    3.5922 C   0  0  0  0  0  0  0  0  0  0  0  0
  -19.1078    7.8237    2.1853 C   0  0  0  0  0  0  0  0  0  0  0  0
  -20.6207    7.7147    1.9538 C   0  0  0  0  0  0  0  0  0  0  0  0
  -20.8935   10.5958    5.0339 O   0  0  0  0  0  0  0  0  0  0  0  0
  1  2  1  0
  2  3  1  0
  2  5  1  6
  3  4  2  0
  3  6  1  0
  6  7  1  0
  7  8  1  0
  7 10  1  6
  8  9  2  0
  8 11  1  0
 11 12  1  0
 12 13  1  0
 12 15  1  1
 13 14  2  0
 13 19  1  0
 15 16  1  0
 16 17  1  0
 16 18  2  0
 20 19  1  1
 20 21  1  0
 20 23  1  0
 21 22  2  0
 21 26  1  0
 23 24  1  0
 23 25  1  6
 27 26  1  6
 27 28  1  0
 27 30  1  0
 28 29  2  0
 28 33  1  0
 30 31  1  0
 30 32  1  1
 34 33  1  1
 34 35  1  0
 34 37  1  0
 35 36  2  0
 35 40  1  0
 37 38  1  0
 37 39  1  1
 40 41  1  0
 40 46  1  0
 41 42  1  6
 41 44  1  0
 42 43  2  0
 42 47  1  0
 44 45  1  0
 45 46  1  0
M  CHG  1   1   1
M  END
$$$$
