
     RDKit          3D

 47 47  0  0  0  0  0  0  0  0999 V2000
  -23.1666   12.7582    3.4169 N   0  0  0  0  0  4  0  0  0  0  0  0
  -22.8431   12.9345    2.0227 C   0  0  2  0  0  0  0  0  0  0  0  0
  -22.2598   11.6713    1.5105 C   0  0  0  0  0  0  0  0  0  0  0  0
  -21.7222   11.6220    0.3456 O   0  0  0  0  0  0  0  0  0  0  0  0
  -21.7805   14.0242    1.9026 C   0  0  0  0  0  0  0  0  0  0  0  0
  -22.2451   10.4442    2.2380 N   0  0  0  0  0  0  0  0  0  0  0  0
  -21.5550    9.3048    1.7043 C   0  0  2  0  0  0  0  0  0  0  0  0
  -22.2727    8.0227    1.8233 C   0  0  0  0  0  0  0  0  0  0  0  0
  -21.8341    7.0336    1.1517 O   0  0  0  0  0  0  0  0  0  0  0  0
  -20.1880    9.1575    2.4109 C   0  0  0  0  0  0  0  0  0  0  0  0
  -23.4184    7.7696    2.6227 N   0  0  0  0  0  0  0  0  0  0  0  0
  -24.2670    6.5966    2.3402 C   0  0  2  0  0  0  0  0  0  0  0  0
  -23.3990    5.4602    1.8791 C   0  0  0  0  0  0  0  0  0  0  0  0
  -23.3360    5.3025    0.6551 O   0  0  0  0  0  0  0  0  0  0  0  0
  -25.2019    7.0678    1.2531 C   0  0  0  0  0  0  0  0  0  0  0  0
  -26.5969    7.0576    1.6574 C   0  0  0  0  0  0  0  0  0  0  0  0
  -26.9065    6.6254    2.9593 O   0  0  0  0  0  0  0  0  0  0  0  0
  -27.5312    7.4034    0.9343 O   0  0  0  0  0  0  0  0  0  0  0  0
  -22.7053    4.6372    2.7568 N   0  0  0  0  0  0  0  0  0  0  0  0
  -22.1283    3.3339    2.4572 C   0  0  2  0  0  0  0  0  0  0  0  0
  -22.7594    2.2976    3.2365 C   0  0  0  0  0  0  0  0  0  0  0  0
  -23.5617    2.6807    4.1739 O   0  0  0  0  0  0  0  0  0  0  0  0
  -20.6133    3.3781    2.6121 C   0  0  2  0  0  0  0  0  0  0  0  0
  -20.3719    3.4901    4.0064 O   0  0  0  0  0  0  0  0  0  0  0  0
  -20.0522    4.6866    2.0414 C   0  0  0  0  0  0  0  0  0  0  0  0
  -22.6242    0.9079    3.1186 N   0  0  0  0  0  0  0  0  0  0  0  0
  -23.5011    0.1119    2.2199 C   0  0  2  0  0  0  0  0  0  0  0  0
  -22.9962   -1.2589    2.3258 C   0  0  0  0  0  0  0  0  0  0  0  0
  -21.7260   -1.4141    2.4809 O   0  0  0  0  0  0  0  0  0  0  0  0
  -23.4908    0.6995    0.8474 C   0  0  2  0  0  0  0  0  0  0  0  0
  -22.2301    0.3742    0.2423 O   0  0  0  0  0  0  0  0  0  0  0  0
  -23.4566    2.2354    0.9808 C   0  0  0  0  0  0  0  0  0  0  0  0
  -23.7217   -2.4627    2.2846 N   0  0  0  0  0  0  0  0  0  0  0  0
  -23.2163   -3.6956    2.7898 C   0  0  2  0  0  0  0  0  0  0  0  0
  -23.9894   -4.9079    2.5870 C   0  0  0  0  0  0  0  0  0  0  0  0
  -25.2749   -4.7455    2.6938 O   0  0  0  0  0  0  0  0  0  0  0  0
  -22.8285   -3.4671    4.2371 C   0  0  2  0  0  0  0  0  0  0  0  0
  -23.9509   -3.4051    5.0736 O   0  0  0  0  0  0  0  0  0  0  0  0
  -21.9273   -2.2787    4.4207 C   0  0  0  0  0  0  0  0  0  0  0  0
  -23.5721   -6.2104    2.2977 N   0  0  0  0  0  0  0  0  0  0  0  0
  -24.4426   -7.2372    1.7053 C   0  0  2  0  0  0  0  0  0  0  0  0
  -24.8762   -8.2494    2.6934 C   0  0  0  0  0  0  0  0  0  0  0  0
  -25.6791   -9.1703    2.3990 O   0  0  0  0  0  0  0  0  0  0  0  0
  -23.5269   -7.8760    0.6916 C   0  0  0  0  0  0  0  0  0  0  0  0
  -22.1014   -7.4294    1.0551 C   0  0  0  0  0  0  0  0  0  0  0  0
  -22.3084   -6.8914    2.4771 C   0  0  0  0  0  0  0  0  0  0  0  0
  -24.4235   -8.2465    4.0076 O   0  0  0  0  0  0  0  0  0  0  0  0
  1  2  1  0
  2  3  1  0
  2  5  1  1
  3  4  2  0
  3  6  1  0
  6  7  1  0
  7  8  1  0
  7 10  1  1
  8  9  2  0
  8 11  1  0
 11 12  1  0
 12 13  1  0
 12 15  1  6
 13 14  2  0
 13 19  1  0
 15 16  1  0
 16 17  1  0
 16 18  2  0
 20 19  1  1
 20 21  1  0
 20 23  1  0
 21 22  2  0
 21 26  1  0
 23 24  1  0
 23 25  1  6
 27 26  1  1
 27 28  1  0
 27 30  1  0
 28 29  2  0
 28 33  1  0
 30 31  1  0
 30 32  1  1
 34 33  1  1
 34 35  1  0
 34 37  1  0
 35 36  2  0
 35 40  1  0
 37 38  1  0
 37 39  1  6
 40 41  1  0
 40 46  1  0
 41 42  1  1
 41 44  1  0
 42 43  2  0
 42 47  1  0
 44 45  1  0
 45 46  1  0
M  CHG  1   1   1
M  END
$$$$
