
     RDKit          3D

 47 47  0  0  0  0  0  0  0  0999 V2000
  -24.0494   12.3133   -0.6431 N   0  0  0  0  0  4  0  0  0  0  0  0
  -24.0852   10.9104   -0.9750 C   0  0  2  0  0  0  0  0  0  0  0  0
  -23.4792   10.1460    0.1416 C   0  0  0  0  0  0  0  0  0  0  0  0
  -23.2601    8.8858    0.0309 O   0  0  0  0  0  0  0  0  0  0  0  0
  -23.2298   10.6814   -2.2186 C   0  0  0  0  0  0  0  0  0  0  0  0
  -23.1005   10.7204    1.3915 N   0  0  0  0  0  0  0  0  0  0  0  0
  -22.5794    9.8835    2.4342 C   0  0  2  0  0  0  0  0  0  0  0  0
  -23.2264    8.5655    2.5649 C   0  0  0  0  0  0  0  0  0  0  0  0
  -24.4922    8.5376    2.7013 O   0  0  0  0  0  0  0  0  0  0  0  0
  -22.7049   10.6168    3.7893 C   0  0  0  0  0  0  0  0  0  0  0  0
  -22.5768    7.3031    2.5520 N   0  0  0  0  0  0  0  0  0  0  0  0
  -23.3719    6.0662    2.6682 C   0  0  2  0  0  0  0  0  0  0  0  0
  -22.4422    4.8943    2.8083 C   0  0  0  0  0  0  0  0  0  0  0  0
  -21.2722    5.1751    3.0900 O   0  0  0  0  0  0  0  0  0  0  0  0
  -24.1597    6.0090    1.3820 C   0  0  0  0  0  0  0  0  0  0  0  0
  -25.4392    6.6912    1.4668 C   0  0  0  0  0  0  0  0  0  0  0  0
  -25.7811    7.3097    2.6825 O   0  0  0  0  0  0  0  0  0  0  0  0
  -26.2484    6.7651    0.5422 O   0  0  0  0  0  0  0  0  0  0  0  0
  -22.8560    3.5793    2.6397 N   0  0  0  0  0  0  0  0  0  0  0  0
  -22.0314    2.3846    2.7574 C   0  0  2  0  0  0  0  0  0  0  0  0
  -22.7910    1.1993    2.4452 C   0  0  0  0  0  0  0  0  0  0  0  0
  -24.0493    1.2203    2.7374 O   0  0  0  0  0  0  0  0  0  0  0  0
  -21.3602    2.3378    4.1243 C   0  0  2  0  0  0  0  0  0  0  0  0
  -22.4165    2.3503    5.0725 O   0  0  0  0  0  0  0  0  0  0  0  0
  -20.6105    3.6472    4.4005 C   0  0  0  0  0  0  0  0  0  0  0  0
  -22.3501    0.0058    1.8580 N   0  0  0  0  0  0  0  0  0  0  0  0
  -23.2860   -1.1105    1.5615 C   0  0  2  0  0  0  0  0  0  0  0  0
  -23.1085   -2.0497    2.6712 C   0  0  0  0  0  0  0  0  0  0  0  0
  -22.0177   -2.7358    2.7004 O   0  0  0  0  0  0  0  0  0  0  0  0
  -23.0091   -1.6590    0.2008 C   0  0  2  0  0  0  0  0  0  0  0  0
  -22.9544   -0.5532   -0.7133 O   0  0  0  0  0  0  0  0  0  0  0  0
  -24.2442   -2.4614   -0.2561 C   0  0  0  0  0  0  0  0  0  0  0  0
  -23.9826   -2.3136    3.7407 N   0  0  0  0  0  0  0  0  0  0  0  0
  -24.1905   -3.6186    4.2741 C   0  0  2  0  0  0  0  0  0  0  0  0
  -24.3386   -4.7364    3.3592 C   0  0  0  0  0  0  0  0  0  0  0  0
  -24.9594   -4.4439    2.2548 O   0  0  0  0  0  0  0  0  0  0  0  0
  -25.3138   -3.5202    5.2869 C   0  0  2  0  0  0  0  0  0  0  0  0
  -25.9047   -2.2497    5.2879 O   0  0  0  0  0  0  0  0  0  0  0  0
  -24.8963   -3.9442    6.6668 C   0  0  0  0  0  0  0  0  0  0  0  0
  -23.9223   -6.0655    3.4783 N   0  0  0  0  0  0  0  0  0  0  0  0
  -24.0974   -7.0767    2.4247 C   0  0  2  0  0  0  0  0  0  0  0  0
  -25.1856   -8.0307    2.7321 C   0  0  0  0  0  0  0  0  0  0  0  0
  -25.9482   -8.4846    1.8423 O   0  0  0  0  0  0  0  0  0  0  0  0
  -22.7704   -7.7924    2.4550 C   0  0  0  0  0  0  0  0  0  0  0  0
  -22.0941   -7.3928    3.7767 C   0  0  0  0  0  0  0  0  0  0  0  0
  -23.2757   -6.7920    4.5494 C   0  0  0  0  0  0  0  0  0  0  0  0
  -25.4329   -8.4853    4.0222 O   0  0  0  0  0  0  0  0  0  0  0  0
  1  2  1  0
  2  3  1  0
  2  5  1  6
  3  4  2  0
  3  6  1  0
  6  7  1  0
  7  8  1  0
  7 10  1  1
  8  9  2  0
  8 11  1  0
 11 12  1  0
 12 13  1  0
 12 15  1  6
 13 14  2  0
 13 19  1  0
 15 16  1  0
 16 17  1  0
 16 18  2  0
 20 19  1  1
 20 21  1  0
 20 23  1  0
 21 22  2  0
 21 26  1  0
 23 24  1  0
 23 25  1  1
 27 26  1  1
 27 28  1  0
 27 30  1  0
 28 29  2  0
 28 33  1  0
 30 31  1  0
 30 32  1  6
 34 33  1  6
 34 35  1  0
 34 37  1  0
 35 36  2  0
 35 40  1  0
 37 38  1  0
 37 39  1  1
 40 41  1  0
 40 46  1  0
 41 42  1  1
 41 44  1  0
 42 43  2  0
 42 47  1  0
 44 45  1  0
 45 46  1  0
M  CHG  1   1   1
M  END
$$$$
