
     RDKit          3D

 47 47  0  0  0  0  0  0  0  0999 V2000
  -19.9735    9.3789    5.6836 N   0  0  0  0  0  4  0  0  0  0  0  0
  -21.1263    8.4667    5.5800 C   0  0  2  0  0  0  0  0  0  0  0  0
  -20.9550    7.6175    4.3879 C   0  0  0  0  0  0  0  0  0  0  0  0
  -21.5746    7.9059    3.3350 O   0  0  0  0  0  0  0  0  0  0  0  0
  -22.3590    9.3284    5.5468 C   0  0  0  0  0  0  0  0  0  0  0  0
  -20.1262    6.4782    4.3459 N   0  0  0  0  0  0  0  0  0  0  0  0
  -19.9565    5.5698    3.2610 C   0  0  2  0  0  0  0  0  0  0  0  0
  -21.2962    5.1319    2.7185 C   0  0  0  0  0  0  0  0  0  0  0  0
  -22.0817    5.9276    2.1910 O   0  0  0  0  0  0  0  0  0  0  0  0
  -19.0692    4.4337    3.6260 C   0  0  0  0  0  0  0  0  0  0  0  0
  -21.6488    3.7654    2.8283 N   0  0  0  0  0  0  0  0  0  0  0  0
  -22.4454    3.0348    1.8500 C   0  0  2  0  0  0  0  0  0  0  0  0
  -22.4519    1.5834    2.1614 C   0  0  0  0  0  0  0  0  0  0  0  0
  -21.3444    0.9712    2.1705 O   0  0  0  0  0  0  0  0  0  0  0  0
  -22.2176    3.4070    0.4455 C   0  0  0  0  0  0  0  0  0  0  0  0
  -23.2350    2.9989   -0.5206 C   0  0  0  0  0  0  0  0  0  0  0  0
  -24.2724    3.7757   -0.9746 O   0  0  0  0  0  0  0  0  0  0  0  0
  -23.1472    1.8217   -0.9772 O   0  0  0  0  0  0  0  0  0  0  0  0
  -23.5897    0.8015    2.4563 N   0  0  0  0  0  0  0  0  0  0  0  0
  -23.5085   -0.5941    2.8075 C   0  0  2  0  0  0  0  0  0  0  0  0
  -24.7956   -1.3381    2.7179 C   0  0  0  0  0  0  0  0  0  0  0  0
  -25.8754   -0.8837    2.3277 O   0  0  0  0  0  0  0  0  0  0  0  0
  -22.9999   -0.6899    4.2176 C   0  0  2  0  0  0  0  0  0  0  0  0
  -24.0519   -0.2321    5.0427 O   0  0  0  0  0  0  0  0  0  0  0  0
  -21.8387    0.2603    4.4133 C   0  0  0  0  0  0  0  0  0  0  0  0
  -24.7096   -2.7031    3.1313 N   0  0  0  0  0  0  0  0  0  0  0  0
  -25.4117   -3.7871    2.5102 C   0  0  2  0  0  0  0  0  0  0  0  0
  -25.1131   -5.0817    3.1780 C   0  0  0  0  0  0  0  0  0  0  0  0
  -23.9599   -5.5766    3.1847 O   0  0  0  0  0  0  0  0  0  0  0  0
  -25.0986   -3.8121    1.0465 C   0  0  2  0  0  0  0  0  0  0  0  0
  -23.8008   -4.2705    0.8699 O   0  0  0  0  0  0  0  0  0  0  0  0
  -25.2743   -2.5086    0.3378 C   0  0  0  0  0  0  0  0  0  0  0  0
  -26.1516   -5.7941    3.8285 N   0  0  0  0  0  0  0  0  0  0  0  0
  -25.7643   -7.0716    4.4934 C   0  0  2  0  0  0  0  0  0  0  0  0
  -25.7566   -8.1634    3.4904 C   0  0  0  0  0  0  0  0  0  0  0  0
  -26.6043   -8.1405    2.5672 O   0  0  0  0  0  0  0  0  0  0  0  0
  -26.8372   -7.3475    5.5457 C   0  0  2  0  0  0  0  0  0  0  0  0
  -27.9602   -7.9478    4.9999 O   0  0  0  0  0  0  0  0  0  0  0  0
  -27.0832   -6.2492    6.5057 C   0  0  0  0  0  0  0  0  0  0  0  0
  -24.7973   -9.2183    3.5674 N   0  0  0  0  0  0  0  0  0  0  0  0
  -24.7553  -10.4556    2.8401 C   0  0  2  0  0  0  0  0  0  0  0  0
  -26.0475  -11.1467    2.7217 C   0  0  0  0  0  0  0  0  0  0  0  0
  -27.0618  -10.5830    3.1944 O   0  0  0  0  0  0  0  0  0  0  0  0
  -23.7862  -11.3425    3.5891 C   0  0  0  0  0  0  0  0  0  0  0  0
  -23.5032  -10.5913    4.8915 C   0  0  0  0  0  0  0  0  0  0  0  0
  -23.5928   -9.1685    4.3811 C   0  0  0  0  0  0  0  0  0  0  0  0
  -26.2236  -12.3810    2.1216 O   0  0  0  0  0  0  0  0  0  0  0  0
  1  2  1  6
  2  3  1  6
  5  2  1  6
  3  4  2  0
  3  6  1  0
  7  6  1  1
  7  8  1  0
 10  7  1  6
  8  9  2  0
  8 11  1  0
 12 11  1  1
 12 13  1  0
 12 15  1  0
 13 14  2  0
 13 19  1  0
 15 16  1  6
 16 17  1  0
 16 18  2  0
 20 19  1  1
 20 21  1  0
 20 23  1  0
 21 22  2  0
 21 26  1  0
 23 24  1  1
 25 23  1  6
 27 26  1  1
 27 28  1  0
 27 30  1  0
 28 29  2  0
 28 33  1  0
 30 31  1  1
 32 30  1  6
 34 33  1  6
 34 35  1  0
 34 37  1  0
 35 36  2  0
 35 40  1  0
 37 38  1  6
 39 37  1  6
 40 41  1  0
 46 40  1  1
 41 42  1  1
 44 41  1  1
 42 43  2  0
 42 47  1  0
 44 45  1  0
 45 46  1  6
M  CHG  1   1   1
M  END
$$$$
