
     RDKit          3D

 47 47  0  0  0  0  0  0  0  0999 V2000
  -26.3462    6.3250    7.9730 N   0  0  0  0  0  4  0  0  0  0  0  0
  -27.1536    5.8543    6.8748 C   0  0  2  0  0  0  0  0  0  0  0  0
  -27.0229    6.8108    5.7495 C   0  0  0  0  0  0  0  0  0  0  0  0
  -27.5706    6.5668    4.6142 O   0  0  0  0  0  0  0  0  0  0  0  0
  -28.6158    5.8440    7.3138 C   0  0  0  0  0  0  0  0  0  0  0  0
  -26.3035    8.0405    5.8243 N   0  0  0  0  0  0  0  0  0  0  0  0
  -26.3019    8.9373    4.7040 C   0  0  2  0  0  0  0  0  0  0  0  0
  -25.4027    8.5604    3.5984 C   0  0  0  0  0  0  0  0  0  0  0  0
  -25.5229    9.1878    2.4968 O   0  0  0  0  0  0  0  0  0  0  0  0
  -25.9073   10.3532    5.1828 C   0  0  0  0  0  0  0  0  0  0  0  0
  -24.3987    7.5573    3.6337 N   0  0  0  0  0  0  0  0  0  0  0  0
  -23.4030    7.4756    2.5485 C   0  0  2  0  0  0  0  0  0  0  0  0
  -22.4862    6.3138    2.8076 C   0  0  0  0  0  0  0  0  0  0  0  0
  -22.5087    5.8658    3.9591 O   0  0  0  0  0  0  0  0  0  0  0  0
  -22.6725    8.7947    2.6148 C   0  0  0  0  0  0  0  0  0  0  0  0
  -23.1965    9.7833    1.6886 C   0  0  0  0  0  0  0  0  0  0  0  0
  -22.9494    9.6022    0.3162 O   0  0  0  0  0  0  0  0  0  0  0  0
  -23.8456   10.7736    2.0252 O   0  0  0  0  0  0  0  0  0  0  0  0
  -21.6665    5.7673    1.8286 N   0  0  0  0  0  0  0  0  0  0  0  0
  -21.0584    4.4440    1.8406 C   0  0  2  0  0  0  0  0  0  0  0  0
  -21.8536    3.5165    2.6066 C   0  0  0  0  0  0  0  0  0  0  0  0
  -22.2382    3.9071    3.7765 O   0  0  0  0  0  0  0  0  0  0  0  0
  -19.6090    4.5322    2.3017 C   0  0  2  0  0  0  0  0  0  0  0  0
  -19.1267    3.1972    2.3132 O   0  0  0  0  0  0  0  0  0  0  0  0
  -19.5379    4.9552    3.7744 C   0  0  0  0  0  0  0  0  0  0  0  0
  -22.2772    2.2278    2.2553 N   0  0  0  0  0  0  0  0  0  0  0  0
  -23.0710    1.3857    3.1885 C   0  0  2  0  0  0  0  0  0  0  0  0
  -22.8297    0.0106    2.7457 C   0  0  0  0  0  0  0  0  0  0  0  0
  -22.2939   -0.1547    1.5851 O   0  0  0  0  0  0  0  0  0  0  0  0
  -24.4979    1.8250    3.1821 C   0  0  2  0  0  0  0  0  0  0  0  0
  -24.8579    2.1206    1.8241 O   0  0  0  0  0  0  0  0  0  0  0  0
  -24.5859    3.1881    3.8977 C   0  0  0  0  0  0  0  0  0  0  0  0
  -23.1044   -1.1879    3.4281 N   0  0  0  0  0  0  0  0  0  0  0  0
  -23.0315   -2.4706    2.8117 C   0  0  2  0  0  0  0  0  0  0  0  0
  -24.2578   -3.1040    2.3604 C   0  0  0  0  0  0  0  0  0  0  0  0
  -25.2797   -2.9045    3.1391 O   0  0  0  0  0  0  0  0  0  0  0  0
  -22.1941   -3.3582    3.7106 C   0  0  2  0  0  0  0  0  0  0  0  0
  -20.8963   -2.8565    3.8755 O   0  0  0  0  0  0  0  0  0  0  0  0
  -22.1869   -4.7953    3.2714 C   0  0  0  0  0  0  0  0  0  0  0  0
  -24.5097   -3.8875    1.2304 N   0  0  0  0  0  0  0  0  0  0  0  0
  -25.8519   -4.3278    0.8211 C   0  0  2  0  0  0  0  0  0  0  0  0
  -26.0910   -5.7584    1.1126 C   0  0  0  0  0  0  0  0  0  0  0  0
  -25.2022   -6.4983    1.6046 O   0  0  0  0  0  0  0  0  0  0  0  0
  -25.8094   -4.1134   -0.6710 C   0  0  0  0  0  0  0  0  0  0  0  0
  -24.3272   -3.9394   -1.0405 C   0  0  0  0  0  0  0  0  0  0  0  0
  -23.6382   -4.4602    0.2276 C   0  0  0  0  0  0  0  0  0  0  0  0
  -27.3118   -6.3740    0.8618 O   0  0  0  0  0  0  0  0  0  0  0  0
  1  2  1  0
  2  3  1  0
  2  5  1  1
  3  4  2  0
  3  6  1  0
  6  7  1  0
  7  8  1  0
  7 10  1  1
  8  9  2  0
  8 11  1  0
 11 12  1  0
 12 13  1  0
 12 15  1  1
 13 14  2  0
 13 19  1  0
 15 16  1  0
 16 17  1  0
 16 18  2  0
 20 19  1  1
 20 21  1  0
 20 23  1  0
 21 22  2  0
 21 26  1  0
 23 24  1  0
 23 25  1  1
 27 26  1  6
 27 28  1  0
 27 30  1  0
 28 29  2  0
 28 33  1  0
 30 31  1  0
 30 32  1  1
 34 33  1  1
 34 35  1  0
 34 37  1  0
 35 36  2  0
 35 40  1  0
 37 38  1  0
 37 39  1  6
 40 41  1  0
 40 46  1  0
 41 42  1  6
 41 44  1  0
 42 43  2  0
 42 47  1  0
 44 45  1  0
 45 46  1  0
M  CHG  1   1   1
M  END
$$$$
