
     RDKit          3D

 47 47  0  0  0  0  0  0  0  0999 V2000
  -18.8740    6.1506    6.7789 N   0  0  0  0  0  4  0  0  0  0  0  0
  -19.8041    5.3061    6.0710 C   0  0  2  0  0  0  0  0  0  0  0  0
  -20.5716    6.1442    5.1187 C   0  0  0  0  0  0  0  0  0  0  0  0
  -21.0843    7.2603    5.4929 O   0  0  0  0  0  0  0  0  0  0  0  0
  -20.7900    4.7162    7.0764 C   0  0  0  0  0  0  0  0  0  0  0  0
  -20.8009    5.7985    3.7537 N   0  0  0  0  0  0  0  0  0  0  0  0
  -21.5327    6.6928    2.9029 C   0  0  2  0  0  0  0  0  0  0  0  0
  -22.6508    6.0815    2.1618 C   0  0  0  0  0  0  0  0  0  0  0  0
  -22.9781    6.6028    1.0470 O   0  0  0  0  0  0  0  0  0  0  0  0
  -20.5665    7.3280    1.8768 C   0  0  0  0  0  0  0  0  0  0  0  0
  -23.4119    4.9530    2.5652 N   0  0  0  0  0  0  0  0  0  0  0  0
  -23.6420    3.8453    1.6187 C   0  0  2  0  0  0  0  0  0  0  0  0
  -22.8287    2.6561    2.0450 C   0  0  0  0  0  0  0  0  0  0  0  0
  -21.6303    2.6974    1.7465 O   0  0  0  0  0  0  0  0  0  0  0  0
  -23.1844    4.3925    0.2885 C   0  0  0  0  0  0  0  0  0  0  0  0
  -24.2056    5.1730   -0.3881 C   0  0  0  0  0  0  0  0  0  0  0  0
  -23.9584    5.5837   -1.7101 O   0  0  0  0  0  0  0  0  0  0  0  0
  -25.2780    5.5007    0.1196 O   0  0  0  0  0  0  0  0  0  0  0  0
  -23.3721    1.5783    2.7320 N   0  0  0  0  0  0  0  0  0  0  0  0
  -23.7716    0.2968    2.1669 C   0  0  2  0  0  0  0  0  0  0  0  0
  -22.9501   -0.7723    2.6782 C   0  0  0  0  0  0  0  0  0  0  0  0
  -21.6982   -0.5093    2.8591 O   0  0  0  0  0  0  0  0  0  0  0  0
  -23.7962    0.3745    0.6455 C   0  0  2  0  0  0  0  0  0  0  0  0
  -23.4846   -0.9328    0.1882 O   0  0  0  0  0  0  0  0  0  0  0  0
  -22.6283    1.2256    0.1313 C   0  0  0  0  0  0  0  0  0  0  0  0
  -23.3240   -2.0803    3.0139 N   0  0  0  0  0  0  0  0  0  0  0  0
  -24.0495   -2.3853    4.2751 C   0  0  2  0  0  0  0  0  0  0  0  0
  -24.4383   -3.7919    4.1501 C   0  0  0  0  0  0  0  0  0  0  0  0
  -23.9521   -4.6215    5.0085 O   0  0  0  0  0  0  0  0  0  0  0  0
  -25.1724   -1.4194    4.4626 C   0  0  2  0  0  0  0  0  0  0  0  0
  -26.0783   -1.5832    3.3609 O   0  0  0  0  0  0  0  0  0  0  0  0
  -24.6164    0.0074    4.2809 C   0  0  0  0  0  0  0  0  0  0  0  0
  -25.2933   -4.3810    3.2017 N   0  0  0  0  0  0  0  0  0  0  0  0
  -25.2349   -5.7606    2.8497 C   0  0  2  0  0  0  0  0  0  0  0  0
  -26.4616   -6.5376    2.8467 C   0  0  0  0  0  0  0  0  0  0  0  0
  -27.5082   -5.8847    3.2576 O   0  0  0  0  0  0  0  0  0  0  0  0
  -24.1281   -6.3911    3.6709 C   0  0  2  0  0  0  0  0  0  0  0  0
  -23.8903   -7.7191    3.2925 O   0  0  0  0  0  0  0  0  0  0  0  0
  -24.3520   -6.2626    5.1513 C   0  0  0  0  0  0  0  0  0  0  0  0
  -26.6918   -7.8653    2.4749 N   0  0  0  0  0  0  0  0  0  0  0  0
  -28.0312   -8.4482    2.3041 C   0  0  2  0  0  0  0  0  0  0  0  0
  -28.4076   -9.3381    3.4245 C   0  0  0  0  0  0  0  0  0  0  0  0
  -27.5610  -10.0354    4.0381 O   0  0  0  0  0  0  0  0  0  0  0  0
  -27.8602   -9.2604    1.0452 C   0  0  0  0  0  0  0  0  0  0  0  0
  -26.3453   -9.3897    0.8168 C   0  0  0  0  0  0  0  0  0  0  0  0
  -25.7977   -8.9654    2.1859 C   0  0  0  0  0  0  0  0  0  0  0  0
  -29.7190   -9.4590    3.8691 O   0  0  0  0  0  0  0  0  0  0  0  0
  1  2  1  0
  2  3  1  0
  2  5  1  1
  3  4  2  0
  3  6  1  0
  6  7  1  0
  7  8  1  0
  7 10  1  6
  8  9  2  0
  8 11  1  0
 11 12  1  0
 12 13  1  0
 12 15  1  6
 13 14  2  0
 13 19  1  0
 15 16  1  0
 16 17  1  0
 16 18  2  0
 20 19  1  1
 20 21  1  0
 20 23  1  0
 21 22  2  0
 21 26  1  0
 23 24  1  0
 23 25  1  6
 27 26  1  6
 27 28  1  0
 27 30  1  0
 28 29  2  0
 28 33  1  0
 30 31  1  0
 30 32  1  6
 34 33  1  1
 34 35  1  0
 34 37  1  0
 35 36  2  0
 35 40  1  0
 37 38  1  0
 37 39  1  1
 40 41  1  0
 40 46  1  0
 41 42  1  1
 41 44  1  0
 42 43  2  0
 42 47  1  0
 44 45  1  0
 45 46  1  0
M  CHG  1   1   1
M  END
$$$$
