
     RDKit          3D

 47 47  0  0  0  0  0  0  0  0999 V2000
  -21.3442   10.9943    3.0979 N   0  0  0  0  0  4  0  0  0  0  0  0
  -21.7902   11.4439    1.7672 C   0  0  2  0  0  0  0  0  0  0  0  0
  -21.2814   10.5039    0.7527 C   0  0  0  0  0  0  0  0  0  0  0  0
  -21.3430   10.8185   -0.4609 O   0  0  0  0  0  0  0  0  0  0  0  0
  -21.2960   12.8547    1.5983 C   0  0  0  0  0  0  0  0  0  0  0  0
  -20.7184    9.2478    1.0559 N   0  0  0  0  0  0  0  0  0  0  0  0
  -20.3210    8.7626    2.3356 C   0  0  2  0  0  0  0  0  0  0  0  0
  -21.2734    7.6953    2.8199 C   0  0  0  0  0  0  0  0  0  0  0  0
  -21.1692    7.1833    3.9403 O   0  0  0  0  0  0  0  0  0  0  0  0
  -20.1313    9.8690    3.3109 C   0  0  0  0  0  0  0  0  0  0  0  0
  -22.3095    7.2778    1.9505 N   0  0  0  0  0  0  0  0  0  0  0  0
  -23.3089    6.2683    2.2785 C   0  0  2  0  0  0  0  0  0  0  0  0
  -22.7974    4.9087    1.9729 C   0  0  0  0  0  0  0  0  0  0  0  0
  -22.4662    4.6513    0.7790 O   0  0  0  0  0  0  0  0  0  0  0  0
  -24.6798    6.5711    1.8401 C   0  0  0  0  0  0  0  0  0  0  0  0
  -25.7068    6.6377    2.8774 C   0  0  0  0  0  0  0  0  0  0  0  0
  -25.6731    5.9887    4.0871 O   0  0  0  0  0  0  0  0  0  0  0  0
  -26.7167    7.3605    2.6333 O   0  0  0  0  0  0  0  0  0  0  0  0
  -22.6374    3.8536    2.8971 N   0  0  0  0  0  0  0  0  0  0  0  0
  -22.2423    2.5244    2.5039 C   0  0  2  0  0  0  0  0  0  0  0  0
  -23.3247    1.7050    1.8913 C   0  0  0  0  0  0  0  0  0  0  0  0
  -24.2559    2.1266    1.1987 O   0  0  0  0  0  0  0  0  0  0  0  0
  -21.7362    1.8096    3.7242 C   0  0  2  0  0  0  0  0  0  0  0  0
  -22.8779    1.2775    4.3651 O   0  0  0  0  0  0  0  0  0  0  0  0
  -21.1132    2.8014    4.6823 C   0  0  0  0  0  0  0  0  0  0  0  0
  -23.2202    0.3059    2.1614 N   0  0  0  0  0  0  0  0  0  0  0  0
  -24.1153   -0.6903    1.6513 C   0  0  2  0  0  0  0  0  0  0  0  0
  -23.7298   -2.0522    2.1075 C   0  0  0  0  0  0  0  0  0  0  0  0
  -22.6511   -2.5902    1.7588 O   0  0  0  0  0  0  0  0  0  0  0  0
  -24.1839   -0.5841    0.1597 C   0  0  2  0  0  0  0  0  0  0  0  0
  -25.0351   -1.5671   -0.3247 O   0  0  0  0  0  0  0  0  0  0  0  0
  -22.8680   -0.6647   -0.5433 C   0  0  0  0  0  0  0  0  0  0  0  0
  -24.5973   -2.7809    2.9593 N   0  0  0  0  0  0  0  0  0  0  0  0
  -24.1577   -4.1555    3.3349 C   0  0  2  0  0  0  0  0  0  0  0  0
  -25.0481   -5.1488    2.6877 C   0  0  0  0  0  0  0  0  0  0  0  0
  -26.2889   -5.0051    2.7923 O   0  0  0  0  0  0  0  0  0  0  0  0
  -24.3003   -4.2494    4.8533 C   0  0  2  0  0  0  0  0  0  0  0  0
  -25.6064   -4.0447    5.2675 O   0  0  0  0  0  0  0  0  0  0  0  0
  -23.2501   -3.5599    5.6342 C   0  0  0  0  0  0  0  0  0  0  0  0
  -24.5049   -6.2450    1.9511 N   0  0  0  0  0  0  0  0  0  0  0  0
  -25.1403   -7.4703    1.5554 C   0  0  2  0  0  0  0  0  0  0  0  0
  -25.9638   -8.1031    2.5959 C   0  0  0  0  0  0  0  0  0  0  0  0
  -27.1768   -8.2976    2.3492 O   0  0  0  0  0  0  0  0  0  0  0  0
  -24.0207   -8.4105    1.1698 C   0  0  0  0  0  0  0  0  0  0  0  0
  -22.7445   -7.6948    1.6166 C   0  0  0  0  0  0  0  0  0  0  0  0
  -23.1685   -6.2608    1.3777 C   0  0  0  0  0  0  0  0  0  0  0  0
  -25.4916   -8.5018    3.8340 O   0  0  0  0  0  0  0  0  0  0  0  0
  1  2  1  6
  2  3  1  6
  5  2  1  6
  3  4  2  0
  3  6  1  0
  7  6  1  6
  7  8  1  0
 10  7  1  6
  8  9  2  0
  8 11  1  0
 12 11  1  6
 12 13  1  0
 12 15  1  0
 13 14  2  0
 13 19  1  0
 15 16  1  6
 16 17  1  0
 16 18  2  0
 20 19  1  1
 20 21  1  0
 20 23  1  0
 21 22  2  0
 21 26  1  0
 23 24  1  1
 25 23  1  6
 27 26  1  6
 27 28  1  0
 27 30  1  0
 28 29  2  0
 28 33  1  0
 30 31  1  6
 32 30  1  6
 34 33  1  6
 34 35  1  0
 34 37  1  0
 35 36  2  0
 35 40  1  0
 37 38  1  1
 39 37  1  6
 40 41  1  0
 46 40  1  1
 41 42  1  1
 44 41  1  1
 42 43  2  0
 42 47  1  0
 44 45  1  0
 45 46  1  6
M  CHG  1   1   1
M  END
$$$$
