
     RDKit          3D

 47 47  0  0  0  0  0  0  0  0999 V2000
  -19.0465   10.4459    2.1216 N   0  0  0  0  0  4  0  0  0  0  0  0
  -19.5466   11.0133    3.3494 C   0  0  2  0  0  0  0  0  0  0  0  0
  -20.5117   10.0614    3.9501 C   0  0  0  0  0  0  0  0  0  0  0  0
  -20.9502   10.2375    5.1439 O   0  0  0  0  0  0  0  0  0  0  0  0
  -20.2997   12.3000    3.0209 C   0  0  0  0  0  0  0  0  0  0  0  0
  -21.0195    8.9082    3.2811 N   0  0  0  0  0  0  0  0  0  0  0  0
  -22.3418    8.9290    2.7242 C   0  0  2  0  0  0  0  0  0  0  0  0
  -22.7856    7.6643    2.1106 C   0  0  0  0  0  0  0  0  0  0  0  0
  -23.1272    7.6886    0.8840 O   0  0  0  0  0  0  0  0  0  0  0  0
  -22.4278   10.0393    1.6519 C   0  0  0  0  0  0  0  0  0  0  0  0
  -22.8712    6.4010    2.7527 N   0  0  0  0  0  0  0  0  0  0  0  0
  -21.8661    5.3605    2.4645 C   0  0  2  0  0  0  0  0  0  0  0  0
  -22.2053    4.1196    3.2407 C   0  0  0  0  0  0  0  0  0  0  0  0
  -22.1371    4.2266    4.4699 O   0  0  0  0  0  0  0  0  0  0  0  0
  -20.5614    5.9690    2.9177 C   0  0  0  0  0  0  0  0  0  0  0  0
  -19.5351    4.9781    3.1906 C   0  0  0  0  0  0  0  0  0  0  0  0
  -19.8692    3.6201    3.0436 O   0  0  0  0  0  0  0  0  0  0  0  0
  -18.3870    5.2477    3.5434 O   0  0  0  0  0  0  0  0  0  0  0  0
  -22.5758    2.9274    2.6321 N   0  0  0  0  0  0  0  0  0  0  0  0
  -23.8496    2.2359    2.7743 C   0  0  2  0  0  0  0  0  0  0  0  0
  -23.6702    0.8060    2.7231 C   0  0  0  0  0  0  0  0  0  0  0  0
  -24.0229    0.1370    3.7705 O   0  0  0  0  0  0  0  0  0  0  0  0
  -24.8538    2.7625    1.7566 C   0  0  2  0  0  0  0  0  0  0  0  0
  -25.4945    3.8638    2.3824 O   0  0  0  0  0  0  0  0  0  0  0  0
  -25.9897    1.7528    1.5497 C   0  0  0  0  0  0  0  0  0  0  0  0
  -23.1589    0.0242    1.6786 N   0  0  0  0  0  0  0  0  0  0  0  0
  -23.8703   -1.1859    1.1890 C   0  0  2  0  0  0  0  0  0  0  0  0
  -23.8740   -2.1030    2.3309 C   0  0  0  0  0  0  0  0  0  0  0  0
  -22.7389   -2.3771    2.8768 O   0  0  0  0  0  0  0  0  0  0  0  0
  -23.2105   -1.6983   -0.0484 C   0  0  2  0  0  0  0  0  0  0  0  0
  -22.2081   -2.6454    0.3510 O   0  0  0  0  0  0  0  0  0  0  0  0
  -22.4048   -0.5442   -0.6784 C   0  0  0  0  0  0  0  0  0  0  0  0
  -24.9715   -2.7417    2.9349 N   0  0  0  0  0  0  0  0  0  0  0  0
  -24.8583   -3.9556    3.6728 C   0  0  2  0  0  0  0  0  0  0  0  0
  -25.1521   -5.2124    3.0075 C   0  0  0  0  0  0  0  0  0  0  0  0
  -25.8317   -5.0874    1.9061 O   0  0  0  0  0  0  0  0  0  0  0  0
  -25.6219   -3.7706    4.9689 C   0  0  2  0  0  0  0  0  0  0  0  0
  -27.0016   -3.6622    4.7498 O   0  0  0  0  0  0  0  0  0  0  0  0
  -25.0964   -2.6348    5.8007 C   0  0  0  0  0  0  0  0  0  0  0  0
  -24.8221   -6.5236    3.3622 N   0  0  0  0  0  0  0  0  0  0  0  0
  -25.1406   -7.7001    2.5391 C   0  0  2  0  0  0  0  0  0  0  0  0
  -26.2684   -8.4851    3.0873 C   0  0  0  0  0  0  0  0  0  0  0  0
  -26.6331   -9.5756    2.5802 O   0  0  0  0  0  0  0  0  0  0  0  0
  -23.8678   -8.5030    2.6362 C   0  0  0  0  0  0  0  0  0  0  0  0
  -23.0744   -7.9144    3.8143 C   0  0  0  0  0  0  0  0  0  0  0  0
  -24.1544   -7.0819    4.5178 C   0  0  0  0  0  0  0  0  0  0  0  0
  -26.9948   -8.0674    4.1964 O   0  0  0  0  0  0  0  0  0  0  0  0
  1  2  1  0
  2  3  1  0
  2  5  1  6
  3  4  2  0
  3  6  1  0
  6  7  1  0
  7  8  1  0
  7 10  1  6
  8  9  2  0
  8 11  1  0
 11 12  1  0
 12 13  1  0
 12 15  1  1
 13 14  2  0
 13 19  1  0
 15 16  1  0
 16 17  1  0
 16 18  2  0
 20 19  1  6
 20 21  1  0
 20 23  1  0
 21 22  2  0
 21 26  1  0
 23 24  1  0
 23 25  1  1
 27 26  1  1
 27 28  1  0
 27 30  1  0
 28 29  2  0
 28 33  1  0
 30 31  1  0
 30 32  1  1
 34 33  1  6
 34 35  1  0
 34 37  1  0
 35 36  2  0
 35 40  1  0
 37 38  1  0
 37 39  1  6
 40 41  1  0
 40 46  1  0
 41 42  1  1
 41 44  1  0
 42 43  2  0
 42 47  1  0
 44 45  1  0
 45 46  1  0
M  CHG  1   1   1
M  END
$$$$
