
     RDKit          3D

 30 33  0  0  0  0  0  0  0  0999 V2000
   63.1072   -2.6262   27.0483 C   0  0  0  0  0  0  0  0  0  0  0  0
   63.8470   -2.8693   28.1850 C   0  0  0  0  0  0  0  0  0  0  0  0
   64.4859   -4.0807   28.4114 C   0  0  0  0  0  0  0  0  0  0  0  0
   64.3607   -5.0685   27.4434 C   0  0  0  0  0  0  0  0  0  0  0  0
   63.6176   -4.8147   26.3090 C   0  0  0  0  0  0  0  0  0  0  0  0
   62.9806   -3.6096   26.0811 C   0  0  0  0  0  0  0  0  0  0  0  0
   62.2342   -3.1175   25.1204 O   0  0  0  0  0  0  0  0  0  0  0  0
   61.8692   -1.8835   25.3997 C   0  0  0  0  0  0  0  0  0  0  0  0
   62.4002   -1.5065   26.6310 C   0  0  0  0  0  0  0  0  0  0  0  0
   62.1589   -0.2500   27.1479 C   0  0  0  0  0  0  0  0  0  0  0  0
   61.3736    0.6309   26.4110 C   0  0  0  0  0  0  0  0  0  0  0  0
   60.8550    0.2317   25.1849 C   0  0  0  0  0  0  0  0  0  0  0  0
   61.0885   -1.0212   24.6569 C   0  0  0  0  0  0  0  0  0  0  0  0
   60.5523   -1.4580   23.3710 C   0  0  0  0  0  0  0  0  0  0  0  0
   59.5313   -0.7601   22.7622 C   0  0  0  0  0  0  0  0  0  0  0  0
   61.0305   -2.5720   22.7095 C   0  0  0  0  0  0  0  0  0  0  0  0
   60.5087   -2.9749   21.4848 C   0  0  0  0  0  0  0  0  0  0  0  0
   59.4870   -2.2635   20.8912 C   0  0  0  0  0  0  0  0  0  0  0  0
   58.9912   -1.1472   21.5307 C   0  0  0  0  0  0  0  0  0  0  0  0
   57.8963   -0.3758   20.8994 C   0  0  0  0  0  0  0  0  0  0  0  0
   58.3722    0.4054   19.6959 C   0  0  1  0  0  0  0  0  0  0  0  0
   57.2953    0.1564   18.2693 P   0  0  2  0  0  5  0  0  0  0  0  0
   57.9275    0.8249   16.8592 O   0  0  0  0  0  0  0  0  0  0  0  0
   55.9345    0.8173   18.4998 O   0  0  0  0  0  0  0  0  0  0  0  0
   56.9758   -1.4856   17.9935 O   0  0  0  0  0  0  0  0  0  0  0  0
   58.4169    2.1854   20.0314 P   0  0  1  0  0  5  0  0  0  0  0  0
   59.0856    2.8713   18.8354 O   0  0  0  0  0  0  0  0  0  0  0  0
   56.8748    2.8360   20.1484 O   0  0  0  0  0  0  0  0  0  0  0  0
   59.3763    2.5580   21.3721 O   0  0  0  0  0  0  0  0  0  0  0  0
   59.6416   -0.0587   19.3803 O   0  0  0  0  0  0  0  0  0  0  0  0
  1  2  2  0
  1  6  1  0
  1  9  1  0
  2  3  1  0
  3  4  2  0
  4  5  1  0
  5  6  2  0
  6  7  1  0
  7  8  1  0
  8  9  2  0
  8 13  1  0
  9 10  1  0
 10 11  2  0
 11 12  1  0
 12 13  2  0
 13 14  1  0
 14 15  2  0
 14 16  1  0
 15 19  1  0
 16 17  2  0
 17 18  1  0
 18 19  2  0
 19 20  1  0
 20 21  1  0
 21 22  1  0
 21 26  1  0
 21 30  1  6
 22 23  1  6
 22 24  2  0
 22 25  1  0
 26 27  2  0
 26 28  1  1
 26 29  1  0
M  END
$$$$
