
     RDKit          3D

 30 33  0  0  0  0  0  0  0  0999 V2000
   62.9543   -2.9601   26.0339 C   0  0  0  0  0  0  0  0  0  0  0  0
   63.7538   -3.4023   27.0653 C   0  0  0  0  0  0  0  0  0  0  0  0
   64.3541   -4.6539   27.0567 C   0  0  0  0  0  0  0  0  0  0  0  0
   64.1263   -5.4726   25.9585 C   0  0  0  0  0  0  0  0  0  0  0  0
   63.3241   -5.0201   24.9312 C   0  0  0  0  0  0  0  0  0  0  0  0
   62.7254   -3.7746   24.9373 C   0  0  0  0  0  0  0  0  0  0  0  0
   61.9409   -3.1141   24.1183 O   0  0  0  0  0  0  0  0  0  0  0  0
   61.6468   -1.9284   24.6098 C   0  0  0  0  0  0  0  0  0  0  0  0
   62.2701   -1.7668   25.8450 C   0  0  0  0  0  0  0  0  0  0  0  0
   62.1152   -0.6002   26.5656 C   0  0  0  0  0  0  0  0  0  0  0  0
   61.3226    0.4101   26.0301 C   0  0  0  0  0  0  0  0  0  0  0  0
   60.7110    0.2254   24.7958 C   0  0  0  0  0  0  0  0  0  0  0  0
   60.8576   -0.9357   24.0653 C   0  0  0  0  0  0  0  0  0  0  0  0
   60.2230   -1.1476   22.7675 C   0  0  0  0  0  0  0  0  0  0  0  0
   59.1853   -0.3404   22.3530 C   0  0  0  0  0  0  0  0  0  0  0  0
   60.6212   -2.1486   21.9034 C   0  0  0  0  0  0  0  0  0  0  0  0
   60.0062   -2.3372   20.6702 C   0  0  0  0  0  0  0  0  0  0  0  0
   58.9692   -1.5192   20.2729 C   0  0  0  0  0  0  0  0  0  0  0  0
   58.5520   -0.5119   21.1170 C   0  0  0  0  0  0  0  0  0  0  0  0
   57.4414    0.3728   20.6973 C   0  0  0  0  0  0  0  0  0  0  0  0
   57.7082    1.0240   19.3595 C   0  0  1  0  0  0  0  0  0  0  0  0
   56.2253    1.8035   18.6884 P   0  0  2  0  0  5  0  0  0  0  0  0
   54.9267    0.7367   18.5838 O   0  0  0  0  0  0  0  0  0  0  0  0
   56.4841    2.3241   17.2728 O   0  0  0  0  0  0  0  0  0  0  0  0
   55.7471    3.1501   19.6006 O   0  0  0  0  0  0  0  0  0  0  0  0
   58.9805    2.3078   19.4847 P   0  0  1  0  0  5  0  0  0  0  0  0
   58.4643    3.3879   20.4411 O   0  0  0  0  0  0  0  0  0  0  0  0
   60.3979    1.7162   20.1601 O   0  0  0  0  0  0  0  0  0  0  0  0
   59.2472    3.0879   18.0092 O   0  0  0  0  0  0  0  0  0  0  0  0
   58.1161    0.0229   18.4890 O   0  0  0  0  0  0  0  0  0  0  0  0
  1  2  2  0
  1  6  1  0
  1  9  1  0
  2  3  1  0
  3  4  2  0
  4  5  1  0
  5  6  2  0
  6  7  1  0
  7  8  1  0
  8  9  2  0
  8 13  1  0
  9 10  1  0
 10 11  2  0
 11 12  1  0
 12 13  2  0
 13 14  1  0
 14 15  2  0
 14 16  1  0
 15 19  1  0
 16 17  2  0
 17 18  1  0
 18 19  2  0
 19 20  1  0
 20 21  1  0
 21 22  1  0
 21 26  1  0
 21 30  1  6
 22 23  1  6
 22 24  2  0
 22 25  1  0
 26 27  2  0
 26 28  1  1
 26 29  1  0
M  END
$$$$
