
     RDKit          3D

 30 33  0  0  0  0  0  0  0  0999 V2000
   63.3981   -3.3083   25.7710 C   0  0  0  0  0  0  0  0  0  0  0  0
   64.5302   -3.7316   26.4325 C   0  0  0  0  0  0  0  0  0  0  0  0
   65.3385   -4.7500   25.9463 C   0  0  0  0  0  0  0  0  0  0  0  0
   64.9729   -5.3493   24.7481 C   0  0  0  0  0  0  0  0  0  0  0  0
   63.8374   -4.9179   24.0939 C   0  0  0  0  0  0  0  0  0  0  0  0
   63.0310   -3.9042   24.5757 C   0  0  0  0  0  0  0  0  0  0  0  0
   61.9305   -3.3163   24.1690 O   0  0  0  0  0  0  0  0  0  0  0  0
   61.5605   -2.3811   25.0190 C   0  0  0  0  0  0  0  0  0  0  0  0
   62.4662   -2.3253   26.0758 C   0  0  0  0  0  0  0  0  0  0  0  0
   62.2961   -1.4197   27.1030 C   0  0  0  0  0  0  0  0  0  0  0  0
   61.1996   -0.5643   27.0586 C   0  0  0  0  0  0  0  0  0  0  0  0
   60.3097   -0.6390   25.9936 C   0  0  0  0  0  0  0  0  0  0  0  0
   60.4682   -1.5395   24.9606 C   0  0  0  0  0  0  0  0  0  0  0  0
   59.5439   -1.6324   23.8340 C   0  0  0  0  0  0  0  0  0  0  0  0
   59.7975   -0.9561   22.6600 C   0  0  0  0  0  0  0  0  0  0  0  0
   58.3892   -2.3883   23.8843 C   0  0  0  0  0  0  0  0  0  0  0  0
   57.5190   -2.4663   22.8020 C   0  0  0  0  0  0  0  0  0  0  0  0
   57.7899   -1.7823   21.6354 C   0  0  0  0  0  0  0  0  0  0  0  0
   58.9364   -1.0202   21.5589 C   0  0  0  0  0  0  0  0  0  0  0  0
   59.2365   -0.2848   20.3092 C   0  0  0  0  0  0  0  0  0  0  0  0
   58.1613    0.7223   19.9704 C   0  0  1  0  0  0  0  0  0  0  0  0
   58.8612    2.2533   19.3199 P   0  0  2  0  0  5  0  0  0  0  0  0
   59.6457    2.0294   17.8470 O   0  0  0  0  0  0  0  0  0  0  0  0
   59.8973    2.8264   20.2893 O   0  0  0  0  0  0  0  0  0  0  0  0
   57.6845    3.4587   19.1284 O   0  0  0  0  0  0  0  0  0  0  0  0
   57.0169    0.0809   18.7207 P   0  0  1  0  0  5  0  0  0  0  0  0
   56.4272   -1.2292   19.2535 O   0  0  0  0  0  0  0  0  0  0  0  0
   55.7206    1.1170   18.4731 O   0  0  0  0  0  0  0  0  0  0  0  0
   57.8047   -0.3204   17.2802 O   0  0  0  0  0  0  0  0  0  0  0  0
   57.4816    1.0093   21.1460 O   0  0  0  0  0  0  0  0  0  0  0  0
  1  2  2  0
  1  6  1  0
  1  9  1  0
  2  3  1  0
  3  4  2  0
  4  5  1  0
  5  6  2  0
  6  7  1  0
  7  8  1  0
  8  9  2  0
  8 13  1  0
  9 10  1  0
 10 11  2  0
 11 12  1  0
 12 13  2  0
 13 14  1  0
 14 15  2  0
 14 16  1  0
 15 19  1  0
 16 17  2  0
 17 18  1  0
 18 19  2  0
 19 20  1  0
 20 21  1  0
 21 22  1  0
 21 26  1  0
 21 30  1  1
 22 23  1  6
 22 24  2  0
 22 25  1  0
 26 27  2  0
 26 28  1  6
 26 29  1  0
M  END
$$$$
