
     RDKit          3D

 30 33  0  0  0  0  0  0  0  0999 V2000
   63.5121   -3.1881   26.6543 C   0  0  0  0  0  0  0  0  0  0  0  0
   64.3732   -3.5683   27.6605 C   0  0  0  0  0  0  0  0  0  0  0  0
   65.1732   -4.6989   27.5669 C   0  0  0  0  0  0  0  0  0  0  0  0
   65.0855   -5.4587   26.4078 C   0  0  0  0  0  0  0  0  0  0  0  0
   64.2201   -5.0691   25.4065 C   0  0  0  0  0  0  0  0  0  0  0  0
   63.4226   -3.9441   25.4972 C   0  0  0  0  0  0  0  0  0  0  0  0
   62.5398   -3.3628   24.7192 O   0  0  0  0  0  0  0  0  0  0  0  0
   62.0523   -2.2828   25.2936 C   0  0  0  0  0  0  0  0  0  0  0  0
   62.6391   -2.1139   26.5456 C   0  0  0  0  0  0  0  0  0  0  0  0
   62.2919   -1.0470   27.3488 C   0  0  0  0  0  0  0  0  0  0  0  0
   61.3428   -0.1445   26.8794 C   0  0  0  0  0  0  0  0  0  0  0  0
   60.7713   -0.3342   25.6268 C   0  0  0  0  0  0  0  0  0  0  0  0
   61.1094   -1.3963   24.8140 C   0  0  0  0  0  0  0  0  0  0  0  0
   60.5199   -1.6118   23.4956 C   0  0  0  0  0  0  0  0  0  0  0  0
   60.3238   -0.5549   22.6328 C   0  0  0  0  0  0  0  0  0  0  0  0
   60.1351   -2.8618   23.0522 C   0  0  0  0  0  0  0  0  0  0  0  0
   59.5748   -3.0502   21.7931 C   0  0  0  0  0  0  0  0  0  0  0  0
   59.3865   -1.9800   20.9437 C   0  0  0  0  0  0  0  0  0  0  0  0
   59.7621   -0.7211   21.3619 C   0  0  0  0  0  0  0  0  0  0  0  0
   59.5662    0.4331   20.4553 C   0  0  0  0  0  0  0  0  0  0  0  0
   58.1455    0.9481   20.4900 C   0  0  1  0  0  0  0  0  0  0  0  0
   58.0736    2.7293   20.2089 P   0  0  2  0  0  5  0  0  0  0  0  0
   58.8113    3.1851   18.7656 O   0  0  0  0  0  0  0  0  0  0  0  0
   58.7948    3.4810   21.3299 O   0  0  0  0  0  0  0  0  0  0  0  0
   56.4803    3.3087   20.2086 O   0  0  0  0  0  0  0  0  0  0  0  0
   57.1199    0.1617   19.2202 P   0  0  1  0  0  5  0  0  0  0  0  0
   57.8062    0.3725   17.8665 O   0  0  0  0  0  0  0  0  0  0  0  0
   57.0150   -1.4978   19.4441 O   0  0  0  0  0  0  0  0  0  0  0  0
   55.6009    0.8905   19.0853 O   0  0  0  0  0  0  0  0  0  0  0  0
   57.6409    0.6776   21.7544 O   0  0  0  0  0  0  0  0  0  0  0  0
  1  2  2  0
  1  6  1  0
  1  9  1  0
  2  3  1  0
  3  4  2  0
  4  5  1  0
  5  6  2  0
  6  7  1  0
  7  8  1  0
  8  9  2  0
  8 13  1  0
  9 10  1  0
 10 11  2  0
 11 12  1  0
 12 13  2  0
 13 14  1  0
 14 15  2  0
 14 16  1  0
 15 19  1  0
 16 17  2  0
 17 18  1  0
 18 19  2  0
 19 20  1  0
 20 21  1  0
 21 22  1  0
 21 26  1  0
 21 30  1  1
 22 23  1  6
 22 24  2  0
 22 25  1  0
 26 27  2  0
 26 28  1  1
 26 29  1  0
M  END
$$$$
