
     RDKit          3D

 30 33  0  0  0  0  0  0  0  0999 V2000
   63.2678   -4.1971   25.5186 C   0  0  0  0  0  0  0  0  0  0  0  0
   64.0666   -5.1906   26.0415 C   0  0  0  0  0  0  0  0  0  0  0  0
   64.7638   -5.0349   27.2317 C   0  0  0  0  0  0  0  0  0  0  0  0
   64.6362   -3.8255   27.9022 C   0  0  0  0  0  0  0  0  0  0  0  0
   63.8338   -2.8375   27.3700 C   0  0  0  0  0  0  0  0  0  0  0  0
   63.1388   -2.9899   26.1853 C   0  0  0  0  0  0  0  0  0  0  0  0
   62.3310   -2.2373   25.4757 O   0  0  0  0  0  0  0  0  0  0  0  0
   61.9288   -2.8747   24.3959 C   0  0  0  0  0  0  0  0  0  0  0  0
   62.4979   -4.1457   24.3643 C   0  0  0  0  0  0  0  0  0  0  0  0
   62.2288   -5.0131   23.3255 C   0  0  0  0  0  0  0  0  0  0  0  0
   61.3763   -4.5890   22.3110 C   0  0  0  0  0  0  0  0  0  0  0  0
   60.8206   -3.3163   22.3646 C   0  0  0  0  0  0  0  0  0  0  0  0
   61.0814   -2.4395   23.3973 C   0  0  0  0  0  0  0  0  0  0  0  0
   60.5070   -1.0991   23.4705 C   0  0  0  0  0  0  0  0  0  0  0  0
   60.3629   -0.3337   22.3332 C   0  0  0  0  0  0  0  0  0  0  0  0
   60.0859   -0.5382   24.6602 C   0  0  0  0  0  0  0  0  0  0  0  0
   59.5407    0.7404   24.7129 C   0  0  0  0  0  0  0  0  0  0  0  0
   59.4046    1.4911   23.5640 C   0  0  0  0  0  0  0  0  0  0  0  0
   59.8172    0.9546   22.3628 C   0  0  0  0  0  0  0  0  0  0  0  0
   59.6722    1.7524   21.1239 C   0  0  0  0  0  0  0  0  0  0  0  0
   58.2491    1.7565   20.6140 C   0  0  1  0  0  0  0  0  0  0  0  0
   57.7737    3.3752   19.9735 P   0  0  2  0  0  5  0  0  0  0  0  0
   56.2679    3.3542   19.2201 O   0  0  0  0  0  0  0  0  0  0  0  0
   58.7828    3.8590   18.9297 O   0  0  0  0  0  0  0  0  0  0  0  0
   57.7546    4.5584   21.1875 O   0  0  0  0  0  0  0  0  0  0  0  0
   58.0173    0.5589   19.2743 P   0  0  1  0  0  5  0  0  0  0  0  0
   58.9465    0.9577   18.1230 O   0  0  0  0  0  0  0  0  0  0  0  0
   58.4735   -0.9883   19.7362 O   0  0  0  0  0  0  0  0  0  0  0  0
   56.4513    0.6061   18.6402 O   0  0  0  0  0  0  0  0  0  0  0  0
   57.4268    1.4451   21.6880 O   0  0  0  0  0  0  0  0  0  0  0  0
  1  2  2  0
  1  6  1  0
  1  9  1  0
  2  3  1  0
  3  4  2  0
  4  5  1  0
  5  6  2  0
  6  7  1  0
  7  8  1  0
  8  9  2  0
  8 13  1  0
  9 10  1  0
 10 11  2  0
 11 12  1  0
 12 13  2  0
 13 14  1  0
 14 15  2  0
 14 16  1  0
 15 19  1  0
 16 17  2  0
 17 18  1  0
 18 19  2  0
 19 20  1  0
 20 21  1  0
 21 22  1  0
 21 26  1  0
 21 30  1  1
 22 23  1  6
 22 24  2  0
 22 25  1  0
 26 27  2  0
 26 28  1  1
 26 29  1  0
M  END
$$$$
