
     RDKit          3D

 30 33  0  0  0  0  0  0  0  0999 V2000
   84.7245  -14.3931   32.2297 C   0  0  0  0  0  0  0  0  0  0  0  0
   84.6549  -13.6972   33.4168 C   0  0  0  0  0  0  0  0  0  0  0  0
   83.6372  -12.7936   33.6905 C   0  0  0  0  0  0  0  0  0  0  0  0
   82.6652  -12.6006   32.7177 C   0  0  0  0  0  0  0  0  0  0  0  0
   82.7443  -13.3025   31.5326 C   0  0  0  0  0  0  0  0  0  0  0  0
   83.7564  -14.2025   31.2576 C   0  0  0  0  0  0  0  0  0  0  0  0
   84.0626  -14.9792   30.2450 O   0  0  0  0  0  0  0  0  0  0  0  0
   85.1622  -15.6590   30.4953 C   0  0  0  0  0  0  0  0  0  0  0  0
   85.6396  -15.3262   31.7609 C   0  0  0  0  0  0  0  0  0  0  0  0
   86.7878  -15.9088   32.2570 C   0  0  0  0  0  0  0  0  0  0  0  0
   87.4573  -16.8356   31.4643 C   0  0  0  0  0  0  0  0  0  0  0  0
   86.9616  -17.1514   30.2049 C   0  0  0  0  0  0  0  0  0  0  0  0
   85.8150  -16.5764   29.6971 C   0  0  0  0  0  0  0  0  0  0  0  0
   85.2793  -16.8955   28.3768 C   0  0  0  0  0  0  0  0  0  0  0  0
   86.0778  -16.8127   27.2562 C   0  0  0  0  0  0  0  0  0  0  0  0
   83.9697  -17.2897   28.1847 C   0  0  0  0  0  0  0  0  0  0  0  0
   83.4749  -17.5902   26.9200 C   0  0  0  0  0  0  0  0  0  0  0  0
   84.2893  -17.5014   25.8105 C   0  0  0  0  0  0  0  0  0  0  0  0
   85.6012  -17.1102   25.9746 C   0  0  0  0  0  0  0  0  0  0  0  0
   86.4835  -17.0150   24.7893 C   0  0  0  0  0  0  0  0  0  0  0  0
   87.3309  -18.2540   24.6107 C   0  0  1  0  0  0  0  0  0  0  0  0
   86.3501  -19.7614   24.7608 P   0  0  2  0  0  5  0  0  0  0  0  0
   85.0591  -19.8015   23.6805 O   0  0  0  0  0  0  0  0  0  0  0  0
   85.7542  -19.8786   26.1654 O   0  0  0  0  0  0  0  0  0  0  0  0
   87.2885  -21.1551   24.5342 O   0  0  0  0  0  0  0  0  0  0  0  0
   88.1254  -18.2894   22.9827 P   0  0  1  0  0  5  0  0  0  0  0  0
   87.0202  -18.2854   21.9214 O   0  0  0  0  0  0  0  0  0  0  0  0
   89.0481  -16.9149   22.7100 O   0  0  0  0  0  0  0  0  0  0  0  0
   89.0010  -19.7130   22.7310 O   0  0  0  0  0  0  0  0  0  0  0  0
   88.2884  -18.2455   25.6154 O   0  0  0  0  0  0  0  0  0  0  0  0
  1  2  2  0
  1  6  1  0
  1  9  1  0
  2  3  1  0
  3  4  2  0
  4  5  1  0
  5  6  2  0
  6  7  1  0
  7  8  1  0
  8  9  2  0
  8 13  1  0
  9 10  1  0
 10 11  2  0
 11 12  1  0
 12 13  2  0
 13 14  1  0
 14 15  2  0
 14 16  1  0
 15 19  1  0
 16 17  2  0
 17 18  1  0
 18 19  2  0
 19 20  1  0
 20 21  1  0
 21 22  1  0
 21 26  1  0
 21 30  1  1
 22 23  1  6
 22 24  2  0
 22 25  1  0
 26 27  2  0
 26 28  1  6
 26 29  1  0
M  END
$$$$
