
     RDKit          3D

 30 33  0  0  0  0  0  0  0  0999 V2000
   61.6995   -5.6215   20.0652 C   0  0  0  0  0  0  0  0  0  0  0  0
   61.9903   -6.7485   19.3277 C   0  0  0  0  0  0  0  0  0  0  0  0
   61.4163   -6.9945   18.0880 C   0  0  0  0  0  0  0  0  0  0  0  0
   60.5194   -6.0568   17.5933 C   0  0  0  0  0  0  0  0  0  0  0  0
   60.2352   -4.9319   18.3398 C   0  0  0  0  0  0  0  0  0  0  0  0
   60.8053   -4.6846   19.5742 C   0  0  0  0  0  0  0  0  0  0  0  0
   60.7152   -3.7268   20.4669 O   0  0  0  0  0  0  0  0  0  0  0  0
   61.4897   -3.9797   21.5013 C   0  0  0  0  0  0  0  0  0  0  0  0
   62.1527   -5.1888   21.3042 C   0  0  0  0  0  0  0  0  0  0  0  0
   63.0278   -5.6760   22.2534 C   0  0  0  0  0  0  0  0  0  0  0  0
   63.2323   -4.9320   23.4111 C   0  0  0  0  0  0  0  0  0  0  0  0
   62.5592   -3.7286   23.5851 C   0  0  0  0  0  0  0  0  0  0  0  0
   61.6819   -3.2303   22.6442 C   0  0  0  0  0  0  0  0  0  0  0  0
   60.9660   -1.9685   22.8097 C   0  0  0  0  0  0  0  0  0  0  0  0
   60.7562   -1.1338   21.7330 C   0  0  0  0  0  0  0  0  0  0  0  0
   60.4709   -1.5528   24.0300 C   0  0  0  0  0  0  0  0  0  0  0  0
   59.7910   -0.3476   24.1708 C   0  0  0  0  0  0  0  0  0  0  0  0
   59.5909    0.4744   23.0815 C   0  0  0  0  0  0  0  0  0  0  0  0
   60.0751    0.0829   21.8514 C   0  0  0  0  0  0  0  0  0  0  0  0
   59.8623    0.9579   20.6760 C   0  0  0  0  0  0  0  0  0  0  0  0
   58.3953    1.1330   20.3562 C   0  0  1  0  0  0  0  0  0  0  0  0
   57.8503    2.8317   20.6287 P   0  0  2  0  0  5  0  0  0  0  0  0
   56.2346    3.0650   20.2163 O   0  0  0  0  0  0  0  0  0  0  0  0
   58.6685    3.8033   19.7752 O   0  0  0  0  0  0  0  0  0  0  0  0
   58.0743    3.3206   22.2365 O   0  0  0  0  0  0  0  0  0  0  0  0
   58.0360    0.7238   18.6281 P   0  0  1  0  0  5  0  0  0  0  0  0
   56.5535    0.3480   18.5337 O   0  0  0  0  0  0  0  0  0  0  0  0
   58.2545    2.0448   17.6170 O   0  0  0  0  0  0  0  0  0  0  0  0
   58.8906   -0.6367   18.1036 O   0  0  0  0  0  0  0  0  0  0  0  0
   57.6863    0.2973   21.2080 O   0  0  0  0  0  0  0  0  0  0  0  0
  1  2  2  0
  1  6  1  0
  1  9  1  0
  2  3  1  0
  3  4  2  0
  4  5  1  0
  5  6  2  0
  6  7  1  0
  7  8  1  0
  8  9  2  0
  8 13  1  0
  9 10  1  0
 10 11  2  0
 11 12  1  0
 12 13  2  0
 13 14  1  0
 14 15  2  0
 14 16  1  0
 15 19  1  0
 16 17  2  0
 17 18  1  0
 18 19  2  0
 19 20  1  0
 20 21  1  0
 21 22  1  0
 21 26  1  0
 21 30  1  1
 22 23  1  6
 22 24  2  0
 22 25  1  0
 26 27  2  0
 26 28  1  6
 26 29  1  0
M  END
$$$$
