
     RDKit          3D

 30 33  0  0  0  0  0  0  0  0999 V2000
   63.1015   -3.1922   26.2905 C   0  0  0  0  0  0  0  0  0  0  0  0
   63.9454   -3.6076   27.3072 C   0  0  0  0  0  0  0  0  0  0  0  0
   64.5214   -4.8798   27.2359 C   0  0  0  0  0  0  0  0  0  0  0  0
   64.2646   -5.7219   26.1770 C   0  0  0  0  0  0  0  0  0  0  0  0
   63.4236   -5.2940   25.1745 C   0  0  0  0  0  0  0  0  0  0  0  0
   62.8357   -4.0218   25.2267 C   0  0  0  0  0  0  0  0  0  0  0  0
   62.0193   -3.3873   24.4233 O   0  0  0  0  0  0  0  0  0  0  0  0
   61.7289   -2.1966   24.8843 C   0  0  0  0  0  0  0  0  0  0  0  0
   62.4050   -2.0255   26.0889 C   0  0  0  0  0  0  0  0  0  0  0  0
   62.2824   -0.8623   26.7947 C   0  0  0  0  0  0  0  0  0  0  0  0
   61.4835    0.1424   26.3054 C   0  0  0  0  0  0  0  0  0  0  0  0
   60.8151   -0.0392   25.1049 C   0  0  0  0  0  0  0  0  0  0  0  0
   60.9245   -1.2023   24.3782 C   0  0  0  0  0  0  0  0  0  0  0  0
   60.2113   -1.3556   23.1285 C   0  0  0  0  0  0  0  0  0  0  0  0
   59.2880   -0.4131   22.6808 C   0  0  0  0  0  0  0  0  0  0  0  0
   60.4264   -2.4577   22.3278 C   0  0  0  0  0  0  0  0  0  0  0  0
   59.7768   -2.6618   21.1235 C   0  0  0  0  0  0  0  0  0  0  0  0
   58.8638   -1.6889   20.7226 C   0  0  0  0  0  0  0  0  0  0  0  0
   58.6153   -0.5715   21.4880 C   0  0  0  0  0  0  0  0  0  0  0  0
   57.6332    0.4180   20.9948 C   0  0  0  0  0  0  0  0  0  0  0  0
   58.1900    1.3428   19.9649 C   0  0  1  0  0  0  0  0  0  0  0  0
   57.2283    1.1410   18.4280 P   0  0  2  0  0  5  0  0  0  0  0  0
   57.0830   -0.4771   17.9989 O   0  0  0  0  0  0  0  0  0  0  0  0
   57.8939    1.9451   17.3108 O   0  0  0  0  0  0  0  0  0  0  0  0
   55.6991    1.8315   18.6684 O   0  0  0  0  0  0  0  0  0  0  0  0
   58.0057    3.0884   20.4566 P   0  0  1  0  0  5  0  0  0  0  0  0
   56.5731    3.4031   20.8024 O   0  0  0  0  0  0  0  0  0  0  0  0
   59.0740    3.4657   21.7060 O   0  0  0  0  0  0  0  0  0  0  0  0
   58.4127    4.1064   19.1477 O   0  0  0  0  0  0  0  0  0  0  0  0
   59.5248    1.0659   19.6824 O   0  0  0  0  0  0  0  0  0  0  0  0
  1  2  2  0
  1  6  1  0
  1  9  1  0
  2  3  1  0
  3  4  2  0
  4  5  1  0
  5  6  2  0
  6  7  1  0
  7  8  1  0
  8  9  2  0
  8 13  1  0
  9 10  1  0
 10 11  2  0
 11 12  1  0
 12 13  2  0
 13 14  1  0
 14 15  2  0
 14 16  1  0
 15 19  1  0
 16 17  2  0
 17 18  1  0
 18 19  2  0
 20 19  1  1
 20 21  1  0
 21 22  1  0
 21 26  1  0
 21 30  1  6
 22 23  1  6
 22 24  2  0
 22 25  1  0
 26 27  2  0
 26 28  1  1
 26 29  1  0
M  END
$$$$
