
     RDKit          3D

 30 33  0  0  0  0  0  0  0  0999 V2000
   62.5236   -5.0375   21.7448 C   0  0  0  0  0  0  0  0  0  0  0  0
   63.1017   -6.2230   21.3220 C   0  0  0  0  0  0  0  0  0  0  0  0
   62.9602   -6.6101   19.9858 C   0  0  0  0  0  0  0  0  0  0  0  0
   62.2591   -5.8360   19.0883 C   0  0  0  0  0  0  0  0  0  0  0  0
   61.6905   -4.6604   19.5244 C   0  0  0  0  0  0  0  0  0  0  0  0
   61.8206   -4.2540   20.8602 C   0  0  0  0  0  0  0  0  0  0  0  0
   61.3875   -3.2065   21.5159 O   0  0  0  0  0  0  0  0  0  0  0  0
   61.7567   -3.2458   22.7715 C   0  0  0  0  0  0  0  0  0  0  0  0
   62.4931   -4.4106   22.9668 C   0  0  0  0  0  0  0  0  0  0  0  0
   63.0071   -4.7091   24.1967 C   0  0  0  0  0  0  0  0  0  0  0  0
   62.7914   -3.8478   25.2449 C   0  0  0  0  0  0  0  0  0  0  0  0
   62.0566   -2.6909   25.0387 C   0  0  0  0  0  0  0  0  0  0  0  0
   61.5301   -2.3711   23.8086 C   0  0  0  0  0  0  0  0  0  0  0  0
   60.7680   -1.1538   23.6315 C   0  0  0  0  0  0  0  0  0  0  0  0
   60.5709   -0.5777   22.3783 C   0  0  0  0  0  0  0  0  0  0  0  0
   60.2032   -0.5148   24.7154 C   0  0  0  0  0  0  0  0  0  0  0  0
   59.4645    0.6503   24.6119 C   0  0  0  0  0  0  0  0  0  0  0  0
   59.2979    1.1843   23.3359 C   0  0  0  0  0  0  0  0  0  0  0  0
   59.8426    0.5825   22.2237 C   0  0  0  0  0  0  0  0  0  0  0  0
   59.6207    1.2085   20.9023 C   0  0  0  0  0  0  0  0  0  0  0  0
   58.1892    1.2130   20.4816 C   0  0  1  0  0  0  0  0  0  0  0  0
   57.9559    2.5329   19.2442 P   0  0  2  0  0  5  0  0  0  0  0  0
   56.4287    2.4622   18.5471 O   0  0  0  0  0  0  0  0  0  0  0  0
   59.0481    2.4213   18.1801 O   0  0  0  0  0  0  0  0  0  0  0  0
   58.1890    4.0248   20.0143 O   0  0  0  0  0  0  0  0  0  0  0  0
   57.7237   -0.3456   19.6592 P   0  0  1  0  0  5  0  0  0  0  0  0
   58.4958   -0.5313   18.3784 O   0  0  0  0  0  0  0  0  0  0  0  0
   57.8982   -1.6469   20.7180 O   0  0  0  0  0  0  0  0  0  0  0  0
   56.0752   -0.2990   19.2172 O   0  0  0  0  0  0  0  0  0  0  0  0
   57.3324    1.4622   21.5503 O   0  0  0  0  0  0  0  0  0  0  0  0
  1  2  2  0
  1  6  1  0
  1  9  1  0
  2  3  1  0
  3  4  2  0
  4  5  1  0
  5  6  2  0
  6  7  1  0
  7  8  1  0
  8  9  2  0
  8 13  1  0
  9 10  1  0
 10 11  2  0
 11 12  1  0
 12 13  2  0
 13 14  1  0
 14 15  2  0
 14 16  1  0
 15 19  1  0
 16 17  2  0
 17 18  1  0
 18 19  2  0
 20 19  1  1
 20 21  1  0
 21 22  1  0
 21 26  1  0
 21 30  1  1
 22 23  1  6
 22 24  2  0
 22 25  1  0
 26 27  2  0
 26 28  1  1
 26 29  1  0
M  END
$$$$
