
     RDKit          3D

 30 33  0  0  0  0  0  0  0  0999 V2000
   62.4316   -4.7276   23.9453 C   0  0  0  0  0  0  0  0  0  0  0  0
   63.0792   -5.9390   24.0518 C   0  0  0  0  0  0  0  0  0  0  0  0
   64.2584   -6.2140   23.3729 C   0  0  0  0  0  0  0  0  0  0  0  0
   64.7856   -5.2168   22.5630 C   0  0  0  0  0  0  0  0  0  0  0  0
   64.1292   -4.0075   22.4634 C   0  0  0  0  0  0  0  0  0  0  0  0
   62.9552   -3.7311   23.1382 C   0  0  0  0  0  0  0  0  0  0  0  0
   62.1490   -2.6989   23.2207 O   0  0  0  0  0  0  0  0  0  0  0  0
   61.1399   -2.9591   24.0257 C   0  0  0  0  0  0  0  0  0  0  0  0
   61.2633   -4.2530   24.5266 C   0  0  0  0  0  0  0  0  0  0  0  0
   60.3235   -4.7644   25.3980 C   0  0  0  0  0  0  0  0  0  0  0  0
   59.2505   -3.9581   25.7644 C   0  0  0  0  0  0  0  0  0  0  0  0
   59.1490   -2.6704   25.2513 C   0  0  0  0  0  0  0  0  0  0  0  0
   60.0815   -2.1472   24.3796 C   0  0  0  0  0  0  0  0  0  0  0  0
   59.9915   -0.7972   23.8306 C   0  0  0  0  0  0  0  0  0  0  0  0
   59.9329   -0.5956   22.4682 C   0  0  0  0  0  0  0  0  0  0  0  0
   59.9610    0.3273   24.6318 C   0  0  0  0  0  0  0  0  0  0  0  0
   59.8750    1.6066   24.0928 C   0  0  0  0  0  0  0  0  0  0  0  0
   59.8173    1.7882   22.7268 C   0  0  0  0  0  0  0  0  0  0  0  0
   59.8462    0.6821   21.9042 C   0  0  0  0  0  0  0  0  0  0  0  0
   59.7818    0.8676   20.4366 C   0  0  0  0  0  0  0  0  0  0  0  0
   58.3596    0.8579   19.9245 C   0  0  1  0  0  0  0  0  0  0  0  0
   57.4409    2.3099   20.4764 P   0  0  2  0  0  5  0  0  0  0  0  0
   57.1515    2.2982   22.1351 O   0  0  0  0  0  0  0  0  0  0  0  0
   56.0746    2.3757   19.7903 O   0  0  0  0  0  0  0  0  0  0  0  0
   58.2342    3.7537   20.0758 O   0  0  0  0  0  0  0  0  0  0  0  0
   58.3029    0.8422   18.1136 P   0  0  1  0  0  5  0  0  0  0  0  0
   59.1948    1.9805   17.6068 O   0  0  0  0  0  0  0  0  0  0  0  0
   58.9411   -0.5755   17.4828 O   0  0  0  0  0  0  0  0  0  0  0  0
   56.7547    1.1709   17.5208 O   0  0  0  0  0  0  0  0  0  0  0  0
   57.7459   -0.2768   20.4368 O   0  0  0  0  0  0  0  0  0  0  0  0
  1  2  2  0
  1  6  1  0
  1  9  1  0
  2  3  1  0
  3  4  2  0
  4  5  1  0
  5  6  2  0
  6  7  1  0
  7  8  1  0
  8  9  2  0
  8 13  1  0
  9 10  1  0
 10 11  2  0
 11 12  1  0
 12 13  2  0
 13 14  1  0
 14 15  2  0
 14 16  1  0
 15 19  1  0
 16 17  2  0
 17 18  1  0
 18 19  2  0
 19 20  1  0
 20 21  1  0
 21 22  1  0
 21 26  1  0
 21 30  1  1
 22 23  1  1
 22 24  2  0
 22 25  1  0
 26 27  2  0
 26 28  1  6
 26 29  1  0
M  END
$$$$
