
     RDKit          3D

 30 33  0  0  0  0  0  0  0  0999 V2000
   61.2907    1.0135   26.1728 C   0  0  0  0  0  0  0  0  0  0  0  0
   61.6232    1.7918   27.2692 C   0  0  0  0  0  0  0  0  0  0  0  0
   61.1578    3.1088   27.3348 C   0  0  0  0  0  0  0  0  0  0  0  0
   60.3785    3.6417   26.3323 C   0  0  0  0  0  0  0  0  0  0  0  0
   60.0569    2.8550   25.2492 C   0  0  0  0  0  0  0  0  0  0  0  0
   60.5134    1.5318   25.1639 C   0  0  0  0  0  0  0  0  0  0  0  0
   60.3547    0.5939   24.2640 O   0  0  0  0  0  0  0  0  0  0  0  0
   60.9740   -0.5066   24.6103 C   0  0  0  0  0  0  0  0  0  0  0  0
   61.5932   -0.2836   25.8368 C   0  0  0  0  0  0  0  0  0  0  0  0
   62.3171   -1.2732   26.4391 C   0  0  0  0  0  0  0  0  0  0  0  0
   62.4305   -2.4959   25.8234 C   0  0  0  0  0  0  0  0  0  0  0  0
   61.8096   -2.7065   24.6023 C   0  0  0  0  0  0  0  0  0  0  0  0
   61.0760   -1.7241   23.9783 C   0  0  0  0  0  0  0  0  0  0  0  0
   60.4418   -1.9809   22.7033 C   0  0  0  0  0  0  0  0  0  0  0  0
   60.2581   -0.9805   21.7513 C   0  0  0  0  0  0  0  0  0  0  0  0
   59.9917   -3.2451   22.3848 C   0  0  0  0  0  0  0  0  0  0  0  0
   59.3781   -3.5544   21.1841 C   0  0  0  0  0  0  0  0  0  0  0  0
   59.2192   -2.5172   20.2676 C   0  0  0  0  0  0  0  0  0  0  0  0
   59.6522   -1.2389   20.5403 C   0  0  0  0  0  0  0  0  0  0  0  0
   59.4495   -0.1913   19.5162 C   0  0  0  0  0  0  0  0  0  0  0  0
   58.0620    0.3567   19.4958 C   0  0  1  0  0  0  0  0  0  0  0  0
   58.0814    1.9426   18.5945 P   0  0  2  0  0  5  0  0  0  0  0  0
   58.7842    1.7813   17.0768 O   0  0  0  0  0  0  0  0  0  0  0  0
   58.8219    2.9859   19.4316 O   0  0  0  0  0  0  0  0  0  0  0  0
   56.4830    2.4888   18.4540 O   0  0  0  0  0  0  0  0  0  0  0  0
   56.9201   -0.7338   18.5851 P   0  0  1  0  0  5  0  0  0  0  0  0
   55.5286   -0.1559   18.5578 O   0  0  0  0  0  0  0  0  0  0  0  0
   57.5191   -1.0595   17.0424 O   0  0  0  0  0  0  0  0  0  0  0  0
   56.7937   -2.2381   19.3828 O   0  0  0  0  0  0  0  0  0  0  0  0
   57.5750    0.5915   20.7788 O   0  0  0  0  0  0  0  0  0  0  0  0
  1  2  2  0
  1  6  1  0
  1  9  1  0
  2  3  1  0
  3  4  2  0
  4  5  1  0
  5  6  2  0
  6  7  1  0
  7  8  1  0
  8  9  2  0
  8 13  1  0
  9 10  1  0
 10 11  2  0
 11 12  1  0
 12 13  2  0
 13 14  1  0
 14 15  2  0
 14 16  1  0
 15 19  1  0
 16 17  2  0
 17 18  1  0
 18 19  2  0
 20 19  1  1
 20 21  1  0
 21 22  1  0
 21 26  1  0
 21 30  1  1
 22 23  1  6
 22 24  2  0
 22 25  1  0
 26 27  2  0
 26 28  1  6
 26 29  1  0
M  END
$$$$
