
     RDKit          3D

 30 33  0  0  0  0  0  0  0  0999 V2000
   63.4933   -2.7737   26.8273 C   0  0  0  0  0  0  0  0  0  0  0  0
   64.2511   -3.1355   27.9197 C   0  0  0  0  0  0  0  0  0  0  0  0
   65.0118   -4.2964   27.9453 C   0  0  0  0  0  0  0  0  0  0  0  0
   64.9929   -5.1067   26.8177 C   0  0  0  0  0  0  0  0  0  0  0  0
   64.2308   -4.7351   25.7294 C   0  0  0  0  0  0  0  0  0  0  0  0
   63.4725   -3.5800   25.7013 C   0  0  0  0  0  0  0  0  0  0  0  0
   62.6818   -3.0059   24.8253 O   0  0  0  0  0  0  0  0  0  0  0  0
   62.1897   -1.8836   25.3073 C   0  0  0  0  0  0  0  0  0  0  0  0
   62.6748   -1.6761   26.5964 C   0  0  0  0  0  0  0  0  0  0  0  0
   62.3027   -0.5609   27.3188 C   0  0  0  0  0  0  0  0  0  0  0  0
   61.4322    0.3508   26.7301 C   0  0  0  0  0  0  0  0  0  0  0  0
   60.9615    0.1220   25.4425 C   0  0  0  0  0  0  0  0  0  0  0  0
   61.3256   -0.9885   24.7096 C   0  0  0  0  0  0  0  0  0  0  0  0
   60.8416   -1.2456   23.3562 C   0  0  0  0  0  0  0  0  0  0  0  0
   60.5114   -0.2019   22.5185 C   0  0  0  0  0  0  0  0  0  0  0  0
   60.6918   -2.5232   22.8538 C   0  0  0  0  0  0  0  0  0  0  0  0
   60.2293   -2.7511   21.5620 C   0  0  0  0  0  0  0  0  0  0  0  0
   59.9040   -1.6937   20.7384 C   0  0  0  0  0  0  0  0  0  0  0  0
   60.0443   -0.4077   21.2155 C   0  0  0  0  0  0  0  0  0  0  0  0
   59.7001    0.7336   20.3372 C   0  0  0  0  0  0  0  0  0  0  0  0
   58.2379    1.1046   20.4344 C   0  0  1  0  0  0  0  0  0  0  0  0
   58.0166    2.8144   20.9675 P   0  0  2  0  0  5  0  0  0  0  0  0
   56.3941    3.2506   21.0790 O   0  0  0  0  0  0  0  0  0  0  0  0
   58.6651    3.7776   19.9707 O   0  0  0  0  0  0  0  0  0  0  0  0
   58.7617    3.1161   22.4601 O   0  0  0  0  0  0  0  0  0  0  0  0
   57.3971    0.9256   18.8395 P   0  0  1  0  0  5  0  0  0  0  0  0
   55.9247    1.2988   19.0412 O   0  0  0  0  0  0  0  0  0  0  0  0
   58.0025    1.9909   17.6933 O   0  0  0  0  0  0  0  0  0  0  0  0
   57.3965   -0.6743   18.2946 O   0  0  0  0  0  0  0  0  0  0  0  0
   57.6632    0.2668   21.3802 O   0  0  0  0  0  0  0  0  0  0  0  0
  1  2  2  0
  1  6  1  0
  1  9  1  0
  2  3  1  0
  3  4  2  0
  4  5  1  0
  5  6  2  0
  6  7  1  0
  7  8  1  0
  8  9  2  0
  8 13  1  0
  9 10  1  0
 10 11  2  0
 11 12  1  0
 12 13  2  0
 13 14  1  0
 14 15  2  0
 14 16  1  0
 15 19  1  0
 16 17  2  0
 17 18  1  0
 18 19  2  0
 19 20  1  0
 20 21  1  0
 21 22  1  0
 21 26  1  0
 21 30  1  1
 22 23  1  1
 22 24  2  0
 22 25  1  0
 26 27  2  0
 26 28  1  6
 26 29  1  0
M  END
$$$$
