
     RDKit          3D

 30 33  0  0  0  0  0  0  0  0999 V2000
   62.5127   -4.4099   23.3174 C   0  0  0  0  0  0  0  0  0  0  0  0
   63.2635   -5.5641   23.2692 C   0  0  0  0  0  0  0  0  0  0  0  0
   62.9455   -6.6236   22.4305 C   0  0  0  0  0  0  0  0  0  0  0  0
   61.8257   -6.4926   21.6197 C   0  0  0  0  0  0  0  0  0  0  0  0
   61.0809   -5.3327   21.6757 C   0  0  0  0  0  0  0  0  0  0  0  0
   61.3953   -4.2766   22.5098 C   0  0  0  0  0  0  0  0  0  0  0  0
   60.8759   -3.0965   22.7549 O   0  0  0  0  0  0  0  0  0  0  0  0
   61.5805   -2.4574   23.6654 C   0  0  0  0  0  0  0  0  0  0  0  0
   62.6514   -3.2512   24.0697 C   0  0  0  0  0  0  0  0  0  0  0  0
   63.5424   -2.8011   25.0224 C   0  0  0  0  0  0  0  0  0  0  0  0
   63.3464   -1.5369   25.5694 C   0  0  0  0  0  0  0  0  0  0  0  0
   62.2706   -0.7635   25.1498 C   0  0  0  0  0  0  0  0  0  0  0  0
   61.3727   -1.2014   24.1984 C   0  0  0  0  0  0  0  0  0  0  0  0
   60.2370   -0.4032   23.7454 C   0  0  0  0  0  0  0  0  0  0  0  0
   59.6409   -0.6572   22.5288 C   0  0  0  0  0  0  0  0  0  0  0  0
   59.7104    0.6285   24.4975 C   0  0  0  0  0  0  0  0  0  0  0  0
   58.6280    1.3795   24.0515 C   0  0  0  0  0  0  0  0  0  0  0  0
   58.0447    1.1102   22.8310 C   0  0  0  0  0  0  0  0  0  0  0  0
   58.5513    0.0853   22.0603 C   0  0  0  0  0  0  0  0  0  0  0  0
   57.9294   -0.2126   20.7499 C   0  0  0  0  0  0  0  0  0  0  0  0
   58.6653    0.4503   19.6079 C   0  0  1  0  0  0  0  0  0  0  0  0
   57.8413    0.1660   18.0277 P   0  0  2  0  0  5  0  0  0  0  0  0
   58.7439    0.7231   16.7200 O   0  0  0  0  0  0  0  0  0  0  0  0
   56.4984    0.8982   17.9812 O   0  0  0  0  0  0  0  0  0  0  0  0
   57.4875   -1.4737   17.7816 O   0  0  0  0  0  0  0  0  0  0  0  0
   58.7795    2.2436   19.8397 P   0  0  1  0  0  5  0  0  0  0  0  0
   59.6024    2.8148   18.6802 O   0  0  0  0  0  0  0  0  0  0  0  0
   57.2736    2.9792   19.7585 O   0  0  0  0  0  0  0  0  0  0  0  0
   59.6207    2.6527   21.2474 O   0  0  0  0  0  0  0  0  0  0  0  0
   59.9333   -0.1116   19.5547 O   0  0  0  0  0  0  0  0  0  0  0  0
  1  2  2  0
  1  6  1  0
  1  9  1  0
  2  3  1  0
  3  4  2  0
  4  5  1  0
  5  6  2  0
  6  7  1  0
  7  8  1  0
  8  9  2  0
  8 13  1  0
  9 10  1  0
 10 11  2  0
 11 12  1  0
 12 13  2  0
 13 14  1  0
 14 15  2  0
 14 16  1  0
 15 19  1  0
 16 17  2  0
 17 18  1  0
 18 19  2  0
 19 20  1  0
 20 21  1  0
 21 22  1  0
 21 26  1  0
 21 30  1  6
 22 23  1  6
 22 24  2  0
 22 25  1  0
 26 27  2  0
 26 28  1  1
 26 29  1  0
M  END
$$$$
