
     RDKit          3D

 30 33  0  0  0  0  0  0  0  0999 V2000
   62.4355   -0.0077   25.4785 C   0  0  0  0  0  0  0  0  0  0  0  0
   63.4483    0.4372   26.3121 C   0  0  0  0  0  0  0  0  0  0  0  0
   64.3767    1.3606   25.8215 C   0  0  0  0  0  0  0  0  0  0  0  0
   64.3009    1.8322   24.5299 C   0  0  0  0  0  0  0  0  0  0  0  0
   63.2883    1.3801   23.7141 C   0  0  0  0  0  0  0  0  0  0  0  0
   62.3469    0.4543   24.1865 C   0  0  0  0  0  0  0  0  0  0  0  0
   61.3113   -0.1220   23.6295 O   0  0  0  0  0  0  0  0  0  0  0  0
   60.7115   -0.9318   24.4656 C   0  0  0  0  0  0  0  0  0  0  0  0
   61.4019   -0.8912   25.6735 C   0  0  0  0  0  0  0  0  0  0  0  0
   60.9901   -1.6471   26.7342 C   0  0  0  0  0  0  0  0  0  0  0  0
   59.8847   -2.4515   26.6004 C   0  0  0  0  0  0  0  0  0  0  0  0
   59.2050   -2.4838   25.3929 C   0  0  0  0  0  0  0  0  0  0  0  0
   59.6024   -1.7309   24.3122 C   0  0  0  0  0  0  0  0  0  0  0  0
   58.8675   -1.7907   23.0671 C   0  0  0  0  0  0  0  0  0  0  0  0
   58.4862   -0.6433   22.3750 C   0  0  0  0  0  0  0  0  0  0  0  0
   58.5155   -3.0055   22.5171 C   0  0  0  0  0  0  0  0  0  0  0  0
   57.8139   -3.1292   21.3311 C   0  0  0  0  0  0  0  0  0  0  0  0
   57.4572   -1.9506   20.6795 C   0  0  0  0  0  0  0  0  0  0  0  0
   57.7861   -0.7146   21.1895 C   0  0  0  0  0  0  0  0  0  0  0  0
   57.3738    0.4913   20.4392 C   0  0  0  0  0  0  0  0  0  0  0  0
   58.2314    0.7719   19.2510 C   0  0  1  0  0  0  0  0  0  0  0  0
   57.3727    0.1601   17.7624 P   0  0  2  0  0  5  0  0  0  0  0  0
   57.3978   -1.5180   17.6812 O   0  0  0  0  0  0  0  0  0  0  0  0
   58.0191    0.7770   16.5217 O   0  0  0  0  0  0  0  0  0  0  0  0
   55.7766    0.7291   17.8032 O   0  0  0  0  0  0  0  0  0  0  0  0
   58.4728    2.5613   19.0017 P   0  0  1  0  0  5  0  0  0  0  0  0
   59.3676    2.8253   17.8182 O   0  0  0  0  0  0  0  0  0  0  0  0
   56.9850    3.3463   18.8797 O   0  0  0  0  0  0  0  0  0  0  0  0
   59.2656    3.2345   20.3558 O   0  0  0  0  0  0  0  0  0  0  0  0
   59.4650    0.1319   19.3354 O   0  0  0  0  0  0  0  0  0  0  0  0
  1  2  2  0
  1  6  1  0
  1  9  1  0
  2  3  1  0
  3  4  2  0
  4  5  1  0
  5  6  2  0
  6  7  1  0
  7  8  1  0
  8  9  2  0
  8 13  1  0
  9 10  1  0
 10 11  2  0
 11 12  1  0
 12 13  2  0
 13 14  1  0
 14 15  2  0
 14 16  1  0
 15 19  1  0
 16 17  2  0
 17 18  1  0
 18 19  2  0
 20 19  1  1
 20 21  1  0
 21 22  1  0
 21 26  1  0
 21 30  1  1
 22 23  1  6
 22 24  2  0
 22 25  1  0
 26 27  2  0
 26 28  1  6
 26 29  1  0
M  END
$$$$
