
     RDKit          3D

 30 33  0  0  0  0  0  0  0  0999 V2000
   63.7966   -3.7652   25.9812 C   0  0  0  0  0  0  0  0  0  0  0  0
   64.6645   -4.6066   26.6425 C   0  0  0  0  0  0  0  0  0  0  0  0
   65.0404   -4.3991   27.9626 C   0  0  0  0  0  0  0  0  0  0  0  0
   64.5098   -3.2970   28.6201 C   0  0  0  0  0  0  0  0  0  0  0  0
   63.6418   -2.4609   27.9487 C   0  0  0  0  0  0  0  0  0  0  0  0
   63.2659   -2.6653   26.6346 C   0  0  0  0  0  0  0  0  0  0  0  0
   62.4824   -2.0465   25.7828 O   0  0  0  0  0  0  0  0  0  0  0  0
   62.4697   -2.6707   24.6234 C   0  0  0  0  0  0  0  0  0  0  0  0
   63.2981   -3.7888   24.6855 C   0  0  0  0  0  0  0  0  0  0  0  0
   63.4541   -4.6125   23.5894 C   0  0  0  0  0  0  0  0  0  0  0  0
   62.7652   -4.3003   22.4217 C   0  0  0  0  0  0  0  0  0  0  0  0
   61.9446   -3.1794   22.3841 C   0  0  0  0  0  0  0  0  0  0  0  0
   61.7799   -2.3478   23.4725 C   0  0  0  0  0  0  0  0  0  0  0  0
   60.9223   -1.1662   23.4517 C   0  0  0  0  0  0  0  0  0  0  0  0
   59.9167   -1.0447   22.5167 C   0  0  0  0  0  0  0  0  0  0  0  0
   61.0706   -0.1281   24.3502 C   0  0  0  0  0  0  0  0  0  0  0  0
   60.2451    0.9909   24.3170 C   0  0  0  0  0  0  0  0  0  0  0  0
   59.2442    1.0944   23.3738 C   0  0  0  0  0  0  0  0  0  0  0  0
   59.0747    0.0717   22.4647 C   0  0  0  0  0  0  0  0  0  0  0  0
   58.0007    0.1732   21.4504 C   0  0  0  0  0  0  0  0  0  0  0  0
   58.5168    0.6874   20.1259 C   0  0  1  0  0  0  0  0  0  0  0  0
   57.4069    0.2650   18.7671 P   0  0  2  0  0  5  0  0  0  0  0  0
   57.2947   -1.3966   18.5183 O   0  0  0  0  0  0  0  0  0  0  0  0
   57.9051    0.8752   17.4551 O   0  0  0  0  0  0  0  0  0  0  0  0
   55.8462    0.8827   19.0060 O   0  0  0  0  0  0  0  0  0  0  0  0
   58.6946    2.4904   20.1341 P   0  0  1  0  0  5  0  0  0  0  0  0
   57.3458    3.0927   20.5414 O   0  0  0  0  0  0  0  0  0  0  0  0
   59.8067    3.0014   21.2819 O   0  0  0  0  0  0  0  0  0  0  0  0
   59.0285    3.1057   18.5957 O   0  0  0  0  0  0  0  0  0  0  0  0
   59.7452    0.0818   19.9003 O   0  0  0  0  0  0  0  0  0  0  0  0
  1  2  2  0
  1  6  1  0
  1  9  1  0
  2  3  1  0
  3  4  2  0
  4  5  1  0
  5  6  2  0
  6  7  1  0
  7  8  1  0
  8  9  2  0
  8 13  1  0
  9 10  1  0
 10 11  2  0
 11 12  1  0
 12 13  2  0
 13 14  1  0
 14 15  2  0
 14 16  1  0
 15 19  1  0
 16 17  2  0
 17 18  1  0
 18 19  2  0
 19 20  1  0
 20 21  1  0
 21 22  1  0
 21 26  1  0
 21 30  1  6
 22 23  1  6
 22 24  2  0
 22 25  1  0
 26 27  2  0
 26 28  1  1
 26 29  1  0
M  END
$$$$
