
     RDKit          3D

 30 33  0  0  0  0  0  0  0  0999 V2000
   63.3032   -4.2498   25.1075 C   0  0  0  0  0  0  0  0  0  0  0  0
   64.1139   -5.2746   25.5666 C   0  0  0  0  0  0  0  0  0  0  0  0
   64.8530   -5.0844   26.7383 C   0  0  0  0  0  0  0  0  0  0  0  0
   64.7881   -3.9010   27.4395 C   0  0  0  0  0  0  0  0  0  0  0  0
   63.9775   -2.8921   26.9699 C   0  0  0  0  0  0  0  0  0  0  0  0
   63.2281   -3.0624   25.7969 C   0  0  0  0  0  0  0  0  0  0  0  0
   62.4001   -2.2804   25.1507 O   0  0  0  0  0  0  0  0  0  0  0  0
   61.9244   -2.8707   24.0831 C   0  0  0  0  0  0  0  0  0  0  0  0
   62.4793   -4.1453   24.0133 C   0  0  0  0  0  0  0  0  0  0  0  0
   62.1543   -4.9888   22.9891 C   0  0  0  0  0  0  0  0  0  0  0  0
   61.2720   -4.5688   22.0237 C   0  0  0  0  0  0  0  0  0  0  0  0
   60.7257   -3.2975   22.1034 C   0  0  0  0  0  0  0  0  0  0  0  0
   61.0391   -2.4321   23.1260 C   0  0  0  0  0  0  0  0  0  0  0  0
   60.4486   -1.1120   23.1760 C   0  0  0  0  0  0  0  0  0  0  0  0
   60.2818   -0.3303   22.0349 C   0  0  0  0  0  0  0  0  0  0  0  0
   60.0252   -0.5770   24.3746 C   0  0  0  0  0  0  0  0  0  0  0  0
   59.4536    0.6777   24.4882 C   0  0  0  0  0  0  0  0  0  0  0  0
   59.3101    1.4176   23.3165 C   0  0  0  0  0  0  0  0  0  0  0  0
   59.7177    0.9260   22.0966 C   0  0  0  0  0  0  0  0  0  0  0  0
   59.5305    1.7704   20.8970 C   0  0  0  0  0  0  0  0  0  0  0  0
   58.1451    1.7179   20.3457 C   0  0  1  0  0  0  0  0  0  0  0  0
   57.9631    3.0518   19.1149 P   0  0  2  0  0  5  0  0  0  0  0  0
   56.5262    2.9072   18.2559 O   0  0  0  0  0  0  0  0  0  0  0  0
   59.1673    3.0326   18.1729 O   0  0  0  0  0  0  0  0  0  0  0  0
   58.0194    4.5353   19.9329 O   0  0  0  0  0  0  0  0  0  0  0  0
   57.8322    0.1574   19.4570 P   0  0  1  0  0  5  0  0  0  0  0  0
   56.6247    0.2782   18.5635 O   0  0  0  0  0  0  0  0  0  0  0  0
   59.2127   -0.3332   18.6215 O   0  0  0  0  0  0  0  0  0  0  0  0
   57.4747   -1.0846   20.5728 O   0  0  0  0  0  0  0  0  0  0  0  0
   57.1829    1.9041   21.3346 O   0  0  0  0  0  0  0  0  0  0  0  0
  1  2  2  0
  1  6  1  0
  1  9  1  0
  2  3  1  0
  3  4  2  0
  4  5  1  0
  5  6  2  0
  6  7  1  0
  7  8  1  0
  8  9  2  0
  8 13  1  0
  9 10  1  0
 10 11  2  0
 11 12  1  0
 12 13  2  0
 13 14  1  0
 14 15  2  0
 14 16  1  0
 15 19  1  0
 16 17  2  0
 17 18  1  0
 18 19  2  0
 20 19  1  1
 20 21  1  0
 21 22  1  0
 21 26  1  0
 21 30  1  1
 22 23  1  6
 22 24  2  0
 22 25  1  0
 26 27  2  0
 26 28  1  6
 26 29  1  0
M  END
$$$$
