
     RDKit          3D

 30 33  0  0  0  0  0  0  0  0999 V2000
   63.4434   -3.6112   26.7769 C   0  0  0  0  0  0  0  0  0  0  0  0
   64.1552   -4.4142   27.6411 C   0  0  0  0  0  0  0  0  0  0  0  0
   64.6893   -3.9370   28.8302 C   0  0  0  0  0  0  0  0  0  0  0  0
   64.4861   -2.5984   29.1389 C   0  0  0  0  0  0  0  0  0  0  0  0
   63.7720   -1.8030   28.2666 C   0  0  0  0  0  0  0  0  0  0  0  0
   63.2392   -2.2757   27.0822 C   0  0  0  0  0  0  0  0  0  0  0  0
   62.5409   -1.7539   26.1011 O   0  0  0  0  0  0  0  0  0  0  0  0
   62.2795   -2.6602   25.1822 C   0  0  0  0  0  0  0  0  0  0  0  0
   62.8346   -3.8811   25.5586 C   0  0  0  0  0  0  0  0  0  0  0  0
   62.6972   -4.9953   24.7563 C   0  0  0  0  0  0  0  0  0  0  0  0
   61.9918   -4.8710   23.5635 C   0  0  0  0  0  0  0  0  0  0  0  0
   61.4471   -3.6424   23.2095 C   0  0  0  0  0  0  0  0  0  0  0  0
   61.5771   -2.5209   24.0024 C   0  0  0  0  0  0  0  0  0  0  0  0
   61.0119   -1.2223   23.6470 C   0  0  0  0  0  0  0  0  0  0  0  0
   60.6559   -0.9440   22.3448 C   0  0  0  0  0  0  0  0  0  0  0  0
   60.8082   -0.2237   24.5789 C   0  0  0  0  0  0  0  0  0  0  0  0
   60.2687    1.0082   24.2240 C   0  0  0  0  0  0  0  0  0  0  0  0
   59.9185    1.2681   22.9155 C   0  0  0  0  0  0  0  0  0  0  0  0
   60.1116    0.2880   21.9652 C   0  0  0  0  0  0  0  0  0  0  0  0
   59.7359    0.5574   20.5585 C   0  0  0  0  0  0  0  0  0  0  0  0
   58.2543    0.8156   20.4056 C   0  0  1  0  0  0  0  0  0  0  0  0
   57.9038    2.5685   20.1583 P   0  0  2  0  0  5  0  0  0  0  0  0
   58.0983    3.0456   18.5553 O   0  0  0  0  0  0  0  0  0  0  0  0
   58.8528    3.4306   20.9938 O   0  0  0  0  0  0  0  0  0  0  0  0
   56.3371    2.9799   20.6588 O   0  0  0  0  0  0  0  0  0  0  0  0
   57.5651   -0.0758   18.9868 P   0  0  1  0  0  5  0  0  0  0  0  0
   56.0740    0.2656   18.8979 O   0  0  0  0  0  0  0  0  0  0  0  0
   58.2526    0.4274   17.5413 O   0  0  0  0  0  0  0  0  0  0  0  0
   57.6429   -1.7522   19.1875 O   0  0  0  0  0  0  0  0  0  0  0  0
   57.6416    0.4017   21.5802 O   0  0  0  0  0  0  0  0  0  0  0  0
  1  2  2  0
  1  6  1  0
  1  9  1  0
  2  3  1  0
  3  4  2  0
  4  5  1  0
  5  6  2  0
  6  7  1  0
  7  8  1  0
  8  9  2  0
  8 13  1  0
  9 10  1  0
 10 11  2  0
 11 12  1  0
 12 13  2  0
 13 14  1  0
 14 15  2  0
 14 16  1  0
 15 19  1  0
 16 17  2  0
 17 18  1  0
 18 19  2  0
 19 20  1  0
 20 21  1  0
 21 22  1  0
 21 26  1  0
 21 30  1  1
 22 23  1  6
 22 24  2  0
 22 25  1  0
 26 27  2  0
 26 28  1  6
 26 29  1  0
M  END
$$$$
