
     RDKit          3D

 30 33  0  0  0  0  0  0  0  0999 V2000
   63.0344   -2.6123   27.0100 C   0  0  0  0  0  0  0  0  0  0  0  0
   63.7664   -2.9444   28.1381 C   0  0  0  0  0  0  0  0  0  0  0  0
   64.5688   -4.0894   28.1156 C   0  0  0  0  0  0  0  0  0  0  0  0
   64.6427   -4.8879   26.9962 C   0  0  0  0  0  0  0  0  0  0  0  0
   63.9091   -4.5441   25.8831 C   0  0  0  0  0  0  0  0  0  0  0  0
   63.0981   -3.3999   25.8848 C   0  0  0  0  0  0  0  0  0  0  0  0
   62.3188   -2.8626   24.9801 O   0  0  0  0  0  0  0  0  0  0  0  0
   61.7460   -1.7751   25.4316 C   0  0  0  0  0  0  0  0  0  0  0  0
   62.1780   -1.5730   26.7393 C   0  0  0  0  0  0  0  0  0  0  0  0
   61.7338   -0.5004   27.4592 C   0  0  0  0  0  0  0  0  0  0  0  0
   60.8536    0.3818   26.8814 C   0  0  0  0  0  0  0  0  0  0  0  0
   60.4303    0.1705   25.5786 C   0  0  0  0  0  0  0  0  0  0  0  0
   60.8650   -0.9028   24.8358 C   0  0  0  0  0  0  0  0  0  0  0  0
   60.4010   -1.0907   23.4782 C   0  0  0  0  0  0  0  0  0  0  0  0
   60.1548   -0.0185   22.6233 C   0  0  0  0  0  0  0  0  0  0  0  0
   60.1842   -2.3580   22.9791 C   0  0  0  0  0  0  0  0  0  0  0  0
   59.7416   -2.6035   21.6916 C   0  0  0  0  0  0  0  0  0  0  0  0
   59.5108   -1.4960   20.8785 C   0  0  0  0  0  0  0  0  0  0  0  0
   59.7128   -0.2116   21.3319 C   0  0  0  0  0  0  0  0  0  0  0  0
   59.4474    0.9129   20.4088 C   0  0  0  0  0  0  0  0  0  0  0  0
   58.0036    1.2785   20.3200 C   0  0  1  0  0  0  0  0  0  0  0  0
   57.8774    2.9724   19.6548 P   0  0  2  0  0  5  0  0  0  0  0  0
   56.2765    3.4262   19.4217 O   0  0  0  0  0  0  0  0  0  0  0  0
   58.6656    3.0576   18.3475 O   0  0  0  0  0  0  0  0  0  0  0  0
   58.6407    4.0243   20.7429 O   0  0  0  0  0  0  0  0  0  0  0  0
   57.1069    0.2037   19.1525 P   0  0  1  0  0  5  0  0  0  0  0  0
   57.8064    0.1539   17.8187 O   0  0  0  0  0  0  0  0  0  0  0  0
   56.8715   -1.3269   19.8206 O   0  0  0  0  0  0  0  0  0  0  0  0
   55.5532    0.8439   18.8500 O   0  0  0  0  0  0  0  0  0  0  0  0
   57.3816    1.2527   21.5653 O   0  0  0  0  0  0  0  0  0  0  0  0
  1  2  2  0
  1  6  1  0
  1  9  1  0
  2  3  1  0
  3  4  2  0
  4  5  1  0
  5  6  2  0
  6  7  1  0
  7  8  1  0
  8  9  2  0
  8 13  1  0
  9 10  1  0
 10 11  2  0
 11 12  1  0
 12 13  2  0
 13 14  1  0
 14 15  2  0
 14 16  1  0
 15 19  1  0
 16 17  2  0
 17 18  1  0
 18 19  2  0
 20 19  1  1
 20 21  1  0
 21 22  1  0
 21 26  1  0
 21 30  1  1
 22 23  1  6
 22 24  2  0
 22 25  1  0
 26 27  2  0
 26 28  1  1
 26 29  1  0
M  END
$$$$
