
     RDKit          3D

 30 33  0  0  0  0  0  0  0  0999 V2000
   62.1421   -5.1891   20.4762 C   0  0  0  0  0  0  0  0  0  0  0  0
   62.5843   -6.3709   19.9049 C   0  0  0  0  0  0  0  0  0  0  0  0
   62.1339   -6.7193   18.6278 C   0  0  0  0  0  0  0  0  0  0  0  0
   61.2624   -5.9109   17.9326 C   0  0  0  0  0  0  0  0  0  0  0  0
   60.8323   -4.7396   18.5143 C   0  0  0  0  0  0  0  0  0  0  0  0
   61.2719   -4.3717   19.7942 C   0  0  0  0  0  0  0  0  0  0  0  0
   61.0212   -3.3363   20.5556 O   0  0  0  0  0  0  0  0  0  0  0  0
   61.6662   -3.4152   21.6924 C   0  0  0  0  0  0  0  0  0  0  0  0
   62.4039   -4.5955   21.6870 C   0  0  0  0  0  0  0  0  0  0  0  0
   63.1788   -4.9348   22.7596 C   0  0  0  0  0  0  0  0  0  0  0  0
   63.2254   -4.0995   23.8491 C   0  0  0  0  0  0  0  0  0  0  0  0
   62.4866   -2.9268   23.8433 C   0  0  0  0  0  0  0  0  0  0  0  0
   61.6999   -2.5660   22.7739 C   0  0  0  0  0  0  0  0  0  0  0  0
   60.9424   -1.3334   22.8040 C   0  0  0  0  0  0  0  0  0  0  0  0
   59.9023   -1.0799   21.9124 C   0  0  0  0  0  0  0  0  0  0  0  0
   61.2307   -0.3544   23.7317 C   0  0  0  0  0  0  0  0  0  0  0  0
   60.5441    0.8440   23.8118 C   0  0  0  0  0  0  0  0  0  0  0  0
   59.5134    1.0466   22.8966 C   0  0  0  0  0  0  0  0  0  0  0  0
   59.1886    0.0988   21.9520 C   0  0  0  0  0  0  0  0  0  0  0  0
   58.0805    0.3860   21.0157 C   0  0  0  0  0  0  0  0  0  0  0  0
   58.5387    0.9327   19.7053 C   0  0  1  0  0  0  0  0  0  0  0  0
   57.3681    0.3935   18.4143 P   0  0  2  0  0  5  0  0  0  0  0  0
   55.8026    0.9044   18.7483 O   0  0  0  0  0  0  0  0  0  0  0  0
   57.4303   -1.1287   18.2852 O   0  0  0  0  0  0  0  0  0  0  0  0
   57.8940    1.0213   16.9302 O   0  0  0  0  0  0  0  0  0  0  0  0
   58.5121    2.7552   19.6892 P   0  0  1  0  0  5  0  0  0  0  0  0
   59.4573    3.3177   20.7193 O   0  0  0  0  0  0  0  0  0  0  0  0
   58.8219    3.3365   18.1365 O   0  0  0  0  0  0  0  0  0  0  0  0
   56.9570    3.3170   20.1149 O   0  0  0  0  0  0  0  0  0  0  0  0
   59.8069    0.4716   19.3626 O   0  0  0  0  0  0  0  0  0  0  0  0
  1  2  2  0
  1  6  1  0
  1  9  1  0
  2  3  1  0
  3  4  2  0
  4  5  1  0
  5  6  2  0
  6  7  1  0
  7  8  1  0
  8  9  2  0
  8 13  1  0
  9 10  1  0
 10 11  2  0
 11 12  1  0
 12 13  2  0
 13 14  1  0
 14 15  2  0
 14 16  1  0
 15 19  1  0
 16 17  2  0
 17 18  1  0
 18 19  2  0
 20 19  1  1
 20 21  1  0
 21 22  1  0
 21 26  1  0
 21 30  1  6
 22 23  1  1
 22 24  2  0
 22 25  1  0
 26 27  2  0
 26 28  1  6
 26 29  1  0
M  END
$$$$
