
     RDKit          3D

 30 33  0  0  0  0  0  0  0  0999 V2000
   63.7134   -3.8519   25.9589 C   0  0  0  0  0  0  0  0  0  0  0  0
   64.6809   -4.6162   26.5740 C   0  0  0  0  0  0  0  0  0  0  0  0
   65.3649   -4.1833   27.7017 C   0  0  0  0  0  0  0  0  0  0  0  0
   65.0456   -2.9313   28.2105 C   0  0  0  0  0  0  0  0  0  0  0  0
   64.0754   -2.1741   27.5871 C   0  0  0  0  0  0  0  0  0  0  0  0
   63.3930   -2.6027   26.4643 C   0  0  0  0  0  0  0  0  0  0  0  0
   62.4542   -2.1008   25.6967 O   0  0  0  0  0  0  0  0  0  0  0  0
   62.1454   -2.9395   24.7296 C   0  0  0  0  0  0  0  0  0  0  0  0
   62.9230   -4.0897   24.8425 C   0  0  0  0  0  0  0  0  0  0  0  0
   62.7855   -5.1250   23.9406 C   0  0  0  0  0  0  0  0  0  0  0  0
   61.8528   -4.9934   22.9167 C   0  0  0  0  0  0  0  0  0  0  0  0
   61.0886   -3.8362   22.8248 C   0  0  0  0  0  0  0  0  0  0  0  0
   61.2161   -2.7940   23.7197 C   0  0  0  0  0  0  0  0  0  0  0  0
   60.4223   -1.5712   23.6390 C   0  0  0  0  0  0  0  0  0  0  0  0
   59.6079   -1.3329   22.5527 C   0  0  0  0  0  0  0  0  0  0  0  0
   60.4450   -0.6073   24.6278 C   0  0  0  0  0  0  0  0  0  0  0  0
   59.6826    0.5524   24.5358 C   0  0  0  0  0  0  0  0  0  0  0  0
   58.8736    0.7730   23.4408 C   0  0  0  0  0  0  0  0  0  0  0  0
   58.8325   -0.1736   22.4392 C   0  0  0  0  0  0  0  0  0  0  0  0
   57.9645    0.0537   21.2613 C   0  0  0  0  0  0  0  0  0  0  0  0
   58.7396    0.5893   20.0792 C   0  0  1  0  0  0  0  0  0  0  0  0
   57.9262    0.2009   18.5158 P   0  0  2  0  0  5  0  0  0  0  0  0
   57.7824   -1.4568   18.2576 O   0  0  0  0  0  0  0  0  0  0  0  0
   58.7257    0.7633   17.3384 O   0  0  0  0  0  0  0  0  0  0  0  0
   56.3855    0.9004   18.4102 O   0  0  0  0  0  0  0  0  0  0  0  0
   58.9180    2.3905   20.1594 P   0  0  1  0  0  5  0  0  0  0  0  0
   57.5156    2.9955   20.2830 O   0  0  0  0  0  0  0  0  0  0  0  0
   59.7632    2.8723   21.5265 O   0  0  0  0  0  0  0  0  0  0  0  0
   59.5727    3.0307   18.7388 O   0  0  0  0  0  0  0  0  0  0  0  0
   59.9862   -0.0208   20.0945 O   0  0  0  0  0  0  0  0  0  0  0  0
  1  2  2  0
  1  6  1  0
  1  9  1  0
  2  3  1  0
  3  4  2  0
  4  5  1  0
  5  6  2  0
  6  7  1  0
  7  8  1  0
  8  9  2  0
  8 13  1  0
  9 10  1  0
 10 11  2  0
 11 12  1  0
 12 13  2  0
 13 14  1  0
 14 15  2  0
 14 16  1  0
 15 19  1  0
 16 17  2  0
 17 18  1  0
 18 19  2  0
 19 20  1  0
 20 21  1  0
 21 22  1  0
 21 26  1  0
 21 30  1  6
 22 23  1  6
 22 24  2  0
 22 25  1  0
 26 27  2  0
 26 28  1  1
 26 29  1  0
M  END
$$$$
