
     RDKit          3D

 30 33  0  0  0  0  0  0  0  0999 V2000
   62.8326   -3.3362   26.1145 C   0  0  0  0  0  0  0  0  0  0  0  0
   63.5962   -3.7978   27.1739 C   0  0  0  0  0  0  0  0  0  0  0  0
   64.8169   -4.4264   26.9094 C   0  0  0  0  0  0  0  0  0  0  0  0
   65.2698   -4.5932   25.6197 C   0  0  0  0  0  0  0  0  0  0  0  0
   64.4990   -4.1288   24.5778 C   0  0  0  0  0  0  0  0  0  0  0  0
   63.2717   -3.4955   24.8213 C   0  0  0  0  0  0  0  0  0  0  0  0
   62.3683   -2.9751   24.0289 O   0  0  0  0  0  0  0  0  0  0  0  0
   61.3643   -2.4840   24.7109 C   0  0  0  0  0  0  0  0  0  0  0  0
   61.6194   -2.6939   26.0630 C   0  0  0  0  0  0  0  0  0  0  0  0
   60.7282   -2.2770   27.0106 C   0  0  0  0  0  0  0  0  0  0  0  0
   59.5727   -1.6461   26.6185 C   0  0  0  0  0  0  0  0  0  0  0  0
   59.3291   -1.4425   25.2693 C   0  0  0  0  0  0  0  0  0  0  0  0
   60.2129   -1.8542   24.2987 C   0  0  0  0  0  0  0  0  0  0  0  0
   59.9245   -1.6241   22.8995 C   0  0  0  0  0  0  0  0  0  0  0  0
   59.8160   -0.3418   22.3655 C   0  0  0  0  0  0  0  0  0  0  0  0
   59.7448   -2.6843   22.0359 C   0  0  0  0  0  0  0  0  0  0  0  0
   59.4671   -2.5304   20.6894 C   0  0  0  0  0  0  0  0  0  0  0  0
   59.3694   -1.2270   20.2070 C   0  0  0  0  0  0  0  0  0  0  0  0
   59.5408   -0.1367   21.0304 C   0  0  0  0  0  0  0  0  0  0  0  0
   59.4234    1.2160   20.4443 C   0  0  0  0  0  0  0  0  0  0  0  0
   58.0159    1.7030   20.3553 C   0  0  1  0  0  0  0  0  0  0  0  0
   58.0279    3.3685   19.6112 P   0  0  2  0  0  5  0  0  0  0  0  0
   58.5442    4.5312   20.7089 O   0  0  0  0  0  0  0  0  0  0  0  0
   56.6285    3.6940   19.0882 O   0  0  0  0  0  0  0  0  0  0  0  0
   59.0482    3.3342   18.2582 O   0  0  0  0  0  0  0  0  0  0  0  0
   57.0099    0.6582   19.2513 P   0  0  1  0  0  5  0  0  0  0  0  0
   55.8591    1.4387   18.6704 O   0  0  0  0  0  0  0  0  0  0  0  0
   57.9778   -0.0517   18.0664 O   0  0  0  0  0  0  0  0  0  0  0  0
   56.3141   -0.6233   20.1395 O   0  0  0  0  0  0  0  0  0  0  0  0
   57.4141    1.7904   21.6077 O   0  0  0  0  0  0  0  0  0  0  0  0
  1  2  2  0
  1  6  1  0
  1  9  1  0
  2  3  1  0
  3  4  2  0
  4  5  1  0
  5  6  2  0
  6  7  1  0
  7  8  1  0
  8  9  2  0
  8 13  1  0
  9 10  1  0
 10 11  2  0
 11 12  1  0
 12 13  2  0
 13 14  1  0
 14 15  2  0
 14 16  1  0
 15 19  1  0
 16 17  2  0
 17 18  1  0
 18 19  2  0
 20 19  1  1
 20 21  1  0
 21 22  1  0
 21 26  1  0
 21 30  1  1
 22 23  1  1
 22 24  2  0
 22 25  1  0
 26 27  2  0
 26 28  1  6
 26 29  1  0
M  END
$$$$
