
     RDKit          3D

 30 33  0  0  0  0  0  0  0  0999 V2000
   62.8581   -3.4955   24.9812 C   0  0  0  0  0  0  0  0  0  0  0  0
   63.7509   -4.5090   25.2533 C   0  0  0  0  0  0  0  0  0  0  0  0
   63.8469   -5.6471   24.4643 C   0  0  0  0  0  0  0  0  0  0  0  0
   63.0024   -5.7457   23.3663 C   0  0  0  0  0  0  0  0  0  0  0  0
   62.1121   -4.7252   23.1029 C   0  0  0  0  0  0  0  0  0  0  0  0
   62.0145   -3.5912   23.8867 C   0  0  0  0  0  0  0  0  0  0  0  0
   61.2801   -2.5038   23.8645 O   0  0  0  0  0  0  0  0  0  0  0  0
   61.5906   -1.7113   24.8693 C   0  0  0  0  0  0  0  0  0  0  0  0
   62.6029   -2.2939   25.6284 C   0  0  0  0  0  0  0  0  0  0  0  0
   63.1051   -1.6544   26.7432 C   0  0  0  0  0  0  0  0  0  0  0  0
   62.5772   -0.4150   27.0912 C   0  0  0  0  0  0  0  0  0  0  0  0
   61.5676    0.1459   26.3182 C   0  0  0  0  0  0  0  0  0  0  0  0
   61.0567   -0.4827   25.2015 C   0  0  0  0  0  0  0  0  0  0  0  0
   59.9965    0.0909   24.3776 C   0  0  0  0  0  0  0  0  0  0  0  0
   59.8496   -0.2859   23.0598 C   0  0  0  0  0  0  0  0  0  0  0  0
   59.1022    1.0232   24.8656 C   0  0  0  0  0  0  0  0  0  0  0  0
   58.0976    1.5602   24.0674 C   0  0  0  0  0  0  0  0  0  0  0  0
   57.9665    1.1706   22.7508 C   0  0  0  0  0  0  0  0  0  0  0  0
   58.8465    0.2411   22.2385 C   0  0  0  0  0  0  0  0  0  0  0  0
   58.7114   -0.1850   20.8269 C   0  0  0  0  0  0  0  0  0  0  0  0
   59.2140    0.8674   19.8652 C   0  0  1  0  0  0  0  0  0  0  0  0
   58.2274    0.9178   18.3549 P   0  0  2  0  0  5  0  0  0  0  0  0
   58.8493    1.9881   17.2134 O   0  0  0  0  0  0  0  0  0  0  0  0
   56.7998    1.3774   18.6592 O   0  0  0  0  0  0  0  0  0  0  0  0
   58.0824   -0.6123   17.6393 O   0  0  0  0  0  0  0  0  0  0  0  0
   59.1581    2.5228   20.5993 P   0  0  1  0  0  5  0  0  0  0  0  0
   57.6898    2.8647   20.8738 O   0  0  0  0  0  0  0  0  0  0  0  0
   59.9407    2.5731   22.0826 O   0  0  0  0  0  0  0  0  0  0  0  0
   59.7171    3.7116   19.5359 O   0  0  0  0  0  0  0  0  0  0  0  0
   60.5186    0.5304   19.5321 O   0  0  0  0  0  0  0  0  0  0  0  0
  1  2  2  0
  1  6  1  0
  1  9  1  0
  2  3  1  0
  3  4  2  0
  4  5  1  0
  5  6  2  0
  6  7  1  0
  7  8  1  0
  8  9  2  0
  8 13  1  0
  9 10  1  0
 10 11  2  0
 11 12  1  0
 12 13  2  0
 13 14  1  0
 14 15  2  0
 14 16  1  0
 15 19  1  0
 16 17  2  0
 17 18  1  0
 18 19  2  0
 19 20  1  0
 20 21  1  0
 21 22  1  0
 21 26  1  0
 21 30  1  6
 22 23  1  6
 22 24  2  0
 22 25  1  0
 26 27  2  0
 26 28  1  1
 26 29  1  0
M  END
$$$$
