
     RDKit          3D

 30 33  0  0  0  0  0  0  0  0999 V2000
   63.3016   -2.6697   26.6212 C   0  0  0  0  0  0  0  0  0  0  0  0
   64.1628   -2.9258   27.6753 C   0  0  0  0  0  0  0  0  0  0  0  0
   64.7376   -4.1952   27.7911 C   0  0  0  0  0  0  0  0  0  0  0  0
   64.4628   -5.1896   26.8789 C   0  0  0  0  0  0  0  0  0  0  0  0
   63.6047   -4.9190   25.8369 C   0  0  0  0  0  0  0  0  0  0  0  0
   63.0176   -3.6526   25.7025 C   0  0  0  0  0  0  0  0  0  0  0  0
   62.1876   -3.1472   24.8249 O   0  0  0  0  0  0  0  0  0  0  0  0
   61.9050   -1.8990   25.1020 C   0  0  0  0  0  0  0  0  0  0  0  0
   62.6016   -1.5462   26.2542 C   0  0  0  0  0  0  0  0  0  0  0  0
   62.4909   -0.2879   26.7745 C   0  0  0  0  0  0  0  0  0  0  0  0
   61.6836    0.6315   26.1499 C   0  0  0  0  0  0  0  0  0  0  0  0
   60.9948    0.2689   25.0032 C   0  0  0  0  0  0  0  0  0  0  0  0
   61.0918   -0.9924   24.4625 C   0  0  0  0  0  0  0  0  0  0  0  0
   60.3574   -1.3345   23.2636 C   0  0  0  0  0  0  0  0  0  0  0  0
   59.4597   -0.4521   22.6664 C   0  0  0  0  0  0  0  0  0  0  0  0
   60.5254   -2.5652   22.6641 C   0  0  0  0  0  0  0  0  0  0  0  0
   59.8535   -2.9517   21.5182 C   0  0  0  0  0  0  0  0  0  0  0  0
   58.9677   -2.0315   20.9618 C   0  0  0  0  0  0  0  0  0  0  0  0
   58.7664   -0.7908   21.5240 C   0  0  0  0  0  0  0  0  0  0  0  0
   57.8108    0.1321   20.8743 C   0  0  0  0  0  0  0  0  0  0  0  0
   58.3312    0.7307   19.6105 C   0  0  1  0  0  0  0  0  0  0  0  0
   57.3908    0.0331   18.2118 P   0  0  2  0  0  5  0  0  0  0  0  0
   56.5396   -1.3428   18.6654 O   0  0  0  0  0  0  0  0  0  0  0  0
   58.3530   -0.2732   17.0638 O   0  0  0  0  0  0  0  0  0  0  0  0
   56.3307    1.2266   17.6418 O   0  0  0  0  0  0  0  0  0  0  0  0
   58.0625    2.5328   19.5579 P   0  0  1  0  0  5  0  0  0  0  0  0
   56.6007    2.8555   19.3844 O   0  0  0  0  0  0  0  0  0  0  0  0
   58.7338    3.2698   20.9184 O   0  0  0  0  0  0  0  0  0  0  0  0
   58.8599    3.1994   18.2033 O   0  0  0  0  0  0  0  0  0  0  0  0
   59.6795    0.4441   19.4143 O   0  0  0  0  0  0  0  0  0  0  0  0
  1  2  2  0
  1  6  1  0
  1  9  1  0
  2  3  1  0
  3  4  2  0
  4  5  1  0
  5  6  2  0
  6  7  1  0
  7  8  1  0
  8  9  2  0
  8 13  1  0
  9 10  1  0
 10 11  2  0
 11 12  1  0
 12 13  2  0
 13 14  1  0
 14 15  2  0
 14 16  1  0
 15 19  1  0
 16 17  2  0
 17 18  1  0
 18 19  2  0
 20 19  1  1
 20 21  1  0
 21 22  1  0
 21 26  1  0
 21 30  1  6
 22 23  1  1
 22 24  2  0
 22 25  1  0
 26 27  2  0
 26 28  1  1
 26 29  1  0
M  END
$$$$
