
     RDKit          3D

 30 33  0  0  0  0  0  0  0  0999 V2000
   62.5247   -5.1142   21.2539 C   0  0  0  0  0  0  0  0  0  0  0  0
   63.1184   -6.2674   20.7679 C   0  0  0  0  0  0  0  0  0  0  0  0
   62.8138   -6.6950   19.4718 C   0  0  0  0  0  0  0  0  0  0  0  0
   61.9380   -5.9919   18.6750 C   0  0  0  0  0  0  0  0  0  0  0  0
   61.3563   -4.8476   19.1729 C   0  0  0  0  0  0  0  0  0  0  0  0
   61.6482   -4.4016   20.4700 C   0  0  0  0  0  0  0  0  0  0  0  0
   61.2409   -3.3706   21.1671 O   0  0  0  0  0  0  0  0  0  0  0  0
   61.7888   -3.3548   22.3563 C   0  0  0  0  0  0  0  0  0  0  0  0
   62.6261   -4.4620   22.4586 C   0  0  0  0  0  0  0  0  0  0  0  0
   63.3315   -4.6954   23.6049 C   0  0  0  0  0  0  0  0  0  0  0  0
   63.2085   -3.8261   24.6613 C   0  0  0  0  0  0  0  0  0  0  0  0
   62.3717   -2.7270   24.5482 C   0  0  0  0  0  0  0  0  0  0  0  0
   61.6524   -2.4731   23.4032 C   0  0  0  0  0  0  0  0  0  0  0  0
   60.7886   -1.3150   23.3219 C   0  0  0  0  0  0  0  0  0  0  0  0
   60.6732   -0.5558   22.1594 C   0  0  0  0  0  0  0  0  0  0  0  0
   60.0398   -0.9195   24.4106 C   0  0  0  0  0  0  0  0  0  0  0  0
   59.1964    0.1770   24.3962 C   0  0  0  0  0  0  0  0  0  0  0  0
   59.1182    0.9013   23.2087 C   0  0  0  0  0  0  0  0  0  0  0  0
   59.8463    0.5454   22.0955 C   0  0  0  0  0  0  0  0  0  0  0  0
   59.7088    1.3629   20.8709 C   0  0  0  0  0  0  0  0  0  0  0  0
   58.3062    1.4466   20.3688 C   0  0  1  0  0  0  0  0  0  0  0  0
   58.1995    2.8291   19.1834 P   0  0  2  0  0  5  0  0  0  0  0  0
   56.6039    3.1975   18.8071 O   0  0  0  0  0  0  0  0  0  0  0  0
   58.9895    2.4718   17.9241 O   0  0  0  0  0  0  0  0  0  0  0  0
   58.9737    4.1722   19.8687 O   0  0  0  0  0  0  0  0  0  0  0  0
   57.8293   -0.0527   19.4484 P   0  0  1  0  0  5  0  0  0  0  0  0
   56.3918    0.0222   19.0027 O   0  0  0  0  0  0  0  0  0  0  0  0
   58.8936   -0.3231   18.1682 O   0  0  0  0  0  0  0  0  0  0  0  0
   57.9401   -1.4188   20.4667 O   0  0  0  0  0  0  0  0  0  0  0  0
   57.3977    1.6838   21.3967 O   0  0  0  0  0  0  0  0  0  0  0  0
  1  2  2  0
  1  6  1  0
  1  9  1  0
  2  3  1  0
  3  4  2  0
  4  5  1  0
  5  6  2  0
  6  7  1  0
  7  8  1  0
  8  9  2  0
  8 13  1  0
  9 10  1  0
 10 11  2  0
 11 12  1  0
 12 13  2  0
 13 14  1  0
 14 15  2  0
 14 16  1  0
 15 19  1  0
 16 17  2  0
 17 18  1  0
 18 19  2  0
 20 19  1  1
 20 21  1  0
 21 22  1  0
 21 26  1  0
 21 30  1  1
 22 23  1  6
 22 24  2  0
 22 25  1  0
 26 27  2  0
 26 28  1  6
 26 29  1  0
M  END
$$$$
