
     RDKit          3D

 30 33  0  0  0  0  0  0  0  0999 V2000
   63.5298   -4.3163   25.0830 C   0  0  0  0  0  0  0  0  0  0  0  0
   64.5837   -5.1108   25.5033 C   0  0  0  0  0  0  0  0  0  0  0  0
   65.5173   -4.5834   26.4007 C   0  0  0  0  0  0  0  0  0  0  0  0
   65.4067   -3.2939   26.8710 C   0  0  0  0  0  0  0  0  0  0  0  0
   64.3534   -2.5171   26.4436 C   0  0  0  0  0  0  0  0  0  0  0  0
   63.4061   -3.0268   25.5439 C   0  0  0  0  0  0  0  0  0  0  0  0
   62.3361   -2.5100   24.9936 O   0  0  0  0  0  0  0  0  0  0  0  0
   61.7463   -3.3701   24.2019 C   0  0  0  0  0  0  0  0  0  0  0  0
   62.4813   -4.5519   24.2273 C   0  0  0  0  0  0  0  0  0  0  0  0
   62.0891   -5.6295   23.4851 C   0  0  0  0  0  0  0  0  0  0  0  0
   60.9588   -5.5389   22.7097 C   0  0  0  0  0  0  0  0  0  0  0  0
   60.2348   -4.3572   22.6922 C   0  0  0  0  0  0  0  0  0  0  0  0
   60.6120   -3.2601   23.4317 C   0  0  0  0  0  0  0  0  0  0  0  0
   59.8307   -2.0429   23.3881 C   0  0  0  0  0  0  0  0  0  0  0  0
   60.0368   -1.0634   22.4190 C   0  0  0  0  0  0  0  0  0  0  0  0
   58.8409   -1.8099   24.3199 C   0  0  0  0  0  0  0  0  0  0  0  0
   58.0605   -0.6677   24.3318 C   0  0  0  0  0  0  0  0  0  0  0  0
   58.3079    0.2796   23.3406 C   0  0  0  0  0  0  0  0  0  0  0  0
   59.2851    0.0918   22.3889 C   0  0  0  0  0  0  0  0  0  0  0  0
   59.4873    1.1422   21.3678 C   0  0  0  0  0  0  0  0  0  0  0  0
   58.3014    1.3474   20.4859 C   0  0  1  0  0  0  0  0  0  0  0  0
   58.5058    2.9309   19.6036 P   0  0  2  0  0  5  0  0  0  0  0  0
   60.0356    3.0644   18.9215 O   0  0  0  0  0  0  0  0  0  0  0  0
   58.2369    4.0829   20.5723 O   0  0  0  0  0  0  0  0  0  0  0  0
   57.3107    3.0248   18.4053 O   0  0  0  0  0  0  0  0  0  0  0  0
   58.1857    0.0590   19.2017 P   0  0  1  0  0  5  0  0  0  0  0  0
   56.9562    0.2528   18.3523 O   0  0  0  0  0  0  0  0  0  0  0  0
   59.6037    0.0050   18.2901 O   0  0  0  0  0  0  0  0  0  0  0  0
   58.0211   -1.4756   19.9320 O   0  0  0  0  0  0  0  0  0  0  0  0
   57.1150    1.4041   21.2122 O   0  0  0  0  0  0  0  0  0  0  0  0
  1  2  2  0
  1  6  1  0
  1  9  1  0
  2  3  1  0
  3  4  2  0
  4  5  1  0
  5  6  2  0
  6  7  1  0
  7  8  1  0
  8  9  2  0
  8 13  1  0
  9 10  1  0
 10 11  2  0
 11 12  1  0
 12 13  2  0
 13 14  1  0
 14 15  2  0
 14 16  1  0
 15 19  1  0
 16 17  2  0
 17 18  1  0
 18 19  2  0
 20 19  1  1
 20 21  1  0
 21 22  1  0
 21 26  1  0
 21 30  1  1
 22 23  1  6
 22 24  2  0
 22 25  1  0
 26 27  2  0
 26 28  1  6
 26 29  1  0
M  END
$$$$
