
     RDKit          3D

 30 33  0  0  0  0  0  0  0  0999 V2000
   63.3010   -4.1873   26.0053 C   0  0  0  0  0  0  0  0  0  0  0  0
   64.0530   -5.1541   26.6363 C   0  0  0  0  0  0  0  0  0  0  0  0
   64.7425   -4.9077   27.8156 C   0  0  0  0  0  0  0  0  0  0  0  0
   64.6564   -3.6333   28.3606 C   0  0  0  0  0  0  0  0  0  0  0  0
   63.9007   -2.6727   27.7208 C   0  0  0  0  0  0  0  0  0  0  0  0
   63.2134   -2.9154   26.5466 C   0  0  0  0  0  0  0  0  0  0  0  0
   62.4447   -2.2064   25.7536 O   0  0  0  0  0  0  0  0  0  0  0  0
   62.0291   -2.9323   24.7366 C   0  0  0  0  0  0  0  0  0  0  0  0
   62.5467   -4.2214   24.8400 C   0  0  0  0  0  0  0  0  0  0  0  0
   62.2544   -5.1770   23.8885 C   0  0  0  0  0  0  0  0  0  0  0  0
   61.4312   -4.8233   22.8241 C   0  0  0  0  0  0  0  0  0  0  0  0
   60.9269   -3.5308   22.7426 C   0  0  0  0  0  0  0  0  0  0  0  0
   61.2113   -2.5661   23.6869 C   0  0  0  0  0  0  0  0  0  0  0  0
   60.6908   -1.2037   23.6179 C   0  0  0  0  0  0  0  0  0  0  0  0
   60.5185   -0.5785   22.4015 C   0  0  0  0  0  0  0  0  0  0  0  0
   60.3502   -0.4833   24.7459 C   0  0  0  0  0  0  0  0  0  0  0  0
   59.8555    0.8140   24.6630 C   0  0  0  0  0  0  0  0  0  0  0  0
   59.6901    1.4228   23.4365 C   0  0  0  0  0  0  0  0  0  0  0  0
   60.0226    0.7257   22.2944 C   0  0  0  0  0  0  0  0  0  0  0  0
   59.8455    1.3706   20.9734 C   0  0  0  0  0  0  0  0  0  0  0  0
   58.3947    1.4102   20.5504 C   0  0  1  0  0  0  0  0  0  0  0  0
   57.6347    3.0049   20.9195 P   0  0  2  0  0  5  0  0  0  0  0  0
   56.0621    3.1222   20.3294 O   0  0  0  0  0  0  0  0  0  0  0  0
   58.4325    4.1429   20.2790 O   0  0  0  0  0  0  0  0  0  0  0  0
   57.6137    3.3288   22.5835 O   0  0  0  0  0  0  0  0  0  0  0  0
   58.2111    1.1264   18.7704 P   0  0  1  0  0  5  0  0  0  0  0  0
   58.8731    2.2982   18.0380 O   0  0  0  0  0  0  0  0  0  0  0  0
   59.0182   -0.2584   18.2741 O   0  0  0  0  0  0  0  0  0  0  0  0
   56.5917    1.1360   18.2865 O   0  0  0  0  0  0  0  0  0  0  0  0
   57.7303    0.4252   21.2678 O   0  0  0  0  0  0  0  0  0  0  0  0
  1  2  2  0
  1  6  1  0
  1  9  1  0
  2  3  1  0
  3  4  2  0
  4  5  1  0
  5  6  2  0
  6  7  1  0
  7  8  1  0
  8  9  2  0
  8 13  1  0
  9 10  1  0
 10 11  2  0
 11 12  1  0
 12 13  2  0
 13 14  1  0
 14 15  2  0
 14 16  1  0
 15 19  1  0
 16 17  2  0
 17 18  1  0
 18 19  2  0
 19 20  1  0
 20 21  1  0
 21 22  1  0
 21 26  1  0
 21 30  1  1
 22 23  1  6
 22 24  2  0
 22 25  1  0
 26 27  2  0
 26 28  1  6
 26 29  1  0
M  END
$$$$
