
     RDKit          3D

 30 33  0  0  0  0  0  0  0  0999 V2000
   62.9381   -2.6446   27.0943 C   0  0  0  0  0  0  0  0  0  0  0  0
   63.5152   -2.9891   28.3055 C   0  0  0  0  0  0  0  0  0  0  0  0
   64.1106   -4.2469   28.4420 C   0  0  0  0  0  0  0  0  0  0  0  0
   64.1325   -5.1439   27.3974 C   0  0  0  0  0  0  0  0  0  0  0  0
   63.5546   -4.7863   26.2001 C   0  0  0  0  0  0  0  0  0  0  0  0
   62.9522   -3.5298   26.0422 C   0  0  0  0  0  0  0  0  0  0  0  0
   62.3465   -2.9559   25.0331 O   0  0  0  0  0  0  0  0  0  0  0  0
   61.9343   -1.7536   25.3477 C   0  0  0  0  0  0  0  0  0  0  0  0
   62.2939   -1.5081   26.6698 C   0  0  0  0  0  0  0  0  0  0  0  0
   61.9851   -0.3173   27.2636 C   0  0  0  0  0  0  0  0  0  0  0  0
   61.3142    0.6413   26.5439 C   0  0  0  0  0  0  0  0  0  0  0  0
   60.9612    0.3858   25.2282 C   0  0  0  0  0  0  0  0  0  0  0  0
   61.2622   -0.8062   24.6109 C   0  0  0  0  0  0  0  0  0  0  0  0
   60.8774   -1.0370   23.2351 C   0  0  0  0  0  0  0  0  0  0  0  0
   60.3393   -0.0301   22.4365 C   0  0  0  0  0  0  0  0  0  0  0  0
   61.0337   -2.2814   22.6614 C   0  0  0  0  0  0  0  0  0  0  0  0
   60.6855   -2.5653   21.3530 C   0  0  0  0  0  0  0  0  0  0  0  0
   60.1519   -1.5228   20.5983 C   0  0  0  0  0  0  0  0  0  0  0  0
   59.9768   -0.2635   21.1271 C   0  0  0  0  0  0  0  0  0  0  0  0
   59.4057    0.7919   20.2629 C   0  0  0  0  0  0  0  0  0  0  0  0
   57.9141    0.8238   20.2737 C   0  0  1  0  0  0  0  0  0  0  0  0
   57.3613    2.2774   19.3202 P   0  0  2  0  0  5  0  0  0  0  0  0
   57.7402    3.7126   20.1076 O   0  0  0  0  0  0  0  0  0  0  0  0
   55.8565    2.1712   19.0716 O   0  0  0  0  0  0  0  0  0  0  0  0
   58.1028    2.2218   17.7969 O   0  0  0  0  0  0  0  0  0  0  0  0
   57.2029   -0.6333   19.4409 P   0  0  1  0  0  5  0  0  0  0  0  0
   57.8989   -0.8993   18.1310 O   0  0  0  0  0  0  0  0  0  0  0  0
   57.2218   -1.9693   20.4702 O   0  0  0  0  0  0  0  0  0  0  0  0
   55.5650   -0.3410   19.0573 O   0  0  0  0  0  0  0  0  0  0  0  0
   57.4040    0.9309   21.5648 O   0  0  0  0  0  0  0  0  0  0  0  0
  1  2  2  0
  1  6  1  0
  1  9  1  0
  2  3  1  0
  3  4  2  0
  4  5  1  0
  5  6  2  0
  6  7  1  0
  7  8  1  0
  8  9  2  0
  8 13  1  0
  9 10  1  0
 10 11  2  0
 11 12  1  0
 12 13  2  0
 13 14  1  0
 14 15  2  0
 14 16  1  0
 15 19  1  0
 16 17  2  0
 17 18  1  0
 18 19  2  0
 20 19  1  1
 20 21  1  0
 21 22  1  0
 21 26  1  0
 21 30  1  1
 22 23  1  1
 22 24  2  0
 22 25  1  0
 26 27  2  0
 26 28  1  1
 26 29  1  0
M  END
$$$$
