
     RDKit          3D

 30 33  0  0  0  0  0  0  0  0999 V2000
   63.3689   -4.0989   25.5485 C   0  0  0  0  0  0  0  0  0  0  0  0
   64.1719   -5.1131   26.0436 C   0  0  0  0  0  0  0  0  0  0  0  0
   64.9018   -4.8920   27.2157 C   0  0  0  0  0  0  0  0  0  0  0  0
   64.8356   -3.6888   27.8821 C   0  0  0  0  0  0  0  0  0  0  0  0
   64.0328   -2.6909   27.3771 C   0  0  0  0  0  0  0  0  0  0  0  0
   63.2926   -2.8920   26.2030 C   0  0  0  0  0  0  0  0  0  0  0  0
   62.4731   -2.1259   25.5278 O   0  0  0  0  0  0  0  0  0  0  0  0
   62.0041   -2.7447   24.4735 C   0  0  0  0  0  0  0  0  0  0  0  0
   62.5546   -4.0228   24.4449 C   0  0  0  0  0  0  0  0  0  0  0  0
   62.2351   -4.8941   23.4424 C   0  0  0  0  0  0  0  0  0  0  0  0
   61.3625   -4.4988   22.4579 C   0  0  0  0  0  0  0  0  0  0  0  0
   60.8204   -3.2237   22.4967 C   0  0  0  0  0  0  0  0  0  0  0  0
   61.1285   -2.3306   23.4967 C   0  0  0  0  0  0  0  0  0  0  0  0
   60.5427   -1.0075   23.5039 C   0  0  0  0  0  0  0  0  0  0  0  0
   60.3425   -0.2785   22.3337 C   0  0  0  0  0  0  0  0  0  0  0  0
   60.1576   -0.4164   24.6891 C   0  0  0  0  0  0  0  0  0  0  0  0
   59.5925    0.8442   24.7623 C   0  0  0  0  0  0  0  0  0  0  0  0
   59.4144    1.5299   23.5627 C   0  0  0  0  0  0  0  0  0  0  0  0
   59.7832    0.9813   22.3548 C   0  0  0  0  0  0  0  0  0  0  0  0
   59.5609    1.7703   21.1238 C   0  0  0  0  0  0  0  0  0  0  0  0
   58.1349    1.7957   20.6857 C   0  0  1  0  0  0  0  0  0  0  0  0
   57.7380    3.4808   20.1109 P   0  0  2  0  0  5  0  0  0  0  0  0
   58.1022    4.6330   21.2785 O   0  0  0  0  0  0  0  0  0  0  0  0
   56.2603    3.5434   19.7235 O   0  0  0  0  0  0  0  0  0  0  0  0
   58.6173    3.7746   18.6918 O   0  0  0  0  0  0  0  0  0  0  0  0
   57.8467    0.6908   19.2649 P   0  0  1  0  0  5  0  0  0  0  0  0
   56.4136    0.7658   18.8051 O   0  0  0  0  0  0  0  0  0  0  0  0
   58.9445    1.0212   18.0279 O   0  0  0  0  0  0  0  0  0  0  0  0
   58.1125   -0.9312   19.7275 O   0  0  0  0  0  0  0  0  0  0  0  0
   57.2646    1.4739   21.7238 O   0  0  0  0  0  0  0  0  0  0  0  0
  1  2  2  0
  1  6  1  0
  1  9  1  0
  2  3  1  0
  3  4  2  0
  4  5  1  0
  5  6  2  0
  6  7  1  0
  7  8  1  0
  8  9  2  0
  8 13  1  0
  9 10  1  0
 10 11  2  0
 11 12  1  0
 12 13  2  0
 13 14  1  0
 14 15  2  0
 14 16  1  0
 15 19  1  0
 16 17  2  0
 17 18  1  0
 18 19  2  0
 20 19  1  1
 20 21  1  0
 21 22  1  0
 21 26  1  0
 21 30  1  1
 22 23  1  1
 22 24  2  0
 22 25  1  0
 26 27  2  0
 26 28  1  6
 26 29  1  0
M  END
$$$$
