
     RDKit          3D

 30 33  0  0  0  0  0  0  0  0999 V2000
   62.8291   -3.5552   25.0312 C   0  0  0  0  0  0  0  0  0  0  0  0
   63.4845   -4.7157   25.4082 C   0  0  0  0  0  0  0  0  0  0  0  0
   64.0337   -5.5384   24.4198 C   0  0  0  0  0  0  0  0  0  0  0  0
   63.9341   -5.2152   23.0849 C   0  0  0  0  0  0  0  0  0  0  0  0
   63.2796   -4.0582   22.7267 C   0  0  0  0  0  0  0  0  0  0  0  0
   62.7216   -3.2193   23.7022 C   0  0  0  0  0  0  0  0  0  0  0  0
   62.0637   -2.0894   23.6308 O   0  0  0  0  0  0  0  0  0  0  0  0
   61.7301   -1.6577   24.8211 C   0  0  0  0  0  0  0  0  0  0  0  0
   62.2032   -2.5719   25.7581 C   0  0  0  0  0  0  0  0  0  0  0  0
   61.9943   -2.3691   27.0927 C   0  0  0  0  0  0  0  0  0  0  0  0
   61.3109   -1.2516   27.5062 C   0  0  0  0  0  0  0  0  0  0  0  0
   60.8444   -0.3481   26.5643 C   0  0  0  0  0  0  0  0  0  0  0  0
   61.0437   -0.5329   25.2156 C   0  0  0  0  0  0  0  0  0  0  0  0
   60.5418    0.4324   24.2615 C   0  0  0  0  0  0  0  0  0  0  0  0
   60.2631    0.0927   22.9394 C   0  0  0  0  0  0  0  0  0  0  0  0
   60.3197    1.7408   24.6369 C   0  0  0  0  0  0  0  0  0  0  0  0
   59.8416    2.7097   23.7728 C   0  0  0  0  0  0  0  0  0  0  0  0
   59.5793    2.3168   22.4622 C   0  0  0  0  0  0  0  0  0  0  0  0
   59.7853    1.0222   22.0406 C   0  0  0  0  0  0  0  0  0  0  0  0
   59.4819    0.6812   20.6339 C   0  0  0  0  0  0  0  0  0  0  0  0
   58.0405    0.8408   20.2831 C   0  0  1  0  0  0  0  0  0  0  0  0
   57.8651    0.6745   18.4751 P   0  0  2  0  0  5  0  0  0  0  0  0
   56.2501    0.6281   18.0134 O   0  0  0  0  0  0  0  0  0  0  0  0
   58.6018   -0.5832   18.0134 O   0  0  0  0  0  0  0  0  0  0  0  0
   58.6540    1.9856   17.7460 O   0  0  0  0  0  0  0  0  0  0  0  0
   57.0182   -0.4771   21.0184 P   0  0  1  0  0  5  0  0  0  0  0  0
   57.5147   -0.8412   22.3938 O   0  0  0  0  0  0  0  0  0  0  0  0
   55.3905   -0.0354   21.0105 O   0  0  0  0  0  0  0  0  0  0  0  0
   57.1387   -1.8977   20.0788 O   0  0  0  0  0  0  0  0  0  0  0  0
   57.5484    2.0889   20.6550 O   0  0  0  0  0  0  0  0  0  0  0  0
  1  2  2  0
  1  6  1  0
  1  9  1  0
  2  3  1  0
  3  4  2  0
  4  5  1  0
  5  6  2  0
  6  7  1  0
  7  8  1  0
  8  9  2  0
  8 13  1  0
  9 10  1  0
 10 11  2  0
 11 12  1  0
 12 13  2  0
 13 14  1  0
 14 15  2  0
 14 16  1  0
 15 19  1  0
 16 17  2  0
 17 18  1  0
 18 19  2  0
 20 19  1  1
 20 21  1  0
 21 22  1  0
 21 26  1  0
 21 30  1  1
 22 23  1  1
 22 24  2  0
 22 25  1  0
 26 27  2  0
 26 28  1  1
 26 29  1  0
M  END
$$$$
