
     RDKit          3D

 30 33  0  0  0  0  0  0  0  0999 V2000
   63.0800   -2.4036   26.6001 C   0  0  0  0  0  0  0  0  0  0  0  0
   63.9451   -2.2960   27.6671 C   0  0  0  0  0  0  0  0  0  0  0  0
   63.8046   -1.3187   28.6428 C   0  0  0  0  0  0  0  0  0  0  0  0
   62.7463   -0.4282   28.5181 C   0  0  0  0  0  0  0  0  0  0  0  0
   61.8859   -0.5447   27.4460 C   0  0  0  0  0  0  0  0  0  0  0  0
   62.0236   -1.5167   26.4733 C   0  0  0  0  0  0  0  0  0  0  0  0
   61.3695   -1.8431   25.3834 O   0  0  0  0  0  0  0  0  0  0  0  0
   61.9301   -2.8801   24.7966 C   0  0  0  0  0  0  0  0  0  0  0  0
   63.0397   -3.2900   25.5323 C   0  0  0  0  0  0  0  0  0  0  0  0
   63.8008   -4.3647   25.1204 C   0  0  0  0  0  0  0  0  0  0  0  0
   63.4346   -5.0289   23.9540 C   0  0  0  0  0  0  0  0  0  0  0  0
   62.3235   -4.6013   23.2371 C   0  0  0  0  0  0  0  0  0  0  0  0
   61.5541   -3.5286   23.6377 C   0  0  0  0  0  0  0  0  0  0  0  0
   60.3838   -3.0651   22.8977 C   0  0  0  0  0  0  0  0  0  0  0  0
   60.1454   -1.7174   22.7332 C   0  0  0  0  0  0  0  0  0  0  0  0
   59.4715   -3.9356   22.3345 C   0  0  0  0  0  0  0  0  0  0  0  0
   58.3616   -3.4778   21.6324 C   0  0  0  0  0  0  0  0  0  0  0  0
   58.1399   -2.1252   21.4783 C   0  0  0  0  0  0  0  0  0  0  0  0
   59.0356   -1.2344   22.0309 C   0  0  0  0  0  0  0  0  0  0  0  0
   58.8070    0.2194   21.8679 C   0  0  0  0  0  0  0  0  0  0  0  0
   59.2947    0.7246   20.5293 C   0  0  1  0  0  0  0  0  0  0  0  0
   58.3454    0.0230   19.1642 P   0  0  2  0  0  5  0  0  0  0  0  0
   56.6840    0.1907   19.3804 O   0  0  0  0  0  0  0  0  0  0  0  0
   58.6239   -1.4757   19.0289 O   0  0  0  0  0  0  0  0  0  0  0  0
   58.7695    0.7128   17.6747 O   0  0  0  0  0  0  0  0  0  0  0  0
   59.1595    2.5273   20.4074 P   0  0  1  0  0  5  0  0  0  0  0  0
   60.0530    3.1389   21.4916 O   0  0  0  0  0  0  0  0  0  0  0  0
   59.7388    3.0975   18.9396 O   0  0  0  0  0  0  0  0  0  0  0  0
   57.5945    3.0735   20.7378 O   0  0  0  0  0  0  0  0  0  0  0  0
   60.6188    0.3296   20.3983 O   0  0  0  0  0  0  0  0  0  0  0  0
  1  2  2  0
  1  6  1  0
  1  9  1  0
  2  3  1  0
  3  4  2  0
  4  5  1  0
  5  6  2  0
  6  7  1  0
  7  8  1  0
  8  9  2  0
  8 13  1  0
  9 10  1  0
 10 11  2  0
 11 12  1  0
 12 13  2  0
 13 14  1  0
 14 15  2  0
 14 16  1  0
 15 19  1  0
 16 17  2  0
 17 18  1  0
 18 19  2  0
 19 20  1  0
 20 21  1  0
 21 22  1  0
 21 26  1  0
 21 30  1  6
 22 23  1  1
 22 24  2  0
 22 25  1  0
 26 27  2  0
 26 28  1  6
 26 29  1  0
M  END
$$$$
