
     RDKit          3D

 30 33  0  0  0  0  0  0  0  0999 V2000
   62.6142   -4.3696   24.2809 C   0  0  0  0  0  0  0  0  0  0  0  0
   63.2125   -5.6041   24.4721 C   0  0  0  0  0  0  0  0  0  0  0  0
   63.6335   -6.3359   23.3574 C   0  0  0  0  0  0  0  0  0  0  0  0
   63.4639   -5.8518   22.0795 C   0  0  0  0  0  0  0  0  0  0  0  0
   62.8674   -4.6231   21.9064 C   0  0  0  0  0  0  0  0  0  0  0  0
   62.4380   -3.8731   23.0108 C   0  0  0  0  0  0  0  0  0  0  0  0
   61.8563   -2.7049   23.1189 O   0  0  0  0  0  0  0  0  0  0  0  0
   61.6371   -2.3975   24.3727 C   0  0  0  0  0  0  0  0  0  0  0  0
   62.1099   -3.4430   25.1606 C   0  0  0  0  0  0  0  0  0  0  0  0
   62.0089   -3.3871   26.5218 C   0  0  0  0  0  0  0  0  0  0  0  0
   61.4347   -2.2870   27.1108 C   0  0  0  0  0  0  0  0  0  0  0  0
   60.9673   -1.2520   26.3162 C   0  0  0  0  0  0  0  0  0  0  0  0
   61.0591   -1.2877   24.9440 C   0  0  0  0  0  0  0  0  0  0  0  0
   60.5599   -0.1879   24.1471 C   0  0  0  0  0  0  0  0  0  0  0  0
   60.2037   -0.3430   22.8091 C   0  0  0  0  0  0  0  0  0  0  0  0
   60.4186    1.0695   24.6958 C   0  0  0  0  0  0  0  0  0  0  0  0
   59.9475    2.1604   23.9873 C   0  0  0  0  0  0  0  0  0  0  0  0
   59.6057    1.9505   22.6531 C   0  0  0  0  0  0  0  0  0  0  0  0
   59.7294    0.7134   22.0612 C   0  0  0  0  0  0  0  0  0  0  0  0
   59.3446    0.5688   20.6406 C   0  0  0  0  0  0  0  0  0  0  0  0
   57.8683    0.5379   20.4269 C   0  0  1  0  0  0  0  0  0  0  0  0
   57.3865    2.0402   19.5111 P   0  0  2  0  0  5  0  0  0  0  0  0
   57.6738    3.4301   20.4107 O   0  0  0  0  0  0  0  0  0  0  0  0
   55.9121    1.9376   19.1198 O   0  0  0  0  0  0  0  0  0  0  0  0
   58.2645    2.0785   18.0618 O   0  0  0  0  0  0  0  0  0  0  0  0
   57.3671   -0.8747   19.3896 P   0  0  1  0  0  5  0  0  0  0  0  0
   57.7366   -2.1816   20.0426 O   0  0  0  0  0  0  0  0  0  0  0  0
   55.7260   -0.7774   19.0127 O   0  0  0  0  0  0  0  0  0  0  0  0
   58.2081   -0.8317   17.9043 O   0  0  0  0  0  0  0  0  0  0  0  0
   57.1675    0.5181   21.6297 O   0  0  0  0  0  0  0  0  0  0  0  0
  1  2  2  0
  1  6  1  0
  1  9  1  0
  2  3  1  0
  3  4  2  0
  4  5  1  0
  5  6  2  0
  6  7  1  0
  7  8  1  0
  8  9  2  0
  8 13  1  0
  9 10  1  0
 10 11  2  0
 11 12  1  0
 12 13  2  0
 13 14  1  0
 14 15  2  0
 14 16  1  0
 15 19  1  0
 16 17  2  0
 17 18  1  0
 18 19  2  0
 20 19  1  1
 20 21  1  0
 21 22  1  0
 21 26  1  0
 21 30  1  1
 22 23  1  1
 22 24  2  0
 22 25  1  0
 26 27  2  0
 26 28  1  6
 26 29  1  0
M  END
$$$$
