
     RDKit          3D

 30 33  0  0  0  0  0  0  0  0999 V2000
   63.1592   -2.9722   26.4198 C   0  0  0  0  0  0  0  0  0  0  0  0
   64.1591   -3.1557   27.3606 C   0  0  0  0  0  0  0  0  0  0  0  0
   64.2086   -2.3114   28.4742 C   0  0  0  0  0  0  0  0  0  0  0  0
   63.2844   -1.3058   28.6497 C   0  0  0  0  0  0  0  0  0  0  0  0
   62.2968   -1.1365   27.7055 C   0  0  0  0  0  0  0  0  0  0  0  0
   62.2293   -1.9724   26.5815 C   0  0  0  0  0  0  0  0  0  0  0  0
   61.4110   -2.0231   25.5604 O   0  0  0  0  0  0  0  0  0  0  0  0
   61.7377   -2.9875   24.7372 C   0  0  0  0  0  0  0  0  0  0  0  0
   62.8614   -3.6287   25.2505 C   0  0  0  0  0  0  0  0  0  0  0  0
   63.4221   -4.6836   24.5880 C   0  0  0  0  0  0  0  0  0  0  0  0
   62.8670   -5.1095   23.4059 C   0  0  0  0  0  0  0  0  0  0  0  0
   61.7481   -4.4634   22.9042 C   0  0  0  0  0  0  0  0  0  0  0  0
   61.1676   -3.3993   23.5550 C   0  0  0  0  0  0  0  0  0  0  0  0
   59.9996   -2.7495   23.0005 C   0  0  0  0  0  0  0  0  0  0  0  0
   59.9493   -1.3745   22.7821 C   0  0  0  0  0  0  0  0  0  0  0  0
   58.8808   -3.4829   22.6650 C   0  0  0  0  0  0  0  0  0  0  0  0
   57.7345   -2.9213   22.1317 C   0  0  0  0  0  0  0  0  0  0  0  0
   57.7371   -1.5423   21.9336 C   0  0  0  0  0  0  0  0  0  0  0  0
   58.8300   -0.7681   22.2530 C   0  0  0  0  0  0  0  0  0  0  0  0
   58.7575    0.6892   22.0122 C   0  0  0  0  0  0  0  0  0  0  0  0
   59.2305    1.0898   20.6550 C   0  0  1  0  0  0  0  0  0  0  0  0
   58.1619    0.2890   19.4122 P   0  0  2  0  0  5  0  0  0  0  0  0
   58.5850   -1.3204   19.1795 O   0  0  0  0  0  0  0  0  0  0  0  0
   58.2450    1.0710   18.1010 O   0  0  0  0  0  0  0  0  0  0  0  0
   56.5560    0.4107   19.9407 O   0  0  0  0  0  0  0  0  0  0  0  0
   59.0674    2.8854   20.3872 P   0  0  1  0  0  5  0  0  0  0  0  0
   59.3730    3.2475   18.9567 O   0  0  0  0  0  0  0  0  0  0  0  0
   57.5465    3.4203   20.8826 O   0  0  0  0  0  0  0  0  0  0  0  0
   60.2093    3.7210   21.3428 O   0  0  0  0  0  0  0  0  0  0  0  0
   60.5438    0.6906   20.4215 O   0  0  0  0  0  0  0  0  0  0  0  0
  1  2  2  0
  1  6  1  0
  1  9  1  0
  2  3  1  0
  3  4  2  0
  4  5  1  0
  5  6  2  0
  6  7  1  0
  7  8  1  0
  8  9  2  0
  8 13  1  0
  9 10  1  0
 10 11  2  0
 11 12  1  0
 12 13  2  0
 13 14  1  0
 14 15  2  0
 14 16  1  0
 15 19  1  0
 16 17  2  0
 17 18  1  0
 18 19  2  0
 20 19  1  1
 20 21  1  0
 21 22  1  0
 21 26  1  0
 21 30  1  6
 22 23  1  6
 22 24  2  0
 22 25  1  0
 26 27  2  0
 26 28  1  1
 26 29  1  0
M  END
$$$$
