
     RDKit          3D

 30 33  0  0  0  0  0  0  0  0999 V2000
   63.5803   -3.8688   25.8927 C   0  0  0  0  0  0  0  0  0  0  0  0
   64.5716   -4.4891   26.6214 C   0  0  0  0  0  0  0  0  0  0  0  0
   65.0076   -4.0043   27.8469 C   0  0  0  0  0  0  0  0  0  0  0  0
   64.4083   -2.8511   28.3362 C   0  0  0  0  0  0  0  0  0  0  0  0
   63.4167   -2.2379   27.5985 C   0  0  0  0  0  0  0  0  0  0  0  0
   62.9808   -2.7184   26.3783 C   0  0  0  0  0  0  0  0  0  0  0  0
   62.0842   -2.3441   25.4961 O   0  0  0  0  0  0  0  0  0  0  0  0
   62.0624   -3.1732   24.4734 C   0  0  0  0  0  0  0  0  0  0  0  0
   63.0051   -4.1802   24.6680 C   0  0  0  0  0  0  0  0  0  0  0  0
   63.1755   -5.1773   23.7295 C   0  0  0  0  0  0  0  0  0  0  0  0
   62.3845   -5.1535   22.5851 C   0  0  0  0  0  0  0  0  0  0  0  0
   61.4508   -4.1385   22.4134 C   0  0  0  0  0  0  0  0  0  0  0  0
   61.2704   -3.1359   23.3437 C   0  0  0  0  0  0  0  0  0  0  0  0
   60.2949   -2.0618   23.1805 C   0  0  0  0  0  0  0  0  0  0  0  0
   59.8864   -1.6690   21.9240 C   0  0  0  0  0  0  0  0  0  0  0  0
   59.7406   -1.3955   24.2558 C   0  0  0  0  0  0  0  0  0  0  0  0
   58.8123   -0.3742   24.0833 C   0  0  0  0  0  0  0  0  0  0  0  0
   58.4159    0.0048   22.8178 C   0  0  0  0  0  0  0  0  0  0  0  0
   58.9540   -0.6443   21.7268 C   0  0  0  0  0  0  0  0  0  0  0  0
   58.5319   -0.2459   20.3647 C   0  0  0  0  0  0  0  0  0  0  0  0
   57.9854    1.1631   20.3285 C   0  0  1  0  0  0  0  0  0  0  0  0
   59.2845    2.3901   20.5805 P   0  0  2  0  0  5  0  0  0  0  0  0
   60.5147    2.2716   19.4370 O   0  0  0  0  0  0  0  0  0  0  0  0
   59.9379    2.2087   21.9524 O   0  0  0  0  0  0  0  0  0  0  0  0
   58.6765    3.9726   20.5590 O   0  0  0  0  0  0  0  0  0  0  0  0
   57.1982    1.5323   18.7389 P   0  0  1  0  0  5  0  0  0  0  0  0
   58.2724    1.4371   17.6504 O   0  0  0  0  0  0  0  0  0  0  0  0
   56.0253    0.3985   18.3465 O   0  0  0  0  0  0  0  0  0  0  0  0
   56.6114    3.1158   18.6702 O   0  0  0  0  0  0  0  0  0  0  0  0
   57.0643    1.2733   21.3609 O   0  0  0  0  0  0  0  0  0  0  0  0
  1  2  2  0
  1  6  1  0
  1  9  1  0
  2  3  1  0
  3  4  2  0
  4  5  1  0
  5  6  2  0
  6  7  1  0
  7  8  1  0
  8  9  2  0
  8 13  1  0
  9 10  1  0
 10 11  2  0
 11 12  1  0
 12 13  2  0
 13 14  1  0
 14 15  2  0
 14 16  1  0
 15 19  1  0
 16 17  2  0
 17 18  1  0
 18 19  2  0
 19 20  1  0
 20 21  1  0
 21 22  1  0
 21 26  1  0
 21 30  1  1
 22 23  1  6
 22 24  2  0
 22 25  1  0
 26 27  2  0
 26 28  1  6
 26 29  1  0
M  END
$$$$
