
     RDKit          3D

 30 33  0  0  0  0  0  0  0  0999 V2000
   62.8707   -3.2272   26.3848 C   0  0  0  0  0  0  0  0  0  0  0  0
   63.4797   -3.8730   27.4480 C   0  0  0  0  0  0  0  0  0  0  0  0
   63.9498   -5.1781   27.2721 C   0  0  0  0  0  0  0  0  0  0  0  0
   63.8178   -5.8283   26.0654 C   0  0  0  0  0  0  0  0  0  0  0  0
   63.2100   -5.1726   25.0185 C   0  0  0  0  0  0  0  0  0  0  0  0
   62.7316   -3.8635   25.1738 C   0  0  0  0  0  0  0  0  0  0  0  0
   62.1297   -3.0353   24.3575 O   0  0  0  0  0  0  0  0  0  0  0  0
   61.8624   -1.8971   24.9471 C   0  0  0  0  0  0  0  0  0  0  0  0
   62.3226   -1.9739   26.2585 C   0  0  0  0  0  0  0  0  0  0  0  0
   62.1734   -0.9159   27.1096 C   0  0  0  0  0  0  0  0  0  0  0  0
   61.5633    0.2300   26.6607 C   0  0  0  0  0  0  0  0  0  0  0  0
   61.1089    0.2951   25.3529 C   0  0  0  0  0  0  0  0  0  0  0  0
   61.2489   -0.7584   24.4792 C   0  0  0  0  0  0  0  0  0  0  0  0
   60.7620   -0.6536   23.1206 C   0  0  0  0  0  0  0  0  0  0  0  0
   60.3290    0.5547   22.5789 C   0  0  0  0  0  0  0  0  0  0  0  0
   60.7101   -1.7650   22.3055 C   0  0  0  0  0  0  0  0  0  0  0  0
   60.2554   -1.7302   20.9993 C   0  0  0  0  0  0  0  0  0  0  0  0
   59.8344   -0.4967   20.5072 C   0  0  0  0  0  0  0  0  0  0  0  0
   59.8673    0.6406   21.2828 C   0  0  0  0  0  0  0  0  0  0  0  0
   59.4052    1.9137   20.6890 C   0  0  0  0  0  0  0  0  0  0  0  0
   57.9222    1.9979   20.5482 C   0  0  1  0  0  0  0  0  0  0  0  0
   57.4609    3.7508   20.3430 P   0  0  2  0  0  5  0  0  0  0  0  0
   58.2741    4.4561   19.0528 O   0  0  0  0  0  0  0  0  0  0  0  0
   57.7469    4.5001   21.6447 O   0  0  0  0  0  0  0  0  0  0  0  0
   55.7847    3.8304   20.1037 O   0  0  0  0  0  0  0  0  0  0  0  0
   57.3376    1.1378   19.0511 P   0  0  1  0  0  5  0  0  0  0  0  0
   58.1122    1.5812   17.8370 O   0  0  0  0  0  0  0  0  0  0  0  0
   57.3810   -0.5332   19.2754 O   0  0  0  0  0  0  0  0  0  0  0  0
   55.7069    1.5433   18.7480 O   0  0  0  0  0  0  0  0  0  0  0  0
   57.2628    1.5030   21.6701 O   0  0  0  0  0  0  0  0  0  0  0  0
  1  2  2  0
  1  6  1  0
  1  9  1  0
  2  3  1  0
  3  4  2  0
  4  5  1  0
  5  6  2  0
  6  7  1  0
  7  8  1  0
  8  9  2  0
  8 13  1  0
  9 10  1  0
 10 11  2  0
 11 12  1  0
 12 13  2  0
 13 14  1  0
 14 15  2  0
 14 16  1  0
 15 19  1  0
 16 17  2  0
 17 18  1  0
 18 19  2  0
 20 19  1  1
 20 21  1  0
 21 22  1  0
 21 26  1  0
 21 30  1  1
 22 23  1  6
 22 24  2  0
 22 25  1  0
 26 27  2  0
 26 28  1  1
 26 29  1  0
M  END
$$$$
