
     RDKit          3D

 30 33  0  0  0  0  0  0  0  0999 V2000
   62.5136   -4.6023   24.3541 C   0  0  0  0  0  0  0  0  0  0  0  0
   63.1145   -5.8421   24.4968 C   0  0  0  0  0  0  0  0  0  0  0  0
   63.2035   -6.6869   23.3860 C   0  0  0  0  0  0  0  0  0  0  0  0
   62.7060   -6.3082   22.1591 C   0  0  0  0  0  0  0  0  0  0  0  0
   62.1116   -5.0727   22.0337 C   0  0  0  0  0  0  0  0  0  0  0  0
   62.0122   -4.2104   23.1352 C   0  0  0  0  0  0  0  0  0  0  0  0
   61.5065   -3.0115   23.2815 O   0  0  0  0  0  0  0  0  0  0  0  0
   61.6401   -2.5864   24.5127 C   0  0  0  0  0  0  0  0  0  0  0  0
   62.2852   -3.5803   25.2430 C   0  0  0  0  0  0  0  0  0  0  0  0
   62.5562   -3.4017   26.5699 C   0  0  0  0  0  0  0  0  0  0  0  0
   62.1860   -2.2290   27.1820 C   0  0  0  0  0  0  0  0  0  0  0  0
   61.5441   -1.2463   26.4448 C   0  0  0  0  0  0  0  0  0  0  0  0
   61.2616   -1.4054   25.1078 C   0  0  0  0  0  0  0  0  0  0  0  0
   60.5899   -0.3569   24.3707 C   0  0  0  0  0  0  0  0  0  0  0  0
   60.4756   -0.3824   22.9824 C   0  0  0  0  0  0  0  0  0  0  0  0
   60.0324    0.7186   25.0299 C   0  0  0  0  0  0  0  0  0  0  0  0
   59.3779    1.7517   24.3831 C   0  0  0  0  0  0  0  0  0  0  0  0
   59.2919    1.6769   22.9946 C   0  0  0  0  0  0  0  0  0  0  0  0
   59.8329    0.6233   22.2924 C   0  0  0  0  0  0  0  0  0  0  0  0
   59.6996    0.6137   20.8196 C   0  0  0  0  0  0  0  0  0  0  0  0
   58.2883    0.7379   20.3516 C   0  0  1  0  0  0  0  0  0  0  0  0
   58.0752    2.3827   19.5921 P   0  0  2  0  0  5  0  0  0  0  0  0
   59.2026    2.6516   18.3756 O   0  0  0  0  0  0  0  0  0  0  0  0
   58.1775    3.4536   20.6786 O   0  0  0  0  0  0  0  0  0  0  0  0
   56.4998    2.4778   18.9738 O   0  0  0  0  0  0  0  0  0  0  0  0
   57.9002   -0.4788   19.0510 P   0  0  1  0  0  5  0  0  0  0  0  0
   58.1524   -1.8838   19.5340 O   0  0  0  0  0  0  0  0  0  0  0  0
   56.3261   -0.2580   18.4869 O   0  0  0  0  0  0  0  0  0  0  0  0
   58.9319   -0.2451   17.7108 O   0  0  0  0  0  0  0  0  0  0  0  0
   57.3792    0.6215   21.3996 O   0  0  0  0  0  0  0  0  0  0  0  0
  1  2  2  0
  1  6  1  0
  1  9  1  0
  2  3  1  0
  3  4  2  0
  4  5  1  0
  5  6  2  0
  6  7  1  0
  7  8  1  0
  8  9  2  0
  8 13  1  0
  9 10  1  0
 10 11  2  0
 11 12  1  0
 12 13  2  0
 13 14  1  0
 14 15  2  0
 14 16  1  0
 15 19  1  0
 16 17  2  0
 17 18  1  0
 18 19  2  0
 20 19  1  1
 20 21  1  0
 21 22  1  0
 21 26  1  0
 21 30  1  1
 22 23  1  6
 22 24  2  0
 22 25  1  0
 26 27  2  0
 26 28  1  6
 26 29  1  0
M  END
$$$$
