
     RDKit          3D

 30 33  0  0  0  0  0  0  0  0999 V2000
   63.1708   -4.0843   24.6576 C   0  0  0  0  0  0  0  0  0  0  0  0
   63.8114   -5.2726   24.9334 C   0  0  0  0  0  0  0  0  0  0  0  0
   64.2792   -6.1147   23.9339 C   0  0  0  0  0  0  0  0  0  0  0  0
   64.0830   -5.7245   22.6157 C   0  0  0  0  0  0  0  0  0  0  0  0
   63.4404   -4.5328   22.3505 C   0  0  0  0  0  0  0  0  0  0  0  0
   62.9738   -3.6927   23.3437 C   0  0  0  0  0  0  0  0  0  0  0  0
   62.3485   -2.5392   23.3705 O   0  0  0  0  0  0  0  0  0  0  0  0
   62.1275   -2.1578   24.6113 C   0  0  0  0  0  0  0  0  0  0  0  0
   62.6342   -3.1118   25.4908 C   0  0  0  0  0  0  0  0  0  0  0  0
   62.5257   -2.9407   26.8557 C   0  0  0  0  0  0  0  0  0  0  0  0
   61.8989   -1.7939   27.3327 C   0  0  0  0  0  0  0  0  0  0  0  0
   61.4013   -0.8563   26.4356 C   0  0  0  0  0  0  0  0  0  0  0  0
   61.5032   -1.0152   25.0690 C   0  0  0  0  0  0  0  0  0  0  0  0
   60.9866   -0.0413   24.1115 C   0  0  0  0  0  0  0  0  0  0  0  0
   60.5719   -0.4400   22.8588 C   0  0  0  0  0  0  0  0  0  0  0  0
   60.8882    1.3046   24.4047 C   0  0  0  0  0  0  0  0  0  0  0  0
   60.3937    2.2196   23.4812 C   0  0  0  0  0  0  0  0  0  0  0  0
   59.9835    1.8015   22.2325 C   0  0  0  0  0  0  0  0  0  0  0  0
   60.0713    0.4628   21.9141 C   0  0  0  0  0  0  0  0  0  0  0  0
   59.6305    0.0047   20.5769 C   0  0  0  0  0  0  0  0  0  0  0  0
   58.1545    0.2422   20.3529 C   0  0  1  0  0  0  0  0  0  0  0  0
   57.7352    1.9939   20.4643 P   0  0  2  0  0  5  0  0  0  0  0  0
   56.2066    2.3322   19.8446 O   0  0  0  0  0  0  0  0  0  0  0  0
   58.7317    2.8380   19.6665 O   0  0  0  0  0  0  0  0  0  0  0  0
   57.8112    2.5653   22.0587 O   0  0  0  0  0  0  0  0  0  0  0  0
   57.6269   -0.3340   18.7182 P   0  0  1  0  0  5  0  0  0  0  0  0
   56.1010   -0.2123   18.6481 O   0  0  0  0  0  0  0  0  0  0  0  0
   58.2356    0.6341   17.4903 O   0  0  0  0  0  0  0  0  0  0  0  0
   57.9702   -1.9713   18.4773 O   0  0  0  0  0  0  0  0  0  0  0  0
   57.4722   -0.4418   21.3496 O   0  0  0  0  0  0  0  0  0  0  0  0
  1  2  2  0
  1  6  1  0
  1  9  1  0
  2  3  1  0
  3  4  2  0
  4  5  1  0
  5  6  2  0
  6  7  1  0
  7  8  1  0
  8  9  2  0
  8 13  1  0
  9 10  1  0
 10 11  2  0
 11 12  1  0
 12 13  2  0
 13 14  1  0
 14 15  2  0
 14 16  1  0
 15 19  1  0
 16 17  2  0
 17 18  1  0
 18 19  2  0
 19 20  1  0
 20 21  1  0
 21 22  1  0
 21 26  1  0
 21 30  1  1
 22 23  1  6
 22 24  2  0
 22 25  1  0
 26 27  2  0
 26 28  1  6
 26 29  1  0
M  END
$$$$
