
     RDKit          3D

 30 33  0  0  0  0  0  0  0  0999 V2000
   63.3747   -3.6840   25.4678 C   0  0  0  0  0  0  0  0  0  0  0  0
   64.5192   -4.2544   25.9806 C   0  0  0  0  0  0  0  0  0  0  0  0
   65.1551   -5.3255   25.3679 C   0  0  0  0  0  0  0  0  0  0  0  0
   64.5992   -5.8234   24.1968 C   0  0  0  0  0  0  0  0  0  0  0  0
   63.4530   -5.2449   23.6919 C   0  0  0  0  0  0  0  0  0  0  0  0
   62.8180   -4.1785   24.2998 C   0  0  0  0  0  0  0  0  0  0  0  0
   61.7501   -3.4604   24.0426 O   0  0  0  0  0  0  0  0  0  0  0  0
   61.5777   -2.5354   24.9638 C   0  0  0  0  0  0  0  0  0  0  0  0
   62.5932   -2.6262   25.9129 C   0  0  0  0  0  0  0  0  0  0  0  0
   62.6344   -1.7601   26.9864 C   0  0  0  0  0  0  0  0  0  0  0  0
   61.6387   -0.7948   27.0985 C   0  0  0  0  0  0  0  0  0  0  0  0
   60.6359   -0.7240   26.1389 C   0  0  0  0  0  0  0  0  0  0  0  0
   60.5831   -1.5835   25.0611 C   0  0  0  0  0  0  0  0  0  0  0  0
   59.5378   -1.5243   24.0434 C   0  0  0  0  0  0  0  0  0  0  0  0
   59.2607   -0.3430   23.3892 C   0  0  0  0  0  0  0  0  0  0  0  0
   58.7860   -2.6273   23.6894 C   0  0  0  0  0  0  0  0  0  0  0  0
   57.7936   -2.5541   22.7176 C   0  0  0  0  0  0  0  0  0  0  0  0
   57.5309   -1.3629   22.0739 C   0  0  0  0  0  0  0  0  0  0  0  0
   58.2671   -0.2463   22.4086 C   0  0  0  0  0  0  0  0  0  0  0  0
   57.9938    1.0360   21.7205 C   0  0  0  0  0  0  0  0  0  0  0  0
   58.5686    1.0646   20.3227 C   0  0  1  0  0  0  0  0  0  0  0  0
   57.6078    0.0457   19.1845 P   0  0  2  0  0  5  0  0  0  0  0  0
   55.9478    0.2390   19.3897 O   0  0  0  0  0  0  0  0  0  0  0  0
   57.9099   -1.4383   19.4039 O   0  0  0  0  0  0  0  0  0  0  0  0
   57.9936    0.3659   17.5649 O   0  0  0  0  0  0  0  0  0  0  0  0
   58.5960    2.7455   19.6472 P   0  0  1  0  0  5  0  0  0  0  0  0
   57.1672    3.1051   19.2264 O   0  0  0  0  0  0  0  0  0  0  0  0
   59.0467    3.8743   20.8040 O   0  0  0  0  0  0  0  0  0  0  0  0
   59.5311    2.8539   18.2435 O   0  0  0  0  0  0  0  0  0  0  0  0
   59.8566    0.5528   20.3974 O   0  0  0  0  0  0  0  0  0  0  0  0
  1  2  2  0
  1  6  1  0
  1  9  1  0
  2  3  1  0
  3  4  2  0
  4  5  1  0
  5  6  2  0
  6  7  1  0
  7  8  1  0
  8  9  2  0
  8 13  1  0
  9 10  1  0
 10 11  2  0
 11 12  1  0
 12 13  2  0
 13 14  1  0
 14 15  2  0
 14 16  1  0
 15 19  1  0
 16 17  2  0
 17 18  1  0
 18 19  2  0
 19 20  1  0
 20 21  1  0
 21 22  1  0
 21 26  1  0
 21 30  1  1
 22 23  1  6
 22 24  2  0
 22 25  1  0
 26 27  2  0
 26 28  1  1
 26 29  1  0
M  END
$$$$
