
     RDKit          3D

 23 24  0  0  0  0  0  0  0  0999 V2000
   -6.9995  -33.8734  -15.7442 C   0  0  1  0  0  0  0  0  0  0  0  0
   -7.9932  -35.0240  -15.9058 C   0  0  1  0  0  0  0  0  0  0  0  0
   -7.4270  -36.1315  -16.7607 C   0  0  2  0  0  0  0  0  0  0  0  0
   -5.9201  -36.0340  -16.7383 C   0  0  1  0  0  0  0  0  0  0  0  0
   -5.5409  -35.6099  -15.3149 C   0  0  1  0  0  0  0  0  0  0  0  0
   -4.0561  -35.8531  -15.1767 C   0  0  0  0  0  0  0  0  0  0  0  0
   -7.6908  -32.8562  -15.0986 O   0  0  0  0  0  0  0  0  0  0  0  0
   -8.4132  -35.4810  -14.6617 O   0  0  0  0  0  0  0  0  0  0  0  0
   -7.8405  -35.9758  -18.0823 O   0  0  0  0  0  0  0  0  0  0  0  0
   -5.3925  -37.2695  -17.0236 O   0  0  0  0  0  0  0  0  0  0  0  0
   -5.8690  -34.2962  -15.0934 O   0  0  0  0  0  0  0  0  0  0  0  0
   -3.2935  -35.1204  -16.0542 O   0  0  0  0  0  0  0  0  0  0  0  0
   -6.7969  -29.2338  -13.5034 C   0  0  1  0  0  0  0  0  0  0  0  0
   -7.7395  -29.3507  -14.6436 C   0  0  1  0  0  0  0  0  0  0  0  0
   -7.4973  -30.5021  -15.5585 C   0  0  2  0  0  0  0  0  0  0  0  0
   -6.9464  -31.7258  -14.8753 C   0  0  1  0  0  0  0  0  0  0  0  0
   -6.7907  -31.4759  -13.4004 C   0  0  1  0  0  0  0  0  0  0  0  0
   -6.1337  -32.6410  -12.7253 C   0  0  0  0  0  0  0  0  0  0  0  0
   -7.5369  -28.9854  -12.3240 O   0  0  0  0  0  0  0  0  0  0  0  0
   -9.0845  -29.3482  -14.2049 O   0  0  0  0  0  0  0  0  0  0  0  0
   -6.7379  -30.1463  -16.6717 O   0  0  0  0  0  0  0  0  0  0  0  0
   -5.9956  -30.3214  -13.2792 O   0  0  0  0  0  0  0  0  0  0  0  0
   -5.0953  -32.2207  -11.8982 O   0  0  0  0  0  0  0  0  0  0  0  0
  1  2  1  0
  1  7  1  1
  1 11  1  0
  2  3  1  0
  2  8  1  1
  3  4  1  0
  3  9  1  6
  5  4  1  0
  4 10  1  1
  5  6  1  0
  5 11  1  6
  6 12  1  6
 16  7  1  1
 13 14  1  0
 13 19  1  1
 22 13  1  0
 15 14  1  0
 14 20  1  1
 16 15  1  0
 15 21  1  6
 17 16  1  0
 18 17  1  0
 17 22  1  6
 18 23  1  6
M  END
$$$$
