
     RDKit          3D

 23 24  0  0  0  0  0  0  0  0999 V2000
   -6.7920  -31.8607  -14.3293 C   0  0  1  0  0  0  0  0  0  0  0  0
   -8.0288  -31.0288  -14.1266 C   0  0  1  0  0  0  0  0  0  0  0  0
   -7.5985  -29.8222  -13.3022 C   0  0  2  0  0  0  0  0  0  0  0  0
   -6.1098  -29.6159  -13.3541 C   0  0  1  0  0  0  0  0  0  0  0  0
   -5.5035  -30.0310  -14.6678 C   0  0  1  0  0  0  0  0  0  0  0  0
   -3.9944  -30.0534  -14.4777 C   0  0  0  0  0  0  0  0  0  0  0  0
   -7.0262  -33.1682  -14.6629 O   0  0  0  0  0  0  0  0  0  0  0  0
   -8.5742  -30.5424  -15.2907 O   0  0  0  0  0  0  0  0  0  0  0  0
   -8.0080  -30.0566  -11.9917 O   0  0  0  0  0  0  0  0  0  0  0  0
   -5.8055  -28.2692  -13.1659 O   0  0  0  0  0  0  0  0  0  0  0  0
   -5.9562  -31.2000  -15.1975 O   0  0  0  0  0  0  0  0  0  0  0  0
   -3.6965  -30.2160  -13.1027 O   0  0  0  0  0  0  0  0  0  0  0  0
   -6.5170  -35.7007  -17.3021 C   0  0  1  0  0  0  0  0  0  0  0  0
   -6.6967  -36.1523  -15.8921 C   0  0  1  0  0  0  0  0  0  0  0  0
   -5.9802  -35.3279  -14.8796 C   0  0  2  0  0  0  0  0  0  0  0  0
   -5.9571  -33.8600  -15.1852 C   0  0  1  0  0  0  0  0  0  0  0  0
   -5.9550  -33.5836  -16.6791 C   0  0  1  0  0  0  0  0  0  0  0  0
   -4.5426  -33.6606  -17.1695 C   0  0  0  0  0  0  0  0  0  0  0  0
   -7.4678  -36.4019  -18.0807 O   0  0  0  0  0  0  0  0  0  0  0  0
   -8.0528  -36.1381  -15.5836 O   0  0  0  0  0  0  0  0  0  0  0  0
   -4.6650  -35.8258  -14.7975 O   0  0  0  0  0  0  0  0  0  0  0  0
   -6.8430  -34.3537  -17.3727 O   0  0  0  0  0  0  0  0  0  0  0  0
   -4.5639  -33.3879  -18.5482 O   0  0  0  0  0  0  0  0  0  0  0  0
  1  2  1  0
  1  7  1  6
  1 11  1  0
  2  3  1  0
  2  8  1  6
  3  4  1  0
  3  9  1  1
  5  4  1  0
  4 10  1  6
  5  6  1  1
 11  5  1  0
  6 12  1  0
 16  7  1  1
 13 14  1  0
 13 19  1  6
 22 13  1  0
 15 14  1  0
 14 20  1  1
 16 15  1  0
 15 21  1  6
 17 16  1  0
 17 18  1  6
 17 22  1  0
 23 18  1  0
M  END
$$$$
