
     RDKit          3D

 23 24  0  0  0  0  0  0  0  0999 V2000
   -6.9115  -33.7263  -15.6429 C   0  0  1  0  0  0  0  0  0  0  0  0
   -7.9226  -34.8056  -16.0303 C   0  0  1  0  0  0  0  0  0  0  0  0
   -7.2971  -35.8650  -16.9046 C   0  0  2  0  0  0  0  0  0  0  0  0
   -5.8029  -35.8487  -16.6858 C   0  0  1  0  0  0  0  0  0  0  0  0
   -5.5930  -35.5666  -15.1939 C   0  0  1  0  0  0  0  0  0  0  0  0
   -4.1496  -35.8980  -14.8942 C   0  0  0  0  0  0  0  0  0  0  0  0
   -7.6376  -32.7324  -14.9992 O   0  0  0  0  0  0  0  0  0  0  0  0
   -8.5176  -35.3433  -14.8947 O   0  0  0  0  0  0  0  0  0  0  0  0
   -7.5303  -35.5770  -18.2479 O   0  0  0  0  0  0  0  0  0  0  0  0
   -5.2942  -37.0816  -17.0137 O   0  0  0  0  0  0  0  0  0  0  0  0
   -5.8925  -34.2610  -14.8972 O   0  0  0  0  0  0  0  0  0  0  0  0
   -3.2709  -35.4488  -15.8506 O   0  0  0  0  0  0  0  0  0  0  0  0
   -6.8151  -29.2473  -13.0905 C   0  0  1  0  0  0  0  0  0  0  0  0
   -7.6522  -29.2639  -14.3158 C   0  0  1  0  0  0  0  0  0  0  0  0
   -7.3524  -30.3596  -15.2808 C   0  0  2  0  0  0  0  0  0  0  0  0
   -6.8925  -31.6398  -14.6348 C   0  0  1  0  0  0  0  0  0  0  0  0
   -6.8666  -31.4907  -13.1384 C   0  0  1  0  0  0  0  0  0  0  0  0
   -6.2991  -32.7148  -12.4870 C   0  0  0  0  0  0  0  0  0  0  0  0
   -7.6540  -29.0558  -11.9682 O   0  0  0  0  0  0  0  0  0  0  0  0
   -9.0312  -29.2529  -14.0001 O   0  0  0  0  0  0  0  0  0  0  0  0
   -6.4872  -29.9532  -16.2950 O   0  0  0  0  0  0  0  0  0  0  0  0
   -6.0612  -30.3688  -12.8691 O   0  0  0  0  0  0  0  0  0  0  0  0
   -5.4670  -33.4081  -13.3623 O   0  0  0  0  0  0  0  0  0  0  0  0
  1  2  1  0
  1  7  1  1
  1 11  1  0
  2  3  1  0
  2  8  1  1
  3  4  1  0
  3  9  1  6
  5  4  1  0
  4 10  1  1
  5  6  1  0
  5 11  1  6
  6 12  1  6
 16  7  1  1
 13 14  1  0
 13 19  1  1
 22 13  1  0
 15 14  1  0
 14 20  1  1
 16 15  1  0
 15 21  1  6
 17 16  1  0
 18 17  1  0
 17 22  1  6
 18 23  1  6
M  END
$$$$
