
     RDKit          3D

 23 24  0  0  0  0  0  0  0  0999 V2000
   -6.3093  -32.5132  -14.1384 C   0  0  1  0  0  0  0  0  0  0  0  0
   -7.7192  -31.9887  -13.8653 C   0  0  1  0  0  0  0  0  0  0  0  0
   -7.7046  -30.5286  -13.4831 C   0  0  2  0  0  0  0  0  0  0  0  0
   -6.4303  -29.9076  -14.0039 C   0  0  1  0  0  0  0  0  0  0  0  0
   -6.1608  -30.5626  -15.3633 C   0  0  1  0  0  0  0  0  0  0  0  0
   -5.1140  -29.7146  -16.0474 C   0  0  0  0  0  0  0  0  0  0  0  0
   -6.4351  -33.8867  -14.3020 O   0  0  0  0  0  0  0  0  0  0  0  0
   -8.5497  -32.2408  -14.9513 O   0  0  0  0  0  0  0  0  0  0  0  0
   -7.7026  -30.3963  -12.0960 O   0  0  0  0  0  0  0  0  0  0  0  0
   -6.6265  -28.5569  -14.1565 O   0  0  0  0  0  0  0  0  0  0  0  0
   -5.7472  -31.8613  -15.2058 O   0  0  0  0  0  0  0  0  0  0  0  0
   -4.0718  -29.3567  -15.2262 O   0  0  0  0  0  0  0  0  0  0  0  0
   -6.2466  -36.1640  -17.6553 C   0  0  1  0  0  0  0  0  0  0  0  0
   -5.8781  -36.7267  -16.3324 C   0  0  1  0  0  0  0  0  0  0  0  0
   -5.3286  -35.7482  -15.3515 C   0  0  2  0  0  0  0  0  0  0  0  0
   -5.9060  -34.3630  -15.4747 C   0  0  1  0  0  0  0  0  0  0  0  0
   -6.9304  -34.3192  -16.5751 C   0  0  1  0  0  0  0  0  0  0  0  0
   -7.4283  -32.9224  -16.7893 C   0  0  0  0  0  0  0  0  0  0  0  0
   -7.5193  -36.6593  -18.0225 O   0  0  0  0  0  0  0  0  0  0  0  0
   -6.9535  -37.4446  -15.7582 O   0  0  0  0  0  0  0  0  0  0  0  0
   -3.9351  -35.7280  -15.3441 O   0  0  0  0  0  0  0  0  0  0  0  0
   -6.2862  -34.7973  -17.7310 O   0  0  0  0  0  0  0  0  0  0  0  0
   -6.7707  -32.3140  -17.8554 O   0  0  0  0  0  0  0  0  0  0  0  0
  1  2  1  0
  1  7  1  6
  1 11  1  0
  2  3  1  0
  2  8  1  6
  3  4  1  0
  3  9  1  1
  5  4  1  0
  4 10  1  6
  5  6  1  0
  5 11  1  1
  6 12  1  6
 16  7  1  1
 13 14  1  0
 13 19  1  1
 22 13  1  0
 15 14  1  0
 14 20  1  1
 16 15  1  0
 15 21  1  6
 17 16  1  0
 18 17  1  0
 17 22  1  6
 18 23  1  6
M  END
$$$$
