
     RDKit          3D

 23 24  0  0  0  0  0  0  0  0999 V2000
   -7.0623  -33.7842  -15.0442 C   0  0  1  0  0  0  0  0  0  0  0  0
   -6.9196  -35.0811  -14.2474 C   0  0  1  0  0  0  0  0  0  0  0  0
   -6.9979  -36.2944  -15.1418 C   0  0  2  0  0  0  0  0  0  0  0  0
   -6.6470  -35.8773  -16.5502 C   0  0  1  0  0  0  0  0  0  0  0  0
   -5.5341  -34.8313  -16.4209 C   0  0  1  0  0  0  0  0  0  0  0  0
   -4.9335  -34.6723  -17.7982 C   0  0  0  0  0  0  0  0  0  0  0  0
   -7.1522  -32.7642  -14.1056 O   0  0  0  0  0  0  0  0  0  0  0  0
   -5.7542  -35.0595  -13.4896 O   0  0  0  0  0  0  0  0  0  0  0  0
   -8.2991  -36.7926  -15.1608 O   0  0  0  0  0  0  0  0  0  0  0  0
   -6.1907  -36.9760  -17.2363 O   0  0  0  0  0  0  0  0  0  0  0  0
   -6.0310  -33.6472  -15.9374 O   0  0  0  0  0  0  0  0  0  0  0  0
   -5.8685  -34.6107  -18.8034 O   0  0  0  0  0  0  0  0  0  0  0  0
   -6.7500  -28.7299  -14.2746 C   0  0  1  0  0  0  0  0  0  0  0  0
   -7.8557  -29.3521  -13.5050 C   0  0  1  0  0  0  0  0  0  0  0  0
   -8.3312  -30.6682  -14.0182 C   0  0  2  0  0  0  0  0  0  0  0  0
   -7.2528  -31.5087  -14.6492 C   0  0  1  0  0  0  0  0  0  0  0  0
   -5.9299  -30.7959  -14.5861 C   0  0  1  0  0  0  0  0  0  0  0  0
   -4.8705  -31.5657  -15.3140 C   0  0  0  0  0  0  0  0  0  0  0  0
   -5.7694  -28.2644  -13.3681 O   0  0  0  0  0  0  0  0  0  0  0  0
   -7.5381  -29.4485  -12.1297 O   0  0  0  0  0  0  0  0  0  0  0  0
   -9.4426  -30.5446  -14.8500 O   0  0  0  0  0  0  0  0  0  0  0  0
   -6.1308  -29.5404  -15.1885 O   0  0  0  0  0  0  0  0  0  0  0  0
   -3.6918  -30.8301  -15.4078 O   0  0  0  0  0  0  0  0  0  0  0  0
  1  2  1  0
  1  7  1  1
  1 11  1  0
  2  3  1  0
  2  8  1  6
  3  4  1  0
  3  9  1  6
  5  4  1  0
  4 10  1  6
  5  6  1  0
  5 11  1  6
  6 12  1  6
 16  7  1  1
 13 14  1  0
 13 19  1  1
 22 13  1  0
 15 14  1  0
 14 20  1  1
 16 15  1  0
 15 21  1  6
 17 16  1  0
 18 17  1  0
 17 22  1  6
 18 23  1  6
M  END
$$$$
