
     RDKit          3D

 23 24  0  0  0  0  0  0  0  0999 V2000
   -6.8797  -31.9590  -14.3341 C   0  0  1  0  0  0  0  0  0  0  0  0
   -7.8271  -30.7909  -14.3101 C   0  0  1  0  0  0  0  0  0  0  0  0
   -7.5852  -30.0752  -12.9873 C   0  0  2  0  0  0  0  0  0  0  0  0
   -6.2579  -30.4492  -12.3875 C   0  0  1  0  0  0  0  0  0  0  0  0
   -5.2048  -30.7394  -13.4232 C   0  0  1  0  0  0  0  0  0  0  0  0
   -4.0310  -31.3829  -12.7006 C   0  0  0  0  0  0  0  0  0  0  0  0
   -7.2183  -32.9568  -15.2090 O   0  0  0  0  0  0  0  0  0  0  0  0
   -7.6078  -29.8707  -15.3073 O   0  0  0  0  0  0  0  0  0  0  0  0
   -8.6217  -30.4392  -12.1310 O   0  0  0  0  0  0  0  0  0  0  0  0
   -5.7803  -29.4087  -11.5932 O   0  0  0  0  0  0  0  0  0  0  0  0
   -5.6001  -31.4831  -14.4922 O   0  0  0  0  0  0  0  0  0  0  0  0
   -3.5279  -30.4843  -11.7284 O   0  0  0  0  0  0  0  0  0  0  0  0
   -6.2568  -35.4598  -17.7484 C   0  0  1  0  0  0  0  0  0  0  0  0
   -7.3141  -35.8070  -16.7555 C   0  0  1  0  0  0  0  0  0  0  0  0
   -7.0332  -35.3540  -15.3648 C   0  0  2  0  0  0  0  0  0  0  0  0
   -6.3496  -34.0222  -15.2770 C   0  0  1  0  0  0  0  0  0  0  0  0
   -5.4428  -33.7617  -16.4677 C   0  0  1  0  0  0  0  0  0  0  0  0
   -4.1185  -34.4069  -16.2001 C   0  0  0  0  0  0  0  0  0  0  0  0
   -6.8026  -35.7058  -19.0304 O   0  0  0  0  0  0  0  0  0  0  0  0
   -8.5177  -35.2411  -17.1622 O   0  0  0  0  0  0  0  0  0  0  0  0
   -6.2378  -36.3469  -14.7599 O   0  0  0  0  0  0  0  0  0  0  0  0
   -6.0100  -34.0969  -17.6629 O   0  0  0  0  0  0  0  0  0  0  0  0
   -3.1425  -33.6505  -16.8716 O   0  0  0  0  0  0  0  0  0  0  0  0
  1  2  1  0
  1  7  1  6
  1 11  1  0
  2  3  1  0
  2  8  1  6
  3  4  1  0
  3  9  1  1
  5  4  1  0
  4 10  1  1
  5  6  1  1
 11  5  1  0
  6 12  1  0
 16  7  1  6
 13 14  1  0
 13 19  1  6
 22 13  1  0
 15 14  1  0
 14 20  1  6
 16 15  1  0
 15 21  1  6
 17 16  1  0
 17 18  1  1
 17 22  1  0
 23 18  1  0
M  END
$$$$
