
     RDKit          3D

 23 24  0  0  0  0  0  0  0  0999 V2000
   -6.6930  -33.2909  -15.0531 C   0  0  1  0  0  0  0  0  0  0  0  0
   -6.7514  -32.0568  -14.1950 C   0  0  1  0  0  0  0  0  0  0  0  0
   -6.6695  -32.5387  -12.7521 C   0  0  2  0  0  0  0  0  0  0  0  0
   -6.1208  -33.9361  -12.6632 C   0  0  1  0  0  0  0  0  0  0  0  0
   -5.1147  -34.2430  -13.7398 C   0  0  1  0  0  0  0  0  0  0  0  0
   -4.8762  -35.7452  -13.7151 C   0  0  0  0  0  0  0  0  0  0  0  0
   -7.1721  -33.1299  -16.3260 O   0  0  0  0  0  0  0  0  0  0  0  0
   -5.7014  -31.1908  -14.3864 O   0  0  0  0  0  0  0  0  0  0  0  0
   -7.9611  -32.4932  -12.2328 O   0  0  0  0  0  0  0  0  0  0  0  0
   -5.4849  -34.1244  -11.4377 O   0  0  0  0  0  0  0  0  0  0  0  0
   -5.4211  -33.8078  -14.9924 O   0  0  0  0  0  0  0  0  0  0  0  0
   -5.6336  -36.3240  -12.6676 O   0  0  0  0  0  0  0  0  0  0  0  0
   -6.2155  -33.3965  -19.8829 C   0  0  1  0  0  0  0  0  0  0  0  0
   -7.6563  -33.5007  -19.5123 C   0  0  1  0  0  0  0  0  0  0  0  0
   -7.9264  -34.3060  -18.2889 C   0  0  2  0  0  0  0  0  0  0  0  0
   -6.8979  -34.1495  -17.2090 C   0  0  1  0  0  0  0  0  0  0  0  0
   -5.5134  -33.8717  -17.7693 C   0  0  1  0  0  0  0  0  0  0  0  0
   -4.8774  -35.1806  -18.1211 C   0  0  0  0  0  0  0  0  0  0  0  0
   -6.1194  -32.3906  -20.8733 O   0  0  0  0  0  0  0  0  0  0  0  0
   -8.1638  -32.2214  -19.3115 O   0  0  0  0  0  0  0  0  0  0  0  0
   -8.0048  -35.6539  -18.6908 O   0  0  0  0  0  0  0  0  0  0  0  0
   -5.5121  -32.9481  -18.7740 O   0  0  0  0  0  0  0  0  0  0  0  0
   -3.5685  -35.1597  -17.6090 O   0  0  0  0  0  0  0  0  0  0  0  0
  1  2  1  0
  1  7  1  6
  1 11  1  0
  2  3  1  0
  2  8  1  6
  3  4  1  0
  3  9  1  6
  5  4  1  0
  4 10  1  1
  5  6  1  6
 11  5  1  0
  6 12  1  0
 16  7  1  1
 13 14  1  0
 13 19  1  6
 22 13  1  0
 15 14  1  0
 14 20  1  1
 16 15  1  0
 15 21  1  6
 17 16  1  0
 17 18  1  6
 17 22  1  0
 23 18  1  0
M  END
$$$$
