
     RDKit          3D

 23 24  0  0  0  0  0  0  0  0999 V2000
   -6.5646  -32.5386  -14.5314 C   0  0  1  0  0  0  0  0  0  0  0  0
   -7.8339  -31.8198  -14.1639 C   0  0  1  0  0  0  0  0  0  0  0  0
   -7.4079  -30.5517  -13.4351 C   0  0  2  0  0  0  0  0  0  0  0  0
   -5.9698  -30.2088  -13.7106 C   0  0  1  0  0  0  0  0  0  0  0  0
   -5.5234  -30.6086  -15.0913 C   0  0  1  0  0  0  0  0  0  0  0  0
   -4.0078  -30.4834  -15.1260 C   0  0  0  0  0  0  0  0  0  0  0  0
   -6.7163  -33.8726  -14.8019 O   0  0  0  0  0  0  0  0  0  0  0  0
   -8.5875  -31.4253  -15.2436 O   0  0  0  0  0  0  0  0  0  0  0  0
   -7.5978  -30.7798  -12.0743 O   0  0  0  0  0  0  0  0  0  0  0  0
   -5.7740  -28.8340  -13.5950 O   0  0  0  0  0  0  0  0  0  0  0  0
   -5.9323  -31.8317  -15.5260 O   0  0  0  0  0  0  0  0  0  0  0  0
   -3.5143  -30.3812  -13.8024 O   0  0  0  0  0  0  0  0  0  0  0  0
   -6.6164  -36.4331  -17.4611 C   0  0  1  0  0  0  0  0  0  0  0  0
   -6.3333  -36.8405  -16.0546 C   0  0  1  0  0  0  0  0  0  0  0  0
   -5.4845  -35.8850  -15.2900 C   0  0  2  0  0  0  0  0  0  0  0  0
   -5.7496  -34.4418  -15.5994 C   0  0  1  0  0  0  0  0  0  0  0  0
   -6.2008  -34.2350  -17.0352 C   0  0  1  0  0  0  0  0  0  0  0  0
   -4.9835  -34.1491  -17.9027 C   0  0  0  0  0  0  0  0  0  0  0  0
   -7.6400  -37.2866  -17.9363 O   0  0  0  0  0  0  0  0  0  0  0  0
   -7.5388  -36.9894  -15.3771 O   0  0  0  0  0  0  0  0  0  0  0  0
   -4.1427  -36.2029  -15.5780 O   0  0  0  0  0  0  0  0  0  0  0  0
   -7.1315  -35.1447  -17.4459 O   0  0  0  0  0  0  0  0  0  0  0  0
   -5.3602  -33.4919  -19.0866 O   0  0  0  0  0  0  0  0  0  0  0  0
  1  2  1  0
  1  7  1  6
  1 11  1  0
  2  3  1  0
  2  8  1  6
  3  4  1  0
  3  9  1  1
  5  4  1  0
  4 10  1  6
  5  6  1  1
 11  5  1  0
  6 12  1  0
 16  7  1  1
 13 14  1  0
 13 19  1  1
 22 13  1  0
 15 14  1  0
 14 20  1  1
 16 15  1  0
 15 21  1  6
 17 16  1  0
 17 18  1  6
 17 22  1  0
 23 18  1  0
M  END
$$$$
