
     RDKit          3D

 23 24  0  0  0  0  0  0  0  0999 V2000
   -6.7619  -33.1759  -14.5132 C   0  0  1  0  0  0  0  0  0  0  0  0
   -6.1680  -34.1443  -13.4901 C   0  0  1  0  0  0  0  0  0  0  0  0
   -6.1684  -35.5639  -14.0029 C   0  0  2  0  0  0  0  0  0  0  0  0
   -6.2311  -35.5304  -15.5114 C   0  0  1  0  0  0  0  0  0  0  0  0
   -5.3752  -34.3361  -15.9478 C   0  0  1  0  0  0  0  0  0  0  0  0
   -5.1366  -34.4992  -17.4309 C   0  0  0  0  0  0  0  0  0  0  0  0
   -6.8693  -31.9515  -13.8664 O   0  0  0  0  0  0  0  0  0  0  0  0
   -4.9005  -33.7243  -13.1029 O   0  0  0  0  0  0  0  0  0  0  0  0
   -7.3004  -36.2374  -13.5481 O   0  0  0  0  0  0  0  0  0  0  0  0
   -5.7032  -36.6995  -16.0022 O   0  0  0  0  0  0  0  0  0  0  0  0
   -6.0042  -33.1522  -15.6558 O   0  0  0  0  0  0  0  0  0  0  0  0
   -6.2927  -34.5865  -18.1687 O   0  0  0  0  0  0  0  0  0  0  0  0
   -7.3728  -28.1717  -15.2543 C   0  0  1  0  0  0  0  0  0  0  0  0
   -7.9885  -28.5997  -13.9736 C   0  0  1  0  0  0  0  0  0  0  0  0
   -8.3386  -30.0458  -13.8837 C   0  0  2  0  0  0  0  0  0  0  0  0
   -7.4048  -30.9532  -14.6401 C   0  0  1  0  0  0  0  0  0  0  0  0
   -6.3164  -30.1516  -15.2996 C   0  0  1  0  0  0  0  0  0  0  0  0
   -5.4483  -31.0255  -16.1525 C   0  0  0  0  0  0  0  0  0  0  0  0
   -6.2516  -27.3577  -14.9712 O   0  0  0  0  0  0  0  0  0  0  0  0
   -7.1958  -28.2179  -12.8658 O   0  0  0  0  0  0  0  0  0  0  0  0
   -9.6718  -30.2913  -14.2071 O   0  0  0  0  0  0  0  0  0  0  0  0
   -6.9644  -29.1807  -16.0852 O   0  0  0  0  0  0  0  0  0  0  0  0
   -4.4224  -30.2907  -16.7415 O   0  0  0  0  0  0  0  0  0  0  0  0
  1  2  1  0
  1  7  1  1
  1 11  1  0
  2  3  1  0
  2  8  1  6
  3  4  1  0
  3  9  1  1
  5  4  1  0
  4 10  1  6
  5  6  1  0
  5 11  1  6
  6 12  1  6
 16  7  1  1
 13 14  1  0
 13 19  1  1
 22 13  1  0
 15 14  1  0
 14 20  1  1
 16 15  1  0
 15 21  1  6
 17 16  1  0
 18 17  1  0
 17 22  1  6
 18 23  1  6
M  END
$$$$
