
     RDKit          3D

 23 24  0  0  0  0  0  0  0  0999 V2000
   -7.0678  -33.6155  -15.9855 C   0  0  1  0  0  0  0  0  0  0  0  0
   -8.0994  -34.6895  -16.3312 C   0  0  1  0  0  0  0  0  0  0  0  0
   -7.4731  -35.8417  -17.0784 C   0  0  2  0  0  0  0  0  0  0  0  0
   -5.9917  -35.8570  -16.7848 C   0  0  1  0  0  0  0  0  0  0  0  0
   -5.8440  -35.4533  -15.3135 C   0  0  1  0  0  0  0  0  0  0  0  0
   -4.4306  -35.8061  -14.9124 C   0  0  0  0  0  0  0  0  0  0  0  0
   -7.7859  -32.5453  -15.4673 O   0  0  0  0  0  0  0  0  0  0  0  0
   -8.7691  -35.1059  -15.1862 O   0  0  0  0  0  0  0  0  0  0  0  0
   -7.6295  -35.6640  -18.4516 O   0  0  0  0  0  0  0  0  0  0  0  0
   -5.5153  -37.1304  -16.9796 O   0  0  0  0  0  0  0  0  0  0  0  0
   -6.1074  -34.1174  -15.1452 O   0  0  0  0  0  0  0  0  0  0  0  0
   -3.5242  -34.7996  -15.1449 O   0  0  0  0  0  0  0  0  0  0  0  0
   -6.9732  -29.4805  -12.9351 C   0  0  1  0  0  0  0  0  0  0  0  0
   -7.5937  -29.2284  -14.2594 C   0  0  1  0  0  0  0  0  0  0  0  0
   -7.2405  -30.2057  -15.3279 C   0  0  2  0  0  0  0  0  0  0  0  0
   -7.0139  -31.6082  -14.8287 C   0  0  1  0  0  0  0  0  0  0  0  0
   -7.2226  -31.6739  -13.3407 C   0  0  1  0  0  0  0  0  0  0  0  0
   -6.8861  -33.0346  -12.8114 C   0  0  0  0  0  0  0  0  0  0  0  0
   -7.9652  -29.3520  -11.9353 O   0  0  0  0  0  0  0  0  0  0  0  0
   -8.9990  -29.1019  -14.1563 O   0  0  0  0  0  0  0  0  0  0  0  0
   -6.1856  -29.7644  -16.1246 O   0  0  0  0  0  0  0  0  0  0  0  0
   -6.3730  -30.7017  -12.7814 O   0  0  0  0  0  0  0  0  0  0  0  0
   -6.8255  -33.0302  -11.4202 O   0  0  0  0  0  0  0  0  0  0  0  0
  1  2  1  0
  1  7  1  1
  1 11  1  0
  2  3  1  0
  2  8  1  1
  3  4  1  0
  3  9  1  6
  5  4  1  0
  4 10  1  1
  5  6  1  0
  5 11  1  6
  6 12  1  6
 16  7  1  6
 13 14  1  0
 13 19  1  1
 22 13  1  0
 15 14  1  0
 14 20  1  1
 16 15  1  0
 15 21  1  1
 17 16  1  0
 18 17  1  0
 17 22  1  1
 18 23  1  6
M  END
$$$$
