
     RDKit          3D

 23 24  0  0  0  0  0  0  0  0999 V2000
   -6.2577  -33.2728  -14.7508 C   0  0  1  0  0  0  0  0  0  0  0  0
   -5.6304  -34.2832  -13.7902 C   0  0  1  0  0  0  0  0  0  0  0  0
   -5.8319  -35.7014  -14.2657 C   0  0  2  0  0  0  0  0  0  0  0  0
   -6.0867  -35.6781  -15.7541 C   0  0  1  0  0  0  0  0  0  0  0  0
   -5.1855  -34.5771  -16.3243 C   0  0  1  0  0  0  0  0  0  0  0  0
   -5.1583  -34.7784  -17.8215 C   0  0  0  0  0  0  0  0  0  0  0  0
   -6.1637  -32.0368  -14.1241 O   0  0  0  0  0  0  0  0  0  0  0  0
   -4.2893  -33.9839  -13.5787 O   0  0  0  0  0  0  0  0  0  0  0  0
   -6.9538  -36.2571  -13.6539 O   0  0  0  0  0  0  0  0  0  0  0  0
   -5.7403  -36.8980  -16.2814 O   0  0  0  0  0  0  0  0  0  0  0  0
   -5.6562  -33.3348  -15.9815 O   0  0  0  0  0  0  0  0  0  0  0  0
   -6.3851  -35.0868  -18.3585 O   0  0  0  0  0  0  0  0  0  0  0  0
   -7.5930  -28.3010  -14.8075 C   0  0  1  0  0  0  0  0  0  0  0  0
   -7.8610  -28.9944  -13.5231 C   0  0  1  0  0  0  0  0  0  0  0  0
   -7.9236  -30.4816  -13.5997 C   0  0  2  0  0  0  0  0  0  0  0  0
   -7.0088  -31.0836  -14.6332 C   0  0  1  0  0  0  0  0  0  0  0  0
   -6.2303  -30.0048  -15.3348 C   0  0  1  0  0  0  0  0  0  0  0  0
   -5.4036  -30.5761  -16.4461 C   0  0  0  0  0  0  0  0  0  0  0  0
   -6.6014  -27.3154  -14.5950 O   0  0  0  0  0  0  0  0  0  0  0  0
   -6.9485  -28.5937  -12.5190 O   0  0  0  0  0  0  0  0  0  0  0  0
   -9.2288  -30.9531  -13.7280 O   0  0  0  0  0  0  0  0  0  0  0  0
   -7.1814  -29.0998  -15.8409 O   0  0  0  0  0  0  0  0  0  0  0  0
   -4.5589  -31.5792  -15.9776 O   0  0  0  0  0  0  0  0  0  0  0  0
  1  2  1  0
  1  7  1  1
  1 11  1  0
  2  3  1  0
  2  8  1  6
  3  4  1  0
  3  9  1  1
  5  4  1  0
  4 10  1  6
  5  6  1  0
  5 11  1  6
  6 12  1  6
 16  7  1  1
 13 14  1  0
 13 19  1  1
 22 13  1  0
 15 14  1  0
 14 20  1  1
 16 15  1  0
 15 21  1  6
 17 16  1  0
 18 17  1  0
 17 22  1  6
 18 23  1  6
M  END
$$$$
