
     RDKit          3D

 23 24  0  0  0  0  0  0  0  0999 V2000
   -7.1173  -33.7610  -15.6273 C   0  0  1  0  0  0  0  0  0  0  0  0
   -8.0407  -34.9403  -15.4879 C   0  0  1  0  0  0  0  0  0  0  0  0
   -7.8555  -35.7758  -16.7482 C   0  0  2  0  0  0  0  0  0  0  0  0
   -6.5701  -35.4409  -17.4532 C   0  0  1  0  0  0  0  0  0  0  0  0
   -5.4692  -35.0368  -16.5096 C   0  0  1  0  0  0  0  0  0  0  0  0
   -4.3492  -34.4478  -17.3537 C   0  0  0  0  0  0  0  0  0  0  0  0
   -7.4289  -32.6891  -14.8337 O   0  0  0  0  0  0  0  0  0  0  0  0
   -7.7495  -35.7571  -14.4215 O   0  0  0  0  0  0  0  0  0  0  0  0
   -8.9436  -35.5113  -17.5765 O   0  0  0  0  0  0  0  0  0  0  0  0
   -6.1147  -36.5454  -18.1704 O   0  0  0  0  0  0  0  0  0  0  0  0
   -5.8217  -34.2001  -15.4958 O   0  0  0  0  0  0  0  0  0  0  0  0
   -3.2027  -34.2551  -16.5449 O   0  0  0  0  0  0  0  0  0  0  0  0
   -6.4953  -29.9972  -12.4843 C   0  0  1  0  0  0  0  0  0  0  0  0
   -7.4612  -29.6971  -13.5803 C   0  0  1  0  0  0  0  0  0  0  0  0
   -7.1144  -30.3012  -14.8967 C   0  0  2  0  0  0  0  0  0  0  0  0
   -6.5057  -31.6687  -14.8057 C   0  0  1  0  0  0  0  0  0  0  0  0
   -5.6980  -31.8549  -13.5326 C   0  0  1  0  0  0  0  0  0  0  0  0
   -4.3231  -31.3093  -13.7641 C   0  0  0  0  0  0  0  0  0  0  0  0
   -7.1108  -29.5959  -11.2751 O   0  0  0  0  0  0  0  0  0  0  0  0
   -8.7206  -30.1563  -13.2096 O   0  0  0  0  0  0  0  0  0  0  0  0
   -6.2232  -29.4165  -15.5351 O   0  0  0  0  0  0  0  0  0  0  0  0
   -6.3237  -31.3727  -12.4198 O   0  0  0  0  0  0  0  0  0  0  0  0
   -3.4113  -32.2309  -13.2211 O   0  0  0  0  0  0  0  0  0  0  0  0
  1  2  1  0
  1  7  1  1
  1 11  1  0
  2  3  1  0
  2  8  1  1
  3  4  1  0
  3  9  1  6
  5  4  1  0
  4 10  1  1
  5  6  1  6
 11  5  1  0
  6 12  1  0
 16  7  1  1
 13 14  1  0
 13 19  1  1
 22 13  1  0
 15 14  1  0
 14 20  1  1
 16 15  1  0
 15 21  1  1
 17 16  1  0
 17 18  1  6
 17 22  1  0
 23 18  1  0
M  END
$$$$
