
     RDKit          3D

 23 24  0  0  0  0  0  0  0  0999 V2000
   -6.4163  -32.3840  -15.2067 C   0  0  1  0  0  0  0  0  0  0  0  0
   -6.1974  -31.4819  -13.9920 C   0  0  1  0  0  0  0  0  0  0  0  0
   -6.8399  -32.0539  -12.7518 C   0  0  2  0  0  0  0  0  0  0  0  0
   -7.0151  -33.5416  -12.9433 C   0  0  1  0  0  0  0  0  0  0  0  0
   -5.7783  -34.0218  -13.7109 C   0  0  1  0  0  0  0  0  0  0  0  0
   -5.7619  -35.5284  -13.5974 C   0  0  0  0  0  0  0  0  0  0  0  0
   -5.9414  -31.6751  -16.3027 O   0  0  0  0  0  0  0  0  0  0  0  0
   -4.8421  -31.2279  -13.8140 O   0  0  0  0  0  0  0  0  0  0  0  0
   -8.1053  -31.4998  -12.5686 O   0  0  0  0  0  0  0  0  0  0  0  0
   -7.0733  -34.1426  -11.7097 O   0  0  0  0  0  0  0  0  0  0  0  0
   -5.8226  -33.6055  -15.0175 O   0  0  0  0  0  0  0  0  0  0  0  0
   -6.2997  -36.1691  -14.6878 O   0  0  0  0  0  0  0  0  0  0  0  0
   -4.2564  -32.7165  -19.8442 C   0  0  1  0  0  0  0  0  0  0  0  0
   -5.3306  -31.6944  -19.7847 C   0  0  1  0  0  0  0  0  0  0  0  0
   -6.3102  -31.8596  -18.6735 C   0  0  2  0  0  0  0  0  0  0  0  0
   -5.7223  -32.4449  -17.4169 C   0  0  1  0  0  0  0  0  0  0  0  0
   -4.2527  -32.7072  -17.5997 C   0  0  1  0  0  0  0  0  0  0  0  0
   -3.6778  -33.3984  -16.4011 C   0  0  0  0  0  0  0  0  0  0  0  0
   -3.0176  -32.0644  -20.0450 O   0  0  0  0  0  0  0  0  0  0  0  0
   -4.7977  -30.3840  -19.7772 O   0  0  0  0  0  0  0  0  0  0  0  0
   -7.4578  -32.5419  -19.0732 O   0  0  0  0  0  0  0  0  0  0  0  0
   -4.1377  -33.5206  -18.7420 O   0  0  0  0  0  0  0  0  0  0  0  0
   -2.5283  -34.1095  -16.7360 O   0  0  0  0  0  0  0  0  0  0  0  0
  1  2  1  0
  1  7  1  6
  1 11  1  0
  2  3  1  0
  2  8  1  1
  3  4  1  0
  3  9  1  6
  5  4  1  0
  4 10  1  1
  5  6  1  0
  5 11  1  6
  6 12  1  6
 16  7  1  1
 13 14  1  0
 13 19  1  1
 22 13  1  0
 15 14  1  0
 14 20  1  1
 16 15  1  0
 15 21  1  6
 17 16  1  0
 18 17  1  0
 17 22  1  6
 18 23  1  6
M  END
$$$$
