
     RDKit          3D

 23 24  0  0  0  0  0  0  0  0999 V2000
   -6.7810  -33.5867  -16.0096 C   0  0  1  0  0  0  0  0  0  0  0  0
   -7.8926  -34.4789  -16.4903 C   0  0  1  0  0  0  0  0  0  0  0  0
   -7.2215  -35.6527  -17.1921 C   0  0  2  0  0  0  0  0  0  0  0  0
   -5.7759  -35.7826  -16.7988 C   0  0  1  0  0  0  0  0  0  0  0  0
   -5.5104  -35.3511  -15.3815 C   0  0  1  0  0  0  0  0  0  0  0  0
   -4.0013  -35.2490  -15.2194 C   0  0  0  0  0  0  0  0  0  0  0  0
   -7.1541  -32.2966  -15.7405 O   0  0  0  0  0  0  0  0  0  0  0  0
   -8.6645  -35.0053  -15.4823 O   0  0  0  0  0  0  0  0  0  0  0  0
   -7.3307  -35.4255  -18.5620 O   0  0  0  0  0  0  0  0  0  0  0  0
   -5.3660  -37.1097  -16.9102 O   0  0  0  0  0  0  0  0  0  0  0  0
   -6.1336  -34.2128  -14.9716 O   0  0  0  0  0  0  0  0  0  0  0  0
   -3.4208  -34.8686  -16.4540 O   0  0  0  0  0  0  0  0  0  0  0  0
   -7.8035  -29.8718  -13.0320 C   0  0  1  0  0  0  0  0  0  0  0  0
   -7.3881  -29.3648  -14.3716 C   0  0  1  0  0  0  0  0  0  0  0  0
   -6.3100  -30.1553  -15.0280 C   0  0  2  0  0  0  0  0  0  0  0  0
   -6.4026  -31.6341  -14.7967 C   0  0  1  0  0  0  0  0  0  0  0  0
   -7.0160  -31.9677  -13.4476 C   0  0  1  0  0  0  0  0  0  0  0  0
   -5.9335  -31.9209  -12.4144 C   0  0  0  0  0  0  0  0  0  0  0  0
   -8.9972  -29.1935  -12.6899 O   0  0  0  0  0  0  0  0  0  0  0  0
   -8.4950  -29.3562  -15.2136 O   0  0  0  0  0  0  0  0  0  0  0  0
   -5.0829  -29.6652  -14.5398 O   0  0  0  0  0  0  0  0  0  0  0  0
   -8.1179  -31.2178  -13.1542 O   0  0  0  0  0  0  0  0  0  0  0  0
   -6.4026  -32.6160  -11.2864 O   0  0  0  0  0  0  0  0  0  0  0  0
  1  2  1  0
  1  7  1  1
  1 11  1  0
  2  3  1  0
  2  8  1  1
  3  4  1  0
  3  9  1  6
  5  4  1  0
  4 10  1  1
  5  6  1  6
 11  5  1  0
  6 12  1  0
 16  7  1  6
 13 14  1  0
 13 19  1  6
 22 13  1  0
 15 14  1  0
 14 20  1  6
 16 15  1  0
 15 21  1  1
 17 16  1  0
 17 18  1  1
 17 22  1  0
 23 18  1  0
M  END
$$$$
