
     RDKit          3D

 23 24  0  0  0  0  0  0  0  0999 V2000
   -7.1426  -32.2592  -14.9408 C   0  0  1  0  0  0  0  0  0  0  0  0
   -7.2334  -30.7675  -14.7698 C   0  0  1  0  0  0  0  0  0  0  0  0
   -7.4733  -30.5243  -13.2852 C   0  0  2  0  0  0  0  0  0  0  0  0
   -7.0978  -31.7225  -12.4578 C   0  0  1  0  0  0  0  0  0  0  0  0
   -5.9448  -32.4988  -13.0355 C   0  0  1  0  0  0  0  0  0  0  0  0
   -5.8711  -33.8185  -12.2825 C   0  0  0  0  0  0  0  0  0  0  0  0
   -7.3556  -32.7061  -16.2178 O   0  0  0  0  0  0  0  0  0  0  0  0
   -6.0827  -30.0940  -15.1034 O   0  0  0  0  0  0  0  0  0  0  0  0
   -8.8276  -30.2372  -13.1324 O   0  0  0  0  0  0  0  0  0  0  0  0
   -6.7255  -31.3226  -11.1759 O   0  0  0  0  0  0  0  0  0  0  0  0
   -5.9647  -32.6941  -14.3822 O   0  0  0  0  0  0  0  0  0  0  0  0
   -5.1660  -33.6283  -11.0690 O   0  0  0  0  0  0  0  0  0  0  0  0
   -6.0561  -34.4405  -19.2079 C   0  0  1  0  0  0  0  0  0  0  0  0
   -7.4981  -34.5876  -18.8567 C   0  0  1  0  0  0  0  0  0  0  0  0
   -7.7685  -34.7629  -17.4027 C   0  0  2  0  0  0  0  0  0  0  0  0
   -6.8710  -33.9612  -16.5082 C   0  0  1  0  0  0  0  0  0  0  0  0
   -5.4905  -33.7601  -17.1096 C   0  0  1  0  0  0  0  0  0  0  0  0
   -4.6583  -34.9627  -16.7890 C   0  0  0  0  0  0  0  0  0  0  0  0
   -6.0048  -34.0098  -20.5547 O   0  0  0  0  0  0  0  0  0  0  0  0
   -8.1858  -33.4606  -19.2941 O   0  0  0  0  0  0  0  0  0  0  0  0
   -7.6320  -36.1362  -17.1200 O   0  0  0  0  0  0  0  0  0  0  0  0
   -5.5206  -33.4226  -18.4316 O   0  0  0  0  0  0  0  0  0  0  0  0
   -3.3111  -34.5674  -16.8536 O   0  0  0  0  0  0  0  0  0  0  0  0
  1  2  1  0
  1  7  1  6
  1 11  1  0
  2  3  1  0
  2  8  1  1
  3  4  1  0
  3  9  1  6
  5  4  1  0
  4 10  1  1
  5  6  1  1
 11  5  1  0
  6 12  1  0
 16  7  1  6
 13 14  1  0
 13 19  1  6
 22 13  1  0
 15 14  1  0
 14 20  1  1
 16 15  1  0
 15 21  1  1
 17 16  1  0
 17 18  1  6
 17 22  1  0
 23 18  1  0
M  END
$$$$
