
     RDKit          3D

 23 24  0  0  0  0  0  0  0  0999 V2000
   -6.6237  -32.4091  -15.1752 C   0  0  1  0  0  0  0  0  0  0  0  0
   -7.0924  -31.0481  -14.7383 C   0  0  1  0  0  0  0  0  0  0  0  0
   -6.9142  -31.0030  -13.2261 C   0  0  2  0  0  0  0  0  0  0  0  0
   -5.9617  -32.0634  -12.7467 C   0  0  1  0  0  0  0  0  0  0  0  0
   -4.8737  -32.3700  -13.7406 C   0  0  1  0  0  0  0  0  0  0  0  0
   -4.1809  -33.6396  -13.2691 C   0  0  0  0  0  0  0  0  0  0  0  0
   -7.0851  -32.8107  -16.4006 O   0  0  0  0  0  0  0  0  0  0  0  0
   -6.3578  -30.0089  -15.2576 O   0  0  0  0  0  0  0  0  0  0  0  0
   -8.1730  -31.1936  -12.6612 O   0  0  0  0  0  0  0  0  0  0  0  0
   -5.3412  -31.6533  -11.5683 O   0  0  0  0  0  0  0  0  0  0  0  0
   -5.2570  -32.4660  -15.0429 O   0  0  0  0  0  0  0  0  0  0  0  0
   -5.1553  -34.6222  -12.9674 O   0  0  0  0  0  0  0  0  0  0  0  0
   -6.4299  -34.5732  -19.5790 C   0  0  1  0  0  0  0  0  0  0  0  0
   -7.8046  -34.6106  -19.0019 C   0  0  1  0  0  0  0  0  0  0  0  0
   -7.8535  -34.7981  -17.5252 C   0  0  2  0  0  0  0  0  0  0  0  0
   -6.7605  -34.0938  -16.7783 C   0  0  1  0  0  0  0  0  0  0  0  0
   -5.4816  -33.9915  -17.5919 C   0  0  1  0  0  0  0  0  0  0  0  0
   -4.7133  -35.2652  -17.4221 C   0  0  0  0  0  0  0  0  0  0  0  0
   -6.5578  -34.1159  -20.9118 O   0  0  0  0  0  0  0  0  0  0  0  0
   -8.4558  -33.4212  -19.3110 O   0  0  0  0  0  0  0  0  0  0  0  0
   -7.7898  -36.1843  -17.2827 O   0  0  0  0  0  0  0  0  0  0  0  0
   -5.6936  -33.6211  -18.8883 O   0  0  0  0  0  0  0  0  0  0  0  0
   -3.4343  -35.0570  -17.9667 O   0  0  0  0  0  0  0  0  0  0  0  0
  1  2  1  0
  1  7  1  6
  1 11  1  0
  2  3  1  0
  2  8  1  6
  3  4  1  0
  3  9  1  1
  5  4  1  0
  4 10  1  1
  5  6  1  1
 11  5  1  0
  6 12  1  0
 16  7  1  6
 13 14  1  0
 13 19  1  6
 22 13  1  0
 15 14  1  0
 14 20  1  1
 16 15  1  0
 15 21  1  6
 17 16  1  0
 17 18  1  6
 17 22  1  0
 23 18  1  0
M  END
$$$$
