
     RDKit          3D

 23 24  0  0  0  0  0  0  0  0999 V2000
   -6.9092  -32.1411  -14.6753 C   0  0  1  0  0  0  0  0  0  0  0  0
   -7.9092  -31.0178  -14.6458 C   0  0  1  0  0  0  0  0  0  0  0  0
   -7.5464  -30.1580  -13.4417 C   0  0  2  0  0  0  0  0  0  0  0  0
   -6.1370  -30.4110  -12.9825 C   0  0  1  0  0  0  0  0  0  0  0  0
   -5.2047  -30.7635  -14.1104 C   0  0  1  0  0  0  0  0  0  0  0  0
   -3.9176  -31.2779  -13.4838 C   0  0  0  0  0  0  0  0  0  0  0  0
   -7.2975  -33.2384  -15.3972 O   0  0  0  0  0  0  0  0  0  0  0  0
   -7.8648  -30.1987  -15.7486 O   0  0  0  0  0  0  0  0  0  0  0  0
   -8.4484  -30.4737  -12.4284 O   0  0  0  0  0  0  0  0  0  0  0  0
   -5.6234  -29.2739  -12.3620 O   0  0  0  0  0  0  0  0  0  0  0  0
   -5.6868  -31.6310  -15.0416 O   0  0  0  0  0  0  0  0  0  0  0  0
   -4.1208  -31.4876  -12.0980 O   0  0  0  0  0  0  0  0  0  0  0  0
   -6.5380  -35.1300  -18.4766 C   0  0  1  0  0  0  0  0  0  0  0  0
   -7.2295  -35.8257  -17.3531 C   0  0  1  0  0  0  0  0  0  0  0  0
   -6.7036  -35.4944  -15.9997 C   0  0  2  0  0  0  0  0  0  0  0  0
   -6.2863  -34.0636  -15.8342 C   0  0  1  0  0  0  0  0  0  0  0  0
   -5.7704  -33.4615  -17.1301 C   0  0  1  0  0  0  0  0  0  0  0  0
   -4.3233  -33.8187  -17.2711 C   0  0  0  0  0  0  0  0  0  0  0  0
   -7.3279  -35.3344  -19.6326 O   0  0  0  0  0  0  0  0  0  0  0  0
   -8.5814  -35.5009  -17.3856 O   0  0  0  0  0  0  0  0  0  0  0  0
   -5.6087  -36.3483  -15.7617 O   0  0  0  0  0  0  0  0  0  0  0  0
   -6.5421  -33.7675  -18.2134 O   0  0  0  0  0  0  0  0  0  0  0  0
   -3.7536  -32.9040  -18.1735 O   0  0  0  0  0  0  0  0  0  0  0  0
  1  2  1  0
  1  7  1  6
  1 11  1  0
  2  3  1  0
  2  8  1  6
  3  4  1  0
  3  9  1  1
  5  4  1  0
  4 10  1  6
  5  6  1  1
 11  5  1  0
  6 12  1  0
 16  7  1  6
 13 14  1  0
 13 19  1  6
 22 13  1  0
 15 14  1  0
 14 20  1  1
 16 15  1  0
 15 21  1  6
 17 16  1  0
 17 18  1  6
 17 22  1  0
 23 18  1  0
M  END
$$$$
