
     RDKit          3D

 23 24  0  0  0  0  0  0  0  0999 V2000
   -6.8741  -33.9163  -15.8305 C   0  0  1  0  0  0  0  0  0  0  0  0
   -7.9947  -34.8382  -16.2270 C   0  0  1  0  0  0  0  0  0  0  0  0
   -7.3494  -35.9855  -16.9939 C   0  0  2  0  0  0  0  0  0  0  0  0
   -5.8729  -36.0744  -16.7226 C   0  0  1  0  0  0  0  0  0  0  0  0
   -5.5039  -35.6461  -15.3276 C   0  0  1  0  0  0  0  0  0  0  0  0
   -3.9903  -35.4994  -15.2895 C   0  0  0  0  0  0  0  0  0  0  0  0
   -7.2617  -32.6404  -15.5183 O   0  0  0  0  0  0  0  0  0  0  0  0
   -8.6645  -35.3957  -15.1642 O   0  0  0  0  0  0  0  0  0  0  0  0
   -7.5783  -35.7512  -18.3476 O   0  0  0  0  0  0  0  0  0  0  0  0
   -5.4344  -37.3876  -16.8810 O   0  0  0  0  0  0  0  0  0  0  0  0
   -6.1246  -34.5305  -14.8560 O   0  0  0  0  0  0  0  0  0  0  0  0
   -3.6425  -34.4444  -14.4110 O   0  0  0  0  0  0  0  0  0  0  0  0
   -7.4588  -29.7618  -13.2135 C   0  0  1  0  0  0  0  0  0  0  0  0
   -7.1380  -29.5173  -14.6493 C   0  0  1  0  0  0  0  0  0  0  0  0
   -6.1921  -30.4981  -15.2502 C   0  0  2  0  0  0  0  0  0  0  0  0
   -6.3739  -31.9056  -14.7658 C   0  0  1  0  0  0  0  0  0  0  0  0
   -6.8770  -31.9602  -13.3334 C   0  0  1  0  0  0  0  0  0  0  0  0
   -5.6988  -31.8463  -12.4167 C   0  0  0  0  0  0  0  0  0  0  0  0
   -8.5585  -28.9314  -12.8926 O   0  0  0  0  0  0  0  0  0  0  0  0
   -8.3177  -29.5438  -15.3856 O   0  0  0  0  0  0  0  0  0  0  0  0
   -4.8896  -30.0495  -14.9556 O   0  0  0  0  0  0  0  0  0  0  0  0
   -7.8849  -31.0756  -13.0802 O   0  0  0  0  0  0  0  0  0  0  0  0
   -6.1489  -32.1455  -11.1192 O   0  0  0  0  0  0  0  0  0  0  0  0
  1  2  1  0
  1  7  1  1
  1 11  1  0
  2  3  1  0
  2  8  1  1
  3  4  1  0
  3  9  1  6
  5  4  1  0
  4 10  1  1
  5  6  1  6
 11  5  1  0
  6 12  1  0
 16  7  1  6
 13 14  1  0
 13 19  1  6
 22 13  1  0
 15 14  1  0
 14 20  1  6
 16 15  1  0
 15 21  1  1
 17 16  1  0
 17 18  1  1
 17 22  1  0
 23 18  1  0
M  END
$$$$
