
     RDKit          3D

 23 24  0  0  0  0  0  0  0  0999 V2000
   -6.6716  -32.3081  -15.2231 C   0  0  1  0  0  0  0  0  0  0  0  0
   -6.8441  -30.8089  -14.9781 C   0  0  1  0  0  0  0  0  0  0  0  0
   -6.8712  -30.4862  -13.5039 C   0  0  2  0  0  0  0  0  0  0  0  0
   -6.1913  -31.6066  -12.7535 C   0  0  1  0  0  0  0  0  0  0  0  0
   -5.0189  -32.0585  -13.6315 C   0  0  1  0  0  0  0  0  0  0  0  0
   -4.1317  -32.9119  -12.7554 C   0  0  0  0  0  0  0  0  0  0  0  0
   -6.8389  -32.4962  -16.5891 O   0  0  0  0  0  0  0  0  0  0  0  0
   -5.8664  -30.0905  -15.6569 O   0  0  0  0  0  0  0  0  0  0  0  0
   -8.1878  -30.4142  -13.0532 O   0  0  0  0  0  0  0  0  0  0  0  0
   -5.7291  -31.1199  -11.5552 O   0  0  0  0  0  0  0  0  0  0  0  0
   -5.4688  -32.7452  -14.7308 O   0  0  0  0  0  0  0  0  0  0  0  0
   -4.7949  -33.9477  -12.1424 O   0  0  0  0  0  0  0  0  0  0  0  0
   -6.2055  -35.6210  -19.0991 C   0  0  1  0  0  0  0  0  0  0  0  0
   -7.4316  -34.7924  -19.2109 C   0  0  1  0  0  0  0  0  0  0  0  0
   -7.9068  -34.1780  -17.9388 C   0  0  2  0  0  0  0  0  0  0  0  0
   -6.8029  -33.8097  -16.9832 C   0  0  1  0  0  0  0  0  0  0  0  0
   -5.4630  -34.1490  -17.5761 C   0  0  1  0  0  0  0  0  0  0  0  0
   -4.3617  -33.8986  -16.5915 C   0  0  0  0  0  0  0  0  0  0  0  0
   -5.3250  -35.2761  -20.1507 O   0  0  0  0  0  0  0  0  0  0  0  0
   -7.2971  -33.8026  -20.2127 O   0  0  0  0  0  0  0  0  0  0  0  0
   -8.8952  -34.9391  -17.3174 O   0  0  0  0  0  0  0  0  0  0  0  0
   -5.5189  -35.5124  -17.9192 O   0  0  0  0  0  0  0  0  0  0  0  0
   -3.1468  -34.3893  -17.0629 O   0  0  0  0  0  0  0  0  0  0  0  0
  1  2  1  0
  1  7  1  6
  1 11  1  0
  2  3  1  0
  2  8  1  6
  3  4  1  0
  3  9  1  1
  5  4  1  0
  4 10  1  1
  5  6  1  0
  5 11  1  6
  6 12  1  6
 16  7  1  6
 13 14  1  0
 13 19  1  6
 22 13  1  0
 15 14  1  0
 14 20  1  6
 16 15  1  0
 15 21  1  1
 17 16  1  0
 18 17  1  0
 17 22  1  1
 18 23  1  6
M  END
$$$$
