
     RDKit          3D

 23 24  0  0  0  0  0  0  0  0999 V2000
   -6.9351  -31.9630  -14.7055 C   0  0  1  0  0  0  0  0  0  0  0  0
   -7.5269  -30.5961  -14.9159 C   0  0  1  0  0  0  0  0  0  0  0  0
   -7.5453  -29.9263  -13.5478 C   0  0  2  0  0  0  0  0  0  0  0  0
   -6.6068  -30.6011  -12.5859 C   0  0  1  0  0  0  0  0  0  0  0  0
   -5.3864  -31.1720  -13.2569 C   0  0  1  0  0  0  0  0  0  0  0  0
   -4.6931  -32.0663  -12.2402 C   0  0  0  0  0  0  0  0  0  0  0  0
   -7.2148  -32.8695  -15.6933 O   0  0  0  0  0  0  0  0  0  0  0  0
   -6.7882  -29.7872  -15.7461 O   0  0  0  0  0  0  0  0  0  0  0  0
   -8.8539  -29.9980  -13.0761 O   0  0  0  0  0  0  0  0  0  0  0  0
   -6.1639  -29.6899  -11.6291 O   0  0  0  0  0  0  0  0  0  0  0  0
   -5.5952  -31.8239  -14.4332 O   0  0  0  0  0  0  0  0  0  0  0  0
   -3.7494  -32.8880  -12.9036 O   0  0  0  0  0  0  0  0  0  0  0  0
   -5.9752  -35.1208  -18.3452 C   0  0  1  0  0  0  0  0  0  0  0  0
   -7.1819  -35.5193  -17.5646 C   0  0  1  0  0  0  0  0  0  0  0  0
   -7.0968  -35.2407  -16.1040 C   0  0  2  0  0  0  0  0  0  0  0  0
   -6.3856  -33.9659  -15.7605 C   0  0  1  0  0  0  0  0  0  0  0  0
   -5.3010  -33.6232  -16.7676 C   0  0  1  0  0  0  0  0  0  0  0  0
   -4.0568  -34.3649  -16.3891 C   0  0  0  0  0  0  0  0  0  0  0  0
   -6.3306  -35.1920  -19.7129 O   0  0  0  0  0  0  0  0  0  0  0  0
   -8.2889  -34.8473  -18.0716 O   0  0  0  0  0  0  0  0  0  0  0  0
   -6.4385  -36.3365  -15.5122 O   0  0  0  0  0  0  0  0  0  0  0  0
   -5.6940  -33.7914  -18.0637 O   0  0  0  0  0  0  0  0  0  0  0  0
   -3.0234  -33.8974  -17.2193 O   0  0  0  0  0  0  0  0  0  0  0  0
  1  2  1  0
  1  7  1  6
  1 11  1  0
  2  3  1  0
  2  8  1  6
  3  4  1  0
  3  9  1  1
  5  4  1  0
  4 10  1  1
  5  6  1  1
 11  5  1  0
  6 12  1  0
 16  7  1  6
 13 14  1  0
 13 19  1  6
 22 13  1  0
 15 14  1  0
 14 20  1  6
 16 15  1  0
 15 21  1  1
 17 16  1  0
 17 18  1  1
 17 22  1  0
 23 18  1  0
M  END
$$$$
