
     RDKit          3D

 23 24  0  0  0  0  0  0  0  0999 V2000
   -6.8659  -33.6393  -16.1866 C   0  0  1  0  0  0  0  0  0  0  0  0
   -7.9304  -34.4061  -16.9225 C   0  0  1  0  0  0  0  0  0  0  0  0
   -7.2426  -35.6341  -17.5055 C   0  0  2  0  0  0  0  0  0  0  0  0
   -5.9350  -35.9172  -16.8190 C   0  0  1  0  0  0  0  0  0  0  0  0
   -5.9390  -35.5330  -15.3637 C   0  0  1  0  0  0  0  0  0  0  0  0
   -4.4973  -35.5890  -14.8815 C   0  0  0  0  0  0  0  0  0  0  0  0
   -7.1596  -32.3211  -15.9589 O   0  0  0  0  0  0  0  0  0  0  0  0
   -8.9485  -34.8626  -16.1199 O   0  0  0  0  0  0  0  0  0  0  0  0
   -7.0324  -35.3799  -18.8588 O   0  0  0  0  0  0  0  0  0  0  0  0
   -5.6430  -37.2781  -16.8861 O   0  0  0  0  0  0  0  0  0  0  0  0
   -6.5209  -34.3417  -15.0568 O   0  0  0  0  0  0  0  0  0  0  0  0
   -3.6259  -35.5025  -15.9946 O   0  0  0  0  0  0  0  0  0  0  0  0
   -7.9747  -29.9086  -13.2843 C   0  0  1  0  0  0  0  0  0  0  0  0
   -7.3787  -29.4046  -14.5552 C   0  0  1  0  0  0  0  0  0  0  0  0
   -6.2801  -30.2476  -15.1033 C   0  0  2  0  0  0  0  0  0  0  0  0
   -6.4846  -31.7218  -14.9199 C   0  0  1  0  0  0  0  0  0  0  0  0
   -7.2679  -32.0410  -13.6579 C   0  0  1  0  0  0  0  0  0  0  0  0
   -6.3108  -32.0778  -12.5072 C   0  0  0  0  0  0  0  0  0  0  0  0
   -9.1583  -29.1653  -13.0643 O   0  0  0  0  0  0  0  0  0  0  0  0
   -8.3789  -29.3144  -15.5174 O   0  0  0  0  0  0  0  0  0  0  0  0
   -5.0910  -29.8412  -14.4666 O   0  0  0  0  0  0  0  0  0  0  0  0
   -8.3507  -31.2308  -13.4741 O   0  0  0  0  0  0  0  0  0  0  0  0
   -6.9383  -32.7811  -11.4646 O   0  0  0  0  0  0  0  0  0  0  0  0
  1  2  1  0
  1  7  1  1
  1 11  1  0
  2  3  1  0
  2  8  1  1
  3  4  1  0
  3  9  1  6
  5  4  1  0
  4 10  1  1
  5  6  1  6
 11  5  1  0
  6 12  1  0
 16  7  1  6
 13 14  1  0
 13 19  1  6
 22 13  1  0
 15 14  1  0
 14 20  1  6
 16 15  1  0
 15 21  1  1
 17 16  1  0
 17 18  1  1
 17 22  1  0
 23 18  1  0
M  END
$$$$
