
     RDKit          3D

 23 24  0  0  0  0  0  0  0  0999 V2000
   -6.7497  -31.6953  -15.4547 C   0  0  1  0  0  0  0  0  0  0  0  0
   -6.7780  -30.2046  -15.6542 C   0  0  1  0  0  0  0  0  0  0  0  0
   -7.2304  -29.6072  -14.3278 C   0  0  2  0  0  0  0  0  0  0  0  0
   -7.0588  -30.5792  -13.1932 C   0  0  1  0  0  0  0  0  0  0  0  0
   -5.8779  -31.4945  -13.3758 C   0  0  1  0  0  0  0  0  0  0  0  0
   -5.9994  -32.5960  -12.3337 C   0  0  0  0  0  0  0  0  0  0  0  0
   -6.7880  -32.4312  -16.6091 O   0  0  0  0  0  0  0  0  0  0  0  0
   -5.5519  -29.6541  -15.9420 O   0  0  0  0  0  0  0  0  0  0  0  0
   -8.5728  -29.2647  -14.4714 O   0  0  0  0  0  0  0  0  0  0  0  0
   -6.8668  -29.8908  -11.9970 O   0  0  0  0  0  0  0  0  0  0  0  0
   -5.7002  -32.0069  -14.6239 O   0  0  0  0  0  0  0  0  0  0  0  0
   -7.3400  -33.0504  -12.2845 O   0  0  0  0  0  0  0  0  0  0  0  0
   -5.5559  -35.2339  -18.6742 C   0  0  1  0  0  0  0  0  0  0  0  0
   -7.0140  -34.9203  -18.6774 C   0  0  1  0  0  0  0  0  0  0  0  0
   -7.5803  -34.5856  -17.3412 C   0  0  2  0  0  0  0  0  0  0  0  0
   -6.6588  -33.7936  -16.4624 C   0  0  1  0  0  0  0  0  0  0  0  0
   -5.1974  -34.1170  -16.7223 C   0  0  1  0  0  0  0  0  0  0  0  0
   -4.8361  -35.3325  -15.9265 C   0  0  0  0  0  0  0  0  0  0  0  0
   -5.1374  -35.2482  -20.0257 O   0  0  0  0  0  0  0  0  0  0  0  0
   -7.2417  -33.8438  -19.5281 O   0  0  0  0  0  0  0  0  0  0  0  0
   -7.9152  -35.8037  -16.7178 O   0  0  0  0  0  0  0  0  0  0  0  0
   -4.8876  -34.1906  -18.0494 O   0  0  0  0  0  0  0  0  0  0  0  0
   -3.4352  -35.3566  -15.8139 O   0  0  0  0  0  0  0  0  0  0  0  0
  1  2  1  0
  1  7  1  6
  1 11  1  0
  2  3  1  0
  2  8  1  1
  3  4  1  0
  3  9  1  6
  5  4  1  0
  4 10  1  1
  5  6  1  1
 11  5  1  0
  6 12  1  0
 16  7  1  6
 13 14  1  0
 13 19  1  6
 22 13  1  0
 15 14  1  0
 14 20  1  6
 16 15  1  0
 15 21  1  1
 17 16  1  0
 17 18  1  1
 17 22  1  0
 23 18  1  0
M  END
$$$$
