
     RDKit          3D

 23 24  0  0  0  0  0  0  0  0999 V2000
   -7.2733  -33.8486  -15.5183 C   0  0  1  0  0  0  0  0  0  0  0  0
   -8.2051  -35.0113  -15.3112 C   0  0  1  0  0  0  0  0  0  0  0  0
   -7.7920  -36.0719  -16.3237 C   0  0  2  0  0  0  0  0  0  0  0  0
   -6.4000  -35.8345  -16.8408 C   0  0  1  0  0  0  0  0  0  0  0  0
   -5.4903  -35.2102  -15.8170 C   0  0  1  0  0  0  0  0  0  0  0  0
   -4.2358  -34.7577  -16.5488 C   0  0  0  0  0  0  0  0  0  0  0  0
   -7.7258  -32.6536  -15.0254 O   0  0  0  0  0  0  0  0  0  0  0  0
   -8.1123  -35.5894  -14.0677 O   0  0  0  0  0  0  0  0  0  0  0  0
   -8.7111  -36.0180  -17.3689 O   0  0  0  0  0  0  0  0  0  0  0  0
   -5.8199  -37.0409  -17.2278 O   0  0  0  0  0  0  0  0  0  0  0  0
   -6.0229  -34.2035  -15.0720 O   0  0  0  0  0  0  0  0  0  0  0  0
   -4.5855  -34.3029  -17.8437 O   0  0  0  0  0  0  0  0  0  0  0  0
   -6.7559  -30.1062  -12.5339 C   0  0  1  0  0  0  0  0  0  0  0  0
   -7.7305  -29.7388  -13.6013 C   0  0  1  0  0  0  0  0  0  0  0  0
   -7.3993  -30.2675  -14.9537 C   0  0  2  0  0  0  0  0  0  0  0  0
   -6.7971  -31.6408  -14.9476 C   0  0  1  0  0  0  0  0  0  0  0  0
   -5.9783  -31.9041  -13.6953 C   0  0  1  0  0  0  0  0  0  0  0  0
   -4.6029  -31.3525  -13.9083 C   0  0  0  0  0  0  0  0  0  0  0  0
   -7.3578  -29.7725  -11.2976 O   0  0  0  0  0  0  0  0  0  0  0  0
   -8.9887  -30.2126  -13.2454 O   0  0  0  0  0  0  0  0  0  0  0  0
   -6.5095  -29.3516  -15.5485 O   0  0  0  0  0  0  0  0  0  0  0  0
   -6.5909  -31.4839  -12.5505 O   0  0  0  0  0  0  0  0  0  0  0  0
   -3.7967  -31.8239  -12.8578 O   0  0  0  0  0  0  0  0  0  0  0  0
  1  2  1  0
  1  7  1  1
  1 11  1  0
  2  3  1  0
  2  8  1  1
  3  4  1  0
  3  9  1  6
  5  4  1  0
  4 10  1  1
  5  6  1  6
 11  5  1  0
  6 12  1  0
 16  7  1  1
 13 14  1  0
 13 19  1  1
 22 13  1  0
 15 14  1  0
 14 20  1  1
 16 15  1  0
 15 21  1  1
 17 16  1  0
 17 18  1  6
 17 22  1  0
 23 18  1  0
M  END
$$$$
