
     RDKit          3D

 23 24  0  0  0  0  0  0  0  0999 V2000
   -7.0208  -33.6664  -16.3844 C   0  0  1  0  0  0  0  0  0  0  0  0
   -8.0801  -34.7258  -16.6891 C   0  0  1  0  0  0  0  0  0  0  0  0
   -7.5025  -35.8807  -17.4705 C   0  0  2  0  0  0  0  0  0  0  0  0
   -6.0096  -35.9157  -17.2446 C   0  0  1  0  0  0  0  0  0  0  0  0
   -5.7904  -35.5229  -15.7793 C   0  0  1  0  0  0  0  0  0  0  0  0
   -4.3647  -35.8951  -15.4448 C   0  0  0  0  0  0  0  0  0  0  0  0
   -7.7014  -32.5909  -15.8282 O   0  0  0  0  0  0  0  0  0  0  0  0
   -8.7022  -35.1412  -15.5172 O   0  0  0  0  0  0  0  0  0  0  0  0
   -7.7189  -35.6926  -18.8341 O   0  0  0  0  0  0  0  0  0  0  0  0
   -5.5582  -37.1934  -17.4680 O   0  0  0  0  0  0  0  0  0  0  0  0
   -6.0295  -34.1850  -15.5916 O   0  0  0  0  0  0  0  0  0  0  0  0
   -3.4993  -34.8275  -15.4557 O   0  0  0  0  0  0  0  0  0  0  0  0
   -6.7390  -29.3852  -13.5341 C   0  0  1  0  0  0  0  0  0  0  0  0
   -7.3729  -29.2057  -14.8638 C   0  0  1  0  0  0  0  0  0  0  0  0
   -7.0724  -30.2685  -15.8647 C   0  0  2  0  0  0  0  0  0  0  0  0
   -6.8864  -31.6392  -15.2697 C   0  0  1  0  0  0  0  0  0  0  0  0
   -7.0717  -31.5915  -13.7779 C   0  0  1  0  0  0  0  0  0  0  0  0
   -6.7738  -32.9224  -13.1575 C   0  0  0  0  0  0  0  0  0  0  0  0
   -7.7085  -29.1504  -12.5316 O   0  0  0  0  0  0  0  0  0  0  0  0
   -8.7709  -29.0216  -14.7495 O   0  0  0  0  0  0  0  0  0  0  0  0
   -6.0165  -29.9232  -16.7063 O   0  0  0  0  0  0  0  0  0  0  0  0
   -6.1792  -30.6133  -13.3021 O   0  0  0  0  0  0  0  0  0  0  0  0
   -5.5326  -32.9145  -12.5263 O   0  0  0  0  0  0  0  0  0  0  0  0
  1  2  1  0
  1  7  1  1
  1 11  1  0
  2  3  1  0
  2  8  1  1
  3  4  1  0
  3  9  1  6
  5  4  1  0
  4 10  1  1
  5  6  1  0
  5 11  1  6
  6 12  1  6
 16  7  1  6
 13 14  1  0
 13 19  1  1
 22 13  1  0
 15 14  1  0
 14 20  1  1
 16 15  1  0
 15 21  1  1
 17 16  1  0
 18 17  1  0
 17 22  1  1
 18 23  1  6
M  END
$$$$
