
     RDKit          3D

 23 24  0  0  0  0  0  0  0  0999 V2000
   -6.2219  -33.3047  -16.6996 C   0  0  1  0  0  0  0  0  0  0  0  0
   -7.4902  -33.9073  -17.3041 C   0  0  1  0  0  0  0  0  0  0  0  0
   -7.2721  -35.3343  -17.7450 C   0  0  2  0  0  0  0  0  0  0  0  0
   -6.0944  -35.8977  -16.9858 C   0  0  1  0  0  0  0  0  0  0  0  0
   -6.1820  -35.3170  -15.5699 C   0  0  1  0  0  0  0  0  0  0  0  0
   -5.2424  -36.1331  -14.7133 C   0  0  0  0  0  0  0  0  0  0  0  0
   -6.4936  -31.9572  -16.5005 O   0  0  0  0  0  0  0  0  0  0  0  0
   -8.5549  -33.7865  -16.4183 O   0  0  0  0  0  0  0  0  0  0  0  0
   -6.9576  -35.3739  -19.1020 O   0  0  0  0  0  0  0  0  0  0  0  0
   -6.2065  -37.2660  -16.9472 O   0  0  0  0  0  0  0  0  0  0  0  0
   -5.8531  -33.9849  -15.5675 O   0  0  0  0  0  0  0  0  0  0  0  0
   -3.9142  -35.9190  -14.9940 O   0  0  0  0  0  0  0  0  0  0  0  0
   -7.5856  -30.3747  -12.9271 C   0  0  1  0  0  0  0  0  0  0  0  0
   -7.2902  -29.4988  -14.0881 C   0  0  1  0  0  0  0  0  0  0  0  0
   -6.2985  -30.0387  -15.0610 C   0  0  2  0  0  0  0  0  0  0  0  0
   -6.3304  -31.5373  -15.2047 C   0  0  1  0  0  0  0  0  0  0  0  0
   -7.3941  -32.1252  -14.3188 C   0  0  1  0  0  0  0  0  0  0  0  0
   -7.3600  -33.6225  -14.3606 C   0  0  0  0  0  0  0  0  0  0  0  0
   -8.9864  -30.4256  -12.7395 O   0  0  0  0  0  0  0  0  0  0  0  0
   -8.4744  -29.1127  -14.7590 O   0  0  0  0  0  0  0  0  0  0  0  0
   -5.0081  -29.5704  -14.8203 O   0  0  0  0  0  0  0  0  0  0  0  0
   -7.1237  -31.6606  -13.0185 O   0  0  0  0  0  0  0  0  0  0  0  0
   -6.9046  -34.1473  -13.1538 O   0  0  0  0  0  0  0  0  0  0  0  0
  1  2  1  0
  1  7  1  1
  1 11  1  0
  2  3  1  0
  2  8  1  1
  3  4  1  0
  3  9  1  6
  5  4  1  0
  4 10  1  1
  5  6  1  0
  5 11  1  6
  6 12  1  6
 16  7  1  6
 13 14  1  0
 13 19  1  6
 22 13  1  0
 15 14  1  0
 14 20  1  6
 16 15  1  0
 15 21  1  1
 17 16  1  0
 18 17  1  0
 17 22  1  1
 18 23  1  6
M  END
$$$$
