
     RDKit          3D

 23 24  0  0  0  0  0  0  0  0999 V2000
   -6.8878  -33.6261  -15.9425 C   0  0  1  0  0  0  0  0  0  0  0  0
   -7.9046  -34.7265  -16.2466 C   0  0  1  0  0  0  0  0  0  0  0  0
   -7.2757  -35.8705  -17.0040 C   0  0  2  0  0  0  0  0  0  0  0  0
   -5.7858  -35.8494  -16.7575 C   0  0  1  0  0  0  0  0  0  0  0  0
   -5.6011  -35.4295  -15.2950 C   0  0  1  0  0  0  0  0  0  0  0  0
   -4.1680  -35.7462  -14.9362 C   0  0  0  0  0  0  0  0  0  0  0  0
   -7.6137  -32.5681  -15.4105 O   0  0  0  0  0  0  0  0  0  0  0  0
   -8.5279  -35.1479  -15.0776 O   0  0  0  0  0  0  0  0  0  0  0  0
   -7.4795  -35.7086  -18.3730 O   0  0  0  0  0  0  0  0  0  0  0  0
   -5.2864  -37.1131  -16.9570 O   0  0  0  0  0  0  0  0  0  0  0  0
   -5.8900  -34.0985  -15.1291 O   0  0  0  0  0  0  0  0  0  0  0  0
   -3.3070  -34.6914  -15.1228 O   0  0  0  0  0  0  0  0  0  0  0  0
   -6.8265  -29.3516  -13.0652 C   0  0  1  0  0  0  0  0  0  0  0  0
   -7.3761  -29.1791  -14.4328 C   0  0  1  0  0  0  0  0  0  0  0  0
   -7.0036  -30.2404  -15.4108 C   0  0  2  0  0  0  0  0  0  0  0  0
   -6.8440  -31.6088  -14.8029 C   0  0  1  0  0  0  0  0  0  0  0  0
   -7.1241  -31.5610  -13.3260 C   0  0  1  0  0  0  0  0  0  0  0  0
   -6.8549  -32.8885  -12.6857 C   0  0  0  0  0  0  0  0  0  0  0  0
   -7.8598  -29.1241  -12.1268 O   0  0  0  0  0  0  0  0  0  0  0  0
   -8.7802  -29.0070  -14.4079 O   0  0  0  0  0  0  0  0  0  0  0  0
   -5.8993  -29.8870  -16.1842 O   0  0  0  0  0  0  0  0  0  0  0  0
   -6.2721  -30.5746  -12.7961 O   0  0  0  0  0  0  0  0  0  0  0  0
   -5.8167  -32.7981  -11.7620 O   0  0  0  0  0  0  0  0  0  0  0  0
  1  2  1  0
  1  7  1  1
  1 11  1  0
  2  3  1  0
  2  8  1  1
  3  4  1  0
  3  9  1  6
  5  4  1  0
  4 10  1  1
  5  6  1  0
  5 11  1  6
  6 12  1  6
 16  7  1  6
 13 14  1  0
 13 19  1  1
 22 13  1  0
 15 14  1  0
 14 20  1  1
 16 15  1  0
 15 21  1  1
 17 16  1  0
 18 17  1  0
 17 22  1  1
 18 23  1  6
M  END
$$$$
