
     RDKit          3D

 23 24  0  0  0  0  0  0  0  0999 V2000
   -7.0035  -32.1510  -14.6567 C   0  0  1  0  0  0  0  0  0  0  0  0
   -7.3274  -30.6641  -14.5100 C   0  0  1  0  0  0  0  0  0  0  0  0
   -7.0525  -30.1709  -13.1103 C   0  0  2  0  0  0  0  0  0  0  0  0
   -6.0608  -31.1043  -12.4574 C   0  0  1  0  0  0  0  0  0  0  0  0
   -5.0759  -31.5175  -13.5569 C   0  0  1  0  0  0  0  0  0  0  0  0
   -3.8938  -32.1480  -12.8582 C   0  0  0  0  0  0  0  0  0  0  0  0
   -7.4592  -32.5214  -15.9155 O   0  0  0  0  0  0  0  0  0  0  0  0
   -6.6512  -29.9228  -15.4722 O   0  0  0  0  0  0  0  0  0  0  0  0
   -8.2220  -30.2009  -12.3532 O   0  0  0  0  0  0  0  0  0  0  0  0
   -5.4042  -30.4251  -11.4604 O   0  0  0  0  0  0  0  0  0  0  0  0
   -5.6685  -32.3804  -14.4439 O   0  0  0  0  0  0  0  0  0  0  0  0
   -4.2465  -33.0143  -11.8514 O   0  0  0  0  0  0  0  0  0  0  0  0
   -6.3143  -35.2796  -18.6627 C   0  0  1  0  0  0  0  0  0  0  0  0
   -7.7424  -35.1248  -18.2904 C   0  0  1  0  0  0  0  0  0  0  0  0
   -7.9934  -34.6515  -16.8995 C   0  0  2  0  0  0  0  0  0  0  0  0
   -6.9447  -33.7084  -16.3718 C   0  0  1  0  0  0  0  0  0  0  0  0
   -5.8893  -33.4630  -17.4149 C   0  0  1  0  0  0  0  0  0  0  0  0
   -4.7778  -32.6216  -16.8658 C   0  0  0  0  0  0  0  0  0  0  0  0
   -6.1092  -34.6961  -19.9346 O   0  0  0  0  0  0  0  0  0  0  0  0
   -8.4330  -34.3092  -19.2174 O   0  0  0  0  0  0  0  0  0  0  0  0
   -8.2351  -35.7017  -16.0157 O   0  0  0  0  0  0  0  0  0  0  0  0
   -5.4094  -34.7301  -17.7941 O   0  0  0  0  0  0  0  0  0  0  0  0
   -3.5925  -32.8400  -17.5633 O   0  0  0  0  0  0  0  0  0  0  0  0
  1  2  1  0
  1  7  1  6
  1 11  1  0
  2  3  1  0
  2  8  1  6
  3  4  1  0
  3  9  1  1
  5  4  1  0
  4 10  1  1
  5  6  1  0
  5 11  1  6
  6 12  1  6
 16  7  1  6
 13 14  1  0
 13 19  1  6
 22 13  1  0
 15 14  1  0
 14 20  1  6
 16 15  1  0
 15 21  1  1
 17 16  1  0
 18 17  1  0
 17 22  1  1
 18 23  1  6
M  END
$$$$
