
     RDKit          3D

 23 24  0  0  0  0  0  0  0  0999 V2000
   -7.0305  -32.6267  -15.0990 C   0  0  1  0  0  0  0  0  0  0  0  0
   -7.4186  -31.2372  -14.6731 C   0  0  1  0  0  0  0  0  0  0  0  0
   -7.1523  -31.1624  -13.1750 C   0  0  2  0  0  0  0  0  0  0  0  0
   -6.2169  -32.2492  -12.7218 C   0  0  1  0  0  0  0  0  0  0  0  0
   -5.2008  -32.6249  -13.7668 C   0  0  1  0  0  0  0  0  0  0  0  0
   -4.5334  -33.9101  -13.3011 C   0  0  0  0  0  0  0  0  0  0  0  0
   -7.5771  -33.0388  -16.2852 O   0  0  0  0  0  0  0  0  0  0  0  0
   -6.6741  -30.2424  -15.2607 O   0  0  0  0  0  0  0  0  0  0  0  0
   -8.3832  -31.2868  -12.5352 O   0  0  0  0  0  0  0  0  0  0  0  0
   -5.5139  -31.8364  -11.5917 O   0  0  0  0  0  0  0  0  0  0  0  0
   -5.6618  -32.7369  -15.0424 O   0  0  0  0  0  0  0  0  0  0  0  0
   -5.5087  -34.7684  -12.7372 O   0  0  0  0  0  0  0  0  0  0  0  0
   -6.5468  -34.3207  -19.5917 C   0  0  1  0  0  0  0  0  0  0  0  0
   -7.9459  -34.5531  -19.1304 C   0  0  1  0  0  0  0  0  0  0  0  0
   -8.0723  -34.9290  -17.6949 C   0  0  2  0  0  0  0  0  0  0  0  0
   -7.1045  -34.2299  -16.7875 C   0  0  1  0  0  0  0  0  0  0  0  0
   -5.7915  -33.9121  -17.4825 C   0  0  1  0  0  0  0  0  0  0  0  0
   -4.9148  -35.1235  -17.4077 C   0  0  0  0  0  0  0  0  0  0  0  0
   -6.6319  -33.7121  -20.8662 O   0  0  0  0  0  0  0  0  0  0  0  0
   -8.6890  -33.3971  -19.3442 O   0  0  0  0  0  0  0  0  0  0  0  0
   -7.8890  -36.3235  -17.6155 O   0  0  0  0  0  0  0  0  0  0  0  0
   -5.9539  -33.4016  -18.7377 O   0  0  0  0  0  0  0  0  0  0  0  0
   -3.5982  -34.7023  -17.6627 O   0  0  0  0  0  0  0  0  0  0  0  0
  1  2  1  0
  1  7  1  6
  1 11  1  0
  2  3  1  0
  2  8  1  6
  3  4  1  0
  3  9  1  1
  5  4  1  0
  4 10  1  1
  5  6  1  1
 11  5  1  0
  6 12  1  0
 16  7  1  6
 13 14  1  0
 13 19  1  6
 22 13  1  0
 15 14  1  0
 14 20  1  1
 16 15  1  0
 15 21  1  6
 17 16  1  0
 17 18  1  6
 17 22  1  0
 23 18  1  0
M  END
$$$$
