
     RDKit          3D

 23 24  0  0  0  0  0  0  0  0999 V2000
   -6.7403  -34.0354  -14.9274 C   0  0  1  0  0  0  0  0  0  0  0  0
   -6.3976  -35.0318  -13.8538 C   0  0  1  0  0  0  0  0  0  0  0  0
   -6.6443  -36.4084  -14.4578 C   0  0  2  0  0  0  0  0  0  0  0  0
   -6.6893  -36.3563  -15.9600 C   0  0  1  0  0  0  0  0  0  0  0  0
   -5.7836  -35.3032  -16.5399 C   0  0  1  0  0  0  0  0  0  0  0  0
   -6.1477  -35.1591  -18.0098 C   0  0  0  0  0  0  0  0  0  0  0  0
   -6.9980  -32.7684  -14.4757 O   0  0  0  0  0  0  0  0  0  0  0  0
   -5.0816  -34.9996  -13.4587 O   0  0  0  0  0  0  0  0  0  0  0  0
   -7.8606  -36.8630  -13.9537 O   0  0  0  0  0  0  0  0  0  0  0  0
   -6.2938  -37.5810  -16.4943 O   0  0  0  0  0  0  0  0  0  0  0  0
   -5.7788  -34.0982  -15.9074 O   0  0  0  0  0  0  0  0  0  0  0  0
   -5.6872  -33.9078  -18.4874 O   0  0  0  0  0  0  0  0  0  0  0  0
   -6.5110  -29.1105  -14.6174 C   0  0  1  0  0  0  0  0  0  0  0  0
   -7.8845  -29.6488  -14.3981 C   0  0  1  0  0  0  0  0  0  0  0  0
   -8.2260  -30.8369  -15.2286 C   0  0  2  0  0  0  0  0  0  0  0  0
   -7.0869  -31.7893  -15.4390 C   0  0  1  0  0  0  0  0  0  0  0  0
   -5.7424  -31.0823  -15.4582 C   0  0  1  0  0  0  0  0  0  0  0  0
   -5.5036  -30.5639  -16.8423 C   0  0  0  0  0  0  0  0  0  0  0  0
   -6.2614  -28.1885  -13.5736 O   0  0  0  0  0  0  0  0  0  0  0  0
   -8.0228  -29.9997  -13.0594 O   0  0  0  0  0  0  0  0  0  0  0  0
   -8.6888  -30.3548  -16.4686 O   0  0  0  0  0  0  0  0  0  0  0  0
   -5.6064  -30.1522  -14.4688 O   0  0  0  0  0  0  0  0  0  0  0  0
   -4.2040  -30.9493  -17.2140 O   0  0  0  0  0  0  0  0  0  0  0  0
  1  2  1  0
  1  7  1  1
  1 11  1  0
  2  3  1  0
  2  8  1  6
  3  4  1  0
  3  9  1  1
  5  4  1  0
  4 10  1  6
  5  6  1  6
 11  5  1  0
  6 12  1  0
 16  7  1  1
 13 14  1  0
 13 19  1  1
 22 13  1  0
 15 14  1  0
 14 20  1  1
 16 15  1  0
 15 21  1  6
 17 16  1  0
 17 18  1  6
 17 22  1  0
 23 18  1  0
M  END
$$$$
