
     RDKit          3D

 23 24  0  0  0  0  0  0  0  0999 V2000
   -6.7304  -31.8895  -14.7375 C   0  0  1  0  0  0  0  0  0  0  0  0
   -7.4184  -30.5521  -14.7071 C   0  0  1  0  0  0  0  0  0  0  0  0
   -7.3546  -30.0746  -13.2619 C   0  0  2  0  0  0  0  0  0  0  0  0
   -6.2958  -30.8039  -12.4818 C   0  0  1  0  0  0  0  0  0  0  0  0
   -5.1084  -31.1919  -13.3215 C   0  0  1  0  0  0  0  0  0  0  0  0
   -4.2756  -32.1629  -12.4982 C   0  0  0  0  0  0  0  0  0  0  0  0
   -7.0428  -32.6730  -15.8164 O   0  0  0  0  0  0  0  0  0  0  0  0
   -6.8058  -29.5890  -15.4728 O   0  0  0  0  0  0  0  0  0  0  0  0
   -8.6094  -30.3013  -12.7015 O   0  0  0  0  0  0  0  0  0  0  0  0
   -5.8242  -30.0000  -11.4459 O   0  0  0  0  0  0  0  0  0  0  0  0
   -5.3822  -31.6935  -14.5566 O   0  0  0  0  0  0  0  0  0  0  0  0
   -5.1196  -32.8632  -11.6021 O   0  0  0  0  0  0  0  0  0  0  0  0
   -5.9195  -35.1021  -18.3611 C   0  0  1  0  0  0  0  0  0  0  0  0
   -7.3131  -35.1955  -17.8384 C   0  0  1  0  0  0  0  0  0  0  0  0
   -7.4412  -34.9839  -16.3697 C   0  0  2  0  0  0  0  0  0  0  0  0
   -6.5147  -33.9440  -15.8141 C   0  0  1  0  0  0  0  0  0  0  0  0
   -5.2078  -33.8675  -16.5848 C   0  0  1  0  0  0  0  0  0  0  0  0
   -4.2821  -34.9135  -16.0457 C   0  0  0  0  0  0  0  0  0  0  0  0
   -6.0144  -35.0459  -19.7717 O   0  0  0  0  0  0  0  0  0  0  0  0
   -8.1013  -34.2490  -18.4843 O   0  0  0  0  0  0  0  0  0  0  0  0
   -7.2008  -36.2265  -15.7511 O   0  0  0  0  0  0  0  0  0  0  0  0
   -5.3760  -33.8971  -17.9388 O   0  0  0  0  0  0  0  0  0  0  0  0
   -2.9797  -34.3881  -16.1033 O   0  0  0  0  0  0  0  0  0  0  0  0
  1  2  1  0
  1  7  1  6
  1 11  1  0
  2  3  1  0
  2  8  1  6
  3  4  1  0
  3  9  1  1
  5  4  1  0
  4 10  1  1
  5  6  1  1
 11  5  1  0
  6 12  1  0
 16  7  1  6
 13 14  1  0
 13 19  1  6
 22 13  1  0
 15 14  1  0
 14 20  1  6
 16 15  1  0
 15 21  1  1
 17 16  1  0
 17 18  1  1
 17 22  1  0
 23 18  1  0
M  END
$$$$
