
     RDKit          3D

 23 24  0  0  0  0  0  0  0  0999 V2000
   -7.1383  -33.8714  -15.2398 C   0  0  1  0  0  0  0  0  0  0  0  0
   -7.9760  -35.0818  -14.9300 C   0  0  1  0  0  0  0  0  0  0  0  0
   -7.5699  -36.1486  -15.9388 C   0  0  2  0  0  0  0  0  0  0  0  0
   -6.2371  -35.8431  -16.5647 C   0  0  1  0  0  0  0  0  0  0  0  0
   -5.2977  -35.1293  -15.6301 C   0  0  1  0  0  0  0  0  0  0  0  0
   -4.1311  -34.6250  -16.4661 C   0  0  0  0  0  0  0  0  0  0  0  0
   -7.6298  -32.6907  -14.7499 O   0  0  0  0  0  0  0  0  0  0  0  0
   -7.7565  -35.6105  -13.6804 O   0  0  0  0  0  0  0  0  0  0  0  0
   -8.5637  -36.1873  -16.9139 O   0  0  0  0  0  0  0  0  0  0  0  0
   -5.6102  -37.0238  -16.9582 O   0  0  0  0  0  0  0  0  0  0  0  0
   -5.8386  -34.1327  -14.8774 O   0  0  0  0  0  0  0  0  0  0  0  0
   -4.4784  -34.6790  -17.8381 O   0  0  0  0  0  0  0  0  0  0  0  0
   -7.0237  -29.9622  -12.3362 C   0  0  1  0  0  0  0  0  0  0  0  0
   -7.8336  -29.6809  -13.5564 C   0  0  1  0  0  0  0  0  0  0  0  0
   -7.3122  -30.3029  -14.8052 C   0  0  2  0  0  0  0  0  0  0  0  0
   -6.7199  -31.6671  -14.6130 C   0  0  1  0  0  0  0  0  0  0  0  0
   -6.0906  -31.8325  -13.2402 C   0  0  1  0  0  0  0  0  0  0  0  0
   -4.6977  -31.2861  -13.2926 C   0  0  0  0  0  0  0  0  0  0  0  0
   -7.7967  -29.5453  -11.2268 O   0  0  0  0  0  0  0  0  0  0  0  0
   -9.1310  -30.1385  -13.3518 O   0  0  0  0  0  0  0  0  0  0  0  0
   -6.3441  -29.4248  -15.3308 O   0  0  0  0  0  0  0  0  0  0  0  0
   -6.8609  -31.3361  -12.2288 O   0  0  0  0  0  0  0  0  0  0  0  0
   -3.8176  -32.3806  -13.2367 O   0  0  0  0  0  0  0  0  0  0  0  0
  1  2  1  0
  1  7  1  1
  1 11  1  0
  2  3  1  0
  2  8  1  1
  3  4  1  0
  3  9  1  6
  5  4  1  0
  4 10  1  1
  5  6  1  6
 11  5  1  0
  6 12  1  0
 16  7  1  1
 13 14  1  0
 13 19  1  1
 22 13  1  0
 15 14  1  0
 14 20  1  1
 16 15  1  0
 15 21  1  1
 17 16  1  0
 17 18  1  6
 17 22  1  0
 23 18  1  0
M  END
$$$$
