
     RDKit          3D

 23 24  0  0  0  0  0  0  0  0999 V2000
   -7.0950  -31.6127  -15.0624 C   0  0  1  0  0  0  0  0  0  0  0  0
   -7.1069  -30.1089  -15.3377 C   0  0  1  0  0  0  0  0  0  0  0  0
   -7.3284  -29.3142  -14.0738 C   0  0  2  0  0  0  0  0  0  0  0  0
   -6.9307  -30.1676  -12.8930 C   0  0  1  0  0  0  0  0  0  0  0  0
   -5.7016  -30.9675  -13.3393 C   0  0  1  0  0  0  0  0  0  0  0  0
   -5.0864  -31.5429  -12.0849 C   0  0  0  0  0  0  0  0  0  0  0  0
   -7.0634  -32.2310  -16.3058 O   0  0  0  0  0  0  0  0  0  0  0  0
   -5.9472  -29.7281  -16.0032 O   0  0  0  0  0  0  0  0  0  0  0  0
   -8.6795  -29.0032  -13.9339 O   0  0  0  0  0  0  0  0  0  0  0  0
   -6.6077  -29.3452  -11.8416 O   0  0  0  0  0  0  0  0  0  0  0  0
   -6.0547  -31.9462  -14.2337 O   0  0  0  0  0  0  0  0  0  0  0  0
   -5.9195  -32.3986  -11.4049 O   0  0  0  0  0  0  0  0  0  0  0  0
   -5.8336  -35.8188  -17.7484 C   0  0  1  0  0  0  0  0  0  0  0  0
   -7.2251  -35.3497  -17.9628 C   0  0  1  0  0  0  0  0  0  0  0  0
   -7.7683  -34.4528  -16.9035 C   0  0  2  0  0  0  0  0  0  0  0  0
   -6.7369  -33.5626  -16.2623 C   0  0  1  0  0  0  0  0  0  0  0  0
   -5.3860  -33.7980  -16.8802 C   0  0  1  0  0  0  0  0  0  0  0  0
   -4.3278  -33.0067  -16.1738 C   0  0  0  0  0  0  0  0  0  0  0  0
   -5.1135  -35.6766  -18.9572 O   0  0  0  0  0  0  0  0  0  0  0  0
   -7.3792  -34.7530  -19.2362 O   0  0  0  0  0  0  0  0  0  0  0  0
   -8.5160  -35.1450  -15.9525 O   0  0  0  0  0  0  0  0  0  0  0  0
   -5.1343  -35.1772  -16.7612 O   0  0  0  0  0  0  0  0  0  0  0  0
   -3.0596  -33.3276  -16.6513 O   0  0  0  0  0  0  0  0  0  0  0  0
  1  2  1  0
  1  7  1  6
  1 11  1  0
  2  3  1  0
  2  8  1  1
  3  4  1  0
  3  9  1  1
  5  4  1  0
  4 10  1  1
  5  6  1  0
  5 11  1  6
  6 12  1  6
 16  7  1  6
 13 14  1  0
 13 19  1  6
 22 13  1  0
 15 14  1  0
 14 20  1  6
 16 15  1  0
 15 21  1  1
 17 16  1  0
 18 17  1  0
 17 22  1  1
 18 23  1  6
M  END
$$$$
