
     RDKit          3D

 49 56  0  0  0  0  0  0  0  0999 V2000
   87.8245  212.7120   71.7179 C   0  0  0  0  0  0  0  0  0  0  0  0
   87.8478  218.1312   67.0658 C   0  0  0  0  0  0  0  0  0  0  0  0
   86.7109  212.1880   71.1029 C   0  0  0  0  0  0  0  0  0  0  0  0
   86.7262  217.5915   66.4552 C   0  0  0  0  0  0  0  0  0  0  0  0
   82.5485  202.7166   65.2295 C   0  0  0  0  0  0  0  0  0  0  0  0
   84.1608  206.9324   70.9603 C   0  0  0  0  0  0  0  0  0  0  0  0
   82.4413  203.6401   66.2659 C   0  0  0  0  0  0  0  0  0  0  0  0
   81.4238  202.1239   64.7095 C   0  0  0  0  0  0  0  0  0  0  0  0
   83.7987  207.6387   72.0860 C   0  0  0  0  0  0  0  0  0  0  0  0
   88.4007  213.8820   71.2490 C   0  0  0  0  0  0  0  0  0  0  0  0
   88.4477  217.5177   68.1570 C   0  0  0  0  0  0  0  0  0  0  0  0
   86.1839  212.8539   70.0095 C   0  0  0  0  0  0  0  0  0  0  0  0
   86.1824  216.4351   66.9163 C   0  0  0  0  0  0  0  0  0  0  0  0
   81.7208  208.1236   71.0365 C   0  0  0  0  0  0  0  0  0  0  0  0
   82.8589  212.3259   70.4414 C   0  0  0  0  0  0  0  0  0  0  0  0
   76.6924  204.9664   65.8972 C   0  0  0  0  0  0  0  0  0  0  0  0
   75.9851  203.8558   66.6484 C   0  0  0  0  0  0  0  0  0  0  0  0
   83.8196  214.0693   68.5505 C   0  0  0  0  0  0  0  0  0  0  0  0
   78.1724  204.9644   66.1569 C   0  0  0  0  0  0  0  0  0  0  0  0
   76.5204  202.5395   66.0918 C   0  0  0  0  0  0  0  0  0  0  0  0
   82.9641  212.9590   68.0008 C   0  0  0  0  0  0  0  0  0  0  0  0
   82.2049  208.9653   73.3736 C   0  0  0  0  0  0  0  0  0  0  0  0
   82.2778  211.2181   72.6676 C   0  0  0  0  0  0  0  0  0  0  0  0
   81.5212  206.2596   67.8041 C   0  0  0  0  0  0  0  0  0  0  0  0
   78.8209  201.9811   64.9452 C   0  0  0  0  0  0  0  0  0  0  0  0
   82.5645  208.2381   72.1173 C   0  0  0  0  0  0  0  0  0  0  0  0
   82.1247  211.4279   71.2112 C   0  0  0  0  0  0  0  0  0  0  0  0
   82.0960  207.4175   69.9249 C   0  0  0  0  0  0  0  0  0  0  0  0
   81.2183  203.9888   66.7952 C   0  0  0  0  0  0  0  0  0  0  0  0
   80.1800  202.4549   65.2271 C   0  0  0  0  0  0  0  0  0  0  0  0
   86.1940  214.6442   68.4598 C   0  0  0  0  0  0  0  0  0  0  0  0
   80.0918  203.3891   66.2681 C   0  0  0  0  0  0  0  0  0  0  0  0
   87.8804  214.5597   70.1531 C   0  0  0  0  0  0  0  0  0  0  0  0
   87.8895  216.3516   68.6133 C   0  0  0  0  0  0  0  0  0  0  0  0
   86.7514  214.0126   69.5415 C   0  0  0  0  0  0  0  0  0  0  0  0
   86.7680  215.8133   68.0014 C   0  0  0  0  0  0  0  0  0  0  0  0
   78.6809  203.5970   66.6270 C   0  0  2  0  0  0  0  0  0  0  0  0
   83.3105  206.8524   69.9426 N   0  0  0  0  0  0  0  0  0  0  0  0
   81.3177  210.8123   70.3471 N   0  0  0  0  0  0  0  0  0  0  0  0
   81.5282  211.2831   69.1470 N   0  0  0  0  0  0  0  0  0  0  0  0
   88.4063  215.6977   69.6744 N   0  0  0  0  0  0  0  0  0  0  0  0
   85.0550  214.1198   67.8135 N   0  0  0  0  0  0  0  0  0  0  0  0
   81.2769  207.2230   68.7886 N   0  0  0  0  0  0  0  0  0  0  0  0
   81.0912  204.9147   67.8617 N   0  0  0  0  0  0  0  0  0  0  0  0
   77.9404  202.6369   65.8290 N   0  0  0  0  0  0  0  0  0  0  0  0
   82.4685  212.2149   69.1655 N   0  0  0  0  0  0  0  0  0  0  0  0
   82.1743  206.6017   66.7853 O   0  0  0  0  0  0  0  0  0  0  0  0
   78.4980  201.1433   64.0728 O   0  0  0  0  0  0  0  0  0  0  0  0
   81.6003  210.1353   73.0960 O   0  0  0  0  0  0  0  0  0  0  0  0
  3  1  2  0
  1 10  1  0
  4  2  1  0
  2 11  2  0
 12  3  1  0
 13  4  2  0
  7  5  2  0
  5  8  1  0
  9  6  2  0
  6 38  1  0
 29  7  1  0
 30  8  2  0
 26  9  1  0
 10 33  2  0
 11 34  1  0
 35 12  2  0
 36 13  1  0
 26 14  2  0
 14 28  1  0
 15 27  2  0
 46 15  1  0
 17 16  1  0
 16 19  1  0
 20 17  1  0
 18 21  1  0
 42 18  1  0
 37 19  1  6
 45 20  1  0
 21 46  1  0
 22 26  1  0
 49 22  1  0
 27 23  1  0
 23 49  1  0
 43 24  1  0
 24 44  1  0
 24 47  2  0
 30 25  1  0
 25 45  1  0
 25 48  2  0
 27 39  1  0
 28 38  2  0
 28 43  1  0
 29 32  2  0
 44 29  1  0
 32 30  1  0
 31 35  1  0
 31 36  2  0
 31 42  1  0
 32 37  1  0
 33 35  1  0
 33 41  1  0
 34 36  1  0
 34 41  2  0
 37 45  1  0
 39 40  2  0
 40 46  1  0
M  END
$$$$
