
     RDKit          3D

 49 56  0  0  0  0  0  0  0  0999 V2000
   92.4104  215.3655   67.3176 C   0  0  0  0  0  0  0  0  0  0  0  0
   85.8666  217.0454   69.6346 C   0  0  0  0  0  0  0  0  0  0  0  0
   91.8671  214.8175   66.1786 C   0  0  0  0  0  0  0  0  0  0  0  0
   85.3329  216.4904   68.4817 C   0  0  0  0  0  0  0  0  0  0  0  0
   79.9457  204.8428   74.3666 C   0  0  0  0  0  0  0  0  0  0  0  0
   82.3792  207.5922   68.2232 C   0  0  0  0  0  0  0  0  0  0  0  0
   79.6200  205.4492   73.1563 C   0  0  0  0  0  0  0  0  0  0  0  0
   81.1292  205.1422   74.9961 C   0  0  0  0  0  0  0  0  0  0  0  0
   82.2767  208.0302   66.9214 C   0  0  0  0  0  0  0  0  0  0  0  0
   91.5933  215.9325   68.2829 C   0  0  0  0  0  0  0  0  0  0  0  0
   87.2357  217.0709   69.8628 C   0  0  0  0  0  0  0  0  0  0  0  0
   90.4920  214.8474   66.0209 C   0  0  0  0  0  0  0  0  0  0  0  0
   86.1478  215.9530   67.5369 C   0  0  0  0  0  0  0  0  0  0  0  0
   79.9375  207.6178   67.0334 C   0  0  0  0  0  0  0  0  0  0  0  0
   85.2860  210.6536   65.4425 C   0  0  0  0  0  0  0  0  0  0  0  0
   83.4062  209.9887   73.2063 C   0  0  0  0  0  0  0  0  0  0  0  0
   84.7160  209.4120   72.7066 C   0  0  0  0  0  0  0  0  0  0  0  0
   86.5232  214.1116   65.7550 C   0  0  0  0  0  0  0  0  0  0  0  0
   82.2534  209.0569   72.9599 C   0  0  0  0  0  0  0  0  0  0  0  0
   84.9878  208.1589   73.5341 C   0  0  0  0  0  0  0  0  0  0  0  0
   86.8279  212.6419   65.6363 C   0  0  0  0  0  0  0  0  0  0  0  0
   80.9756  208.5547   64.9239 C   0  0  0  0  0  0  0  0  0  0  0  0
   83.2301  209.1449   65.3079 C   0  0  0  0  0  0  0  0  0  0  0  0
   79.0315  206.6506   70.5253 C   0  0  0  0  0  0  0  0  0  0  0  0
   83.3282  206.5459   74.7843 C   0  0  0  0  0  0  0  0  0  0  0  0
   81.0399  208.0400   66.3265 C   0  0  0  0  0  0  0  0  0  0  0  0
   83.9100  210.4468   65.4852 C   0  0  0  0  0  0  0  0  0  0  0  0
   80.0566  207.1857   68.3271 C   0  0  0  0  0  0  0  0  0  0  0  0
   80.4620  206.3611   72.5591 C   0  0  0  0  0  0  0  0  0  0  0  0
   81.9967  206.0548   74.4139 C   0  0  0  0  0  0  0  0  0  0  0  0
   88.3216  215.4110   66.7816 C   0  0  0  0  0  0  0  0  0  0  0  0
   81.6503  206.6573   73.1969 C   0  0  0  0  0  0  0  0  0  0  0  0
   90.2119  215.9677   68.1363 C   0  0  0  0  0  0  0  0  0  0  0  0
   88.0477  216.5251   68.9023 C   0  0  0  0  0  0  0  0  0  0  0  0
   89.6790  215.4081   66.9739 C   0  0  0  0  0  0  0  0  0  0  0  0
   87.5121  215.9708   67.7499 C   0  0  0  0  0  0  0  0  0  0  0  0
   82.7040  207.6013   72.7953 C   0  0  2  0  0  0  0  0  0  0  0  0
   81.2847  207.1936   68.8622 N   0  0  0  0  0  0  0  0  0  0  0  0
   83.3853  211.6567   65.6798 N   0  0  0  0  0  0  0  0  0  0  0  0
   84.3459  212.5388   65.7523 N   0  0  0  0  0  0  0  0  0  0  0  0
   89.3884  216.5017   69.0513 N   0  0  0  0  0  0  0  0  0  0  0  0
   87.7466  214.8578   65.6183 N   0  0  0  0  0  0  0  0  0  0  0  0
   78.9714  206.7690   69.1327 N   0  0  0  0  0  0  0  0  0  0  0  0
   80.1547  206.9760   71.3187 N   0  0  0  0  0  0  0  0  0  0  0  0
   83.7600  207.4317   73.7766 N   0  0  0  0  0  0  0  0  0  0  0  0
   85.5280  211.9596   65.6109 N   0  0  0  0  0  0  0  0  0  0  0  0
   78.0165  206.2208   71.1307 O   0  0  0  0  0  0  0  0  0  0  0  0
   83.9688  206.2353   75.8140 O   0  0  0  0  0  0  0  0  0  0  0  0
   82.0773  209.2664   64.6216 O   0  0  0  0  0  0  0  0  0  0  0  0
  3  1  2  0
  1 10  1  0
  4  2  1  0
  2 11  2  0
 12  3  1  0
 13  4  2  0
  7  5  2  0
  5  8  1  0
  9  6  2  0
  6 38  1  0
 29  7  1  0
 30  8  2  0
 26  9  1  0
 10 33  2  0
 11 34  1  0
 35 12  2  0
 36 13  1  0
 26 14  2  0
 14 28  1  0
 15 27  2  0
 46 15  1  0
 17 16  1  0
 16 19  1  0
 20 17  1  0
 18 21  1  0
 42 18  1  0
 37 19  1  1
 45 20  1  0
 21 46  1  0
 22 26  1  0
 49 22  1  0
 27 23  1  0
 23 49  1  0
 43 24  1  0
 24 44  1  0
 24 47  2  0
 30 25  1  0
 25 45  1  0
 25 48  2  0
 27 39  1  0
 28 38  2  0
 28 43  1  0
 29 32  2  0
 44 29  1  0
 32 30  1  0
 31 35  1  0
 31 36  2  0
 31 42  1  0
 32 37  1  0
 33 35  1  0
 33 41  1  0
 34 36  1  0
 34 41  2  0
 37 45  1  0
 39 40  2  0
 40 46  1  0
M  END
$$$$
