
     RDKit          3D

 49 56  0  0  0  0  0  0  0  0999 V2000
   85.4546  218.9988   66.8713 C   0  0  0  0  0  0  0  0  0  0  0  0
   81.6435  218.0555   72.8006 C   0  0  0  0  0  0  0  0  0  0  0  0
   85.1318  217.7656   66.3818 C   0  0  0  0  0  0  0  0  0  0  0  0
   81.2770  216.8161   72.3842 C   0  0  0  0  0  0  0  0  0  0  0  0
   89.2057  204.8335   67.5246 C   0  0  0  0  0  0  0  0  0  0  0  0
   83.8904  207.9157   72.2745 C   0  0  0  0  0  0  0  0  0  0  0  0
   88.3710  205.8346   68.0358 C   0  0  0  0  0  0  0  0  0  0  0  0
   90.2147  205.1474   66.6463 C   0  0  0  0  0  0  0  0  0  0  0  0
   82.5509  208.2739   72.1232 C   0  0  0  0  0  0  0  0  0  0  0  0
   84.9648  219.3949   68.0709 C   0  0  0  0  0  0  0  0  0  0  0  0
   82.4631  218.8113   71.9961 C   0  0  0  0  0  0  0  0  0  0  0  0
   84.2886  216.9243   67.1431 C   0  0  0  0  0  0  0  0  0  0  0  0
   81.7118  216.2911   71.1586 C   0  0  0  0  0  0  0  0  0  0  0  0
   83.0806  208.7296   69.8547 C   0  0  0  0  0  0  0  0  0  0  0  0
   82.2967  212.2013   70.6634 C   0  0  0  0  0  0  0  0  0  0  0  0
   91.8669  210.0668   67.1750 C   0  0  0  0  0  0  0  0  0  0  0  0
   92.3613  210.4445   65.8083 C   0  0  0  0  0  0  0  0  0  0  0  0
   83.4100  214.2729   67.9247 C   0  0  0  0  0  0  0  0  0  0  0  0
   90.3946  209.7491   67.2278 C   0  0  0  0  0  0  0  0  0  0  0  0
   91.7688  209.5699   64.7064 C   0  0  0  0  0  0  0  0  0  0  0  0
   83.8325  213.2429   69.0461 C   0  0  0  0  0  0  0  0  0  0  0  0
   80.7447  209.0933   70.5379 C   0  0  0  0  0  0  0  0  0  0  0  0
   80.3002  210.9985   71.8291 C   0  0  0  0  0  0  0  0  0  0  0  0
   86.6238  207.7987   69.1084 C   0  0  0  0  0  0  0  0  0  0  0  0
   91.3858  207.0796   65.3762 C   0  0  0  0  0  0  0  0  0  0  0  0
   82.1316  208.6893   70.8940 C   0  0  0  0  0  0  0  0  0  0  0  0
   81.1075  211.5365   70.6757 C   0  0  0  0  0  0  0  0  0  0  0  0
   84.3808  208.3721   70.0351 C   0  0  0  0  0  0  0  0  0  0  0  0
   88.5568  207.1474   67.6586 C   0  0  0  0  0  0  0  0  0  0  0  0
   90.3910  206.4585   66.2773 C   0  0  0  0  0  0  0  0  0  0  0  0
   82.9616  216.5058   69.1223 C   0  0  0  0  0  0  0  0  0  0  0  0
   89.5726  207.4300   66.7793 C   0  0  0  0  0  0  0  0  0  0  0  0
   84.1308  218.5906   68.8463 C   0  0  0  0  0  0  0  0  0  0  0  0
   82.8800  218.2812   70.7991 C   0  0  0  0  0  0  0  0  0  0  0  0
   83.8052  217.3472   68.3530 C   0  0  0  0  0  0  0  0  0  0  0  0
   82.5297  217.0108   70.3262 C   0  0  0  0  0  0  0  0  0  0  0  0
   89.9865  208.7147   66.2025 C   0  0  2  0  0  0  0  0  0  0  0  0
   84.7797  207.9584   71.2759 N   0  0  0  0  0  0  0  0  0  0  0  0
   80.7325  211.4622   69.3665 N   0  0  0  0  0  0  0  0  0  0  0  0
   81.6562  212.0537   68.6386 N   0  0  0  0  0  0  0  0  0  0  0  0
   83.6759  219.0176   70.0204 N   0  0  0  0  0  0  0  0  0  0  0  0
   82.6245  215.2590   68.5790 N   0  0  0  0  0  0  0  0  0  0  0  0
   85.3513  208.3948   69.0005 N   0  0  0  0  0  0  0  0  0  0  0  0
   87.6918  208.1210   68.2128 N   0  0  0  0  0  0  0  0  0  0  0  0
   91.1264  208.4632   65.3644 N   0  0  0  0  0  0  0  0  0  0  0  0
   82.6219  212.5166   69.3738 N   0  0  0  0  0  0  0  0  0  0  0  0
   86.8665  206.9553   70.0052 O   0  0  0  0  0  0  0  0  0  0  0  0
   92.2831  206.4594   64.7531 O   0  0  0  0  0  0  0  0  0  0  0  0
   80.1204  209.6561   71.5996 O   0  0  0  0  0  0  0  0  0  0  0  0
  3  1  2  0
  1 10  1  0
  4  2  1  0
  2 11  2  0
 12  3  1  0
 13  4  2  0
  7  5  2  0
  5  8  1  0
  9  6  2  0
  6 38  1  0
 29  7  1  0
 30  8  2  0
 26  9  1  0
 10 33  2  0
 11 34  1  0
 35 12  2  0
 36 13  1  0
 26 14  2  0
 14 28  1  0
 15 27  2  0
 46 15  1  0
 16 17  1  1
 16 19  1  0
 17 20  1  6
 18 21  1  0
 18 42  1  6
 19 37  1  6
 20 45  1  6
 21 46  1  6
 22 26  1  0
 22 49  1  6
 27 23  1  0
 23 49  1  6
 43 24  1  0
 24 44  1  0
 24 47  2  0
 30 25  1  0
 25 45  1  0
 25 48  2  0
 27 39  1  0
 28 38  2  0
 28 43  1  0
 29 32  2  0
 44 29  1  0
 32 30  1  0
 31 35  1  0
 31 36  2  0
 31 42  1  0
 37 32  1  1
 33 35  1  0
 33 41  1  0
 34 36  1  0
 34 41  2  0
 37 45  1  0
 39 40  2  0
 40 46  1  0
M  END
$$$$
