
     RDKit          3D

 49 56  0  0  0  0  0  0  0  0999 V2000
   90.9895  217.6857   67.4120 C   0  0  0  0  0  0  0  0  0  0  0  0
   91.6943  211.2959   70.4527 C   0  0  0  0  0  0  0  0  0  0  0  0
   89.7142  217.4276   66.9978 C   0  0  0  0  0  0  0  0  0  0  0  0
   90.4330  210.9624   70.0761 C   0  0  0  0  0  0  0  0  0  0  0  0
   78.5061  203.8032   66.2726 C   0  0  0  0  0  0  0  0  0  0  0  0
   81.0466  210.1922   69.1146 C   0  0  0  0  0  0  0  0  0  0  0  0
   78.8600  204.6020   67.3666 C   0  0  0  0  0  0  0  0  0  0  0  0
   78.1654  202.4843   66.4529 C   0  0  0  0  0  0  0  0  0  0  0  0
   82.0993  210.7361   69.8503 C   0  0  0  0  0  0  0  0  0  0  0  0
   91.6750  216.7436   68.1036 C   0  0  0  0  0  0  0  0  0  0  0  0
   92.1802  212.5385   70.1205 C   0  0  0  0  0  0  0  0  0  0  0  0
   89.1343  216.1747   67.3018 C   0  0  0  0  0  0  0  0  0  0  0  0
   89.6175  211.8512   69.3604 C   0  0  0  0  0  0  0  0  0  0  0  0
   82.2210  208.6372   70.9521 C   0  0  0  0  0  0  0  0  0  0  0  0
   86.1450  211.6207   68.7358 C   0  0  0  0  0  0  0  0  0  0  0  0
   76.3103  201.5344   71.2348 C   0  0  0  0  0  0  0  0  0  0  0  0
   76.6676  200.0995   71.4967 C   0  0  0  0  0  0  0  0  0  0  0  0
   87.3357  213.8400   66.6176 C   0  0  0  0  0  0  0  0  0  0  0  0
   77.5015  202.4381   71.0468 C   0  0  0  0  0  0  0  0  0  0  0  0
   77.8169  199.6104   70.6190 C   0  0  0  0  0  0  0  0  0  0  0  0
   85.9702  213.0548   66.7428 C   0  0  0  0  0  0  0  0  0  0  0  0
   83.8452  210.3480   71.6524 C   0  0  0  0  0  0  0  0  0  0  0  0
   86.1155  210.6537   71.1556 C   0  0  0  0  0  0  0  0  0  0  0  0
   79.7157  206.2514   69.5185 C   0  0  0  0  0  0  0  0  0  0  0  0
   77.8499  200.6043   68.2090 C   0  0  0  0  0  0  0  0  0  0  0  0
   82.7020  209.9503   70.7876 C   0  0  0  0  0  0  0  0  0  0  0  0
   85.8897  211.6776   70.0729 C   0  0  0  0  0  0  0  0  0  0  0  0
   81.1918  208.1362   70.2170 C   0  0  0  0  0  0  0  0  0  0  0  0
   78.8695  204.0675   68.6373 C   0  0  0  0  0  0  0  0  0  0  0  0
   78.1782  201.9619   67.7231 C   0  0  0  0  0  0  0  0  0  0  0  0
   89.2713  213.9786   68.3076 C   0  0  0  0  0  0  0  0  0  0  0  0
   78.5250  202.7468   68.7857 C   0  0  0  0  0  0  0  0  0  0  0  0
   91.1328  215.4989   68.4204 C   0  0  0  0  0  0  0  0  0  0  0  0
   91.3679  213.3961   69.4188 C   0  0  0  0  0  0  0  0  0  0  0  0
   89.8471  215.2384   68.0029 C   0  0  0  0  0  0  0  0  0  0  0  0
   90.0625  213.0994   69.0089 C   0  0  0  0  0  0  0  0  0  0  0  0
   78.4622  201.9222   69.9984 C   0  0  2  0  0  0  0  0  0  0  0  0
   80.6021  208.9415   69.2824 N   0  0  0  0  0  0  0  0  0  0  0  0
   85.3826  212.9264   70.2814 N   0  0  0  0  0  0  0  0  0  0  0  0
   85.3486  213.5560   69.1258 N   0  0  0  0  0  0  0  0  0  0  0  0
   91.8429  214.6017   69.0978 N   0  0  0  0  0  0  0  0  0  0  0  0
   87.9508  213.7557   67.8952 N   0  0  0  0  0  0  0  0  0  0  0  0
   80.6979  206.8136   70.3584 N   0  0  0  0  0  0  0  0  0  0  0  0
   79.2248  204.9213   69.7087 N   0  0  0  0  0  0  0  0  0  0  0  0
   78.0140  200.6142   69.6072 N   0  0  0  0  0  0  0  0  0  0  0  0
   85.7978  212.8112   68.1610 N   0  0  0  0  0  0  0  0  0  0  0  0
   79.2318  206.9070   68.5642 O   0  0  0  0  0  0  0  0  0  0  0  0
   77.4931  199.6433   67.4827 O   0  0  0  0  0  0  0  0  0  0  0  0
   85.0074  209.8422   71.1759 O   0  0  0  0  0  0  0  0  0  0  0  0
  3  1  2  0
  1 10  1  0
  4  2  1  0
  2 11  2  0
 12  3  1  0
 13  4  2  0
  7  5  2  0
  5  8  1  0
  9  6  2  0
  6 38  1  0
 29  7  1  0
 30  8  2  0
 26  9  1  0
 10 33  2  0
 11 34  1  0
 35 12  2  0
 36 13  1  0
 26 14  2  0
 14 28  1  0
 15 27  2  0
 46 15  1  0
 16 17  1  1
 16 19  1  0
 17 20  1  6
 18 21  1  0
 18 42  1  6
 19 37  1  6
 20 45  1  6
 21 46  1  6
 22 26  1  0
 22 49  1  6
 27 23  1  0
 23 49  1  6
 43 24  1  0
 24 44  1  0
 24 47  2  0
 30 25  1  0
 25 45  1  0
 25 48  2  0
 27 39  1  0
 28 38  2  0
 28 43  1  0
 29 32  2  0
 44 29  1  0
 32 30  1  0
 31 35  1  0
 31 36  2  0
 31 42  1  0
 37 32  1  6
 33 35  1  0
 33 41  1  0
 34 36  1  0
 34 41  2  0
 37 45  1  0
 39 40  2  0
 40 46  1  0
M  END
$$$$
