
     RDKit          3D

 49 56  0  0  0  0  0  0  0  0999 V2000
   81.5115  207.0725   65.1306 C   0  0  0  0  0  0  0  0  0  0  0  0
   85.0027  210.6935   70.2011 C   0  0  0  0  0  0  0  0  0  0  0  0
   81.0605  206.1812   66.0766 C   0  0  0  0  0  0  0  0  0  0  0  0
   84.5403  209.7884   71.1440 C   0  0  0  0  0  0  0  0  0  0  0  0
   90.2916  210.6504   69.9482 C   0  0  0  0  0  0  0  0  0  0  0  0
   84.0914  215.1416   71.8829 C   0  0  0  0  0  0  0  0  0  0  0  0
   88.9904  211.0476   69.6520 C   0  0  0  0  0  0  0  0  0  0  0  0
   91.3466  211.1208   69.2050 C   0  0  0  0  0  0  0  0  0  0  0  0
   82.9250  214.5456   72.3092 C   0  0  0  0  0  0  0  0  0  0  0  0
   82.3197  208.1370   65.4972 C   0  0  0  0  0  0  0  0  0  0  0  0
   84.6649  210.5820   68.8592 C   0  0  0  0  0  0  0  0  0  0  0  0
   81.4309  206.3737   67.3967 C   0  0  0  0  0  0  0  0  0  0  0  0
   83.7354  208.7594   70.7716 C   0  0  0  0  0  0  0  0  0  0  0  0
   83.1974  212.9272   70.5884 C   0  0  0  0  0  0  0  0  0  0  0  0
   81.0272  209.1980   73.1458 C   0  0  0  0  0  0  0  0  0  0  0  0
   90.0807  215.7967   66.3049 C   0  0  0  0  0  0  0  0  0  0  0  0
   90.3592  215.2449   64.9208 C   0  0  0  0  0  0  0  0  0  0  0  0
   80.8027  206.8707   70.6050 C   0  0  0  0  0  0  0  0  0  0  0  0
   89.4751  214.7609   67.2097 C   0  0  0  0  0  0  0  0  0  0  0  0
   91.4084  214.1494   65.0880 C   0  0  0  0  0  0  0  0  0  0  0  0
   80.8841  206.9022   72.1080 C   0  0  0  0  0  0  0  0  0  0  0  0
   81.2265  212.7981   72.1709 C   0  0  0  0  0  0  0  0  0  0  0  0
   80.4845  211.5340   74.0230 C   0  0  0  0  0  0  0  0  0  0  0  0
   86.5675  213.0807   69.1421 C   0  0  0  0  0  0  0  0  0  0  0  0
   91.9717  212.6272   67.1578 C   0  0  0  0  0  0  0  0  0  0  0  0
   82.4792  213.4274   71.6502 C   0  0  0  0  0  0  0  0  0  0  0  0
   80.1553  210.2668   73.3343 C   0  0  0  0  0  0  0  0  0  0  0  0
   84.3553  213.5315   70.1775 C   0  0  0  0  0  0  0  0  0  0  0  0
   88.7215  211.9177   68.6186 C   0  0  0  0  0  0  0  0  0  0  0  0
   91.1026  211.9956   68.1564 C   0  0  0  0  0  0  0  0  0  0  0  0
   82.5796  207.5770   69.0817 C   0  0  0  0  0  0  0  0  0  0  0  0
   89.7865  212.3865   67.8753 C   0  0  0  0  0  0  0  0  0  0  0  0
   82.6988  208.3401   66.8186 C   0  0  0  0  0  0  0  0  0  0  0  0
   83.8524  209.5391   68.4958 C   0  0  0  0  0  0  0  0  0  0  0  0
   82.2308  207.4266   67.7644 C   0  0  0  0  0  0  0  0  0  0  0  0
   83.3908  208.6351   69.4401 C   0  0  0  0  0  0  0  0  0  0  0  0
   89.7818  213.3318   66.7487 C   0  0  2  0  0  0  0  0  0  0  0  0
   84.7475  214.6205   70.8519 N   0  0  0  0  0  0  0  0  0  0  0  0
   79.0012  209.8689   72.7988 N   0  0  0  0  0  0  0  0  0  0  0  0
   79.1396  208.6619   72.3193 N   0  0  0  0  0  0  0  0  0  0  0  0
   83.4848  209.3545   67.2108 N   0  0  0  0  0  0  0  0  0  0  0  0
   82.1233  206.6759   70.0666 N   0  0  0  0  0  0  0  0  0  0  0  0
   85.1688  213.0623   69.1201 N   0  0  0  0  0  0  0  0  0  0  0  0
   87.4016  212.3202   68.2919 N   0  0  0  0  0  0  0  0  0  0  0  0
   91.1579  213.3825   66.2897 N   0  0  0  0  0  0  0  0  0  0  0  0
   80.3711  208.2167   72.5141 N   0  0  0  0  0  0  0  0  0  0  0  0
   87.1401  213.8247   69.9789 O   0  0  0  0  0  0  0  0  0  0  0  0
   93.2168  212.5170   67.0884 O   0  0  0  0  0  0  0  0  0  0  0  0
   81.4373  212.2298   73.3726 O   0  0  0  0  0  0  0  0  0  0  0  0
  3  1  2  0
  1 10  1  0
  4  2  1  0
  2 11  2  0
 12  3  1  0
 13  4  2  0
  7  5  2  0
  5  8  1  0
  9  6  2  0
  6 38  1  0
 29  7  1  0
 30  8  2  0
 26  9  1  0
 10 33  2  0
 11 34  1  0
 35 12  2  0
 36 13  1  0
 26 14  2  0
 14 28  1  0
 15 27  2  0
 46 15  1  0
 17 16  1  0
 16 19  1  0
 20 17  1  0
 18 21  1  0
 42 18  1  0
 37 19  1  1
 45 20  1  0
 21 46  1  0
 22 26  1  0
 49 22  1  0
 27 23  1  0
 23 49  1  0
 43 24  1  0
 24 44  1  0
 24 47  2  0
 30 25  1  0
 25 45  1  0
 25 48  2  0
 27 39  1  0
 28 38  2  0
 28 43  1  0
 29 32  2  0
 44 29  1  0
 32 30  1  0
 31 35  1  0
 31 36  2  0
 31 42  1  0
 32 37  1  0
 33 35  1  0
 33 41  1  0
 34 36  1  0
 34 41  2  0
 37 45  1  0
 39 40  2  0
 40 46  1  0
M  END
$$$$
