
     RDKit          3D

 49 56  0  0  0  0  0  0  0  0999 V2000
   87.8869  218.6585   68.8827 C   0  0  0  0  0  0  0  0  0  0  0  0
   92.1314  212.9940   68.1964 C   0  0  0  0  0  0  0  0  0  0  0  0
   86.9166  218.1173   68.0890 C   0  0  0  0  0  0  0  0  0  0  0  0
   91.2160  212.3878   67.3974 C   0  0  0  0  0  0  0  0  0  0  0  0
   78.9732  203.2113   66.9405 C   0  0  0  0  0  0  0  0  0  0  0  0
   80.9149  210.7377   68.1124 C   0  0  0  0  0  0  0  0  0  0  0  0
   79.2902  204.3766   67.6488 C   0  0  0  0  0  0  0  0  0  0  0  0
   78.7933  202.0201   67.6014 C   0  0  0  0  0  0  0  0  0  0  0  0
   81.7866  211.5499   68.8376 C   0  0  0  0  0  0  0  0  0  0  0  0
   89.0225  217.9605   69.1263 C   0  0  0  0  0  0  0  0  0  0  0  0
   91.8518  214.2434   68.6979 C   0  0  0  0  0  0  0  0  0  0  0  0
   87.1201  216.8326   67.5354 C   0  0  0  0  0  0  0  0  0  0  0  0
   89.9975  213.0022   67.0735 C   0  0  0  0  0  0  0  0  0  0  0  0
   82.3698  209.5931   70.0480 C   0  0  0  0  0  0  0  0  0  0  0  0
   85.0140  212.8449   67.2785 C   0  0  0  0  0  0  0  0  0  0  0  0
   77.3044  202.6884   72.5559 C   0  0  0  0  0  0  0  0  0  0  0  0
   77.8344  201.4796   73.2722 C   0  0  0  0  0  0  0  0  0  0  0  0
   87.4882  213.4211   65.3546 C   0  0  0  0  0  0  0  0  0  0  0  0
   78.3748  203.5650   71.9586 C   0  0  0  0  0  0  0  0  0  0  0  0
   78.9850  200.8108   72.5247 C   0  0  0  0  0  0  0  0  0  0  0  0
   86.8893  212.0605   65.8902 C   0  0  0  0  0  0  0  0  0  0  0  0
   83.5208  211.6718   70.6881 C   0  0  0  0  0  0  0  0  0  0  0  0
   83.4445  213.5188   69.2467 C   0  0  0  0  0  0  0  0  0  0  0  0
   80.2498  206.6984   69.0168 C   0  0  0  0  0  0  0  0  0  0  0  0
   78.7822  200.8742   69.9262 C   0  0  0  0  0  0  0  0  0  0  0  0
   82.5304  210.9740   69.8247 C   0  0  0  0  0  0  0  0  0  0  0  0
   84.7182  213.0479   68.5928 C   0  0  0  0  0  0  0  0  0  0  0  0
   81.5109  208.8282   69.3215 C   0  0  0  0  0  0  0  0  0  0  0  0
   79.4250  204.3358   69.0201 C   0  0  0  0  0  0  0  0  0  0  0  0
   78.9299  201.9907   68.9677 C   0  0  0  0  0  0  0  0  0  0  0  0
   88.4871  214.8582   67.2410 C   0  0  0  0  0  0  0  0  0  0  0  0
   79.2399  203.1313   69.6523 C   0  0  0  0  0  0  0  0  0  0  0  0
   89.2545  216.6918   68.5969 C   0  0  0  0  0  0  0  0  0  0  0  0
   90.6538  214.8306   68.3700 C   0  0  0  0  0  0  0  0  0  0  0  0
   88.2763  216.1460   67.7966 C   0  0  0  0  0  0  0  0  0  0  0  0
   89.6789  214.2469   67.5519 C   0  0  0  0  0  0  0  0  0  0  0  0
   79.3326  202.7938   71.0778 C   0  0  2  0  0  0  0  0  0  0  0  0
   80.7748  209.4261   68.3364 N   0  0  0  0  0  0  0  0  0  0  0  0
   85.8511  212.6974   69.2665 N   0  0  0  0  0  0  0  0  0  0  0  0
   86.7515  212.3118   68.3870 N   0  0  0  0  0  0  0  0  0  0  0  0
   90.3856  216.0436   68.8586 N   0  0  0  0  0  0  0  0  0  0  0  0
   87.4600  214.3180   66.4557 N   0  0  0  0  0  0  0  0  0  0  0  0
   81.3406  207.4339   69.5221 N   0  0  0  0  0  0  0  0  0  0  0  0
   79.7360  205.5443   69.6879 N   0  0  0  0  0  0  0  0  0  0  0  0
   79.0155  201.3986   71.2116 N   0  0  0  0  0  0  0  0  0  0  0  0
   86.2958  212.3824   67.1725 N   0  0  0  0  0  0  0  0  0  0  0  0
   79.6846  207.0356   67.9484 O   0  0  0  0  0  0  0  0  0  0  0  0
   78.4995  199.6896   69.6179 O   0  0  0  0  0  0  0  0  0  0  0  0
   83.4405  213.0136   70.5241 O   0  0  0  0  0  0  0  0  0  0  0  0
  3  1  2  0
  1 10  1  0
  4  2  1  0
  2 11  2  0
 12  3  1  0
 13  4  2  0
  7  5  2  0
  5  8  1  0
  9  6  2  0
  6 38  1  0
 29  7  1  0
 30  8  2  0
 26  9  1  0
 10 33  2  0
 11 34  1  0
 35 12  2  0
 36 13  1  0
 26 14  2  0
 14 28  1  0
 15 27  2  0
 46 15  1  0
 16 17  1  1
 16 19  1  0
 17 20  1  6
 18 21  1  0
 18 42  1  6
 19 37  1  6
 20 45  1  6
 21 46  1  6
 22 26  1  0
 22 49  1  6
 27 23  1  0
 23 49  1  6
 43 24  1  0
 24 44  1  0
 24 47  2  0
 30 25  1  0
 25 45  1  0
 25 48  2  0
 27 39  1  0
 28 38  2  0
 28 43  1  0
 29 32  2  0
 44 29  1  0
 32 30  1  0
 31 35  1  0
 31 36  2  0
 31 42  1  0
 37 32  1  6
 33 35  1  0
 33 41  1  0
 34 36  1  0
 34 41  2  0
 37 45  1  0
 39 40  2  0
 40 46  1  0
M  END
$$$$
