
     RDKit          3D

 49 56  0  0  0  0  0  0  0  0999 V2000
   92.2747  213.5352   67.6708 C   0  0  0  0  0  0  0  0  0  0  0  0
   87.3604  210.8126   72.0307 C   0  0  0  0  0  0  0  0  0  0  0  0
   91.4262  213.5404   66.6010 C   0  0  0  0  0  0  0  0  0  0  0  0
   86.4570  210.7848   71.0173 C   0  0  0  0  0  0  0  0  0  0  0  0
   79.6747  201.3293   66.8121 C   0  0  0  0  0  0  0  0  0  0  0  0
   82.5718  206.6070   71.9522 C   0  0  0  0  0  0  0  0  0  0  0  0
   79.8178  202.5521   67.4789 C   0  0  0  0  0  0  0  0  0  0  0  0
   78.6432  201.1347   65.9253 C   0  0  0  0  0  0  0  0  0  0  0  0
   82.7665  207.9815   72.0880 C   0  0  0  0  0  0  0  0  0  0  0  0
   91.8387  213.0848   68.8720 C   0  0  0  0  0  0  0  0  0  0  0  0
   88.6257  211.2885   71.7799 C   0  0  0  0  0  0  0  0  0  0  0  0
   90.1033  213.0723   66.7720 C   0  0  0  0  0  0  0  0  0  0  0  0
   86.7818  211.2286   69.7272 C   0  0  0  0  0  0  0  0  0  0  0  0
   81.7781  208.1860   69.9396 C   0  0  0  0  0  0  0  0  0  0  0  0
   83.4912  212.3280   67.6842 C   0  0  0  0  0  0  0  0  0  0  0  0
   76.9391  205.5975   63.8302 C   0  0  0  0  0  0  0  0  0  0  0  0
   75.4933  205.3367   63.5191 C   0  0  0  0  0  0  0  0  0  0  0  0
   86.8536  213.2813   66.4211 C   0  0  0  0  0  0  0  0  0  0  0  0
   77.2726  205.5250   65.2981 C   0  0  0  0  0  0  0  0  0  0  0  0
   74.9141  204.1859   64.3377 C   0  0  0  0  0  0  0  0  0  0  0  0
   85.3690  212.8043   66.1655 C   0  0  0  0  0  0  0  0  0  0  0  0
   82.4741  210.2749   71.0385 C   0  0  0  0  0  0  0  0  0  0  0  0
   81.8946  212.1347   69.7348 C   0  0  0  0  0  0  0  0  0  0  0  0
   80.2358  205.0311   68.7998 C   0  0  0  0  0  0  0  0  0  0  0  0
   76.5787  202.2359   64.8104 C   0  0  0  0  0  0  0  0  0  0  0  0
   82.3649  208.7915   71.0672 C   0  0  0  0  0  0  0  0  0  0  0  0
   83.1205  212.5687   68.9729 C   0  0  0  0  0  0  0  0  0  0  0  0
   81.6012  206.8409   69.8387 C   0  0  0  0  0  0  0  0  0  0  0  0
   78.9201  203.5728   67.2492 C   0  0  0  0  0  0  0  0  0  0  0  0
   77.7547  202.1582   65.7039 C   0  0  0  0  0  0  0  0  0  0  0  0
   88.3604  212.1484   68.1727 C   0  0  0  0  0  0  0  0  0  0  0  0
   77.8999  203.3483   66.3583 C   0  0  0  0  0  0  0  0  0  0  0  0
   90.5411  212.6172   69.0749 C   0  0  0  0  0  0  0  0  0  0  0  0
   88.9268  211.7187   70.5103 C   0  0  0  0  0  0  0  0  0  0  0  0
   89.6854  212.6224   67.9964 C   0  0  0  0  0  0  0  0  0  0  0  0
   88.0314  211.7105   69.4340 C   0  0  0  0  0  0  0  0  0  0  0  0
   76.8085  204.2344   65.9361 C   0  0  2  0  0  0  0  0  0  0  0  0
   82.0111  206.0473   70.8741 N   0  0  0  0  0  0  0  0  0  0  0  0
   84.1420  213.3016   69.5017 N   0  0  0  0  0  0  0  0  0  0  0  0
   85.0533  213.4732   68.5674 N   0  0  0  0  0  0  0  0  0  0  0  0
   90.1562  212.1801   70.2702 N   0  0  0  0  0  0  0  0  0  0  0  0
   87.5053  212.1949   67.0635 N   0  0  0  0  0  0  0  0  0  0  0  0
   81.0031  206.2104   68.7172 N   0  0  0  0  0  0  0  0  0  0  0  0
   79.1168  204.7914   67.9415 N   0  0  0  0  0  0  0  0  0  0  0  0
   76.0305  203.5240   64.9589 N   0  0  0  0  0  0  0  0  0  0  0  0
   84.7082  212.9050   67.4514 N   0  0  0  0  0  0  0  0  0  0  0  0
   80.5123  204.1398   69.6388 O   0  0  0  0  0  0  0  0  0  0  0  0
   76.1719  201.3071   64.0688 O   0  0  0  0  0  0  0  0  0  0  0  0
   81.9767  210.7713   69.8811 O   0  0  0  0  0  0  0  0  0  0  0  0
  3  1  2  0
  1 10  1  0
  4  2  1  0
  2 11  2  0
 12  3  1  0
 13  4  2  0
  7  5  2  0
  5  8  1  0
  9  6  2  0
  6 38  1  0
 29  7  1  0
 30  8  2  0
 26  9  1  0
 10 33  2  0
 11 34  1  0
 35 12  2  0
 36 13  1  0
 26 14  2  0
 14 28  1  0
 15 27  2  0
 46 15  1  0
 16 17  1  1
 16 19  1  0
 17 20  1  6
 18 21  1  0
 18 42  1  6
 19 37  1  6
 20 45  1  6
 21 46  1  6
 22 26  1  0
 22 49  1  6
 27 23  1  0
 23 49  1  6
 43 24  1  0
 24 44  1  0
 24 47  2  0
 30 25  1  0
 25 45  1  0
 25 48  2  0
 27 39  1  0
 28 38  2  0
 28 43  1  0
 29 32  2  0
 44 29  1  0
 32 30  1  0
 31 35  1  0
 31 36  2  0
 31 42  1  0
 37 32  1  6
 33 35  1  0
 33 41  1  0
 34 36  1  0
 34 41  2  0
 37 45  1  0
 39 40  2  0
 40 46  1  0
M  END
$$$$
