
     RDKit          3D

 49 56  0  0  0  0  0  0  0  0999 V2000
   93.7900  215.7731   64.6338 C   0  0  0  0  0  0  0  0  0  0  0  0
   89.3317  217.4231   69.9641 C   0  0  0  0  0  0  0  0  0  0  0  0
   92.8347  214.9458   64.0901 C   0  0  0  0  0  0  0  0  0  0  0  0
   88.3781  216.5866   69.4046 C   0  0  0  0  0  0  0  0  0  0  0  0
   79.0255  203.4238   66.8690 C   0  0  0  0  0  0  0  0  0  0  0  0
   81.7164  208.6195   72.6318 C   0  0  0  0  0  0  0  0  0  0  0  0
   78.7953  204.3590   67.8745 C   0  0  0  0  0  0  0  0  0  0  0  0
   78.8220  202.0862   67.1060 C   0  0  0  0  0  0  0  0  0  0  0  0
   82.3447  209.5308   71.8120 C   0  0  0  0  0  0  0  0  0  0  0  0
   93.5290  216.4767   65.7990 C   0  0  0  0  0  0  0  0  0  0  0  0
   90.5762  217.6029   69.3759 C   0  0  0  0  0  0  0  0  0  0  0  0
   91.6127  214.8350   64.7312 C   0  0  0  0  0  0  0  0  0  0  0  0
   88.6429  215.9162   68.2532 C   0  0  0  0  0  0  0  0  0  0  0  0
   80.8768  208.8726   70.0609 C   0  0  0  0  0  0  0  0  0  0  0  0
   86.2292  212.2690   67.7302 C   0  0  0  0  0  0  0  0  0  0  0  0
   75.5209  201.1246   71.5842 C   0  0  0  0  0  0  0  0  0  0  0  0
   76.5214  200.3206   72.3907 C   0  0  0  0  0  0  0  0  0  0  0  0
   87.7838  214.6991   66.4189 C   0  0  0  0  0  0  0  0  0  0  0  0
   76.1828  202.2321   70.8138 C   0  0  0  0  0  0  0  0  0  0  0  0
   77.4567  199.6512   71.3877 C   0  0  0  0  0  0  0  0  0  0  0  0
   86.9098  213.6736   65.7471 C   0  0  0  0  0  0  0  0  0  0  0  0
   82.6070  210.6785   69.6738 C   0  0  0  0  0  0  0  0  0  0  0  0
   84.9174  211.1665   69.6235 C   0  0  0  0  0  0  0  0  0  0  0  0
   79.1264  205.7716   70.6928 C   0  0  0  0  0  0  0  0  0  0  0  0
   78.1266  200.3574   68.9441 C   0  0  0  0  0  0  0  0  0  0  0  0
   81.9153  209.6530   70.5142 C   0  0  0  0  0  0  0  0  0  0  0  0
   85.0769  212.1095   68.4948 C   0  0  0  0  0  0  0  0  0  0  0  0
   80.2626  207.9715   70.8890 C   0  0  0  0  0  0  0  0  0  0  0  0
   78.3576  203.9789   69.1239 C   0  0  0  0  0  0  0  0  0  0  0  0
   78.3848  201.6766   68.3571 C   0  0  0  0  0  0  0  0  0  0  0  0
   90.1287  215.3868   66.4919 C   0  0  0  0  0  0  0  0  0  0  0  0
   78.1554  202.6328   69.3557 C   0  0  0  0  0  0  0  0  0  0  0  0
   92.3067  216.3731   66.4520 C   0  0  0  0  0  0  0  0  0  0  0  0
   90.8317  216.9205   68.2145 C   0  0  0  0  0  0  0  0  0  0  0  0
   91.3497  215.5301   65.8850 C   0  0  0  0  0  0  0  0  0  0  0  0
   89.8768  216.0847   67.6564 C   0  0  0  0  0  0  0  0  0  0  0  0
   77.6735  201.9675   70.5755 C   0  0  2  0  0  0  0  0  0  0  0  0
   80.7190  207.8887   72.1458 N   0  0  0  0  0  0  0  0  0  0  0  0
   84.1896  212.9488   67.9606 N   0  0  0  0  0  0  0  0  0  0  0  0
   84.7378  213.5757   66.9543 N   0  0  0  0  0  0  0  0  0  0  0  0
   92.0196  217.0330   67.5846 N   0  0  0  0  0  0  0  0  0  0  0  0
   89.1351  214.5467   65.9469 N   0  0  0  0  0  0  0  0  0  0  0  0
   79.1685  207.1583   70.5127 N   0  0  0  0  0  0  0  0  0  0  0  0
   78.1338  204.9155   70.1650 N   0  0  0  0  0  0  0  0  0  0  0  0
   77.7522  200.5467   70.2896 N   0  0  0  0  0  0  0  0  0  0  0  0
   85.9907  213.1841   66.7823 N   0  0  0  0  0  0  0  0  0  0  0  0
   80.0336  205.2322   71.3767 O   0  0  0  0  0  0  0  0  0  0  0  0
   78.2204  199.2569   68.3549 O   0  0  0  0  0  0  0  0  0  0  0  0
   83.8833  210.3238   69.4355 O   0  0  0  0  0  0  0  0  0  0  0  0
  3  1  2  0
  1 10  1  0
  4  2  1  0
  2 11  2  0
 12  3  1  0
 13  4  2  0
  7  5  2  0
  5  8  1  0
  9  6  2  0
  6 38  1  0
 29  7  1  0
 30  8  2  0
 26  9  1  0
 10 33  2  0
 11 34  1  0
 35 12  2  0
 36 13  1  0
 26 14  2  0
 14 28  1  0
 15 27  2  0
 46 15  1  0
 17 16  1  0
 16 19  1  0
 20 17  1  0
 18 21  1  0
 42 18  1  0
 37 19  1  6
 45 20  1  0
 21 46  1  0
 22 26  1  0
 49 22  1  0
 27 23  1  0
 23 49  1  0
 43 24  1  0
 24 44  1  0
 24 47  2  0
 30 25  1  0
 25 45  1  0
 25 48  2  0
 27 39  1  0
 28 38  2  0
 28 43  1  0
 29 32  2  0
 44 29  1  0
 32 30  1  0
 31 35  1  0
 31 36  2  0
 31 42  1  0
 32 37  1  0
 33 35  1  0
 33 41  1  0
 34 36  1  0
 34 41  2  0
 37 45  1  0
 39 40  2  0
 40 46  1  0
M  END
$$$$
