
     RDKit          3D

 49 56  0  0  0  0  0  0  0  0999 V2000
   89.5299  211.0600   70.7981 C   0  0  0  0  0  0  0  0  0  0  0  0
   92.7857  216.1761   67.0837 C   0  0  0  0  0  0  0  0  0  0  0  0
   88.2856  211.4851   70.4300 C   0  0  0  0  0  0  0  0  0  0  0  0
   91.5855  216.6608   66.6733 C   0  0  0  0  0  0  0  0  0  0  0  0
   78.0014  201.8103   67.2669 C   0  0  0  0  0  0  0  0  0  0  0  0
   80.3932  209.2478   68.5664 C   0  0  0  0  0  0  0  0  0  0  0  0
   79.0807  202.6800   67.4641 C   0  0  0  0  0  0  0  0  0  0  0  0
   77.5368  201.0298   68.2979 C   0  0  0  0  0  0  0  0  0  0  0  0
   81.2134  210.1181   69.2842 C   0  0  0  0  0  0  0  0  0  0  0  0
   90.6255  211.7157   70.3447 C   0  0  0  0  0  0  0  0  0  0  0  0
   92.8112  215.0761   67.9081 C   0  0  0  0  0  0  0  0  0  0  0  0
   88.1679  212.6075   69.5787 C   0  0  0  0  0  0  0  0  0  0  0  0
   90.3769  216.0686   67.0676 C   0  0  0  0  0  0  0  0  0  0  0  0
   82.2656  208.1761   70.1534 C   0  0  0  0  0  0  0  0  0  0  0  0
   84.6359  212.9131   67.3192 C   0  0  0  0  0  0  0  0  0  0  0  0
   78.5575  203.0886   72.9808 C   0  0  0  0  0  0  0  0  0  0  0  0
   78.6667  201.9025   73.8953 C   0  0  0  0  0  0  0  0  0  0  0  0
   87.3939  215.3289   66.6863 C   0  0  0  0  0  0  0  0  0  0  0  0
   79.5992  203.1210   71.8923 C   0  0  0  0  0  0  0  0  0  0  0  0
   78.9718  200.6082   73.1456 C   0  0  0  0  0  0  0  0  0  0  0  0
   86.2956  214.3188   66.1664 C   0  0  0  0  0  0  0  0  0  0  0  0
   83.1426  210.3440   70.9194 C   0  0  0  0  0  0  0  0  0  0  0  0
   83.0714  211.7824   69.0699 C   0  0  0  0  0  0  0  0  0  0  0  0
   80.6023  205.0821   68.8587 C   0  0  0  0  0  0  0  0  0  0  0  0
   77.8577  200.4186   70.7962 C   0  0  0  0  0  0  0  0  0  0  0  0
   82.1690  209.5795   70.0943 C   0  0  0  0  0  0  0  0  0  0  0  0
   84.0849  212.7731   68.5573 C   0  0  0  0  0  0  0  0  0  0  0  0
   81.4501  207.3544   69.4391 C   0  0  0  0  0  0  0  0  0  0  0  0
   79.6871  202.7584   68.6997 C   0  0  0  0  0  0  0  0  0  0  0  0
   78.1482  201.1158   69.5247 C   0  0  0  0  0  0  0  0  0  0  0  0
   89.1778  214.3823   68.2811 C   0  0  0  0  0  0  0  0  0  0  0  0
   79.2011  201.9659   69.7099 C   0  0  0  0  0  0  0  0  0  0  0  0
   90.5447  212.8248   69.5039 C   0  0  0  0  0  0  0  0  0  0  0  0
   91.6178  214.5090   68.2850 C   0  0  0  0  0  0  0  0  0  0  0  0
   89.2903  213.2536   69.1326 C   0  0  0  0  0  0  0  0  0  0  0  0
   90.3569  214.9708   67.8886 C   0  0  0  0  0  0  0  0  0  0  0  0
   79.6521  201.8333   71.1004 C   0  0  2  0  0  0  0  0  0  0  0  0
   80.4989  207.9158   68.6329 N   0  0  0  0  0  0  0  0  0  0  0  0
   84.6757  213.7399   69.3167 N   0  0  0  0  0  0  0  0  0  0  0  0
   85.5229  214.4012   68.5565 N   0  0  0  0  0  0  0  0  0  0  0  0
   91.6461  213.4411   69.0856 N   0  0  0  0  0  0  0  0  0  0  0  0
   87.8887  214.7752   67.8972 N   0  0  0  0  0  0  0  0  0  0  0  0
   81.5364  205.9387   69.4751 N   0  0  0  0  0  0  0  0  0  0  0  0
   80.7671  203.6611   68.8475 N   0  0  0  0  0  0  0  0  0  0  0  0
   78.7813  200.8913   71.7477 N   0  0  0  0  0  0  0  0  0  0  0  0
   85.5362  213.9413   67.3417 N   0  0  0  0  0  0  0  0  0  0  0  0
   79.5813  205.5423   68.2928 O   0  0  0  0  0  0  0  0  0  0  0  0
   76.9477  199.5687   70.9629 O   0  0  0  0  0  0  0  0  0  0  0  0
   83.3499  211.5769   70.3993 O   0  0  0  0  0  0  0  0  0  0  0  0
  3  1  2  0
  1 10  1  0
  4  2  1  0
  2 11  2  0
 12  3  1  0
 13  4  2  0
  7  5  2  0
  5  8  1  0
  9  6  2  0
  6 38  1  0
 29  7  1  0
 30  8  2  0
 26  9  1  0
 10 33  2  0
 11 34  1  0
 35 12  2  0
 36 13  1  0
 26 14  2  0
 14 28  1  0
 15 27  2  0
 46 15  1  0
 16 17  1  1
 16 19  1  0
 17 20  1  6
 18 21  1  0
 18 42  1  6
 19 37  1  6
 20 45  1  6
 21 46  1  6
 22 26  1  0
 22 49  1  6
 27 23  1  0
 23 49  1  6
 43 24  1  0
 24 44  1  0
 24 47  2  0
 30 25  1  0
 25 45  1  0
 25 48  2  0
 27 39  1  0
 28 38  2  0
 28 43  1  0
 29 32  2  0
 44 29  1  0
 32 30  1  0
 31 35  1  0
 31 36  2  0
 31 42  1  0
 37 32  1  6
 33 35  1  0
 33 41  1  0
 34 36  1  0
 34 41  2  0
 37 45  1  0
 39 40  2  0
 40 46  1  0
M  END
$$$$
