
     RDKit          3D

 49 56  0  0  0  0  0  0  0  0999 V2000
   92.4896  215.1288   67.8650 C   0  0  0  0  0  0  0  0  0  0  0  0
   86.8278  219.3539   68.9151 C   0  0  0  0  0  0  0  0  0  0  0  0
   91.7249  214.2984   67.0786 C   0  0  0  0  0  0  0  0  0  0  0  0
   86.0692  218.5088   68.1198 C   0  0  0  0  0  0  0  0  0  0  0  0
   77.9780  201.9520   68.7897 C   0  0  0  0  0  0  0  0  0  0  0  0
   83.8966  206.5455   71.8146 C   0  0  0  0  0  0  0  0  0  0  0  0
   78.8036  203.0722   68.8363 C   0  0  0  0  0  0  0  0  0  0  0  0
   76.7170  202.0417   68.2527 C   0  0  0  0  0  0  0  0  0  0  0  0
   84.5526  207.6238   71.2633 C   0  0  0  0  0  0  0  0  0  0  0  0
   91.9344  216.2631   68.4359 C   0  0  0  0  0  0  0  0  0  0  0  0
   88.1724  219.1100   69.1591 C   0  0  0  0  0  0  0  0  0  0  0  0
   90.3949  214.6226   66.8719 C   0  0  0  0  0  0  0  0  0  0  0  0
   86.6317  217.4095   67.5537 C   0  0  0  0  0  0  0  0  0  0  0  0
   82.6564  207.9878   69.8755 C   0  0  0  0  0  0  0  0  0  0  0  0
   85.7835  212.3109   69.2229 C   0  0  0  0  0  0  0  0  0  0  0  0
   76.0574  206.5611   64.9336 C   0  0  0  0  0  0  0  0  0  0  0  0
   74.9288  207.2075   65.7122 C   0  0  0  0  0  0  0  0  0  0  0  0
   87.2137  213.9711   66.9810 C   0  0  0  0  0  0  0  0  0  0  0  0
   77.0500  205.8887   65.8396 C   0  0  0  0  0  0  0  0  0  0  0  0
   74.1786  206.0799   66.4153 C   0  0  0  0  0  0  0  0  0  0  0  0
   85.8685  214.2422   67.6006 C   0  0  0  0  0  0  0  0  0  0  0  0
   84.6598  209.5282   69.7402 C   0  0  0  0  0  0  0  0  0  0  0  0
   85.7525  210.8812   71.3385 C   0  0  0  0  0  0  0  0  0  0  0  0
   80.4198  205.5313   69.1279 C   0  0  0  0  0  0  0  0  0  0  0  0
   74.9998  203.7012   67.1812 C   0  0  0  0  0  0  0  0  0  0  0  0
   83.9200  208.3477   70.2839 C   0  0  0  0  0  0  0  0  0  0  0  0
   85.8662  212.1606   70.6044 C   0  0  0  0  0  0  0  0  0  0  0  0
   82.0178  206.9130   70.4341 C   0  0  0  0  0  0  0  0  0  0  0  0
   78.3897  204.2918   68.3479 C   0  0  0  0  0  0  0  0  0  0  0  0
   76.2743  203.2594   67.7571 C   0  0  0  0  0  0  0  0  0  0  0  0
   88.5180  216.0260   67.2104 C   0  0  0  0  0  0  0  0  0  0  0  0
   77.1208  204.3750   67.8097 C   0  0  0  0  0  0  0  0  0  0  0  0
   90.6007  216.5985   68.2365 C   0  0  0  0  0  0  0  0  0  0  0  0
   88.7285  217.9973   68.5827 C   0  0  0  0  0  0  0  0  0  0  0  0
   89.8410  215.7450   67.4350 C   0  0  0  0  0  0  0  0  0  0  0  0
   87.9685  217.1535   67.7876 C   0  0  0  0  0  0  0  0  0  0  0  0
   76.4485  205.5343   67.2040 C   0  0  2  0  0  0  0  0  0  0  0  0
   82.6776  206.2381   71.3848 N   0  0  0  0  0  0  0  0  0  0  0  0
   86.0291  213.3964   71.0767 N   0  0  0  0  0  0  0  0  0  0  0  0
   86.0468  214.2417   70.0811 N   0  0  0  0  0  0  0  0  0  0  0  0
   90.0264  217.6839   68.7774 N   0  0  0  0  0  0  0  0  0  0  0  0
   87.7192  215.1889   66.4035 N   0  0  0  0  0  0  0  0  0  0  0  0
   80.7086  206.4985   70.0965 N   0  0  0  0  0  0  0  0  0  0  0  0
   79.2104  205.4469   68.4019 N   0  0  0  0  0  0  0  0  0  0  0  0
   75.1032  205.0793   66.9040 N   0  0  0  0  0  0  0  0  0  0  0  0
   85.8987  213.6115   68.9263 N   0  0  0  0  0  0  0  0  0  0  0  0
   81.2933  204.6624   68.8751 O   0  0  0  0  0  0  0  0  0  0  0  0
   73.9968  202.9823   66.9710 O   0  0  0  0  0  0  0  0  0  0  0  0
   85.7266  209.8219   70.5065 O   0  0  0  0  0  0  0  0  0  0  0  0
  3  1  2  0
  1 10  1  0
  4  2  1  0
  2 11  2  0
 12  3  1  0
 13  4  2  0
  7  5  2  0
  5  8  1  0
  9  6  2  0
  6 38  1  0
 29  7  1  0
 30  8  2  0
 26  9  1  0
 10 33  2  0
 11 34  1  0
 35 12  2  0
 36 13  1  0
 26 14  2  0
 14 28  1  0
 15 27  2  0
 46 15  1  0
 17 16  1  0
 16 19  1  0
 20 17  1  0
 18 21  1  0
 42 18  1  0
 37 19  1  6
 45 20  1  0
 21 46  1  0
 22 26  1  0
 49 22  1  0
 27 23  1  0
 23 49  1  0
 43 24  1  0
 24 44  1  0
 24 47  2  0
 30 25  1  0
 25 45  1  0
 25 48  2  0
 27 39  1  0
 28 38  2  0
 28 43  1  0
 29 32  2  0
 44 29  1  0
 32 30  1  0
 31 35  1  0
 31 36  2  0
 31 42  1  0
 32 37  1  0
 33 35  1  0
 33 41  1  0
 34 36  1  0
 34 41  2  0
 37 45  1  0
 39 40  2  0
 40 46  1  0
M  END
$$$$
