
     RDKit          3D

 49 56  0  0  0  0  0  0  0  0999 V2000
   78.7685  201.7414   64.5957 C   0  0  0  0  0  0  0  0  0  0  0  0
   84.0784  205.0150   68.0106 C   0  0  0  0  0  0  0  0  0  0  0  0
   77.8476  202.0951   65.5397 C   0  0  0  0  0  0  0  0  0  0  0  0
   83.2247  205.4058   68.9916 C   0  0  0  0  0  0  0  0  0  0  0  0
   87.5964  213.4409   65.2393 C   0  0  0  0  0  0  0  0  0  0  0  0
   82.1223  212.2465   70.4748 C   0  0  0  0  0  0  0  0  0  0  0  0
   87.1474  213.1103   66.5235 C   0  0  0  0  0  0  0  0  0  0  0  0
   88.8017  214.0770   65.0637 C   0  0  0  0  0  0  0  0  0  0  0  0
   81.7396  211.3500   71.4724 C   0  0  0  0  0  0  0  0  0  0  0  0
   80.0592  202.1285   64.7380 C   0  0  0  0  0  0  0  0  0  0  0  0
   83.5893  204.2747   66.9603 C   0  0  0  0  0  0  0  0  0  0  0  0
   78.2645  202.8619   66.6517 C   0  0  0  0  0  0  0  0  0  0  0  0
   81.8623  205.0747   68.9591 C   0  0  0  0  0  0  0  0  0  0  0  0
   84.0189  210.6923   71.5521 C   0  0  0  0  0  0  0  0  0  0  0  0
   79.1934  207.9040   70.1082 C   0  0  0  0  0  0  0  0  0  0  0  0
   92.1396  213.1467   68.9629 C   0  0  0  0  0  0  0  0  0  0  0  0
   93.0093  214.3700   69.0108 C   0  0  0  0  0  0  0  0  0  0  0  0
   77.9712  205.3315   68.7596 C   0  0  0  0  0  0  0  0  0  0  0  0
   90.6858  213.4166   69.2542 C   0  0  0  0  0  0  0  0  0  0  0  0
   92.3528  215.5840   68.3585 C   0  0  0  0  0  0  0  0  0  0  0  0
   78.5941  206.6221   68.0940 C   0  0  0  0  0  0  0  0  0  0  0  0
   82.4866  209.5566   73.1071 C   0  0  0  0  0  0  0  0  0  0  0  0
   80.4344  209.0117   72.1142 C   0  0  0  0  0  0  0  0  0  0  0  0
   86.0528  212.7052   69.1345 C   0  0  0  0  0  0  0  0  0  0  0  0
   90.8785  215.0417   66.2778 C   0  0  0  0  0  0  0  0  0  0  0  0
   82.6999  210.5554   72.0254 C   0  0  0  0  0  0  0  0  0  0  0  0
   80.2971  208.2072   70.8471 C   0  0  0  0  0  0  0  0  0  0  0  0
   84.3597  211.5780   70.5775 C   0  0  0  0  0  0  0  0  0  0  0  0
   87.9150  213.4231   67.6249 C   0  0  0  0  0  0  0  0  0  0  0  0
   89.5585  214.3839   66.1679 C   0  0  0  0  0  0  0  0  0  0  0  0
   79.9991  204.0083   67.8887 C   0  0  0  0  0  0  0  0  0  0  0  0
   89.1140  214.0590   67.4179 C   0  0  0  0  0  0  0  0  0  0  0  0
   80.5032  202.8852   65.8214 C   0  0  0  0  0  0  0  0  0  0  0  0
   82.2522  203.9590   66.9448 C   0  0  0  0  0  0  0  0  0  0  0  0
   79.5748  203.2419   66.7733 C   0  0  0  0  0  0  0  0  0  0  0  0
   81.3333  204.3383   67.9307 C   0  0  0  0  0  0  0  0  0  0  0  0
   90.1147  214.5179   68.3888 C   0  0  2  0  0  0  0  0  0  0  0  0
   83.3810  212.3651   70.0369 N   0  0  0  0  0  0  0  0  0  0  0  0
   81.3296  207.5856   70.2086 N   0  0  0  0  0  0  0  0  0  0  0  0
   80.8462  206.9568   69.1580 N   0  0  0  0  0  0  0  0  0  0  0  0
   81.7806  203.2399   65.9236 N   0  0  0  0  0  0  0  0  0  0  0  0
   79.0246  204.3808   68.8242 N   0  0  0  0  0  0  0  0  0  0  0  0
   85.6833  211.7401   70.0928 N   0  0  0  0  0  0  0  0  0  0  0  0
   87.4191  213.0573   68.8991 N   0  0  0  0  0  0  0  0  0  0  0  0
   91.2026  215.0931   67.6468 N   0  0  0  0  0  0  0  0  0  0  0  0
   79.5615  207.1177   69.0525 N   0  0  0  0  0  0  0  0  0  0  0  0
   85.1851  213.2950   68.4461 O   0  0  0  0  0  0  0  0  0  0  0  0
   91.5586  215.4637   65.3095 O   0  0  0  0  0  0  0  0  0  0  0  0
   81.6003  208.6093   72.7189 O   0  0  0  0  0  0  0  0  0  0  0  0
  3  1  2  0
  1 10  1  0
  4  2  1  0
  2 11  2  0
 12  3  1  0
 13  4  2  0
  7  5  2  0
  5  8  1  0
  9  6  2  0
  6 38  1  0
 29  7  1  0
 30  8  2  0
 26  9  1  0
 10 33  2  0
 11 34  1  0
 35 12  2  0
 36 13  1  0
 26 14  2  0
 14 28  1  0
 15 27  2  0
 46 15  1  0
 16 17  1  1
 16 19  1  0
 17 20  1  6
 18 21  1  0
 18 42  1  6
 19 37  1  6
 20 45  1  6
 21 46  1  6
 22 26  1  0
 22 49  1  6
 27 23  1  0
 23 49  1  6
 43 24  1  0
 24 44  1  0
 24 47  2  0
 30 25  1  0
 25 45  1  0
 25 48  2  0
 27 39  1  0
 28 38  2  0
 28 43  1  0
 29 32  2  0
 44 29  1  0
 32 30  1  0
 31 35  1  0
 31 36  2  0
 31 42  1  0
 37 32  1  6
 33 35  1  0
 33 41  1  0
 34 36  1  0
 34 41  2  0
 37 45  1  0
 39 40  2  0
 40 46  1  0
M  END
$$$$
