
     RDKit          3D

 49 56  0  0  0  0  0  0  0  0999 V2000
   90.7378  216.9062   67.7727 C   0  0  0  0  0  0  0  0  0  0  0  0
   86.8495  212.4313   71.7007 C   0  0  0  0  0  0  0  0  0  0  0  0
   90.5598  216.1746   66.6336 C   0  0  0  0  0  0  0  0  0  0  0  0
   86.6263  211.6492   70.6134 C   0  0  0  0  0  0  0  0  0  0  0  0
   78.9121  202.3287   68.9894 C   0  0  0  0  0  0  0  0  0  0  0  0
   79.5146  209.2374   66.4975 C   0  0  0  0  0  0  0  0  0  0  0  0
   78.7041  203.6825   69.2791 C   0  0  0  0  0  0  0  0  0  0  0  0
   79.4797  201.4947   69.9223 C   0  0  0  0  0  0  0  0  0  0  0  0
   80.6026  210.1098   66.4722 C   0  0  0  0  0  0  0  0  0  0  0  0
   90.1705  216.4934   68.9319 C   0  0  0  0  0  0  0  0  0  0  0  0
   87.6134  213.5656   71.5577 C   0  0  0  0  0  0  0  0  0  0  0  0
   89.7827  214.9951   66.6899 C   0  0  0  0  0  0  0  0  0  0  0  0
   87.1532  211.9694   69.3537 C   0  0  0  0  0  0  0  0  0  0  0  0
   81.4362  208.8913   68.3308 C   0  0  0  0  0  0  0  0  0  0  0  0
   85.2790  213.0122   67.3139 C   0  0  0  0  0  0  0  0  0  0  0  0
   78.7187  203.1505   74.8100 C   0  0  0  0  0  0  0  0  0  0  0  0
   79.9034  202.6281   75.5708 C   0  0  0  0  0  0  0  0  0  0  0  0
   87.3736  212.9153   65.6486 C   0  0  0  0  0  0  0  0  0  0  0  0
   79.0733  204.1306   73.7215 C   0  0  0  0  0  0  0  0  0  0  0  0
   81.0889  202.3068   74.6645 C   0  0  0  0  0  0  0  0  0  0  0  0
   86.7521  214.3517   65.8664 C   0  0  0  0  0  0  0  0  0  0  0  0
   82.8224  210.7564   67.5213 C   0  0  0  0  0  0  0  0  0  0  0  0
   83.6770  212.1666   69.1873 C   0  0  0  0  0  0  0  0  0  0  0  0
   78.9461  206.5692   69.7428 C   0  0  0  0  0  0  0  0  0  0  0  0
   80.4473  201.3569   72.3229 C   0  0  0  0  0  0  0  0  0  0  0  0
   81.5847  209.9396   67.4027 C   0  0  0  0  0  0  0  0  0  0  0  0
   84.4955  213.1708   68.4170 C   0  0  0  0  0  0  0  0  0  0  0  0
   80.3622  208.0564   68.3279 C   0  0  0  0  0  0  0  0  0  0  0  0
   79.0699  204.1897   70.5077 C   0  0  0  0  0  0  0  0  0  0  0  0
   79.8404  202.0103   71.1431 C   0  0  0  0  0  0  0  0  0  0  0  0
   88.4410  213.4140   67.9364 C   0  0  0  0  0  0  0  0  0  0  0  0
   79.6351  203.3322   71.4188 C   0  0  0  0  0  0  0  0  0  0  0  0
   89.3983  215.3362   69.0219 C   0  0  0  0  0  0  0  0  0  0  0  0
   88.1220  213.8637   70.3167 C   0  0  0  0  0  0  0  0  0  0  0  0
   89.2187  214.5984   67.8735 C   0  0  0  0  0  0  0  0  0  0  0  0
   87.9198  213.0905   69.1671 C   0  0  0  0  0  0  0  0  0  0  0  0
   80.1260  203.5940   72.7771 C   0  0  2  0  0  0  0  0  0  0  0  0
   79.3891  208.2449   67.3859 N   0  0  0  0  0  0  0  0  0  0  0  0
   84.6120  214.4897   68.7446 N   0  0  0  0  0  0  0  0  0  0  0  0
   85.4207  215.0604   67.8767 N   0  0  0  0  0  0  0  0  0  0  0  0
   88.8633  214.9657   70.1814 N   0  0  0  0  0  0  0  0  0  0  0  0
   88.2519  212.7020   66.7444 N   0  0  0  0  0  0  0  0  0  0  0  0
   80.1970  206.9877   69.2464 N   0  0  0  0  0  0  0  0  0  0  0  0
   78.8280  205.5626   70.7523 N   0  0  0  0  0  0  0  0  0  0  0  0
   80.5932  202.3457   73.3143 N   0  0  0  0  0  0  0  0  0  0  0  0
   85.8504  214.2115   66.9922 N   0  0  0  0  0  0  0  0  0  0  0  0
   77.8805  207.0721   69.3115 O   0  0  0  0  0  0  0  0  0  0  0  0
   80.7615  200.1427   72.3948 O   0  0  0  0  0  0  0  0  0  0  0  0
   82.6355  211.7916   68.3740 O   0  0  0  0  0  0  0  0  0  0  0  0
  3  1  2  0
  1 10  1  0
  4  2  1  0
  2 11  2  0
 12  3  1  0
 13  4  2  0
  7  5  2  0
  5  8  1  0
  9  6  2  0
  6 38  1  0
 29  7  1  0
 30  8  2  0
 26  9  1  0
 10 33  2  0
 11 34  1  0
 35 12  2  0
 36 13  1  0
 26 14  2  0
 14 28  1  0
 15 27  2  0
 46 15  1  0
 16 17  1  1
 16 19  1  0
 17 20  1  6
 18 21  1  0
 18 42  1  6
 19 37  1  6
 20 45  1  6
 21 46  1  6
 22 26  1  0
 22 49  1  6
 27 23  1  0
 23 49  1  6
 43 24  1  0
 24 44  1  0
 24 47  2  0
 30 25  1  0
 25 45  1  0
 25 48  2  0
 27 39  1  0
 28 38  2  0
 28 43  1  0
 29 32  2  0
 44 29  1  0
 32 30  1  0
 31 35  1  0
 31 36  2  0
 31 42  1  0
 37 32  1  6
 33 35  1  0
 33 41  1  0
 34 36  1  0
 34 41  2  0
 37 45  1  0
 39 40  2  0
 40 46  1  0
M  END
$$$$
