
     RDKit          3D

 49 56  0  0  0  0  0  0  0  0999 V2000
   87.7378  218.5765   69.6988 C   0  0  0  0  0  0  0  0  0  0  0  0
   91.6340  212.6376   70.0481 C   0  0  0  0  0  0  0  0  0  0  0  0
   87.5793  218.4786   68.3461 C   0  0  0  0  0  0  0  0  0  0  0  0
   91.5230  212.4696   68.7051 C   0  0  0  0  0  0  0  0  0  0  0  0
   77.0183  206.1541   74.6319 C   0  0  0  0  0  0  0  0  0  0  0  0
   82.3479  206.9140   69.3083 C   0  0  0  0  0  0  0  0  0  0  0  0
   77.9065  206.9208   73.8681 C   0  0  0  0  0  0  0  0  0  0  0  0
   77.1064  204.7829   74.6370 C   0  0  0  0  0  0  0  0  0  0  0  0
   83.0746  207.7771   68.4884 C   0  0  0  0  0  0  0  0  0  0  0  0
   88.4515  217.6346   70.3616 C   0  0  0  0  0  0  0  0  0  0  0  0
   91.0262  213.7227   70.6343 C   0  0  0  0  0  0  0  0  0  0  0  0
   88.1675  217.3896   67.6632 C   0  0  0  0  0  0  0  0  0  0  0  0
   90.8060  213.3716   67.9056 C   0  0  0  0  0  0  0  0  0  0  0  0
   82.7378  209.4205   70.1677 C   0  0  0  0  0  0  0  0  0  0  0  0
   85.7443  212.5804   65.2825 C   0  0  0  0  0  0  0  0  0  0  0  0
   81.9109  203.0842   73.5229 C   0  0  0  0  0  0  0  0  0  0  0  0
   81.6947  201.7422   72.8845 C   0  0  0  0  0  0  0  0  0  0  0  0
   88.7355  214.2307   65.4836 C   0  0  0  0  0  0  0  0  0  0  0  0
   81.3126  204.2328   72.7523 C   0  0  0  0  0  0  0  0  0  0  0  0
   80.2859  201.5801   72.3197 C   0  0  0  0  0  0  0  0  0  0  0  0
   87.2002  214.5650   65.3162 C   0  0  0  0  0  0  0  0  0  0  0  0
   84.0376  210.1079   68.1945 C   0  0  0  0  0  0  0  0  0  0  0  0
   84.3462  210.4694   65.8991 C   0  0  0  0  0  0  0  0  0  0  0  0
   80.6802  208.0334   72.9733 C   0  0  0  0  0  0  0  0  0  0  0  0
   78.4120  202.7458   73.7077 C   0  0  0  0  0  0  0  0  0  0  0  0
   83.2770  209.0548   68.9195 C   0  0  0  0  0  0  0  0  0  0  0  0
   85.2177  211.6728   66.1516 C   0  0  0  0  0  0  0  0  0  0  0  0
   82.0339  208.5535   70.9444 C   0  0  0  0  0  0  0  0  0  0  0  0
   78.8790  206.3017   73.1123 C   0  0  0  0  0  0  0  0  0  0  0  0
   78.0790  204.1764   73.8804 C   0  0  0  0  0  0  0  0  0  0  0  0
   89.4793  215.3567   67.6747 C   0  0  0  0  0  0  0  0  0  0  0  0
   78.9418  204.9304   73.1371 C   0  0  0  0  0  0  0  0  0  0  0  0
   89.0438  216.5484   69.7191 C   0  0  0  0  0  0  0  0  0  0  0  0
   90.3284  214.5964   69.8359 C   0  0  0  0  0  0  0  0  0  0  0  0
   88.8841  216.4494   68.3553 C   0  0  0  0  0  0  0  0  0  0  0  0
   90.1850  214.4663   68.4493 C   0  0  0  0  0  0  0  0  0  0  0  0
   79.8500  204.0181   72.4319 C   0  0  2  0  0  0  0  0  0  0  0  0
   81.8429  207.2770   70.4929 N   0  0  0  0  0  0  0  0  0  0  0  0
   85.6741  212.0549   67.3787 N   0  0  0  0  0  0  0  0  0  0  0  0
   86.4247  213.1254   67.2247 N   0  0  0  0  0  0  0  0  0  0  0  0
   89.7396  215.6489   70.4083 N   0  0  0  0  0  0  0  0  0  0  0  0
   89.2730  215.2680   66.2915 N   0  0  0  0  0  0  0  0  0  0  0  0
   81.4908  208.8969   72.2094 N   0  0  0  0  0  0  0  0  0  0  0  0
   79.7573  207.1240   72.3669 N   0  0  0  0  0  0  0  0  0  0  0  0
   79.5117  202.6798   72.8312 N   0  0  0  0  0  0  0  0  0  0  0  0
   86.4989  213.4832   65.9781 N   0  0  0  0  0  0  0  0  0  0  0  0
   80.7418  208.0323   74.2266 O   0  0  0  0  0  0  0  0  0  0  0  0
   77.8068  201.7915   74.2565 O   0  0  0  0  0  0  0  0  0  0  0  0
   84.4684  209.6503   66.9951 O   0  0  0  0  0  0  0  0  0  0  0  0
  3  1  2  0
  1 10  1  0
  4  2  1  0
  2 11  2  0
 12  3  1  0
 13  4  2  0
  7  5  2  0
  5  8  1  0
  9  6  2  0
  6 38  1  0
 29  7  1  0
 30  8  2  0
 26  9  1  0
 10 33  2  0
 11 34  1  0
 35 12  2  0
 36 13  1  0
 26 14  2  0
 14 28  1  0
 15 27  2  0
 46 15  1  0
 16 17  1  1
 16 19  1  0
 17 20  1  6
 18 21  1  0
 18 42  1  6
 19 37  1  6
 20 45  1  6
 21 46  1  6
 22 26  1  0
 22 49  1  6
 27 23  1  0
 23 49  1  6
 43 24  1  0
 24 44  1  0
 24 47  2  0
 30 25  1  0
 25 45  1  0
 25 48  2  0
 27 39  1  0
 28 38  2  0
 28 43  1  0
 29 32  2  0
 44 29  1  0
 32 30  1  0
 31 35  1  0
 31 36  2  0
 31 42  1  0
 37 32  1  1
 33 35  1  0
 33 41  1  0
 34 36  1  0
 34 41  2  0
 37 45  1  0
 39 40  2  0
 40 46  1  0
M  END
$$$$
