
     RDKit          3D

 49 56  0  0  0  0  0  0  0  0999 V2000
   85.9440  215.1963   70.2656 C   0  0  0  0  0  0  0  0  0  0  0  0
   92.7784  213.2433   70.0441 C   0  0  0  0  0  0  0  0  0  0  0  0
   85.4989  213.9232   70.0518 C   0  0  0  0  0  0  0  0  0  0  0  0
   92.4167  211.9524   69.8280 C   0  0  0  0  0  0  0  0  0  0  0  0
   79.1788  211.7908   65.2402 C   0  0  0  0  0  0  0  0  0  0  0  0
   81.4382  207.3331   71.5181 C   0  0  0  0  0  0  0  0  0  0  0  0
   79.8923  211.2952   66.3381 C   0  0  0  0  0  0  0  0  0  0  0  0
   79.5624  212.9602   64.6290 C   0  0  0  0  0  0  0  0  0  0  0  0
   82.2460  207.3789   72.6542 C   0  0  0  0  0  0  0  0  0  0  0  0
   87.2752  215.4411   70.3276 C   0  0  0  0  0  0  0  0  0  0  0  0
   91.7952  214.1937   70.1872 C   0  0  0  0  0  0  0  0  0  0  0  0
   86.4433  212.8826   69.8987 C   0  0  0  0  0  0  0  0  0  0  0  0
   91.0705  211.5670   69.7485 C   0  0  0  0  0  0  0  0  0  0  0  0
   82.4916  209.6972   72.2073 C   0  0  0  0  0  0  0  0  0  0  0  0
   86.7237  208.5239   70.7962 C   0  0  0  0  0  0  0  0  0  0  0  0
   84.6393  213.9759   65.2638 C   0  0  0  0  0  0  0  0  0  0  0  0
   84.7305  215.4740   65.2128 C   0  0  0  0  0  0  0  0  0  0  0  0
   88.5477  209.8275   68.6463 C   0  0  0  0  0  0  0  0  0  0  0  0
   83.8191  213.4507   66.4138 C   0  0  0  0  0  0  0  0  0  0  0  0
   83.4002  216.1548   65.5245 C   0  0  0  0  0  0  0  0  0  0  0  0
   87.2121  209.0105   68.4331 C   0  0  0  0  0  0  0  0  0  0  0  0
   83.6535  208.8262   74.1940 C   0  0  0  0  0  0  0  0  0  0  0  0
   85.7586  208.4972   73.2168 C   0  0  0  0  0  0  0  0  0  0  0  0
   81.0434  210.6317   68.9221 C   0  0  0  0  0  0  0  0  0  0  0  0
   81.2947  214.8880   64.6535 C   0  0  0  0  0  0  0  0  0  0  0  0
   82.7858  208.5792   73.0111 C   0  0  0  0  0  0  0  0  0  0  0  0
   85.8598  208.9181   71.7731 C   0  0  0  0  0  0  0  0  0  0  0  0
   81.6984  209.6190   71.1049 C   0  0  0  0  0  0  0  0  0  0  0  0
   80.9887  211.9811   66.8154 C   0  0  0  0  0  0  0  0  0  0  0  0
   80.6562  213.6354   65.1125 C   0  0  0  0  0  0  0  0  0  0  0  0
   88.7360  212.1150   69.8096 C   0  0  0  0  0  0  0  0  0  0  0  0
   81.3472  213.1466   66.1844 C   0  0  0  0  0  0  0  0  0  0  0  0
   88.2327  214.4383   70.1815 C   0  0  0  0  0  0  0  0  0  0  0  0
   90.4818  213.7985   70.1060 C   0  0  0  0  0  0  0  0  0  0  0  0
   87.7841  213.1548   69.9660 C   0  0  0  0  0  0  0  0  0  0  0  0
   90.0590  212.4821   69.8855 C   0  0  0  0  0  0  0  0  0  0  0  0
   82.4437  214.0767   66.4799 C   0  0  2  0  0  0  0  0  0  0  0  0
   81.1674  208.4055   70.7653 N   0  0  0  0  0  0  0  0  0  0  0  0
   85.0605  209.8509   71.1805 N   0  0  0  0  0  0  0  0  0  0  0  0
   85.4443  209.9876   69.9287 N   0  0  0  0  0  0  0  0  0  0  0  0
   89.5297  214.7239   70.2453 N   0  0  0  0  0  0  0  0  0  0  0  0
   88.2472  210.8153   69.6218 N   0  0  0  0  0  0  0  0  0  0  0  0
   81.3802  210.7337   70.2868 N   0  0  0  0  0  0  0  0  0  0  0  0
   81.6801  211.4309   67.9210 N   0  0  0  0  0  0  0  0  0  0  0  0
   82.3971  215.1236   65.4966 N   0  0  0  0  0  0  0  0  0  0  0  0
   86.4448  209.2085   69.6466 N   0  0  0  0  0  0  0  0  0  0  0  0
   80.1634  209.8257   68.5340 O   0  0  0  0  0  0  0  0  0  0  0  0
   80.9017  215.5873   63.6867 O   0  0  0  0  0  0  0  0  0  0  0  0
   84.8495  209.3356   73.8149 O   0  0  0  0  0  0  0  0  0  0  0  0
  3  1  2  0
  1 10  1  0
  4  2  1  0
  2 11  2  0
 12  3  1  0
 13  4  2  0
  7  5  2  0
  5  8  1  0
  9  6  2  0
  6 38  1  0
 29  7  1  0
 30  8  2  0
 26  9  1  0
 10 33  2  0
 11 34  1  0
 35 12  2  0
 36 13  1  0
 26 14  2  0
 14 28  1  0
 15 27  2  0
 46 15  1  0
 16 17  1  1
 16 19  1  0
 17 20  1  6
 18 21  1  0
 18 42  1  6
 19 37  1  6
 20 45  1  6
 21 46  1  6
 22 26  1  0
 22 49  1  6
 27 23  1  0
 23 49  1  6
 43 24  1  0
 24 44  1  0
 24 47  2  0
 30 25  1  0
 25 45  1  0
 25 48  2  0
 27 39  1  0
 28 38  2  0
 28 43  1  0
 29 32  2  0
 44 29  1  0
 32 30  1  0
 31 35  1  0
 31 36  2  0
 31 42  1  0
 37 32  1  6
 33 35  1  0
 33 41  1  0
 34 36  1  0
 34 41  2  0
 37 45  1  0
 39 40  2  0
 40 46  1  0
M  END
$$$$
