
     RDKit          3D

 49 56  0  0  0  0  0  0  0  0999 V2000
   86.5941  217.7766   69.1458 C   0  0  0  0  0  0  0  0  0  0  0  0
   93.0081  215.2135   67.4537 C   0  0  0  0  0  0  0  0  0  0  0  0
   86.0667  216.5312   69.3335 C   0  0  0  0  0  0  0  0  0  0  0  0
   92.5592  213.9427   67.6199 C   0  0  0  0  0  0  0  0  0  0  0  0
   79.4804  203.4235   68.1419 C   0  0  0  0  0  0  0  0  0  0  0  0
   82.0174  210.7459   66.1013 C   0  0  0  0  0  0  0  0  0  0  0  0
   79.3998  204.8150   68.2733 C   0  0  0  0  0  0  0  0  0  0  0  0
   79.9906  202.6548   69.1602 C   0  0  0  0  0  0  0  0  0  0  0  0
   82.1486  212.0379   66.6101 C   0  0  0  0  0  0  0  0  0  0  0  0
   87.8934  217.9086   68.7847 C   0  0  0  0  0  0  0  0  0  0  0  0
   92.1385  216.2578   67.6620 C   0  0  0  0  0  0  0  0  0  0  0  0
   86.8936  215.4002   69.1453 C   0  0  0  0  0  0  0  0  0  0  0  0
   91.2363  213.6712   67.9981 C   0  0  0  0  0  0  0  0  0  0  0  0
   80.6904  211.3438   68.3496 C   0  0  0  0  0  0  0  0  0  0  0  0
   85.6404  211.8704   69.6274 C   0  0  0  0  0  0  0  0  0  0  0  0
   79.4808  204.9269   73.8280 C   0  0  0  0  0  0  0  0  0  0  0  0
   80.6296  204.3905   74.6328 C   0  0  0  0  0  0  0  0  0  0  0  0
   88.9664  211.8554   68.5698 C   0  0  0  0  0  0  0  0  0  0  0  0
   79.8987  205.7382   72.6287 C   0  0  0  0  0  0  0  0  0  0  0  0
   81.7629  203.8602   73.7584 C   0  0  0  0  0  0  0  0  0  0  0  0
   87.7745  210.8754   68.9099 C   0  0  0  0  0  0  0  0  0  0  0  0
   81.5065  213.6630   68.4522 C   0  0  0  0  0  0  0  0  0  0  0  0
   83.3840  213.1670   69.7650 C   0  0  0  0  0  0  0  0  0  0  0  0
   80.2339  207.7208   68.5170 C   0  0  0  0  0  0  0  0  0  0  0  0
   80.9912  202.7082   71.5506 C   0  0  0  0  0  0  0  0  0  0  0  0
   81.4758  212.3494   67.7545 C   0  0  0  0  0  0  0  0  0  0  0  0
   84.6256  212.6181   69.1103 C   0  0  0  0  0  0  0  0  0  0  0  0
   80.5842  210.0918   67.8281 C   0  0  0  0  0  0  0  0  0  0  0  0
   79.8345  205.4255   69.4303 C   0  0  0  0  0  0  0  0  0  0  0  0
   80.4207  203.2733   70.3086 C   0  0  0  0  0  0  0  0  0  0  0  0
   89.0374  214.4277   68.5872 C   0  0  0  0  0  0  0  0  0  0  0  0
   80.3397  204.6313   70.4298 C   0  0  0  0  0  0  0  0  0  0  0  0
   88.7359  216.8148   68.5915 C   0  0  0  0  0  0  0  0  0  0  0  0
   90.8461  215.9736   68.0316 C   0  0  0  0  0  0  0  0  0  0  0  0
   88.2043  215.5591   68.7807 C   0  0  0  0  0  0  0  0  0  0  0  0
   90.3366  214.6826   68.2159 C   0  0  0  0  0  0  0  0  0  0  0  0
   80.8798  205.0027   71.7432 C   0  0  2  0  0  0  0  0  0  0  0  0
   81.2675  209.8010   66.6799 N   0  0  0  0  0  0  0  0  0  0  0  0
   84.9687  212.8229   67.8062 N   0  0  0  0  0  0  0  0  0  0  0  0
   86.1207  212.2257   67.5841 N   0  0  0  0  0  0  0  0  0  0  0  0
   90.0043  216.9900   68.2330 N   0  0  0  0  0  0  0  0  0  0  0  0
   88.4749  213.1650   68.8169 N   0  0  0  0  0  0  0  0  0  0  0  0
   79.8076  209.0603   68.4162 N   0  0  0  0  0  0  0  0  0  0  0  0
   79.7209  206.8337   69.5151 N   0  0  0  0  0  0  0  0  0  0  0  0
   81.2449  203.7877   72.4179 N   0  0  0  0  0  0  0  0  0  0  0  0
   86.5683  211.6360   68.6516 N   0  0  0  0  0  0  0  0  0  0  0  0
   81.0879  207.2548   67.7244 O   0  0  0  0  0  0  0  0  0  0  0  0
   81.1975  201.4870   71.7609 O   0  0  0  0  0  0  0  0  0  0  0  0
   82.7666  213.9725   68.8393 O   0  0  0  0  0  0  0  0  0  0  0  0
  3  1  2  0
  1 10  1  0
  4  2  1  0
  2 11  2  0
 12  3  1  0
 13  4  2  0
  7  5  2  0
  5  8  1  0
  9  6  2  0
  6 38  1  0
 29  7  1  0
 30  8  2  0
 26  9  1  0
 10 33  2  0
 11 34  1  0
 35 12  2  0
 36 13  1  0
 26 14  2  0
 14 28  1  0
 15 27  2  0
 46 15  1  0
 16 17  1  1
 16 19  1  0
 17 20  1  6
 18 21  1  0
 18 42  1  6
 19 37  1  6
 20 45  1  6
 21 46  1  6
 22 26  1  0
 22 49  1  6
 27 23  1  0
 23 49  1  6
 43 24  1  0
 24 44  1  0
 24 47  2  0
 30 25  1  0
 25 45  1  0
 25 48  2  0
 27 39  1  0
 28 38  2  0
 28 43  1  0
 29 32  2  0
 44 29  1  0
 32 30  1  0
 31 35  1  0
 31 36  2  0
 31 42  1  0
 37 32  1  6
 33 35  1  0
 33 41  1  0
 34 36  1  0
 34 41  2  0
 37 45  1  0
 39 40  2  0
 40 46  1  0
M  END
$$$$
