
     RDKit          3D

 49 56  0  0  0  0  0  0  0  0999 V2000
   87.3347  219.9444   69.3087 C   0  0  0  0  0  0  0  0  0  0  0  0
   92.2434  215.4525   66.7128 C   0  0  0  0  0  0  0  0  0  0  0  0
   86.3354  219.1047   68.8739 C   0  0  0  0  0  0  0  0  0  0  0  0
   91.2263  214.6153   66.2808 C   0  0  0  0  0  0  0  0  0  0  0  0
   79.6646  202.1003   65.4205 C   0  0  0  0  0  0  0  0  0  0  0  0
   80.5920  206.8144   71.1318 C   0  0  0  0  0  0  0  0  0  0  0  0
   80.2761  203.2041   66.0091 C   0  0  0  0  0  0  0  0  0  0  0  0
   78.7306  201.3719   66.1160 C   0  0  0  0  0  0  0  0  0  0  0  0
   81.3236  207.7617   71.8133 C   0  0  0  0  0  0  0  0  0  0  0  0
   88.6658  219.6179   69.1027 C   0  0  0  0  0  0  0  0  0  0  0  0
   91.9740  216.6393   67.3806 C   0  0  0  0  0  0  0  0  0  0  0  0
   86.6904  217.9315   68.2301 C   0  0  0  0  0  0  0  0  0  0  0  0
   89.9266  214.9411   66.5047 C   0  0  0  0  0  0  0  0  0  0  0  0
   82.7593  207.9205   69.9245 C   0  0  0  0  0  0  0  0  0  0  0  0
   84.0237  212.3290   68.4405 C   0  0  0  0  0  0  0  0  0  0  0  0
   76.5540  204.1972   70.4928 C   0  0  0  0  0  0  0  0  0  0  0  0
   76.9796  203.2276   71.5776 C   0  0  0  0  0  0  0  0  0  0  0  0
   86.9719  214.4278   67.7518 C   0  0  0  0  0  0  0  0  0  0  0  0
   77.5832  204.3064   69.4034 C   0  0  0  0  0  0  0  0  0  0  0  0
   77.0675  201.8506   70.9255 C   0  0  0  0  0  0  0  0  0  0  0  0
   85.6789  213.8286   67.2658 C   0  0  0  0  0  0  0  0  0  0  0  0
   83.1595  209.3631   71.9650 C   0  0  0  0  0  0  0  0  0  0  0  0
   82.8479  210.8210   70.1330 C   0  0  0  0  0  0  0  0  0  0  0  0
   81.6026  205.4935   67.3134 C   0  0  0  0  0  0  0  0  0  0  0  0
   77.5105  201.1723   68.4230 C   0  0  0  0  0  0  0  0  0  0  0  0
   82.4175  208.3160   71.1972 C   0  0  0  0  0  0  0  0  0  0  0  0
   83.9856  211.6305   69.6442 C   0  0  0  0  0  0  0  0  0  0  0  0
   82.0212  206.9775   69.2605 C   0  0  0  0  0  0  0  0  0  0  0  0
   79.9658  203.5996   67.2915 C   0  0  0  0  0  0  0  0  0  0  0  0
   78.4026  201.7471   67.4106 C   0  0  0  0  0  0  0  0  0  0  0  0
   88.3152  216.4355   67.3764 C   0  0  0  0  0  0  0  0  0  0  0  0
   79.0263  202.8629   67.9852 C   0  0  0  0  0  0  0  0  0  0  0  0
   89.0344  218.4438   68.4571 C   0  0  0  0  0  0  0  0  0  0  0  0
   90.6585  216.9574   67.6001 C   0  0  0  0  0  0  0  0  0  0  0  0
   88.0071  217.6039   68.0242 C   0  0  0  0  0  0  0  0  0  0  0  0
   89.6428  216.1188   67.1676 C   0  0  0  0  0  0  0  0  0  0  0  0
   78.4998  203.0796   69.3411 C   0  0  2  0  0  0  0  0  0  0  0  0
   80.9641  206.4657   69.9050 N   0  0  0  0  0  0  0  0  0  0  0  0
   85.1544  211.8894   70.2304 N   0  0  0  0  0  0  0  0  0  0  0  0
   85.8587  212.6775   69.4629 N   0  0  0  0  0  0  0  0  0  0  0  0
   90.3113  218.0969   68.2337 N   0  0  0  0  0  0  0  0  0  0  0  0
   87.3045  215.5598   66.9273 N   0  0  0  0  0  0  0  0  0  0  0  0
   82.2838  206.5419   67.9410 N   0  0  0  0  0  0  0  0  0  0  0  0
   80.5903  204.7108   67.9130 N   0  0  0  0  0  0  0  0  0  0  0  0
   77.6204  201.9523   69.5918 N   0  0  0  0  0  0  0  0  0  0  0  0
   85.1965  212.9690   68.3541 N   0  0  0  0  0  0  0  0  0  0  0  0
   81.9055  205.2133   66.1254 O   0  0  0  0  0  0  0  0  0  0  0  0
   76.7787  200.1673   68.2760 O   0  0  0  0  0  0  0  0  0  0  0  0
   82.9261  210.5876   71.4575 O   0  0  0  0  0  0  0  0  0  0  0  0
  3  1  2  0
  1 10  1  0
  4  2  1  0
  2 11  2  0
 12  3  1  0
 13  4  2  0
  7  5  2  0
  5  8  1  0
  9  6  2  0
  6 38  1  0
 29  7  1  0
 30  8  2  0
 26  9  1  0
 10 33  2  0
 11 34  1  0
 35 12  2  0
 36 13  1  0
 26 14  2  0
 14 28  1  0
 15 27  2  0
 46 15  1  0
 17 16  1  0
 16 19  1  0
 20 17  1  0
 18 21  1  0
 42 18  1  0
 37 19  1  6
 45 20  1  0
 21 46  1  0
 22 26  1  0
 49 22  1  0
 27 23  1  0
 23 49  1  0
 43 24  1  0
 24 44  1  0
 24 47  2  0
 30 25  1  0
 25 45  1  0
 25 48  2  0
 27 39  1  0
 28 38  2  0
 28 43  1  0
 29 32  2  0
 44 29  1  0
 32 30  1  0
 31 35  1  0
 31 36  2  0
 31 42  1  0
 32 37  1  0
 33 35  1  0
 33 41  1  0
 34 36  1  0
 34 41  2  0
 37 45  1  0
 39 40  2  0
 40 46  1  0
M  END
$$$$
