
     RDKit          3D

 49 56  0  0  0  0  0  0  0  0999 V2000
   87.9699  218.8258   69.0117 C   0  0  0  0  0  0  0  0  0  0  0  0
   93.0736  214.0453   67.7188 C   0  0  0  0  0  0  0  0  0  0  0  0
   87.0071  218.0669   68.4105 C   0  0  0  0  0  0  0  0  0  0  0  0
   92.1757  213.2328   67.1042 C   0  0  0  0  0  0  0  0  0  0  0  0
   82.3949  203.9928   68.0173 C   0  0  0  0  0  0  0  0  0  0  0  0
   82.9782  210.8684   71.9463 C   0  0  0  0  0  0  0  0  0  0  0  0
   81.9974  205.1728   68.6574 C   0  0  0  0  0  0  0  0  0  0  0  0
   81.4869  202.9901   67.7757 C   0  0  0  0  0  0  0  0  0  0  0  0
   82.8652  212.1770   71.4769 C   0  0  0  0  0  0  0  0  0  0  0  0
   89.2452  218.3715   69.0691 C   0  0  0  0  0  0  0  0  0  0  0  0
   92.6405  215.2440   68.2346 C   0  0  0  0  0  0  0  0  0  0  0  0
   87.3650  216.8161   67.8574 C   0  0  0  0  0  0  0  0  0  0  0  0
   90.8235  213.5849   66.9841 C   0  0  0  0  0  0  0  0  0  0  0  0
   81.6669  211.2608   69.6441 C   0  0  0  0  0  0  0  0  0  0  0  0
   85.5857  213.1670   68.3605 C   0  0  0  0  0  0  0  0  0  0  0  0
   76.5943  204.7652   67.4266 C   0  0  0  0  0  0  0  0  0  0  0  0
   75.7448  203.6124   67.8788 C   0  0  0  0  0  0  0  0  0  0  0  0
   88.0404  213.1011   66.1261 C   0  0  0  0  0  0  0  0  0  0  0  0
   77.5221  205.2963   68.4888 C   0  0  0  0  0  0  0  0  0  0  0  0
   76.5190  202.6105   68.7315 C   0  0  0  0  0  0  0  0  0  0  0  0
   87.4156  212.0623   67.1397 C   0  0  0  0  0  0  0  0  0  0  0  0
   81.9632  213.7036   69.6596 C   0  0  0  0  0  0  0  0  0  0  0  0
   84.1359  214.4716   70.0889 C   0  0  0  0  0  0  0  0  0  0  0  0
   81.2937  207.5549   70.0374 C   0  0  0  0  0  0  0  0  0  0  0  0
   79.0085  202.2763   68.0332 C   0  0  0  0  0  0  0  0  0  0  0  0
   82.1989  212.3843   70.3053 C   0  0  0  0  0  0  0  0  0  0  0  0
   85.3979  213.9066   69.4891 C   0  0  0  0  0  0  0  0  0  0  0  0
   81.7938  209.9964   70.1297 C   0  0  0  0  0  0  0  0  0  0  0  0
   80.6866  205.3364   69.0515 C   0  0  0  0  0  0  0  0  0  0  0  0
   80.1836  203.1636   68.1725 C   0  0  0  0  0  0  0  0  0  0  0  0
   89.0261  215.1254   67.3720 C   0  0  0  0  0  0  0  0  0  0  0  0
   79.8028  204.3171   68.7970 C   0  0  0  0  0  0  0  0  0  0  0  0
   89.6314  217.1432   68.5345 C   0  0  0  0  0  0  0  0  0  0  0  0
   91.3126  215.5732   68.1075 C   0  0  0  0  0  0  0  0  0  0  0  0
   88.6609  216.3779   67.9283 C   0  0  0  0  0  0  0  0  0  0  0  0
   90.3498  214.7704   67.4840 C   0  0  0  0  0  0  0  0  0  0  0  0
   78.3730  204.2120   69.1118 C   0  0  2  0  0  0  0  0  0  0  0  0
   82.4656  209.8113   71.3062 N   0  0  0  0  0  0  0  0  0  0  0  0
   86.6401  214.0321   70.0383 N   0  0  0  0  0  0  0  0  0  0  0  0
   87.4979  213.3975   69.2673 N   0  0  0  0  0  0  0  0  0  0  0  0
   90.8956  216.7378   68.6093 N   0  0  0  0  0  0  0  0  0  0  0  0
   88.0096  214.3570   66.7889 N   0  0  0  0  0  0  0  0  0  0  0  0
   81.2570  208.8515   69.4861 N   0  0  0  0  0  0  0  0  0  0  0  0
   80.3359  206.5525   69.6850 N   0  0  0  0  0  0  0  0  0  0  0  0
   77.9107  202.9515   68.5996 N   0  0  0  0  0  0  0  0  0  0  0  0
   86.9118  212.8582   68.2411 N   0  0  0  0  0  0  0  0  0  0  0  0
   82.1793  207.2316   70.8655 O   0  0  0  0  0  0  0  0  0  0  0  0
   79.0214  201.1380   67.5020 O   0  0  0  0  0  0  0  0  0  0  0  0
   83.1229  214.2253   69.1943 O   0  0  0  0  0  0  0  0  0  0  0  0
  3  1  2  0
  1 10  1  0
  4  2  1  0
  2 11  2  0
 12  3  1  0
 13  4  2  0
  7  5  2  0
  5  8  1  0
  9  6  2  0
  6 38  1  0
 29  7  1  0
 30  8  2  0
 26  9  1  0
 10 33  2  0
 11 34  1  0
 35 12  2  0
 36 13  1  0
 26 14  2  0
 14 28  1  0
 15 27  2  0
 46 15  1  0
 16 17  1  1
 16 19  1  0
 17 20  1  6
 18 21  1  0
 18 42  1  6
 19 37  1  6
 20 45  1  6
 21 46  1  6
 22 26  1  0
 22 49  1  6
 27 23  1  0
 23 49  1  6
 43 24  1  0
 24 44  1  0
 24 47  2  0
 30 25  1  0
 25 45  1  0
 25 48  2  0
 27 39  1  0
 28 38  2  0
 28 43  1  0
 29 32  2  0
 44 29  1  0
 32 30  1  0
 31 35  1  0
 31 36  2  0
 31 42  1  0
 37 32  1  6
 33 35  1  0
 33 41  1  0
 34 36  1  0
 34 41  2  0
 37 45  1  0
 39 40  2  0
 40 46  1  0
M  END
$$$$
