
     RDKit          3D

 49 56  0  0  0  0  0  0  0  0999 V2000
   88.7919  212.3868   71.2631 C   0  0  0  0  0  0  0  0  0  0  0  0
   88.9540  218.2879   67.2429 C   0  0  0  0  0  0  0  0  0  0  0  0
   87.5992  212.0228   70.6818 C   0  0  0  0  0  0  0  0  0  0  0  0
   87.7523  217.9084   66.6650 C   0  0  0  0  0  0  0  0  0  0  0  0
   78.3578  200.3012   68.8628 C   0  0  0  0  0  0  0  0  0  0  0  0
   81.0544  207.4647   70.2734 C   0  0  0  0  0  0  0  0  0  0  0  0
   78.4899  201.6735   68.6676 C   0  0  0  0  0  0  0  0  0  0  0  0
   78.9322  199.6975   69.9547 C   0  0  0  0  0  0  0  0  0  0  0  0
   80.7980  208.8141   70.1712 C   0  0  0  0  0  0  0  0  0  0  0  0
   89.4310  213.5561   70.8820 C   0  0  0  0  0  0  0  0  0  0  0  0
   89.5730  217.5093   68.2113 C   0  0  0  0  0  0  0  0  0  0  0  0
   87.0570  212.8481   69.7114 C   0  0  0  0  0  0  0  0  0  0  0  0
   87.1461  216.7512   67.0373 C   0  0  0  0  0  0  0  0  0  0  0  0
   78.9212  208.2902   68.8084 C   0  0  0  0  0  0  0  0  0  0  0  0
   83.6323  212.3709   67.8056 C   0  0  0  0  0  0  0  0  0  0  0  0
   80.1780  203.3444   74.0808 C   0  0  0  0  0  0  0  0  0  0  0  0
   81.6704  203.0820   74.1243 C   0  0  0  0  0  0  0  0  0  0  0  0
   85.9175  213.4301   66.7345 C   0  0  0  0  0  0  0  0  0  0  0  0
   79.6376  203.2763   72.6803 C   0  0  0  0  0  0  0  0  0  0  0  0
   81.8776  201.6466   73.6496 C   0  0  0  0  0  0  0  0  0  0  0  0
   86.1023  212.0812   67.3772 C   0  0  0  0  0  0  0  0  0  0  0  0
   79.4632  210.6964   69.3755 C   0  0  0  0  0  0  0  0  0  0  0  0
   81.2278  212.0672   68.6101 C   0  0  0  0  0  0  0  0  0  0  0  0
   78.7840  204.5844   68.2898 C   0  0  0  0  0  0  0  0  0  0  0  0
   80.4072  200.1418   72.0708 C   0  0  0  0  0  0  0  0  0  0  0  0
   79.7188  209.2239   69.4291 C   0  0  0  0  0  0  0  0  0  0  0  0
   82.6419  211.6548   68.4722 C   0  0  0  0  0  0  0  0  0  0  0  0
   79.1898  206.9522   68.9202 C   0  0  0  0  0  0  0  0  0  0  0  0
   79.1892  202.4622   69.5542 C   0  0  0  0  0  0  0  0  0  0  0  0
   79.6451  200.4688   70.8610 C   0  0  0  0  0  0  0  0  0  0  0  0
   87.1121  214.7988   68.3704 C   0  0  0  0  0  0  0  0  0  0  0  0
   79.7644  201.8490   70.6495 C   0  0  0  0  0  0  0  0  0  0  0  0
   88.8963  214.3928   69.9099 C   0  0  0  0  0  0  0  0  0  0  0  0
   88.9511  216.3440   68.5790 C   0  0  0  0  0  0  0  0  0  0  0  0
   87.6865  214.0066   69.3306 C   0  0  0  0  0  0  0  0  0  0  0  0
   87.7496  215.9661   67.9998 C   0  0  0  0  0  0  0  0  0  0  0  0
   80.5331  202.4526   71.7483 C   0  0  2  0  0  0  0  0  0  0  0  0
   80.2549  206.6032   69.6540 N   0  0  0  0  0  0  0  0  0  0  0  0
   83.2619  210.5800   68.9593 N   0  0  0  0  0  0  0  0  0  0  0  0
   84.5245  210.6208   68.6271 N   0  0  0  0  0  0  0  0  0  0  0  0
   89.4820  215.5352   69.5195 N   0  0  0  0  0  0  0  0  0  0  0  0
   85.8920  214.4399   67.7600 N   0  0  0  0  0  0  0  0  0  0  0  0
   78.4019  205.9290   68.3438 N   0  0  0  0  0  0  0  0  0  0  0  0
   79.3482  203.8583   69.3629 N   0  0  0  0  0  0  0  0  0  0  0  0
   80.9767  201.3344   72.5606 N   0  0  0  0  0  0  0  0  0  0  0  0
   84.7894  211.7067   67.9176 N   0  0  0  0  0  0  0  0  0  0  0  0
   78.6210  203.9620   67.2092 O   0  0  0  0  0  0  0  0  0  0  0  0
   80.5300  199.0050   72.5804 O   0  0  0  0  0  0  0  0  0  0  0  0
   80.5971  211.3895   69.5887 O   0  0  0  0  0  0  0  0  0  0  0  0
  3  1  2  0
  1 10  1  0
  4  2  1  0
  2 11  2  0
 12  3  1  0
 13  4  2  0
  7  5  2  0
  5  8  1  0
  9  6  2  0
  6 38  1  0
 29  7  1  0
 30  8  2  0
 26  9  1  0
 10 33  2  0
 11 34  1  0
 35 12  2  0
 36 13  1  0
 26 14  2  0
 14 28  1  0
 15 27  2  0
 46 15  1  0
 17 16  1  0
 16 19  1  0
 20 17  1  0
 18 21  1  0
 42 18  1  0
 37 19  1  1
 45 20  1  0
 21 46  1  0
 22 26  1  0
 49 22  1  0
 27 23  1  0
 23 49  1  0
 43 24  1  0
 24 44  1  0
 24 47  2  0
 30 25  1  0
 25 45  1  0
 25 48  2  0
 27 39  1  0
 28 38  2  0
 28 43  1  0
 29 32  2  0
 44 29  1  0
 32 30  1  0
 31 35  1  0
 31 36  2  0
 31 42  1  0
 32 37  1  0
 33 35  1  0
 33 41  1  0
 34 36  1  0
 34 41  2  0
 37 45  1  0
 39 40  2  0
 40 46  1  0
M  END
$$$$
