
     RDKit          3D

 49 56  0  0  0  0  0  0  0  0999 V2000
   83.9921  208.9164   69.2958 C   0  0  0  0  0  0  0  0  0  0  0  0
   80.1282  204.7996   73.6700 C   0  0  0  0  0  0  0  0  0  0  0  0
   84.1782  209.8237   70.3131 C   0  0  0  0  0  0  0  0  0  0  0  0
   80.3245  205.7220   74.6862 C   0  0  0  0  0  0  0  0  0  0  0  0
   81.4696  204.0131   67.7368 C   0  0  0  0  0  0  0  0  0  0  0  0
   85.0924  210.4933   67.1289 C   0  0  0  0  0  0  0  0  0  0  0  0
   81.5233  205.3695   67.4272 C   0  0  0  0  0  0  0  0  0  0  0  0
   80.3391  203.2831   67.4619 C   0  0  0  0  0  0  0  0  0  0  0  0
   85.0724  211.8478   67.3778 C   0  0  0  0  0  0  0  0  0  0  0  0
   83.2567  207.7613   69.5105 C   0  0  0  0  0  0  0  0  0  0  0  0
   80.6700  204.9847   72.4054 C   0  0  0  0  0  0  0  0  0  0  0  0
   83.6171  209.5553   71.5500 C   0  0  0  0  0  0  0  0  0  0  0  0
   81.0614  206.8415   74.4649 C   0  0  0  0  0  0  0  0  0  0  0  0
   82.6974  211.7404   67.4237 C   0  0  0  0  0  0  0  0  0  0  0  0
   82.1414  213.1504   71.5606 C   0  0  0  0  0  0  0  0  0  0  0  0
   76.9963  205.7611   63.6459 C   0  0  0  0  0  0  0  0  0  0  0  0
   75.7644  205.8832   64.5208 C   0  0  0  0  0  0  0  0  0  0  0  0
   83.1400  210.3729   73.7619 C   0  0  0  0  0  0  0  0  0  0  0  0
   78.2622  205.9697   64.4282 C   0  0  0  0  0  0  0  0  0  0  0  0
   75.8355  204.7491   65.5395 C   0  0  0  0  0  0  0  0  0  0  0  0
   82.0750  211.3399   73.3174 C   0  0  0  0  0  0  0  0  0  0  0  0
   83.8904  213.9357   67.8266 C   0  0  0  0  0  0  0  0  0  0  0  0
   82.8983  214.8174   69.7804 C   0  0  0  0  0  0  0  0  0  0  0  0
   81.6244  208.2261   66.6910 C   0  0  0  0  0  0  0  0  0  0  0  0
   77.9087  203.4492   66.5045 C   0  0  0  0  0  0  0  0  0  0  0  0
   83.8587  212.4713   67.5253 C   0  0  0  0  0  0  0  0  0  0  0  0
   83.1287  213.7692   70.7987 C   0  0  0  0  0  0  0  0  0  0  0  0
   82.7347  210.3942   67.1762 C   0  0  0  0  0  0  0  0  0  0  0  0
   80.4587  206.0157   66.8386 C   0  0  0  0  0  0  0  0  0  0  0  0
   79.2514  203.9108   66.8725 C   0  0  0  0  0  0  0  0  0  0  0  0
   82.3443  208.1885   73.0056 C   0  0  0  0  0  0  0  0  0  0  0  0
   79.3252  205.2761   66.5652 C   0  0  0  0  0  0  0  0  0  0  0  0
   82.6880  207.4815   70.7472 C   0  0  0  0  0  0  0  0  0  0  0  0
   81.4113  206.1186   72.1943 C   0  0  0  0  0  0  0  0  0  0  0  0
   82.8885  208.4127   71.7673 C   0  0  0  0  0  0  0  0  0  0  0  0
   81.6067  207.0397   73.2117 C   0  0  0  0  0  0  0  0  0  0  0  0
   78.0727  205.7072   65.9263 C   0  0  2  0  0  0  0  0  0  0  0  0
   83.9432  209.8327   67.0386 N   0  0  0  0  0  0  0  0  0  0  0  0
   84.2680  213.1863   71.1714 N   0  0  0  0  0  0  0  0  0  0  0  0
   84.0158  212.2858   72.0831 N   0  0  0  0  0  0  0  0  0  0  0  0
   81.9647  206.3779   70.9914 N   0  0  0  0  0  0  0  0  0  0  0  0
   82.5281  209.1050   74.0621 N   0  0  0  0  0  0  0  0  0  0  0  0
   81.5915  209.5661   67.0917 N   0  0  0  0  0  0  0  0  0  0  0  0
   80.4892  207.3998   66.5314 N   0  0  0  0  0  0  0  0  0  0  0  0
   77.1975  204.5508   65.9875 N   0  0  0  0  0  0  0  0  0  0  0  0
   82.7197  212.2350   72.3482 N   0  0  0  0  0  0  0  0  0  0  0  0
   82.7430  207.7029   66.4536 O   0  0  0  0  0  0  0  0  0  0  0  0
   77.4707  202.2828   66.6261 O   0  0  0  0  0  0  0  0  0  0  0  0
   82.8089  214.3039   68.5382 O   0  0  0  0  0  0  0  0  0  0  0  0
  3  1  2  0
  1 10  1  0
  4  2  1  0
  2 11  2  0
 12  3  1  0
 13  4  2  0
  7  5  2  0
  5  8  1  0
  9  6  2  0
  6 38  1  0
 29  7  1  0
 30  8  2  0
 26  9  1  0
 10 33  2  0
 11 34  1  0
 35 12  2  0
 36 13  1  0
 26 14  2  0
 14 28  1  0
 15 27  2  0
 46 15  1  0
 17 16  1  0
 16 19  1  0
 20 17  1  0
 18 21  1  0
 42 18  1  0
 37 19  1  6
 45 20  1  0
 21 46  1  0
 22 26  1  0
 49 22  1  0
 27 23  1  0
 23 49  1  0
 43 24  1  0
 24 44  1  0
 24 47  2  0
 30 25  1  0
 25 45  1  0
 25 48  2  0
 27 39  1  0
 28 38  2  0
 28 43  1  0
 29 32  2  0
 44 29  1  0
 32 30  1  0
 31 35  1  0
 31 36  2  0
 31 42  1  0
 32 37  1  0
 33 35  1  0
 33 41  1  0
 34 36  1  0
 34 41  2  0
 37 45  1  0
 39 40  2  0
 40 46  1  0
M  END
$$$$
