
     RDKit          3D

 49 56  0  0  0  0  0  0  0  0999 V2000
   92.6979  213.6122   65.9575 C   0  0  0  0  0  0  0  0  0  0  0  0
   88.8597  218.4752   69.5114 C   0  0  0  0  0  0  0  0  0  0  0  0
   91.6410  213.4022   65.1021 C   0  0  0  0  0  0  0  0  0  0  0  0
   87.8030  218.2541   68.6416 C   0  0  0  0  0  0  0  0  0  0  0  0
   81.0889  205.6543   73.1281 C   0  0  0  0  0  0  0  0  0  0  0  0
   82.1925  213.1952   72.9249 C   0  0  0  0  0  0  0  0  0  0  0  0
   81.6256  206.7612   72.4761 C   0  0  0  0  0  0  0  0  0  0  0  0
   80.2160  204.8197   72.4739 C   0  0  0  0  0  0  0  0  0  0  0  0
   82.8757  214.2571   72.3747 C   0  0  0  0  0  0  0  0  0  0  0  0
   92.5975  214.5381   66.9840 C   0  0  0  0  0  0  0  0  0  0  0  0
   90.0624  217.7940   69.3824 C   0  0  0  0  0  0  0  0  0  0  0  0
   90.4817  214.1353   65.2903 C   0  0  0  0  0  0  0  0  0  0  0  0
   87.9223  217.3551   67.6302 C   0  0  0  0  0  0  0  0  0  0  0  0
   83.3506  212.8918   70.4867 C   0  0  0  0  0  0  0  0  0  0  0  0
   85.7657  214.6143   66.9381 C   0  0  0  0  0  0  0  0  0  0  0  0
   80.4878  205.3211   66.8568 C   0  0  0  0  0  0  0  0  0  0  0  0
   79.0463  205.7322   66.6311 C   0  0  0  0  0  0  0  0  0  0  0  0
   87.8821  214.2269   65.0881 C   0  0  0  0  0  0  0  0  0  0  0  0
   81.0429  205.8989   68.1281 C   0  0  0  0  0  0  0  0  0  0  0  0
   78.2337  205.1273   67.7725 C   0  0  0  0  0  0  0  0  0  0  0  0
   87.7880  213.2717   66.2481 C   0  0  0  0  0  0  0  0  0  0  0  0
   84.1605  215.2880   70.5736 C   0  0  0  0  0  0  0  0  0  0  0  0
   83.9746  215.8391   68.2844 C   0  0  0  0  0  0  0  0  0  0  0  0
   82.0227  209.4479   71.0922 C   0  0  0  0  0  0  0  0  0  0  0  0
   78.9553  204.4509   70.2099 C   0  0  0  0  0  0  0  0  0  0  0  0
   83.4585  214.0965   71.1427 C   0  0  0  0  0  0  0  0  0  0  0  0
   85.1821  214.9962   68.1429 C   0  0  0  0  0  0  0  0  0  0  0  0
   82.6676  211.8460   71.0476 C   0  0  0  0  0  0  0  0  0  0  0  0
   81.3057  207.0507   71.1680 C   0  0  0  0  0  0  0  0  0  0  0  0
   79.8745  205.0908   71.1569 C   0  0  0  0  0  0  0  0  0  0  0  0
   89.2095  215.7536   66.4605 C   0  0  0  0  0  0  0  0  0  0  0  0
   80.4273  206.2079   70.5162 C   0  0  0  0  0  0  0  0  0  0  0  0
   91.4391  215.2791   67.1833 C   0  0  0  0  0  0  0  0  0  0  0  0
   90.1704  216.8890   68.3582 C   0  0  0  0  0  0  0  0  0  0  0  0
   90.3780  215.0534   66.3051 C   0  0  0  0  0  0  0  0  0  0  0  0
   89.1127  216.6694   67.4892 C   0  0  0  0  0  0  0  0  0  0  0  0
   79.9435  206.2715   69.1289 C   0  0  2  0  0  0  0  0  0  0  0  0
   82.1180  212.0522   72.2518 N   0  0  0  0  0  0  0  0  0  0  0  0
   85.9630  214.4702   69.0865 N   0  0  0  0  0  0  0  0  0  0  0  0
   86.9447  213.8186   68.5227 N   0  0  0  0  0  0  0  0  0  0  0  0
   91.3021  216.1791   68.1692 N   0  0  0  0  0  0  0  0  0  0  0  0
   88.1168  215.5551   65.5908 N   0  0  0  0  0  0  0  0  0  0  0  0
   82.4810  210.5894   70.4260 N   0  0  0  0  0  0  0  0  0  0  0  0
   81.8294  208.1826   70.4932 N   0  0  0  0  0  0  0  0  0  0  0  0
   78.9688  205.2018   69.0171 N   0  0  0  0  0  0  0  0  0  0  0  0
   86.8568  213.8849   67.2033 N   0  0  0  0  0  0  0  0  0  0  0  0
   81.7560  209.5404   72.3177 O   0  0  0  0  0  0  0  0  0  0  0  0
   78.2786  203.4192   70.4215 O   0  0  0  0  0  0  0  0  0  0  0  0
   83.4746  215.7997   69.5347 O   0  0  0  0  0  0  0  0  0  0  0  0
  3  1  2  0
  1 10  1  0
  4  2  1  0
  2 11  2  0
 12  3  1  0
 13  4  2  0
  7  5  2  0
  5  8  1  0
  9  6  2  0
  6 38  1  0
 29  7  1  0
 30  8  2  0
 26  9  1  0
 10 33  2  0
 11 34  1  0
 35 12  2  0
 36 13  1  0
 26 14  2  0
 14 28  1  0
 15 27  2  0
 46 15  1  0
 17 16  1  0
 16 19  1  0
 20 17  1  0
 18 21  1  0
 42 18  1  0
 37 19  1  6
 45 20  1  0
 21 46  1  0
 22 26  1  0
 49 22  1  0
 27 23  1  0
 23 49  1  0
 43 24  1  0
 24 44  1  0
 24 47  2  0
 30 25  1  0
 25 45  1  0
 25 48  2  0
 27 39  1  0
 28 38  2  0
 28 43  1  0
 29 32  2  0
 44 29  1  0
 32 30  1  0
 31 35  1  0
 31 36  2  0
 31 42  1  0
 32 37  1  0
 33 35  1  0
 33 41  1  0
 34 36  1  0
 34 41  2  0
 37 45  1  0
 39 40  2  0
 40 46  1  0
M  END
$$$$
