
     RDKit          3D

 49 56  0  0  0  0  0  0  0  0999 V2000
   86.3116  214.9616   71.8190 C   0  0  0  0  0  0  0  0  0  0  0  0
   92.2503  215.6721   67.9720 C   0  0  0  0  0  0  0  0  0  0  0  0
   85.5360  214.7510   70.7151 C   0  0  0  0  0  0  0  0  0  0  0  0
   91.5487  215.4714   66.8268 C   0  0  0  0  0  0  0  0  0  0  0  0
   78.8830  205.1629   69.3310 C   0  0  0  0  0  0  0  0  0  0  0  0
   83.4324  210.9760   70.3805 C   0  0  0  0  0  0  0  0  0  0  0  0
   79.5503  206.0189   70.2153 C   0  0  0  0  0  0  0  0  0  0  0  0
   78.7626  203.8235   69.6136 C   0  0  0  0  0  0  0  0  0  0  0  0
   83.5745  211.2875   69.0284 C   0  0  0  0  0  0  0  0  0  0  0  0
   87.6427  215.1702   71.6752 C   0  0  0  0  0  0  0  0  0  0  0  0
   91.5823  215.6463   69.1734 C   0  0  0  0  0  0  0  0  0  0  0  0
   86.1434  214.7559   69.4386 C   0  0  0  0  0  0  0  0  0  0  0  0
   90.1657  215.2389   66.8401 C   0  0  0  0  0  0  0  0  0  0  0  0
   82.2058  209.3964   68.5990 C   0  0  0  0  0  0  0  0  0  0  0  0
   85.6833  212.5426   64.4529 C   0  0  0  0  0  0  0  0  0  0  0  0
   78.9699  202.8336   74.7309 C   0  0  0  0  0  0  0  0  0  0  0  0
   79.5336  201.4446   74.8209 C   0  0  0  0  0  0  0  0  0  0  0  0
   87.0445  215.4824   65.7506 C   0  0  0  0  0  0  0  0  0  0  0  0
   79.9086  203.8369   74.1117 C   0  0  0  0  0  0  0  0  0  0  0  0
   80.3017  201.0394   73.5655 C   0  0  0  0  0  0  0  0  0  0  0  0
   87.2112  214.4703   64.5487 C   0  0  0  0  0  0  0  0  0  0  0  0
   82.9754  210.6706   66.6395 C   0  0  0  0  0  0  0  0  0  0  0  0
   84.4462  210.2846   64.8556 C   0  0  0  0  0  0  0  0  0  0  0  0
   81.2934  207.6768   71.7985 C   0  0  0  0  0  0  0  0  0  0  0  0
   79.3193  201.9690   71.3366 C   0  0  0  0  0  0  0  0  0  0  0  0
   82.9528  210.4876   68.1157 C   0  0  0  0  0  0  0  0  0  0  0  0
   85.4510  211.3768   65.1184 C   0  0  0  0  0  0  0  0  0  0  0  0
   82.0861  209.1202   69.9256 C   0  0  0  0  0  0  0  0  0  0  0  0
   80.0941  205.5207   71.3800 C   0  0  0  0  0  0  0  0  0  0  0  0
   79.3080  203.3378   70.7767 C   0  0  0  0  0  0  0  0  0  0  0  0
   88.1052  214.9776   68.0401 C   0  0  0  0  0  0  0  0  0  0  0  0
   79.9583  204.1785   71.6346 C   0  0  0  0  0  0  0  0  0  0  0  0
   88.2730  215.1806   70.4318 C   0  0  0  0  0  0  0  0  0  0  0  0
   90.2275  215.4177   69.1678 C   0  0  0  0  0  0  0  0  0  0  0  0
   87.4913  214.9684   69.3186 C   0  0  0  0  0  0  0  0  0  0  0  0
   89.4611  215.2051   68.0156 C   0  0  0  0  0  0  0  0  0  0  0  0
   80.4407  203.3836   72.7703 C   0  0  2  0  0  0  0  0  0  0  0  0
   82.7176  209.9354   70.8235 N   0  0  0  0  0  0  0  0  0  0  0  0
   86.3742  211.3547   66.1221 N   0  0  0  0  0  0  0  0  0  0  0  0
   87.1006  212.4494   66.0386 N   0  0  0  0  0  0  0  0  0  0  0  0
   89.5820  215.3935   70.3361 N   0  0  0  0  0  0  0  0  0  0  0  0
   87.2876  214.7285   66.9297 N   0  0  0  0  0  0  0  0  0  0  0  0
   81.3304  208.0329   70.4354 N   0  0  0  0  0  0  0  0  0  0  0  0
   80.7491  206.4310   72.2434 N   0  0  0  0  0  0  0  0  0  0  0  0
   80.0025  202.0304   72.5659 N   0  0  0  0  0  0  0  0  0  0  0  0
   86.7235  213.2001   65.0478 N   0  0  0  0  0  0  0  0  0  0  0  0
   81.7432  208.4496   72.6789 O   0  0  0  0  0  0  0  0  0  0  0  0
   78.8047  200.9609   70.7915 O   0  0  0  0  0  0  0  0  0  0  0  0
   83.9395  209.9056   66.0748 O   0  0  0  0  0  0  0  0  0  0  0  0
  3  1  2  0
  1 10  1  0
  4  2  1  0
  2 11  2  0
 12  3  1  0
 13  4  2  0
  7  5  2  0
  5  8  1  0
  9  6  2  0
  6 38  1  0
 29  7  1  0
 30  8  2  0
 26  9  1  0
 10 33  2  0
 11 34  1  0
 35 12  2  0
 36 13  1  0
 26 14  2  0
 14 28  1  0
 15 27  2  0
 46 15  1  0
 16 17  1  1
 16 19  1  0
 17 20  1  6
 18 21  1  0
 18 42  1  6
 19 37  1  6
 20 45  1  6
 21 46  1  6
 22 26  1  0
 22 49  1  6
 27 23  1  0
 23 49  1  6
 43 24  1  0
 24 44  1  0
 24 47  2  0
 30 25  1  0
 25 45  1  0
 25 48  2  0
 27 39  1  0
 28 38  2  0
 28 43  1  0
 29 32  2  0
 44 29  1  0
 32 30  1  0
 31 35  1  0
 31 36  2  0
 31 42  1  0
 37 32  1  6
 33 35  1  0
 33 41  1  0
 34 36  1  0
 34 41  2  0
 37 45  1  0
 39 40  2  0
 40 46  1  0
M  END
$$$$
