
     RDKit          3D

 49 56  0  0  0  0  0  0  0  0999 V2000
   88.9890  211.0944   61.6569 C   0  0  0  0  0  0  0  0  0  0  0  0
   88.1383  209.9391   68.6535 C   0  0  0  0  0  0  0  0  0  0  0  0
   87.8706  210.3370   61.3953 C   0  0  0  0  0  0  0  0  0  0  0  0
   87.0127  209.1791   68.3754 C   0  0  0  0  0  0  0  0  0  0  0  0
   85.4709  215.8299   72.8730 C   0  0  0  0  0  0  0  0  0  0  0  0
   80.7039  209.9430   72.4752 C   0  0  0  0  0  0  0  0  0  0  0  0
   84.8659  214.7435   72.2466 C   0  0  0  0  0  0  0  0  0  0  0  0
   86.6049  216.3938   72.3414 C   0  0  0  0  0  0  0  0  0  0  0  0
   80.3333  208.7335   71.9301 C   0  0  0  0  0  0  0  0  0  0  0  0
   89.4131  211.2934   62.9613 C   0  0  0  0  0  0  0  0  0  0  0  0
   88.8756  210.5430   67.6442 C   0  0  0  0  0  0  0  0  0  0  0  0
   87.1824  209.7829   62.4612 C   0  0  0  0  0  0  0  0  0  0  0  0
   86.5999  209.0066   67.0927 C   0  0  0  0  0  0  0  0  0  0  0  0
   82.1790  208.9102   70.4415 C   0  0  0  0  0  0  0  0  0  0  0  0
   81.3463  208.3242   66.6012 C   0  0  0  0  0  0  0  0  0  0  0  0
   87.3645  215.0916   66.9005 C   0  0  0  0  0  0  0  0  0  0  0  0
   88.7110  214.4120   67.0523 C   0  0  0  0  0  0  0  0  0  0  0  0
   84.8726  208.3290   65.6407 C   0  0  0  0  0  0  0  0  0  0  0  0
   86.4635  214.8181   68.0715 C   0  0  0  0  0  0  0  0  0  0  0  0
   89.3833  215.0377   68.2710 C   0  0  0  0  0  0  0  0  0  0  0  0
   83.4417  208.5037   65.2063 C   0  0  0  0  0  0  0  0  0  0  0  0
   80.6597  206.8875   70.3669 C   0  0  0  0  0  0  0  0  0  0  0  0
   79.6427  207.7251   68.4066 C   0  0  0  0  0  0  0  0  0  0  0  0
   83.9550  212.1464   71.0899 C   0  0  0  0  0  0  0  0  0  0  0  0
   88.3394  216.1920   70.3915 C   0  0  0  0  0  0  0  0  0  0  0  0
   81.0830  208.2180   70.9027 C   0  0  0  0  0  0  0  0  0  0  0  0
   80.9637  207.6325   67.7472 C   0  0  0  0  0  0  0  0  0  0  0  0
   82.5342  210.1114   70.9945 C   0  0  0  0  0  0  0  0  0  0  0  0
   85.3762  214.2071   71.0851 C   0  0  0  0  0  0  0  0  0  0  0  0
   87.1413  215.8702   71.1741 C   0  0  0  0  0  0  0  0  0  0  0  0
   86.8920  209.4054   64.7806 C   0  0  0  0  0  0  0  0  0  0  0  0
   86.5166  214.7785   70.5562 C   0  0  0  0  0  0  0  0  0  0  0  0
   88.7313  210.7416   64.0392 C   0  0  0  0  0  0  0  0  0  0  0  0
   88.4493  210.3611   66.3538 C   0  0  0  0  0  0  0  0  0  0  0  0
   87.5985  209.9776   63.7544 C   0  0  0  0  0  0  0  0  0  0  0  0
   87.3233  209.6011   66.0776 C   0  0  0  0  0  0  0  0  0  0  0  0
   87.2448  214.4220   69.3293 C   0  0  2  0  0  0  0  0  0  0  0  0
   81.7699  210.5727   71.9934 N   0  0  0  0  0  0  0  0  0  0  0  0
   82.0402  206.9311   68.1023 N   0  0  0  0  0  0  0  0  0  0  0  0
   83.0070  207.1632   67.2553 N   0  0  0  0  0  0  0  0  0  0  0  0
   89.1148  210.9066   65.3145 N   0  0  0  0  0  0  0  0  0  0  0  0
   85.7404  208.6294   64.5323 N   0  0  0  0  0  0  0  0  0  0  0  0
   83.6632  210.8677   70.6030 N   0  0  0  0  0  0  0  0  0  0  0  0
   84.7833  213.0907   70.4424 N   0  0  0  0  0  0  0  0  0  0  0  0
   88.4150  215.2807   69.3190 N   0  0  0  0  0  0  0  0  0  0  0  0
   82.6179  208.0144   66.3189 N   0  0  0  0  0  0  0  0  0  0  0  0
   83.4505  212.4949   72.1879 O   0  0  0  0  0  0  0  0  0  0  0  0
   89.1516  217.1139   70.6317 O   0  0  0  0  0  0  0  0  0  0  0  0
   79.5977  207.0138   69.5498 O   0  0  0  0  0  0  0  0  0  0  0  0
  3  1  2  0
  1 10  1  0
  4  2  1  0
  2 11  2  0
 12  3  1  0
 13  4  2  0
  7  5  2  0
  5  8  1  0
  9  6  2  0
  6 38  1  0
 29  7  1  0
 30  8  2  0
 26  9  1  0
 10 33  2  0
 11 34  1  0
 35 12  2  0
 36 13  1  0
 26 14  2  0
 14 28  1  0
 15 27  2  0
 46 15  1  0
 17 16  1  0
 16 19  1  0
 20 17  1  0
 18 21  1  0
 42 18  1  0
 37 19  1  6
 45 20  1  0
 21 46  1  0
 22 26  1  0
 49 22  1  0
 27 23  1  0
 23 49  1  0
 43 24  1  0
 24 44  1  0
 24 47  2  0
 30 25  1  0
 25 45  1  0
 25 48  2  0
 27 39  1  0
 28 38  2  0
 28 43  1  0
 29 32  2  0
 44 29  1  0
 32 30  1  0
 31 35  1  0
 31 36  2  0
 31 42  1  0
 32 37  1  0
 33 35  1  0
 33 41  1  0
 34 36  1  0
 34 41  2  0
 37 45  1  0
 39 40  2  0
 40 46  1  0
M  END
$$$$
