
     RDKit          3D

 49 56  0  0  0  0  0  0  0  0999 V2000
   81.3535  204.3511   66.3200 C   0  0  0  0  0  0  0  0  0  0  0  0
   78.7843  203.5387   72.9012 C   0  0  0  0  0  0  0  0  0  0  0  0
   81.2148  205.7090   66.3562 C   0  0  0  0  0  0  0  0  0  0  0  0
   78.6151  204.8811   73.0155 C   0  0  0  0  0  0  0  0  0  0  0  0
   92.1541  213.3388   67.9882 C   0  0  0  0  0  0  0  0  0  0  0  0
   85.6292  212.7137   70.8660 C   0  0  0  0  0  0  0  0  0  0  0  0
   91.1338  212.5855   68.5813 C   0  0  0  0  0  0  0  0  0  0  0  0
   91.8543  214.3350   67.0906 C   0  0  0  0  0  0  0  0  0  0  0  0
   84.7605  212.1718   71.8131 C   0  0  0  0  0  0  0  0  0  0  0  0
   80.9928  203.6099   67.3954 C   0  0  0  0  0  0  0  0  0  0  0  0
   79.3023  203.0315   71.7329 C   0  0  0  0  0  0  0  0  0  0  0  0
   80.6942  206.3148   67.5225 C   0  0  0  0  0  0  0  0  0  0  0  0
   78.9550  205.7587   71.9757 C   0  0  0  0  0  0  0  0  0  0  0  0
   86.2831  210.3564   71.9564 C   0  0  0  0  0  0  0  0  0  0  0  0
   83.2468  208.6505   70.1255 C   0  0  0  0  0  0  0  0  0  0  0  0
   87.0789  216.3060   67.8129 C   0  0  0  0  0  0  0  0  0  0  0  0
   86.6582  216.7764   66.4502 C   0  0  0  0  0  0  0  0  0  0  0  0
   79.7893  208.5077   68.7454 C   0  0  0  0  0  0  0  0  0  0  0  0
   87.3100  214.8195   67.9036 C   0  0  0  0  0  0  0  0  0  0  0  0
   87.4346  216.0938   65.3270 C   0  0  0  0  0  0  0  0  0  0  0  0
   81.3215  208.8684   68.6072 C   0  0  0  0  0  0  0  0  0  0  0  0
   84.2975  210.2497   73.4061 C   0  0  0  0  0  0  0  0  0  0  0  0
   84.8062  208.3139   72.1861 C   0  0  0  0  0  0  0  0  0  0  0  0
   89.1033  210.8041   69.5357 C   0  0  0  0  0  0  0  0  0  0  0  0
   89.9300  215.5800   65.8802 C   0  0  0  0  0  0  0  0  0  0  0  0
   85.0869  210.9718   72.3724 C   0  0  0  0  0  0  0  0  0  0  0  0
   83.5026  208.3564   71.4309 C   0  0  0  0  0  0  0  0  0  0  0  0
   87.1098  210.9125   71.0302 C   0  0  0  0  0  0  0  0  0  0  0  0
   89.8160  212.8395   68.2663 C   0  0  0  0  0  0  0  0  0  0  0  0
   90.5381  214.5797   66.7840 C   0  0  0  0  0  0  0  0  0  0  0  0
   79.8112  206.1468   69.7687 C   0  0  0  0  0  0  0  0  0  0  0  0
   89.5478  213.8406   67.3659 C   0  0  0  0  0  0  0  0  0  0  0  0
   80.4771  204.1754   68.5607 C   0  0  0  0  0  0  0  0  0  0  0  0
   79.6293  203.9056   70.7245 C   0  0  0  0  0  0  0  0  0  0  0  0
   80.3371  205.5445   68.5974 C   0  0  0  0  0  0  0  0  0  0  0  0
   79.4742  205.2953   70.7945 C   0  0  0  0  0  0  0  0  0  0  0  0
   88.2609  214.3136   66.8417 C   0  0  2  0  0  0  0  0  0  0  0  0
   86.7633  212.1165   70.4823 N   0  0  0  0  0  0  0  0  0  0  0  0
   82.2790  208.1170   71.9839 N   0  0  0  0  0  0  0  0  0  0  0  0
   81.3665  208.2662   71.0468 N   0  0  0  0  0  0  0  0  0  0  0  0
   80.1319  203.4098   69.5915 N   0  0  0  0  0  0  0  0  0  0  0  0
   79.7095  207.5443   69.7860 N   0  0  0  0  0  0  0  0  0  0  0  0
   88.3244  210.3158   70.6040 N   0  0  0  0  0  0  0  0  0  0  0  0
   88.8237  212.0558   68.9022 N   0  0  0  0  0  0  0  0  0  0  0  0
   88.5347  215.4066   65.9499 N   0  0  0  0  0  0  0  0  0  0  0  0
   81.8991  208.5881   69.9065 N   0  0  0  0  0  0  0  0  0  0  0  0
   90.0811  210.1498   69.0993 O   0  0  0  0  0  0  0  0  0  0  0  0
   90.5684  216.4155   65.1928 O   0  0  0  0  0  0  0  0  0  0  0  0
   84.5877  208.9271   73.3958 O   0  0  0  0  0  0  0  0  0  0  0  0
  3  1  2  0
  1 10  1  0
  4  2  1  0
  2 11  2  0
 12  3  1  0
 13  4  2  0
  7  5  2  0
  5  8  1  0
  9  6  2  0
  6 38  1  0
 29  7  1  0
 30  8  2  0
 26  9  1  0
 10 33  2  0
 11 34  1  0
 35 12  2  0
 36 13  1  0
 26 14  2  0
 14 28  1  0
 15 27  2  0
 46 15  1  0
 16 17  1  1
 16 19  1  0
 17 20  1  6
 18 21  1  0
 18 42  1  6
 19 37  1  6
 20 45  1  6
 21 46  1  6
 22 26  1  0
 22 49  1  6
 27 23  1  0
 23 49  1  6
 43 24  1  0
 24 44  1  0
 24 47  2  0
 30 25  1  0
 25 45  1  0
 25 48  2  0
 27 39  1  0
 28 38  2  0
 28 43  1  0
 29 32  2  0
 44 29  1  0
 32 30  1  0
 31 35  1  0
 31 36  2  0
 31 42  1  0
 37 32  1  1
 33 35  1  0
 33 41  1  0
 34 36  1  0
 34 41  2  0
 37 45  1  0
 39 40  2  0
 40 46  1  0
M  END
$$$$
