
     RDKit          3D

 49 56  0  0  0  0  0  0  0  0999 V2000
   91.7114  216.0927   67.8272 C   0  0  0  0  0  0  0  0  0  0  0  0
   88.0384  210.4819   70.2847 C   0  0  0  0  0  0  0  0  0  0  0  0
   90.9498  216.0902   66.6814 C   0  0  0  0  0  0  0  0  0  0  0  0
   87.2782  210.4916   69.1254 C   0  0  0  0  0  0  0  0  0  0  0  0
   79.9875  201.8366   68.7018 C   0  0  0  0  0  0  0  0  0  0  0  0
   81.0827  210.1719   68.4477 C   0  0  0  0  0  0  0  0  0  0  0  0
   79.9787  203.2272   68.6312 C   0  0  0  0  0  0  0  0  0  0  0  0
   78.8136  201.1431   68.8679 C   0  0  0  0  0  0  0  0  0  0  0  0
   81.7350  210.7954   69.4884 C   0  0  0  0  0  0  0  0  0  0  0  0
   91.4807  215.1599   68.8260 C   0  0  0  0  0  0  0  0  0  0  0  0
   89.0471  211.4109   70.5005 C   0  0  0  0  0  0  0  0  0  0  0  0
   89.9523  215.1390   66.5519 C   0  0  0  0  0  0  0  0  0  0  0  0
   87.5054  211.4225   68.1625 C   0  0  0  0  0  0  0  0  0  0  0  0
   81.6200  208.7531   70.7009 C   0  0  0  0  0  0  0  0  0  0  0  0
   85.9062  213.4067   69.7066 C   0  0  0  0  0  0  0  0  0  0  0  0
   74.2535  204.1832   67.5117 C   0  0  0  0  0  0  0  0  0  0  0  0
   73.5743  204.1243   68.8657 C   0  0  0  0  0  0  0  0  0  0  0  0
   86.6243  213.8665   66.2634 C   0  0  0  0  0  0  0  0  0  0  0  0
   75.7479  204.2772   67.6379 C   0  0  0  0  0  0  0  0  0  0  0  0
   74.0347  202.8307   69.5316 C   0  0  0  0  0  0  0  0  0  0  0  0
   86.4844  214.6101   67.5652 C   0  0  0  0  0  0  0  0  0  0  0  0
   82.7414  210.7840   71.7121 C   0  0  0  0  0  0  0  0  0  0  0  0
   84.7789  211.9562   71.4804 C   0  0  0  0  0  0  0  0  0  0  0  0
   79.9298  206.1761   68.5648 C   0  0  0  0  0  0  0  0  0  0  0  0
   76.2317  201.4246   69.1927 C   0  0  0  0  0  0  0  0  0  0  0  0
   82.0028  210.0724   70.6238 C   0  0  0  0  0  0  0  0  0  0  0  0
   84.8743  212.5800   70.1423 C   0  0  0  0  0  0  0  0  0  0  0  0
   80.9726  208.1480   69.6571 C   0  0  0  0  0  0  0  0  0  0  0  0
   78.8063  203.9446   68.7208 C   0  0  0  0  0  0  0  0  0  0  0  0
   77.6192  201.8419   68.9646 C   0  0  0  0  0  0  0  0  0  0  0  0
   88.7264  213.2846   67.3675 C   0  0  0  0  0  0  0  0  0  0  0  0
   77.6298  203.2413   68.8881 C   0  0  0  0  0  0  0  0  0  0  0  0
   90.4831  214.1999   68.7072 C   0  0  0  0  0  0  0  0  0  0  0  0
   89.2672  212.3450   69.5212 C   0  0  0  0  0  0  0  0  0  0  0  0
   89.7200  214.2136   67.5385 C   0  0  0  0  0  0  0  0  0  0  0  0
   88.5058  212.3532   68.3627 C   0  0  0  0  0  0  0  0  0  0  0  0
   76.2542  203.7519   68.9858 C   0  0  2  0  0  0  0  0  0  0  0  0
   80.7330  208.8962   68.5719 N   0  0  0  0  0  0  0  0  0  0  0  0
   84.0561  212.4689   69.0958 N   0  0  0  0  0  0  0  0  0  0  0  0
   84.5332  213.1630   68.0975 N   0  0  0  0  0  0  0  0  0  0  0  0
   90.2343  213.2771   69.6491 N   0  0  0  0  0  0  0  0  0  0  0  0
   87.9324  213.2690   66.2016 N   0  0  0  0  0  0  0  0  0  0  0  0
   80.5770  206.7903   69.6422 N   0  0  0  0  0  0  0  0  0  0  0  0
   78.7798  205.3614   68.6676 N   0  0  0  0  0  0  0  0  0  0  0  0
   75.4341  202.5850   69.2554 N   0  0  0  0  0  0  0  0  0  0  0  0
   85.6691  213.7533   68.4353 N   0  0  0  0  0  0  0  0  0  0  0  0
   80.3976  206.3515   67.4107 O   0  0  0  0  0  0  0  0  0  0  0  0
   75.8258  200.2462   69.3098 O   0  0  0  0  0  0  0  0  0  0  0  0
   84.0624  210.8156   71.4560 O   0  0  0  0  0  0  0  0  0  0  0  0
  3  1  2  0
  1 10  1  0
  4  2  1  0
  2 11  2  0
 12  3  1  0
 13  4  2  0
  7  5  2  0
  5  8  1  0
  9  6  2  0
  6 38  1  0
 29  7  1  0
 30  8  2  0
 26  9  1  0
 10 33  2  0
 11 34  1  0
 35 12  2  0
 36 13  1  0
 26 14  2  0
 14 28  1  0
 15 27  2  0
 46 15  1  0
 17 16  1  0
 16 19  1  0
 20 17  1  0
 18 21  1  0
 42 18  1  0
 37 19  1  6
 45 20  1  0
 21 46  1  0
 22 26  1  0
 49 22  1  0
 27 23  1  0
 23 49  1  0
 43 24  1  0
 24 44  1  0
 24 47  2  0
 30 25  1  0
 25 45  1  0
 25 48  2  0
 27 39  1  0
 28 38  2  0
 28 43  1  0
 29 32  2  0
 44 29  1  0
 32 30  1  0
 31 35  1  0
 31 36  2  0
 31 42  1  0
 32 37  1  0
 33 35  1  0
 33 41  1  0
 34 36  1  0
 34 41  2  0
 37 45  1  0
 39 40  2  0
 40 46  1  0
M  END
$$$$
