
     RDKit          3D

 49 56  0  0  0  0  0  0  0  0999 V2000
   92.1291  214.4492   66.5700 C   0  0  0  0  0  0  0  0  0  0  0  0
   86.8885  219.1244   67.8695 C   0  0  0  0  0  0  0  0  0  0  0  0
   91.2001  213.4426   66.4415 C   0  0  0  0  0  0  0  0  0  0  0  0
   85.9632  218.1006   67.7364 C   0  0  0  0  0  0  0  0  0  0  0  0
   85.0523  205.5049   72.7880 C   0  0  0  0  0  0  0  0  0  0  0  0
   78.6835  207.1273   67.8158 C   0  0  0  0  0  0  0  0  0  0  0  0
   84.5439  206.0239   71.6002 C   0  0  0  0  0  0  0  0  0  0  0  0
   84.2040  205.1419   73.8055 C   0  0  0  0  0  0  0  0  0  0  0  0
   78.5207  208.4626   67.5196 C   0  0  0  0  0  0  0  0  0  0  0  0
   91.7259  215.7462   66.8459 C   0  0  0  0  0  0  0  0  0  0  0  0
   88.2497  218.8986   67.7173 C   0  0  0  0  0  0  0  0  0  0  0  0
   89.8600  213.7558   66.5924 C   0  0  0  0  0  0  0  0  0  0  0  0
   86.3728  216.8375   67.4496 C   0  0  0  0  0  0  0  0  0  0  0  0
   80.8868  208.6559   67.3836 C   0  0  0  0  0  0  0  0  0  0  0  0
   83.1991  213.3920   67.4510 C   0  0  0  0  0  0  0  0  0  0  0  0
   78.8907  204.3591   72.0640 C   0  0  0  0  0  0  0  0  0  0  0  0
   78.2438  205.4100   72.9444 C   0  0  0  0  0  0  0  0  0  0  0  0
   85.8049  214.5717   67.3012 C   0  0  0  0  0  0  0  0  0  0  0  0
   80.2466  204.7903   71.5807 C   0  0  0  0  0  0  0  0  0  0  0  0
   79.1226  205.5451   74.1846 C   0  0  0  0  0  0  0  0  0  0  0  0
   85.4722  213.7198   68.4972 C   0  0  0  0  0  0  0  0  0  0  0  0
   79.4086  210.6644   66.9524 C   0  0  0  0  0  0  0  0  0  0  0  0
   80.9702  212.4150   66.6777 C   0  0  0  0  0  0  0  0  0  0  0  0
   82.8296  206.1564   68.9298 C   0  0  0  0  0  0  0  0  0  0  0  0
   81.6871  205.0653   74.5197 C   0  0  0  0  0  0  0  0  0  0  0  0
   79.6385  209.2289   67.3027 C   0  0  0  0  0  0  0  0  0  0  0  0
   82.2936  212.3410   67.3347 C   0  0  0  0  0  0  0  0  0  0  0  0
   81.0312  207.3268   67.6789 C   0  0  0  0  0  0  0  0  0  0  0  0
   83.1897  206.1850   71.4069 C   0  0  0  0  0  0  0  0  0  0  0  0
   82.8358  205.2974   73.6377 C   0  0  0  0  0  0  0  0  0  0  0  0
   88.1194  215.3047   67.0137 C   0  0  0  0  0  0  0  0  0  0  0  0
   82.3425  205.8184   72.4339 C   0  0  0  0  0  0  0  0  0  0  0  0
   90.3840  216.0725   67.0004 C   0  0  0  0  0  0  0  0  0  0  0  0
   88.6506  217.6197   67.4286 C   0  0  0  0  0  0  0  0  0  0  0  0
   89.4561  215.0387   66.8652 C   0  0  0  0  0  0  0  0  0  0  0  0
   87.7240  216.5972   67.2956 C   0  0  0  0  0  0  0  0  0  0  0  0
   80.8733  205.8620   72.4795 C   0  0  2  0  0  0  0  0  0  0  0  0
   79.9104  206.6222   67.8834 N   0  0  0  0  0  0  0  0  0  0  0  0
   82.8719  211.3165   67.9614 N   0  0  0  0  0  0  0  0  0  0  0  0
   84.0329  211.6929   68.4266 N   0  0  0  0  0  0  0  0  0  0  0  0
   89.9558  217.3145   67.2741 N   0  0  0  0  0  0  0  0  0  0  0  0
   87.1519  214.2867   66.8811 N   0  0  0  0  0  0  0  0  0  0  0  0
   82.2736  206.6545   67.7467 N   0  0  0  0  0  0  0  0  0  0  0  0
   82.6549  206.7272   70.2107 N   0  0  0  0  0  0  0  0  0  0  0  0
   80.5230  205.4584   73.8291 N   0  0  0  0  0  0  0  0  0  0  0  0
   84.2685  212.9621   68.1324 N   0  0  0  0  0  0  0  0  0  0  0  0
   83.5439  205.1234   68.8633 O   0  0  0  0  0  0  0  0  0  0  0  0
   81.7310  204.5990   75.6807 O   0  0  0  0  0  0  0  0  0  0  0  0
   80.4947  211.1951   66.3606 O   0  0  0  0  0  0  0  0  0  0  0  0
  3  1  2  0
  1 10  1  0
  4  2  1  0
  2 11  2  0
 12  3  1  0
 13  4  2  0
  7  5  2  0
  5  8  1  0
  9  6  2  0
  6 38  1  0
 29  7  1  0
 30  8  2  0
 26  9  1  0
 10 33  2  0
 11 34  1  0
 35 12  2  0
 36 13  1  0
 26 14  2  0
 14 28  1  0
 15 27  2  0
 46 15  1  0
 17 16  1  0
 16 19  1  0
 20 17  1  0
 18 21  1  0
 42 18  1  0
 37 19  1  6
 45 20  1  0
 21 46  1  0
 22 26  1  0
 49 22  1  0
 27 23  1  0
 23 49  1  0
 43 24  1  0
 24 44  1  0
 24 47  2  0
 30 25  1  0
 25 45  1  0
 25 48  2  0
 27 39  1  0
 28 38  2  0
 28 43  1  0
 29 32  2  0
 44 29  1  0
 32 30  1  0
 31 35  1  0
 31 36  2  0
 31 42  1  0
 32 37  1  0
 33 35  1  0
 33 41  1  0
 34 36  1  0
 34 41  2  0
 37 45  1  0
 39 40  2  0
 40 46  1  0
M  END
$$$$
