
     RDKit          3D

 29 33  0  0  0  0  0  0  0  0999 V2000
   10.5873   72.3210   -2.6857 C   0  0  0  0  0  0  0  0  0  0  0  0
    9.2407   72.5788   -2.7082 C   0  0  0  0  0  0  0  0  0  0  0  0
    8.4914   72.0871   -3.7879 C   0  0  0  0  0  0  0  0  0  0  0  0
    9.1176   71.3830   -4.7556 C   0  0  0  0  0  0  0  0  0  0  0  0
   10.4928   71.1378   -4.6927 C   0  0  0  0  0  0  0  0  0  0  0  0
   11.2676   71.5961   -3.6704 C   0  0  0  0  0  0  0  0  0  0  0  0
    8.2602   70.9779   -5.9432 C   0  0  1  0  0  0  0  0  0  0  0  0
    8.9236   71.6530   -7.1443 C   0  0  0  0  0  0  0  0  0  0  0  0
   10.0144   70.9467   -7.8050 C   0  0  0  0  0  0  0  0  0  0  0  0
   11.0150   70.2999   -6.9549 C   0  0  0  0  0  0  0  0  0  0  0  0
   12.2438   69.5623   -5.2492 C   0  0  0  0  0  0  0  0  0  0  0  0
   12.7263   69.2952   -3.8899 C   0  0  0  0  0  0  0  0  0  0  0  0
    8.5866   73.3437   -1.6454 C   0  0  0  0  0  0  0  0  0  0  0  0
    7.3936   74.0062   -1.7398 C   0  0  0  0  0  0  0  0  0  0  0  0
    9.0432   73.5400   -0.3609 C   0  0  0  0  0  0  0  0  0  0  0  0
    5.9874   75.3908   -0.1767 C   0  0  0  0  0  0  0  0  0  0  0  0
    7.3530   68.7494   -5.4244 C   0  0  0  0  0  0  0  0  0  0  0  0
    7.7387   67.9302   -4.4202 C   0  0  0  0  0  0  0  0  0  0  0  0
    6.7666   67.1588   -3.7704 C   0  0  0  0  0  0  0  0  0  0  0  0
    5.4390   67.1997   -4.1114 C   0  0  0  0  0  0  0  0  0  0  0  0
    5.0582   68.0368   -5.1356 C   0  0  0  0  0  0  0  0  0  0  0  0
    6.0062   68.7922   -5.7723 C   0  0  0  0  0  0  0  0  0  0  0  0
   11.2284   70.3550   -5.6181 N   0  0  0  0  0  0  0  0  0  0  0  0
   11.9569   69.4293   -7.4210 N   0  0  0  0  0  0  0  0  0  0  0  0
   12.6574   69.0150   -6.4158 N   0  0  0  0  0  0  0  0  0  0  0  0
    7.1332   74.5891   -0.5444 N   0  0  0  0  0  0  0  0  0  0  0  0
    8.1345   74.2929    0.2560 N   0  0  0  0  0  0  0  0  0  0  0  0
    8.2683   69.5682   -6.1124 N   0  0  0  0  0  0  0  0  0  0  0  0
    4.2679   66.2085   -3.2590 Cl  0  0  0  0  0  0  0  0  0  0  0  0
  2  1  2  0
  6  1  1  0
  3  2  1  0
  2 13  1  0
  4  3  2  0
  4  5  1  0
  7  4  1  0
  5  6  2  0
  5 23  1  0
  7  8  1  0
  7 28  1  6
  8  9  1  6
  9 10  1  6
 10 23  1  0
 10 24  2  0
 12 11  1  6
 23 11  1  0
 11 25  2  0
 13 14  2  0
 13 15  1  0
 14 26  1  0
 15 27  2  0
 16 26  1  6
 17 18  2  0
 17 22  1  0
 17 28  1  0
 18 19  1  0
 19 20  2  0
 20 21  1  0
 20 29  1  0
 21 22  2  0
 24 25  1  0
 26 27  1  0
M  END
$$$$
