
     RDKit          3D

 29 33  0  0  0  0  0  0  0  0999 V2000
    6.6237   71.9193   -2.0417 C   0  0  0  0  0  0  0  0  0  0  0  0
    7.7321   72.7072   -1.8652 C   0  0  0  0  0  0  0  0  0  0  0  0
    8.7807   72.5899   -2.7902 C   0  0  0  0  0  0  0  0  0  0  0  0
    8.6606   71.7148   -3.8120 C   0  0  0  0  0  0  0  0  0  0  0  0
    7.5108   70.9326   -3.9590 C   0  0  0  0  0  0  0  0  0  0  0  0
    6.4664   71.0032   -3.0875 C   0  0  0  0  0  0  0  0  0  0  0  0
    9.8796   71.5673   -4.7074 C   0  0  1  0  0  0  0  0  0  0  0  0
   10.2788   70.0971   -4.5741 C   0  0  0  0  0  0  0  0  0  0  0  0
    9.6280   69.1331   -5.4527 C   0  0  0  0  0  0  0  0  0  0  0  0
    8.1833   69.2629   -5.6480 C   0  0  0  0  0  0  0  0  0  0  0  0
    6.0406   69.8669   -5.5593 C   0  0  0  0  0  0  0  0  0  0  0  0
    4.8045   70.5778   -5.2153 C   0  0  0  0  0  0  0  0  0  0  0  0
    7.8360   73.6489   -0.7495 C   0  0  0  0  0  0  0  0  0  0  0  0
    8.9446   74.3682   -0.3962 C   0  0  0  0  0  0  0  0  0  0  0  0
    6.8475   73.9866    0.1480 C   0  0  0  0  0  0  0  0  0  0  0  0
    9.4947   76.0381    1.4056 C   0  0  0  0  0  0  0  0  0  0  0  0
   10.3585   71.4049   -7.1163 C   0  0  0  0  0  0  0  0  0  0  0  0
   11.1418   70.3090   -6.9995 C   0  0  0  0  0  0  0  0  0  0  0  0
   11.9034   69.9058   -8.1040 C   0  0  0  0  0  0  0  0  0  0  0  0
   11.8878   70.5775   -9.2994 C   0  0  0  0  0  0  0  0  0  0  0  0
   11.0871   71.6921   -9.4063 C   0  0  0  0  0  0  0  0  0  0  0  0
   10.3414   72.0883   -8.3286 C   0  0  0  0  0  0  0  0  0  0  0  0
    7.2599   70.0388   -5.0306 N   0  0  0  0  0  0  0  0  0  0  0  0
    7.4826   68.5803   -6.5995 N   0  0  0  0  0  0  0  0  0  0  0  0
    6.2439   68.9457   -6.5296 N   0  0  0  0  0  0  0  0  0  0  0  0
    8.6370   75.1223    0.6870 N   0  0  0  0  0  0  0  0  0  0  0  0
    7.3805   74.8727    0.9870 N   0  0  0  0  0  0  0  0  0  0  0  0
    9.5513   71.8612   -6.0572 N   0  0  0  0  0  0  0  0  0  0  0  0
   12.8649   70.0225  -10.6475 Cl  0  0  0  0  0  0  0  0  0  0  0  0
  2  1  2  0
  6  1  1  0
  3  2  1  0
  2 13  1  0
  4  3  2  0
  4  5  1  0
  7  4  1  0
  5  6  2  0
  5 23  1  0
  7  8  1  0
  7 28  1  6
  8  9  1  6
  9 10  1  6
 10 23  1  0
 10 24  2  0
 12 11  1  6
 23 11  1  0
 11 25  2  0
 13 14  2  0
 13 15  1  0
 14 26  1  0
 15 27  2  0
 16 26  1  6
 17 18  2  0
 17 22  1  0
 17 28  1  0
 18 19  1  0
 19 20  2  0
 20 21  1  0
 20 29  1  0
 21 22  2  0
 24 25  1  0
 26 27  1  0
M  END
$$$$
