
     RDKit          3D

 29 33  0  0  0  0  0  0  0  0999 V2000
    8.7903   71.1639   -2.1736 C   0  0  0  0  0  0  0  0  0  0  0  0
   10.1353   71.1865   -2.4396 C   0  0  0  0  0  0  0  0  0  0  0  0
   10.5582   70.8613   -3.7375 C   0  0  0  0  0  0  0  0  0  0  0  0
    9.6336   70.5425   -4.6691 C   0  0  0  0  0  0  0  0  0  0  0  0
    8.2703   70.5359   -4.3581 C   0  0  0  0  0  0  0  0  0  0  0  0
    7.8063   70.8385   -3.1136 C   0  0  0  0  0  0  0  0  0  0  0  0
   10.1749   70.0983   -6.0178 C   0  0  1  0  0  0  0  0  0  0  0  0
    9.6497   68.6727   -6.1921 C   0  0  0  0  0  0  0  0  0  0  0  0
    8.3220   68.5027   -6.7695 C   0  0  0  0  0  0  0  0  0  0  0  0
    7.2601   69.3932   -6.2987 C   0  0  0  0  0  0  0  0  0  0  0  0
    6.0457   70.9244   -5.2290 C   0  0  0  0  0  0  0  0  0  0  0  0
    5.6501   72.0063   -4.3208 C   0  0  0  0  0  0  0  0  0  0  0  0
   11.1165   71.5370   -1.4115 C   0  0  0  0  0  0  0  0  0  0  0  0
   12.4691   71.3460   -1.4829 C   0  0  0  0  0  0  0  0  0  0  0  0
   10.8671   72.1199   -0.1888 C   0  0  0  0  0  0  0  0  0  0  0  0
   14.4234   71.8043    0.0364 C   0  0  0  0  0  0  0  0  0  0  0  0
   10.4391   71.1692   -8.2182 C   0  0  0  0  0  0  0  0  0  0  0  0
   11.5787   70.4910   -8.4821 C   0  0  0  0  0  0  0  0  0  0  0  0
   12.2700   70.7729   -9.6674 C   0  0  0  0  0  0  0  0  0  0  0  0
   11.8388   71.7096  -10.5715 C   0  0  0  0  0  0  0  0  0  0  0  0
   10.6778   72.3942  -10.2918 C   0  0  0  0  0  0  0  0  0  0  0  0
    9.9998   72.1205   -9.1342 C   0  0  0  0  0  0  0  0  0  0  0  0
    7.2216   70.2836   -5.2782 N   0  0  0  0  0  0  0  0  0  0  0  0
    6.0379   69.4979   -6.8968 N   0  0  0  0  0  0  0  0  0  0  0  0
    5.3513   70.3902   -6.2604 N   0  0  0  0  0  0  0  0  0  0  0  0
   13.0258   71.8008   -0.3340 N   0  0  0  0  0  0  0  0  0  0  0  0
   12.0455   72.2557    0.4164 N   0  0  0  0  0  0  0  0  0  0  0  0
    9.6799   70.9290   -7.0574 N   0  0  0  0  0  0  0  0  0  0  0  0
   12.7495   72.0179  -12.0398 Cl  0  0  0  0  0  0  0  0  0  0  0  0
  2  1  2  0
  6  1  1  0
  3  2  1  0
  2 13  1  0
  4  3  2  0
  4  5  1  0
  7  4  1  0
  5  6  2  0
  5 23  1  0
  7  8  1  0
  7 28  1  6
  8  9  1  6
  9 10  1  6
 10 23  1  0
 10 24  2  0
 12 11  1  6
 23 11  1  0
 11 25  2  0
 13 14  2  0
 13 15  1  0
 14 26  1  0
 15 27  2  0
 16 26  1  6
 17 18  2  0
 17 22  1  0
 17 28  1  0
 18 19  1  0
 19 20  2  0
 20 21  1  0
 20 29  1  0
 21 22  2  0
 24 25  1  0
 26 27  1  0
M  END
$$$$
