
     RDKit          3D

 29 33  0  0  0  0  0  0  0  0999 V2000
    6.2756   72.7920   -3.5155 C   0  0  0  0  0  0  0  0  0  0  0  0
    7.3674   72.9410   -2.6674 C   0  0  0  0  0  0  0  0  0  0  0  0
    8.4062   71.9980   -2.7099 C   0  0  0  0  0  0  0  0  0  0  0  0
    8.3349   70.9584   -3.5736 C   0  0  0  0  0  0  0  0  0  0  0  0
    7.2212   70.8491   -4.4112 C   0  0  0  0  0  0  0  0  0  0  0  0
    6.1846   71.7223   -4.4158 C   0  0  0  0  0  0  0  0  0  0  0  0
    9.4698   69.9555   -3.4641 C   0  0  1  0  0  0  0  0  0  0  0  0
    8.7508   68.6486   -3.0864 C   0  0  0  0  0  0  0  0  0  0  0  0
    8.2054   67.8568   -4.1955 C   0  0  0  0  0  0  0  0  0  0  0  0
    7.4964   68.5194   -5.2871 C   0  0  0  0  0  0  0  0  0  0  0  0
    6.5024   70.0503   -6.5739 C   0  0  0  0  0  0  0  0  0  0  0  0
    5.9958   71.3159   -7.1107 C   0  0  0  0  0  0  0  0  0  0  0  0
    7.4259   74.0612   -1.7491 C   0  0  0  0  0  0  0  0  0  0  0  0
    6.3543   74.8218   -1.3453 C   0  0  0  0  0  0  0  0  0  0  0  0
    8.5248   74.5840   -1.1082 C   0  0  0  0  0  0  0  0  0  0  0  0
    5.9609   76.7712    0.1561 C   0  0  0  0  0  0  0  0  0  0  0  0
   11.4745   70.0049   -4.9231 C   0  0  0  0  0  0  0  0  0  0  0  0
   12.0184   71.2322   -4.5058 C   0  0  0  0  0  0  0  0  0  0  0  0
   13.3539   71.5277   -4.6572 C   0  0  0  0  0  0  0  0  0  0  0  0
   14.2133   70.6264   -5.2267 C   0  0  0  0  0  0  0  0  0  0  0  0
   13.6987   69.4288   -5.6369 C   0  0  0  0  0  0  0  0  0  0  0  0
   12.3524   69.1078   -5.4941 C   0  0  0  0  0  0  0  0  0  0  0  0
    7.0859   69.8084   -5.3988 N   0  0  0  0  0  0  0  0  0  0  0  0
    7.1385   67.9378   -6.4604 N   0  0  0  0  0  0  0  0  0  0  0  0
    6.5551   68.8400   -7.2121 N   0  0  0  0  0  0  0  0  0  0  0  0
    6.7788   75.7731   -0.4907 N   0  0  0  0  0  0  0  0  0  0  0  0
    8.0874   75.6318   -0.3461 N   0  0  0  0  0  0  0  0  0  0  0  0
   10.0935   69.7538   -4.7269 N   0  0  0  0  0  0  0  0  0  0  0  0
   15.9040   71.0517   -5.3968 Cl  0  0  0  0  0  0  0  0  0  0  0  0
  2  1  2  0
  6  1  1  0
  3  2  1  0
  2 13  1  0
  4  3  2  0
  4  5  1  0
  7  4  1  0
  5  6  2  0
  5 23  1  0
  7  8  1  0
  7 28  1  6
  8  9  1  0
  9 10  1  0
 10 23  1  0
 10 24  2  0
 11 12  1  0
 23 11  1  0
 11 25  2  0
 13 14  2  0
 13 15  1  0
 14 26  1  0
 15 27  2  0
 26 16  1  0
 17 18  2  0
 17 22  1  0
 17 28  1  0
 18 19  1  0
 19 20  2  0
 20 21  1  0
 20 29  1  0
 21 22  2  0
 24 25  1  0
 26 27  1  0
M  END
$$$$
