
     RDKit          3D

 29 33  0  0  0  0  0  0  0  0999 V2000
    6.7059   72.3513   -2.6930 C   0  0  0  0  0  0  0  0  0  0  0  0
    7.9924   72.5222   -2.1939 C   0  0  0  0  0  0  0  0  0  0  0  0
    9.0389   71.7384   -2.7044 C   0  0  0  0  0  0  0  0  0  0  0  0
    8.7857   70.8290   -3.6743 C   0  0  0  0  0  0  0  0  0  0  0  0
    7.4786   70.6927   -4.1502 C   0  0  0  0  0  0  0  0  0  0  0  0
    6.4250   71.4148   -3.6966 C   0  0  0  0  0  0  0  0  0  0  0  0
    9.9757   69.9779   -4.0808 C   0  0  1  0  0  0  0  0  0  0  0  0
    9.5205   68.5483   -3.7389 C   0  0  0  0  0  0  0  0  0  0  0  0
    8.7216   67.8542   -4.7561 C   0  0  0  0  0  0  0  0  0  0  0  0
    7.6547   68.5640   -5.4571 C   0  0  0  0  0  0  0  0  0  0  0  0
    6.1861   70.1159   -6.1070 C   0  0  0  0  0  0  0  0  0  0  0  0
    5.4353   71.3667   -6.2425 C   0  0  0  0  0  0  0  0  0  0  0  0
    8.2440   73.5015   -1.1551 C   0  0  0  0  0  0  0  0  0  0  0  0
    7.2893   74.2675   -0.5292 C   0  0  0  0  0  0  0  0  0  0  0  0
    9.4467   73.8609   -0.5930 C   0  0  0  0  0  0  0  0  0  0  0  0
    7.2257   76.0165    1.2445 C   0  0  0  0  0  0  0  0  0  0  0  0
   11.3446   70.6382   -6.0403 C   0  0  0  0  0  0  0  0  0  0  0  0
   11.2020   71.6491   -7.0069 C   0  0  0  0  0  0  0  0  0  0  0  0
   12.2884   72.2787   -7.5702 C   0  0  0  0  0  0  0  0  0  0  0  0
   13.5642   71.9401   -7.2058 C   0  0  0  0  0  0  0  0  0  0  0  0
   13.7183   70.9592   -6.2670 C   0  0  0  0  0  0  0  0  0  0  0  0
   12.6353   70.3089   -5.6836 C   0  0  0  0  0  0  0  0  0  0  0  0
    7.1261   69.7911   -5.2178 N   0  0  0  0  0  0  0  0  0  0  0  0
    6.9960   68.1098   -6.5538 N   0  0  0  0  0  0  0  0  0  0  0  0
    6.1349   69.0238   -6.9313 N   0  0  0  0  0  0  0  0  0  0  0  0
    7.8827   75.0649    0.3805 N   0  0  0  0  0  0  0  0  0  0  0  0
    9.1837   74.8216    0.3439 N   0  0  0  0  0  0  0  0  0  0  0  0
   10.1866   70.0373   -5.4866 N   0  0  0  0  0  0  0  0  0  0  0  0
   14.9127   72.7716   -7.9534 Cl  0  0  0  0  0  0  0  0  0  0  0  0
  2  1  2  0
  6  1  1  0
  3  2  1  0
  2 13  1  0
  4  3  2  0
  4  5  1  0
  7  4  1  0
  5  6  2  0
  5 23  1  0
  7  8  1  0
  7 28  1  6
  8  9  1  0
  9 10  1  0
 10 23  1  0
 10 24  2  0
 11 12  1  0
 23 11  1  0
 11 25  2  0
 13 14  2  0
 13 15  1  0
 14 26  1  0
 15 27  2  0
 26 16  1  0
 17 18  2  0
 17 22  1  0
 17 28  1  0
 18 19  1  0
 19 20  2  0
 20 21  1  0
 20 29  1  0
 21 22  2  0
 24 25  1  0
 26 27  1  0
M  END
$$$$
