
     RDKit          3D

 29 33  0  0  0  0  0  0  0  0999 V2000
    6.1685   72.6818   -3.1924 C   0  0  0  0  0  0  0  0  0  0  0  0
    7.2308   72.8586   -2.3129 C   0  0  0  0  0  0  0  0  0  0  0  0
    8.3143   71.9672   -2.3536 C   0  0  0  0  0  0  0  0  0  0  0  0
    8.3140   70.9497   -3.2461 C   0  0  0  0  0  0  0  0  0  0  0  0
    7.2277   70.8113   -4.1147 C   0  0  0  0  0  0  0  0  0  0  0  0
    6.1509   71.6343   -4.1228 C   0  0  0  0  0  0  0  0  0  0  0  0
    9.4927   69.9990   -3.1340 C   0  0  1  0  0  0  0  0  0  0  0  0
    8.8281   68.6495   -2.8098 C   0  0  0  0  0  0  0  0  0  0  0  0
    8.3485   67.8639   -3.9532 C   0  0  0  0  0  0  0  0  0  0  0  0
    7.6356   68.5224   -5.0447 C   0  0  0  0  0  0  0  0  0  0  0  0
    6.6012   70.0396   -6.3156 C   0  0  0  0  0  0  0  0  0  0  0  0
    6.0477   71.2944   -6.8315 C   0  0  0  0  0  0  0  0  0  0  0  0
    7.2130   73.9544   -1.3640 C   0  0  0  0  0  0  0  0  0  0  0  0
    8.3174   74.6270   -0.8974 C   0  0  0  0  0  0  0  0  0  0  0  0
    6.1280   74.5352   -0.7498 C   0  0  0  0  0  0  0  0  0  0  0  0
    8.7838   76.5033    0.6745 C   0  0  0  0  0  0  0  0  0  0  0  0
   11.5504   70.0795   -4.5157 C   0  0  0  0  0  0  0  0  0  0  0  0
   12.1488   69.9766   -5.7837 C   0  0  0  0  0  0  0  0  0  0  0  0
   13.4948   70.1901   -5.9749 C   0  0  0  0  0  0  0  0  0  0  0  0
   14.3114   70.5148   -4.9246 C   0  0  0  0  0  0  0  0  0  0  0  0
   13.7435   70.6187   -3.6860 C   0  0  0  0  0  0  0  0  0  0  0  0
   12.3855   70.4076   -3.4685 C   0  0  0  0  0  0  0  0  0  0  0  0
    7.1667   69.7931   -5.1328 N   0  0  0  0  0  0  0  0  0  0  0  0
    7.3347   67.9572   -6.2419 N   0  0  0  0  0  0  0  0  0  0  0  0
    6.7274   68.8514   -6.9842 N   0  0  0  0  0  0  0  0  0  0  0  0
    7.9257   75.5823   -0.0316 N   0  0  0  0  0  0  0  0  0  0  0  0
    6.6058   75.5289    0.0590 N   0  0  0  0  0  0  0  0  0  0  0  0
   10.1560   69.8619   -4.3852 N   0  0  0  0  0  0  0  0  0  0  0  0
   16.0179   70.7759   -5.2214 Cl  0  0  0  0  0  0  0  0  0  0  0  0
  2  1  2  0
  6  1  1  0
  3  2  1  0
  2 13  1  0
  4  3  2  0
  4  5  1  0
  7  4  1  0
  5  6  2  0
  5 23  1  0
  7  8  1  0
  7 28  1  6
  8  9  1  0
  9 10  1  0
 10 23  1  0
 10 24  2  0
 11 12  1  0
 23 11  1  0
 11 25  2  0
 13 14  2  0
 13 15  1  0
 14 26  1  0
 15 27  2  0
 26 16  1  0
 17 18  2  0
 17 22  1  0
 17 28  1  0
 18 19  1  0
 19 20  2  0
 20 21  1  0
 20 29  1  0
 21 22  2  0
 24 25  1  0
 26 27  1  0
M  END
$$$$
