
     RDKit          3D

 29 33  0  0  0  0  0  0  0  0999 V2000
    7.0706   72.8025   -1.8639 C   0  0  0  0  0  0  0  0  0  0  0  0
    8.0459   73.7510   -1.6924 C   0  0  0  0  0  0  0  0  0  0  0  0
    9.2179   73.6399   -2.4560 C   0  0  0  0  0  0  0  0  0  0  0  0
    9.3407   72.6132   -3.3251 C   0  0  0  0  0  0  0  0  0  0  0  0
    8.3200   71.6690   -3.4735 C   0  0  0  0  0  0  0  0  0  0  0  0
    7.1648   71.7271   -2.7540 C   0  0  0  0  0  0  0  0  0  0  0  0
   10.6797   72.4999   -4.0349 C   0  0  1  0  0  0  0  0  0  0  0  0
   11.2239   71.1344   -3.6134 C   0  0  0  0  0  0  0  0  0  0  0  0
   10.8152   69.9701   -4.3895 C   0  0  0  0  0  0  0  0  0  0  0  0
    9.4057   69.8718   -4.7712 C   0  0  0  0  0  0  0  0  0  0  0  0
    7.2158   70.1857   -5.0351 C   0  0  0  0  0  0  0  0  0  0  0  0
    5.8705   70.7657   -4.9610 C   0  0  0  0  0  0  0  0  0  0  0  0
    7.8866   74.8548   -0.7443 C   0  0  0  0  0  0  0  0  0  0  0  0
    7.0596   74.8749    0.3451 C   0  0  0  0  0  0  0  0  0  0  0  0
    8.5324   76.0710   -0.7684 C   0  0  0  0  0  0  0  0  0  0  0  0
    6.5261   76.5403    2.1560 C   0  0  0  0  0  0  0  0  0  0  0  0
   10.8122   71.4239   -6.2447 C   0  0  0  0  0  0  0  0  0  0  0  0
   11.1645   70.2331   -5.7097 C   0  0  0  0  0  0  0  0  0  0  0  0
   11.4351   69.1622   -6.5713 C   0  0  0  0  0  0  0  0  0  0  0  0
   11.3580   69.2720   -7.9361 C   0  0  0  0  0  0  0  0  0  0  0  0
   10.9990   70.4893   -8.4693 C   0  0  0  0  0  0  0  0  0  0  0  0
   10.7336   71.5376   -7.6295 C   0  0  0  0  0  0  0  0  0  0  0  0
    8.3231   70.5989   -4.4035 N   0  0  0  0  0  0  0  0  0  0  0  0
    8.9255   68.9655   -5.6713 N   0  0  0  0  0  0  0  0  0  0  0  0
    7.6551   69.1656   -5.8083 N   0  0  0  0  0  0  0  0  0  0  0  0
    7.1998   76.0715    0.9656 N   0  0  0  0  0  0  0  0  0  0  0  0
    8.0842   76.7617    0.2782 N   0  0  0  0  0  0  0  0  0  0  0  0
   10.5078   72.5407   -5.4437 N   0  0  0  0  0  0  0  0  0  0  0  0
   11.7091   67.8930   -8.9634 Cl  0  0  0  0  0  0  0  0  0  0  0  0
  2  1  2  0
  6  1  1  0
  3  2  1  0
  2 13  1  0
  4  3  2  0
  4  5  1  0
  7  4  1  0
  5  6  2  0
  5 23  1  0
  7  8  1  0
  7 28  1  6
  8  9  1  6
  9 10  1  6
 10 23  1  0
 10 24  2  0
 12 11  1  6
 23 11  1  0
 11 25  2  0
 13 14  2  0
 13 15  1  0
 14 26  1  0
 15 27  2  0
 16 26  1  6
 17 18  2  0
 17 22  1  0
 17 28  1  0
 18 19  1  0
 19 20  2  0
 20 21  1  0
 20 29  1  0
 21 22  2  0
 24 25  1  0
 26 27  1  0
M  END
$$$$
