
     RDKit          3D

 29 33  0  0  0  0  0  0  0  0999 V2000
    9.7126   70.4095   -2.4783 C   0  0  0  0  0  0  0  0  0  0  0  0
   11.0004   70.3122   -2.9392 C   0  0  0  0  0  0  0  0  0  0  0  0
   11.1978   70.1339   -4.3170 C   0  0  0  0  0  0  0  0  0  0  0  0
   10.1223   70.0669   -5.1314 C   0  0  0  0  0  0  0  0  0  0  0  0
    8.8247   70.1755   -4.6215 C   0  0  0  0  0  0  0  0  0  0  0  0
    8.5768   70.3443   -3.2928 C   0  0  0  0  0  0  0  0  0  0  0  0
   10.4127   69.7651   -6.5923 C   0  0  1  0  0  0  0  0  0  0  0  0
    9.6775   68.4527   -6.8672 C   0  0  0  0  0  0  0  0  0  0  0  0
    8.2741   68.5273   -7.2544 C   0  0  0  0  0  0  0  0  0  0  0  0
    7.4173   69.4578   -6.5180 C   0  0  0  0  0  0  0  0  0  0  0  0
    6.5790   70.9474   -5.0891 C   0  0  0  0  0  0  0  0  0  0  0  0
    6.4608   71.9230   -4.0000 C   0  0  0  0  0  0  0  0  0  0  0  0
   12.1486   70.3895   -2.0347 C   0  0  0  0  0  0  0  0  0  0  0  0
   13.3576   69.7725   -2.2046 C   0  0  0  0  0  0  0  0  0  0  0  0
   12.2294   71.0909   -0.8522 C   0  0  0  0  0  0  0  0  0  0  0  0
   15.5118   69.6692   -0.9060 C   0  0  0  0  0  0  0  0  0  0  0  0
   10.7676   71.6745   -8.1045 C   0  0  0  0  0  0  0  0  0  0  0  0
   10.7817   73.0017   -7.8461 C   0  0  0  0  0  0  0  0  0  0  0  0
   11.6836   73.8136   -8.5459 C   0  0  0  0  0  0  0  0  0  0  0  0
   12.5531   73.3177   -9.4833 C   0  0  0  0  0  0  0  0  0  0  0  0
   12.5292   71.9652   -9.7384 C   0  0  0  0  0  0  0  0  0  0  0  0
   11.6489   71.1692   -9.0557 C   0  0  0  0  0  0  0  0  0  0  0  0
    7.6381   70.1867   -5.3974 N   0  0  0  0  0  0  0  0  0  0  0  0
    6.1526   69.7927   -6.9061 N   0  0  0  0  0  0  0  0  0  0  0  0
    5.6864   70.6564   -6.0639 N   0  0  0  0  0  0  0  0  0  0  0  0
   14.1510   70.0911   -1.1532 N   0  0  0  0  0  0  0  0  0  0  0  0
   13.4503   70.8777   -0.3650 N   0  0  0  0  0  0  0  0  0  0  0  0
    9.9029   70.7923   -7.4296 N   0  0  0  0  0  0  0  0  0  0  0  0
   13.6601   74.3867  -10.3271 Cl  0  0  0  0  0  0  0  0  0  0  0  0
  2  1  2  0
  6  1  1  0
  3  2  1  0
  2 13  1  0
  4  3  2  0
  4  5  1  0
  7  4  1  0
  5  6  2  0
  5 23  1  0
  7  8  1  0
  7 28  1  6
  8  9  1  6
  9 10  1  6
 10 23  1  0
 10 24  2  0
 12 11  1  6
 23 11  1  0
 11 25  2  0
 13 14  2  0
 13 15  1  0
 14 26  1  0
 15 27  2  0
 16 26  1  6
 17 18  2  0
 17 22  1  0
 17 28  1  0
 18 19  1  0
 19 20  2  0
 20 21  1  0
 20 29  1  0
 21 22  2  0
 24 25  1  0
 26 27  1  0
M  END
$$$$
