
     RDKit          3D

 29 33  0  0  0  0  0  0  0  0999 V2000
    6.2733   72.3025   -2.7304 C   0  0  0  0  0  0  0  0  0  0  0  0
    7.5093   72.6519   -2.1980 C   0  0  0  0  0  0  0  0  0  0  0  0
    8.6617   71.9790   -2.6333 C   0  0  0  0  0  0  0  0  0  0  0  0
    8.5579   71.0020   -3.5641 C   0  0  0  0  0  0  0  0  0  0  0  0
    7.2963   70.6855   -4.0758 C   0  0  0  0  0  0  0  0  0  0  0  0
    6.1466   71.2937   -3.6945 C   0  0  0  0  0  0  0  0  0  0  0  0
    9.8566   70.2847   -3.8876 C   0  0  1  0  0  0  0  0  0  0  0  0
    9.5637   68.8275   -3.4895 C   0  0  0  0  0  0  0  0  0  0  0  0
    8.8945   67.9952   -4.4966 C   0  0  0  0  0  0  0  0  0  0  0  0
    7.7783   68.5366   -5.2675 C   0  0  0  0  0  0  0  0  0  0  0  0
    6.1602   69.8661   -6.0431 C   0  0  0  0  0  0  0  0  0  0  0  0
    5.2702   71.0084   -6.2662 C   0  0  0  0  0  0  0  0  0  0  0  0
    7.6004   73.7011   -1.2019 C   0  0  0  0  0  0  0  0  0  0  0  0
    8.7267   74.4342   -0.9124 C   0  0  0  0  0  0  0  0  0  0  0  0
    6.6163   74.1713   -0.3640 C   0  0  0  0  0  0  0  0  0  0  0  0
    9.3592   76.2705    0.6487 C   0  0  0  0  0  0  0  0  0  0  0  0
   11.4038   70.5858   -5.8021 C   0  0  0  0  0  0  0  0  0  0  0  0
   12.3739   71.1563   -4.9594 C   0  0  0  0  0  0  0  0  0  0  0  0
   13.6471   71.4386   -5.3989 C   0  0  0  0  0  0  0  0  0  0  0  0
   14.0212   71.1712   -6.6888 C   0  0  0  0  0  0  0  0  0  0  0  0
   13.0887   70.6163   -7.5193 C   0  0  0  0  0  0  0  0  0  0  0  0
   11.7958   70.3220   -7.0976 C   0  0  0  0  0  0  0  0  0  0  0  0
    7.0969   69.6996   -5.1079 N   0  0  0  0  0  0  0  0  0  0  0  0
    7.2224   67.9555   -6.3613 N   0  0  0  0  0  0  0  0  0  0  0  0
    6.2730   68.7393   -6.8127 N   0  0  0  0  0  0  0  0  0  0  0  0
    8.4449   75.3189    0.0641 N   0  0  0  0  0  0  0  0  0  0  0  0
    7.1728   75.1623    0.3965 N   0  0  0  0  0  0  0  0  0  0  0  0
   10.1138   70.3049   -5.2867 N   0  0  0  0  0  0  0  0  0  0  0  0
   15.6538   71.5503   -7.1982 Cl  0  0  0  0  0  0  0  0  0  0  0  0
  2  1  2  0
  6  1  1  0
  3  2  1  0
  2 13  1  0
  4  3  2  0
  4  5  1  0
  7  4  1  0
  5  6  2  0
  5 23  1  0
  7  8  1  0
  7 28  1  6
  8  9  1  0
  9 10  1  0
 10 23  1  0
 10 24  2  0
 11 12  1  0
 23 11  1  0
 11 25  2  0
 13 14  2  0
 13 15  1  0
 14 26  1  0
 15 27  2  0
 26 16  1  0
 17 18  2  0
 17 22  1  0
 17 28  1  0
 18 19  1  0
 19 20  2  0
 20 21  1  0
 20 29  1  0
 21 22  2  0
 24 25  1  0
 26 27  1  0
M  END
$$$$
