
     RDKit          3D

 29 33  0  0  0  0  0  0  0  0999 V2000
    6.8464   72.0713   -2.5999 C   0  0  0  0  0  0  0  0  0  0  0  0
    8.1108   72.5875   -2.3389 C   0  0  0  0  0  0  0  0  0  0  0  0
    9.2239   72.0536   -3.0069 C   0  0  0  0  0  0  0  0  0  0  0  0
    9.0550   71.0467   -3.8954 C   0  0  0  0  0  0  0  0  0  0  0  0
    7.7658   70.5605   -4.1307 C   0  0  0  0  0  0  0  0  0  0  0  0
    6.6524   71.0292   -3.5161 C   0  0  0  0  0  0  0  0  0  0  0  0
   10.3390   70.4902   -4.4847 C   0  0  1  0  0  0  0  0  0  0  0  0
   10.3253   69.0188   -4.0345 C   0  0  0  0  0  0  0  0  0  0  0  0
    9.5737   68.0823   -4.8787 C   0  0  0  0  0  0  0  0  0  0  0  0
    8.2612   68.4582   -5.3977 C   0  0  0  0  0  0  0  0  0  0  0  0
    6.3598   69.5524   -5.8156 C   0  0  0  0  0  0  0  0  0  0  0  0
    5.3035   70.5673   -5.8464 C   0  0  0  0  0  0  0  0  0  0  0  0
    8.2718   73.6661   -1.3838 C   0  0  0  0  0  0  0  0  0  0  0  0
    7.2573   74.2677   -0.6776 C   0  0  0  0  0  0  0  0  0  0  0  0
    9.4307   74.2955   -0.9932 C   0  0  0  0  0  0  0  0  0  0  0  0
    7.0370   76.0864    1.0114 C   0  0  0  0  0  0  0  0  0  0  0  0
   11.3850   70.9741   -6.6805 C   0  0  0  0  0  0  0  0  0  0  0  0
   11.2269   72.1286   -7.4670 C   0  0  0  0  0  0  0  0  0  0  0  0
   12.2534   72.6392   -8.2282 C   0  0  0  0  0  0  0  0  0  0  0  0
   13.4819   72.0346   -8.2482 C   0  0  0  0  0  0  0  0  0  0  0  0
   13.6505   70.9115   -7.4882 C   0  0  0  0  0  0  0  0  0  0  0  0
   12.6277   70.3772   -6.7108 C   0  0  0  0  0  0  0  0  0  0  0  0
    7.4843   69.5301   -5.0981 N   0  0  0  0  0  0  0  0  0  0  0  0
    7.5690   67.7828   -6.3505 N   0  0  0  0  0  0  0  0  0  0  0  0
    6.4537   68.4286   -6.5921 N   0  0  0  0  0  0  0  0  0  0  0  0
    7.7732   75.2278    0.1146 N   0  0  0  0  0  0  0  0  0  0  0  0
    9.0837   75.2465   -0.0739 N   0  0  0  0  0  0  0  0  0  0  0  0
   10.2941   70.5052   -5.9067 N   0  0  0  0  0  0  0  0  0  0  0  0
   14.7548   72.7244   -9.2344 Cl  0  0  0  0  0  0  0  0  0  0  0  0
  2  1  2  0
  6  1  1  0
  3  2  1  0
  2 13  1  0
  4  3  2  0
  4  5  1  0
  7  4  1  0
  5  6  2  0
  5 23  1  0
  7  8  1  0
  7 28  1  6
  8  9  1  0
  9 10  1  0
 10 23  1  0
 10 24  2  0
 11 12  1  0
 23 11  1  0
 11 25  2  0
 13 14  2  0
 13 15  1  0
 14 26  1  0
 15 27  2  0
 26 16  1  0
 17 18  2  0
 17 22  1  0
 17 28  1  0
 18 19  1  0
 19 20  2  0
 20 21  1  0
 20 29  1  0
 21 22  2  0
 24 25  1  0
 26 27  1  0
M  END
$$$$
