
     RDKit          3D

 29 33  0  0  0  0  0  0  0  0999 V2000
    7.4506   72.0411   -2.5426 C   0  0  0  0  0  0  0  0  0  0  0  0
    8.7786   72.4277   -2.6856 C   0  0  0  0  0  0  0  0  0  0  0  0
    9.5414   71.8956   -3.7369 C   0  0  0  0  0  0  0  0  0  0  0  0
    8.9778   71.0162   -4.5977 C   0  0  0  0  0  0  0  0  0  0  0  0
    7.6385   70.6580   -4.4196 C   0  0  0  0  0  0  0  0  0  0  0  0
    6.8506   71.1319   -3.4238 C   0  0  0  0  0  0  0  0  0  0  0  0
    9.9244   70.4397   -5.6356 C   0  0  1  0  0  0  0  0  0  0  0  0
    9.8995   68.9305   -5.3365 C   0  0  0  0  0  0  0  0  0  0  0  0
    8.8124   68.1587   -5.9508 C   0  0  0  0  0  0  0  0  0  0  0  0
    7.4517   68.6895   -5.9559 C   0  0  0  0  0  0  0  0  0  0  0  0
    5.6515   69.9633   -5.6034 C   0  0  0  0  0  0  0  0  0  0  0  0
    4.7629   71.0501   -5.1840 C   0  0  0  0  0  0  0  0  0  0  0  0
    9.3646   73.3708   -1.7536 C   0  0  0  0  0  0  0  0  0  0  0  0
   10.7101   73.5509   -1.5370 C   0  0  0  0  0  0  0  0  0  0  0  0
    8.7243   74.2554   -0.9173 C   0  0  0  0  0  0  0  0  0  0  0  0
   12.1524   74.9883   -0.1007 C   0  0  0  0  0  0  0  0  0  0  0  0
   10.2348   71.0787   -8.0116 C   0  0  0  0  0  0  0  0  0  0  0  0
   10.7755   70.1440   -8.9118 C   0  0  0  0  0  0  0  0  0  0  0  0
   11.5695   70.5245   -9.9695 C   0  0  0  0  0  0  0  0  0  0  0  0
   11.8661   71.8435  -10.1872 C   0  0  0  0  0  0  0  0  0  0  0  0
   11.3472   72.7635   -9.3203 C   0  0  0  0  0  0  0  0  0  0  0  0
   10.5421   72.4027   -8.2444 C   0  0  0  0  0  0  0  0  0  0  0  0
    6.9407   69.7730   -5.3178 N   0  0  0  0  0  0  0  0  0  0  0  0
    6.4129   68.1847   -6.6696 N   0  0  0  0  0  0  0  0  0  0  0  0
    5.3586   68.9353   -6.4591 N   0  0  0  0  0  0  0  0  0  0  0  0
   10.8882   74.5077   -0.6052 N   0  0  0  0  0  0  0  0  0  0  0  0
    9.6922   74.9341   -0.2299 N   0  0  0  0  0  0  0  0  0  0  0  0
    9.4122   70.6261   -6.9499 N   0  0  0  0  0  0  0  0  0  0  0  0
   12.8819   72.2749  -11.5476 Cl  0  0  0  0  0  0  0  0  0  0  0  0
  2  1  2  0
  6  1  1  0
  3  2  1  0
  2 13  1  0
  4  3  2  0
  4  5  1  0
  7  4  1  0
  5  6  2  0
  5 23  1  0
  7  8  1  0
  7 28  1  6
  8  9  1  0
  9 10  1  0
 10 23  1  0
 10 24  2  0
 11 12  1  0
 23 11  1  0
 11 25  2  0
 13 14  2  0
 13 15  1  0
 14 26  1  0
 15 27  2  0
 26 16  1  0
 17 18  2  0
 17 22  1  0
 17 28  1  0
 18 19  1  0
 19 20  2  0
 20 21  1  0
 20 29  1  0
 21 22  2  0
 24 25  1  0
 26 27  1  0
M  END
$$$$
