
     RDKit          3D

 29 33  0  0  0  0  0  0  0  0999 V2000
    7.0836   72.3681   -2.6230 C   0  0  0  0  0  0  0  0  0  0  0  0
    8.3474   72.4669   -2.1001 C   0  0  0  0  0  0  0  0  0  0  0  0
    9.3402   71.6130   -2.6043 C   0  0  0  0  0  0  0  0  0  0  0  0
    9.0182   70.7343   -3.5782 C   0  0  0  0  0  0  0  0  0  0  0  0
    7.7177   70.6685   -4.0879 C   0  0  0  0  0  0  0  0  0  0  0  0
    6.7157   71.4702   -3.6311 C   0  0  0  0  0  0  0  0  0  0  0  0
   10.1180   69.7720   -3.9952 C   0  0  1  0  0  0  0  0  0  0  0  0
    9.5519   68.3849   -3.6885 C   0  0  0  0  0  0  0  0  0  0  0  0
    8.7291   67.7454   -4.7079 C   0  0  0  0  0  0  0  0  0  0  0  0
    7.7340   68.5727   -5.3917 C   0  0  0  0  0  0  0  0  0  0  0  0
    6.3928   70.2200   -6.0631 C   0  0  0  0  0  0  0  0  0  0  0  0
    5.7484   71.5321   -6.1866 C   0  0  0  0  0  0  0  0  0  0  0  0
    8.6699   73.4295   -1.0456 C   0  0  0  0  0  0  0  0  0  0  0  0
    9.8993   73.6319   -0.4809 C   0  0  0  0  0  0  0  0  0  0  0  0
    7.8057   74.3056   -0.4273 C   0  0  0  0  0  0  0  0  0  0  0  0
   10.8203   75.1494    1.3041 C   0  0  0  0  0  0  0  0  0  0  0  0
   11.4382   70.7048   -5.8515 C   0  0  0  0  0  0  0  0  0  0  0  0
   12.7282   70.3009   -5.8215 C   0  0  0  0  0  0  0  0  0  0  0  0
   13.7142   71.1609   -6.3220 C   0  0  0  0  0  0  0  0  0  0  0  0
   13.4248   72.3968   -6.8411 C   0  0  0  0  0  0  0  0  0  0  0  0
   12.1081   72.7975   -6.8658 C   0  0  0  0  0  0  0  0  0  0  0  0
   11.1423   71.9588   -6.3775 C   0  0  0  0  0  0  0  0  0  0  0  0
    7.2968   69.8327   -5.1530 N   0  0  0  0  0  0  0  0  0  0  0  0
    7.0528   68.1742   -6.5050 N   0  0  0  0  0  0  0  0  0  0  0  0
    6.2818   69.1439   -6.8762 N   0  0  0  0  0  0  0  0  0  0  0  0
    9.7841   74.6050    0.4552 N   0  0  0  0  0  0  0  0  0  0  0  0
    8.5249   74.9860    0.4633 N   0  0  0  0  0  0  0  0  0  0  0  0
   10.3902   69.8896   -5.3838 N   0  0  0  0  0  0  0  0  0  0  0  0
   14.7052   73.4294   -7.4534 Cl  0  0  0  0  0  0  0  0  0  0  0  0
  2  1  2  0
  6  1  1  0
  3  2  1  0
  2 13  1  0
  4  3  2  0
  4  5  1  0
  7  4  1  0
  5  6  2  0
  5 23  1  0
  7  8  1  0
  7 28  1  6
  8  9  1  6
  9 10  1  6
 10 23  1  0
 10 24  2  0
 12 11  1  6
 23 11  1  0
 11 25  2  0
 13 14  2  0
 13 15  1  0
 14 26  1  0
 15 27  2  0
 16 26  1  6
 17 18  2  0
 17 22  1  0
 17 28  1  0
 18 19  1  0
 19 20  2  0
 20 21  1  0
 20 29  1  0
 21 22  2  0
 24 25  1  0
 26 27  1  0
M  END
$$$$
