
     RDKit          3D

 29 33  0  0  0  0  0  0  0  0999 V2000
    6.3064   72.6297   -3.3803 C   0  0  0  0  0  0  0  0  0  0  0  0
    7.3199   72.7344   -2.4340 C   0  0  0  0  0  0  0  0  0  0  0  0
    8.3707   71.8039   -2.4446 C   0  0  0  0  0  0  0  0  0  0  0  0
    8.3869   70.8192   -3.3730 C   0  0  0  0  0  0  0  0  0  0  0  0
    7.3502   70.7534   -4.3083 C   0  0  0  0  0  0  0  0  0  0  0  0
    6.3065   71.6171   -4.3487 C   0  0  0  0  0  0  0  0  0  0  0  0
    9.5214   69.8204   -3.2278 C   0  0  1  0  0  0  0  0  0  0  0  0
    8.7899   68.4870   -2.9937 C   0  0  0  0  0  0  0  0  0  0  0  0
    8.3515   67.7612   -4.1918 C   0  0  0  0  0  0  0  0  0  0  0  0
    7.7296   68.4846   -5.2978 C   0  0  0  0  0  0  0  0  0  0  0  0
    6.8290   70.0844   -6.5695 C   0  0  0  0  0  0  0  0  0  0  0  0
    6.3535   71.3768   -7.0696 C   0  0  0  0  0  0  0  0  0  0  0  0
    7.2852   73.7960   -1.4475 C   0  0  0  0  0  0  0  0  0  0  0  0
    6.1513   74.4158   -0.9784 C   0  0  0  0  0  0  0  0  0  0  0  0
    8.3396   74.3888   -0.7929 C   0  0  0  0  0  0  0  0  0  0  0  0
    5.5962   76.2182    0.6502 C   0  0  0  0  0  0  0  0  0  0  0  0
   11.6550   69.9049   -4.4889 C   0  0  0  0  0  0  0  0  0  0  0  0
   12.3612   69.5734   -5.6584 C   0  0  0  0  0  0  0  0  0  0  0  0
   13.7202   69.7606   -5.7680 C   0  0  0  0  0  0  0  0  0  0  0  0
   14.4440   70.2830   -4.7295 C   0  0  0  0  0  0  0  0  0  0  0  0
   13.7707   70.6102   -3.5863 C   0  0  0  0  0  0  0  0  0  0  0  0
   12.3975   70.4303   -3.4525 C   0  0  0  0  0  0  0  0  0  0  0  0
    7.3133   69.7747   -5.3655 N   0  0  0  0  0  0  0  0  0  0  0  0
    7.4807   67.9739   -6.5309 N   0  0  0  0  0  0  0  0  0  0  0  0
    6.9518   68.9164   -7.2735 N   0  0  0  0  0  0  0  0  0  0  0  0
    6.4964   75.3515   -0.0723 N   0  0  0  0  0  0  0  0  0  0  0  0
    7.8155   75.3371    0.0413 N   0  0  0  0  0  0  0  0  0  0  0  0
   10.2530   69.7021   -4.4423 N   0  0  0  0  0  0  0  0  0  0  0  0
   16.1717   70.5006   -4.9199 Cl  0  0  0  0  0  0  0  0  0  0  0  0
  2  1  2  0
  6  1  1  0
  3  2  1  0
  2 13  1  0
  4  3  2  0
  4  5  1  0
  7  4  1  0
  5  6  2  0
  5 23  1  0
  7  8  1  0
  7 28  1  6
  8  9  1  0
  9 10  1  0
 10 23  1  0
 10 24  2  0
 11 12  1  0
 23 11  1  0
 11 25  2  0
 13 14  2  0
 13 15  1  0
 14 26  1  0
 15 27  2  0
 26 16  1  0
 17 18  2  0
 17 22  1  0
 17 28  1  0
 18 19  1  0
 19 20  2  0
 20 21  1  0
 20 29  1  0
 21 22  2  0
 24 25  1  0
 26 27  1  0
M  END
$$$$
