
     RDKit          3D

 29 33  0  0  0  0  0  0  0  0999 V2000
   10.2978   70.6842   -1.7780 C   0  0  0  0  0  0  0  0  0  0  0  0
   11.5569   70.8423   -2.2975 C   0  0  0  0  0  0  0  0  0  0  0  0
   11.7301   70.6606   -3.6781 C   0  0  0  0  0  0  0  0  0  0  0  0
   10.6601   70.3414   -4.4380 C   0  0  0  0  0  0  0  0  0  0  0  0
    9.3911   70.1939   -3.8694 C   0  0  0  0  0  0  0  0  0  0  0  0
    9.1684   70.3540   -2.5351 C   0  0  0  0  0  0  0  0  0  0  0  0
   10.9467   70.0556   -5.9028 C   0  0  1  0  0  0  0  0  0  0  0  0
   10.4938   68.6096   -6.1081 C   0  0  0  0  0  0  0  0  0  0  0  0
    9.0913   68.3751   -6.4294 C   0  0  0  0  0  0  0  0  0  0  0  0
    8.0890   69.1311   -5.6771 C   0  0  0  0  0  0  0  0  0  0  0  0
    7.0157   70.4619   -4.2486 C   0  0  0  0  0  0  0  0  0  0  0  0
    6.7399   71.4290   -3.1807 C   0  0  0  0  0  0  0  0  0  0  0  0
   12.6995   71.1900   -1.4513 C   0  0  0  0  0  0  0  0  0  0  0  0
   14.0117   71.2273   -1.8360 C   0  0  0  0  0  0  0  0  0  0  0  0
   12.6714   71.5423   -0.1201 C   0  0  0  0  0  0  0  0  0  0  0  0
   16.1943   71.7626   -0.7014 C   0  0  0  0  0  0  0  0  0  0  0  0
    8.9473   70.5333   -7.2566 C   0  0  0  0  0  0  0  0  0  0  0  0
    8.8005   70.1006   -8.5292 C   0  0  0  0  0  0  0  0  0  0  0  0
    7.5270   69.7123   -8.9649 C   0  0  0  0  0  0  0  0  0  0  0  0
    6.4222   69.7534   -8.1535 C   0  0  0  0  0  0  0  0  0  0  0  0
    6.5838   70.1962   -6.8602 C   0  0  0  0  0  0  0  0  0  0  0  0
    7.8274   70.5761   -6.4316 C   0  0  0  0  0  0  0  0  0  0  0  0
    8.1976   69.9292   -4.5875 N   0  0  0  0  0  0  0  0  0  0  0  0
    6.7672   69.1800   -6.0126 N   0  0  0  0  0  0  0  0  0  0  0  0
    6.1648   69.9563   -5.1716 N   0  0  0  0  0  0  0  0  0  0  0  0
   14.7599   71.5925   -0.7667 N   0  0  0  0  0  0  0  0  0  0  0  0
   13.9324   71.7729    0.2401 N   0  0  0  0  0  0  0  0  0  0  0  0
   10.1978   70.9231   -6.7409 N   0  0  0  0  0  0  0  0  0  0  0  0
    4.8522   69.2531   -8.7580 Cl  0  0  0  0  0  0  0  0  0  0  0  0
  2  1  2  0
  6  1  1  0
  3  2  1  0
  2 13  1  0
  4  3  2  0
  4  5  1  0
  7  4  1  0
  5  6  2  0
  5 23  1  0
  7  8  1  0
  7 28  1  6
  8  9  1  6
  9 10  1  6
 10 23  1  0
 10 24  2  0
 12 11  1  6
 23 11  1  0
 11 25  2  0
 13 14  2  0
 13 15  1  0
 14 26  1  0
 15 27  2  0
 16 26  1  6
 17 18  2  0
 17 22  1  0
 17 28  1  0
 18 19  1  0
 19 20  2  0
 20 21  1  0
 20 29  1  0
 21 22  2  0
 24 25  1  0
 26 27  1  0
M  END
$$$$
