
     RDKit          3D

 29 33  0  0  0  0  0  0  0  0999 V2000
    6.4033   72.7765   -3.1113 C   0  0  0  0  0  0  0  0  0  0  0  0
    7.5814   72.9744   -2.3997 C   0  0  0  0  0  0  0  0  0  0  0  0
    8.6632   72.1034   -2.6027 C   0  0  0  0  0  0  0  0  0  0  0  0
    8.5489   71.0849   -3.4866 C   0  0  0  0  0  0  0  0  0  0  0  0
    7.3480   70.9249   -4.1838 C   0  0  0  0  0  0  0  0  0  0  0  0
    6.2668   71.7276   -4.0301 C   0  0  0  0  0  0  0  0  0  0  0  0
    9.7487   70.1565   -3.5529 C   0  0  1  0  0  0  0  0  0  0  0  0
    9.1653   68.7953   -3.1351 C   0  0  0  0  0  0  0  0  0  0  0  0
    8.5355   67.9993   -4.1953 C   0  0  0  0  0  0  0  0  0  0  0  0
    7.6555   68.6427   -5.1674 C   0  0  0  0  0  0  0  0  0  0  0  0
    6.4149   70.1385   -6.2678 C   0  0  0  0  0  0  0  0  0  0  0  0
    5.7673   71.3819   -6.6936 C   0  0  0  0  0  0  0  0  0  0  0  0
    7.6847   74.0710   -1.4572 C   0  0  0  0  0  0  0  0  0  0  0  0
    6.6738   74.5253   -0.6439 C   0  0  0  0  0  0  0  0  0  0  0  0
    8.7757   74.8627   -1.1840 C   0  0  0  0  0  0  0  0  0  0  0  0
    6.3723   76.3044    1.0746 C   0  0  0  0  0  0  0  0  0  0  0  0
   11.5867   70.2178   -5.2166 C   0  0  0  0  0  0  0  0  0  0  0  0
   12.5442   70.2508   -4.1878 C   0  0  0  0  0  0  0  0  0  0  0  0
   13.8861   70.4161   -4.4448 C   0  0  0  0  0  0  0  0  0  0  0  0
   14.3442   70.5563   -5.7276 C   0  0  0  0  0  0  0  0  0  0  0  0
   13.4248   70.5259   -6.7381 C   0  0  0  0  0  0  0  0  0  0  0  0
   12.0636   70.3597   -6.5027 C   0  0  0  0  0  0  0  0  0  0  0  0
    7.1550   69.9043   -5.1828 N   0  0  0  0  0  0  0  0  0  0  0  0
    7.1902   68.0704   -6.3072 N   0  0  0  0  0  0  0  0  0  0  0  0
    6.4623   68.9519   -6.9494 N   0  0  0  0  0  0  0  0  0  0  0  0
    7.1264   75.5546    0.0986 N   0  0  0  0  0  0  0  0  0  0  0  0
    8.3938   75.7599   -0.2253 N   0  0  0  0  0  0  0  0  0  0  0  0
   10.2206   70.0302   -4.8892 N   0  0  0  0  0  0  0  0  0  0  0  0
   16.0619   70.7646   -6.0007 Cl  0  0  0  0  0  0  0  0  0  0  0  0
  2  1  2  0
  6  1  1  0
  3  2  1  0
  2 13  1  0
  4  3  2  0
  4  5  1  0
  7  4  1  0
  5  6  2  0
  5 23  1  0
  7  8  1  0
  7 28  1  6
  8  9  1  0
  9 10  1  0
 10 23  1  0
 10 24  2  0
 11 12  1  0
 23 11  1  0
 11 25  2  0
 13 14  2  0
 13 15  1  0
 14 26  1  0
 15 27  2  0
 26 16  1  0
 17 18  2  0
 17 22  1  0
 17 28  1  0
 18 19  1  0
 19 20  2  0
 20 21  1  0
 20 29  1  0
 21 22  2  0
 24 25  1  0
 26 27  1  0
M  END
$$$$
