
     RDKit          3D

 29 33  0  0  0  0  0  0  0  0999 V2000
    7.3038   72.7394   -3.2535 C   0  0  0  0  0  0  0  0  0  0  0  0
    8.3456   72.6701   -2.3646 C   0  0  0  0  0  0  0  0  0  0  0  0
    9.1328   71.5085   -2.3580 C   0  0  0  0  0  0  0  0  0  0  0  0
    8.8394   70.5112   -3.2203 C   0  0  0  0  0  0  0  0  0  0  0  0
    7.7703   70.6235   -4.1147 C   0  0  0  0  0  0  0  0  0  0  0  0
    6.9719   71.7262   -4.1595 C   0  0  0  0  0  0  0  0  0  0  0  0
    9.6680   69.2451   -3.0789 C   0  0  1  0  0  0  0  0  0  0  0  0
    8.6490   68.1538   -2.7484 C   0  0  0  0  0  0  0  0  0  0  0  0
    7.9824   67.4864   -3.8599 C   0  0  0  0  0  0  0  0  0  0  0  0
    7.5091   68.3210   -4.9650 C   0  0  0  0  0  0  0  0  0  0  0  0
    6.9633   70.0094   -6.3123 C   0  0  0  0  0  0  0  0  0  0  0  0
    6.8037   71.3597   -6.8628 C   0  0  0  0  0  0  0  0  0  0  0  0
    8.6428   73.7665   -1.4415 C   0  0  0  0  0  0  0  0  0  0  0  0
    9.6181   73.7770   -0.4823 C   0  0  0  0  0  0  0  0  0  0  0  0
    8.0035   74.9839   -1.3636 C   0  0  0  0  0  0  0  0  0  0  0  0
   10.4107   75.4275    1.2454 C   0  0  0  0  0  0  0  0  0  0  0  0
   11.2163   69.8565   -4.8920 C   0  0  0  0  0  0  0  0  0  0  0  0
   11.0284   70.3221   -6.1475 C   0  0  0  0  0  0  0  0  0  0  0  0
   11.9429   71.2483   -6.6653 C   0  0  0  0  0  0  0  0  0  0  0  0
   13.0221   71.7021   -5.9512 C   0  0  0  0  0  0  0  0  0  0  0  0
   13.2035   71.2206   -4.6744 C   0  0  0  0  0  0  0  0  0  0  0  0
   12.3111   70.3155   -4.1656 C   0  0  0  0  0  0  0  0  0  0  0  0
    7.4243   69.6664   -5.1018 N   0  0  0  0  0  0  0  0  0  0  0  0
    7.0702   67.8228   -6.1573 N   0  0  0  0  0  0  0  0  0  0  0  0
    6.7592   68.8185   -6.9219 N   0  0  0  0  0  0  0  0  0  0  0  0
    9.5718   74.9691    0.1606 N   0  0  0  0  0  0  0  0  0  0  0  0
    8.5995   75.6659   -0.3874 N   0  0  0  0  0  0  0  0  0  0  0  0
   10.3307   68.9385   -4.2966 N   0  0  0  0  0  0  0  0  0  0  0  0
   14.1333   72.8639   -6.6554 Cl  0  0  0  0  0  0  0  0  0  0  0  0
  2  1  2  0
  6  1  1  0
  3  2  1  0
  2 13  1  0
  4  3  2  0
  4  5  1  0
  7  4  1  0
  5  6  2  0
  5 23  1  0
  7  8  1  0
  7 28  1  6
  8  9  1  6
  9 10  1  6
 10 23  1  0
 10 24  2  0
 12 11  1  6
 23 11  1  0
 11 25  2  0
 13 14  2  0
 13 15  1  0
 14 26  1  0
 15 27  2  0
 16 26  1  6
 17 18  2  0
 17 22  1  0
 17 28  1  0
 18 19  1  0
 19 20  2  0
 20 21  1  0
 20 29  1  0
 21 22  2  0
 24 25  1  0
 26 27  1  0
M  END
$$$$
