
     RDKit          3D

 29 33  0  0  0  0  0  0  0  0999 V2000
    6.3041   72.1200   -2.9296 C   0  0  0  0  0  0  0  0  0  0  0  0
    7.5052   72.5387   -2.3680 C   0  0  0  0  0  0  0  0  0  0  0  0
    8.6993   71.9036   -2.7435 C   0  0  0  0  0  0  0  0  0  0  0  0
    8.6691   70.8954   -3.6459 C   0  0  0  0  0  0  0  0  0  0  0  0
    7.4403   70.5091   -4.1887 C   0  0  0  0  0  0  0  0  0  0  0  0
    6.2535   71.0780   -3.8649 C   0  0  0  0  0  0  0  0  0  0  0  0
   10.0074   70.2258   -3.9034 C   0  0  1  0  0  0  0  0  0  0  0  0
    9.7630   68.7698   -3.4693 C   0  0  0  0  0  0  0  0  0  0  0  0
    9.1647   67.8793   -4.4711 C   0  0  0  0  0  0  0  0  0  0  0  0
    8.0537   68.3481   -5.2952 C   0  0  0  0  0  0  0  0  0  0  0  0
    6.4083   69.5821   -6.1655 C   0  0  0  0  0  0  0  0  0  0  0  0
    5.4789   70.6774   -6.4539 C   0  0  0  0  0  0  0  0  0  0  0  0
    7.5174   73.6204   -1.4031 C   0  0  0  0  0  0  0  0  0  0  0  0
    8.6110   74.0370   -0.6816 C   0  0  0  0  0  0  0  0  0  0  0  0
    6.4767   74.4325   -1.0168 C   0  0  0  0  0  0  0  0  0  0  0  0
    9.1159   75.7791    1.0270 C   0  0  0  0  0  0  0  0  0  0  0  0
   11.5921   70.5808   -5.7775 C   0  0  0  0  0  0  0  0  0  0  0  0
   12.3835   69.6191   -6.4296 C   0  0  0  0  0  0  0  0  0  0  0  0
   13.6289   69.9185   -6.9330 C   0  0  0  0  0  0  0  0  0  0  0  0
   14.1499   71.1795   -6.8162 C   0  0  0  0  0  0  0  0  0  0  0  0
   13.3917   72.1249   -6.1849 C   0  0  0  0  0  0  0  0  0  0  0  0
   12.1302   71.8457   -5.6683 C   0  0  0  0  0  0  0  0  0  0  0  0
    7.3185   69.4847   -5.1950 N   0  0  0  0  0  0  0  0  0  0  0  0
    7.5608   67.7107   -6.3879 N   0  0  0  0  0  0  0  0  0  0  0  0
    6.5951   68.4385   -6.8949 N   0  0  0  0  0  0  0  0  0  0  0  0
    8.2553   75.0636    0.1154 N   0  0  0  0  0  0  0  0  0  0  0  0
    6.9687   75.3039   -0.0849 N   0  0  0  0  0  0  0  0  0  0  0  0
   10.3114   70.2149   -5.2932 N   0  0  0  0  0  0  0  0  0  0  0  0
   15.7399   71.5084   -7.4736 Cl  0  0  0  0  0  0  0  0  0  0  0  0
  2  1  2  0
  6  1  1  0
  3  2  1  0
  2 13  1  0
  4  3  2  0
  4  5  1  0
  7  4  1  0
  5  6  2  0
  5 23  1  0
  7  8  1  0
  7 28  1  6
  8  9  1  0
  9 10  1  0
 10 23  1  0
 10 24  2  0
 11 12  1  0
 23 11  1  0
 11 25  2  0
 13 14  2  0
 13 15  1  0
 14 26  1  0
 15 27  2  0
 26 16  1  0
 17 18  2  0
 17 22  1  0
 17 28  1  0
 18 19  1  0
 19 20  2  0
 20 21  1  0
 20 29  1  0
 21 22  2  0
 24 25  1  0
 26 27  1  0
M  END
$$$$
