
     RDKit          3D

 29 33  0  0  0  0  0  0  0  0999 V2000
    6.4898   71.8674   -2.1590 C   0  0  0  0  0  0  0  0  0  0  0  0
    7.5969   72.5971   -1.8096 C   0  0  0  0  0  0  0  0  0  0  0  0
    8.7619   72.4387   -2.5755 C   0  0  0  0  0  0  0  0  0  0  0  0
    8.7499   71.5826   -3.6202 C   0  0  0  0  0  0  0  0  0  0  0  0
    7.5978   70.8603   -3.9464 C   0  0  0  0  0  0  0  0  0  0  0  0
    6.4425   70.9725   -3.2336 C   0  0  0  0  0  0  0  0  0  0  0  0
   10.0775   71.3851   -4.3329 C   0  0  1  0  0  0  0  0  0  0  0  0
   10.3829   69.8955   -4.1709 C   0  0  0  0  0  0  0  0  0  0  0  0
    9.8214   68.9754   -5.1523 C   0  0  0  0  0  0  0  0  0  0  0  0
    8.4281   69.1792   -5.5516 C   0  0  0  0  0  0  0  0  0  0  0  0
    6.3264   69.8878   -5.7618 C   0  0  0  0  0  0  0  0  0  0  0  0
    5.0886   70.6553   -5.5866 C   0  0  0  0  0  0  0  0  0  0  0  0
    7.5825   73.5194   -0.6730 C   0  0  0  0  0  0  0  0  0  0  0  0
    6.5016   74.2182   -0.2097 C   0  0  0  0  0  0  0  0  0  0  0  0
    8.6436   73.8559    0.1379 C   0  0  0  0  0  0  0  0  0  0  0  0
    6.0961   75.8523    1.6620 C   0  0  0  0  0  0  0  0  0  0  0  0
   10.9248   71.2757   -6.6413 C   0  0  0  0  0  0  0  0  0  0  0  0
   11.9618   72.0571   -7.0184 C   0  0  0  0  0  0  0  0  0  0  0  0
   12.8892   71.5473   -7.9363 C   0  0  0  0  0  0  0  0  0  0  0  0
   12.7882   70.2877   -8.4691 C   0  0  0  0  0  0  0  0  0  0  0  0
   11.7279   69.5016   -8.0782 C   0  0  0  0  0  0  0  0  0  0  0  0
   10.8202   69.9971   -7.1810 C   0  0  0  0  0  0  0  0  0  0  0  0
    7.4628   69.9927   -5.0595 N   0  0  0  0  0  0  0  0  0  0  0  0
    7.8413   68.5434   -6.6069 N   0  0  0  0  0  0  0  0  0  0  0  0
    6.6244   68.9690   -6.7097 N   0  0  0  0  0  0  0  0  0  0  0  0
    6.8964   74.9591    0.8542 N   0  0  0  0  0  0  0  0  0  0  0  0
    8.1776   74.7215    1.0362 N   0  0  0  0  0  0  0  0  0  0  0  0
    9.9630   71.7108   -5.7101 N   0  0  0  0  0  0  0  0  0  0  0  0
   13.9828   69.7055   -9.6156 Cl  0  0  0  0  0  0  0  0  0  0  0  0
  2  1  2  0
  6  1  1  0
  3  2  1  0
  2 13  1  0
  4  3  2  0
  4  5  1  0
  7  4  1  0
  5  6  2  0
  5 23  1  0
  7  8  1  0
  7 28  1  6
  8  9  1  6
  9 10  1  6
 10 23  1  0
 10 24  2  0
 12 11  1  6
 23 11  1  0
 11 25  2  0
 13 14  2  0
 13 15  1  0
 14 26  1  0
 15 27  2  0
 16 26  1  6
 17 18  2  0
 17 22  1  0
 17 28  1  0
 18 19  1  0
 19 20  2  0
 20 21  1  0
 20 29  1  0
 21 22  2  0
 24 25  1  0
 26 27  1  0
M  END
$$$$
