
     RDKit          3D

 29 33  0  0  0  0  0  0  0  0999 V2000
    6.8316   72.8155   -3.2098 C   0  0  0  0  0  0  0  0  0  0  0  0
    7.7942   72.6551   -2.2465 C   0  0  0  0  0  0  0  0  0  0  0  0
    8.7128   71.6053   -2.3981 C   0  0  0  0  0  0  0  0  0  0  0  0
    8.6173   70.7997   -3.4781 C   0  0  0  0  0  0  0  0  0  0  0  0
    7.6231   71.0003   -4.4407 C   0  0  0  0  0  0  0  0  0  0  0  0
    6.7037   72.0003   -4.3398 C   0  0  0  0  0  0  0  0  0  0  0  0
    9.5780   69.6227   -3.5163 C   0  0  1  0  0  0  0  0  0  0  0  0
    8.6742   68.3894   -3.5371 C   0  0  0  0  0  0  0  0  0  0  0  0
    8.1910   67.9218   -4.8306 C   0  0  0  0  0  0  0  0  0  0  0  0
    7.7164   68.9292   -5.7803 C   0  0  0  0  0  0  0  0  0  0  0  0
    7.0875   70.8111   -6.7935 C   0  0  0  0  0  0  0  0  0  0  0  0
    6.8133   72.2271   -7.0614 C   0  0  0  0  0  0  0  0  0  0  0  0
    7.8762   73.5437   -1.0862 C   0  0  0  0  0  0  0  0  0  0  0  0
    7.1026   74.6477   -0.8542 C   0  0  0  0  0  0  0  0  0  0  0  0
    8.7392   73.4385   -0.0181 C   0  0  0  0  0  0  0  0  0  0  0  0
    6.9513   76.3750    0.9710 C   0  0  0  0  0  0  0  0  0  0  0  0
   11.7121   70.0987   -4.6467 C   0  0  0  0  0  0  0  0  0  0  0  0
   12.5829   69.8435   -5.6490 C   0  0  0  0  0  0  0  0  0  0  0  0
   13.8930   70.3278   -5.5414 C   0  0  0  0  0  0  0  0  0  0  0  0
   14.3292   71.0500   -4.4604 C   0  0  0  0  0  0  0  0  0  0  0  0
   13.4339   71.3031   -3.4458 C   0  0  0  0  0  0  0  0  0  0  0  0
   12.1527   70.8313   -3.5485 C   0  0  0  0  0  0  0  0  0  0  0  0
    7.4813   70.2561   -5.6391 N   0  0  0  0  0  0  0  0  0  0  0  0
    7.4449   68.6664   -7.0916 N   0  0  0  0  0  0  0  0  0  0  0  0
    7.0823   69.7707   -7.6588 N   0  0  0  0  0  0  0  0  0  0  0  0
    7.4860   75.1979    0.3235 N   0  0  0  0  0  0  0  0  0  0  0  0
    8.4628   74.4546    0.7971 N   0  0  0  0  0  0  0  0  0  0  0  0
   10.3748   69.6612   -4.6908 N   0  0  0  0  0  0  0  0  0  0  0  0
   15.9840   71.6300   -4.3838 Cl  0  0  0  0  0  0  0  0  0  0  0  0
  2  1  2  0
  6  1  1  0
  3  2  1  0
  2 13  1  0
  4  3  2  0
  4  5  1  0
  7  4  1  0
  5  6  2  0
  5 23  1  0
  7  8  1  0
  7 28  1  6
  8  9  1  6
  9 10  1  6
 10 23  1  0
 10 24  2  0
 12 11  1  6
 23 11  1  0
 11 25  2  0
 13 14  2  0
 13 15  1  0
 14 26  1  0
 15 27  2  0
 16 26  1  6
 17 18  2  0
 17 22  1  0
 17 28  1  0
 18 19  1  0
 19 20  2  0
 20 21  1  0
 20 29  1  0
 21 22  2  0
 24 25  1  0
 26 27  1  0
M  END
$$$$
