
     RDKit          3D

 29 33  0  0  0  0  0  0  0  0999 V2000
    6.1864   72.4377   -2.7860 C   0  0  0  0  0  0  0  0  0  0  0  0
    7.2874   72.7445   -2.0283 C   0  0  0  0  0  0  0  0  0  0  0  0
    8.4997   72.1082   -2.3357 C   0  0  0  0  0  0  0  0  0  0  0  0
    8.5380   71.2264   -3.3581 C   0  0  0  0  0  0  0  0  0  0  0  0
    7.3930   70.9448   -4.1098 C   0  0  0  0  0  0  0  0  0  0  0  0
    6.1905   71.5301   -3.8508 C   0  0  0  0  0  0  0  0  0  0  0  0
    9.8574   70.4997   -3.5599 C   0  0  1  0  0  0  0  0  0  0  0  0
    9.5138   69.0210   -3.3757 C   0  0  0  0  0  0  0  0  0  0  0  0
    9.0331   68.2844   -4.5381 C   0  0  0  0  0  0  0  0  0  0  0  0
    8.0478   68.9431   -5.3969 C   0  0  0  0  0  0  0  0  0  0  0  0
    6.5727   70.3434   -6.3060 C   0  0  0  0  0  0  0  0  0  0  0  0
    5.7288   71.5193   -6.5448 C   0  0  0  0  0  0  0  0  0  0  0  0
    7.2187   73.7054   -0.9263 C   0  0  0  0  0  0  0  0  0  0  0  0
    8.1445   73.8667    0.0677 C   0  0  0  0  0  0  0  0  0  0  0  0
    6.2189   74.6208   -0.6828 C   0  0  0  0  0  0  0  0  0  0  0  0
    8.3699   75.3671    2.0765 C   0  0  0  0  0  0  0  0  0  0  0  0
   11.7444   70.7927   -5.1130 C   0  0  0  0  0  0  0  0  0  0  0  0
   12.6228   71.1646   -4.1546 C   0  0  0  0  0  0  0  0  0  0  0  0
   13.9878   71.1929   -4.4678 C   0  0  0  0  0  0  0  0  0  0  0  0
   14.4704   70.8592   -5.7073 C   0  0  0  0  0  0  0  0  0  0  0  0
   13.5668   70.4828   -6.6751 C   0  0  0  0  0  0  0  0  0  0  0  0
   12.2320   70.4540   -6.3717 C   0  0  0  0  0  0  0  0  0  0  0  0
    7.3450   70.0908   -5.2405 N   0  0  0  0  0  0  0  0  0  0  0  0
    7.6761   68.4730   -6.6229 N   0  0  0  0  0  0  0  0  0  0  0  0
    6.8211   69.2997   -7.1309 N   0  0  0  0  0  0  0  0  0  0  0  0
    7.7178   74.8537    0.8925 N   0  0  0  0  0  0  0  0  0  0  0  0
    6.5679   75.2828    0.4187 N   0  0  0  0  0  0  0  0  0  0  0  0
   10.3598   70.7224   -4.8691 N   0  0  0  0  0  0  0  0  0  0  0  0
   16.1931   70.9143   -6.0385 Cl  0  0  0  0  0  0  0  0  0  0  0  0
  2  1  2  0
  6  1  1  0
  3  2  1  0
  2 13  1  0
  4  3  2  0
  4  5  1  0
  7  4  1  0
  5  6  2  0
  5 23  1  0
  7  8  1  0
  7 28  1  6
  8  9  1  6
  9 10  1  6
 10 23  1  0
 10 24  2  0
 12 11  1  6
 23 11  1  0
 11 25  2  0
 13 14  2  0
 13 15  1  0
 14 26  1  0
 15 27  2  0
 16 26  1  6
 17 18  2  0
 17 22  1  0
 17 28  1  0
 18 19  1  0
 19 20  2  0
 20 21  1  0
 20 29  1  0
 21 22  2  0
 24 25  1  0
 26 27  1  0
M  END
$$$$
