
     RDKit          3D

 29 33  0  0  0  0  0  0  0  0999 V2000
    6.4476   72.6337   -2.7643 C   0  0  0  0  0  0  0  0  0  0  0  0
    7.6886   72.8467   -2.1744 C   0  0  0  0  0  0  0  0  0  0  0  0
    8.7345   71.9450   -2.4257 C   0  0  0  0  0  0  0  0  0  0  0  0
    8.5250   70.8825   -3.2376 C   0  0  0  0  0  0  0  0  0  0  0  0
    7.2632   70.7086   -3.8131 C   0  0  0  0  0  0  0  0  0  0  0  0
    6.2123   71.5394   -3.6071 C   0  0  0  0  0  0  0  0  0  0  0  0
    9.7001   69.9286   -3.3604 C   0  0  1  0  0  0  0  0  0  0  0  0
    9.1376   68.6037   -2.8163 C   0  0  0  0  0  0  0  0  0  0  0  0
    8.4018   67.7639   -3.7692 C   0  0  0  0  0  0  0  0  0  0  0  0
    7.4461   68.3709   -4.6920 C   0  0  0  0  0  0  0  0  0  0  0  0
    6.1320   69.8290   -5.7571 C   0  0  0  0  0  0  0  0  0  0  0  0
    5.4664   71.0600   -6.1911 C   0  0  0  0  0  0  0  0  0  0  0  0
    7.8938   73.9905   -1.3077 C   0  0  0  0  0  0  0  0  0  0  0  0
    6.9317   74.9037   -0.9466 C   0  0  0  0  0  0  0  0  0  0  0  0
    9.0515   74.3926   -0.6834 C   0  0  0  0  0  0  0  0  0  0  0  0
    6.7980   76.9551    0.4616 C   0  0  0  0  0  0  0  0  0  0  0  0
   11.3965   69.6312   -5.1447 C   0  0  0  0  0  0  0  0  0  0  0  0
   12.3917   70.3047   -4.4150 C   0  0  0  0  0  0  0  0  0  0  0  0
   13.7210   70.2437   -4.7659 C   0  0  0  0  0  0  0  0  0  0  0  0
   14.1290   69.5159   -5.8518 C   0  0  0  0  0  0  0  0  0  0  0  0
   13.1725   68.8556   -6.5704 C   0  0  0  0  0  0  0  0  0  0  0  0
   11.8230   68.9023   -6.2348 C   0  0  0  0  0  0  0  0  0  0  0  0
    6.9647   69.6394   -4.7322 N   0  0  0  0  0  0  0  0  0  0  0  0
    6.8702   67.7469   -5.7513 N   0  0  0  0  0  0  0  0  0  0  0  0
    6.0995   68.6065   -6.3730 N   0  0  0  0  0  0  0  0  0  0  0  0
    7.4774   75.8291   -0.1332 N   0  0  0  0  0  0  0  0  0  0  0  0
    8.7557   75.5230    0.0269 N   0  0  0  0  0  0  0  0  0  0  0  0
   10.0458   69.7210   -4.7248 N   0  0  0  0  0  0  0  0  0  0  0  0
   15.8328   69.4714   -6.2561 Cl  0  0  0  0  0  0  0  0  0  0  0  0
  2  1  2  0
  6  1  1  0
  3  2  1  0
  2 13  1  0
  4  3  2  0
  4  5  1  0
  7  4  1  0
  5  6  2  0
  5 23  1  0
  7  8  1  0
  7 28  1  6
  8  9  1  0
  9 10  1  0
 10 23  1  0
 10 24  2  0
 11 12  1  0
 23 11  1  0
 11 25  2  0
 13 14  2  0
 13 15  1  0
 14 26  1  0
 15 27  2  0
 26 16  1  0
 17 18  2  0
 17 22  1  0
 17 28  1  0
 18 19  1  0
 19 20  2  0
 20 21  1  0
 20 29  1  0
 21 22  2  0
 24 25  1  0
 26 27  1  0
M  END
$$$$
