
     RDKit          3D

 29 33  0  0  0  0  0  0  0  0999 V2000
    6.8135   72.1333   -2.6494 C   0  0  0  0  0  0  0  0  0  0  0  0
    8.0634   72.3747   -2.1396 C   0  0  0  0  0  0  0  0  0  0  0  0
    9.1477   71.6718   -2.6866 C   0  0  0  0  0  0  0  0  0  0  0  0
    8.9231   70.7927   -3.6872 C   0  0  0  0  0  0  0  0  0  0  0  0
    7.6329   70.5788   -4.1821 C   0  0  0  0  0  0  0  0  0  0  0  0
    6.5452   71.2304   -3.6841 C   0  0  0  0  0  0  0  0  0  0  0  0
   10.1288   69.9931   -4.1524 C   0  0  1  0  0  0  0  0  0  0  0  0
    9.7487   68.5356   -3.8882 C   0  0  0  0  0  0  0  0  0  0  0  0
    8.9963   67.8312   -4.9191 C   0  0  0  0  0  0  0  0  0  0  0  0
    7.8926   68.5475   -5.5600 C   0  0  0  0  0  0  0  0  0  0  0  0
    6.3417   70.0322   -6.1549 C   0  0  0  0  0  0  0  0  0  0  0  0
    5.5339   71.2548   -6.2232 C   0  0  0  0  0  0  0  0  0  0  0  0
    8.2792   73.3343   -1.0555 C   0  0  0  0  0  0  0  0  0  0  0  0
    9.4531   73.5532   -0.3883 C   0  0  0  0  0  0  0  0  0  0  0  0
    7.3509   74.1907   -0.5064 C   0  0  0  0  0  0  0  0  0  0  0  0
   10.1942   75.0722    1.4774 C   0  0  0  0  0  0  0  0  0  0  0  0
   11.5933   70.6830   -6.0065 C   0  0  0  0  0  0  0  0  0  0  0  0
   12.6256   70.9386   -5.1714 C   0  0  0  0  0  0  0  0  0  0  0  0
   13.8285   71.4091   -5.7134 C   0  0  0  0  0  0  0  0  0  0  0  0
   14.0024   71.6221   -7.0569 C   0  0  0  0  0  0  0  0  0  0  0  0
   12.9443   71.3591   -7.8973 C   0  0  0  0  0  0  0  0  0  0  0  0
   11.7675   70.8988   -7.3704 C   0  0  0  0  0  0  0  0  0  0  0  0
    7.3031   69.7327   -5.2709 N   0  0  0  0  0  0  0  0  0  0  0  0
    7.2484   68.1033   -6.6781 N   0  0  0  0  0  0  0  0  0  0  0  0
    6.3542   68.9788   -7.0044 N   0  0  0  0  0  0  0  0  0  0  0  0
    9.2427   74.5169    0.5410 N   0  0  0  0  0  0  0  0  0  0  0  0
    7.9806   74.8763    0.4457 N   0  0  0  0  0  0  0  0  0  0  0  0
   10.3598   70.1913   -5.5392 N   0  0  0  0  0  0  0  0  0  0  0  0
   15.5348   72.2132   -7.6756 Cl  0  0  0  0  0  0  0  0  0  0  0  0
  2  1  2  0
  6  1  1  0
  3  2  1  0
  2 13  1  0
  4  3  2  0
  4  5  1  0
  7  4  1  0
  5  6  2  0
  5 23  1  0
  7  8  1  0
  7 28  1  6
  8  9  1  6
  9 10  1  6
 10 23  1  0
 10 24  2  0
 12 11  1  6
 23 11  1  0
 11 25  2  0
 13 14  2  0
 13 15  1  0
 14 26  1  0
 15 27  2  0
 16 26  1  6
 17 18  2  0
 17 22  1  0
 17 28  1  0
 18 19  1  0
 19 20  2  0
 20 21  1  0
 20 29  1  0
 21 22  2  0
 24 25  1  0
 26 27  1  0
M  END
$$$$
