
     RDKit          3D

 29 33  0  0  0  0  0  0  0  0999 V2000
    6.6592   72.0670   -2.4717 C   0  0  0  0  0  0  0  0  0  0  0  0
    7.9364   72.4730   -2.1009 C   0  0  0  0  0  0  0  0  0  0  0  0
    9.0525   71.8475   -2.6781 C   0  0  0  0  0  0  0  0  0  0  0  0
    8.8744   70.8606   -3.5870 C   0  0  0  0  0  0  0  0  0  0  0  0
    7.5730   70.4866   -3.9340 C   0  0  0  0  0  0  0  0  0  0  0  0
    6.4555   71.0472   -3.4107 C   0  0  0  0  0  0  0  0  0  0  0  0
   10.1517   70.1978   -4.0717 C   0  0  1  0  0  0  0  0  0  0  0  0
    9.9753   68.7320   -3.6379 C   0  0  0  0  0  0  0  0  0  0  0  0
    9.2209   67.8648   -4.5508 C   0  0  0  0  0  0  0  0  0  0  0  0
    7.9934   68.3524   -5.1745 C   0  0  0  0  0  0  0  0  0  0  0  0
    6.2337   69.6056   -5.7402 C   0  0  0  0  0  0  0  0  0  0  0  0
    5.2736   70.7070   -5.8500 C   0  0  0  0  0  0  0  0  0  0  0  0
    8.1071   73.5319   -1.1257 C   0  0  0  0  0  0  0  0  0  0  0  0
    7.2056   73.8687   -0.1440 C   0  0  0  0  0  0  0  0  0  0  0  0
    9.1681   74.3946   -0.9783 C   0  0  0  0  0  0  0  0  0  0  0  0
    7.0500   75.5412    1.6965 C   0  0  0  0  0  0  0  0  0  0  0  0
   11.3709   70.7159   -6.1681 C   0  0  0  0  0  0  0  0  0  0  0  0
   12.1801   69.8280   -6.8983 C   0  0  0  0  0  0  0  0  0  0  0  0
   13.2939   70.2530   -7.5859 C   0  0  0  0  0  0  0  0  0  0  0  0
   13.6599   71.5726   -7.5844 C   0  0  0  0  0  0  0  0  0  0  0  0
   12.8825   72.4474   -6.8790 C   0  0  0  0  0  0  0  0  0  0  0  0
   11.7522   72.0411   -6.1767 C   0  0  0  0  0  0  0  0  0  0  0  0
    7.2877   69.4860   -4.9312 N   0  0  0  0  0  0  0  0  0  0  0  0
    7.3293   67.7404   -6.1882 N   0  0  0  0  0  0  0  0  0  0  0  0
    6.2971   68.4795   -6.5165 N   0  0  0  0  0  0  0  0  0  0  0  0
    7.6941   74.8969    0.5769 N   0  0  0  0  0  0  0  0  0  0  0  0
    8.8774   75.2159    0.0758 N   0  0  0  0  0  0  0  0  0  0  0  0
   10.2283   70.2196   -5.4922 N   0  0  0  0  0  0  0  0  0  0  0  0
   15.0867   72.0617   -8.4752 Cl  0  0  0  0  0  0  0  0  0  0  0  0
  2  1  2  0
  6  1  1  0
  3  2  1  0
  2 13  1  0
  4  3  2  0
  4  5  1  0
  7  4  1  0
  5  6  2  0
  5 23  1  0
  7  8  1  0
  7 28  1  6
  8  9  1  0
  9 10  1  0
 10 23  1  0
 10 24  2  0
 11 12  1  0
 23 11  1  0
 11 25  2  0
 13 14  2  0
 13 15  1  0
 14 26  1  0
 15 27  2  0
 26 16  1  0
 17 18  2  0
 17 22  1  0
 17 28  1  0
 18 19  1  0
 19 20  2  0
 20 21  1  0
 20 29  1  0
 21 22  2  0
 24 25  1  0
 26 27  1  0
M  END
$$$$
