
     RDKit          3D

 29 33  0  0  0  0  0  0  0  0999 V2000
    7.0669   71.8753   -2.2699 C   0  0  0  0  0  0  0  0  0  0  0  0
    8.3526   71.9868   -1.8063 C   0  0  0  0  0  0  0  0  0  0  0  0
    9.3743   71.3557   -2.5321 C   0  0  0  0  0  0  0  0  0  0  0  0
    9.0572   70.6692   -3.6513 C   0  0  0  0  0  0  0  0  0  0  0  0
    7.7332   70.5835   -4.0931 C   0  0  0  0  0  0  0  0  0  0  0  0
    6.7034   71.1727   -3.4239 C   0  0  0  0  0  0  0  0  0  0  0  0
   10.2006   69.9250   -4.3208 C   0  0  1  0  0  0  0  0  0  0  0  0
    9.7766   68.4561   -4.2848 C   0  0  0  0  0  0  0  0  0  0  0  0
    8.9385   67.9632   -5.3708 C   0  0  0  0  0  0  0  0  0  0  0  0
    7.8304   68.8127   -5.8098 C   0  0  0  0  0  0  0  0  0  0  0  0
    6.3105   70.4246   -6.0446 C   0  0  0  0  0  0  0  0  0  0  0  0
    5.5511   71.6650   -5.8530 C   0  0  0  0  0  0  0  0  0  0  0  0
    8.6690   72.7384   -0.5907 C   0  0  0  0  0  0  0  0  0  0  0  0
    7.8204   73.5613    0.0977 C   0  0  0  0  0  0  0  0  0  0  0  0
    9.8692   72.7599    0.0845 C   0  0  0  0  0  0  0  0  0  0  0  0
    7.9945   74.9830    2.1680 C   0  0  0  0  0  0  0  0  0  0  0  0
   11.5859   70.8736   -6.1207 C   0  0  0  0  0  0  0  0  0  0  0  0
   12.2380   70.3487   -7.1826 C   0  0  0  0  0  0  0  0  0  0  0  0
   13.4443   70.9343   -7.5878 C   0  0  0  0  0  0  0  0  0  0  0  0
   13.9920   72.0184   -6.9511 C   0  0  0  0  0  0  0  0  0  0  0  0
   13.3195   72.5437   -5.8709 C   0  0  0  0  0  0  0  0  0  0  0  0
   12.1401   71.9736   -5.4729 C   0  0  0  0  0  0  0  0  0  0  0  0
    7.3076   69.9480   -5.2868 N   0  0  0  0  0  0  0  0  0  0  0  0
    7.1060   68.5877   -6.9442 N   0  0  0  0  0  0  0  0  0  0  0  0
    6.2314   69.5333   -7.0599 N   0  0  0  0  0  0  0  0  0  0  0  0
    8.4880   74.0688    1.1623 N   0  0  0  0  0  0  0  0  0  0  0  0
    9.7060   73.5725    1.1268 N   0  0  0  0  0  0  0  0  0  0  0  0
   10.3603   70.3518   -5.6655 N   0  0  0  0  0  0  0  0  0  0  0  0
   15.5074   72.7077   -7.5066 Cl  0  0  0  0  0  0  0  0  0  0  0  0
  2  1  2  0
  6  1  1  0
  3  2  1  0
  2 13  1  0
  4  3  2  0
  4  5  1  0
  7  4  1  0
  5  6  2  0
  5 23  1  0
  7  8  1  0
  7 28  1  6
  8  9  1  6
  9 10  1  6
 10 23  1  0
 10 24  2  0
 12 11  1  6
 23 11  1  0
 11 25  2  0
 13 14  2  0
 13 15  1  0
 14 26  1  0
 15 27  2  0
 16 26  1  6
 17 18  2  0
 17 22  1  0
 17 28  1  0
 18 19  1  0
 19 20  2  0
 20 21  1  0
 20 29  1  0
 21 22  2  0
 24 25  1  0
 26 27  1  0
M  END
$$$$
