
     RDKit          3D

 29 33  0  0  0  0  0  0  0  0999 V2000
    7.9599   73.0203   -1.8610 C   0  0  0  0  0  0  0  0  0  0  0  0
    9.0973   73.7696   -2.0196 C   0  0  0  0  0  0  0  0  0  0  0  0
   10.0495   73.3362   -2.9547 C   0  0  0  0  0  0  0  0  0  0  0  0
    9.8125   72.2083   -3.6590 C   0  0  0  0  0  0  0  0  0  0  0  0
    8.6368   71.4750   -3.4705 C   0  0  0  0  0  0  0  0  0  0  0  0
    7.6826   71.8481   -2.5728 C   0  0  0  0  0  0  0  0  0  0  0  0
   10.9363   71.7461   -4.5716 C   0  0  1  0  0  0  0  0  0  0  0  0
   11.3137   70.3608   -4.0454 C   0  0  0  0  0  0  0  0  0  0  0  0
   10.5603   69.2160   -4.5420 C   0  0  0  0  0  0  0  0  0  0  0  0
    9.1068   69.3545   -4.6431 C   0  0  0  0  0  0  0  0  0  0  0  0
    6.9965   70.0633   -4.5542 C   0  0  0  0  0  0  0  0  0  0  0  0
    5.8152   70.9038   -4.3311 C   0  0  0  0  0  0  0  0  0  0  0  0
    9.3287   74.9893   -1.2441 C   0  0  0  0  0  0  0  0  0  0  0  0
    8.4120   75.6415   -0.4659 C   0  0  0  0  0  0  0  0  0  0  0  0
   10.5015   75.7053   -1.1513 C   0  0  0  0  0  0  0  0  0  0  0  0
    8.4339   77.7056    0.9750 C   0  0  0  0  0  0  0  0  0  0  0  0
    9.5212   70.6968   -6.2906 C   0  0  0  0  0  0  0  0  0  0  0  0
    9.4217   69.4968   -5.6755 C   0  0  0  0  0  0  0  0  0  0  0  0
    8.4229   68.6077   -6.0930 C   0  0  0  0  0  0  0  0  0  0  0  0
    7.5417   68.9041   -7.1011 C   0  0  0  0  0  0  0  0  0  0  0  0
    7.6530   70.1284   -7.7203 C   0  0  0  0  0  0  0  0  0  0  0  0
    8.6280   70.9995   -7.3141 C   0  0  0  0  0  0  0  0  0  0  0  0
    8.2644   70.3213   -4.2055 N   0  0  0  0  0  0  0  0  0  0  0  0
    8.3030   68.4598   -5.2878 N   0  0  0  0  0  0  0  0  0  0  0  0
    7.0852   68.8904   -5.2235 N   0  0  0  0  0  0  0  0  0  0  0  0
    9.0126   76.7245    0.0844 N   0  0  0  0  0  0  0  0  0  0  0  0
   10.2569   76.7349   -0.3431 N   0  0  0  0  0  0  0  0  0  0  0  0
   10.4867   71.6498   -5.9150 N   0  0  0  0  0  0  0  0  0  0  0  0
    6.3112   67.7475   -7.5792 Cl  0  0  0  0  0  0  0  0  0  0  0  0
  2  1  2  0
  6  1  1  0
  3  2  1  0
  2 13  1  0
  4  3  2  0
  4  5  1  0
  7  4  1  0
  5  6  2  0
  5 23  1  0
  7  8  1  0
  7 28  1  6
  8  9  1  6
  9 10  1  6
 10 23  1  0
 10 24  2  0
 12 11  1  6
 23 11  1  0
 11 25  2  0
 13 14  2  0
 13 15  1  0
 14 26  1  0
 15 27  2  0
 16 26  1  6
 17 18  2  0
 17 22  1  0
 17 28  1  0
 18 19  1  0
 19 20  2  0
 20 21  1  0
 20 29  1  0
 21 22  2  0
 24 25  1  0
 26 27  1  0
M  END
$$$$
