
     RDKit          3D

 29 33  0  0  0  0  0  0  0  0999 V2000
    6.8017   71.9271   -2.4606 C   0  0  0  0  0  0  0  0  0  0  0  0
    8.0436   72.3725   -2.0870 C   0  0  0  0  0  0  0  0  0  0  0  0
    9.1541   71.9263   -2.8198 C   0  0  0  0  0  0  0  0  0  0  0  0
    8.9608   71.0836   -3.8575 C   0  0  0  0  0  0  0  0  0  0  0  0
    7.6765   70.6566   -4.2091 C   0  0  0  0  0  0  0  0  0  0  0  0
    6.5656   71.0549   -3.5288 C   0  0  0  0  0  0  0  0  0  0  0  0
   10.2181   70.5611   -4.5323 C   0  0  1  0  0  0  0  0  0  0  0  0
   10.1500   69.0443   -4.3503 C   0  0  0  0  0  0  0  0  0  0  0  0
    9.4066   68.2731   -5.3392 C   0  0  0  0  0  0  0  0  0  0  0  0
    8.1143   68.8019   -5.7778 C   0  0  0  0  0  0  0  0  0  0  0  0
    6.2523   69.9943   -6.0506 C   0  0  0  0  0  0  0  0  0  0  0  0
    5.2330   71.0406   -5.9152 C   0  0  0  0  0  0  0  0  0  0  0  0
    8.2250   73.2871   -0.9587 C   0  0  0  0  0  0  0  0  0  0  0  0
    9.4101   73.6006   -0.3515 C   0  0  0  0  0  0  0  0  0  0  0  0
    7.2470   73.9988   -0.3001 C   0  0  0  0  0  0  0  0  0  0  0  0
   10.1034   75.0856    1.5594 C   0  0  0  0  0  0  0  0  0  0  0  0
   11.4186   71.1818   -6.5896 C   0  0  0  0  0  0  0  0  0  0  0  0
   12.1822   72.2475   -6.2586 C   0  0  0  0  0  0  0  0  0  0  0  0
   13.3721   72.4675   -6.9642 C   0  0  0  0  0  0  0  0  0  0  0  0
   13.7947   71.6463   -7.9780 C   0  0  0  0  0  0  0  0  0  0  0  0
   13.0088   70.5649   -8.3065 C   0  0  0  0  0  0  0  0  0  0  0  0
   11.8454   70.3473   -7.6183 C   0  0  0  0  0  0  0  0  0  0  0  0
    7.3628   69.8315   -5.3186 N   0  0  0  0  0  0  0  0  0  0  0  0
    7.4170   68.3118   -6.8436 N   0  0  0  0  0  0  0  0  0  0  0  0
    6.3421   69.0174   -6.9827 N   0  0  0  0  0  0  0  0  0  0  0  0
    9.1578   74.4792    0.6490 N   0  0  0  0  0  0  0  0  0  0  0  0
    7.8602   74.6966    0.6541 N   0  0  0  0  0  0  0  0  0  0  0  0
   10.2194   70.8850   -5.9147 N   0  0  0  0  0  0  0  0  0  0  0  0
   15.2963   71.9748   -8.8251 Cl  0  0  0  0  0  0  0  0  0  0  0  0
  2  1  2  0
  6  1  1  0
  3  2  1  0
  2 13  1  0
  4  3  2  0
  4  5  1  0
  7  4  1  0
  5  6  2  0
  5 23  1  0
  7  8  1  0
  7 28  1  6
  8  9  1  6
  9 10  1  6
 10 23  1  0
 10 24  2  0
 12 11  1  6
 23 11  1  0
 11 25  2  0
 13 14  2  0
 13 15  1  0
 14 26  1  0
 15 27  2  0
 16 26  1  6
 17 18  2  0
 17 22  1  0
 17 28  1  0
 18 19  1  0
 19 20  2  0
 20 21  1  0
 20 29  1  0
 21 22  2  0
 24 25  1  0
 26 27  1  0
M  END
$$$$
