
     RDKit          3D

 25 27  0  0  0  0  0  0  0  0999 V2000
    8.8131   18.5419   20.2707 C   0  0  0  0  0  0  0  0  0  0  0  0
    9.8005   18.4218   21.2305 C   0  0  0  0  0  0  0  0  0  0  0  0
    9.4930   18.4031   22.5826 C   0  0  0  0  0  0  0  0  0  0  0  0
    8.1892   18.5036   23.0243 C   0  0  0  0  0  0  0  0  0  0  0  0
    7.8853   18.4845   24.3752 C   0  0  0  0  0  0  0  0  0  0  0  0
    8.8688   18.3647   25.3354 C   0  0  0  0  0  0  0  0  0  0  0  0
   10.1725   18.2642   24.8949 C   0  0  0  0  0  0  0  0  0  0  0  0
   15.8864   22.5862   19.4626 C   0  0  0  0  0  0  0  0  0  0  0  0
   14.4562   22.9059   19.6232 C   0  0  0  0  0  0  0  0  0  0  0  0
   13.4944   22.2147   18.8954 C   0  0  0  0  0  0  0  0  0  0  0  0
   13.9179   21.2251   18.0453 F   0  0  0  0  0  0  0  0  0  0  0  0
   12.1693   22.5228   19.0544 C   0  0  0  0  0  0  0  0  0  0  0  0
   11.8058   23.5268   19.9465 C   0  0  0  0  0  0  0  0  0  0  0  0
   12.7416   24.2093   20.6642 C   0  0  0  0  0  0  0  0  0  0  0  0
   14.0709   23.8958   20.4999 C   0  0  0  0  0  0  0  0  0  0  0  0
   11.0990   21.8866   18.3339 C   0  0  0  0  0  0  0  0  0  0  0  0
   10.8444   22.2810   17.1473 O   0  0  0  0  0  0  0  0  0  0  0  0
   10.3406   20.8491   18.9091 N   0  0  0  0  0  0  0  0  0  0  0  0
    9.4008   20.2015   18.0765 N   0  0  0  0  0  0  0  0  0  0  0  0
    9.1720   18.5693   18.5605 S   0  0  1  0  0  6  0  0  0  0  0  0
   10.4056   17.7647   18.2688 O   0  0  0  0  0  0  0  0  0  0  0  0
    8.0406   17.9195   17.8180 O   0  0  0  0  0  0  0  0  0  0  0  0
   10.4717   18.2835   23.5482 C   0  0  0  0  0  0  0  0  0  0  0  0
    7.2087   18.6232   22.0604 C   0  0  0  0  0  0  0  0  0  0  0  0
    7.5092   18.6424   20.7141 C   0  0  0  0  0  0  0  0  0  0  0  0
  1  2  2  0
 20  1  1  0
  1 25  1  0
  2  3  1  0
  3  4  2  0
  3 23  1  0
  4  5  1  0
  4 24  1  0
  5  6  2  0
  7  6  1  0
 23  7  2  0
  8  9  1  6
 10  9  2  0
  9 15  1  0
 10 11  1  0
 12 10  1  0
 12 13  2  0
 16 12  1  0
 13 14  1  0
 14 15  2  0
 16 17  2  0
 18 16  1  0
 19 18  1  0
 20 19  1  6
 20 21  2  0
 20 22  2  0
 24 25  2  0
M  END
$$$$
