
     RDKit          3D

 25 27  0  0  0  0  0  0  0  0999 V2000
    7.4378   16.8745   15.5035 C   0  0  0  0  0  0  0  0  0  0  0  0
    7.9280   15.5813   15.5323 C   0  0  0  0  0  0  0  0  0  0  0  0
    8.0417   14.8895   14.3490 C   0  0  0  0  0  0  0  0  0  0  0  0
    7.6727   15.4836   13.1746 C   0  0  0  0  0  0  0  0  0  0  0  0
    7.8043   14.7475   12.0003 C   0  0  0  0  0  0  0  0  0  0  0  0
    8.2914   13.4640   12.0337 C   0  0  0  0  0  0  0  0  0  0  0  0
    8.6501   12.9055   13.2328 C   0  0  0  0  0  0  0  0  0  0  0  0
   10.3288   18.8997   24.7462 C   0  0  0  0  0  0  0  0  0  0  0  0
    9.6229   18.0932   23.7242 C   0  0  0  0  0  0  0  0  0  0  0  0
    9.5164   18.5395   22.4002 C   0  0  0  0  0  0  0  0  0  0  0  0
   10.0758   19.7227   22.0906 F   0  0  0  0  0  0  0  0  0  0  0  0
    8.8729   17.8291   21.4171 C   0  0  0  0  0  0  0  0  0  0  0  0
    8.3182   16.6083   21.8227 C   0  0  0  0  0  0  0  0  0  0  0  0
    8.4231   16.1710   23.1220 C   0  0  0  0  0  0  0  0  0  0  0  0
    9.0723   16.8942   24.1001 C   0  0  0  0  0  0  0  0  0  0  0  0
    8.7307   18.2398   20.0308 C   0  0  0  0  0  0  0  0  0  0  0  0
    8.4754   19.4653   19.8090 O   0  0  0  0  0  0  0  0  0  0  0  0
    8.8451   17.4252   18.8940 N   0  0  0  0  0  0  0  0  0  0  0  0
    8.8588   18.0148   17.6276 N   0  0  0  0  0  0  0  0  0  0  0  0
    7.2583   17.8340   16.9688 S   0  0  1  0  0  6  0  0  0  0  0  0
    6.6716   19.1680   16.5999 O   0  0  0  0  0  0  0  0  0  0  0  0
    6.3751   17.0699   17.8997 O   0  0  0  0  0  0  0  0  0  0  0  0
    8.5327   13.6053   14.4110 C   0  0  0  0  0  0  0  0  0  0  0  0
    7.1823   16.7694   13.1217 C   0  0  0  0  0  0  0  0  0  0  0  0
    7.0706   17.4602   14.3189 C   0  0  0  0  0  0  0  0  0  0  0  0
  1  2  2  0
 20  1  1  0
  1 25  1  0
  2  3  1  0
  3  4  2  0
  3 23  1  0
  4  5  1  0
  4 24  1  0
  5  6  2  0
  7  6  1  0
 23  7  2  0
  9  8  1  0
 10  9  2  0
  9 15  1  0
 10 11  1  0
 12 10  1  0
 12 13  2  0
 16 12  1  0
 13 14  1  0
 14 15  2  0
 16 17  2  0
 18 16  1  0
 19 18  1  0
 20 19  1  1
 20 21  2  0
 20 22  2  0
 24 25  2  0
M  END
$$$$
