
     RDKit          3D

 25 27  0  0  0  0  0  0  0  0999 V2000
    8.0110   16.1390   17.7768 C   0  0  0  0  0  0  0  0  0  0  0  0
    9.1804   16.4708   17.1189 C   0  0  0  0  0  0  0  0  0  0  0  0
   10.0379   17.4400   17.6174 C   0  0  0  0  0  0  0  0  0  0  0  0
    9.7583   18.1119   18.7903 C   0  0  0  0  0  0  0  0  0  0  0  0
   10.6166   19.0792   19.2856 C   0  0  0  0  0  0  0  0  0  0  0  0
   11.7846   19.4124   18.6310 C   0  0  0  0  0  0  0  0  0  0  0  0
   12.0649   18.7413   17.4585 C   0  0  0  0  0  0  0  0  0  0  0  0
    7.7734   18.7050   10.9328 C   0  0  0  0  0  0  0  0  0  0  0  0
    6.5580   18.8227   11.7590 C   0  0  0  0  0  0  0  0  0  0  0  0
    6.4023   18.0400   12.8972 C   0  0  0  0  0  0  0  0  0  0  0  0
    7.4152   17.1769   13.2291 F   0  0  0  0  0  0  0  0  0  0  0  0
    5.2675   18.1595   13.6549 C   0  0  0  0  0  0  0  0  0  0  0  0
    4.2851   19.0672   13.2716 C   0  0  0  0  0  0  0  0  0  0  0  0
    4.4294   19.8386   12.1578 C   0  0  0  0  0  0  0  0  0  0  0  0
    5.5710   19.7137   11.4004 C   0  0  0  0  0  0  0  0  0  0  0  0
    4.9971   17.3818   14.8346 C   0  0  0  0  0  0  0  0  0  0  0  0
    3.8815   17.5480   15.4314 O   0  0  0  0  0  0  0  0  0  0  0  0
    5.9302   16.4521   15.3319 N   0  0  0  0  0  0  0  0  0  0  0  0
    5.5541   15.7118   16.4748 N   0  0  0  0  0  0  0  0  0  0  0  0
    6.9118   14.9227   17.1710 S   0  0  1  0  0  6  0  0  0  0  0  0
    7.5924   14.0620   16.1462 O   0  0  0  0  0  0  0  0  0  0  0  0
    6.5145   14.0218   18.3041 O   0  0  0  0  0  0  0  0  0  0  0  0
   11.2076   17.7782   16.9679 C   0  0  0  0  0  0  0  0  0  0  0  0
    8.5891   17.7753   19.4417 C   0  0  0  0  0  0  0  0  0  0  0  0
    7.7327   16.8121   18.9500 C   0  0  0  0  0  0  0  0  0  0  0  0
  1  2  2  0
 20  1  1  0
  1 25  1  0
  2  3  1  0
  3  4  2  0
  3 23  1  0
  4  5  1  0
  4 24  1  0
  5  6  2  0
  7  6  1  0
 23  7  2  0
  8  9  1  6
 10  9  2  0
  9 15  1  0
 10 11  1  0
 12 10  1  0
 12 13  2  0
 16 12  1  0
 13 14  1  0
 14 15  2  0
 16 17  2  0
 18 16  1  0
 19 18  1  0
 20 19  1  6
 20 21  2  0
 20 22  2  0
 24 25  2  0
M  END
$$$$
