
     RDKit          3D

 25 27  0  0  0  0  0  0  0  0999 V2000
    8.6990   17.4709   18.6787 C   0  0  0  0  0  0  0  0  0  0  0  0
    7.5870   17.3329   17.8696 C   0  0  0  0  0  0  0  0  0  0  0  0
    7.6772   16.7528   16.6132 C   0  0  0  0  0  0  0  0  0  0  0  0
    8.8806   16.2901   16.1203 C   0  0  0  0  0  0  0  0  0  0  0  0
    8.9675   15.7113   14.8653 C   0  0  0  0  0  0  0  0  0  0  0  0
    7.8591   15.5722   14.0554 C   0  0  0  0  0  0  0  0  0  0  0  0
    6.6557   16.0345   14.5472 C   0  0  0  0  0  0  0  0  0  0  0  0
   14.5515   23.2545   16.8616 C   0  0  0  0  0  0  0  0  0  0  0  0
   13.8789   22.7226   18.0609 C   0  0  0  0  0  0  0  0  0  0  0  0
   12.5824   22.2277   17.9795 C   0  0  0  0  0  0  0  0  0  0  0  0
   11.9652   22.2367   16.7547 F   0  0  0  0  0  0  0  0  0  0  0  0
   11.9697   21.7371   19.1020 C   0  0  0  0  0  0  0  0  0  0  0  0
   12.6586   21.7415   20.3110 C   0  0  0  0  0  0  0  0  0  0  0  0
   13.9296   22.2242   20.4000 C   0  0  0  0  0  0  0  0  0  0  0  0
   14.5395   22.7161   19.2693 C   0  0  0  0  0  0  0  0  0  0  0  0
   10.6255   21.2255   19.1316 C   0  0  0  0  0  0  0  0  0  0  0  0
    9.7597   21.7421   18.3494 O   0  0  0  0  0  0  0  0  0  0  0  0
   10.2569   20.1773   19.9963 N   0  0  0  0  0  0  0  0  0  0  0  0
    8.8783   19.8885   20.1060 N   0  0  0  0  0  0  0  0  0  0  0  0
    8.6145   18.1987   20.2655 S   0  0  1  0  0  6  0  0  0  0  0  0
    7.2748   17.9403   20.8921 O   0  0  0  0  0  0  0  0  0  0  0  0
    9.6422   17.5535   21.1493 O   0  0  0  0  0  0  0  0  0  0  0  0
    6.5728   16.6106   15.7981 C   0  0  0  0  0  0  0  0  0  0  0  0
    9.9866   16.4313   16.9337 C   0  0  0  0  0  0  0  0  0  0  0  0
    9.9023   17.0075   18.1843 C   0  0  0  0  0  0  0  0  0  0  0  0
  1  2  2  0
 20  1  1  0
  1 25  1  0
  2  3  1  0
  3  4  2  0
  3 23  1  0
  4  5  1  0
  4 24  1  0
  5  6  2  0
  7  6  1  0
 23  7  2  0
  8  9  1  6
 10  9  2  0
  9 15  1  0
 10 11  1  0
 12 10  1  0
 12 13  2  0
 16 12  1  0
 13 14  1  0
 14 15  2  0
 16 17  2  0
 18 16  1  0
 19 18  1  0
 20 19  1  6
 20 21  2  0
 20 22  2  0
 24 25  2  0
M  END
$$$$
