
     RDKit          3D

 25 27  0  0  0  0  0  0  0  0999 V2000
   19.0617   27.7151   23.6920 C   0  0  0  0  0  0  0  0  0  0  0  0
   19.7182   27.3290   24.8468 C   0  0  0  0  0  0  0  0  0  0  0  0
   21.0426   26.9669   24.7663 C   0  0  0  0  0  0  0  0  0  0  0  0
   21.6838   26.9935   23.5594 C   0  0  0  0  0  0  0  0  0  0  0  0
   23.0242   26.6192   23.5232 C   0  0  0  0  0  0  0  0  0  0  0  0
   23.6719   26.2367   24.6721 C   0  0  0  0  0  0  0  0  0  0  0  0
   22.9918   26.2241   25.8621 C   0  0  0  0  0  0  0  0  0  0  0  0
   18.4884   21.4436   19.7377 C   0  0  0  0  0  0  0  0  0  0  0  0
   17.2809   22.2775   19.9370 C   0  0  0  0  0  0  0  0  0  0  0  0
   17.1759   23.1448   21.0325 C   0  0  0  0  0  0  0  0  0  0  0  0
   18.2070   23.1935   21.8946 F   0  0  0  0  0  0  0  0  0  0  0  0
   16.0784   23.9376   21.2609 C   0  0  0  0  0  0  0  0  0  0  0  0
   15.0496   23.8268   20.3166 C   0  0  0  0  0  0  0  0  0  0  0  0
   15.1534   22.9755   19.2418 C   0  0  0  0  0  0  0  0  0  0  0  0
   16.2613   22.1844   19.0238 C   0  0  0  0  0  0  0  0  0  0  0  0
   15.9131   24.8539   22.3762 C   0  0  0  0  0  0  0  0  0  0  0  0
   15.0200   24.5711   23.2358 O   0  0  0  0  0  0  0  0  0  0  0  0
   16.6378   26.0316   22.6146 N   0  0  0  0  0  0  0  0  0  0  0  0
   16.4486   26.7211   23.8148 N   0  0  0  0  0  0  0  0  0  0  0  0
   17.3676   28.1945   23.7012 S   0  0  1  0  0  6  0  0  0  0  0  0
   17.1250   29.0764   24.8942 O   0  0  0  0  0  0  0  0  0  0  0  0
   17.0949   28.9023   22.4146 O   0  0  0  0  0  0  0  0  0  0  0  0
   21.6674   26.5879   25.9326 C   0  0  0  0  0  0  0  0  0  0  0  0
   21.0508   27.3741   22.3972 C   0  0  0  0  0  0  0  0  0  0  0  0
   19.7155   27.7378   22.4865 C   0  0  0  0  0  0  0  0  0  0  0  0
  1  2  2  0
 20  1  1  0
  1 25  1  0
  2  3  1  0
  3  4  2  0
  3 23  1  0
  4  5  1  0
  4 24  1  0
  5  6  2  0
  7  6  1  0
 23  7  2  0
  9  8  1  0
 10  9  2  0
  9 15  1  0
 10 11  1  0
 12 10  1  0
 12 13  2  0
 16 12  1  0
 13 14  1  0
 14 15  2  0
 16 17  2  0
 18 16  1  0
 19 18  1  0
 20 19  1  1
 20 21  2  0
 20 22  2  0
 24 25  2  0
M  END
$$$$
