
     RDKit          3D

 25 27  0  0  0  0  0  0  0  0999 V2000
    6.9630   14.7391   15.7582 C   0  0  0  0  0  0  0  0  0  0  0  0
    6.1113   15.4818   14.9623 C   0  0  0  0  0  0  0  0  0  0  0  0
    6.4023   15.7283   13.6290 C   0  0  0  0  0  0  0  0  0  0  0  0
    7.5538   15.2422   13.0433 C   0  0  0  0  0  0  0  0  0  0  0  0
    7.8416   15.4901   11.7116 C   0  0  0  0  0  0  0  0  0  0  0  0
    6.9933   16.2310   10.9148 C   0  0  0  0  0  0  0  0  0  0  0  0
    5.8420   16.7174   11.4994 C   0  0  0  0  0  0  0  0  0  0  0  0
    9.0554   21.1725   16.9679 C   0  0  0  0  0  0  0  0  0  0  0  0
    9.3988   20.2505   18.0659 C   0  0  0  0  0  0  0  0  0  0  0  0
    8.8886   18.9575   18.0848 C   0  0  0  0  0  0  0  0  0  0  0  0
    8.0774   18.5700   17.0489 F   0  0  0  0  0  0  0  0  0  0  0  0
    9.2158   18.1120   19.1115 C   0  0  0  0  0  0  0  0  0  0  0  0
   10.0581   18.5629   20.1230 C   0  0  0  0  0  0  0  0  0  0  0  0
   10.5630   19.8283   20.1125 C   0  0  0  0  0  0  0  0  0  0  0  0
   10.2305   20.6731   19.0791 C   0  0  0  0  0  0  0  0  0  0  0  0
    8.7240   16.7660   19.2386 C   0  0  0  0  0  0  0  0  0  0  0  0
    8.3825   16.3489   20.3952 O   0  0  0  0  0  0  0  0  0  0  0  0
    8.6134   15.9153   18.1221 N   0  0  0  0  0  0  0  0  0  0  0  0
    8.0672   14.6313   18.3433 N   0  0  0  0  0  0  0  0  0  0  0  0
    6.6218   14.4139   17.4412 S   0  0  1  0  0  6  0  0  0  0  0  0
    5.5508   15.3358   17.9486 O   0  0  0  0  0  0  0  0  0  0  0  0
    6.0900   13.0157   17.5659 O   0  0  0  0  0  0  0  0  0  0  0  0
    5.5583   16.4685   12.8264 C   0  0  0  0  0  0  0  0  0  0  0  0
    8.3994   14.5016   13.8441 C   0  0  0  0  0  0  0  0  0  0  0  0
    8.1145   14.2535   15.1709 C   0  0  0  0  0  0  0  0  0  0  0  0
  1  2  2  0
 20  1  1  0
  1 25  1  0
  2  3  1  0
  3  4  2  0
  3 23  1  0
  4  5  1  0
  4 24  1  0
  5  6  2  0
  7  6  1  0
 23  7  2  0
  8  9  1  6
 10  9  2  0
  9 15  1  0
 10 11  1  0
 12 10  1  0
 12 13  2  0
 16 12  1  0
 13 14  1  0
 14 15  2  0
 16 17  2  0
 18 16  1  0
 19 18  1  0
 20 19  1  1
 20 21  2  0
 20 22  2  0
 24 25  2  0
M  END
$$$$
