
     RDKit          3D

 25 27  0  0  0  0  0  0  0  0999 V2000
    8.7303   16.3250   18.8576 C   0  0  0  0  0  0  0  0  0  0  0  0
    8.5853   17.0735   20.0119 C   0  0  0  0  0  0  0  0  0  0  0  0
    9.1989   18.3022   20.0861 C   0  0  0  0  0  0  0  0  0  0  0  0
    9.9352   18.7607   19.0296 C   0  0  0  0  0  0  0  0  0  0  0  0
   10.5392   20.0094   19.1471 C   0  0  0  0  0  0  0  0  0  0  0  0
   10.3925   20.7490   20.2948 C   0  0  0  0  0  0  0  0  0  0  0  0
    9.6455   20.2522   21.3310 C   0  0  0  0  0  0  0  0  0  0  0  0
    7.5030   14.6264   10.8726 C   0  0  0  0  0  0  0  0  0  0  0  0
    7.1080   15.6807   11.8347 C   0  0  0  0  0  0  0  0  0  0  0  0
    6.8915   15.3797   13.1860 C   0  0  0  0  0  0  0  0  0  0  0  0
    7.0542   14.1036   13.5779 F   0  0  0  0  0  0  0  0  0  0  0  0
    6.5245   16.3208   14.1161 C   0  0  0  0  0  0  0  0  0  0  0  0
    6.3763   17.6247   13.6259 C   0  0  0  0  0  0  0  0  0  0  0  0
    6.5890   17.9193   12.2998 C   0  0  0  0  0  0  0  0  0  0  0  0
    6.9573   16.9647   11.3756 C   0  0  0  0  0  0  0  0  0  0  0  0
    6.2867   16.0690   15.5270 C   0  0  0  0  0  0  0  0  0  0  0  0
    5.2790   16.6335   16.0583 O   0  0  0  0  0  0  0  0  0  0  0  0
    7.0542   15.2621   16.3808 N   0  0  0  0  0  0  0  0  0  0  0  0
    6.5832   14.9829   17.6660 N   0  0  0  0  0  0  0  0  0  0  0  0
    7.9806   14.7425   18.6750 S   0  0  1  0  0  6  0  0  0  0  0  0
    8.9675   13.8167   18.0200 O   0  0  0  0  0  0  0  0  0  0  0  0
    7.5878   14.2725   20.0371 O   0  0  0  0  0  0  0  0  0  0  0  0
    9.0356   19.0224   21.2475 C   0  0  0  0  0  0  0  0  0  0  0  0
   10.0933   18.0332   17.8711 C   0  0  0  0  0  0  0  0  0  0  0  0
    9.4716   16.7955   17.8039 C   0  0  0  0  0  0  0  0  0  0  0  0
  1  2  2  0
 20  1  1  0
  1 25  1  0
  2  3  1  0
  3  4  2  0
  3 23  1  0
  4  5  1  0
  4 24  1  0
  5  6  2  0
  7  6  1  0
 23  7  2  0
  9  8  1  0
 10  9  2  0
  9 15  1  0
 10 11  1  0
 12 10  1  0
 12 13  2  0
 16 12  1  0
 13 14  1  0
 14 15  2  0
 16 17  2  0
 18 16  1  0
 19 18  1  0
 20 19  1  6
 20 21  2  0
 20 22  2  0
 24 25  2  0
M  END
$$$$
