
     RDKit          3D

 25 27  0  0  0  0  0  0  0  0999 V2000
   17.3867   27.3226   25.9878 C   0  0  0  0  0  0  0  0  0  0  0  0
   18.4803   27.1016   26.8038 C   0  0  0  0  0  0  0  0  0  0  0  0
   18.3937   26.2816   27.9188 C   0  0  0  0  0  0  0  0  0  0  0  0
   17.2126   25.6534   28.2587 C   0  0  0  0  0  0  0  0  0  0  0  0
   17.1293   24.8352   29.3728 C   0  0  0  0  0  0  0  0  0  0  0  0
   18.2192   24.6128   30.1890 C   0  0  0  0  0  0  0  0  0  0  0  0
   19.4004   25.2403   29.8501 C   0  0  0  0  0  0  0  0  0  0  0  0
   13.3926   23.3227   21.0417 C   0  0  0  0  0  0  0  0  0  0  0  0
   14.7597   23.6888   20.6288 C   0  0  0  0  0  0  0  0  0  0  0  0
   15.4362   24.7201   21.2700 C   0  0  0  0  0  0  0  0  0  0  0  0
   14.7999   25.3658   22.2993 F   0  0  0  0  0  0  0  0  0  0  0  0
   16.7057   25.0498   20.8754 C   0  0  0  0  0  0  0  0  0  0  0  0
   17.3005   24.3431   19.8347 C   0  0  0  0  0  0  0  0  0  0  0  0
   16.6451   23.3308   19.2007 C   0  0  0  0  0  0  0  0  0  0  0  0
   15.3701   23.0046   19.6011 C   0  0  0  0  0  0  0  0  0  0  0  0
   17.4823   26.1132   21.4547 C   0  0  0  0  0  0  0  0  0  0  0  0
   18.3064   26.7412   20.7099 O   0  0  0  0  0  0  0  0  0  0  0  0
   17.3470   26.4676   22.8106 N   0  0  0  0  0  0  0  0  0  0  0  0
   18.2098   27.4726   23.3020 N   0  0  0  0  0  0  0  0  0  0  0  0
   17.4671   28.3514   24.5774 S   0  0  1  0  0  6  0  0  0  0  0  0
   16.0914   28.7934   24.1694 O   0  0  0  0  0  0  0  0  0  0  0  0
   18.2390   29.5909   24.9256 O   0  0  0  0  0  0  0  0  0  0  0  0
   19.4798   26.0548   28.7394 C   0  0  0  0  0  0  0  0  0  0  0  0
   16.1249   25.8788   27.4394 C   0  0  0  0  0  0  0  0  0  0  0  0
   16.2058   26.6935   26.3291 C   0  0  0  0  0  0  0  0  0  0  0  0
  1  2  2  0
 20  1  1  0
  1 25  1  0
  2  3  1  0
  3  4  2  0
  3 23  1  0
  4  5  1  0
  4 24  1  0
  5  6  2  0
  7  6  1  0
 23  7  2  0
  8  9  1  6
 10  9  2  0
  9 15  1  0
 10 11  1  0
 12 10  1  0
 12 13  2  0
 16 12  1  0
 13 14  1  0
 14 15  2  0
 16 17  2  0
 18 16  1  0
 19 18  1  0
 20 19  1  6
 20 21  2  0
 20 22  2  0
 24 25  2  0
M  END
$$$$
