
     RDKit          3D

 25 27  0  0  0  0  0  0  0  0999 V2000
   15.8622   23.3901   20.6957 C   0  0  0  0  0  0  0  0  0  0  0  0
   16.8028   22.3778   20.7282 C   0  0  0  0  0  0  0  0  0  0  0  0
   17.3617   21.8756   19.5626 C   0  0  0  0  0  0  0  0  0  0  0  0
   17.0014   22.3661   18.3237 C   0  0  0  0  0  0  0  0  0  0  0  0
   17.5614   21.8625   17.1616 C   0  0  0  0  0  0  0  0  0  0  0  0
   18.5005   20.8521   17.1910 C   0  0  0  0  0  0  0  0  0  0  0  0
   18.8613   20.3611   18.4289 C   0  0  0  0  0  0  0  0  0  0  0  0
   18.8377   30.0502   19.3406 C   0  0  0  0  0  0  0  0  0  0  0  0
   19.2868   29.1597   20.4264 C   0  0  0  0  0  0  0  0  0  0  0  0
   18.3790   28.3359   21.0819 C   0  0  0  0  0  0  0  0  0  0  0  0
   17.0694   28.3689   20.6758 F   0  0  0  0  0  0  0  0  0  0  0  0
   18.8104   27.5142   22.0893 C   0  0  0  0  0  0  0  0  0  0  0  0
   20.1566   27.5168   22.4411 C   0  0  0  0  0  0  0  0  0  0  0  0
   21.0534   28.3206   21.8039 C   0  0  0  0  0  0  0  0  0  0  0  0
   20.6142   29.1441   20.7933 C   0  0  0  0  0  0  0  0  0  0  0  0
   17.9514   26.6428   22.8460 C   0  0  0  0  0  0  0  0  0  0  0  0
   17.9383   26.7538   24.1171 O   0  0  0  0  0  0  0  0  0  0  0  0
   17.1354   25.6850   22.2142 N   0  0  0  0  0  0  0  0  0  0  0  0
   16.3604   24.8492   23.0488 N   0  0  0  0  0  0  0  0  0  0  0  0
   15.1409   24.0411   22.1484 S   0  0  1  0  0  6  0  0  0  0  0  0
   14.0335   24.9947   21.8042 O   0  0  0  0  0  0  0  0  0  0  0  0
   14.5231   22.9168   22.9279 O   0  0  0  0  0  0  0  0  0  0  0  0
   18.3014   20.8652   19.5847 C   0  0  0  0  0  0  0  0  0  0  0  0
   16.0618   23.3767   18.2991 C   0  0  0  0  0  0  0  0  0  0  0  0
   15.5028   23.8798   19.4556 C   0  0  0  0  0  0  0  0  0  0  0  0
  1  2  2  0
 20  1  1  0
  1 25  1  0
  2  3  1  0
  3  4  2  0
  3 23  1  0
  4  5  1  0
  4 24  1  0
  5  6  2  0
  7  6  1  0
 23  7  2  0
  8  9  1  6
 10  9  2  0
  9 15  1  0
 10 11  1  0
 12 10  1  0
 12 13  2  0
 16 12  1  0
 13 14  1  0
 14 15  2  0
 16 17  2  0
 18 16  1  0
 19 18  1  0
 20 19  1  1
 20 21  2  0
 20 22  2  0
 24 25  2  0
M  END
$$$$
