
     RDKit          3D

 25 27  0  0  0  0  0  0  0  0999 V2000
   16.6289   25.8379   28.1149 C   0  0  0  0  0  0  0  0  0  0  0  0
   16.4417   26.6525   29.2157 C   0  0  0  0  0  0  0  0  0  0  0  0
   15.2877   27.4066   29.3666 C   0  0  0  0  0  0  0  0  0  0  0  0
   14.2799   27.3742   28.4238 C   0  0  0  0  0  0  0  0  0  0  0  0
   13.1288   28.1284   28.5773 C   0  0  0  0  0  0  0  0  0  0  0  0
   12.9392   28.9423   29.6751 C   0  0  0  0  0  0  0  0  0  0  0  0
   13.9460   28.9754   30.6181 C   0  0  0  0  0  0  0  0  0  0  0  0
   16.2672   27.7295   21.5210 C   0  0  0  0  0  0  0  0  0  0  0  0
   17.3859   28.2513   22.3272 C   0  0  0  0  0  0  0  0  0  0  0  0
   17.7280   27.6463   23.5311 C   0  0  0  0  0  0  0  0  0  0  0  0
   17.0066   26.5497   23.9288 F   0  0  0  0  0  0  0  0  0  0  0  0
   18.7693   28.1422   24.2699 C   0  0  0  0  0  0  0  0  0  0  0  0
   19.4715   29.2480   23.8006 C   0  0  0  0  0  0  0  0  0  0  0  0
   19.1433   29.8471   22.6217 C   0  0  0  0  0  0  0  0  0  0  0  0
   18.0962   29.3449   21.8844 C   0  0  0  0  0  0  0  0  0  0  0  0
   19.1886   27.6069   25.5376 C   0  0  0  0  0  0  0  0  0  0  0  0
   19.8098   28.3732   26.3471 O   0  0  0  0  0  0  0  0  0  0  0  0
   18.9258   26.2704   25.8943 N   0  0  0  0  0  0  0  0  0  0  0  0
   19.2887   25.8697   27.1995 N   0  0  0  0  0  0  0  0  0  0  0  0
   18.0731   24.8778   27.8988 S   0  0  1  0  0  6  0  0  0  0  0  0
   18.5441   24.3321   29.2159 O   0  0  0  0  0  0  0  0  0  0  0  0
   17.7451   23.6988   27.0294 O   0  0  0  0  0  0  0  0  0  0  0  0
   15.0915   28.2227   30.4620 C   0  0  0  0  0  0  0  0  0  0  0  0
   14.4739   26.5586   27.3274 C   0  0  0  0  0  0  0  0  0  0  0  0
   15.6199   25.8065   27.1726 C   0  0  0  0  0  0  0  0  0  0  0  0
  1  2  2  0
 20  1  1  0
  1 25  1  0
  2  3  1  0
  3  4  2  0
  3 23  1  0
  4  5  1  0
  4 24  1  0
  5  6  2  0
  7  6  1  0
 23  7  2  0
  8  9  1  6
 10  9  2  0
  9 15  1  0
 10 11  1  0
 12 10  1  0
 12 13  2  0
 16 12  1  0
 13 14  1  0
 14 15  2  0
 16 17  2  0
 18 16  1  0
 19 18  1  0
 20 19  1  6
 20 21  2  0
 20 22  2  0
 24 25  2  0
M  END
$$$$
