
     RDKit          3D

 25 27  0  0  0  0  0  0  0  0999 V2000
   19.7481   28.6335   23.7991 C   0  0  0  0  0  0  0  0  0  0  0  0
   19.5981   28.7037   22.4269 C   0  0  0  0  0  0  0  0  0  0  0  0
   20.6946   28.6621   21.5788 C   0  0  0  0  0  0  0  0  0  0  0  0
   21.9793   28.5490   22.0706 C   0  0  0  0  0  0  0  0  0  0  0  0
   23.0722   28.5078   21.2212 C   0  0  0  0  0  0  0  0  0  0  0  0
   22.9254   28.5776   19.8511 C   0  0  0  0  0  0  0  0  0  0  0  0
   21.6415   28.6906   19.3584 C   0  0  0  0  0  0  0  0  0  0  0  0
   16.4566   23.5584   20.3361 C   0  0  0  0  0  0  0  0  0  0  0  0
   15.7483   24.1146   21.5035 C   0  0  0  0  0  0  0  0  0  0  0  0
   16.4170   24.9292   22.4100 C   0  0  0  0  0  0  0  0  0  0  0  0
   17.7390   25.2069   22.1730 F   0  0  0  0  0  0  0  0  0  0  0  0
   15.7464   25.4384   23.4903 C   0  0  0  0  0  0  0  0  0  0  0  0
   14.4003   25.1313   23.6630 C   0  0  0  0  0  0  0  0  0  0  0  0
   13.7369   24.3340   22.7795 C   0  0  0  0  0  0  0  0  0  0  0  0
   14.4158   23.8251   21.6967 C   0  0  0  0  0  0  0  0  0  0  0  0
   16.3491   26.2695   24.4981 C   0  0  0  0  0  0  0  0  0  0  0  0
   15.6084   27.0935   25.1311 O   0  0  0  0  0  0  0  0  0  0  0  0
   17.7232   26.1870   24.7936 N   0  0  0  0  0  0  0  0  0  0  0  0
   18.2521   27.1598   25.6710 N   0  0  0  0  0  0  0  0  0  0  0  0
   18.3846   28.6845   24.8911 S   0  0  1  0  0  6  0  0  0  0  0  0
   18.5663   29.7730   25.9092 O   0  0  0  0  0  0  0  0  0  0  0  0
   17.1491   29.0208   24.1075 O   0  0  0  0  0  0  0  0  0  0  0  0
   20.5550   28.7314   20.2076 C   0  0  0  0  0  0  0  0  0  0  0  0
   22.1214   28.4795   23.4417 C   0  0  0  0  0  0  0  0  0  0  0  0
   21.0340   28.5204   24.2896 C   0  0  0  0  0  0  0  0  0  0  0  0
  1  2  2  0
 20  1  1  0
  1 25  1  0
  2  3  1  0
  3  4  2  0
  3 23  1  0
  4  5  1  0
  4 24  1  0
  5  6  2  0
  7  6  1  0
 23  7  2  0
  8  9  1  6
 10  9  2  0
  9 15  1  0
 10 11  1  0
 12 10  1  0
 12 13  2  0
 16 12  1  0
 13 14  1  0
 14 15  2  0
 16 17  2  0
 18 16  1  0
 19 18  1  0
 20 19  1  1
 20 21  2  0
 20 22  2  0
 24 25  2  0
M  END
$$$$
