
     RDKit          3D

 25 27  0  0  0  0  0  0  0  0999 V2000
   18.1294   20.3912   38.5656 C   0  0  0  0  0  0  0  0  0  0  0  0
   17.0506   20.8975   39.2678 C   0  0  0  0  0  0  0  0  0  0  0  0
   16.5945   22.1587   38.9626 C   0  0  0  0  0  0  0  0  0  0  0  0
   17.2074   22.8854   37.9804 C   0  0  0  0  0  0  0  0  0  0  0  0
   16.7135   24.1573   37.7039 C   0  0  0  0  0  0  0  0  0  0  0  0
   15.6423   24.6559   38.4035 C   0  0  0  0  0  0  0  0  0  0  0  0
   15.0564   23.8941   39.3809 C   0  0  0  0  0  0  0  0  0  0  0  0
   19.6334   14.5959   31.3485 C   0  0  0  0  0  0  0  0  0  0  0  0
   19.5518   15.8557   32.1228 C   0  0  0  0  0  0  0  0  0  0  0  0
   18.9217   15.8940   33.3737 C   0  0  0  0  0  0  0  0  0  0  0  0
   18.3949   14.7502   33.8456 F   0  0  0  0  0  0  0  0  0  0  0  0
   18.8202   17.0359   34.1294 C   0  0  0  0  0  0  0  0  0  0  0  0
   19.3945   18.1828   33.5659 C   0  0  0  0  0  0  0  0  0  0  0  0
   20.0126   18.1443   32.3383 C   0  0  0  0  0  0  0  0  0  0  0  0
   20.1078   16.9907   31.5893 C   0  0  0  0  0  0  0  0  0  0  0  0
   18.1805   17.1366   35.4299 C   0  0  0  0  0  0  0  0  0  0  0  0
   17.0913   16.5018   35.5946 O   0  0  0  0  0  0  0  0  0  0  0  0
   18.6354   17.8653   36.5394 N   0  0  0  0  0  0  0  0  0  0  0  0
   17.9925   17.7117   37.7701 N   0  0  0  0  0  0  0  0  0  0  0  0
   18.7797   18.7873   38.8890 S   0  0  1  0  0  6  0  0  0  0  0  0
   20.2648   18.8160   38.6575 O   0  0  0  0  0  0  0  0  0  0  0  0
   18.4378   18.4412   40.3010 O   0  0  0  0  0  0  0  0  0  0  0  0
   15.5197   22.6340   39.6790 C   0  0  0  0  0  0  0  0  0  0  0  0
   18.2825   22.4020   37.2685 C   0  0  0  0  0  0  0  0  0  0  0  0
   18.7364   21.1297   37.5821 C   0  0  0  0  0  0  0  0  0  0  0  0
  1  2  2  0
 20  1  1  0
  1 25  1  0
  2  3  1  0
  3  4  2  0
  3 23  1  0
  4  5  1  0
  4 24  1  0
  5  6  2  0
  7  6  1  0
 23  7  2  0
  9  8  1  0
 10  9  2  0
  9 15  1  0
 10 11  1  0
 12 10  1  0
 12 13  2  0
 16 12  1  0
 13 14  1  0
 14 15  2  0
 16 17  2  0
 18 16  1  0
 19 18  1  0
 20 19  1  6
 20 21  2  0
 20 22  2  0
 24 25  2  0
M  END
$$$$
