
     RDKit          3D

 25 27  0  0  0  0  0  0  0  0999 V2000
   18.0347   25.8271   23.2177 C   0  0  0  0  0  0  0  0  0  0  0  0
   18.0094   26.6540   24.3249 C   0  0  0  0  0  0  0  0  0  0  0  0
   18.4402   27.9702   24.2516 C   0  0  0  0  0  0  0  0  0  0  0  0
   18.9115   28.5071   23.0706 C   0  0  0  0  0  0  0  0  0  0  0  0
   19.3410   29.8217   23.0006 C   0  0  0  0  0  0  0  0  0  0  0  0
   19.3167   30.6495   24.1042 C   0  0  0  0  0  0  0  0  0  0  0  0
   18.8458   30.1137   25.2853 C   0  0  0  0  0  0  0  0  0  0  0  0
   13.4706   22.3051   16.2959 C   0  0  0  0  0  0  0  0  0  0  0  0
   13.7778   23.4131   17.2188 C   0  0  0  0  0  0  0  0  0  0  0  0
   13.9850   23.1659   18.5710 C   0  0  0  0  0  0  0  0  0  0  0  0
   13.9107   21.8677   19.0073 F   0  0  0  0  0  0  0  0  0  0  0  0
   14.2689   24.2051   19.4168 C   0  0  0  0  0  0  0  0  0  0  0  0
   14.3466   25.4971   18.9062 C   0  0  0  0  0  0  0  0  0  0  0  0
   14.1453   25.7486   17.5824 C   0  0  0  0  0  0  0  0  0  0  0  0
   13.8598   24.7010   16.7378 C   0  0  0  0  0  0  0  0  0  0  0  0
   14.4760   24.0617   20.8332 C   0  0  0  0  0  0  0  0  0  0  0  0
   13.5153   23.6201   21.5477 O   0  0  0  0  0  0  0  0  0  0  0  0
   15.7053   24.3942   21.4337 N   0  0  0  0  0  0  0  0  0  0  0  0
   15.8487   24.1043   22.8089 N   0  0  0  0  0  0  0  0  0  0  0  0
   17.4990   24.1647   23.2816 S   0  0  1  0  0  6  0  0  0  0  0  0
   18.3304   23.3086   22.3706 O   0  0  0  0  0  0  0  0  0  0  0  0
   17.7007   23.6444   24.6752 O   0  0  0  0  0  0  0  0  0  0  0  0
   18.4187   28.8035   25.3514 C   0  0  0  0  0  0  0  0  0  0  0  0
   18.9339   27.6755   21.9693 C   0  0  0  0  0  0  0  0  0  0  0  0
   18.5065   26.3656   22.0369 C   0  0  0  0  0  0  0  0  0  0  0  0
  1  2  2  0
 20  1  1  0
  1 25  1  0
  2  3  1  0
  3  4  2  0
  3 23  1  0
  4  5  1  0
  4 24  1  0
  5  6  2  0
  7  6  1  0
 23  7  2  0
  8  9  1  6
 10  9  2  0
  9 15  1  0
 10 11  1  0
 12 10  1  0
 12 13  2  0
 16 12  1  0
 13 14  1  0
 14 15  2  0
 16 17  2  0
 18 16  1  0
 19 18  1  0
 20 19  1  6
 20 21  2  0
 20 22  2  0
 24 25  2  0
M  END
$$$$
