
     RDKit          3D

 25 27  0  0  0  0  0  0  0  0999 V2000
   17.4477   26.2795   23.2983 C   0  0  0  0  0  0  0  0  0  0  0  0
   16.7025   25.2079   22.8402 C   0  0  0  0  0  0  0  0  0  0  0  0
   17.2282   24.4103   21.8506 C   0  0  0  0  0  0  0  0  0  0  0  0
   18.4659   24.6853   21.3399 C   0  0  0  0  0  0  0  0  0  0  0  0
   18.9599   23.8524   20.3397 C   0  0  0  0  0  0  0  0  0  0  0  0
   18.2167   22.7898   19.8880 C   0  0  0  0  0  0  0  0  0  0  0  0
   16.9797   22.5491   20.4272 C   0  0  0  0  0  0  0  0  0  0  0  0
   17.0367   33.6696   18.3851 C   0  0  0  0  0  0  0  0  0  0  0  0
   17.5978   32.6301   19.2783 C   0  0  0  0  0  0  0  0  0  0  0  0
   16.7916   31.9755   20.2190 C   0  0  0  0  0  0  0  0  0  0  0  0
   15.4940   32.3230   20.2825 F   0  0  0  0  0  0  0  0  0  0  0  0
   17.2641   31.0060   21.0687 C   0  0  0  0  0  0  0  0  0  0  0  0
   18.6256   30.7035   20.9379 C   0  0  0  0  0  0  0  0  0  0  0  0
   19.4161   31.3463   20.0146 C   0  0  0  0  0  0  0  0  0  0  0  0
   18.9292   32.3184   19.1668 C   0  0  0  0  0  0  0  0  0  0  0  0
   16.4781   30.2942   22.0619 C   0  0  0  0  0  0  0  0  0  0  0  0
   15.2990   30.7150   22.2832 O   0  0  0  0  0  0  0  0  0  0  0  0
   16.8792   29.1798   22.8143 N   0  0  0  0  0  0  0  0  0  0  0  0
   15.9971   28.6301   23.7477 N   0  0  0  0  0  0  0  0  0  0  0  0
   16.8542   27.3528   24.5616 S   0  0  1  0  0  6  0  0  0  0  0  0
   15.9360   26.5733   25.4612 O   0  0  0  0  0  0  0  0  0  0  0  0
   18.0426   27.8827   25.2947 O   0  0  0  0  0  0  0  0  0  0  0  0
   16.4624   23.3524   21.4165 C   0  0  0  0  0  0  0  0  0  0  0  0
   19.2255   25.7462   21.7804 C   0  0  0  0  0  0  0  0  0  0  0  0
   18.6886   26.5456   22.7782 C   0  0  0  0  0  0  0  0  0  0  0  0
  1  2  2  0
 20  1  1  0
  1 25  1  0
  2  3  1  0
  3  4  2  0
  3 23  1  0
  4  5  1  0
  4 24  1  0
  5  6  2  0
  7  6  1  0
 23  7  2  0
  9  8  1  0
 10  9  2  0
  9 15  1  0
 10 11  1  0
 12 10  1  0
 12 13  2  0
 16 12  1  0
 13 14  1  0
 14 15  2  0
 16 17  2  0
 18 16  1  0
 19 18  1  0
 20 19  1  6
 20 21  2  0
 20 22  2  0
 24 25  2  0
M  END
$$$$
