
     RDKit          3D

 25 27  0  0  0  0  0  0  0  0999 V2000
   16.4590   24.8595   22.2173 C   0  0  0  0  0  0  0  0  0  0  0  0
   17.2944   25.5802   21.3828 C   0  0  0  0  0  0  0  0  0  0  0  0
   18.0497   26.5969   21.9189 C   0  0  0  0  0  0  0  0  0  0  0  0
   17.9649   26.8773   23.2541 C   0  0  0  0  0  0  0  0  0  0  0  0
   18.7468   27.9145   23.7550 C   0  0  0  0  0  0  0  0  0  0  0  0
   19.5746   28.6272   22.9228 C   0  0  0  0  0  0  0  0  0  0  0  0
   19.6299   28.3135   21.5897 C   0  0  0  0  0  0  0  0  0  0  0  0
   11.6630   28.4331   16.8471 C   0  0  0  0  0  0  0  0  0  0  0  0
   12.0672   28.5381   18.2679 C   0  0  0  0  0  0  0  0  0  0  0  0
   12.3224   27.3915   19.0319 C   0  0  0  0  0  0  0  0  0  0  0  0
   12.1878   26.1955   18.4317 F   0  0  0  0  0  0  0  0  0  0  0  0
   12.6994   27.4361   20.3514 C   0  0  0  0  0  0  0  0  0  0  0  0
   12.8164   28.7198   20.9001 C   0  0  0  0  0  0  0  0  0  0  0  0
   12.5659   29.8444   20.1498 C   0  0  0  0  0  0  0  0  0  0  0  0
   12.1878   29.7859   18.8253 C   0  0  0  0  0  0  0  0  0  0  0  0
   12.9769   26.2843   21.1922 C   0  0  0  0  0  0  0  0  0  0  0  0
   12.5836   26.3357   22.4001 O   0  0  0  0  0  0  0  0  0  0  0  0
   13.6391   25.1057   20.8161 N   0  0  0  0  0  0  0  0  0  0  0  0
   13.8095   24.0861   21.7559 N   0  0  0  0  0  0  0  0  0  0  0  0
   15.4567   23.5420   21.6179 S   0  0  1  0  0  6  0  0  0  0  0  0
   15.8202   23.2769   20.1835 O   0  0  0  0  0  0  0  0  0  0  0  0
   15.7075   22.3555   22.4896 O   0  0  0  0  0  0  0  0  0  0  0  0
   18.8707   27.2950   21.0628 C   0  0  0  0  0  0  0  0  0  0  0  0
   17.1406   26.1736   24.1036 C   0  0  0  0  0  0  0  0  0  0  0  0
   16.3822   25.1501   23.5555 C   0  0  0  0  0  0  0  0  0  0  0  0
  1  2  2  0
 20  1  1  0
  1 25  1  0
  2  3  1  0
  3  4  2  0
  3 23  1  0
  4  5  1  0
  4 24  1  0
  5  6  2  0
  7  6  1  0
 23  7  2  0
  9  8  1  0
 10  9  2  0
  9 15  1  0
 10 11  1  0
 12 10  1  0
 12 13  2  0
 16 12  1  0
 13 14  1  0
 14 15  2  0
 16 17  2  0
 18 16  1  0
 19 18  1  0
 20 19  1  6
 20 21  2  0
 20 22  2  0
 24 25  2  0
M  END
$$$$
