
     RDKit          3D

 25 27  0  0  0  0  0  0  0  0999 V2000
   19.2462   27.5233   22.8076 C   0  0  0  0  0  0  0  0  0  0  0  0
   19.2386   28.8610   23.1553 C   0  0  0  0  0  0  0  0  0  0  0  0
   19.8649   29.8144   22.3665 C   0  0  0  0  0  0  0  0  0  0  0  0
   20.5208   29.4659   21.2031 C   0  0  0  0  0  0  0  0  0  0  0  0
   21.1453   30.4202   20.4175 C   0  0  0  0  0  0  0  0  0  0  0  0
   21.1392   31.7562   20.7621 C   0  0  0  0  0  0  0  0  0  0  0  0
   20.4838   32.1055   21.9249 C   0  0  0  0  0  0  0  0  0  0  0  0
   13.1179   23.5738   17.5772 C   0  0  0  0  0  0  0  0  0  0  0  0
   14.3768   23.5433   18.3438 C   0  0  0  0  0  0  0  0  0  0  0  0
   14.4366   24.0890   19.6209 C   0  0  0  0  0  0  0  0  0  0  0  0
   13.2916   24.6354   20.1422 F   0  0  0  0  0  0  0  0  0  0  0  0
   15.6131   24.0541   20.3213 C   0  0  0  0  0  0  0  0  0  0  0  0
   16.7343   23.4693   19.7407 C   0  0  0  0  0  0  0  0  0  0  0  0
   16.6848   22.9317   18.4897 C   0  0  0  0  0  0  0  0  0  0  0  0
   15.5005   22.9703   17.7909 C   0  0  0  0  0  0  0  0  0  0  0  0
   15.7883   24.6103   21.6364 C   0  0  0  0  0  0  0  0  0  0  0  0
   14.9452   24.3050   22.5443 O   0  0  0  0  0  0  0  0  0  0  0  0
   16.8615   25.4722   21.9330 N   0  0  0  0  0  0  0  0  0  0  0  0
   16.8627   26.0833   23.2067 N   0  0  0  0  0  0  0  0  0  0  0  0
   18.4662   26.3008   23.7831 S   0  0  1  0  0  6  0  0  0  0  0  0
   19.2233   25.0064   23.7091 O   0  0  0  0  0  0  0  0  0  0  0  0
   18.4894   26.7393   25.2186 O   0  0  0  0  0  0  0  0  0  0  0  0
   19.8628   31.1522   22.7051 C   0  0  0  0  0  0  0  0  0  0  0  0
   20.5243   28.1285   20.8624 C   0  0  0  0  0  0  0  0  0  0  0  0
   19.9028   27.1762   21.6434 C   0  0  0  0  0  0  0  0  0  0  0  0
  1  2  2  0
 20  1  1  0
  1 25  1  0
  2  3  1  0
  3  4  2  0
  3 23  1  0
  4  5  1  0
  4 24  1  0
  5  6  2  0
  7  6  1  0
 23  7  2  0
  8  9  1  6
 10  9  2  0
  9 15  1  0
 10 11  1  0
 12 10  1  0
 12 13  2  0
 16 12  1  0
 13 14  1  0
 14 15  2  0
 16 17  2  0
 18 16  1  0
 19 18  1  0
 20 19  1  6
 20 21  2  0
 20 22  2  0
 24 25  2  0
M  END
$$$$
