
     RDKit          3D

 25 27  0  0  0  0  0  0  0  0999 V2000
   18.7875   19.1482   35.6200 C   0  0  0  0  0  0  0  0  0  0  0  0
   17.7118   18.7297   34.8576 C   0  0  0  0  0  0  0  0  0  0  0  0
   16.6984   18.0297   35.4698 C   0  0  0  0  0  0  0  0  0  0  0  0
   16.7682   17.7608   36.8082 C   0  0  0  0  0  0  0  0  0  0  0  0
   15.7209   17.0498   37.3874 C   0  0  0  0  0  0  0  0  0  0  0  0
   14.6550   16.6364   36.6267 C   0  0  0  0  0  0  0  0  0  0  0  0
   14.6241   16.9269   35.2876 C   0  0  0  0  0  0  0  0  0  0  0  0
   21.3785   11.7186   32.9045 C   0  0  0  0  0  0  0  0  0  0  0  0
   20.9157   13.1024   32.6513 C   0  0  0  0  0  0  0  0  0  0  0  0
   21.3573   14.1677   33.4472 C   0  0  0  0  0  0  0  0  0  0  0  0
   22.2137   13.8907   34.4465 F   0  0  0  0  0  0  0  0  0  0  0  0
   20.9579   15.4669   33.2530 C   0  0  0  0  0  0  0  0  0  0  0  0
   20.0657   15.6694   32.1921 C   0  0  0  0  0  0  0  0  0  0  0  0
   19.6328   14.6235   31.4115 C   0  0  0  0  0  0  0  0  0  0  0  0
   20.0417   13.3230   31.6171 C   0  0  0  0  0  0  0  0  0  0  0  0
   21.3808   16.6100   34.0436 C   0  0  0  0  0  0  0  0  0  0  0  0
   22.1453   16.3833   35.0338 O   0  0  0  0  0  0  0  0  0  0  0  0
   21.0359   17.9540   33.8347 N   0  0  0  0  0  0  0  0  0  0  0  0
   21.4411   18.9172   34.7619 N   0  0  0  0  0  0  0  0  0  0  0  0
   20.1288   20.0491   34.9206 S   0  0  1  0  0  6  0  0  0  0  0  0
   19.7043   20.5766   33.5784 O   0  0  0  0  0  0  0  0  0  0  0  0
   20.4757   21.1471   35.8717 O   0  0  0  0  0  0  0  0  0  0  0  0
   15.6423   17.6274   34.6843 C   0  0  0  0  0  0  0  0  0  0  0  0
   17.8289   18.1673   37.5868 C   0  0  0  0  0  0  0  0  0  0  0  0
   18.8466   18.8725   36.9623 C   0  0  0  0  0  0  0  0  0  0  0  0
  1  2  2  0
 20  1  1  0
  1 25  1  0
  2  3  1  0
  3  4  2  0
  3 23  1  0
  4  5  1  0
  4 24  1  0
  5  6  2  0
  7  6  1  0
 23  7  2  0
  9  8  1  0
 10  9  2  0
  9 15  1  0
 10 11  1  0
 12 10  1  0
 12 13  2  0
 16 12  1  0
 13 14  1  0
 14 15  2  0
 16 17  2  0
 18 16  1  0
 19 18  1  0
 20 19  1  6
 20 21  2  0
 20 22  2  0
 24 25  2  0
M  END
$$$$
