
     RDKit          3D

 25 27  0  0  0  0  0  0  0  0999 V2000
   19.3786   26.9510   24.3265 C   0  0  0  0  0  0  0  0  0  0  0  0
   20.4501   26.3992   25.0055 C   0  0  0  0  0  0  0  0  0  0  0  0
   21.6525   26.2676   24.3507 C   0  0  0  0  0  0  0  0  0  0  0  0
   21.7698   26.6795   23.0526 C   0  0  0  0  0  0  0  0  0  0  0  0
   23.0046   26.5279   22.4280 C   0  0  0  0  0  0  0  0  0  0  0  0
   24.0655   25.9796   23.1059 C   0  0  0  0  0  0  0  0  0  0  0  0
   23.9053   25.5794   24.4070 C   0  0  0  0  0  0  0  0  0  0  0  0
   15.0778   22.1560   18.5157 C   0  0  0  0  0  0  0  0  0  0  0  0
   15.2138   23.4727   19.1798 C   0  0  0  0  0  0  0  0  0  0  0  0
   15.4238   23.5651   20.5621 C   0  0  0  0  0  0  0  0  0  0  0  0
   15.4973   22.4198   21.2631 F   0  0  0  0  0  0  0  0  0  0  0  0
   15.5561   24.7609   21.2238 C   0  0  0  0  0  0  0  0  0  0  0  0
   15.4672   25.9054   20.4209 C   0  0  0  0  0  0  0  0  0  0  0  0
   15.2611   25.8139   19.0645 C   0  0  0  0  0  0  0  0  0  0  0  0
   15.1298   24.6065   18.4120 C   0  0  0  0  0  0  0  0  0  0  0  0
   15.7749   24.9190   22.6514 C   0  0  0  0  0  0  0  0  0  0  0  0
   15.2019   24.0882   23.4246 O   0  0  0  0  0  0  0  0  0  0  0  0
   16.5577   25.8985   23.2812 N   0  0  0  0  0  0  0  0  0  0  0  0
   16.8642   25.7627   24.6374 N   0  0  0  0  0  0  0  0  0  0  0  0
   17.8034   27.1576   25.0852 S   0  0  1  0  0  6  0  0  0  0  0  0
   17.9936   27.2258   26.5749 O   0  0  0  0  0  0  0  0  0  0  0  0
   17.2028   28.4106   24.5376 O   0  0  0  0  0  0  0  0  0  0  0  0
   22.6990   25.7150   25.0533 C   0  0  0  0  0  0  0  0  0  0  0  0
   20.7172   27.2315   22.3570 C   0  0  0  0  0  0  0  0  0  0  0  0
   19.5083   27.3608   23.0240 C   0  0  0  0  0  0  0  0  0  0  0  0
  1  2  2  0
 20  1  1  0
  1 25  1  0
  2  3  1  0
  3  4  2  0
  3 23  1  0
  4  5  1  0
  4 24  1  0
  5  6  2  0
  7  6  1  0
 23  7  2  0
  9  8  1  0
 10  9  2  0
  9 15  1  0
 10 11  1  0
 12 10  1  0
 12 13  2  0
 16 12  1  0
 13 14  1  0
 14 15  2  0
 16 17  2  0
 18 16  1  0
 19 18  1  0
 20 19  1  1
 20 21  2  0
 20 22  2  0
 24 25  2  0
M  END
$$$$
