
     RDKit          3D

 25 27  0  0  0  0  0  0  0  0999 V2000
    9.5473   19.4092   20.9002 C   0  0  0  0  0  0  0  0  0  0  0  0
   10.6871   18.8178   21.4116 C   0  0  0  0  0  0  0  0  0  0  0  0
   10.7451   18.3822   22.7270 C   0  0  0  0  0  0  0  0  0  0  0  0
    9.6674   18.5216   23.5781 C   0  0  0  0  0  0  0  0  0  0  0  0
    9.7283   18.0856   24.8910 C   0  0  0  0  0  0  0  0  0  0  0  0
   10.8647   17.4949   25.4042 C   0  0  0  0  0  0  0  0  0  0  0  0
   11.9426   17.3551   24.5542 C   0  0  0  0  0  0  0  0  0  0  0  0
   15.1216   24.6316   18.2841 C   0  0  0  0  0  0  0  0  0  0  0  0
   15.2620   23.1744   18.4592 C   0  0  0  0  0  0  0  0  0  0  0  0
   14.1479   22.3463   18.3869 C   0  0  0  0  0  0  0  0  0  0  0  0
   12.9305   22.9249   18.1332 F   0  0  0  0  0  0  0  0  0  0  0  0
   14.2932   20.9943   18.5522 C   0  0  0  0  0  0  0  0  0  0  0  0
   15.5598   20.4696   18.7901 C   0  0  0  0  0  0  0  0  0  0  0  0
   16.6573   21.2737   18.8623 C   0  0  0  0  0  0  0  0  0  0  0  0
   16.5050   22.6307   18.6961 C   0  0  0  0  0  0  0  0  0  0  0  0
   13.2050   20.0540   18.5203 C   0  0  0  0  0  0  0  0  0  0  0  0
   13.4768   18.8073   18.5238 O   0  0  0  0  0  0  0  0  0  0  0  0
   11.8641   20.4824   18.4879 N   0  0  0  0  0  0  0  0  0  0  0  0
   10.8703   19.4807   18.4186 N   0  0  0  0  0  0  0  0  0  0  0  0
    9.4469   19.9681   19.2474 S   0  0  1  0  0  6  0  0  0  0  0  0
    8.2332   19.3978   18.5720 O   0  0  0  0  0  0  0  0  0  0  0  0
    9.2848   21.4605   19.2500 O   0  0  0  0  0  0  0  0  0  0  0  0
   11.8784   17.7906   23.2467 C   0  0  0  0  0  0  0  0  0  0  0  0
    8.5328   19.1130   23.0605 C   0  0  0  0  0  0  0  0  0  0  0  0
    8.4700   19.5480   21.7529 C   0  0  0  0  0  0  0  0  0  0  0  0
  1  2  2  0
 20  1  1  0
  1 25  1  0
  2  3  1  0
  3  4  2  0
  3 23  1  0
  4  5  1  0
  4 24  1  0
  5  6  2  0
  7  6  1  0
 23  7  2  0
  8  9  1  6
 10  9  2  0
  9 15  1  0
 10 11  1  0
 12 10  1  0
 12 13  2  0
 16 12  1  0
 13 14  1  0
 14 15  2  0
 16 17  2  0
 18 16  1  0
 19 18  1  0
 20 19  1  6
 20 21  2  0
 20 22  2  0
 24 25  2  0
M  END
$$$$
