
     RDKit          3D

 25 27  0  0  0  0  0  0  0  0999 V2000
    5.2591   13.9785   15.4885 C   0  0  0  0  0  0  0  0  0  0  0  0
    5.6499   14.3011   14.2025 C   0  0  0  0  0  0  0  0  0  0  0  0
    4.7602   14.2350   13.1408 C   0  0  0  0  0  0  0  0  0  0  0  0
    3.4492   13.8445   13.3253 C   0  0  0  0  0  0  0  0  0  0  0  0
    2.5632   13.7796   12.2631 C   0  0  0  0  0  0  0  0  0  0  0  0
    2.9505   14.1011   10.9784 C   0  0  0  0  0  0  0  0  0  0  0  0
    4.2609   14.4915   10.7929 C   0  0  0  0  0  0  0  0  0  0  0  0
    9.4610   20.4095   20.3965 C   0  0  0  0  0  0  0  0  0  0  0  0
    9.4399   18.9439   20.5558 C   0  0  0  0  0  0  0  0  0  0  0  0
    9.0305   18.1279   19.5075 C   0  0  0  0  0  0  0  0  0  0  0  0
    8.6672   18.7272   18.3285 F   0  0  0  0  0  0  0  0  0  0  0  0
    9.0153   16.7679   19.6699 C   0  0  0  0  0  0  0  0  0  0  0  0
    9.4127   16.2229   20.8870 C   0  0  0  0  0  0  0  0  0  0  0  0
    9.8157   17.0150   21.9197 C   0  0  0  0  0  0  0  0  0  0  0  0
    9.8283   18.3802   21.7508 C   0  0  0  0  0  0  0  0  0  0  0  0
    8.5873   15.8375   18.6597 C   0  0  0  0  0  0  0  0  0  0  0  0
    9.1661   14.7022   18.5926 O   0  0  0  0  0  0  0  0  0  0  0  0
    7.5532   16.1551   17.7586 N   0  0  0  0  0  0  0  0  0  0  0  0
    7.4455   15.3591   16.5964 N   0  0  0  0  0  0  0  0  0  0  0  0
    6.3591   14.0519   16.8446 S   0  0  1  0  0  6  0  0  0  0  0  0
    5.6017   14.2441   18.1266 O   0  0  0  0  0  0  0  0  0  0  0  0
    7.0796   12.7396   16.9551 O   0  0  0  0  0  0  0  0  0  0  0  0
    5.1409   14.5551   11.8535 C   0  0  0  0  0  0  0  0  0  0  0  0
    3.0662   13.5240   14.6119 C   0  0  0  0  0  0  0  0  0  0  0  0
    3.9473   13.5880   15.6715 C   0  0  0  0  0  0  0  0  0  0  0  0
  1  2  2  0
 20  1  1  0
  1 25  1  0
  2  3  1  0
  3  4  2  0
  3 23  1  0
  4  5  1  0
  4 24  1  0
  5  6  2  0
  7  6  1  0
 23  7  2  0
  8  9  1  6
 10  9  2  0
  9 15  1  0
 10 11  1  0
 12 10  1  0
 12 13  2  0
 16 12  1  0
 13 14  1  0
 14 15  2  0
 16 17  2  0
 18 16  1  0
 19 18  1  0
 20 19  1  6
 20 21  2  0
 20 22  2  0
 24 25  2  0
M  END
$$$$
