
     RDKit          3D

 25 27  0  0  0  0  0  0  0  0999 V2000
    8.7920   17.8410   18.3876 C   0  0  0  0  0  0  0  0  0  0  0  0
    7.6154   17.2008   18.0468 C   0  0  0  0  0  0  0  0  0  0  0  0
    7.4848   16.5256   16.8426 C   0  0  0  0  0  0  0  0  0  0  0  0
    8.5240   16.4657   15.9361 C   0  0  0  0  0  0  0  0  0  0  0  0
    8.3904   15.7907   14.7344 C   0  0  0  0  0  0  0  0  0  0  0  0
    7.2171   15.1507   14.3917 C   0  0  0  0  0  0  0  0  0  0  0  0
    6.1777   15.2099   15.2972 C   0  0  0  0  0  0  0  0  0  0  0  0
   15.8276   22.7504   18.9750 C   0  0  0  0  0  0  0  0  0  0  0  0
   14.5081   22.5775   18.3405 C   0  0  0  0  0  0  0  0  0  0  0  0
   13.3932   22.2636   19.1091 C   0  0  0  0  0  0  0  0  0  0  0  0
   13.5599   22.1385   20.4648 F   0  0  0  0  0  0  0  0  0  0  0  0
   12.1737   22.1054   18.5060 C   0  0  0  0  0  0  0  0  0  0  0  0
   12.0701   22.2630   17.1274 C   0  0  0  0  0  0  0  0  0  0  0  0
   13.1574   22.5709   16.3662 C   0  0  0  0  0  0  0  0  0  0  0  0
   14.3797   22.7281   16.9775 C   0  0  0  0  0  0  0  0  0  0  0  0
   10.9651   21.7574   19.2043 C   0  0  0  0  0  0  0  0  0  0  0  0
   10.6550   22.4174   20.2515 O   0  0  0  0  0  0  0  0  0  0  0  0
   10.1304   20.7163   18.7552 N   0  0  0  0  0  0  0  0  0  0  0  0
    9.0221   20.3849   19.5663 N   0  0  0  0  0  0  0  0  0  0  0  0
    8.9841   18.6999   19.8975 S   0  0  1  0  0  6  0  0  0  0  0  0
    7.8529   18.3810   20.8318 O   0  0  0  0  0  0  0  0  0  0  0  0
   10.2458   18.2325   20.5632 O   0  0  0  0  0  0  0  0  0  0  0  0
    6.3142   15.8833   16.4935 C   0  0  0  0  0  0  0  0  0  0  0  0
    9.6957   17.1073   16.2831 C   0  0  0  0  0  0  0  0  0  0  0  0
    9.8308   17.7803   17.4797 C   0  0  0  0  0  0  0  0  0  0  0  0
  1  2  2  0
 20  1  1  0
  1 25  1  0
  2  3  1  0
  3  4  2  0
  3 23  1  0
  4  5  1  0
  4 24  1  0
  5  6  2  0
  7  6  1  0
 23  7  2  0
  8  9  1  6
 10  9  2  0
  9 15  1  0
 10 11  1  0
 12 10  1  0
 12 13  2  0
 16 12  1  0
 13 14  1  0
 14 15  2  0
 16 17  2  0
 18 16  1  0
 19 18  1  0
 20 19  1  6
 20 21  2  0
 20 22  2  0
 24 25  2  0
M  END
$$$$
