
     RDKit          3D

 25 27  0  0  0  0  0  0  0  0999 V2000
   17.6433   25.1486   21.5416 C   0  0  0  0  0  0  0  0  0  0  0  0
   18.1106   25.1677   22.8423 C   0  0  0  0  0  0  0  0  0  0  0  0
   19.0678   26.0841   23.2510 C   0  0  0  0  0  0  0  0  0  0  0  0
   19.5924   27.0137   22.3757 C   0  0  0  0  0  0  0  0  0  0  0  0
   20.5481   27.9275   22.7869 C   0  0  0  0  0  0  0  0  0  0  0  0
   21.0163   27.9489   24.0845 C   0  0  0  0  0  0  0  0  0  0  0  0
   20.4926   27.0200   24.9602 C   0  0  0  0  0  0  0  0  0  0  0  0
   14.7476   30.3893   23.1508 C   0  0  0  0  0  0  0  0  0  0  0  0
   13.9115   29.1915   23.3506 C   0  0  0  0  0  0  0  0  0  0  0  0
   14.3247   27.9559   22.8657 C   0  0  0  0  0  0  0  0  0  0  0  0
   15.5315   27.8892   22.2172 F   0  0  0  0  0  0  0  0  0  0  0  0
   13.5375   26.8517   23.0581 C   0  0  0  0  0  0  0  0  0  0  0  0
   12.3318   26.9852   23.7397 C   0  0  0  0  0  0  0  0  0  0  0  0
   11.9190   28.1921   24.2187 C   0  0  0  0  0  0  0  0  0  0  0  0
   12.7137   29.2977   24.0219 C   0  0  0  0  0  0  0  0  0  0  0  0
   13.8599   25.5348   22.5770 C   0  0  0  0  0  0  0  0  0  0  0  0
   13.0587   24.9721   21.7586 O   0  0  0  0  0  0  0  0  0  0  0  0
   15.0300   24.8682   22.9878 N   0  0  0  0  0  0  0  0  0  0  0  0
   15.3678   23.6800   22.3025 N   0  0  0  0  0  0  0  0  0  0  0  0
   16.4385   24.0047   20.9991 S   0  0  1  0  0  6  0  0  0  0  0  0
   15.6775   24.5573   19.8288 O   0  0  0  0  0  0  0  0  0  0  0  0
   17.1316   22.7614   20.5221 O   0  0  0  0  0  0  0  0  0  0  0  0
   19.5406   26.1111   24.5472 C   0  0  0  0  0  0  0  0  0  0  0  0
   19.1211   26.9886   21.0788 C   0  0  0  0  0  0  0  0  0  0  0  0
   18.1690   26.0792   20.6672 C   0  0  0  0  0  0  0  0  0  0  0  0
  1  2  2  0
 20  1  1  0
  1 25  1  0
  2  3  1  0
  3  4  2  0
  3 23  1  0
  4  5  1  0
  4 24  1  0
  5  6  2  0
  7  6  1  0
 23  7  2  0
  8  9  1  6
 10  9  2  0
  9 15  1  0
 10 11  1  0
 12 10  1  0
 12 13  2  0
 16 12  1  0
 13 14  1  0
 14 15  2  0
 16 17  2  0
 18 16  1  0
 19 18  1  0
 20 19  1  1
 20 21  2  0
 20 22  2  0
 24 25  2  0
M  END
$$$$
