
     RDKit          3D

 25 27  0  0  0  0  0  0  0  0999 V2000
    7.9192   15.2257   17.6021 C   0  0  0  0  0  0  0  0  0  0  0  0
    7.6578   15.9601   18.7448 C   0  0  0  0  0  0  0  0  0  0  0  0
    8.5828   16.8890   19.1612 C   0  0  0  0  0  0  0  0  0  0  0  0
    9.7343   17.0708   18.4475 C   0  0  0  0  0  0  0  0  0  0  0  0
   10.6431   18.0213   18.9044 C   0  0  0  0  0  0  0  0  0  0  0  0
   10.3795   18.7480   20.0392 C   0  0  0  0  0  0  0  0  0  0  0  0
    9.2125   18.5346   20.7257 C   0  0  0  0  0  0  0  0  0  0  0  0
    6.1205   19.2896   10.2180 C   0  0  0  0  0  0  0  0  0  0  0  0
    6.2341   19.1457   11.6876 C   0  0  0  0  0  0  0  0  0  0  0  0
    5.9665   17.9219   12.3154 C   0  0  0  0  0  0  0  0  0  0  0  0
    5.6040   16.8852   11.5393 F   0  0  0  0  0  0  0  0  0  0  0  0
    6.0575   17.7380   13.6731 C   0  0  0  0  0  0  0  0  0  0  0  0
    6.4408   18.8671   14.4084 C   0  0  0  0  0  0  0  0  0  0  0  0
    6.7032   20.0677   13.7916 C   0  0  0  0  0  0  0  0  0  0  0  0
    6.6081   20.2392   12.4269 C   0  0  0  0  0  0  0  0  0  0  0  0
    5.7933   16.4960   14.3789 C   0  0  0  0  0  0  0  0  0  0  0  0
    4.6302   15.9957   14.2633 O   0  0  0  0  0  0  0  0  0  0  0  0
    6.6892   15.7768   15.1846 N   0  0  0  0  0  0  0  0  0  0  0  0
    6.5332   14.3949   15.3173 N   0  0  0  0  0  0  0  0  0  0  0  0
    6.7925   14.0161   16.9959 S   0  0  1  0  0  6  0  0  0  0  0  0
    7.4165   12.6575   17.1535 O   0  0  0  0  0  0  0  0  0  0  0  0
    5.5283   14.1481   17.7800 O   0  0  0  0  0  0  0  0  0  0  0  0
    8.2935   17.6034   20.3015 C   0  0  0  0  0  0  0  0  0  0  0  0
   10.0156   16.3514   17.3074 C   0  0  0  0  0  0  0  0  0  0  0  0
    9.0782   15.4169   16.8941 C   0  0  0  0  0  0  0  0  0  0  0  0
  1  2  2  0
 20  1  1  0
  1 25  1  0
  2  3  1  0
  3  4  2  0
  3 23  1  0
  4  5  1  0
  4 24  1  0
  5  6  2  0
  7  6  1  0
 23  7  2  0
  9  8  1  0
 10  9  2  0
  9 15  1  0
 10 11  1  0
 12 10  1  0
 12 13  2  0
 16 12  1  0
 13 14  1  0
 14 15  2  0
 16 17  2  0
 18 16  1  0
 19 18  1  0
 20 19  1  6
 20 21  2  0
 20 22  2  0
 24 25  2  0
M  END
$$$$
