
     RDKit          3D

 25 27  0  0  0  0  0  0  0  0999 V2000
   20.3832   18.6393   35.5030 C   0  0  0  0  0  0  0  0  0  0  0  0
   21.6592   18.2133   35.1804 C   0  0  0  0  0  0  0  0  0  0  0  0
   22.1630   17.0971   35.8066 C   0  0  0  0  0  0  0  0  0  0  0  0
   21.4037   16.4324   36.7286 C   0  0  0  0  0  0  0  0  0  0  0  0
   21.9524   15.3076   37.3384 C   0  0  0  0  0  0  0  0  0  0  0  0
   23.2194   14.8883   37.0150 C   0  0  0  0  0  0  0  0  0  0  0  0
   23.9474   15.5837   36.0849 C   0  0  0  0  0  0  0  0  0  0  0  0
   17.4851   12.6001   30.8643 C   0  0  0  0  0  0  0  0  0  0  0  0
   17.9358   13.5058   31.9460 C   0  0  0  0  0  0  0  0  0  0  0  0
   18.0024   14.8911   31.7460 C   0  0  0  0  0  0  0  0  0  0  0  0
   17.6440   15.3685   30.5409 F   0  0  0  0  0  0  0  0  0  0  0  0
   18.4133   15.7715   32.7162 C   0  0  0  0  0  0  0  0  0  0  0  0
   18.7689   15.1931   33.9415 C   0  0  0  0  0  0  0  0  0  0  0  0
   18.7032   13.8336   34.1369 C   0  0  0  0  0  0  0  0  0  0  0  0
   18.2888   12.9600   33.1541 C   0  0  0  0  0  0  0  0  0  0  0  0
   18.5026   17.2140   32.5676 C   0  0  0  0  0  0  0  0  0  0  0  0
   18.6569   17.6706   31.3911 O   0  0  0  0  0  0  0  0  0  0  0  0
   18.4368   18.1728   33.5901 N   0  0  0  0  0  0  0  0  0  0  0  0
   18.8404   19.4840   33.3264 N   0  0  0  0  0  0  0  0  0  0  0  0
   19.6583   20.0570   34.7516 S   0  0  1  0  0  6  0  0  0  0  0  0
   18.6879   20.6709   35.7219 O   0  0  0  0  0  0  0  0  0  0  0  0
   20.7668   20.9931   34.3976 O   0  0  0  0  0  0  0  0  0  0  0  0
   23.4350   16.6988   35.4640 C   0  0  0  0  0  0  0  0  0  0  0  0
   20.1315   16.8381   37.0655 C   0  0  0  0  0  0  0  0  0  0  0  0
   19.6307   17.9642   36.4298 C   0  0  0  0  0  0  0  0  0  0  0  0
  1  2  2  0
 20  1  1  0
  1 25  1  0
  2  3  1  0
  3  4  2  0
  3 23  1  0
  4  5  1  0
  4 24  1  0
  5  6  2  0
  7  6  1  0
 23  7  2  0
  9  8  1  0
 10  9  2  0
  9 15  1  0
 10 11  1  0
 12 10  1  0
 12 13  2  0
 16 12  1  0
 13 14  1  0
 14 15  2  0
 16 17  2  0
 18 16  1  0
 19 18  1  0
 20 19  1  6
 20 21  2  0
 20 22  2  0
 24 25  2  0
M  END
$$$$
