
     RDKit          3D

 25 27  0  0  0  0  0  0  0  0999 V2000
   22.3216   20.6285   38.8843 C   0  0  0  0  0  0  0  0  0  0  0  0
   23.6835   20.5740   39.1206 C   0  0  0  0  0  0  0  0  0  0  0  0
   24.4483   21.6840   38.8471 C   0  0  0  0  0  0  0  0  0  0  0  0
   23.8577   22.8126   38.3512 C   0  0  0  0  0  0  0  0  0  0  0  0
   24.6688   23.9131   38.0885 C   0  0  0  0  0  0  0  0  0  0  0  0
   26.0203   23.8544   38.3246 C   0  0  0  0  0  0  0  0  0  0  0  0
   26.5727   22.7031   38.8225 C   0  0  0  0  0  0  0  0  0  0  0  0
   20.9578   14.5559   32.8495 C   0  0  0  0  0  0  0  0  0  0  0  0
   20.6441   15.9904   33.0418 C   0  0  0  0  0  0  0  0  0  0  0  0
   20.4952   16.5303   34.3263 C   0  0  0  0  0  0  0  0  0  0  0  0
   20.6466   15.7028   35.3756 F   0  0  0  0  0  0  0  0  0  0  0  0
   20.2047   17.8523   34.5567 C   0  0  0  0  0  0  0  0  0  0  0  0
   20.0630   18.6454   33.4107 C   0  0  0  0  0  0  0  0  0  0  0  0
   20.2092   18.1149   32.1507 C   0  0  0  0  0  0  0  0  0  0  0  0
   20.5011   16.7851   31.9328 C   0  0  0  0  0  0  0  0  0  0  0  0
   20.0391   18.4677   35.8623 C   0  0  0  0  0  0  0  0  0  0  0  0
   18.8525   18.5950   36.3007 O   0  0  0  0  0  0  0  0  0  0  0  0
   21.0549   18.9439   36.7051 N   0  0  0  0  0  0  0  0  0  0  0  0
   21.4163   18.1993   37.8306 N   0  0  0  0  0  0  0  0  0  0  0  0
   21.2663   19.2561   39.2050 S   0  0  1  0  0  6  0  0  0  0  0  0
   21.7316   18.5768   40.4628 O   0  0  0  0  0  0  0  0  0  0  0  0
   19.8740   19.7813   39.3321 O   0  0  0  0  0  0  0  0  0  0  0  0
   25.7997   21.5981   39.0929 C   0  0  0  0  0  0  0  0  0  0  0  0
   22.5044   22.8898   38.1082 C   0  0  0  0  0  0  0  0  0  0  0  0
   21.7402   21.7666   38.3865 C   0  0  0  0  0  0  0  0  0  0  0  0
  1  2  2  0
 20  1  1  0
  1 25  1  0
  2  3  1  0
  3  4  2  0
  3 23  1  0
  4  5  1  0
  4 24  1  0
  5  6  2  0
  7  6  1  0
 23  7  2  0
  9  8  1  0
 10  9  2  0
  9 15  1  0
 10 11  1  0
 12 10  1  0
 12 13  2  0
 16 12  1  0
 13 14  1  0
 14 15  2  0
 16 17  2  0
 18 16  1  0
 19 18  1  0
 20 19  1  6
 20 21  2  0
 20 22  2  0
 24 25  2  0
M  END
$$$$
