
     RDKit          3D

 25 27  0  0  0  0  0  0  0  0999 V2000
   17.0068   25.8715   23.5648 C   0  0  0  0  0  0  0  0  0  0  0  0
   16.3273   25.6304   22.3856 C   0  0  0  0  0  0  0  0  0  0  0  0
   16.4629   24.4277   21.7085 C   0  0  0  0  0  0  0  0  0  0  0  0
   17.2814   23.4235   22.1847 C   0  0  0  0  0  0  0  0  0  0  0  0
   17.4147   22.2237   21.5063 C   0  0  0  0  0  0  0  0  0  0  0  0
   16.7376   21.9802   20.3290 C   0  0  0  0  0  0  0  0  0  0  0  0
   15.9191   22.9835   19.8521 C   0  0  0  0  0  0  0  0  0  0  0  0
   23.5962   25.1245   22.4869 C   0  0  0  0  0  0  0  0  0  0  0  0
   23.2865   26.4515   23.0498 C   0  0  0  0  0  0  0  0  0  0  0  0
   21.9676   26.8340   23.2657 C   0  0  0  0  0  0  0  0  0  0  0  0
   20.9776   25.9368   22.9554 F   0  0  0  0  0  0  0  0  0  0  0  0
   21.6947   28.0701   23.7888 C   0  0  0  0  0  0  0  0  0  0  0  0
   22.7470   28.9264   24.0978 C   0  0  0  0  0  0  0  0  0  0  0  0
   24.0427   28.5598   23.8898 C   0  0  0  0  0  0  0  0  0  0  0  0
   24.3105   27.3173   23.3636 C   0  0  0  0  0  0  0  0  0  0  0  0
   20.3679   28.5720   24.0282 C   0  0  0  0  0  0  0  0  0  0  0  0
   20.2367   29.6576   24.6860 O   0  0  0  0  0  0  0  0  0  0  0  0
   19.2289   27.8947   23.5526 N   0  0  0  0  0  0  0  0  0  0  0  0
   17.9752   28.5037   23.7833 N   0  0  0  0  0  0  0  0  0  0  0  0
   16.8555   27.3777   24.4383 S   0  0  1  0  0  6  0  0  0  0  0  0
   15.4571   27.9128   24.3261 O   0  0  0  0  0  0  0  0  0  0  0  0
   17.1094   27.1201   25.8952 O   0  0  0  0  0  0  0  0  0  0  0  0
   15.7887   24.1776   20.5306 C   0  0  0  0  0  0  0  0  0  0  0  0
   17.9567   23.6714   23.3626 C   0  0  0  0  0  0  0  0  0  0  0  0
   17.8253   24.8659   24.0400 C   0  0  0  0  0  0  0  0  0  0  0  0
  1  2  2  0
 20  1  1  0
  1 25  1  0
  2  3  1  0
  3  4  2  0
  3 23  1  0
  4  5  1  0
  4 24  1  0
  5  6  2  0
  7  6  1  0
 23  7  2  0
  8  9  1  6
 10  9  2  0
  9 15  1  0
 10 11  1  0
 12 10  1  0
 12 13  2  0
 16 12  1  0
 13 14  1  0
 14 15  2  0
 16 17  2  0
 18 16  1  0
 19 18  1  0
 20 19  1  6
 20 21  2  0
 20 22  2  0
 24 25  2  0
M  END
$$$$
