
     RDKit          3D

 25 27  0  0  0  0  0  0  0  0999 V2000
   15.9002   23.1105   20.2772 C   0  0  0  0  0  0  0  0  0  0  0  0
   16.8499   22.4893   19.4862 C   0  0  0  0  0  0  0  0  0  0  0  0
   16.6273   22.3983   18.1319 C   0  0  0  0  0  0  0  0  0  0  0  0
   15.4831   22.9174   17.5934 C   0  0  0  0  0  0  0  0  0  0  0  0
   15.2980   22.8035   16.2184 C   0  0  0  0  0  0  0  0  0  0  0  0
   16.2435   22.1862   15.4370 C   0  0  0  0  0  0  0  0  0  0  0  0
   17.3770   21.6790   16.0171 C   0  0  0  0  0  0  0  0  0  0  0  0
   13.7414   31.1891   22.0250 C   0  0  0  0  0  0  0  0  0  0  0  0
   13.5393   29.9080   22.7401 C   0  0  0  0  0  0  0  0  0  0  0  0
   14.4990   28.8889   22.6796 C   0  0  0  0  0  0  0  0  0  0  0  0
   15.6070   29.1136   21.9514 F   0  0  0  0  0  0  0  0  0  0  0  0
   14.3581   27.6847   23.3242 C   0  0  0  0  0  0  0  0  0  0  0  0
   13.1761   27.5315   24.0602 C   0  0  0  0  0  0  0  0  0  0  0  0
   12.2348   28.5321   24.1192 C   0  0  0  0  0  0  0  0  0  0  0  0
   12.3884   29.7371   23.4670 C   0  0  0  0  0  0  0  0  0  0  0  0
   15.3166   26.5933   23.2984 C   0  0  0  0  0  0  0  0  0  0  0  0
   15.9812   26.3757   24.3601 O   0  0  0  0  0  0  0  0  0  0  0  0
   15.5951   25.7408   22.2192 N   0  0  0  0  0  0  0  0  0  0  0  0
   16.6970   24.8849   22.2891 N   0  0  0  0  0  0  0  0  0  0  0  0
   16.1018   23.2721   22.0188 S   0  0  1  0  0  6  0  0  0  0  0  0
   14.7653   23.0716   22.6772 O   0  0  0  0  0  0  0  0  0  0  0  0
   17.1003   22.2492   22.4514 O   0  0  0  0  0  0  0  0  0  0  0  0
   17.5908   21.7748   17.3723 C   0  0  0  0  0  0  0  0  0  0  0  0
   14.5241   23.5398   18.3611 C   0  0  0  0  0  0  0  0  0  0  0  0
   14.7559   23.6276   19.7255 C   0  0  0  0  0  0  0  0  0  0  0  0
  1  2  2  0
 20  1  1  0
  1 25  1  0
  2  3  1  0
  3  4  2  0
  3 23  1  0
  4  5  1  0
  4 24  1  0
  5  6  2  0
  7  6  1  0
 23  7  2  0
  9  8  1  0
 10  9  2  0
  9 15  1  0
 10 11  1  0
 12 10  1  0
 12 13  2  0
 16 12  1  0
 13 14  1  0
 14 15  2  0
 16 17  2  0
 18 16  1  0
 19 18  1  0
 20 19  1  6
 20 21  2  0
 20 22  2  0
 24 25  2  0
M  END
$$$$
