
     RDKit          3D

 25 27  0  0  0  0  0  0  0  0999 V2000
   22.1525   16.8196   36.3213 C   0  0  0  0  0  0  0  0  0  0  0  0
   21.9417   15.4896   36.0100 C   0  0  0  0  0  0  0  0  0  0  0  0
   22.8243   14.7900   35.2008 C   0  0  0  0  0  0  0  0  0  0  0  0
   23.9483   15.3934   34.6739 C   0  0  0  0  0  0  0  0  0  0  0  0
   24.8278   14.6922   33.8662 C   0  0  0  0  0  0  0  0  0  0  0  0
   24.6198   13.3644   33.5538 C   0  0  0  0  0  0  0  0  0  0  0  0
   23.4965   12.7603   34.0801 C   0  0  0  0  0  0  0  0  0  0  0  0
   16.1635   15.5756   32.2258 C   0  0  0  0  0  0  0  0  0  0  0  0
   17.2996   16.4978   32.0458 C   0  0  0  0  0  0  0  0  0  0  0  0
   17.9542   17.0319   33.1497 C   0  0  0  0  0  0  0  0  0  0  0  0
   17.5209   16.6614   34.3972 F   0  0  0  0  0  0  0  0  0  0  0  0
   19.0078   17.8879   32.9674 C   0  0  0  0  0  0  0  0  0  0  0  0
   19.4080   18.2097   31.6742 C   0  0  0  0  0  0  0  0  0  0  0  0
   18.7725   17.6907   30.5865 C   0  0  0  0  0  0  0  0  0  0  0  0
   17.7146   16.8320   30.7759 C   0  0  0  0  0  0  0  0  0  0  0  0
   19.7364   18.5134   34.0386 C   0  0  0  0  0  0  0  0  0  0  0  0
   20.6689   19.3331   33.7439 O   0  0  0  0  0  0  0  0  0  0  0  0
   19.4390   18.2404   35.3874 N   0  0  0  0  0  0  0  0  0  0  0  0
   20.2360   18.8785   36.3639 N   0  0  0  0  0  0  0  0  0  0  0  0
   21.0567   17.7256   37.3375 S   0  0  1  0  0  6  0  0  0  0  0  0
   20.0687   16.8068   37.9962 O   0  0  0  0  0  0  0  0  0  0  0  0
   21.8439   18.3803   38.4353 O   0  0  0  0  0  0  0  0  0  0  0  0
   22.6225   13.4620   34.8844 C   0  0  0  0  0  0  0  0  0  0  0  0
   24.1523   16.7216   34.9890 C   0  0  0  0  0  0  0  0  0  0  0  0
   23.2775   17.4220   35.7934 C   0  0  0  0  0  0  0  0  0  0  0  0
  1  2  2  0
 20  1  1  0
  1 25  1  0
  2  3  1  0
  3  4  2  0
  3 23  1  0
  4  5  1  0
  4 24  1  0
  5  6  2  0
  7  6  1  0
 23  7  2  0
  8  9  1  6
 10  9  2  0
  9 15  1  0
 10 11  1  0
 12 10  1  0
 12 13  2  0
 16 12  1  0
 13 14  1  0
 14 15  2  0
 16 17  2  0
 18 16  1  0
 19 18  1  0
 20 19  1  6
 20 21  2  0
 20 22  2  0
 24 25  2  0
M  END
$$$$
