
     RDKit          3D

 25 27  0  0  0  0  0  0  0  0999 V2000
   16.5214   25.6519   22.7997 C   0  0  0  0  0  0  0  0  0  0  0  0
   17.4688   26.3748   22.0972 C   0  0  0  0  0  0  0  0  0  0  0  0
   18.6983   26.5918   22.6741 C   0  0  0  0  0  0  0  0  0  0  0  0
   18.9633   26.0953   23.9198 C   0  0  0  0  0  0  0  0  0  0  0  0
   20.2205   26.3381   24.4662 C   0  0  0  0  0  0  0  0  0  0  0  0
   21.1578   27.0562   23.7652 C   0  0  0  0  0  0  0  0  0  0  0  0
   20.8514   27.5364   22.5185 C   0  0  0  0  0  0  0  0  0  0  0  0
   19.0436   22.1142   16.7496 C   0  0  0  0  0  0  0  0  0  0  0  0
   17.5923   21.9625   17.0028 C   0  0  0  0  0  0  0  0  0  0  0  0
   17.0076   22.4657   18.1725 C   0  0  0  0  0  0  0  0  0  0  0  0
   17.8079   23.0895   19.0552 F   0  0  0  0  0  0  0  0  0  0  0  0
   15.6685   22.3505   18.4529 C   0  0  0  0  0  0  0  0  0  0  0  0
   14.9059   21.6877   17.4826 C   0  0  0  0  0  0  0  0  0  0  0  0
   15.4803   21.1942   16.3350 C   0  0  0  0  0  0  0  0  0  0  0  0
   16.8269   21.3165   16.0652 C   0  0  0  0  0  0  0  0  0  0  0  0
   15.0070   22.8509   19.6457 C   0  0  0  0  0  0  0  0  0  0  0  0
   13.7375   22.9158   19.6247 O   0  0  0  0  0  0  0  0  0  0  0  0
   15.6198   23.2763   20.8342 N   0  0  0  0  0  0  0  0  0  0  0  0
   14.8251   23.6004   21.9366 N   0  0  0  0  0  0  0  0  0  0  0  0
   14.9222   25.3261   22.1393 S   0  0  1  0  0  6  0  0  0  0  0  0
   13.8905   25.8144   23.1176 O   0  0  0  0  0  0  0  0  0  0  0  0
   14.8279   26.0296   20.8253 O   0  0  0  0  0  0  0  0  0  0  0  0
   19.6190   27.3143   21.9499 C   0  0  0  0  0  0  0  0  0  0  0  0
   18.0360   25.3731   24.6375 C   0  0  0  0  0  0  0  0  0  0  0  0
   16.7988   25.1587   24.0491 C   0  0  0  0  0  0  0  0  0  0  0  0
  1  2  2  0
 20  1  1  0
  1 25  1  0
  2  3  1  0
  3  4  2  0
  3 23  1  0
  4  5  1  0
  4 24  1  0
  5  6  2  0
  7  6  1  0
 23  7  2  0
  9  8  1  0
 10  9  2  0
  9 15  1  0
 10 11  1  0
 12 10  1  0
 12 13  2  0
 16 12  1  0
 13 14  1  0
 14 15  2  0
 16 17  2  0
 18 16  1  0
 19 18  1  0
 20 19  1  6
 20 21  2  0
 20 22  2  0
 24 25  2  0
M  END
$$$$
