
     RDKit          3D

 25 27  0  0  0  0  0  0  0  0999 V2000
    7.2479   15.0522   16.0841 C   0  0  0  0  0  0  0  0  0  0  0  0
    6.2889   14.6525   15.1725 C   0  0  0  0  0  0  0  0  0  0  0  0
    6.4531   14.8679   13.8124 C   0  0  0  0  0  0  0  0  0  0  0  0
    7.5803   15.4898   13.3145 C   0  0  0  0  0  0  0  0  0  0  0  0
    7.7413   15.7034   11.9558 C   0  0  0  0  0  0  0  0  0  0  0  0
    6.7857   15.3055   11.0436 C   0  0  0  0  0  0  0  0  0  0  0  0
    5.6586   14.6837   11.5403 C   0  0  0  0  0  0  0  0  0  0  0  0
   12.7822   19.3615   18.0067 C   0  0  0  0  0  0  0  0  0  0  0  0
   11.4485   19.7686   18.4853 C   0  0  0  0  0  0  0  0  0  0  0  0
   10.3968   18.8596   18.4961 C   0  0  0  0  0  0  0  0  0  0  0  0
   10.6460   17.5812   18.0662 F   0  0  0  0  0  0  0  0  0  0  0  0
    9.1629   19.2520   18.9429 C   0  0  0  0  0  0  0  0  0  0  0  0
    8.9817   20.5600   19.3816 C   0  0  0  0  0  0  0  0  0  0  0  0
   10.0068   21.4575   19.3749 C   0  0  0  0  0  0  0  0  0  0  0  0
   11.2436   21.0578   18.9245 C   0  0  0  0  0  0  0  0  0  0  0  0
    8.0047   18.3992   18.9727 C   0  0  0  0  0  0  0  0  0  0  0  0
    6.9014   18.8846   19.3916 O   0  0  0  0  0  0  0  0  0  0  0  0
    8.0688   17.0575   18.5507 N   0  0  0  0  0  0  0  0  0  0  0  0
    6.8639   16.3201   18.5658 N   0  0  0  0  0  0  0  0  0  0  0  0
    7.0667   14.7944   17.8032 S   0  0  1  0  0  6  0  0  0  0  0  0
    5.8822   13.9147   18.0814 O   0  0  0  0  0  0  0  0  0  0  0  0
    8.2784   14.0706   18.3145 O   0  0  0  0  0  0  0  0  0  0  0  0
    5.5014   14.4725   12.8946 C   0  0  0  0  0  0  0  0  0  0  0  0
    8.5334   15.8861   14.2306 C   0  0  0  0  0  0  0  0  0  0  0  0
    8.3750   15.6742   15.5845 C   0  0  0  0  0  0  0  0  0  0  0  0
  1  2  2  0
 20  1  1  0
  1 25  1  0
  2  3  1  0
  3  4  2  0
  3 23  1  0
  4  5  1  0
  4 24  1  0
  5  6  2  0
  7  6  1  0
 23  7  2  0
  8  9  1  6
 10  9  2  0
  9 15  1  0
 10 11  1  0
 12 10  1  0
 12 13  2  0
 16 12  1  0
 13 14  1  0
 14 15  2  0
 16 17  2  0
 18 16  1  0
 19 18  1  0
 20 19  1  1
 20 21  2  0
 20 22  2  0
 24 25  2  0
M  END
$$$$
