
     RDKit          3D

 25 27  0  0  0  0  0  0  0  0999 V2000
    7.7899   16.9500   16.7990 C   0  0  0  0  0  0  0  0  0  0  0  0
    8.0259   17.1982   15.4587 C   0  0  0  0  0  0  0  0  0  0  0  0
    8.3974   16.1522   14.6467 C   0  0  0  0  0  0  0  0  0  0  0  0
    8.5267   14.8961   15.1703 C   0  0  0  0  0  0  0  0  0  0  0  0
    8.9047   13.8665   14.3130 C   0  0  0  0  0  0  0  0  0  0  0  0
    9.1379   14.1175   12.9832 C   0  0  0  0  0  0  0  0  0  0  0  0
    8.9969   15.3918   12.4985 C   0  0  0  0  0  0  0  0  0  0  0  0
   12.8242   21.4914   14.2501 C   0  0  0  0  0  0  0  0  0  0  0  0
   13.0178   20.8063   15.5487 C   0  0  0  0  0  0  0  0  0  0  0  0
   11.9372   20.2260   16.2263 C   0  0  0  0  0  0  0  0  0  0  0  0
   10.7214   20.3125   15.6579 F   0  0  0  0  0  0  0  0  0  0  0  0
   12.0650   19.5805   17.4314 C   0  0  0  0  0  0  0  0  0  0  0  0
   13.3639   19.5350   17.9543 C   0  0  0  0  0  0  0  0  0  0  0  0
   14.4237   20.1047   17.2888 C   0  0  0  0  0  0  0  0  0  0  0  0
   14.2819   20.7503   16.0789 C   0  0  0  0  0  0  0  0  0  0  0  0
   10.9842   18.9610   18.1789 C   0  0  0  0  0  0  0  0  0  0  0  0
   11.2975   18.0560   19.0151 O   0  0  0  0  0  0  0  0  0  0  0  0
    9.6153   19.2530   18.0806 N   0  0  0  0  0  0  0  0  0  0  0  0
    8.7084   18.5657   18.8911 N   0  0  0  0  0  0  0  0  0  0  0  0
    7.3105   18.2279   17.9112 S   0  0  1  0  0  6  0  0  0  0  0  0
    6.9071   19.4346   17.1105 O   0  0  0  0  0  0  0  0  0  0  0  0
    6.1852   17.7019   18.7403 O   0  0  0  0  0  0  0  0  0  0  0  0
    8.6249   16.4315   13.3184 C   0  0  0  0  0  0  0  0  0  0  0  0
    8.2970   14.6255   16.5009 C   0  0  0  0  0  0  0  0  0  0  0  0
    7.9228   15.6854   17.3131 C   0  0  0  0  0  0  0  0  0  0  0  0
  1  2  2  0
 20  1  1  0
  1 25  1  0
  2  3  1  0
  3  4  2  0
  3 23  1  0
  4  5  1  0
  4 24  1  0
  5  6  2  0
  7  6  1  0
 23  7  2  0
  9  8  1  0
 10  9  2  0
  9 15  1  0
 10 11  1  0
 12 10  1  0
 12 13  2  0
 16 12  1  0
 13 14  1  0
 14 15  2  0
 16 17  2  0
 18 16  1  0
 19 18  1  0
 20 19  1  1
 20 21  2  0
 20 22  2  0
 24 25  2  0
M  END
$$$$
