
     RDKit          3D

 25 27  0  0  0  0  0  0  0  0999 V2000
   15.0557   28.1412   22.9520 C   0  0  0  0  0  0  0  0  0  0  0  0
   15.1521   27.2048   21.9399 C   0  0  0  0  0  0  0  0  0  0  0  0
   14.5563   25.9576   22.0527 C   0  0  0  0  0  0  0  0  0  0  0  0
   13.8434   25.6013   23.1796 C   0  0  0  0  0  0  0  0  0  0  0  0
   13.2496   24.3551   23.2893 C   0  0  0  0  0  0  0  0  0  0  0  0
   13.3441   23.4185   22.2806 C   0  0  0  0  0  0  0  0  0  0  0  0
   14.0565   23.7737   21.1536 C   0  0  0  0  0  0  0  0  0  0  0  0
   24.4159   28.5757   22.1375 C   0  0  0  0  0  0  0  0  0  0  0  0
   22.9921   28.3850   21.8054 C   0  0  0  0  0  0  0  0  0  0  0  0
   22.0094   29.0926   22.4880 C   0  0  0  0  0  0  0  0  0  0  0  0
   22.4082   29.9761   23.4584 F   0  0  0  0  0  0  0  0  0  0  0  0
   20.6905   28.9049   22.1692 C   0  0  0  0  0  0  0  0  0  0  0  0
   20.3546   28.0055   21.1621 C   0  0  0  0  0  0  0  0  0  0  0  0
   21.3112   27.3080   20.4877 C   0  0  0  0  0  0  0  0  0  0  0  0
   22.6340   27.5003   20.8126 C   0  0  0  0  0  0  0  0  0  0  0  0
   19.5969   29.5670   22.8288 C   0  0  0  0  0  0  0  0  0  0  0  0
   19.8306   30.6559   23.4518 O   0  0  0  0  0  0  0  0  0  0  0  0
   18.2915   29.0406   22.7959 N   0  0  0  0  0  0  0  0  0  0  0  0
   17.3259   29.6631   23.6182 N   0  0  0  0  0  0  0  0  0  0  0  0
   15.7971   29.7197   22.8371 S   0  0  1  0  0  6  0  0  0  0  0  0
   15.9643   30.1191   21.3994 O   0  0  0  0  0  0  0  0  0  0  0  0
   14.8841   30.7305   23.4681 O   0  0  0  0  0  0  0  0  0  0  0  0
   14.6468   25.0161   21.0478 C   0  0  0  0  0  0  0  0  0  0  0  0
   13.7514   26.5413   24.1860 C   0  0  0  0  0  0  0  0  0  0  0  0
   14.3422   27.7833   24.0788 C   0  0  0  0  0  0  0  0  0  0  0  0
  1  2  2  0
 20  1  1  0
  1 25  1  0
  2  3  1  0
  3  4  2  0
  3 23  1  0
  4  5  1  0
  4 24  1  0
  5  6  2  0
  7  6  1  0
 23  7  2  0
  8  9  1  6
 10  9  2  0
  9 15  1  0
 10 11  1  0
 12 10  1  0
 12 13  2  0
 16 12  1  0
 13 14  1  0
 14 15  2  0
 16 17  2  0
 18 16  1  0
 19 18  1  0
 20 19  1  1
 20 21  2  0
 20 22  2  0
 24 25  2  0
M  END
$$$$
