
     RDKit          3D

 25 27  0  0  0  0  0  0  0  0999 V2000
   16.2196   25.5051   22.5308 C   0  0  0  0  0  0  0  0  0  0  0  0
   17.1317   25.2394   23.5363 C   0  0  0  0  0  0  0  0  0  0  0  0
   18.2894   25.9798   23.5932 C   0  0  0  0  0  0  0  0  0  0  0  0
   18.5192   26.9569   22.6653 C   0  0  0  0  0  0  0  0  0  0  0  0
   19.7036   27.6823   22.7598 C   0  0  0  0  0  0  0  0  0  0  0  0
   20.6061   27.4151   23.7596 C   0  0  0  0  0  0  0  0  0  0  0  0
   20.3370   26.4266   24.6702 C   0  0  0  0  0  0  0  0  0  0  0  0
   19.5136   21.6057   17.3503 C   0  0  0  0  0  0  0  0  0  0  0  0
   18.0478   21.7053   17.1630 C   0  0  0  0  0  0  0  0  0  0  0  0
   17.2682   22.5209   17.9938 C   0  0  0  0  0  0  0  0  0  0  0  0
   17.8953   23.2083   18.9647 F   0  0  0  0  0  0  0  0  0  0  0  0
   15.9074   22.6467   17.8607 C   0  0  0  0  0  0  0  0  0  0  0  0
   15.3327   21.8977   16.8258 C   0  0  0  0  0  0  0  0  0  0  0  0
   16.0984   21.0975   16.0109 C   0  0  0  0  0  0  0  0  0  0  0  0
   17.4645   20.9799   16.1552 C   0  0  0  0  0  0  0  0  0  0  0  0
   15.0485   23.4748   18.6898 C   0  0  0  0  0  0  0  0  0  0  0  0
   14.0291   23.9949   18.1361 O   0  0  0  0  0  0  0  0  0  0  0  0
   15.2198   23.7690   20.0511 N   0  0  0  0  0  0  0  0  0  0  0  0
   14.3100   24.6163   20.6884 N   0  0  0  0  0  0  0  0  0  0  0  0
   14.7122   24.6076   22.3815 S   0  0  1  0  0  6  0  0  0  0  0  0
   14.9372   23.2061   22.8766 O   0  0  0  0  0  0  0  0  0  0  0  0
   13.6798   25.3284   23.1847 O   0  0  0  0  0  0  0  0  0  0  0  0
   19.1765   25.6914   24.6051 C   0  0  0  0  0  0  0  0  0  0  0  0
   17.6259   27.2389   21.6558 C   0  0  0  0  0  0  0  0  0  0  0  0
   16.4611   26.4880   21.6053 C   0  0  0  0  0  0  0  0  0  0  0  0
  1  2  2  0
 20  1  1  0
  1 25  1  0
  2  3  1  0
  3  4  2  0
  3 23  1  0
  4  5  1  0
  4 24  1  0
  5  6  2  0
  7  6  1  0
 23  7  2  0
  9  8  1  0
 10  9  2  0
  9 15  1  0
 10 11  1  0
 12 10  1  0
 12 13  2  0
 16 12  1  0
 13 14  1  0
 14 15  2  0
 16 17  2  0
 18 16  1  0
 19 18  1  0
 20 19  1  6
 20 21  2  0
 20 22  2  0
 24 25  2  0
M  END
$$$$
