
     RDKit          3D

 25 27  0  0  0  0  0  0  0  0999 V2000
   17.7466   25.9244   22.8944 C   0  0  0  0  0  0  0  0  0  0  0  0
   18.6610   26.2226   23.8870 C   0  0  0  0  0  0  0  0  0  0  0  0
   19.0304   27.5317   24.1572 C   0  0  0  0  0  0  0  0  0  0  0  0
   18.5000   28.5892   23.4460 C   0  0  0  0  0  0  0  0  0  0  0  0
   18.8708   29.8953   23.7181 C   0  0  0  0  0  0  0  0  0  0  0  0
   19.7834   30.1960   24.7084 C   0  0  0  0  0  0  0  0  0  0  0  0
   20.3141   29.1396   25.4198 C   0  0  0  0  0  0  0  0  0  0  0  0
   14.0736   27.4558   16.6191 C   0  0  0  0  0  0  0  0  0  0  0  0
   13.7029   26.1978   17.2926 C   0  0  0  0  0  0  0  0  0  0  0  0
   14.0029   26.0039   18.6361 C   0  0  0  0  0  0  0  0  0  0  0  0
   14.6336   27.0195   19.3084 F   0  0  0  0  0  0  0  0  0  0  0  0
   13.6531   24.8298   19.2487 C   0  0  0  0  0  0  0  0  0  0  0  0
   12.9993   23.8462   18.5130 C   0  0  0  0  0  0  0  0  0  0  0  0
   12.7011   24.0277   17.1960 C   0  0  0  0  0  0  0  0  0  0  0  0
   13.0554   25.2087   16.5861 C   0  0  0  0  0  0  0  0  0  0  0  0
   13.9376   24.5193   20.6242 C   0  0  0  0  0  0  0  0  0  0  0  0
   13.0876   23.8312   21.2818 O   0  0  0  0  0  0  0  0  0  0  0  0
   15.1234   24.9548   21.2460 N   0  0  0  0  0  0  0  0  0  0  0  0
   15.5529   24.2384   22.3854 N   0  0  0  0  0  0  0  0  0  0  0  0
   17.2638   24.2843   22.5320 S   0  0  1  0  0  6  0  0  0  0  0  0
   17.9057   23.8161   21.2581 O   0  0  0  0  0  0  0  0  0  0  0  0
   17.7553   23.3819   23.6264 O   0  0  0  0  0  0  0  0  0  0  0  0
   19.9424   27.8396   25.1460 C   0  0  0  0  0  0  0  0  0  0  0  0
   17.5876   28.2838   22.4565 C   0  0  0  0  0  0  0  0  0  0  0  0
   17.2168   26.9833   22.1838 C   0  0  0  0  0  0  0  0  0  0  0  0
  1  2  2  0
 20  1  1  0
  1 25  1  0
  2  3  1  0
  3  4  2  0
  3 23  1  0
  4  5  1  0
  4 24  1  0
  5  6  2  0
  7  6  1  0
 23  7  2  0
  8  9  1  6
 10  9  2  0
  9 15  1  0
 10 11  1  0
 12 10  1  0
 12 13  2  0
 16 12  1  0
 13 14  1  0
 14 15  2  0
 16 17  2  0
 18 16  1  0
 19 18  1  0
 20 19  1  6
 20 21  2  0
 20 22  2  0
 24 25  2  0
M  END
$$$$
