
     RDKit          3D

 25 27  0  0  0  0  0  0  0  0999 V2000
   16.7363   25.9764   23.2244 C   0  0  0  0  0  0  0  0  0  0  0  0
   16.6016   26.9048   24.2410 C   0  0  0  0  0  0  0  0  0  0  0  0
   17.4217   28.0089   24.2428 C   0  0  0  0  0  0  0  0  0  0  0  0
   18.3480   28.1709   23.2507 C   0  0  0  0  0  0  0  0  0  0  0  0
   19.1575   29.3027   23.2909 C   0  0  0  0  0  0  0  0  0  0  0  0
   19.0202   30.2217   24.3020 C   0  0  0  0  0  0  0  0  0  0  0  0
   18.0787   30.0212   25.2777 C   0  0  0  0  0  0  0  0  0  0  0  0
   15.8201   25.2361   15.7055 C   0  0  0  0  0  0  0  0  0  0  0  0
   15.4843   24.0313   16.4987 C   0  0  0  0  0  0  0  0  0  0  0  0
   15.7560   23.9731   17.8721 C   0  0  0  0  0  0  0  0  0  0  0  0
   16.3308   25.0462   18.4435 F   0  0  0  0  0  0  0  0  0  0  0  0
   15.4640   22.8801   18.6502 C   0  0  0  0  0  0  0  0  0  0  0  0
   14.8671   21.8057   17.9781 C   0  0  0  0  0  0  0  0  0  0  0  0
   14.6007   21.8636   16.6304 C   0  0  0  0  0  0  0  0  0  0  0  0
   14.8990   22.9675   15.8601 C   0  0  0  0  0  0  0  0  0  0  0  0
   15.7216   22.7621   20.0752 C   0  0  0  0  0  0  0  0  0  0  0  0
   15.2513   21.7417   20.6702 O   0  0  0  0  0  0  0  0  0  0  0  0
   16.4405   23.6594   20.8794 N   0  0  0  0  0  0  0  0  0  0  0  0
   16.6370   23.3623   22.2302 N   0  0  0  0  0  0  0  0  0  0  0  0
   15.7297   24.5342   23.1424 S   0  0  1  0  0  6  0  0  0  0  0  0
   15.4722   24.0486   24.5416 O   0  0  0  0  0  0  0  0  0  0  0  0
   14.4679   24.9077   22.4361 O   0  0  0  0  0  0  0  0  0  0  0  0
   17.2630   28.9139   25.2674 C   0  0  0  0  0  0  0  0  0  0  0  0
   18.5000   27.2601   22.2290 C   0  0  0  0  0  0  0  0  0  0  0  0
   17.6694   26.1496   22.2342 C   0  0  0  0  0  0  0  0  0  0  0  0
  1  2  2  0
 20  1  1  0
  1 25  1  0
  2  3  1  0
  3  4  2  0
  3 23  1  0
  4  5  1  0
  4 24  1  0
  5  6  2  0
  7  6  1  0
 23  7  2  0
  9  8  1  0
 10  9  2  0
  9 15  1  0
 10 11  1  0
 12 10  1  0
 12 13  2  0
 16 12  1  0
 13 14  1  0
 14 15  2  0
 16 17  2  0
 18 16  1  0
 19 18  1  0
 20 19  1  6
 20 21  2  0
 20 22  2  0
 24 25  2  0
M  END
$$$$
