
     RDKit          3D

 25 27  0  0  0  0  0  0  0  0999 V2000
   10.9946   20.8120   20.4911 C   0  0  0  0  0  0  0  0  0  0  0  0
   11.4356   20.1006   21.5924 C   0  0  0  0  0  0  0  0  0  0  0  0
   12.3579   19.0973   21.4070 C   0  0  0  0  0  0  0  0  0  0  0  0
   12.8203   18.8208   20.1507 C   0  0  0  0  0  0  0  0  0  0  0  0
   13.7531   17.7973   20.0083 C   0  0  0  0  0  0  0  0  0  0  0  0
   14.1881   17.0938   21.1044 C   0  0  0  0  0  0  0  0  0  0  0  0
   13.6990   17.4031   22.3469 C   0  0  0  0  0  0  0  0  0  0  0  0
   17.6707   25.6701   20.9992 C   0  0  0  0  0  0  0  0  0  0  0  0
   16.5989   24.8168   20.4365 C   0  0  0  0  0  0  0  0  0  0  0  0
   15.3693   24.6760   21.0934 C   0  0  0  0  0  0  0  0  0  0  0  0
   15.1964   25.3408   22.2496 F   0  0  0  0  0  0  0  0  0  0  0  0
   14.3454   23.8975   20.6129 C   0  0  0  0  0  0  0  0  0  0  0  0
   14.6067   23.2393   19.4042 C   0  0  0  0  0  0  0  0  0  0  0  0
   15.8137   23.3780   18.7602 C   0  0  0  0  0  0  0  0  0  0  0  0
   16.8340   24.1631   19.2535 C   0  0  0  0  0  0  0  0  0  0  0  0
   13.0517   23.7136   21.2480 C   0  0  0  0  0  0  0  0  0  0  0  0
   13.0378   23.5659   22.5107 O   0  0  0  0  0  0  0  0  0  0  0  0
   11.7992   23.6801   20.6163 N   0  0  0  0  0  0  0  0  0  0  0  0
   10.6533   23.4436   21.3795 N   0  0  0  0  0  0  0  0  0  0  0  0
    9.8161   22.1122   20.6346 S   0  0  1  0  0  6  0  0  0  0  0  0
    9.3352   22.4780   19.2580 O   0  0  0  0  0  0  0  0  0  0  0  0
    8.7070   21.6181   21.5043 O   0  0  0  0  0  0  0  0  0  0  0  0
   12.7768   18.4082   22.5223 C   0  0  0  0  0  0  0  0  0  0  0  0
   12.3956   19.5155   19.0401 C   0  0  0  0  0  0  0  0  0  0  0  0
   11.4657   20.5255   19.2352 C   0  0  0  0  0  0  0  0  0  0  0  0
  1  2  2  0
 20  1  1  0
  1 25  1  0
  2  3  1  0
  3  4  2  0
  3 23  1  0
  4  5  1  0
  4 24  1  0
  5  6  2  0
  7  6  1  0
 23  7  2  0
  9  8  1  0
 10  9  2  0
  9 15  1  0
 10 11  1  0
 12 10  1  0
 12 13  2  0
 16 12  1  0
 13 14  1  0
 14 15  2  0
 16 17  2  0
 18 16  1  0
 19 18  1  0
 20 19  1  1
 20 21  2  0
 20 22  2  0
 24 25  2  0
M  END
$$$$
