
     RDKit          3D

 12 11  0  0  0  0  0  0  0  0999 V2000
  -27.6214   74.6567   66.7012 O   0  0  0  0  0  0  0  0  0  0  0  0
  -28.7813   75.1076   66.6797 C   0  0  0  0  0  0  0  0  0  0  0  0
  -29.0596   76.3154   66.0991 O   0  0  0  0  0  0  0  0  0  0  0  0
  -29.8630   74.2546   67.3262 C   0  0  1  0  0  0  0  0  0  0  0  0
  -29.2670   73.7492   68.5194 N   0  0  0  0  0  4  0  0  0  0  0  0
  -31.0152   75.1531   67.4330 C   0  0  0  0  0  0  0  0  0  0  0  0
  -32.3902   74.7213   67.5547 C   0  0  2  0  0  0  0  0  0  0  0  0
  -32.6122   73.4882   68.4124 C   0  0  0  0  0  0  0  0  0  0  0  0
  -32.9021   74.2625   66.1572 C   0  0  0  0  0  0  0  0  0  0  0  0
  -33.3810   75.7546   67.9802 C   0  0  1  0  0  0  0  0  0  0  0  0
  -33.4836   76.6307   66.8585 F   0  0  0  0  0  0  0  0  0  0  0  0
  -34.6810   75.3018   68.1041 F   0  0  0  0  0  0  0  0  0  0  0  0
  1  2  2  0
  2  3  1  0
  2  4  1  0
  4  5  1  1
  4  6  1  0
  6  7  1  0
  7  8  1  1
  7  9  1  0
  7 10  1  0
 10 11  1  6
 10 12  1  0
M  CHG  1   5   1
M  END
$$$$
