
     RDKit          3D

 12 11  0  0  0  0  0  0  0  0999 V2000
  -27.5420   75.5856   65.9601 O   0  0  0  0  0  0  0  0  0  0  0  0
  -27.8668   74.7004   66.7725 C   0  0  0  0  0  0  0  0  0  0  0  0
  -26.9448   74.1426   67.6164 O   0  0  0  0  0  0  0  0  0  0  0  0
  -29.3279   74.2749   66.7786 C   0  0  1  0  0  0  0  0  0  0  0  0
  -29.3198   72.9438   67.2909 N   0  0  0  0  0  4  0  0  0  0  0  0
  -30.0065   75.3256   67.5413 C   0  0  0  0  0  0  0  0  0  0  0  0
  -31.4045   75.6711   67.4069 C   0  0  2  0  0  0  0  0  0  0  0  0
  -31.8952   75.8582   65.9822 C   0  0  0  0  0  0  0  0  0  0  0  0
  -31.6416   77.0754   68.0374 C   0  0  0  0  0  0  0  0  0  0  0  0
  -32.3824   74.7896   68.1119 C   0  0  1  0  0  0  0  0  0  0  0  0
  -33.2487   75.6953   68.7942 F   0  0  0  0  0  0  0  0  0  0  0  0
  -33.2670   74.1209   67.2868 F   0  0  0  0  0  0  0  0  0  0  0  0
  1  2  2  0
  2  3  1  0
  2  4  1  0
  4  5  1  1
  4  6  1  0
  6  7  1  0
  7  8  1  6
  7  9  1  0
  7 10  1  0
 10 11  1  1
 10 12  1  0
M  CHG  1   5   1
M  END
$$$$
