
     RDKit          3D

 12 11  0  0  0  0  0  0  0  0999 V2000
  -28.6762   75.4340   67.3459 O   0  0  0  0  0  0  0  0  0  0  0  0
  -29.3706   74.8397   66.5011 C   0  0  0  0  0  0  0  0  0  0  0  0
  -28.9235   73.6960   65.8966 O   0  0  0  0  0  0  0  0  0  0  0  0
  -30.7290   75.4450   66.1784 C   0  0  1  0  0  0  0  0  0  0  0  0
  -30.8530   75.3331   64.7619 N   0  0  0  0  0  4  0  0  0  0  0  0
  -31.6639   74.7098   67.0338 C   0  0  0  0  0  0  0  0  0  0  0  0
  -32.7903   75.2996   67.7233 C   0  0  2  0  0  0  0  0  0  0  0  0
  -32.6144   75.4828   69.2203 C   0  0  0  0  0  0  0  0  0  0  0  0
  -34.0024   74.3252   67.6380 C   0  0  0  0  0  0  0  0  0  0  0  0
  -33.3184   76.5814   67.1679 C   0  0  1  0  0  0  0  0  0  0  0  0
  -34.5987   76.7323   67.7797 F   0  0  0  0  0  0  0  0  0  0  0  0
  -32.6635   77.7194   67.6000 F   0  0  0  0  0  0  0  0  0  0  0  0
  1  2  2  0
  2  3  1  0
  2  4  1  0
  4  5  1  6
  4  6  1  0
  6  7  1  0
  7  8  1  1
  7  9  1  0
  7 10  1  0
 10 11  1  1
 10 12  1  0
M  CHG  1   5   1
M  END
$$$$
