
     RDKit          3D

 12 11  0  0  0  0  0  0  0  0999 V2000
  -31.2975   76.2596   57.3294 O   0  0  0  0  0  0  0  0  0  0  0  0
  -31.3700   75.3443   58.1696 C   0  0  0  0  0  0  0  0  0  0  0  0
  -30.2414   74.7881   58.7083 O   0  0  0  0  0  0  0  0  0  0  0  0
  -32.7650   74.8804   58.5628 C   0  0  1  0  0  0  0  0  0  0  0  0
  -33.2652   74.2053   57.4102 N   0  0  0  0  0  4  0  0  0  0  0  0
  -32.5576   74.1197   59.7975 C   0  0  0  0  0  0  0  0  0  0  0  0
  -33.1063   74.4747   61.0878 C   0  0  2  0  0  0  0  0  0  0  0  0
  -33.9152   75.7593   61.1205 C   0  0  0  0  0  0  0  0  0  0  0  0
  -31.9358   74.7826   62.0681 C   0  0  0  0  0  0  0  0  0  0  0  0
  -33.8980   73.4216   61.7910 C   0  0  1  0  0  0  0  0  0  0  0  0
  -32.9216   72.4796   62.2330 F   0  0  0  0  0  0  0  0  0  0  0  0
  -34.4677   73.8189   62.9860 F   0  0  0  0  0  0  0  0  0  0  0  0
  1  2  2  0
  2  3  1  0
  2  4  1  0
  4  5  1  6
  4  6  1  0
  6  7  1  0
  7  8  1  6
  7  9  1  0
  7 10  1  0
 10 11  1  1
 10 12  1  0
M  CHG  1   5   1
M  END
$$$$
