
     RDKit          3D

 12 11  0  0  0  0  0  0  0  0999 V2000
  -30.4961   72.5423   65.0975 O   0  0  0  0  0  0  0  0  0  0  0  0
  -31.0413   73.3887   65.8292 C   0  0  0  0  0  0  0  0  0  0  0  0
  -30.3312   74.0529   66.7925 O   0  0  0  0  0  0  0  0  0  0  0  0
  -32.5238   73.6441   65.5992 C   0  0  1  0  0  0  0  0  0  0  0  0
  -33.0198   72.4348   65.0282 N   0  0  0  0  0  4  0  0  0  0  0  0
  -33.0241   74.0688   66.9090 C   0  0  0  0  0  0  0  0  0  0  0  0
  -33.7675   75.2851   67.1538 C   0  0  2  0  0  0  0  0  0  0  0  0
  -34.7764   75.6587   66.0823 C   0  0  0  0  0  0  0  0  0  0  0  0
  -32.7837   76.4924   67.1332 C   0  0  0  0  0  0  0  0  0  0  0  0
  -34.4489   75.3979   68.4781 C   0  0  1  0  0  0  0  0  0  0  0  0
  -35.1815   76.6197   68.3971 F   0  0  0  0  0  0  0  0  0  0  0  0
  -35.4574   74.4784   68.6966 F   0  0  0  0  0  0  0  0  0  0  0  0
  1  2  2  0
  2  3  1  0
  2  4  1  0
  4  5  1  1
  4  6  1  0
  6  7  1  0
  7  8  1  6
  7  9  1  0
  7 10  1  0
 10 11  1  6
 10 12  1  0
M  CHG  1   5   1
M  END
$$$$
