
     RDKit          3D

 12 11  0  0  0  0  0  0  0  0999 V2000
  -31.3347   75.4710   62.8594 O   0  0  0  0  0  0  0  0  0  0  0  0
  -32.3245   75.2705   63.5868 C   0  0  0  0  0  0  0  0  0  0  0  0
  -32.4201   75.8460   64.8250 O   0  0  0  0  0  0  0  0  0  0  0  0
  -33.4121   74.3613   63.0334 C   0  0  1  0  0  0  0  0  0  0  0  0
  -33.0732   74.1784   61.6601 N   0  0  0  0  0  4  0  0  0  0  0  0
  -33.4023   73.2013   63.9281 C   0  0  0  0  0  0  0  0  0  0  0  0
  -34.4139   72.9170   64.9221 C   0  0  2  0  0  0  0  0  0  0  0  0
  -35.8175   72.7087   64.3818 C   0  0  0  0  0  0  0  0  0  0  0  0
  -34.5830   74.1620   65.8424 C   0  0  0  0  0  0  0  0  0  0  0  0
  -34.1233   71.8026   65.8729 C   0  0  1  0  0  0  0  0  0  0  0  0
  -33.9932   70.6509   65.0404 F   0  0  0  0  0  0  0  0  0  0  0  0
  -32.8803   71.8571   66.4749 F   0  0  0  0  0  0  0  0  0  0  0  0
  1  2  2  0
  2  3  1  0
  2  4  1  0
  4  5  1  6
  4  6  1  0
  6  7  1  0
  7  8  1  6
  7  9  1  0
  7 10  1  0
 10 11  1  6
 10 12  1  0
M  CHG  1   5   1
M  END
$$$$
