
     RDKit          3D

 12 11  0  0  0  0  0  0  0  0999 V2000
  -47.7472   62.7482   63.1249 O   0  0  0  0  0  0  0  0  0  0  0  0
  -47.8274   62.4080   64.3194 C   0  0  0  0  0  0  0  0  0  0  0  0
  -47.2895   61.2274   64.7559 O   0  0  0  0  0  0  0  0  0  0  0  0
  -48.5473   63.3634   65.2600 C   0  0  1  0  0  0  0  0  0  0  0  0
  -49.0354   62.5391   66.3167 N   0  0  0  0  0  4  0  0  0  0  0  0
  -47.5485   64.3911   65.5642 C   0  0  0  0  0  0  0  0  0  0  0  0
  -47.8309   65.8037   65.6941 C   0  0  2  0  0  0  0  0  0  0  0  0
  -46.6180   66.6945   65.8966 C   0  0  0  0  0  0  0  0  0  0  0  0
  -48.6491   66.0383   66.9984 C   0  0  0  0  0  0  0  0  0  0  0  0
  -48.6727   66.4190   64.6248 C   0  0  1  0  0  0  0  0  0  0  0  0
  -50.0088   66.2961   65.1105 F   0  0  0  0  0  0  0  0  0  0  0  0
  -48.5444   67.7891   64.4959 F   0  0  0  0  0  0  0  0  0  0  0  0
  1  2  2  0
  2  3  1  0
  2  4  1  0
  4  5  1  1
  4  6  1  0
  6  7  1  0
  7  8  1  1
  7  9  1  0
  7 10  1  0
 10 11  1  1
 10 12  1  0
M  CHG  1   5   1
M  END
$$$$
