
     RDKit          3D

 12 11  0  0  0  0  0  0  0  0999 V2000
  -29.8970   74.4937   66.3270 O   0  0  0  0  0  0  0  0  0  0  0  0
  -30.4537   75.6032   66.4167 C   0  0  0  0  0  0  0  0  0  0  0  0
  -30.0287   76.6697   65.6715 O   0  0  0  0  0  0  0  0  0  0  0  0
  -31.6199   75.7112   67.3885 C   0  0  1  0  0  0  0  0  0  0  0  0
  -31.7819   77.1104   67.6125 N   0  0  0  0  0  4  0  0  0  0  0  0
  -32.7009   74.9658   66.7388 C   0  0  0  0  0  0  0  0  0  0  0  0
  -33.7797   74.3006   67.4358 C   0  0  2  0  0  0  0  0  0  0  0  0
  -34.2508   74.9818   68.7084 C   0  0  0  0  0  0  0  0  0  0  0  0
  -33.2734   72.9216   67.9533 C   0  0  0  0  0  0  0  0  0  0  0  0
  -34.9891   73.9607   66.6282 C   0  0  1  0  0  0  0  0  0  0  0  0
  -35.4263   75.2122   66.1002 F   0  0  0  0  0  0  0  0  0  0  0  0
  -34.7387   73.2404   65.4755 F   0  0  0  0  0  0  0  0  0  0  0  0
  1  2  2  0
  2  3  1  0
  2  4  1  0
  4  5  1  6
  4  6  1  0
  6  7  1  0
  7  8  1  1
  7  9  1  0
  7 10  1  0
 10 11  1  6
 10 12  1  0
M  CHG  1   5   1
M  END
$$$$
