
     RDKit          3D

 12 11  0  0  0  0  0  0  0  0999 V2000
  -29.0420   76.0397   67.1139 O   0  0  0  0  0  0  0  0  0  0  0  0
  -30.1410   75.9722   66.5336 C   0  0  0  0  0  0  0  0  0  0  0  0
  -30.5868   76.9964   65.7425 O   0  0  0  0  0  0  0  0  0  0  0  0
  -30.9551   74.7044   66.7474 C   0  0  1  0  0  0  0  0  0  0  0  0
  -29.9992   73.7133   67.1191 N   0  0  0  0  0  4  0  0  0  0  0  0
  -31.9851   75.0956   67.7130 C   0  0  0  0  0  0  0  0  0  0  0  0
  -33.3113   74.5226   67.7829 C   0  0  2  0  0  0  0  0  0  0  0  0
  -33.3805   73.1045   68.3211 C   0  0  0  0  0  0  0  0  0  0  0  0
  -33.8724   74.3680   66.3383 C   0  0  0  0  0  0  0  0  0  0  0  0
  -34.3518   75.3278   68.4896 C   0  0  1  0  0  0  0  0  0  0  0  0
  -34.7466   76.3129   67.5357 F   0  0  0  0  0  0  0  0  0  0  0  0
  -35.5434   74.6674   68.7227 F   0  0  0  0  0  0  0  0  0  0  0  0
  1  2  2  0
  2  3  1  0
  2  4  1  0
  4  5  1  1
  4  6  1  0
  6  7  1  0
  7  8  1  1
  7  9  1  0
  7 10  1  0
 10 11  1  6
 10 12  1  0
M  CHG  1   5   1
M  END
$$$$
