
     RDKit          3D

 12 11  0  0  0  0  0  0  0  0999 V2000
  -31.2924   75.8518   64.0434 O   0  0  0  0  0  0  0  0  0  0  0  0
  -31.1099   74.6405   64.2636 C   0  0  0  0  0  0  0  0  0  0  0  0
  -30.2001   74.2206   65.1959 O   0  0  0  0  0  0  0  0  0  0  0  0
  -31.9428   73.6604   63.4503 C   0  0  1  0  0  0  0  0  0  0  0  0
  -31.0627   72.5725   63.1742 N   0  0  0  0  0  4  0  0  0  0  0  0
  -33.1289   73.4226   64.2765 C   0  0  0  0  0  0  0  0  0  0  0  0
  -34.4708   73.2517   63.7645 C   0  0  2  0  0  0  0  0  0  0  0  0
  -34.7166   71.9642   62.9982 C   0  0  0  0  0  0  0  0  0  0  0  0
  -34.7461   74.3464   62.6913 C   0  0  0  0  0  0  0  0  0  0  0  0
  -35.5867   73.4177   64.7432 C   0  0  1  0  0  0  0  0  0  0  0  0
  -35.2156   72.5934   65.8474 F   0  0  0  0  0  0  0  0  0  0  0  0
  -35.6642   74.6642   65.3354 F   0  0  0  0  0  0  0  0  0  0  0  0
  1  2  2  0
  2  3  1  0
  2  4  1  0
  4  5  1  1
  4  6  1  0
  6  7  1  0
  7  8  1  6
  7  9  1  0
  7 10  1  0
 10 11  1  1
 10 12  1  0
M  CHG  1   5   1
M  END
$$$$
