
     RDKit          3D

 12 11  0  0  0  0  0  0  0  0999 V2000
  -28.3718   75.9700   66.3488 O   0  0  0  0  0  0  0  0  0  0  0  0
  -29.0216   74.9101   66.2897 C   0  0  0  0  0  0  0  0  0  0  0  0
  -28.4030   73.6944   66.4025 O   0  0  0  0  0  0  0  0  0  0  0  0
  -30.5247   75.0352   66.0874 C   0  0  1  0  0  0  0  0  0  0  0  0
  -30.8862   73.8946   65.3111 N   0  0  0  0  0  4  0  0  0  0  0  0
  -31.0612   75.1705   67.4439 C   0  0  0  0  0  0  0  0  0  0  0  0
  -32.4049   75.6017   67.7609 C   0  0  2  0  0  0  0  0  0  0  0  0
  -33.5173   74.7932   67.1174 C   0  0  0  0  0  0  0  0  0  0  0  0
  -32.6317   77.0253   67.1713 C   0  0  0  0  0  0  0  0  0  0  0  0
  -32.7343   75.7547   69.2095 C   0  0  1  0  0  0  0  0  0  0  0  0
  -32.0723   76.9574   69.5988 F   0  0  0  0  0  0  0  0  0  0  0  0
  -34.0551   76.0599   69.4795 F   0  0  0  0  0  0  0  0  0  0  0  0
  1  2  2  0
  2  3  1  0
  2  4  1  0
  4  5  1  1
  4  6  1  0
  6  7  1  0
  7  8  1  6
  7  9  1  0
  7 10  1  0
 10 11  1  6
 10 12  1  0
M  CHG  1   5   1
M  END
$$$$
