
     RDKit          3D

 12 11  0  0  0  0  0  0  0  0999 V2000
  -31.3414   75.6941   55.2446 O   0  0  0  0  0  0  0  0  0  0  0  0
  -31.3612   75.3546   56.4418 C   0  0  0  0  0  0  0  0  0  0  0  0
  -30.3195   74.6625   56.9977 O   0  0  0  0  0  0  0  0  0  0  0  0
  -32.5919   75.7453   57.2473 C   0  0  1  0  0  0  0  0  0  0  0  0
  -33.6858   75.5848   56.3462 N   0  0  0  0  0  4  0  0  0  0  0  0
  -32.5249   74.8992   58.4414 C   0  0  0  0  0  0  0  0  0  0  0  0
  -32.8320   75.3408   59.7841 C   0  0  2  0  0  0  0  0  0  0  0  0
  -33.7062   76.5786   59.8788 C   0  0  0  0  0  0  0  0  0  0  0  0
  -31.5157   75.7977   60.4799 C   0  0  0  0  0  0  0  0  0  0  0  0
  -33.3941   74.3157   60.7135 C   0  0  1  0  0  0  0  0  0  0  0  0
  -32.2786   73.4917   61.0493 F   0  0  0  0  0  0  0  0  0  0  0  0
  -33.7732   74.7959   61.9529 F   0  0  0  0  0  0  0  0  0  0  0  0
  1  2  2  0
  2  3  1  0
  2  4  1  0
  4  5  1  6
  4  6  1  0
  6  7  1  0
  7  8  1  6
  7  9  1  0
  7 10  1  0
 10 11  1  1
 10 12  1  0
M  CHG  1   5   1
M  END
$$$$
