
     RDKit          3D

 12 11  0  0  0  0  0  0  0  0999 V2000
  -27.3965   72.5363   52.2877 O   0  0  0  0  0  0  0  0  0  0  0  0
  -28.3303   71.7316   52.1155 C   0  0  0  0  0  0  0  0  0  0  0  0
  -28.0954   70.3868   52.0164 O   0  0  0  0  0  0  0  0  0  0  0  0
  -29.7327   72.3149   52.0219 C   0  0  1  0  0  0  0  0  0  0  0  0
  -30.4954   71.3266   51.3321 N   0  0  0  0  0  4  0  0  0  0  0  0
  -30.0805   72.6421   53.4069 C   0  0  0  0  0  0  0  0  0  0  0  0
  -30.9099   73.7569   53.8084 C   0  0  2  0  0  0  0  0  0  0  0  0
  -32.4009   73.5716   53.5894 C   0  0  0  0  0  0  0  0  0  0  0  0
  -30.5814   74.9829   52.9056 C   0  0  0  0  0  0  0  0  0  0  0  0
  -30.7153   74.2697   55.1975 C   0  0  1  0  0  0  0  0  0  0  0  0
  -31.7108   75.2813   55.3449 F   0  0  0  0  0  0  0  0  0  0  0  0
  -31.0619   73.3847   56.2010 F   0  0  0  0  0  0  0  0  0  0  0  0
  1  2  2  0
  2  3  1  0
  2  4  1  0
  4  5  1  1
  4  6  1  0
  6  7  1  0
  7  8  1  1
  7  9  1  0
  7 10  1  0
 10 11  1  6
 10 12  1  0
M  CHG  1   5   1
M  END
$$$$
