
     RDKit          3D

 12 11  0  0  0  0  0  0  0  0999 V2000
  -29.0273   74.9886   67.0964 O   0  0  0  0  0  0  0  0  0  0  0  0
  -29.8208   74.2096   66.5372 C   0  0  0  0  0  0  0  0  0  0  0  0
  -29.4733   72.9111   66.2797 O   0  0  0  0  0  0  0  0  0  0  0  0
  -31.1838   74.7707   66.1587 C   0  0  1  0  0  0  0  0  0  0  0  0
  -31.5922   74.0075   65.0250 N   0  0  0  0  0  4  0  0  0  0  0  0
  -31.9661   74.6820   67.3941 C   0  0  0  0  0  0  0  0  0  0  0  0
  -33.1148   75.5044   67.7045 C   0  0  2  0  0  0  0  0  0  0  0  0
  -33.9681   75.9072   66.5148 C   0  0  0  0  0  0  0  0  0  0  0  0
  -32.6217   76.8766   68.2519 C   0  0  0  0  0  0  0  0  0  0  0  0
  -34.0311   74.9993   68.7702 C   0  0  1  0  0  0  0  0  0  0  0  0
  -33.2712   75.1095   69.9729 F   0  0  0  0  0  0  0  0  0  0  0  0
  -35.1133   75.8140   69.0448 F   0  0  0  0  0  0  0  0  0  0  0  0
  1  2  2  0
  2  3  1  0
  2  4  1  0
  4  5  1  6
  4  6  1  0
  6  7  1  0
  7  8  1  6
  7  9  1  0
  7 10  1  0
 10 11  1  1
 10 12  1  0
M  CHG  1   5   1
M  END
$$$$
