
     RDKit          3D

 12 11  0  0  0  0  0  0  0  0999 V2000
  -30.9139   74.7484   64.5734 O   0  0  0  0  0  0  0  0  0  0  0  0
  -31.1061   74.9555   65.7855 C   0  0  0  0  0  0  0  0  0  0  0  0
  -30.0869   74.8435   66.6922 O   0  0  0  0  0  0  0  0  0  0  0  0
  -32.5192   75.3361   66.2027 C   0  0  1  0  0  0  0  0  0  0  0  0
  -32.7553   76.6006   65.5866 N   0  0  0  0  0  4  0  0  0  0  0  0
  -33.3354   74.1872   65.8024 C   0  0  0  0  0  0  0  0  0  0  0  0
  -34.1660   73.4127   66.6980 C   0  0  2  0  0  0  0  0  0  0  0  0
  -35.1091   74.2193   67.5729 C   0  0  0  0  0  0  0  0  0  0  0  0
  -33.2564   72.6998   67.7422 C   0  0  0  0  0  0  0  0  0  0  0  0
  -34.9533   72.3005   66.0867 C   0  0  1  0  0  0  0  0  0  0  0  0
  -35.5525   72.8839   64.9305 F   0  0  0  0  0  0  0  0  0  0  0  0
  -34.1970   71.2859   65.5308 F   0  0  0  0  0  0  0  0  0  0  0  0
  1  2  2  0
  2  3  1  0
  2  4  1  0
  4  5  1  6
  4  6  1  0
  6  7  1  0
  7  8  1  1
  7  9  1  0
  7 10  1  0
 10 11  1  6
 10 12  1  0
M  CHG  1   5   1
M  END
$$$$
