
     RDKit          3D

 12 11  0  0  0  0  0  0  0  0999 V2000
  -27.6014   73.9113   67.7900 O   0  0  0  0  0  0  0  0  0  0  0  0
  -28.0797   74.7693   67.0258 C   0  0  0  0  0  0  0  0  0  0  0  0
  -27.3477   75.8598   66.6407 O   0  0  0  0  0  0  0  0  0  0  0  0
  -29.5066   74.5450   66.5467 C   0  0  1  0  0  0  0  0  0  0  0  0
  -29.6194   73.1330   66.3799 N   0  0  0  0  0  4  0  0  0  0  0  0
  -30.3347   75.2096   67.5560 C   0  0  0  0  0  0  0  0  0  0  0  0
  -31.6988   75.6435   67.3491 C   0  0  2  0  0  0  0  0  0  0  0  0
  -32.4632   74.8972   66.2701 C   0  0  0  0  0  0  0  0  0  0  0  0
  -31.6888   77.1054   66.8121 C   0  0  0  0  0  0  0  0  0  0  0  0
  -32.5708   75.7101   68.5598 C   0  0  1  0  0  0  0  0  0  0  0  0
  -32.0351   76.7896   69.3239 F   0  0  0  0  0  0  0  0  0  0  0  0
  -33.8624   76.1434   68.3266 F   0  0  0  0  0  0  0  0  0  0  0  0
  1  2  2  0
  2  3  1  0
  2  4  1  0
  4  5  1  1
  4  6  1  0
  6  7  1  0
  7  8  1  6
  7  9  1  0
  7 10  1  0
 10 11  1  1
 10 12  1  0
M  CHG  1   5   1
M  END
$$$$
