
     RDKit          3D

 12 11  0  0  0  0  0  0  0  0999 V2000
  -33.8649   73.8476   63.0162 O   0  0  0  0  0  0  0  0  0  0  0  0
  -32.8241   74.1407   63.6325 C   0  0  0  0  0  0  0  0  0  0  0  0
  -31.7398   74.6630   62.9806 O   0  0  0  0  0  0  0  0  0  0  0  0
  -32.8199   73.8906   65.1336 C   0  0  1  0  0  0  0  0  0  0  0  0
  -31.4499   73.6725   65.4650 N   0  0  0  0  0  4  0  0  0  0  0  0
  -33.5101   75.0544   65.6951 C   0  0  0  0  0  0  0  0  0  0  0  0
  -34.2121   75.0669   66.9597 C   0  0  2  0  0  0  0  0  0  0  0  0
  -33.9082   73.9020   67.8849 C   0  0  0  0  0  0  0  0  0  0  0  0
  -35.7378   74.9030   66.6931 C   0  0  0  0  0  0  0  0  0  0  0  0
  -34.1194   76.3218   67.7641 C   0  0  1  0  0  0  0  0  0  0  0  0
  -34.9874   76.0966   68.8741 F   0  0  0  0  0  0  0  0  0  0  0  0
  -32.9051   76.5249   68.3923 F   0  0  0  0  0  0  0  0  0  0  0  0
  1  2  2  0
  2  3  1  0
  2  4  1  0
  4  5  1  1
  4  6  1  0
  6  7  1  0
  7  8  1  1
  7  9  1  0
  7 10  1  0
 10 11  1  1
 10 12  1  0
M  CHG  1   5   1
M  END
$$$$
