
     RDKit          3D

 23 26  0  0  0  0  0  0  0  0999 V2000
   91.6983   93.7338  -42.8409 N   0  0  0  0  0  0  0  0  0  0  0  0
   89.5550   99.3978  -41.2884 N   0  0  0  0  0  4  0  0  0  0  0  0
   91.1749   92.6886  -45.0680 C   0  0  0  0  0  0  0  0  0  0  0  0
   91.2783   93.6994  -44.1195 C   0  0  0  0  0  0  0  0  0  0  0  0
   90.8852   94.9571  -44.5026 C   0  0  0  0  0  0  0  0  0  0  0  0
   91.5980   94.9739  -42.3590 C   0  0  0  0  0  0  0  0  0  0  0  0
   91.0929   95.7599  -43.3748 C   0  0  0  0  0  0  0  0  0  0  0  0
   91.1618   97.6971  -41.9475 C   0  0  0  0  0  0  0  0  0  0  0  0
   92.1806   92.5891  -42.1188 C   0  0  0  0  0  0  0  0  0  0  0  0
   90.5847   91.9038  -47.3357 C   0  0  0  0  0  0  0  0  0  0  0  0
   91.2026   90.6692  -47.3030 C   0  0  0  0  0  0  0  0  0  0  0  0
   90.4066   95.2496  -45.7517 C   0  0  0  0  0  0  0  0  0  0  0  0
   90.3016   94.2535  -46.6959 C   0  0  0  0  0  0  0  0  0  0  0  0
   90.6936   92.9793  -46.3269 C   0  0  0  0  0  0  0  0  0  0  0  0
   90.8791   97.1073  -43.1653 C   0  0  0  0  0  0  0  0  0  0  0  0
   91.6677   96.9272  -40.9192 C   0  0  0  0  0  0  0  0  0  0  0  0
   91.8771   95.5808  -41.1414 C   0  0  0  0  0  0  0  0  0  0  0  0
   91.0522   91.8300  -41.4414 C   0  0  0  0  0  0  0  0  0  0  0  0
   89.8378   91.9510  -48.4945 C   0  0  0  0  0  0  0  0  0  0  0  0
   90.0019   90.8095  -49.1160 O   0  0  0  0  0  0  0  0  0  0  0  0
   90.8089   90.0478  -48.4143 N   0  0  0  0  0  0  0  0  0  0  0  0
   90.9055   99.1639  -41.7905 C   0  0  0  0  0  0  0  0  0  0  0  0
   89.4139  100.8473  -41.1140 C   0  0  0  0  0  0  0  0  0  0  0  0
  4  1  1  0
  1  6  1  0
  1  9  1  0
 22  2  1  0
  2 23  1  0
  3  4  2  0
 14  3  1  0
  4  5  1  0
  5  7  1  0
  5 12  2  0
  7  6  2  0
  6 17  1  0
  7 15  1  0
 15  8  2  0
  8 16  1  0
  8 22  1  0
  9 18  1  0
 10 11  1  0
 10 14  1  0
 10 19  2  0
 11 21  2  0
 12 13  1  0
 13 14  2  0
 16 17  2  0
 19 20  1  0
 20 21  1  0
M  CHG  1   2   1
M  END
$$$$
