
     RDKit          3D

 23 26  0  0  0  0  0  0  0  0999 V2000
   91.5734   93.8930  -43.0280 N   0  0  0  0  0  0  0  0  0  0  0  0
   91.3293  100.0999  -42.1811 N   0  0  0  0  0  4  0  0  0  0  0  0
   91.1703   92.7692  -45.2418 C   0  0  0  0  0  0  0  0  0  0  0  0
   91.1599   93.7965  -44.3055 C   0  0  0  0  0  0  0  0  0  0  0  0
   90.6288   94.9977  -44.7032 C   0  0  0  0  0  0  0  0  0  0  0  0
   91.3351   95.1198  -42.5608 C   0  0  0  0  0  0  0  0  0  0  0  0
   90.7454   95.8322  -43.5852 C   0  0  0  0  0  0  0  0  0  0  0  0
   90.5973   97.7820  -42.1812 C   0  0  0  0  0  0  0  0  0  0  0  0
   92.1805   92.8181  -42.2929 C   0  0  0  0  0  0  0  0  0  0  0  0
   90.6716   91.8963  -47.4992 C   0  0  0  0  0  0  0  0  0  0  0  0
   89.9406   91.8308  -48.6690 C   0  0  0  0  0  0  0  0  0  0  0  0
   90.1206   95.2200  -45.9550 C   0  0  0  0  0  0  0  0  0  0  0  0
   90.1277   94.2072  -46.8871 C   0  0  0  0  0  0  0  0  0  0  0  0
   90.6595   92.9892  -46.5034 C   0  0  0  0  0  0  0  0  0  0  0  0
   90.3823   97.1497  -43.3915 C   0  0  0  0  0  0  0  0  0  0  0  0
   91.1859   97.0858  -41.1445 C   0  0  0  0  0  0  0  0  0  0  0  0
   91.5444   95.7687  -41.3508 C   0  0  0  0  0  0  0  0  0  0  0  0
   91.1424   91.9202  -41.6414 C   0  0  0  0  0  0  0  0  0  0  0  0
   91.4248   90.7428  -47.4287 C   0  0  0  0  0  0  0  0  0  0  0  0
   91.1572   90.0314  -48.4957 O   0  0  0  0  0  0  0  0  0  0  0  0
   90.2792   90.6717  -49.2326 N   0  0  0  0  0  0  0  0  0  0  0  0
   90.1786   99.2127  -42.0414 C   0  0  0  0  0  0  0  0  0  0  0  0
   90.8200  101.4717  -42.0808 C   0  0  0  0  0  0  0  0  0  0  0  0
  4  1  1  0
  1  6  1  0
  1  9  1  0
 22  2  1  0
  2 23  1  0
  3  4  2  0
 14  3  1  0
  4  5  1  0
  5  7  1  0
  5 12  2  0
  7  6  2  0
  6 17  1  0
  7 15  1  0
 15  8  2  0
  8 16  1  0
  8 22  1  0
  9 18  1  0
 10 11  1  0
 10 14  1  0
 10 19  2  0
 11 21  2  0
 12 13  1  0
 13 14  2  0
 16 17  2  0
 19 20  1  0
 20 21  1  0
M  CHG  1   2   1
M  END
$$$$
