
     RDKit          3D

 23 26  0  0  0  0  0  0  0  0999 V2000
   91.8703   93.0434  -44.0096 N   0  0  0  0  0  0  0  0  0  0  0  0
   91.0227   91.6551  -50.0625 N   0  0  0  0  0  4  0  0  0  0  0  0
   91.4903   95.3346  -43.0439 C   0  0  0  0  0  0  0  0  0  0  0  0
   91.4154   94.3101  -43.9804 C   0  0  0  0  0  0  0  0  0  0  0  0
   90.7479   94.5802  -45.1486 C   0  0  0  0  0  0  0  0  0  0  0  0
   91.5277   92.4600  -45.1595 C   0  0  0  0  0  0  0  0  0  0  0  0
   90.8256   93.3962  -45.8913 C   0  0  0  0  0  0  0  0  0  0  0  0
   90.5379   91.8180  -47.6861 C   0  0  0  0  0  0  0  0  0  0  0  0
   92.6150   92.4287  -42.9457 C   0  0  0  0  0  0  0  0  0  0  0  0
   90.9853   97.6425  -42.3192 C   0  0  0  0  0  0  0  0  0  0  0  0
   91.6497   97.6134  -41.1089 C   0  0  0  0  0  0  0  0  0  0  0  0
   90.1665   95.7893  -45.4226 C   0  0  0  0  0  0  0  0  0  0  0  0
   90.2369   96.8082  -44.4997 C   0  0  0  0  0  0  0  0  0  0  0  0
   90.9061   96.5534  -43.3161 C   0  0  0  0  0  0  0  0  0  0  0  0
   90.3379   93.0726  -47.1414 C   0  0  0  0  0  0  0  0  0  0  0  0
   91.2379   90.8682  -46.9694 C   0  0  0  0  0  0  0  0  0  0  0  0
   91.7204   91.2041  -45.7202 C   0  0  0  0  0  0  0  0  0  0  0  0
   91.7046   91.7597  -41.9299 C   0  0  0  0  0  0  0  0  0  0  0  0
   90.4029   98.8880  -42.4303 C   0  0  0  0  0  0  0  0  0  0  0  0
   90.7035   99.5617  -41.3478 O   0  0  0  0  0  0  0  0  0  0  0  0
   91.4414   98.8111  -40.5629 N   0  0  0  0  0  0  0  0  0  0  0  0
   89.9809   91.5360  -49.0470 C   0  0  0  0  0  0  0  0  0  0  0  0
   90.3878   91.3737  -51.3544 C   0  0  0  0  0  0  0  0  0  0  0  0
  4  1  1  0
  1  6  1  0
  1  9  1  0
 22  2  1  0
  2 23  1  0
  3  4  2  0
 14  3  1  0
  4  5  1  0
  5  7  1  0
  5 12  2  0
  7  6  2  0
  6 17  1  0
  7 15  1  0
 15  8  2  0
  8 16  1  0
  8 22  1  0
  9 18  1  0
 10 11  1  0
 10 14  1  0
 10 19  2  0
 11 21  2  0
 12 13  1  0
 13 14  2  0
 16 17  2  0
 19 20  1  0
 20 21  1  0
M  CHG  1   2   1
M  END
$$$$
