
     RDKit          3D

 23 26  0  0  0  0  0  0  0  0999 V2000
   91.5076   93.2870  -43.7489 N   0  0  0  0  0  0  0  0  0  0  0  0
   89.2459   90.5071  -48.9491 N   0  0  0  0  0  4  0  0  0  0  0  0
   91.0890   95.6067  -42.8713 C   0  0  0  0  0  0  0  0  0  0  0  0
   91.0811   94.5633  -43.7895 C   0  0  0  0  0  0  0  0  0  0  0  0
   90.5353   94.8209  -45.0220 C   0  0  0  0  0  0  0  0  0  0  0  0
   91.2639   92.6852  -44.9145 C   0  0  0  0  0  0  0  0  0  0  0  0
   90.6569   93.6191  -45.7295 C   0  0  0  0  0  0  0  0  0  0  0  0
   90.5070   92.0074  -47.5112 C   0  0  0  0  0  0  0  0  0  0  0  0
   92.1325   92.6810  -42.6059 C   0  0  0  0  0  0  0  0  0  0  0  0
   90.5696   97.9403  -42.2458 C   0  0  0  0  0  0  0  0  0  0  0  0
   89.7936   99.0822  -42.2795 C   0  0  0  0  0  0  0  0  0  0  0  0
   90.0107   96.0353  -45.3753 C   0  0  0  0  0  0  0  0  0  0  0  0
   90.0153   97.0730  -44.4709 C   0  0  0  0  0  0  0  0  0  0  0  0
   90.5617   96.8310  -43.2234 C   0  0  0  0  0  0  0  0  0  0  0  0
   90.2844   93.2778  -47.0140 C   0  0  0  0  0  0  0  0  0  0  0  0
   91.1130   91.0595  -46.7111 C   0  0  0  0  0  0  0  0  0  0  0  0
   91.4808   91.4133  -45.4283 C   0  0  0  0  0  0  0  0  0  0  0  0
   91.1133   92.0570  -41.6676 C   0  0  0  0  0  0  0  0  0  0  0  0
   91.3623   98.0238  -41.1200 C   0  0  0  0  0  0  0  0  0  0  0  0
   91.0745   99.1513  -40.5181 O   0  0  0  0  0  0  0  0  0  0  0  0
   90.1465   99.7808  -41.2009 N   0  0  0  0  0  0  0  0  0  0  0  0
   90.0770   91.7065  -48.9136 C   0  0  0  0  0  0  0  0  0  0  0  0
   88.7975   90.3445  -50.3362 C   0  0  0  0  0  0  0  0  0  0  0  0
  4  1  1  0
  1  6  1  0
  1  9  1  0
 22  2  1  0
  2 23  1  0
  3  4  2  0
 14  3  1  0
  4  5  1  0
  5  7  1  0
  5 12  2  0
  7  6  2  0
  6 17  1  0
  7 15  1  0
 15  8  2  0
  8 16  1  0
  8 22  1  0
  9 18  1  0
 10 11  1  0
 10 14  1  0
 10 19  2  0
 11 21  2  0
 12 13  1  0
 13 14  2  0
 16 17  2  0
 19 20  1  0
 20 21  1  0
M  CHG  1   2   1
M  END
$$$$
