
     RDKit          3D

 23 26  0  0  0  0  0  0  0  0999 V2000
   91.6721   93.5737  -42.7491 N   0  0  0  0  0  0  0  0  0  0  0  0
   90.0638   99.4398  -41.2158 N   0  0  0  0  0  4  0  0  0  0  0  0
   91.2623   92.5423  -45.0063 C   0  0  0  0  0  0  0  0  0  0  0  0
   91.3756   93.5562  -44.0622 C   0  0  0  0  0  0  0  0  0  0  0  0
   91.1501   94.8390  -44.4942 C   0  0  0  0  0  0  0  0  0  0  0  0
   91.6517   94.8268  -42.2916 C   0  0  0  0  0  0  0  0  0  0  0  0
   91.3285   95.6391  -43.3595 C   0  0  0  0  0  0  0  0  0  0  0  0
   91.4553   97.5875  -41.9515 C   0  0  0  0  0  0  0  0  0  0  0  0
   91.9647   92.4011  -41.9722 C   0  0  0  0  0  0  0  0  0  0  0  0
   90.8164   91.7758  -47.3128 C   0  0  0  0  0  0  0  0  0  0  0  0
   91.3651   90.5105  -47.2412 C   0  0  0  0  0  0  0  0  0  0  0  0
   90.8258   95.1532  -45.7869 C   0  0  0  0  0  0  0  0  0  0  0  0
   90.7119   94.1542  -46.7269 C   0  0  0  0  0  0  0  0  0  0  0  0
   90.9359   92.8547  -46.3088 C   0  0  0  0  0  0  0  0  0  0  0  0
   91.2328   97.0050  -43.1851 C   0  0  0  0  0  0  0  0  0  0  0  0
   91.7796   96.7914  -40.8712 C   0  0  0  0  0  0  0  0  0  0  0  0
   91.8723   95.4268  -41.0586 C   0  0  0  0  0  0  0  0  0  0  0  0
   93.4585   92.1376  -41.8847 C   0  0  0  0  0  0  0  0  0  0  0  0
   90.1275   91.8503  -48.5056 C   0  0  0  0  0  0  0  0  0  0  0  0
   90.2589   90.6951  -49.1094 O   0  0  0  0  0  0  0  0  0  0  0  0
   90.9906   89.8992  -48.3645 N   0  0  0  0  0  0  0  0  0  0  0  0
   91.3345   99.0753  -41.8347 C   0  0  0  0  0  0  0  0  0  0  0  0
   90.0739  100.8979  -41.0569 C   0  0  0  0  0  0  0  0  0  0  0  0
  4  1  1  0
  1  6  1  0
  1  9  1  0
 22  2  1  0
  2 23  1  0
  3  4  2  0
 14  3  1  0
  4  5  1  0
  5  7  1  0
  5 12  2  0
  7  6  2  0
  6 17  1  0
  7 15  1  0
 15  8  2  0
  8 16  1  0
  8 22  1  0
  9 18  1  0
 10 11  1  0
 10 14  1  0
 10 19  2  0
 11 21  2  0
 12 13  1  0
 13 14  2  0
 16 17  2  0
 19 20  1  0
 20 21  1  0
M  CHG  1   2   1
M  END
$$$$
