
     RDKit          3D

 23 26  0  0  0  0  0  0  0  0999 V2000
   91.7342   92.5987  -44.7127 N   0  0  0  0  0  0  0  0  0  0  0  0
   90.3243   91.9140  -50.7822 N   0  0  0  0  0  4  0  0  0  0  0  0
   91.4303   94.7507  -43.4466 C   0  0  0  0  0  0  0  0  0  0  0  0
   91.2741   93.8439  -44.4885 C   0  0  0  0  0  0  0  0  0  0  0  0
   90.4957   94.2383  -45.5475 C   0  0  0  0  0  0  0  0  0  0  0  0
   91.2876   92.1500  -45.8872 C   0  0  0  0  0  0  0  0  0  0  0  0
   90.5112   93.1529  -46.4314 C   0  0  0  0  0  0  0  0  0  0  0  0
   90.0654   91.7946  -48.3682 C   0  0  0  0  0  0  0  0  0  0  0  0
   92.5822   91.8762  -43.8056 C   0  0  0  0  0  0  0  0  0  0  0  0
   90.9788   96.9456  -42.4049 C   0  0  0  0  0  0  0  0  0  0  0  0
   90.7620   98.3087  -42.4502 C   0  0  0  0  0  0  0  0  0  0  0  0
   89.8812   95.4599  -45.6179 C   0  0  0  0  0  0  0  0  0  0  0  0
   90.0315   96.3627  -44.5898 C   0  0  0  0  0  0  0  0  0  0  0  0
   90.8130   95.9817  -43.5138 C   0  0  0  0  0  0  0  0  0  0  0  0
   89.9086   92.9713  -47.6599 C   0  0  0  0  0  0  0  0  0  0  0  0
   90.8383   90.7799  -47.8402 C   0  0  0  0  0  0  0  0  0  0  0  0
   91.4356   90.9738  -46.6107 C   0  0  0  0  0  0  0  0  0  0  0  0
   91.7787   91.0833  -42.7887 C   0  0  0  0  0  0  0  0  0  0  0  0
   91.3821   96.6434  -41.1208 C   0  0  0  0  0  0  0  0  0  0  0  0
   91.4042   97.7629  -40.4409 O   0  0  0  0  0  0  0  0  0  0  0  0
   91.0378   98.7511  -41.2238 N   0  0  0  0  0  0  0  0  0  0  0  0
   89.3828   91.6661  -49.6946 C   0  0  0  0  0  0  0  0  0  0  0  0
   89.5628   91.8130  -52.0318 C   0  0  0  0  0  0  0  0  0  0  0  0
  4  1  1  0
  1  6  1  0
  1  9  1  0
 22  2  1  0
  2 23  1  0
  3  4  2  0
 14  3  1  0
  4  5  1  0
  5  7  1  0
  5 12  2  0
  7  6  2  0
  6 17  1  0
  7 15  1  0
 15  8  2  0
  8 16  1  0
  8 22  1  0
  9 18  1  0
 10 11  1  0
 10 14  1  0
 10 19  2  0
 11 21  2  0
 12 13  1  0
 13 14  2  0
 16 17  2  0
 19 20  1  0
 20 21  1  0
M  CHG  1   2   1
M  END
$$$$
