
     RDKit          3D

 23 26  0  0  0  0  0  0  0  0999 V2000
   91.4686   93.6459  -42.8333 N   0  0  0  0  0  0  0  0  0  0  0  0
   91.6755   99.8053  -41.5219 N   0  0  0  0  0  4  0  0  0  0  0  0
   91.0960   92.5690  -45.0756 C   0  0  0  0  0  0  0  0  0  0  0  0
   91.1199   93.5897  -44.1324 C   0  0  0  0  0  0  0  0  0  0  0  0
   90.7142   94.8330  -44.5481 C   0  0  0  0  0  0  0  0  0  0  0  0
   91.3084   94.8865  -42.3692 C   0  0  0  0  0  0  0  0  0  0  0  0
   90.8382   95.6501  -43.4182 C   0  0  0  0  0  0  0  0  0  0  0  0
   90.7764   97.5997  -42.0076 C   0  0  0  0  0  0  0  0  0  0  0  0
   91.9417   92.5207  -42.0754 C   0  0  0  0  0  0  0  0  0  0  0  0
   90.6519   91.7503  -47.3645 C   0  0  0  0  0  0  0  0  0  0  0  0
   91.0572   90.4427  -47.1825 C   0  0  0  0  0  0  0  0  0  0  0  0
   90.2966   95.1023  -45.8240 C   0  0  0  0  0  0  0  0  0  0  0  0
   90.2704   94.0963  -46.7631 C   0  0  0  0  0  0  0  0  0  0  0  0
   90.6763   92.8363  -46.3614 C   0  0  0  0  0  0  0  0  0  0  0  0
   90.5767   96.9928  -43.2333 C   0  0  0  0  0  0  0  0  0  0  0  0
   91.2462   96.8523  -40.9462 C   0  0  0  0  0  0  0  0  0  0  0  0
   91.5040   95.5105  -41.1440 C   0  0  0  0  0  0  0  0  0  0  0  0
   93.4585   92.4909  -41.9928 C   0  0  0  0  0  0  0  0  0  0  0  0
   90.2139   91.8596  -48.6680 C   0  0  0  0  0  0  0  0  0  0  0  0
   90.3510   90.6841  -49.2297 O   0  0  0  0  0  0  0  0  0  0  0  0
   90.8498   89.8425  -48.3540 N   0  0  0  0  0  0  0  0  0  0  0  0
   90.4721   99.0601  -41.8785 C   0  0  0  0  0  0  0  0  0  0  0  0
   91.2951  101.2208  -41.4664 C   0  0  0  0  0  0  0  0  0  0  0  0
  4  1  1  0
  1  6  1  0
  1  9  1  0
 22  2  1  0
  2 23  1  0
  3  4  2  0
 14  3  1  0
  4  5  1  0
  5  7  1  0
  5 12  2  0
  7  6  2  0
  6 17  1  0
  7 15  1  0
 15  8  2  0
  8 16  1  0
  8 22  1  0
  9 18  1  0
 10 11  1  0
 10 14  1  0
 10 19  2  0
 11 21  2  0
 12 13  1  0
 13 14  2  0
 16 17  2  0
 19 20  1  0
 20 21  1  0
M  CHG  1   2   1
M  END
$$$$
