
     RDKit          3D

 23 26  0  0  0  0  0  0  0  0999 V2000
   91.6344   93.7087  -43.0427 N   0  0  0  0  0  0  0  0  0  0  0  0
   91.9633   99.8760  -41.8521 N   0  0  0  0  0  4  0  0  0  0  0  0
   91.2546   92.6502  -45.2925 C   0  0  0  0  0  0  0  0  0  0  0  0
   91.2911   93.6654  -44.3437 C   0  0  0  0  0  0  0  0  0  0  0  0
   90.9082   94.9175  -44.7546 C   0  0  0  0  0  0  0  0  0  0  0  0
   91.4929   94.9494  -42.5727 C   0  0  0  0  0  0  0  0  0  0  0  0
   91.0405   95.7264  -43.6198 C   0  0  0  0  0  0  0  0  0  0  0  0
   91.0047   97.6692  -42.1989 C   0  0  0  0  0  0  0  0  0  0  0  0
   92.0851   92.5718  -42.2887 C   0  0  0  0  0  0  0  0  0  0  0  0
   90.8076   91.8513  -47.5878 C   0  0  0  0  0  0  0  0  0  0  0  0
   90.5831   91.9890  -48.9435 C   0  0  0  0  0  0  0  0  0  0  0  0
   90.5013   95.2006  -46.0310 C   0  0  0  0  0  0  0  0  0  0  0  0
   90.4627   94.2001  -46.9756 C   0  0  0  0  0  0  0  0  0  0  0  0
   90.8454   92.9314  -46.5788 C   0  0  0  0  0  0  0  0  0  0  0  0
   90.8007   97.0722  -43.4288 C   0  0  0  0  0  0  0  0  0  0  0  0
   91.4569   96.9084  -41.1394 C   0  0  0  0  0  0  0  0  0  0  0  0
   91.6931   95.5635  -41.3432 C   0  0  0  0  0  0  0  0  0  0  0  0
   93.6009   92.5134  -42.2034 C   0  0  0  0  0  0  0  0  0  0  0  0
   90.9933   90.5063  -47.3439 C   0  0  0  0  0  0  0  0  0  0  0  0
   90.8853   89.8795  -48.4892 O   0  0  0  0  0  0  0  0  0  0  0  0
   90.6425   90.7533  -49.4386 N   0  0  0  0  0  0  0  0  0  0  0  0
   90.7243   99.1338  -42.0634 C   0  0  0  0  0  0  0  0  0  0  0  0
   91.6056  101.2982  -41.8301 C   0  0  0  0  0  0  0  0  0  0  0  0
  4  1  1  0
  1  6  1  0
  1  9  1  0
 22  2  1  0
  2 23  1  0
  3  4  2  0
 14  3  1  0
  4  5  1  0
  5  7  1  0
  5 12  2  0
  7  6  2  0
  6 17  1  0
  7 15  1  0
 15  8  2  0
  8 16  1  0
  8 22  1  0
  9 18  1  0
 10 11  1  0
 10 14  1  0
 10 19  2  0
 11 21  2  0
 12 13  1  0
 13 14  2  0
 16 17  2  0
 19 20  1  0
 20 21  1  0
M  CHG  1   2   1
M  END
$$$$
