
     RDKit          3D

 23 26  0  0  0  0  0  0  0  0999 V2000
   91.7975   93.7685  -42.9726 N   0  0  0  0  0  0  0  0  0  0  0  0
   89.6524   99.4962  -41.6426 N   0  0  0  0  0  4  0  0  0  0  0  0
   91.5255   92.7155  -45.2406 C   0  0  0  0  0  0  0  0  0  0  0  0
   91.5376   93.7324  -44.2930 C   0  0  0  0  0  0  0  0  0  0  0  0
   91.2279   94.9959  -44.7299 C   0  0  0  0  0  0  0  0  0  0  0  0
   91.6711   95.0153  -42.5148 C   0  0  0  0  0  0  0  0  0  0  0  0
   91.3159   95.8040  -43.5902 C   0  0  0  0  0  0  0  0  0  0  0  0
   91.2591   97.7525  -42.1778 C   0  0  0  0  0  0  0  0  0  0  0  0
   92.1568   92.6190  -42.1892 C   0  0  0  0  0  0  0  0  0  0  0  0
   91.1989   91.9241  -47.5587 C   0  0  0  0  0  0  0  0  0  0  0  0
   91.5456   90.6020  -47.3613 C   0  0  0  0  0  0  0  0  0  0  0  0
   90.9148   95.2884  -46.0303 C   0  0  0  0  0  0  0  0  0  0  0  0
   90.9009   94.2863  -46.9738 C   0  0  0  0  0  0  0  0  0  0  0  0
   91.2108   93.0061  -46.5510 C   0  0  0  0  0  0  0  0  0  0  0  0
   91.1134   97.1584  -43.4173 C   0  0  0  0  0  0  0  0  0  0  0  0
   91.6139   96.9800  -41.0900 C   0  0  0  0  0  0  0  0  0  0  0  0
   91.8137   95.6267  -41.2759 C   0  0  0  0  0  0  0  0  0  0  0  0
   93.6631   92.4774  -42.0490 C   0  0  0  0  0  0  0  0  0  0  0  0
   90.8344   92.0526  -48.8829 C   0  0  0  0  0  0  0  0  0  0  0  0
   90.9572   90.8741  -49.4416 O   0  0  0  0  0  0  0  0  0  0  0  0
   91.3779   90.0125  -48.5447 N   0  0  0  0  0  0  0  0  0  0  0  0
   91.0240   99.2267  -42.0630 C   0  0  0  0  0  0  0  0  0  0  0  0
   89.5326  100.9509  -41.4982 C   0  0  0  0  0  0  0  0  0  0  0  0
  4  1  1  0
  1  6  1  0
  1  9  1  0
 22  2  1  0
  2 23  1  0
  3  4  2  0
 14  3  1  0
  4  5  1  0
  5  7  1  0
  5 12  2  0
  7  6  2  0
  6 17  1  0
  7 15  1  0
 15  8  2  0
  8 16  1  0
  8 22  1  0
  9 18  1  0
 10 11  1  0
 10 14  1  0
 10 19  2  0
 11 21  2  0
 12 13  1  0
 13 14  2  0
 16 17  2  0
 19 20  1  0
 20 21  1  0
M  CHG  1   2   1
M  END
$$$$
