
     RDKit          3D

 23 26  0  0  0  0  0  0  0  0999 V2000
   91.3882   92.3953  -44.8654 N   0  0  0  0  0  0  0  0  0  0  0  0
   90.4651   92.1887  -51.0784 N   0  0  0  0  0  4  0  0  0  0  0  0
   91.2241   94.4555  -43.4318 C   0  0  0  0  0  0  0  0  0  0  0  0
   91.0575   93.6647  -44.5628 C   0  0  0  0  0  0  0  0  0  0  0  0
   90.4277   94.2389  -45.6383 C   0  0  0  0  0  0  0  0  0  0  0  0
   90.9992   92.1044  -46.1081 C   0  0  0  0  0  0  0  0  0  0  0  0
   90.3961   93.2372  -46.6157 C   0  0  0  0  0  0  0  0  0  0  0  0
   89.9703   92.1103  -48.6998 C   0  0  0  0  0  0  0  0  0  0  0  0
   92.0623   91.5006  -43.9658 C   0  0  0  0  0  0  0  0  0  0  0  0
   90.9392   96.5949  -42.2285 C   0  0  0  0  0  0  0  0  0  0  0  0
   90.4480   97.8697  -42.0265 C   0  0  0  0  0  0  0  0  0  0  0  0
   89.9678   95.5286  -45.6424 C   0  0  0  0  0  0  0  0  0  0  0  0
   90.1295   96.3173  -44.5259 C   0  0  0  0  0  0  0  0  0  0  0  0
   90.7624   95.7545  -43.4321 C   0  0  0  0  0  0  0  0  0  0  0  0
   89.8885   93.2342  -47.8993 C   0  0  0  0  0  0  0  0  0  0  0  0
   90.5701   90.9675  -48.2097 C   0  0  0  0  0  0  0  0  0  0  0  0
   91.0737   90.9832  -46.9244 C   0  0  0  0  0  0  0  0  0  0  0  0
   93.5690   91.6939  -43.9980 C   0  0  0  0  0  0  0  0  0  0  0  0
   91.6323   96.2440  -41.0887 C   0  0  0  0  0  0  0  0  0  0  0  0
   91.5579   97.2525  -40.2559 O   0  0  0  0  0  0  0  0  0  0  0  0
   90.8578   98.2169  -40.8070 N   0  0  0  0  0  0  0  0  0  0  0  0
   89.3985   92.1778  -50.0820 C   0  0  0  0  0  0  0  0  0  0  0  0
   89.8166   92.2775  -52.3909 C   0  0  0  0  0  0  0  0  0  0  0  0
  4  1  1  0
  1  6  1  0
  1  9  1  0
 22  2  1  0
  2 23  1  0
  3  4  2  0
 14  3  1  0
  4  5  1  0
  5  7  1  0
  5 12  2  0
  7  6  2  0
  6 17  1  0
  7 15  1  0
 15  8  2  0
  8 16  1  0
  8 22  1  0
  9 18  1  0
 10 11  1  0
 10 14  1  0
 10 19  2  0
 11 21  2  0
 12 13  1  0
 13 14  2  0
 16 17  2  0
 19 20  1  0
 20 21  1  0
M  CHG  1   2   1
M  END
$$$$
