
     RDKit          3D

 23 26  0  0  0  0  0  0  0  0999 V2000
   91.7041   94.0448  -43.0289 N   0  0  0  0  0  0  0  0  0  0  0  0
   89.6948   99.7371  -41.2855 N   0  0  0  0  0  4  0  0  0  0  0  0
   91.1833   92.9258  -45.2205 C   0  0  0  0  0  0  0  0  0  0  0  0
   91.2789   93.9663  -44.3038 C   0  0  0  0  0  0  0  0  0  0  0  0
   90.8694   95.2070  -44.7234 C   0  0  0  0  0  0  0  0  0  0  0  0
   91.5913   95.2978  -42.5847 C   0  0  0  0  0  0  0  0  0  0  0  0
   91.0726   96.0464  -43.6217 C   0  0  0  0  0  0  0  0  0  0  0  0
   91.1250   98.0271  -42.2547 C   0  0  0  0  0  0  0  0  0  0  0  0
   92.2028   92.9284  -42.2744 C   0  0  0  0  0  0  0  0  0  0  0  0
   90.5925   92.0651  -47.4603 C   0  0  0  0  0  0  0  0  0  0  0  0
   91.2891   90.8729  -47.4376 C   0  0  0  0  0  0  0  0  0  0  0  0
   90.3820   95.4556  -45.9786 C   0  0  0  0  0  0  0  0  0  0  0  0
   90.2847   94.4299  -46.8914 C   0  0  0  0  0  0  0  0  0  0  0  0
   90.6931   93.1722  -46.4854 C   0  0  0  0  0  0  0  0  0  0  0  0
   90.8439   97.3971  -43.4525 C   0  0  0  0  0  0  0  0  0  0  0  0
   91.6442   97.2950  -41.2057 C   0  0  0  0  0  0  0  0  0  0  0  0
   91.8685   95.9450  -41.3875 C   0  0  0  0  0  0  0  0  0  0  0  0
   91.0891   92.1917  -41.5496 C   0  0  0  0  0  0  0  0  0  0  0  0
   89.7752   92.0341  -48.5712 C   0  0  0  0  0  0  0  0  0  0  0  0
   89.9743   90.8887  -49.1751 O   0  0  0  0  0  0  0  0  0  0  0  0
   90.8695   90.1983  -48.5075 N   0  0  0  0  0  0  0  0  0  0  0  0
   90.8521   99.4950  -42.1414 C   0  0  0  0  0  0  0  0  0  0  0  0
   89.5344  101.1921  -41.1930 C   0  0  0  0  0  0  0  0  0  0  0  0
  4  1  1  0
  1  6  1  0
  1  9  1  0
 22  2  1  0
  2 23  1  0
  3  4  2  0
 14  3  1  0
  4  5  1  0
  5  7  1  0
  5 12  2  0
  7  6  2  0
  6 17  1  0
  7 15  1  0
 15  8  2  0
  8 16  1  0
  8 22  1  0
  9 18  1  0
 10 11  1  0
 10 14  1  0
 10 19  2  0
 11 21  2  0
 12 13  1  0
 13 14  2  0
 16 17  2  0
 19 20  1  0
 20 21  1  0
M  CHG  1   2   1
M  END
$$$$
