
     RDKit          3D

 23 26  0  0  0  0  0  0  0  0999 V2000
   91.7591   93.8404  -42.9310 N   0  0  0  0  0  0  0  0  0  0  0  0
   89.6061   99.5098  -41.3794 N   0  0  0  0  0  4  0  0  0  0  0  0
   91.2632   92.7631  -45.1491 C   0  0  0  0  0  0  0  0  0  0  0  0
   91.3517   93.7868  -44.2130 C   0  0  0  0  0  0  0  0  0  0  0  0
   90.9552   95.0371  -44.6163 C   0  0  0  0  0  0  0  0  0  0  0  0
   91.6471   95.0860  -42.4664 C   0  0  0  0  0  0  0  0  0  0  0  0
   91.1474   95.8558  -43.4972 C   0  0  0  0  0  0  0  0  0  0  0  0
   91.1916   97.8119  -42.0949 C   0  0  0  0  0  0  0  0  0  0  0  0
   92.2408   92.7080  -42.1893 C   0  0  0  0  0  0  0  0  0  0  0  0
   90.6994   91.9454  -47.4118 C   0  0  0  0  0  0  0  0  0  0  0  0
   90.1437   92.0194  -48.6739 C   0  0  0  0  0  0  0  0  0  0  0  0
   90.4871   95.3106  -45.8737 C   0  0  0  0  0  0  0  0  0  0  0  0
   90.3969   94.3016  -46.8057 C   0  0  0  0  0  0  0  0  0  0  0  0
   90.7924   93.0346  -46.4162 C   0  0  0  0  0  0  0  0  0  0  0  0
   90.9240   97.2046  -43.3075 C   0  0  0  0  0  0  0  0  0  0  0  0
   91.6917   97.0584  -41.0518 C   0  0  0  0  0  0  0  0  0  0  0  0
   91.9109   95.7105  -41.2542 C   0  0  0  0  0  0  0  0  0  0  0  0
   91.1039   91.9024  -41.5837 C   0  0  0  0  0  0  0  0  0  0  0  0
   91.1581   90.6548  -47.2477 C   0  0  0  0  0  0  0  0  0  0  0  0
   90.8906   89.9984  -48.3493 O   0  0  0  0  0  0  0  0  0  0  0  0
   90.2902   90.8022  -49.1962 N   0  0  0  0  0  0  0  0  0  0  0  0
   90.9255   99.2791  -41.9596 C   0  0  0  0  0  0  0  0  0  0  0  0
   89.4623  100.9607  -41.2198 C   0  0  0  0  0  0  0  0  0  0  0  0
  4  1  1  0
  1  6  1  0
  1  9  1  0
 22  2  1  0
  2 23  1  0
  3  4  2  0
 14  3  1  0
  4  5  1  0
  5  7  1  0
  5 12  2  0
  7  6  2  0
  6 17  1  0
  7 15  1  0
 15  8  2  0
  8 16  1  0
  8 22  1  0
  9 18  1  0
 10 11  1  0
 10 14  1  0
 10 19  2  0
 11 21  2  0
 12 13  1  0
 13 14  2  0
 16 17  2  0
 19 20  1  0
 20 21  1  0
M  CHG  1   2   1
M  END
$$$$
