
     RDKit          3D

 23 26  0  0  0  0  0  0  0  0999 V2000
   91.7066   93.8162  -43.0576 N   0  0  0  0  0  0  0  0  0  0  0  0
   91.5664  100.0060  -42.0848 N   0  0  0  0  0  4  0  0  0  0  0  0
   91.2657   92.7520  -45.2936 C   0  0  0  0  0  0  0  0  0  0  0  0
   91.2803   93.7568  -44.3332 C   0  0  0  0  0  0  0  0  0  0  0  0
   90.7652   94.9754  -44.6974 C   0  0  0  0  0  0  0  0  0  0  0  0
   91.4923   95.0352  -42.5593 C   0  0  0  0  0  0  0  0  0  0  0  0
   90.9051   95.7811  -43.5612 C   0  0  0  0  0  0  0  0  0  0  0  0
   90.8010   97.6990  -42.1101 C   0  0  0  0  0  0  0  0  0  0  0  0
   92.3027   92.7146  -42.3538 C   0  0  0  0  0  0  0  0  0  0  0  0
   90.7330   91.9411  -47.5663 C   0  0  0  0  0  0  0  0  0  0  0  0
   90.0162   91.9302  -48.7466 C   0  0  0  0  0  0  0  0  0  0  0  0
   90.2496   95.2355  -45.9389 C   0  0  0  0  0  0  0  0  0  0  0  0
   90.2320   94.2451  -46.8947 C   0  0  0  0  0  0  0  0  0  0  0  0
   90.7475   93.0101  -46.5449 C   0  0  0  0  0  0  0  0  0  0  0  0
   90.5652   97.0993  -43.3330 C   0  0  0  0  0  0  0  0  0  0  0  0
   91.3874   96.9691  -41.0956 C   0  0  0  0  0  0  0  0  0  0  0  0
   91.7228   95.6517  -41.3364 C   0  0  0  0  0  0  0  0  0  0  0  0
   91.2564   91.8238  -41.7055 C   0  0  0  0  0  0  0  0  0  0  0  0
   91.4424   90.7591  -47.5138 C   0  0  0  0  0  0  0  0  0  0  0  0
   91.1634   90.0834  -48.6008 O   0  0  0  0  0  0  0  0  0  0  0  0
   90.3196   90.7729  -49.3334 N   0  0  0  0  0  0  0  0  0  0  0  0
   90.4068   99.1325  -41.9327 C   0  0  0  0  0  0  0  0  0  0  0  0
   91.0857  101.3808  -41.9107 C   0  0  0  0  0  0  0  0  0  0  0  0
  4  1  1  0
  1  6  1  0
  1  9  1  0
 22  2  1  0
  2 23  1  0
  3  4  2  0
 14  3  1  0
  4  5  1  0
  5  7  1  0
  5 12  2  0
  7  6  2  0
  6 17  1  0
  7 15  1  0
 15  8  2  0
  8 16  1  0
  8 22  1  0
  9 18  1  0
 10 11  1  0
 10 14  1  0
 10 19  2  0
 11 21  2  0
 12 13  1  0
 13 14  2  0
 16 17  2  0
 19 20  1  0
 20 21  1  0
M  CHG  1   2   1
M  END
$$$$
