
     RDKit          3D

 23 26  0  0  0  0  0  0  0  0999 V2000
   91.5106   92.9379  -43.5549 N   0  0  0  0  0  0  0  0  0  0  0  0
   89.3456   90.7622  -49.0329 N   0  0  0  0  0  4  0  0  0  0  0  0
   91.1731   95.2799  -42.7019 C   0  0  0  0  0  0  0  0  0  0  0  0
   91.1942   94.2444  -43.6289 C   0  0  0  0  0  0  0  0  0  0  0  0
   90.8237   94.5501  -44.9143 C   0  0  0  0  0  0  0  0  0  0  0  0
   91.3631   92.3625  -44.7496 C   0  0  0  0  0  0  0  0  0  0  0  0
   90.9349   93.3454  -45.6187 C   0  0  0  0  0  0  0  0  0  0  0  0
   90.8752   91.7585  -47.4278 C   0  0  0  0  0  0  0  0  0  0  0  0
   91.9425   92.2790  -42.3534 C   0  0  0  0  0  0  0  0  0  0  0  0
   90.7676   97.6449  -42.1112 C   0  0  0  0  0  0  0  0  0  0  0  0
   90.9331   97.5383  -40.7443 C   0  0  0  0  0  0  0  0  0  0  0  0
   90.4433   95.8041  -45.3114 C   0  0  0  0  0  0  0  0  0  0  0  0
   90.4202   96.8342  -44.3987 C   0  0  0  0  0  0  0  0  0  0  0  0
   90.7906   96.5439  -43.0979 C   0  0  0  0  0  0  0  0  0  0  0  0
   90.6950   93.0405  -46.9433 C   0  0  0  0  0  0  0  0  0  0  0  0
   91.3031   90.7618  -46.5737 C   0  0  0  0  0  0  0  0  0  0  0  0
   91.5396   91.0795  -45.2512 C   0  0  0  0  0  0  0  0  0  0  0  0
   93.3998   92.5723  -42.0391 C   0  0  0  0  0  0  0  0  0  0  0  0
   90.5755   98.9818  -42.3916 C   0  0  0  0  0  0  0  0  0  0  0  0
   90.6239   99.6336  -41.2563 O   0  0  0  0  0  0  0  0  0  0  0  0
   90.8354   98.7831  -40.2786 N   0  0  0  0  0  0  0  0  0  0  0  0
   90.5959   91.4989  -48.8757 C   0  0  0  0  0  0  0  0  0  0  0  0
   89.0997   90.6497  -50.4745 C   0  0  0  0  0  0  0  0  0  0  0  0
  4  1  1  0
  1  6  1  0
  1  9  1  0
 22  2  1  0
  2 23  1  0
  3  4  2  0
 14  3  1  0
  4  5  1  0
  5  7  1  0
  5 12  2  0
  7  6  2  0
  6 17  1  0
  7 15  1  0
 15  8  2  0
  8 16  1  0
  8 22  1  0
  9 18  1  0
 10 11  1  0
 10 14  1  0
 10 19  2  0
 11 21  2  0
 12 13  1  0
 13 14  2  0
 16 17  2  0
 19 20  1  0
 20 21  1  0
M  CHG  1   2   1
M  END
$$$$
