
     RDKit          3D

 23 26  0  0  0  0  0  0  0  0999 V2000
   91.8221   93.9133  -42.9291 N   0  0  0  0  0  0  0  0  0  0  0  0
   89.5500   99.5129  -41.2253 N   0  0  0  0  0  4  0  0  0  0  0  0
   91.3738   92.7932  -45.1361 C   0  0  0  0  0  0  0  0  0  0  0  0
   91.4186   93.8294  -44.2107 C   0  0  0  0  0  0  0  0  0  0  0  0
   90.9710   95.0578  -44.6275 C   0  0  0  0  0  0  0  0  0  0  0  0
   91.6580   95.1581  -42.4777 C   0  0  0  0  0  0  0  0  0  0  0  0
   91.1279   95.8955  -43.5169 C   0  0  0  0  0  0  0  0  0  0  0  0
   91.0893   97.8663  -42.1353 C   0  0  0  0  0  0  0  0  0  0  0  0
   92.3496   92.8098  -42.1752 C   0  0  0  0  0  0  0  0  0  0  0  0
   90.8469   91.9290  -47.3904 C   0  0  0  0  0  0  0  0  0  0  0  0
   90.7591   92.0451  -48.7637 C   0  0  0  0  0  0  0  0  0  0  0  0
   90.4934   95.2984  -45.8880 C   0  0  0  0  0  0  0  0  0  0  0  0
   90.4462   94.2768  -46.8093 C   0  0  0  0  0  0  0  0  0  0  0  0
   90.8935   93.0315  -46.4063 C   0  0  0  0  0  0  0  0  0  0  0  0
   90.8485   97.2358  -43.3416 C   0  0  0  0  0  0  0  0  0  0  0  0
   91.6191   97.1453  -41.0839 C   0  0  0  0  0  0  0  0  0  0  0  0
   91.8943   95.8056  -41.2720 C   0  0  0  0  0  0  0  0  0  0  0  0
   91.2539   92.0360  -41.4617 C   0  0  0  0  0  0  0  0  0  0  0  0
   90.8845   90.5808  -47.1008 C   0  0  0  0  0  0  0  0  0  0  0  0
   90.8225   89.9317  -48.2370 O   0  0  0  0  0  0  0  0  0  0  0  0
   90.7482   90.7945  -49.2239 N   0  0  0  0  0  0  0  0  0  0  0  0
   90.7623   99.3226  -42.0157 C   0  0  0  0  0  0  0  0  0  0  0  0
   89.3535  100.9606  -41.0946 C   0  0  0  0  0  0  0  0  0  0  0  0
  4  1  1  0
  1  6  1  0
  1  9  1  0
 22  2  1  0
  2 23  1  0
  3  4  2  0
 14  3  1  0
  4  5  1  0
  5  7  1  0
  5 12  2  0
  7  6  2  0
  6 17  1  0
  7 15  1  0
 15  8  2  0
  8 16  1  0
  8 22  1  0
  9 18  1  0
 10 11  1  0
 10 14  1  0
 10 19  2  0
 11 21  2  0
 12 13  1  0
 13 14  2  0
 16 17  2  0
 19 20  1  0
 20 21  1  0
M  CHG  1   2   1
M  END
$$$$
