
     RDKit          3D

 23 26  0  0  0  0  0  0  0  0999 V2000
   90.5768   92.0435  -47.0947 N   0  0  0  0  0  0  0  0  0  0  0  0
   88.9603   95.7304  -51.8998 N   0  0  0  0  0  4  0  0  0  0  0  0
   91.3050   92.9184  -44.8517 C   0  0  0  0  0  0  0  0  0  0  0  0
   90.7415   92.9593  -46.1217 C   0  0  0  0  0  0  0  0  0  0  0  0
   90.2223   94.1603  -46.5355 C   0  0  0  0  0  0  0  0  0  0  0  0
   89.9645   92.5950  -48.1440 C   0  0  0  0  0  0  0  0  0  0  0  0
   89.7307   93.9169  -47.8235 C   0  0  0  0  0  0  0  0  0  0  0  0
   88.6952   94.2819  -49.9658 C   0  0  0  0  0  0  0  0  0  0  0  0
   91.0061   90.6759  -46.9967 C   0  0  0  0  0  0  0  0  0  0  0  0
   91.9199   94.0126  -42.7231 C   0  0  0  0  0  0  0  0  0  0  0  0
   92.0186   95.0562  -41.8240 C   0  0  0  0  0  0  0  0  0  0  0  0
   90.2365   95.2930  -45.7664 C   0  0  0  0  0  0  0  0  0  0  0  0
   90.7929   95.2596  -44.5078 C   0  0  0  0  0  0  0  0  0  0  0  0
   91.3211   94.0569  -44.0743 C   0  0  0  0  0  0  0  0  0  0  0  0
   89.1019   94.7472  -48.7293 C   0  0  0  0  0  0  0  0  0  0  0  0
   88.9205   92.9627  -50.3046 C   0  0  0  0  0  0  0  0  0  0  0  0
   89.5502   92.1424  -49.3899 C   0  0  0  0  0  0  0  0  0  0  0  0
   92.4707   90.5140  -47.3667 C   0  0  0  0  0  0  0  0  0  0  0  0
   92.4877   92.9077  -42.1232 C   0  0  0  0  0  0  0  0  0  0  0  0
   92.9008   93.2732  -40.9349 O   0  0  0  0  0  0  0  0  0  0  0  0
   92.6251   94.5440  -40.7537 N   0  0  0  0  0  0  0  0  0  0  0  0
   88.0189   95.2380  -50.8987 C   0  0  0  0  0  0  0  0  0  0  0  0
   88.2017   96.6071  -52.7983 C   0  0  0  0  0  0  0  0  0  0  0  0
  4  1  1  0
  1  6  1  0
  1  9  1  0
 22  2  1  0
  2 23  1  0
  3  4  2  0
 14  3  1  0
  4  5  1  0
  5  7  1  0
  5 12  2  0
  7  6  2  0
  6 17  1  0
  7 15  1  0
 15  8  2  0
  8 16  1  0
  8 22  1  0
  9 18  1  0
 10 11  1  0
 10 14  1  0
 10 19  2  0
 11 21  2  0
 12 13  1  0
 13 14  2  0
 16 17  2  0
 19 20  1  0
 20 21  1  0
M  CHG  1   2   1
M  END
$$$$
