
     RDKit          3D

 23 26  0  0  0  0  0  0  0  0999 V2000
   91.7492   93.5635  -42.9064 N   0  0  0  0  0  0  0  0  0  0  0  0
   91.9083   99.7541  -42.0416 N   0  0  0  0  0  4  0  0  0  0  0  0
   91.3854   92.5517  -45.1802 C   0  0  0  0  0  0  0  0  0  0  0  0
   91.4025   93.5440  -44.2071 C   0  0  0  0  0  0  0  0  0  0  0  0
   90.9904   94.7969  -44.5862 C   0  0  0  0  0  0  0  0  0  0  0  0
   91.5816   94.7888  -42.4059 C   0  0  0  0  0  0  0  0  0  0  0  0
   91.1085   95.5807  -43.4324 C   0  0  0  0  0  0  0  0  0  0  0  0
   91.0342   97.4872  -41.9646 C   0  0  0  0  0  0  0  0  0  0  0  0
   92.2276   92.4189  -42.1815 C   0  0  0  0  0  0  0  0  0  0  0  0
   90.9486   91.7989  -47.4930 C   0  0  0  0  0  0  0  0  0  0  0  0
   90.5273   91.9261  -48.8020 C   0  0  0  0  0  0  0  0  0  0  0  0
   90.5730   95.1017  -45.8542 C   0  0  0  0  0  0  0  0  0  0  0  0
   90.5535   94.1238  -46.8227 C   0  0  0  0  0  0  0  0  0  0  0  0
   90.9658   92.8547  -46.4581 C   0  0  0  0  0  0  0  0  0  0  0  0
   90.8394   96.9158  -43.2081 C   0  0  0  0  0  0  0  0  0  0  0  0
   91.5068   96.7112  -40.9252 C   0  0  0  0  0  0  0  0  0  0  0  0
   91.7722   95.3773  -41.1624 C   0  0  0  0  0  0  0  0  0  0  0  0
   93.7449   92.3871  -42.1104 C   0  0  0  0  0  0  0  0  0  0  0  0
   91.3563   90.4917  -47.3253 C   0  0  0  0  0  0  0  0  0  0  0  0
   91.1871   89.8763  -48.4693 O   0  0  0  0  0  0  0  0  0  0  0  0
   90.6967   90.7215  -49.3461 N   0  0  0  0  0  0  0  0  0  0  0  0
   90.7216   98.9414  -41.7926 C   0  0  0  0  0  0  0  0  0  0  0  0
   91.5013  101.1548  -41.8878 C   0  0  0  0  0  0  0  0  0  0  0  0
  4  1  1  0
  1  6  1  0
  1  9  1  0
 22  2  1  0
  2 23  1  0
  3  4  2  0
 14  3  1  0
  4  5  1  0
  5  7  1  0
  5 12  2  0
  7  6  2  0
  6 17  1  0
  7 15  1  0
 15  8  2  0
  8 16  1  0
  8 22  1  0
  9 18  1  0
 10 11  1  0
 10 14  1  0
 10 19  2  0
 11 21  2  0
 12 13  1  0
 13 14  2  0
 16 17  2  0
 19 20  1  0
 20 21  1  0
M  CHG  1   2   1
M  END
$$$$
