
     RDKit          3D

 23 26  0  0  0  0  0  0  0  0999 V2000
   91.7762   94.0304  -43.0298 N   0  0  0  0  0  0  0  0  0  0  0  0
   91.7238  100.2222  -41.8286 N   0  0  0  0  0  4  0  0  0  0  0  0
   91.3556   92.8627  -45.2175 C   0  0  0  0  0  0  0  0  0  0  0  0
   91.3724   93.9144  -44.3088 C   0  0  0  0  0  0  0  0  0  0  0  0
   90.8883   95.1225  -44.7438 C   0  0  0  0  0  0  0  0  0  0  0  0
   91.5770   95.2770  -42.5978 C   0  0  0  0  0  0  0  0  0  0  0  0
   91.0233   95.9820  -43.6471 C   0  0  0  0  0  0  0  0  0  0  0  0
   90.9306   97.9727  -42.2969 C   0  0  0  0  0  0  0  0  0  0  0  0
   92.3373   92.9549  -42.2600 C   0  0  0  0  0  0  0  0  0  0  0  0
   90.8488   91.9477  -47.4563 C   0  0  0  0  0  0  0  0  0  0  0  0
   90.2910   91.9500  -48.7196 C   0  0  0  0  0  0  0  0  0  0  0  0
   90.4009   95.3290  -46.0067 C   0  0  0  0  0  0  0  0  0  0  0  0
   90.3813   94.2919  -46.9115 C   0  0  0  0  0  0  0  0  0  0  0  0
   90.8657   93.0667  -46.4900 C   0  0  0  0  0  0  0  0  0  0  0  0
   90.7054   97.3163  -43.4923 C   0  0  0  0  0  0  0  0  0  0  0  0
   91.4836   97.2843  -41.2357 C   0  0  0  0  0  0  0  0  0  0  0  0
   91.7971   95.9502  -41.4032 C   0  0  0  0  0  0  0  0  0  0  0  0
   91.2691   91.9923  -41.7691 C   0  0  0  0  0  0  0  0  0  0  0  0
   91.3949   90.6965  -47.2584 C   0  0  0  0  0  0  0  0  0  0  0  0
   91.1744   89.9943  -48.3421 O   0  0  0  0  0  0  0  0  0  0  0  0
   90.5213   90.7324  -49.2096 N   0  0  0  0  0  0  0  0  0  0  0  0
   90.5617   99.4206  -42.1995 C   0  0  0  0  0  0  0  0  0  0  0  0
   91.2918  101.6239  -41.8410 C   0  0  0  0  0  0  0  0  0  0  0  0
  4  1  1  0
  1  6  1  0
  1  9  1  0
 22  2  1  0
  2 23  1  0
  3  4  2  0
 14  3  1  0
  4  5  1  0
  5  7  1  0
  5 12  2  0
  7  6  2  0
  6 17  1  0
  7 15  1  0
 15  8  2  0
  8 16  1  0
  8 22  1  0
  9 18  1  0
 10 11  1  0
 10 14  1  0
 10 19  2  0
 11 21  2  0
 12 13  1  0
 13 14  2  0
 16 17  2  0
 19 20  1  0
 20 21  1  0
M  CHG  1   2   1
M  END
$$$$
