
     RDKit          3D

 23 26  0  0  0  0  0  0  0  0999 V2000
   91.7854   93.3999  -43.7620 N   0  0  0  0  0  0  0  0  0  0  0  0
   89.2257   90.7832  -48.8641 N   0  0  0  0  0  4  0  0  0  0  0  0
   91.3311   95.7411  -42.9626 C   0  0  0  0  0  0  0  0  0  0  0  0
   91.3429   94.6685  -43.8467 C   0  0  0  0  0  0  0  0  0  0  0  0
   90.8023   94.8792  -45.0903 C   0  0  0  0  0  0  0  0  0  0  0  0
   91.5574   92.7577  -44.9091 C   0  0  0  0  0  0  0  0  0  0  0  0
   90.9442   93.6568  -45.7578 C   0  0  0  0  0  0  0  0  0  0  0  0
   90.8272   91.9867  -47.4874 C   0  0  0  0  0  0  0  0  0  0  0  0
   92.4100   92.8393  -42.5959 C   0  0  0  0  0  0  0  0  0  0  0  0
   90.7776   98.0866  -42.4163 C   0  0  0  0  0  0  0  0  0  0  0  0
   91.4370   98.1717  -41.2059 C   0  0  0  0  0  0  0  0  0  0  0  0
   90.2647   96.0746  -45.4861 C   0  0  0  0  0  0  0  0  0  0  0  0
   90.2497   97.1409  -44.6158 C   0  0  0  0  0  0  0  0  0  0  0  0
   90.7906   96.9464  -43.3575 C   0  0  0  0  0  0  0  0  0  0  0  0
   90.5849   93.2695  -47.0329 C   0  0  0  0  0  0  0  0  0  0  0  0
   91.4397   91.0731  -46.6531 C   0  0  0  0  0  0  0  0  0  0  0  0
   91.7942   91.4728  -45.3801 C   0  0  0  0  0  0  0  0  0  0  0  0
   91.3966   92.1966  -41.6641 C   0  0  0  0  0  0  0  0  0  0  0  0
   90.0971   99.2740  -42.5897 C   0  0  0  0  0  0  0  0  0  0  0  0
   90.3378  100.0228  -41.5421 O   0  0  0  0  0  0  0  0  0  0  0  0
   91.1305   99.3743  -40.7206 N   0  0  0  0  0  0  0  0  0  0  0  0
   90.4108   91.6352  -48.8820 C   0  0  0  0  0  0  0  0  0  0  0  0
   88.8697   90.5249  -50.2634 C   0  0  0  0  0  0  0  0  0  0  0  0
  4  1  1  0
  1  6  1  0
  1  9  1  0
 22  2  1  0
  2 23  1  0
  3  4  2  0
 14  3  1  0
  4  5  1  0
  5  7  1  0
  5 12  2  0
  7  6  2  0
  6 17  1  0
  7 15  1  0
 15  8  2  0
  8 16  1  0
  8 22  1  0
  9 18  1  0
 10 11  1  0
 10 14  1  0
 10 19  2  0
 11 21  2  0
 12 13  1  0
 13 14  2  0
 16 17  2  0
 19 20  1  0
 20 21  1  0
M  CHG  1   2   1
M  END
$$$$
