
     RDKit          3D

 23 26  0  0  0  0  0  0  0  0999 V2000
   91.9480   93.5733  -43.3035 N   0  0  0  0  0  0  0  0  0  0  0  0
   91.1947   91.8360  -49.2534 N   0  0  0  0  0  4  0  0  0  0  0  0
   91.5293   95.9498  -42.5940 C   0  0  0  0  0  0  0  0  0  0  0  0
   91.4872   94.8328  -43.4203 C   0  0  0  0  0  0  0  0  0  0  0  0
   90.8545   94.9749  -44.6297 C   0  0  0  0  0  0  0  0  0  0  0  0
   91.6430   92.8708  -44.3960 C   0  0  0  0  0  0  0  0  0  0  0  0
   90.9596   93.7205  -45.2421 C   0  0  0  0  0  0  0  0  0  0  0  0
   90.7331   91.9619  -46.8702 C   0  0  0  0  0  0  0  0  0  0  0  0
   92.6626   93.0782  -42.1596 C   0  0  0  0  0  0  0  0  0  0  0  0
   90.9931   98.3169  -42.1295 C   0  0  0  0  0  0  0  0  0  0  0  0
   91.6425   98.4272  -40.9158 C   0  0  0  0  0  0  0  0  0  0  0  0
   90.2767   96.1446  -45.0455 C   0  0  0  0  0  0  0  0  0  0  0  0
   90.3147   97.2545  -44.2324 C   0  0  0  0  0  0  0  0  0  0  0  0
   90.9487   97.1293  -43.0093 C   0  0  0  0  0  0  0  0  0  0  0  0
   90.5115   93.2649  -46.4656 C   0  0  0  0  0  0  0  0  0  0  0  0
   91.4149   91.0970  -46.0377 C   0  0  0  0  0  0  0  0  0  0  0  0
   91.8578   91.5647  -44.8166 C   0  0  0  0  0  0  0  0  0  0  0  0
   91.8521   92.0521  -41.3860 C   0  0  0  0  0  0  0  0  0  0  0  0
   90.3868   99.5314  -42.3750 C   0  0  0  0  0  0  0  0  0  0  0  0
   90.6599  100.3195  -41.3647 O   0  0  0  0  0  0  0  0  0  0  0  0
   91.4029   99.6700  -40.4988 N   0  0  0  0  0  0  0  0  0  0  0  0
   90.2189   91.5356  -48.2103 C   0  0  0  0  0  0  0  0  0  0  0  0
   90.5840   91.4456  -50.5286 C   0  0  0  0  0  0  0  0  0  0  0  0
  4  1  1  0
  1  6  1  0
  1  9  1  0
 22  2  1  0
  2 23  1  0
  3  4  2  0
 14  3  1  0
  4  5  1  0
  5  7  1  0
  5 12  2  0
  7  6  2  0
  6 17  1  0
  7 15  1  0
 15  8  2  0
  8 16  1  0
  8 22  1  0
  9 18  1  0
 10 11  1  0
 10 14  1  0
 10 19  2  0
 11 21  2  0
 12 13  1  0
 13 14  2  0
 16 17  2  0
 19 20  1  0
 20 21  1  0
M  CHG  1   2   1
M  END
$$$$
