
     RDKit          3D

 23 26  0  0  0  0  0  0  0  0999 V2000
   91.5925   93.5896  -42.9345 N   0  0  0  0  0  0  0  0  0  0  0  0
   91.9739   99.7575  -41.9166 N   0  0  0  0  0  4  0  0  0  0  0  0
   91.1814   92.6000  -45.2100 C   0  0  0  0  0  0  0  0  0  0  0  0
   91.2360   93.5868  -44.2326 C   0  0  0  0  0  0  0  0  0  0  0  0
   90.8597   94.8534  -44.6032 C   0  0  0  0  0  0  0  0  0  0  0  0
   91.4661   94.8171  -42.4273 C   0  0  0  0  0  0  0  0  0  0  0  0
   91.0100   95.6279  -43.4468 C   0  0  0  0  0  0  0  0  0  0  0  0
   91.0048   97.5289  -41.9700 C   0  0  0  0  0  0  0  0  0  0  0  0
   92.0409   92.4276  -42.2183 C   0  0  0  0  0  0  0  0  0  0  0  0
   90.7051   91.8717  -47.5229 C   0  0  0  0  0  0  0  0  0  0  0  0
   90.9781   90.5277  -47.3612 C   0  0  0  0  0  0  0  0  0  0  0  0
   90.4426   95.1768  -45.8666 C   0  0  0  0  0  0  0  0  0  0  0  0
   90.3862   94.2045  -46.8394 C   0  0  0  0  0  0  0  0  0  0  0  0
   90.7620   92.9217  -46.4834 C   0  0  0  0  0  0  0  0  0  0  0  0
   90.7835   96.9695  -43.2145 C   0  0  0  0  0  0  0  0  0  0  0  0
   91.4609   96.7339  -40.9376 C   0  0  0  0  0  0  0  0  0  0  0  0
   91.6837   95.3937  -41.1826 C   0  0  0  0  0  0  0  0  0  0  0  0
   93.5571   92.3465  -42.1627 C   0  0  0  0  0  0  0  0  0  0  0  0
   90.3645   92.0582  -48.8466 C   0  0  0  0  0  0  0  0  0  0  0  0
   90.4313   90.8916  -49.4388 O   0  0  0  0  0  0  0  0  0  0  0  0
   90.7940   89.9829  -48.5633 N   0  0  0  0  0  0  0  0  0  0  0  0
   90.7381   98.9911  -41.7892 C   0  0  0  0  0  0  0  0  0  0  0  0
   91.6114  101.1713  -41.7708 C   0  0  0  0  0  0  0  0  0  0  0  0
  4  1  1  0
  1  6  1  0
  1  9  1  0
 22  2  1  0
  2 23  1  0
  3  4  2  0
 14  3  1  0
  4  5  1  0
  5  7  1  0
  5 12  2  0
  7  6  2  0
  6 17  1  0
  7 15  1  0
 15  8  2  0
  8 16  1  0
  8 22  1  0
  9 18  1  0
 10 11  1  0
 10 14  1  0
 10 19  2  0
 11 21  2  0
 12 13  1  0
 13 14  2  0
 16 17  2  0
 19 20  1  0
 20 21  1  0
M  CHG  1   2   1
M  END
$$$$
