
     RDKit          3D

 21 20  0  0  0  0  0  0  0  0999 V2000
   14.3159   49.2294   40.9284 O   0  0  0  0  0  0  0  0  0  0  0  0
   14.3281   47.9001   40.5895 C   0  0  0  0  0  0  0  0  0  0  0  0
   13.3387   47.3679   40.0545 O   0  0  0  0  0  0  0  0  0  0  0  0
   15.5752   47.1093   40.8859 C   0  0  0  0  0  0  0  0  0  0  0  0
   15.2144   45.7163   41.3150 C   0  0  0  0  0  0  0  0  0  0  0  0
   16.4326   44.9065   41.6530 C   0  0  1  0  0  0  0  0  0  0  0  0
   17.2788   44.5471   40.5107 C   0  0  0  0  0  0  0  0  0  0  0  0
   18.4398   44.0542   40.7066 O   0  0  0  0  0  0  0  0  0  0  0  0
   16.8819   44.7124   39.2085 O   0  0  0  0  0  0  0  0  0  0  0  0
   17.2305   45.6144   42.6761 N   0  0  0  0  0  0  0  0  0  0  0  0
   18.4013   45.0342   43.2343 C   0  0  0  0  0  0  0  0  0  0  0  0
   18.7949   43.9524   42.7280 O   0  0  0  0  0  0  0  0  0  0  0  0
   19.1194   45.5922   44.2920 N   0  0  0  0  0  0  0  0  0  0  0  0
   20.3170   44.9604   44.9031 C   0  0  2  0  0  0  0  0  0  0  0  0
   20.7395   45.7295   46.0796 C   0  0  0  0  0  0  0  0  0  0  0  0
   20.3397   46.9976   46.4329 O   0  0  0  0  0  0  0  0  0  0  0  0
   21.5766   45.1921   46.8872 O   0  0  0  0  0  0  0  0  0  0  0  0
   21.3539   44.8216   43.8610 C   0  0  0  0  0  0  0  0  0  0  0  0
   22.3067   45.9126   43.6072 C   0  0  2  0  0  0  0  0  0  0  0  0
   21.6192   47.1540   43.0420 C   0  0  0  0  0  0  0  0  0  0  0  0
   23.5884   45.6121   42.9346 C   0  0  0  0  0  0  0  0  0  0  0  0
  1  2  1  0
  2  3  2  0
  2  4  1  0
  4  5  1  0
  6  5  1  6
  6  7  1  0
  6 10  1  0
  7  8  2  0
  7  9  1  0
 10 11  1  0
 11 12  2  0
 11 13  1  0
 13 14  1  0
 14 15  1  0
 14 18  1  6
 15 16  1  0
 15 17  2  0
 18 19  1  0
 19 20  1  6
 19 21  1  0
M  END
$$$$
