
     RDKit          3D

 21 20  0  0  0  0  0  0  0  0999 V2000
   13.6575   47.9167   40.8951 O   0  0  0  0  0  0  0  0  0  0  0  0
   13.5839   46.8652   40.0169 C   0  0  0  0  0  0  0  0  0  0  0  0
   12.8148   46.9016   39.0394 O   0  0  0  0  0  0  0  0  0  0  0  0
   14.4623   45.6694   40.2750 C   0  0  0  0  0  0  0  0  0  0  0  0
   15.1070   45.7832   41.6264 C   0  0  0  0  0  0  0  0  0  0  0  0
   16.1604   44.7330   41.8292 C   0  0  1  0  0  0  0  0  0  0  0  0
   17.1703   44.6501   40.7692 C   0  0  0  0  0  0  0  0  0  0  0  0
   18.1288   45.4923   40.7337 O   0  0  0  0  0  0  0  0  0  0  0  0
   17.1441   43.6916   39.7888 O   0  0  0  0  0  0  0  0  0  0  0  0
   16.8126   44.9314   43.1406 N   0  0  0  0  0  0  0  0  0  0  0  0
   18.1687   44.5661   43.3562 C   0  0  0  0  0  0  0  0  0  0  0  0
   18.6271   43.6394   42.6401 O   0  0  0  0  0  0  0  0  0  0  0  0
   18.9979   45.1704   44.3011 N   0  0  0  0  0  0  0  0  0  0  0  0
   20.4200   44.7966   44.5133 C   0  0  2  0  0  0  0  0  0  0  0  0
   20.7717   44.9611   45.9287 C   0  0  0  0  0  0  0  0  0  0  0  0
   21.6121   44.1680   46.6754 O   0  0  0  0  0  0  0  0  0  0  0  0
   20.2532   45.9398   46.5730 O   0  0  0  0  0  0  0  0  0  0  0  0
   21.2529   45.5845   43.5827 C   0  0  0  0  0  0  0  0  0  0  0  0
   22.7078   45.6735   43.7771 C   0  0  2  0  0  0  0  0  0  0  0  0
   23.2868   46.9592   43.1897 C   0  0  0  0  0  0  0  0  0  0  0  0
   23.5484   44.4892   43.5014 C   0  0  0  0  0  0  0  0  0  0  0  0
  1  2  1  0
  2  3  2  0
  2  4  1  0
  4  5  1  0
  6  5  1  6
  6  7  1  0
  6 10  1  0
  7  8  2  0
  7  9  1  0
 10 11  1  0
 11 12  2  0
 11 13  1  0
 13 14  1  0
 14 15  1  0
 14 18  1  6
 15 16  1  0
 15 17  2  0
 18 19  1  0
 19 20  1  6
 19 21  1  0
M  END
$$$$
