
     RDKit          3D

 21 20  0  0  0  0  0  0  0  0999 V2000
   13.9133   49.0667   40.7952 O   0  0  0  0  0  0  0  0  0  0  0  0
   13.9632   47.7337   40.4746 C   0  0  0  0  0  0  0  0  0  0  0  0
   13.0307   47.1899   39.8556 O   0  0  0  0  0  0  0  0  0  0  0  0
   15.1806   46.9532   40.8957 C   0  0  0  0  0  0  0  0  0  0  0  0
   14.8431   45.4952   41.0190 C   0  0  0  0  0  0  0  0  0  0  0  0
   16.0403   44.6796   41.4128 C   0  0  1  0  0  0  0  0  0  0  0  0
   17.1097   44.6184   40.4113 C   0  0  0  0  0  0  0  0  0  0  0  0
   17.0896   43.7141   39.5107 O   0  0  0  0  0  0  0  0  0  0  0  0
   18.1572   45.5032   40.3851 O   0  0  0  0  0  0  0  0  0  0  0  0
   16.5745   45.1723   42.6998 N   0  0  0  0  0  0  0  0  0  0  0  0
   17.9276   44.9517   43.0732 C   0  0  0  0  0  0  0  0  0  0  0  0
   18.5785   44.1249   42.3844 O   0  0  0  0  0  0  0  0  0  0  0  0
   18.5557   45.5921   44.1414 N   0  0  0  0  0  0  0  0  0  0  0  0
   19.9961   45.4345   44.4691 C   0  0  2  0  0  0  0  0  0  0  0  0
   20.2423   45.8666   45.8500 C   0  0  0  0  0  0  0  0  0  0  0  0
   20.1395   47.1426   46.3540 O   0  0  0  0  0  0  0  0  0  0  0  0
   20.5983   44.9837   46.7077 O   0  0  0  0  0  0  0  0  0  0  0  0
   20.7871   46.1581   43.4538 C   0  0  0  0  0  0  0  0  0  0  0  0
   22.2501   46.2472   43.5727 C   0  0  2  0  0  0  0  0  0  0  0  0
   22.8650   47.0944   42.4602 C   0  0  0  0  0  0  0  0  0  0  0  0
   23.0289   45.0232   43.8566 C   0  0  0  0  0  0  0  0  0  0  0  0
  1  2  1  0
  2  3  2  0
  2  4  1  0
  4  5  1  0
  6  5  1  6
  6  7  1  0
  6 10  1  0
  7  8  2  0
  7  9  1  0
 10 11  1  0
 11 12  2  0
 11 13  1  0
 13 14  1  0
 14 15  1  0
 14 18  1  6
 15 16  1  0
 15 17  2  0
 18 19  1  0
 19 20  1  6
 19 21  1  0
M  END
$$$$
