
     RDKit          3D

 21 20  0  0  0  0  0  0  0  0999 V2000
   13.8671   49.0053   40.7939 O   0  0  0  0  0  0  0  0  0  0  0  0
   13.9498   47.6540   40.5717 C   0  0  0  0  0  0  0  0  0  0  0  0
   13.0680   47.0570   39.9278 O   0  0  0  0  0  0  0  0  0  0  0  0
   15.1397   46.9198   41.1316 C   0  0  0  0  0  0  0  0  0  0  0  0
   14.8645   45.4443   41.1731 C   0  0  0  0  0  0  0  0  0  0  0  0
   16.0595   44.6698   41.6482 C   0  0  1  0  0  0  0  0  0  0  0  0
   17.0447   44.3456   40.6116 C   0  0  0  0  0  0  0  0  0  0  0  0
   16.8069   43.4113   39.7750 O   0  0  0  0  0  0  0  0  0  0  0  0
   18.2382   45.0090   40.4848 O   0  0  0  0  0  0  0  0  0  0  0  0
   16.7094   45.3937   42.7608 N   0  0  0  0  0  0  0  0  0  0  0  0
   17.9292   44.9375   43.3291 C   0  0  0  0  0  0  0  0  0  0  0  0
   18.3658   43.8308   42.9214 O   0  0  0  0  0  0  0  0  0  0  0  0
   18.6500   45.6400   44.2949 N   0  0  0  0  0  0  0  0  0  0  0  0
   20.0655   45.3525   44.6422 C   0  0  2  0  0  0  0  0  0  0  0  0
   20.2874   45.6017   46.0715 C   0  0  0  0  0  0  0  0  0  0  0  0
   20.8433   44.7417   46.9902 O   0  0  0  0  0  0  0  0  0  0  0  0
   19.9319   46.7351   46.5522 O   0  0  0  0  0  0  0  0  0  0  0  0
   20.9348   46.1388   43.7443 C   0  0  0  0  0  0  0  0  0  0  0  0
   22.3731   45.8460   43.6542 C   0  0  2  0  0  0  0  0  0  0  0  0
   23.0270   45.7560   45.0317 C   0  0  0  0  0  0  0  0  0  0  0  0
   23.2012   46.5810   42.6747 C   0  0  0  0  0  0  0  0  0  0  0  0
  1  2  1  0
  2  3  2  0
  2  4  1  0
  4  5  1  0
  6  5  1  6
  6  7  1  0
  6 10  1  0
  7  8  2  0
  7  9  1  0
 10 11  1  0
 11 12  2  0
 11 13  1  0
 13 14  1  0
 14 15  1  0
 14 18  1  6
 15 16  1  0
 15 17  2  0
 18 19  1  0
 19 20  1  1
 19 21  1  0
M  END
$$$$
