
     RDKit          3D

 21 20  0  0  0  0  0  0  0  0999 V2000
   11.4237   46.8831   38.4894 O   0  0  0  0  0  0  0  0  0  0  0  0
   11.4134   46.3445   39.7511 C   0  0  0  0  0  0  0  0  0  0  0  0
   10.4011   45.7712   40.1930 O   0  0  0  0  0  0  0  0  0  0  0  0
   12.6642   46.4701   40.5806 C   0  0  0  0  0  0  0  0  0  0  0  0
   13.8609   46.6394   39.6895 C   0  0  0  0  0  0  0  0  0  0  0  0
   15.0578   47.1260   40.4540 C   0  0  1  0  0  0  0  0  0  0  0  0
   14.9406   48.4825   40.9982 C   0  0  0  0  0  0  0  0  0  0  0  0
   15.0784   48.6815   42.2515 O   0  0  0  0  0  0  0  0  0  0  0  0
   14.6871   49.5798   40.2156 O   0  0  0  0  0  0  0  0  0  0  0  0
   15.3792   46.1693   41.5337 N   0  0  0  0  0  0  0  0  0  0  0  0
   16.6938   45.6572   41.7026 C   0  0  0  0  0  0  0  0  0  0  0  0
   17.5240   45.9151   40.7937 O   0  0  0  0  0  0  0  0  0  0  0  0
   17.1002   44.9000   42.8013 N   0  0  0  0  0  0  0  0  0  0  0  0
   18.4826   44.3892   42.9881 C   0  0  2  0  0  0  0  0  0  0  0  0
   18.7730   43.3605   41.9823 C   0  0  0  0  0  0  0  0  0  0  0  0
   17.9602   42.3194   41.5975 O   0  0  0  0  0  0  0  0  0  0  0  0
   19.9023   43.4041   41.3783 O   0  0  0  0  0  0  0  0  0  0  0  0
   18.6265   43.9335   44.3852 C   0  0  0  0  0  0  0  0  0  0  0  0
   19.4301   44.7076   45.3430 C   0  0  2  0  0  0  0  0  0  0  0  0
   20.7734   45.1322   44.7527 C   0  0  0  0  0  0  0  0  0  0  0  0
   19.5422   44.2372   46.7401 C   0  0  0  0  0  0  0  0  0  0  0  0
  1  2  1  0
  2  3  2  0
  2  4  1  0
  4  5  1  0
  6  5  1  1
  6  7  1  0
  6 10  1  0
  7  8  2  0
  7  9  1  0
 10 11  1  0
 11 12  2  0
 11 13  1  0
 13 14  1  0
 14 15  1  0
 14 18  1  1
 15 16  1  0
 15 17  2  0
 18 19  1  0
 19 20  1  6
 19 21  1  0
M  END
$$$$
