
     RDKit          3D

 21 20  0  0  0  0  0  0  0  0999 V2000
   13.2274   48.0769   40.6548 O   0  0  0  0  0  0  0  0  0  0  0  0
   13.2519   46.9411   39.8857 C   0  0  0  0  0  0  0  0  0  0  0  0
   12.6132   46.8773   38.8196 O   0  0  0  0  0  0  0  0  0  0  0  0
   14.0751   45.7780   40.3734 C   0  0  0  0  0  0  0  0  0  0  0  0
   14.9455   46.2052   41.5201 C   0  0  0  0  0  0  0  0  0  0  0  0
   16.0579   45.2277   41.7668 C   0  0  1  0  0  0  0  0  0  0  0  0
   16.9802   45.0363   40.6431 C   0  0  0  0  0  0  0  0  0  0  0  0
   16.7961   44.0758   39.8227 O   0  0  0  0  0  0  0  0  0  0  0  0
   18.0572   45.8543   40.4158 O   0  0  0  0  0  0  0  0  0  0  0  0
   16.8056   45.6229   42.9788 N   0  0  0  0  0  0  0  0  0  0  0  0
   18.0482   45.0197   43.3120 C   0  0  0  0  0  0  0  0  0  0  0  0
   18.4817   44.1411   42.5235 O   0  0  0  0  0  0  0  0  0  0  0  0
   18.7943   45.3461   44.4446 N   0  0  0  0  0  0  0  0  0  0  0  0
   20.2651   45.1645   44.5468 C   0  0  2  0  0  0  0  0  0  0  0  0
   20.7331   45.6249   45.8595 C   0  0  0  0  0  0  0  0  0  0  0  0
   21.5323   44.9402   46.7457 O   0  0  0  0  0  0  0  0  0  0  0  0
   20.3729   46.7881   46.2584 O   0  0  0  0  0  0  0  0  0  0  0  0
   20.8997   45.8452   43.4004 C   0  0  0  0  0  0  0  0  0  0  0  0
   22.2849   45.5307   43.0199 C   0  0  2  0  0  0  0  0  0  0  0  0
   23.0002   44.7076   44.0895 C   0  0  0  0  0  0  0  0  0  0  0  0
   23.1386   46.5951   42.4510 C   0  0  0  0  0  0  0  0  0  0  0  0
  1  2  1  0
  2  3  2  0
  2  4  1  0
  4  5  1  0
  6  5  1  6
  6  7  1  0
  6 10  1  0
  7  8  2  0
  7  9  1  0
 10 11  1  0
 11 12  2  0
 11 13  1  0
 13 14  1  0
 14 15  1  0
 14 18  1  6
 15 16  1  0
 15 17  2  0
 18 19  1  0
 19 20  1  1
 19 21  1  0
M  END
$$$$
