
     RDKit          3D

 21 20  0  0  0  0  0  0  0  0999 V2000
   13.8074   48.9228   40.5302 O   0  0  0  0  0  0  0  0  0  0  0  0
   13.9195   47.5723   40.3165 C   0  0  0  0  0  0  0  0  0  0  0  0
   12.9943   46.9300   39.7873 O   0  0  0  0  0  0  0  0  0  0  0  0
   15.1957   46.8955   40.7424 C   0  0  0  0  0  0  0  0  0  0  0  0
   14.9474   45.4367   40.9973 C   0  0  0  0  0  0  0  0  0  0  0  0
   16.1971   44.7289   41.4343 C   0  0  1  0  0  0  0  0  0  0  0  0
   17.2307   44.5949   40.4028 C   0  0  0  0  0  0  0  0  0  0  0  0
   18.2765   45.3253   40.4486 O   0  0  0  0  0  0  0  0  0  0  0  0
   17.1362   43.7035   39.3650 O   0  0  0  0  0  0  0  0  0  0  0  0
   16.7532   45.3967   42.6298 N   0  0  0  0  0  0  0  0  0  0  0  0
   18.0224   45.0357   43.1567 C   0  0  0  0  0  0  0  0  0  0  0  0
   18.5408   43.9791   42.7135 O   0  0  0  0  0  0  0  0  0  0  0  0
   18.7065   45.7781   44.1193 N   0  0  0  0  0  0  0  0  0  0  0  0
   20.0832   45.4648   44.5813 C   0  0  2  0  0  0  0  0  0  0  0  0
   20.1310   45.4789   46.0481 C   0  0  0  0  0  0  0  0  0  0  0  0
   20.7193   44.5465   46.8711 O   0  0  0  0  0  0  0  0  0  0  0  0
   19.5685   46.4516   46.6642 O   0  0  0  0  0  0  0  0  0  0  0  0
   21.0182   46.4052   43.9319 C   0  0  0  0  0  0  0  0  0  0  0  0
   22.4126   46.0138   43.6773 C   0  0  2  0  0  0  0  0  0  0  0  0
   23.1913   47.1079   42.9494 C   0  0  0  0  0  0  0  0  0  0  0  0
   22.7006   44.6617   43.1536 C   0  0  0  0  0  0  0  0  0  0  0  0
  1  2  1  0
  2  3  2  0
  2  4  1  0
  4  5  1  0
  6  5  1  6
  6  7  1  0
  6 10  1  0
  7  8  2  0
  7  9  1  0
 10 11  1  0
 11 12  2  0
 11 13  1  0
 13 14  1  0
 14 15  1  0
 14 18  1  6
 15 16  1  0
 15 17  2  0
 18 19  1  0
 19 20  1  6
 19 21  1  0
M  END
$$$$
