
     RDKit          3D

 21 20  0  0  0  0  0  0  0  0999 V2000
   13.2039   47.1393   39.5634 O   0  0  0  0  0  0  0  0  0  0  0  0
   13.7562   47.6870   40.6935 C   0  0  0  0  0  0  0  0  0  0  0  0
   13.4985   48.8575   41.0280 O   0  0  0  0  0  0  0  0  0  0  0  0
   14.6820   46.8267   41.5128 C   0  0  0  0  0  0  0  0  0  0  0  0
   14.8764   45.4954   40.8461 C   0  0  0  0  0  0  0  0  0  0  0  0
   16.0720   44.7702   41.3924 C   0  0  1  0  0  0  0  0  0  0  0  0
   17.0504   44.3375   40.3896 C   0  0  0  0  0  0  0  0  0  0  0  0
   18.1276   45.0012   40.2209 O   0  0  0  0  0  0  0  0  0  0  0  0
   16.8702   43.2285   39.6032 O   0  0  0  0  0  0  0  0  0  0  0  0
   16.7300   45.6032   42.4208 N   0  0  0  0  0  0  0  0  0  0  0  0
   17.8648   45.1364   43.1372 C   0  0  0  0  0  0  0  0  0  0  0  0
   18.1142   43.9058   43.0651 O   0  0  0  0  0  0  0  0  0  0  0  0
   18.6970   45.9564   43.8992 N   0  0  0  0  0  0  0  0  0  0  0  0
   19.9686   45.4993   44.5164 C   0  0  2  0  0  0  0  0  0  0  0  0
   19.8658   45.5713   45.9788 C   0  0  0  0  0  0  0  0  0  0  0  0
   20.3353   44.6563   46.8925 O   0  0  0  0  0  0  0  0  0  0  0  0
   19.2754   46.5839   46.4964 O   0  0  0  0  0  0  0  0  0  0  0  0
   21.0758   46.2907   43.9436 C   0  0  0  0  0  0  0  0  0  0  0  0
   22.4611   46.0593   44.3793 C   0  0  2  0  0  0  0  0  0  0  0  0
   23.4316   47.0644   43.7619 C   0  0  0  0  0  0  0  0  0  0  0  0
   22.9955   44.6810   44.3907 C   0  0  0  0  0  0  0  0  0  0  0  0
  1  2  1  0
  2  3  2  0
  2  4  1  0
  4  5  1  0
  6  5  1  6
  6  7  1  0
  6 10  1  0
  7  8  2  0
  7  9  1  0
 10 11  1  0
 11 12  2  0
 11 13  1  0
 13 14  1  0
 14 15  1  0
 14 18  1  6
 15 16  1  0
 15 17  2  0
 18 19  1  0
 19 20  1  6
 19 21  1  0
M  END
$$$$
