
     RDKit          3D

 21 20  0  0  0  0  0  0  0  0999 V2000
   12.9495   46.7178   39.7955 O   0  0  0  0  0  0  0  0  0  0  0  0
   13.7917   47.5320   40.5097 C   0  0  0  0  0  0  0  0  0  0  0  0
   13.6011   48.7607   40.5613 O   0  0  0  0  0  0  0  0  0  0  0  0
   14.9507   46.8909   41.2266 C   0  0  0  0  0  0  0  0  0  0  0  0
   14.8255   45.3953   41.1779 C   0  0  0  0  0  0  0  0  0  0  0  0
   16.1194   44.7183   41.5265 C   0  0  1  0  0  0  0  0  0  0  0  0
   17.0547   44.5486   40.4099 C   0  0  0  0  0  0  0  0  0  0  0  0
   18.1132   45.2594   40.3503 O   0  0  0  0  0  0  0  0  0  0  0  0
   16.8525   43.6430   39.4001 O   0  0  0  0  0  0  0  0  0  0  0  0
   16.7751   45.4427   42.6354 N   0  0  0  0  0  0  0  0  0  0  0  0
   17.9875   44.9757   43.2107 C   0  0  0  0  0  0  0  0  0  0  0  0
   18.3944   43.8460   42.8369 O   0  0  0  0  0  0  0  0  0  0  0  0
   18.7319   45.6917   44.1482 N   0  0  0  0  0  0  0  0  0  0  0  0
   20.1007   45.3114   44.5826 C   0  0  2  0  0  0  0  0  0  0  0  0
   20.2772   45.6278   46.0048 C   0  0  0  0  0  0  0  0  0  0  0  0
   20.0807   46.8436   46.6179 O   0  0  0  0  0  0  0  0  0  0  0  0
   20.6602   44.6918   46.7917 O   0  0  0  0  0  0  0  0  0  0  0  0
   21.0735   45.9682   43.6867 C   0  0  0  0  0  0  0  0  0  0  0  0
   22.5155   45.8853   43.9627 C   0  0  2  0  0  0  0  0  0  0  0  0
   23.2773   47.0816   43.3954 C   0  0  0  0  0  0  0  0  0  0  0  0
   23.2209   44.6039   43.7482 C   0  0  0  0  0  0  0  0  0  0  0  0
  1  2  1  0
  2  3  2  0
  2  4  1  0
  4  5  1  0
  6  5  1  6
  6  7  1  0
  6 10  1  0
  7  8  2  0
  7  9  1  0
 10 11  1  0
 11 12  2  0
 11 13  1  0
 13 14  1  0
 14 15  1  0
 14 18  1  6
 15 16  1  0
 15 17  2  0
 18 19  1  0
 19 20  1  6
 19 21  1  0
M  END
$$$$
