
     RDKit          3D

 21 20  0  0  0  0  0  0  0  0999 V2000
   13.1174   46.7432   39.4383 O   0  0  0  0  0  0  0  0  0  0  0  0
   13.8434   47.3825   40.4111 C   0  0  0  0  0  0  0  0  0  0  0  0
   13.4590   48.4660   40.8874 O   0  0  0  0  0  0  0  0  0  0  0  0
   15.1171   46.7310   40.8818 C   0  0  0  0  0  0  0  0  0  0  0  0
   14.8884   45.2679   41.1304 C   0  0  0  0  0  0  0  0  0  0  0  0
   16.1613   44.5615   41.4972 C   0  0  1  0  0  0  0  0  0  0  0  0
   17.1542   44.4676   40.4221 C   0  0  0  0  0  0  0  0  0  0  0  0
   17.0387   43.5685   39.5235 O   0  0  0  0  0  0  0  0  0  0  0  0
   18.2274   45.3155   40.3233 O   0  0  0  0  0  0  0  0  0  0  0  0
   16.7582   45.2014   42.6882 N   0  0  0  0  0  0  0  0  0  0  0  0
   18.0309   44.8067   43.1815 C   0  0  0  0  0  0  0  0  0  0  0  0
   18.5940   43.8474   42.5948 O   0  0  0  0  0  0  0  0  0  0  0  0
   18.6723   45.4165   44.2598 N   0  0  0  0  0  0  0  0  0  0  0  0
   20.1000   45.1954   44.6057 C   0  0  2  0  0  0  0  0  0  0  0  0
   20.3311   45.5458   46.0121 C   0  0  0  0  0  0  0  0  0  0  0  0
   20.9884   44.7959   46.9598 O   0  0  0  0  0  0  0  0  0  0  0  0
   19.8805   46.6663   46.4402 O   0  0  0  0  0  0  0  0  0  0  0  0
   20.9339   45.9459   43.6456 C   0  0  0  0  0  0  0  0  0  0  0  0
   22.3994   45.9403   43.7674 C   0  0  2  0  0  0  0  0  0  0  0  0
   23.0675   46.7875   42.6862 C   0  0  0  0  0  0  0  0  0  0  0  0
   23.1008   44.6612   44.0068 C   0  0  0  0  0  0  0  0  0  0  0  0
  1  2  1  0
  2  3  2  0
  2  4  1  0
  4  5  1  0
  6  5  1  6
  6  7  1  0
  6 10  1  0
  7  8  2  0
  7  9  1  0
 10 11  1  0
 11 12  2  0
 11 13  1  0
 13 14  1  0
 14 15  1  0
 14 18  1  6
 15 16  1  0
 15 17  2  0
 18 19  1  0
 19 20  1  6
 19 21  1  0
M  END
$$$$
