
     RDKit          3D

 21 20  0  0  0  0  0  0  0  0999 V2000
   13.7387   49.0559   40.7314 O   0  0  0  0  0  0  0  0  0  0  0  0
   13.8191   47.7230   40.4165 C   0  0  0  0  0  0  0  0  0  0  0  0
   12.8858   47.1480   39.8276 O   0  0  0  0  0  0  0  0  0  0  0  0
   15.0709   46.9817   40.8061 C   0  0  0  0  0  0  0  0  0  0  0  0
   14.7361   45.5711   41.1971 C   0  0  0  0  0  0  0  0  0  0  0  0
   15.9541   44.8142   41.6415 C   0  0  1  0  0  0  0  0  0  0  0  0
   16.9780   44.6198   40.6099 C   0  0  0  0  0  0  0  0  0  0  0  0
   18.0647   45.2879   40.6554 O   0  0  0  0  0  0  0  0  0  0  0  0
   16.8315   43.7351   39.5724 O   0  0  0  0  0  0  0  0  0  0  0  0
   16.5425   45.4731   42.8264 N   0  0  0  0  0  0  0  0  0  0  0  0
   17.8146   45.0909   43.3310 C   0  0  0  0  0  0  0  0  0  0  0  0
   18.3453   44.0723   42.8187 O   0  0  0  0  0  0  0  0  0  0  0  0
   18.4888   45.7738   44.3434 N   0  0  0  0  0  0  0  0  0  0  0  0
   19.9216   45.5606   44.6727 C   0  0  2  0  0  0  0  0  0  0  0  0
   20.1477   45.8180   46.0998 C   0  0  0  0  0  0  0  0  0  0  0  0
   19.6392   46.8531   46.8500 O   0  0  0  0  0  0  0  0  0  0  0  0
   20.9009   45.0107   46.7502 O   0  0  0  0  0  0  0  0  0  0  0  0
   20.7372   46.3936   43.7665 C   0  0  0  0  0  0  0  0  0  0  0  0
   21.9656   45.8559   43.1627 C   0  0  2  0  0  0  0  0  0  0  0  0
   22.8732   45.1973   44.1999 C   0  0  0  0  0  0  0  0  0  0  0  0
   22.7133   46.6789   42.1885 C   0  0  0  0  0  0  0  0  0  0  0  0
  1  2  1  0
  2  3  2  0
  2  4  1  0
  4  5  1  0
  6  5  1  6
  6  7  1  0
  6 10  1  0
  7  8  2  0
  7  9  1  0
 10 11  1  0
 11 12  2  0
 11 13  1  0
 13 14  1  0
 14 15  1  0
 14 18  1  6
 15 16  1  0
 15 17  2  0
 18 19  1  0
 19 20  1  1
 19 21  1  0
M  END
$$$$
