
     RDKit          3D

 21 20  0  0  0  0  0  0  0  0999 V2000
   12.5906   46.9194   39.9751 O   0  0  0  0  0  0  0  0  0  0  0  0
   13.5014   47.6607   40.6844 C   0  0  0  0  0  0  0  0  0  0  0  0
   13.2949   48.8632   40.9290 O   0  0  0  0  0  0  0  0  0  0  0  0
   14.7554   46.9723   41.1555 C   0  0  0  0  0  0  0  0  0  0  0  0
   14.4919   45.5102   41.3740 C   0  0  0  0  0  0  0  0  0  0  0  0
   15.7384   44.7752   41.7737 C   0  0  1  0  0  0  0  0  0  0  0  0
   16.7213   44.5860   40.7020 C   0  0  0  0  0  0  0  0  0  0  0  0
   17.7907   45.2826   40.6865 O   0  0  0  0  0  0  0  0  0  0  0  0
   16.5533   43.6766   39.6893 O   0  0  0  0  0  0  0  0  0  0  0  0
   16.3659   45.4535   42.9272 N   0  0  0  0  0  0  0  0  0  0  0  0
   17.6432   45.0623   43.4114 C   0  0  0  0  0  0  0  0  0  0  0  0
   18.1723   44.0585   42.8690 O   0  0  0  0  0  0  0  0  0  0  0  0
   18.3241   45.7213   44.4350 N   0  0  0  0  0  0  0  0  0  0  0  0
   19.7496   45.4749   44.7727 C   0  0  2  0  0  0  0  0  0  0  0  0
   20.0141   45.8974   46.1531 C   0  0  0  0  0  0  0  0  0  0  0  0
   20.6599   45.1807   47.1340 O   0  0  0  0  0  0  0  0  0  0  0  0
   19.6084   47.0557   46.5215 O   0  0  0  0  0  0  0  0  0  0  0  0
   20.5909   46.1424   43.7592 C   0  0  0  0  0  0  0  0  0  0  0  0
   22.0383   45.8880   43.7067 C   0  0  2  0  0  0  0  0  0  0  0  0
   22.6760   45.9167   45.0944 C   0  0  0  0  0  0  0  0  0  0  0  0
   22.8574   46.5761   42.6864 C   0  0  0  0  0  0  0  0  0  0  0  0
  1  2  1  0
  2  3  2  0
  2  4  1  0
  4  5  1  0
  6  5  1  6
  6  7  1  0
  6 10  1  0
  7  8  2  0
  7  9  1  0
 10 11  1  0
 11 12  2  0
 11 13  1  0
 13 14  1  0
 14 15  1  0
 14 18  1  6
 15 16  1  0
 15 17  2  0
 18 19  1  0
 19 20  1  1
 19 21  1  0
M  END
$$$$
