
     RDKit          3D

 21 20  0  0  0  0  0  0  0  0999 V2000
   13.2393   47.0797   40.0144 O   0  0  0  0  0  0  0  0  0  0  0  0
   14.1958   47.8202   40.6617 C   0  0  0  0  0  0  0  0  0  0  0  0
   14.0957   49.0576   40.7486 O   0  0  0  0  0  0  0  0  0  0  0  0
   15.3671   47.0876   41.2615 C   0  0  0  0  0  0  0  0  0  0  0  0
   15.0972   45.6107   41.2833 C   0  0  0  0  0  0  0  0  0  0  0  0
   16.3234   44.8277   41.6536 C   0  0  1  0  0  0  0  0  0  0  0  0
   17.2830   44.6202   40.5645 C   0  0  0  0  0  0  0  0  0  0  0  0
   18.3393   45.3340   40.4998 O   0  0  0  0  0  0  0  0  0  0  0  0
   17.1066   43.6754   39.5863 O   0  0  0  0  0  0  0  0  0  0  0  0
   16.9910   45.4675   42.8066 N   0  0  0  0  0  0  0  0  0  0  0  0
   18.2675   45.0353   43.2567 C   0  0  0  0  0  0  0  0  0  0  0  0
   18.7854   44.0651   42.6467 O   0  0  0  0  0  0  0  0  0  0  0  0
   18.9590   45.6203   44.3176 N   0  0  0  0  0  0  0  0  0  0  0  0
   20.1835   45.0402   44.9269 C   0  0  2  0  0  0  0  0  0  0  0  0
   20.5211   45.7692   46.1552 C   0  0  0  0  0  0  0  0  0  0  0  0
   20.1112   47.0328   46.5128 O   0  0  0  0  0  0  0  0  0  0  0  0
   21.2842   45.1963   47.0104 O   0  0  0  0  0  0  0  0  0  0  0  0
   21.2527   45.0336   43.9086 C   0  0  0  0  0  0  0  0  0  0  0  0
   22.1238   46.2055   43.7344 C   0  0  2  0  0  0  0  0  0  0  0  0
   21.3309   47.4606   43.3749 C   0  0  0  0  0  0  0  0  0  0  0  0
   23.3692   46.0711   42.9493 C   0  0  0  0  0  0  0  0  0  0  0  0
  1  2  1  0
  2  3  2  0
  2  4  1  0
  4  5  1  0
  6  5  1  6
  6  7  1  0
  6 10  1  0
  7  8  2  0
  7  9  1  0
 10 11  1  0
 11 12  2  0
 11 13  1  0
 13 14  1  0
 14 15  1  0
 14 18  1  6
 15 16  1  0
 15 17  2  0
 18 19  1  0
 19 20  1  6
 19 21  1  0
M  END
$$$$
