
     RDKit          3D

 21 20  0  0  0  0  0  0  0  0999 V2000
   13.7553   48.8676   41.0669 O   0  0  0  0  0  0  0  0  0  0  0  0
   13.8848   47.5449   40.7265 C   0  0  0  0  0  0  0  0  0  0  0  0
   12.9867   46.9559   40.0979 O   0  0  0  0  0  0  0  0  0  0  0  0
   15.1461   46.8320   41.1379 C   0  0  0  0  0  0  0  0  0  0  0  0
   14.8878   45.3588   41.2706 C   0  0  0  0  0  0  0  0  0  0  0  0
   16.1363   44.6065   41.6300 C   0  0  1  0  0  0  0  0  0  0  0  0
   17.1096   44.4586   40.5433 C   0  0  0  0  0  0  0  0  0  0  0  0
   18.1387   45.2125   40.5012 O   0  0  0  0  0  0  0  0  0  0  0  0
   16.9747   43.5293   39.5438 O   0  0  0  0  0  0  0  0  0  0  0  0
   16.7748   45.2373   42.8042 N   0  0  0  0  0  0  0  0  0  0  0  0
   18.0819   44.8698   43.2231 C   0  0  0  0  0  0  0  0  0  0  0  0
   18.6996   44.0481   42.4987 O   0  0  0  0  0  0  0  0  0  0  0  0
   18.6999   45.3640   44.3719 N   0  0  0  0  0  0  0  0  0  0  0  0
   20.1720   45.4020   44.5679 C   0  0  2  0  0  0  0  0  0  0  0  0
   20.4859   46.0245   45.8594 C   0  0  0  0  0  0  0  0  0  0  0  0
   20.3887   47.3571   46.1870 O   0  0  0  0  0  0  0  0  0  0  0  0
   20.9038   45.2730   46.8095 O   0  0  0  0  0  0  0  0  0  0  0  0
   20.7802   46.0754   43.4029 C   0  0  0  0  0  0  0  0  0  0  0  0
   22.2347   46.2807   43.3358 C   0  0  2  0  0  0  0  0  0  0  0  0
   23.0067   45.1209   43.9619 C   0  0  0  0  0  0  0  0  0  0  0  0
   22.7965   47.6007   43.6928 C   0  0  0  0  0  0  0  0  0  0  0  0
  1  2  1  0
  2  3  2  0
  2  4  1  0
  4  5  1  0
  6  5  1  6
  6  7  1  0
  6 10  1  0
  7  8  2  0
  7  9  1  0
 10 11  1  0
 11 12  2  0
 11 13  1  0
 13 14  1  0
 14 15  1  0
 14 18  1  6
 15 16  1  0
 15 17  2  0
 18 19  1  0
 19 20  1  1
 19 21  1  0
M  END
$$$$
