
     RDKit          3D

 21 20  0  0  0  0  0  0  0  0999 V2000
   13.8075   49.0203   41.2953 O   0  0  0  0  0  0  0  0  0  0  0  0
   14.3393   47.9491   40.6230 C   0  0  0  0  0  0  0  0  0  0  0  0
   14.0553   47.7384   39.4299 O   0  0  0  0  0  0  0  0  0  0  0  0
   15.2752   47.0399   41.3751 C   0  0  0  0  0  0  0  0  0  0  0  0
   15.2254   45.6545   40.7979 C   0  0  0  0  0  0  0  0  0  0  0  0
   16.3285   44.7894   41.3349 C   0  0  1  0  0  0  0  0  0  0  0  0
   17.2890   44.3116   40.3351 C   0  0  0  0  0  0  0  0  0  0  0  0
   17.0157   43.2854   39.6270 O   0  0  0  0  0  0  0  0  0  0  0  0
   18.4957   44.9229   40.1098 O   0  0  0  0  0  0  0  0  0  0  0  0
   17.0343   45.5024   42.4202 N   0  0  0  0  0  0  0  0  0  0  0  0
   18.1612   44.9317   43.0710 C   0  0  0  0  0  0  0  0  0  0  0  0
   18.5236   43.7920   42.6822 O   0  0  0  0  0  0  0  0  0  0  0  0
   18.8693   45.5586   44.0964 N   0  0  0  0  0  0  0  0  0  0  0  0
   19.8955   44.8791   44.9283 C   0  0  2  0  0  0  0  0  0  0  0  0
   20.0136   45.5572   46.2246 C   0  0  0  0  0  0  0  0  0  0  0  0
   19.3547   46.6939   46.6328 O   0  0  0  0  0  0  0  0  0  0  0  0
   20.8139   45.0653   47.0961 O   0  0  0  0  0  0  0  0  0  0  0  0
   21.1531   44.8149   44.1572 C   0  0  0  0  0  0  0  0  0  0  0  0
   21.6131   45.9772   43.3828 C   0  0  2  0  0  0  0  0  0  0  0  0
   21.2764   45.8467   41.8986 C   0  0  0  0  0  0  0  0  0  0  0  0
   22.9719   46.5106   43.6164 C   0  0  0  0  0  0  0  0  0  0  0  0
  1  2  1  0
  2  3  2  0
  2  4  1  0
  4  5  1  0
  6  5  1  6
  6  7  1  0
  6 10  1  0
  7  8  2  0
  7  9  1  0
 10 11  1  0
 11 12  2  0
 11 13  1  0
 13 14  1  0
 14 15  1  0
 14 18  1  6
 15 16  1  0
 15 17  2  0
 18 19  1  0
 19 20  1  6
 19 21  1  0
M  END
$$$$
