
     RDKit          3D

 21 20  0  0  0  0  0  0  0  0999 V2000
   16.0336   43.9888   38.7728 O   0  0  0  0  0  0  0  0  0  0  0  0
   15.8802   44.9733   39.7158 C   0  0  0  0  0  0  0  0  0  0  0  0
   14.7908   45.5576   39.8583 O   0  0  0  0  0  0  0  0  0  0  0  0
   17.0708   45.3220   40.5698 C   0  0  0  0  0  0  0  0  0  0  0  0
   17.9184   44.1036   40.7977 C   0  0  0  0  0  0  0  0  0  0  0  0
   19.0532   44.3850   41.7393 C   0  0  1  0  0  0  0  0  0  0  0  0
   20.0834   45.2907   41.2210 C   0  0  0  0  0  0  0  0  0  0  0  0
   20.1114   46.5092   41.6003 O   0  0  0  0  0  0  0  0  0  0  0  0
   21.0460   44.8915   40.3296 O   0  0  0  0  0  0  0  0  0  0  0  0
   18.5203   44.8978   43.0190 N   0  0  0  0  0  0  0  0  0  0  0  0
   19.3731   45.1574   44.1255 C   0  0  0  0  0  0  0  0  0  0  0  0
   20.5999   44.9351   43.9605 O   0  0  0  0  0  0  0  0  0  0  0  0
   18.9274   45.6358   45.3577 N   0  0  0  0  0  0  0  0  0  0  0  0
   19.8188   45.8857   46.5195 C   0  0  2  0  0  0  0  0  0  0  0  0
   20.5224   44.6495   46.8816 C   0  0  0  0  0  0  0  0  0  0  0  0
   21.8421   44.5193   47.2478 O   0  0  0  0  0  0  0  0  0  0  0  0
   19.8657   43.5494   46.8612 O   0  0  0  0  0  0  0  0  0  0  0  0
   19.0115   46.4692   47.6095 C   0  0  0  0  0  0  0  0  0  0  0  0
   19.5069   47.6291   48.3656 C   0  0  2  0  0  0  0  0  0  0  0  0
   18.4501   48.1866   49.3173 C   0  0  0  0  0  0  0  0  0  0  0  0
   20.2547   48.6892   47.6568 C   0  0  0  0  0  0  0  0  0  0  0  0
  1  2  1  0
  2  3  2  0
  2  4  1  0
  4  5  1  0
  6  5  1  6
  6  7  1  0
  6 10  1  0
  7  8  2  0
  7  9  1  0
 10 11  1  0
 11 12  2  0
 11 13  1  0
 13 14  1  0
 14 15  1  0
 14 18  1  1
 15 16  1  0
 15 17  2  0
 18 19  1  0
 19 20  1  6
 19 21  1  0
M  END
$$$$
