
     RDKit          3D

 21 20  0  0  0  0  0  0  0  0999 V2000
   13.0507   47.2979   39.9165 O   0  0  0  0  0  0  0  0  0  0  0  0
   13.9189   47.8638   40.8155 C   0  0  0  0  0  0  0  0  0  0  0  0
   13.8014   49.0554   41.1541 O   0  0  0  0  0  0  0  0  0  0  0  0
   15.0153   46.9971   41.3768 C   0  0  0  0  0  0  0  0  0  0  0  0
   14.9098   45.6056   40.8223 C   0  0  0  0  0  0  0  0  0  0  0  0
   15.9999   44.7156   41.3450 C   0  0  1  0  0  0  0  0  0  0  0  0
   17.0525   44.3860   40.3788 C   0  0  0  0  0  0  0  0  0  0  0  0
   16.9446   43.3453   39.6476 O   0  0  0  0  0  0  0  0  0  0  0  0
   18.1756   45.1546   40.2097 O   0  0  0  0  0  0  0  0  0  0  0  0
   16.5916   45.3166   42.5587 N   0  0  0  0  0  0  0  0  0  0  0  0
   17.8870   44.9480   43.0115 C   0  0  0  0  0  0  0  0  0  0  0  0
   18.3979   43.9218   42.4944 O   0  0  0  0  0  0  0  0  0  0  0  0
   18.6039   45.6518   43.9792 N   0  0  0  0  0  0  0  0  0  0  0  0
   19.9585   45.2640   44.4501 C   0  0  2  0  0  0  0  0  0  0  0  0
   20.2432   45.9134   45.7351 C   0  0  0  0  0  0  0  0  0  0  0  0
   20.8798   45.3626   46.8233 O   0  0  0  0  0  0  0  0  0  0  0  0
   19.8673   47.1275   45.8980 O   0  0  0  0  0  0  0  0  0  0  0  0
   20.9298   45.5742   43.3820 C   0  0  0  0  0  0  0  0  0  0  0  0
   22.2188   46.2034   43.7061 C   0  0  2  0  0  0  0  0  0  0  0  0
   22.9305   46.7266   42.4600 C   0  0  0  0  0  0  0  0  0  0  0  0
   23.1368   45.5288   44.6484 C   0  0  0  0  0  0  0  0  0  0  0  0
  1  2  1  0
  2  3  2  0
  2  4  1  0
  4  5  1  0
  6  5  1  6
  6  7  1  0
  6 10  1  0
  7  8  2  0
  7  9  1  0
 10 11  1  0
 11 12  2  0
 11 13  1  0
 13 14  1  0
 14 15  1  0
 14 18  1  6
 15 16  1  0
 15 17  2  0
 18 19  1  0
 19 20  1  6
 19 21  1  0
M  END
$$$$
