
     RDKit          3D

 24 27  0  0  0  0  0  0  0  0999 V2000
   26.3857   56.6785   86.2762 C   0  0  0  0  0  0  0  0  0  0  0  0
   21.9313   55.0354   90.1046 C   0  0  0  0  0  0  0  0  0  0  0  0
   29.3667   54.3988   86.3253 C   0  0  0  0  0  0  0  0  0  0  0  0
   27.5607   55.9538   86.7474 C   0  0  0  0  0  0  0  0  0  0  0  0
   29.7900   54.5721   87.6240 C   0  0  0  0  0  0  0  0  0  0  0  0
   29.0985   55.4266   88.4590 C   0  0  0  0  0  0  0  0  0  0  0  0
   28.2419   55.1056   85.9081 C   0  0  0  0  0  0  0  0  0  0  0  0
   30.8803   53.8946   88.0483 F   0  0  0  0  0  0  0  0  0  0  0  0
   28.0141   56.0884   88.0057 N   0  0  0  0  0  0  0  0  0  0  0  0
   26.0130   56.5431   85.0886 O   0  0  0  0  0  0  0  0  0  0  0  0
   25.6500   57.5299   87.1105 N   0  0  0  0  0  0  0  0  0  0  0  0
   24.2554   57.4765   87.3578 C   0  0  1  0  0  0  0  0  0  0  0  0
   23.3992   57.5612   86.0630 C   0  0  0  0  0  0  0  0  0  0  0  0
   23.3544   56.3998   86.9416 C   0  0  2  0  0  0  0  0  0  0  0  0
   22.1984   56.0806   87.8725 C   0  0  2  0  0  0  0  0  0  0  0  0
   22.7590   55.5194   89.0808 N   0  0  0  0  0  0  0  0  0  0  0  0
   21.3845   54.9436   87.2363 C   0  0  0  0  0  0  0  0  0  0  0  0
   20.0543   55.3322   87.2824 O   0  0  0  0  0  0  0  0  0  0  0  0
   20.1261   56.6968   86.9979 C   0  0  0  0  0  0  0  0  0  0  0  0
   21.1940   57.1361   88.0193 C   0  0  1  0  0  0  0  0  0  0  0  0
   20.4905   57.3184   89.3052 C   0  0  0  0  0  0  0  0  0  0  0  0
   20.2897   55.7137   90.1790 S   0  0  0  0  0  0  0  0  0  0  0  0
   22.3072   54.1709   90.9343 N   0  0  0  0  0  0  0  0  0  0  0  0
   22.7230   54.4799   91.8439 H   0  0  0  0  0  0  0  0  0  0  0  0
  1  4  1  0
  1 10  2  0
 11  1  1  0
 16  2  1  0
  2 22  1  0
  2 23  2  0
  3  5  2  0
  7  3  1  0
  4  7  2  0
  4  9  1  0
  6  5  1  0
  5  8  1  0
  9  6  2  0
 12 11  1  6
 13 12  1  1
 14 12  1  0
 14 13  1  6
 15 14  1  0
 15 16  1  1
 15 17  1  0
 15 20  1  0
 17 18  1  6
 19 18  1  1
 20 19  1  6
 20 21  1  0
 21 22  1  6
 23 24  1  0
M  END
$$$$
