
     RDKit          3D

 24 27  0  0  0  0  0  0  0  0999 V2000
   26.2983   55.3351   87.4647 C   0  0  0  0  0  0  0  0  0  0  0  0
   21.1431   55.2983   90.5232 C   0  0  0  0  0  0  0  0  0  0  0  0
   28.4918   56.5065   84.6537 C   0  0  0  0  0  0  0  0  0  0  0  0
   27.4726   55.7897   86.7287 C   0  0  0  0  0  0  0  0  0  0  0  0
   29.6890   56.6525   85.3177 C   0  0  0  0  0  0  0  0  0  0  0  0
   29.7607   56.3675   86.6665 C   0  0  0  0  0  0  0  0  0  0  0  0
   27.3907   56.0708   85.3861 C   0  0  0  0  0  0  0  0  0  0  0  0
   30.7700   57.0746   84.6240 F   0  0  0  0  0  0  0  0  0  0  0  0
   28.6641   55.9482   87.3307 N   0  0  0  0  0  0  0  0  0  0  0  0
   26.4480   54.6977   88.5320 O   0  0  0  0  0  0  0  0  0  0  0  0
   24.9945   55.5870   87.0187 N   0  0  0  0  0  0  0  0  0  0  0  0
   23.9252   56.1179   87.7827 C   0  0  1  0  0  0  0  0  0  0  0  0
   23.5120   57.5516   87.3461 C   0  0  0  0  0  0  0  0  0  0  0  0
   22.5862   56.4286   87.2780 C   0  0  2  0  0  0  0  0  0  0  0  0
   21.4300   56.2189   88.2392 C   0  0  2  0  0  0  0  0  0  0  0  0
   21.9789   55.6861   89.4656 N   0  0  0  0  0  0  0  0  0  0  0  0
   20.5448   55.0995   87.6705 C   0  0  0  0  0  0  0  0  0  0  0  0
   19.2387   55.5629   87.7161 O   0  0  0  0  0  0  0  0  0  0  0  0
   19.3803   56.9062   87.3643 C   0  0  0  0  0  0  0  0  0  0  0  0
   20.4873   57.3342   88.3482 C   0  0  1  0  0  0  0  0  0  0  0  0
   19.8161   57.6166   89.6333 C   0  0  0  0  0  0  0  0  0  0  0  0
   19.5424   56.0693   90.5871 S   0  0  0  0  0  0  0  0  0  0  0  0
   21.4848   54.4551   91.3888 N   0  0  0  0  0  0  0  0  0  0  0  0
   22.4184   53.9885   91.3095 H   0  0  0  0  0  0  0  0  0  0  0  0
  1  4  1  0
  1 10  2  0
 11  1  1  0
 16  2  1  0
  2 22  1  0
  2 23  2  0
  3  5  2  0
  7  3  1  0
  4  7  2  0
  4  9  1  0
  6  5  1  0
  5  8  1  0
  9  6  2  0
 12 11  1  6
 13 12  1  1
 14 12  1  0
 14 13  1  1
 15 14  1  0
 15 16  1  1
 15 17  1  0
 15 20  1  0
 17 18  1  6
 19 18  1  1
 20 19  1  6
 20 21  1  0
 21 22  1  6
 23 24  1  0
M  END
$$$$
