
     RDKit          3D

 24 27  0  0  0  0  0  0  0  0999 V2000
   26.4622   55.7731   85.7064 C   0  0  0  0  0  0  0  0  0  0  0  0
   22.0406   55.4134   90.2991 C   0  0  0  0  0  0  0  0  0  0  0  0
   29.9711   56.3038   86.9275 C   0  0  0  0  0  0  0  0  0  0  0  0
   27.7216   55.5728   86.4144 C   0  0  0  0  0  0  0  0  0  0  0  0
   30.1161   55.2085   87.7491 C   0  0  0  0  0  0  0  0  0  0  0  0
   29.0706   54.3182   87.8906 C   0  0  0  0  0  0  0  0  0  0  0  0
   28.7562   56.4649   86.2667 C   0  0  0  0  0  0  0  0  0  0  0  0
   31.2884   55.0344   88.3997 F   0  0  0  0  0  0  0  0  0  0  0  0
   27.9132   54.5198   87.2279 N   0  0  0  0  0  0  0  0  0  0  0  0
   26.4519   56.4287   84.6397 O   0  0  0  0  0  0  0  0  0  0  0  0
   25.2498   55.2544   86.1791 N   0  0  0  0  0  0  0  0  0  0  0  0
   24.2239   55.9706   86.8450 C   0  0  1  0  0  0  0  0  0  0  0  0
   23.3726   56.8533   85.8895 C   0  0  0  0  0  0  0  0  0  0  0  0
   22.7849   55.7683   86.6643 C   0  0  2  0  0  0  0  0  0  0  0  0
   21.9092   55.9728   87.8874 C   0  0  2  0  0  0  0  0  0  0  0  0
   22.6303   55.4526   89.0270 N   0  0  0  0  0  0  0  0  0  0  0  0
   20.6773   55.0671   87.7385 C   0  0  0  0  0  0  0  0  0  0  0  0
   19.5685   55.8564   88.0037 O   0  0  0  0  0  0  0  0  0  0  0  0
   19.9088   57.0700   87.4038 C   0  0  0  0  0  0  0  0  0  0  0  0
   21.3040   57.2999   88.0178 C   0  0  1  0  0  0  0  0  0  0  0  0
   21.0794   57.8857   89.3550 C   0  0  0  0  0  0  0  0  0  0  0  0
   20.7294   56.5765   90.5969 S   0  0  0  0  0  0  0  0  0  0  0  0
   22.4021   54.6100   91.1940 N   0  0  0  0  0  0  0  0  0  0  0  0
   23.1755   54.8817   91.8448 H   0  0  0  0  0  0  0  0  0  0  0  0
  1  4  1  0
  1 10  2  0
 11  1  1  0
 16  2  1  0
  2 22  1  0
  2 23  2  0
  3  5  2  0
  7  3  1  0
  4  7  2  0
  4  9  1  0
  6  5  1  0
  5  8  1  0
  9  6  2  0
 12 11  1  6
 13 12  1  1
 14 12  1  0
 14 13  1  6
 15 14  1  0
 15 16  1  1
 15 17  1  0
 15 20  1  0
 17 18  1  6
 19 18  1  1
 20 19  1  1
 20 21  1  0
 21 22  1  6
 23 24  1  0
M  END
$$$$
