
     RDKit          3D

 24 27  0  0  0  0  0  0  0  0999 V2000
   17.0257   55.8180   89.0932 C   0  0  0  0  0  0  0  0  0  0  0  0
   22.8520   55.0276   90.0767 C   0  0  0  0  0  0  0  0  0  0  0  0
   13.4368   56.8878   89.3395 C   0  0  0  0  0  0  0  0  0  0  0  0
   15.5767   55.8350   88.9268 C   0  0  0  0  0  0  0  0  0  0  0  0
   12.8287   55.8828   88.6213 C   0  0  0  0  0  0  0  0  0  0  0  0
   13.5966   54.8766   88.0705 C   0  0  0  0  0  0  0  0  0  0  0  0
   14.8214   56.8412   89.4791 C   0  0  0  0  0  0  0  0  0  0  0  0
   11.4849   55.9102   88.4744 F   0  0  0  0  0  0  0  0  0  0  0  0
   14.9354   54.8774   88.2348 N   0  0  0  0  0  0  0  0  0  0  0  0
   17.5899   56.7676   89.6828 O   0  0  0  0  0  0  0  0  0  0  0  0
   17.8196   54.7683   88.6134 N   0  0  0  0  0  0  0  0  0  0  0  0
   19.2254   54.7829   88.4334 C   0  0  1  0  0  0  0  0  0  0  0  0
   19.6525   54.7741   86.9386 C   0  0  0  0  0  0  0  0  0  0  0  0
   19.9986   55.8716   87.8323 C   0  0  2  0  0  0  0  0  0  0  0  0
   21.3902   56.1081   88.3908 C   0  0  2  0  0  0  0  0  0  0  0  0
   21.6698   55.0384   89.3219 N   0  0  0  0  0  0  0  0  0  0  0  0
   21.3425   57.3857   89.2426 C   0  0  0  0  0  0  0  0  0  0  0  0
   22.4154   58.1692   88.8455 O   0  0  0  0  0  0  0  0  0  0  0  0
   22.4403   57.9728   87.4637 C   0  0  0  0  0  0  0  0  0  0  0  0
   22.4219   56.4325   87.4034 C   0  0  1  0  0  0  0  0  0  0  0  0
   23.8156   55.9905   87.6127 C   0  0  0  0  0  0  0  0  0  0  0  0
   24.2261   55.9328   89.4035 S   0  0  0  0  0  0  0  0  0  0  0  0
   22.9575   54.4192   91.1702 N   0  0  0  0  0  0  0  0  0  0  0  0
   23.3442   54.9233   92.0021 H   0  0  0  0  0  0  0  0  0  0  0  0
  1  4  1  0
  1 10  2  0
 11  1  1  0
 16  2  1  0
  2 22  1  0
  2 23  2  0
  3  5  2  0
  7  3  1  0
  4  7  2  0
  4  9  1  0
  6  5  1  0
  5  8  1  0
  9  6  2  0
 12 11  1  6
 13 12  1  1
 14 12  1  0
 14 13  1  6
 15 14  1  0
 15 16  1  1
 15 17  1  0
 15 20  1  0
 17 18  1  6
 19 18  1  1
 20 19  1  1
 20 21  1  0
 21 22  1  6
 23 24  1  0
M  END
$$$$
