
     RDKit          3D

 24 27  0  0  0  0  0  0  0  0999 V2000
   27.0790   55.7710   87.8845 C   0  0  0  0  0  0  0  0  0  0  0  0
   21.6106   54.8877   90.7559 C   0  0  0  0  0  0  0  0  0  0  0  0
   30.4539   55.7745   86.2226 C   0  0  0  0  0  0  0  0  0  0  0  0
   28.1102   55.6982   86.8536 C   0  0  0  0  0  0  0  0  0  0  0  0
   30.1125   55.5628   84.8955 C   0  0  0  0  0  0  0  0  0  0  0  0
   28.7682   55.4283   84.6152 C   0  0  0  0  0  0  0  0  0  0  0  0
   29.4468   55.8363   87.1637 C   0  0  0  0  0  0  0  0  0  0  0  0
   31.0740   55.4955   83.9385 F   0  0  0  0  0  0  0  0  0  0  0  0
   27.8076   55.4938   85.5588 N   0  0  0  0  0  0  0  0  0  0  0  0
   27.4044   55.9270   89.0748 O   0  0  0  0  0  0  0  0  0  0  0  0
   25.7213   55.6680   87.5575 N   0  0  0  0  0  0  0  0  0  0  0  0
   24.6281   56.0024   88.4105 C   0  0  1  0  0  0  0  0  0  0  0  0
   24.2861   57.5178   88.4300 C   0  0  0  0  0  0  0  0  0  0  0  0
   23.3472   56.5358   87.9098 C   0  0  2  0  0  0  0  0  0  0  0  0
   22.1223   56.0401   88.6582 C   0  0  2  0  0  0  0  0  0  0  0  0
   22.5399   55.5511   89.9444 N   0  0  0  0  0  0  0  0  0  0  0  0
   21.6001   54.8342   87.8696 C   0  0  0  0  0  0  0  0  0  0  0  0
   20.2712   55.0488   87.6244 O   0  0  0  0  0  0  0  0  0  0  0  0
   20.2025   56.4368   87.3968 C   0  0  0  0  0  0  0  0  0  0  0  0
   20.9826   56.9656   88.6195 C   0  0  1  0  0  0  0  0  0  0  0  0
   20.0130   56.9720   89.7399 C   0  0  0  0  0  0  0  0  0  0  0  0
   19.8978   55.2866   90.4680 S   0  0  0  0  0  0  0  0  0  0  0  0
   21.9338   54.0548   91.6466 N   0  0  0  0  0  0  0  0  0  0  0  0
   21.8719   54.2065   92.6624 H   0  0  0  0  0  0  0  0  0  0  0  0
  1  4  1  0
  1 10  2  0
 11  1  1  0
 16  2  1  0
  2 22  1  0
  2 23  2  0
  3  5  2  0
  7  3  1  0
  4  7  2  0
  4  9  1  0
  6  5  1  0
  5  8  1  0
  9  6  2  0
 12 11  1  6
 13 12  1  0
 14 12  1  0
 14 13  1  1
 15 14  1  0
 15 16  1  0
 15 17  1  6
 15 20  1  0
 17 18  1  0
 18 19  1  0
 20 19  1  6
 20 21  1  0
 21 22  1  0
 23 24  1  0
M  END
$$$$
