
     RDKit          3D

 24 27  0  0  0  0  0  0  0  0999 V2000
   26.2481   55.5424   87.4651 C   0  0  0  0  0  0  0  0  0  0  0  0
   21.5961   55.1623   90.4234 C   0  0  0  0  0  0  0  0  0  0  0  0
   29.9141   55.3717   88.2506 C   0  0  0  0  0  0  0  0  0  0  0  0
   27.6967   55.6184   87.3123 C   0  0  0  0  0  0  0  0  0  0  0  0
   30.4452   55.7570   87.0402 C   0  0  0  0  0  0  0  0  0  0  0  0
   29.6018   56.0650   85.9917 C   0  0  0  0  0  0  0  0  0  0  0  0
   28.5276   55.3096   88.3622 C   0  0  0  0  0  0  0  0  0  0  0  0
   31.7895   55.8234   86.9116 F   0  0  0  0  0  0  0  0  0  0  0  0
   28.2646   55.9891   86.1516 N   0  0  0  0  0  0  0  0  0  0  0  0
   25.7474   54.6171   88.1440 O   0  0  0  0  0  0  0  0  0  0  0  0
   25.3856   56.4752   86.8750 N   0  0  0  0  0  0  0  0  0  0  0  0
   24.0482   56.7510   87.2544 C   0  0  1  0  0  0  0  0  0  0  0  0
   23.0975   56.9600   86.0422 C   0  0  0  0  0  0  0  0  0  0  0  0
   22.8935   55.8857   87.0050 C   0  0  2  0  0  0  0  0  0  0  0  0
   21.8024   55.8843   88.0607 C   0  0  2  0  0  0  0  0  0  0  0  0
   22.3830   55.3726   89.2815 N   0  0  0  0  0  0  0  0  0  0  0  0
   20.7496   54.8457   87.6453 C   0  0  0  0  0  0  0  0  0  0  0  0
   19.5144   55.4672   87.7494 O   0  0  0  0  0  0  0  0  0  0  0  0
   19.7828   56.7563   87.2862 C   0  0  0  0  0  0  0  0  0  0  0  0
   21.0082   57.1113   88.1516 C   0  0  1  0  0  0  0  0  0  0  0  0
   20.4809   57.5598   89.4564 C   0  0  0  0  0  0  0  0  0  0  0  0
   20.1067   56.1257   90.5435 S   0  0  0  0  0  0  0  0  0  0  0  0
   21.9062   54.3441   91.3242 N   0  0  0  0  0  0  0  0  0  0  0  0
   22.5531   54.6454   92.0899 H   0  0  0  0  0  0  0  0  0  0  0  0
  1  4  1  0
  1 10  2  0
 11  1  1  0
 16  2  1  0
  2 22  1  0
  2 23  2  0
  3  5  2  0
  7  3  1  0
  4  7  2  0
  4  9  1  0
  6  5  1  0
  5  8  1  0
  9  6  2  0
 12 11  1  6
 13 12  1  1
 14 12  1  0
 14 13  1  6
 15 14  1  0
 15 16  1  1
 15 17  1  0
 15 20  1  0
 17 18  1  6
 19 18  1  1
 20 19  1  6
 20 21  1  0
 21 22  1  6
 23 24  1  0
M  END
$$$$
