
     RDKit          3D

 24 27  0  0  0  0  0  0  0  0999 V2000
   17.2563   54.9321   87.6234 C   0  0  0  0  0  0  0  0  0  0  0  0
   22.7695   55.5097   90.3470 C   0  0  0  0  0  0  0  0  0  0  0  0
   13.5934   54.8678   86.8082 C   0  0  0  0  0  0  0  0  0  0  0  0
   15.9973   54.6262   86.9534 C   0  0  0  0  0  0  0  0  0  0  0  0
   13.6012   54.0566   85.6957 C   0  0  0  0  0  0  0  0  0  0  0  0
   14.7968   53.5460   85.2317 C   0  0  0  0  0  0  0  0  0  0  0  0
   14.8125   55.1396   87.4235 C   0  0  0  0  0  0  0  0  0  0  0  0
   12.4274   53.7808   85.0840 F   0  0  0  0  0  0  0  0  0  0  0  0
   15.9513   53.8397   85.8642 N   0  0  0  0  0  0  0  0  0  0  0  0
   17.2405   55.3643   88.7984 O   0  0  0  0  0  0  0  0  0  0  0  0
   18.4967   54.7590   86.9958 N   0  0  0  0  0  0  0  0  0  0  0  0
   19.7745   54.8742   87.5982 C   0  0  1  0  0  0  0  0  0  0  0  0
   20.9332   54.4084   86.6723 C   0  0  0  0  0  0  0  0  0  0  0  0
   20.8444   55.7761   87.1666 C   0  0  2  0  0  0  0  0  0  0  0  0
   21.7347   56.3473   88.2556 C   0  0  2  0  0  0  0  0  0  0  0  0
   22.0357   55.2735   89.1751 N   0  0  0  0  0  0  0  0  0  0  0  0
   20.9002   57.3523   89.0641 C   0  0  0  0  0  0  0  0  0  0  0  0
   21.6624   58.5055   89.1737 O   0  0  0  0  0  0  0  0  0  0  0  0
   22.2631   58.5934   87.9169 C   0  0  0  0  0  0  0  0  0  0  0  0
   22.8510   57.1738   87.7917 C   0  0  1  0  0  0  0  0  0  0  0  0
   24.1270   57.1841   88.5357 C   0  0  0  0  0  0  0  0  0  0  0  0
   23.8429   56.9269   90.3335 S   0  0  0  0  0  0  0  0  0  0  0  0
   22.6890   54.7747   91.3620 N   0  0  0  0  0  0  0  0  0  0  0  0
   23.4895   54.7412   92.0356 H   0  0  0  0  0  0  0  0  0  0  0  0
  1  4  1  0
  1 10  2  0
 11  1  1  0
 16  2  1  0
  2 22  1  0
  2 23  2  0
  3  5  2  0
  7  3  1  0
  4  7  2  0
  4  9  1  0
  6  5  1  0
  5  8  1  0
  9  6  2  0
 12 11  1  6
 13 12  1  1
 14 12  1  0
 14 13  1  6
 15 14  1  0
 15 16  1  1
 15 17  1  0
 15 20  1  0
 17 18  1  6
 19 18  1  1
 20 19  1  1
 20 21  1  0
 21 22  1  6
 23 24  1  0
M  END
$$$$
