
     RDKit          3D

 24 27  0  0  0  0  0  0  0  0999 V2000
   26.8488   55.8012   86.2481 C   0  0  0  0  0  0  0  0  0  0  0  0
   22.2135   54.8486   90.4155 C   0  0  0  0  0  0  0  0  0  0  0  0
   30.4524   55.5634   87.3009 C   0  0  0  0  0  0  0  0  0  0  0  0
   28.0558   55.3819   86.9541 C   0  0  0  0  0  0  0  0  0  0  0  0
   30.3909   54.5967   88.2930 C   0  0  0  0  0  0  0  0  0  0  0  0
   29.1464   54.0670   88.5660 C   0  0  0  0  0  0  0  0  0  0  0  0
   29.2869   55.9294   86.6597 C   0  0  0  0  0  0  0  0  0  0  0  0
   31.5156   54.2086   88.9483 F   0  0  0  0  0  0  0  0  0  0  0  0
   28.0253   54.4465   87.9205 N   0  0  0  0  0  0  0  0  0  0  0  0
   26.9100   56.7162   85.4078 O   0  0  0  0  0  0  0  0  0  0  0  0
   25.6145   55.1894   86.5000 N   0  0  0  0  0  0  0  0  0  0  0  0
   24.4760   55.8147   87.0892 C   0  0  1  0  0  0  0  0  0  0  0  0
   23.5430   56.5165   86.0643 C   0  0  0  0  0  0  0  0  0  0  0  0
   23.0917   55.3711   86.8394 C   0  0  2  0  0  0  0  0  0  0  0  0
   22.1737   55.4601   88.0459 C   0  0  2  0  0  0  0  0  0  0  0  0
   22.8990   55.0154   89.2053 N   0  0  0  0  0  0  0  0  0  0  0  0
   21.0520   54.4443   87.8038 C   0  0  0  0  0  0  0  0  0  0  0  0
   19.8624   55.1022   87.9591 O   0  0  0  0  0  0  0  0  0  0  0  0
   20.1236   56.3776   87.4221 C   0  0  0  0  0  0  0  0  0  0  0  0
   21.4404   56.7285   88.1473 C   0  0  1  0  0  0  0  0  0  0  0  0
   21.0397   57.2317   89.4821 C   0  0  0  0  0  0  0  0  0  0  0  0
   20.7275   55.8127   90.6103 S   0  0  0  0  0  0  0  0  0  0  0  0
   22.5992   54.0729   91.3326 N   0  0  0  0  0  0  0  0  0  0  0  0
   23.2565   54.3135   92.0866 H   0  0  0  0  0  0  0  0  0  0  0  0
  1  4  1  0
  1 10  2  0
 11  1  1  0
 16  2  1  0
  2 22  1  0
  2 23  2  0
  3  5  2  0
  7  3  1  0
  4  7  2  0
  4  9  1  0
  6  5  1  0
  5  8  1  0
  9  6  2  0
 12 11  1  6
 13 12  1  0
 14 12  1  0
 14 13  1  6
 15 14  1  0
 15 16  1  0
 15 17  1  6
 15 20  1  0
 17 18  1  0
 18 19  1  0
 20 19  1  6
 20 21  1  0
 21 22  1  0
 23 24  1  0
M  END
$$$$
