
     RDKit          3D

 24 27  0  0  0  0  0  0  0  0999 V2000
   27.0612   57.0003   86.3984 C   0  0  0  0  0  0  0  0  0  0  0  0
   22.5415   55.4524   90.1619 C   0  0  0  0  0  0  0  0  0  0  0  0
   30.5486   55.9860   87.3786 C   0  0  0  0  0  0  0  0  0  0  0  0
   28.1637   56.2787   87.0269 C   0  0  0  0  0  0  0  0  0  0  0  0
   30.3016   54.9119   88.2198 C   0  0  0  0  0  0  0  0  0  0  0  0
   28.9791   54.5743   88.4220 C   0  0  0  0  0  0  0  0  0  0  0  0
   29.4765   56.6391   86.8061 C   0  0  0  0  0  0  0  0  0  0  0  0
   31.3294   54.2424   88.8032 F   0  0  0  0  0  0  0  0  0  0  0  0
   27.9531   55.2334   87.8470 N   0  0  0  0  0  0  0  0  0  0  0  0
   27.1507   58.2269   86.2131 O   0  0  0  0  0  0  0  0  0  0  0  0
   25.8966   56.3341   85.9971 N   0  0  0  0  0  0  0  0  0  0  0  0
   24.5696   56.6411   86.4206 C   0  0  1  0  0  0  0  0  0  0  0  0
   23.4874   56.3813   85.3365 C   0  0  0  0  0  0  0  0  0  0  0  0
   23.5156   55.6211   86.5766 C   0  0  2  0  0  0  0  0  0  0  0  0
   22.5787   55.8566   87.7483 C   0  0  2  0  0  0  0  0  0  0  0  0
   23.2584   55.4817   88.9588 N   0  0  0  0  0  0  0  0  0  0  0  0
   21.4149   54.8761   87.5672 C   0  0  0  0  0  0  0  0  0  0  0  0
   20.2552   55.5988   87.6365 O   0  0  0  0  0  0  0  0  0  0  0  0
   20.5878   56.8094   86.9984 C   0  0  0  0  0  0  0  0  0  0  0  0
   21.9050   57.1613   87.7225 C   0  0  1  0  0  0  0  0  0  0  0  0
   21.5018   57.7965   88.9990 C   0  0  0  0  0  0  0  0  0  0  0  0
   21.0995   56.4968   90.2371 S   0  0  0  0  0  0  0  0  0  0  0  0
   22.8711   54.7425   91.1514 N   0  0  0  0  0  0  0  0  0  0  0  0
   22.7331   54.9891   92.1407 H   0  0  0  0  0  0  0  0  0  0  0  0
  1  4  1  0
  1 10  2  0
 11  1  1  0
 16  2  1  0
  2 22  1  0
  2 23  2  0
  3  5  2  0
  7  3  1  0
  4  7  2  0
  4  9  1  0
  6  5  1  0
  5  8  1  0
  9  6  2  0
 12 11  1  6
 13 12  1  0
 14 12  1  0
 14 13  1  6
 15 14  1  0
 15 16  1  0
 15 17  1  6
 15 20  1  0
 17 18  1  0
 18 19  1  0
 20 19  1  6
 20 21  1  0
 21 22  1  0
 23 24  1  0
M  END
$$$$
