
     RDKit          3D

 24 27  0  0  0  0  0  0  0  0999 V2000
   26.0451   55.3838   86.4221 C   0  0  0  0  0  0  0  0  0  0  0  0
   21.6444   54.6078   90.5063 C   0  0  0  0  0  0  0  0  0  0  0  0
   29.6249   54.7524   85.4536 C   0  0  0  0  0  0  0  0  0  0  0  0
   27.5044   55.3739   86.4608 C   0  0  0  0  0  0  0  0  0  0  0  0
   30.3077   55.3394   86.5080 C   0  0  0  0  0  0  0  0  0  0  0  0
   29.5402   55.9205   87.4965 C   0  0  0  0  0  0  0  0  0  0  0  0
   28.2455   54.7851   85.4578 C   0  0  0  0  0  0  0  0  0  0  0  0
   31.6655   55.3287   86.5414 F   0  0  0  0  0  0  0  0  0  0  0  0
   28.1924   55.9356   87.4712 N   0  0  0  0  0  0  0  0  0  0  0  0
   25.4343   54.4451   85.8809 O   0  0  0  0  0  0  0  0  0  0  0  0
   25.3140   56.4366   86.9862 N   0  0  0  0  0  0  0  0  0  0  0  0
   24.3921   56.3284   88.0692 C   0  0  1  0  0  0  0  0  0  0  0  0
   24.1938   57.6503   88.8609 C   0  0  0  0  0  0  0  0  0  0  0  0
   23.1046   57.0471   88.1083 C   0  0  2  0  0  0  0  0  0  0  0  0
   21.9633   56.2625   88.7313 C   0  0  2  0  0  0  0  0  0  0  0  0
   22.4725   55.5372   89.8638 N   0  0  0  0  0  0  0  0  0  0  0  0
   21.5415   55.2226   87.6876 C   0  0  0  0  0  0  0  0  0  0  0  0
   20.1900   55.3433   87.5113 O   0  0  0  0  0  0  0  0  0  0  0  0
   19.9712   56.7306   87.6149 C   0  0  0  0  0  0  0  0  0  0  0  0
   20.7339   57.0433   88.9202 C   0  0  1  0  0  0  0  0  0  0  0  0
   19.8074   56.6856   90.0197 C   0  0  0  0  0  0  0  0  0  0  0  0
   19.8909   54.8751   90.3350 S   0  0  0  0  0  0  0  0  0  0  0  0
   22.0817   53.6314   91.1748 N   0  0  0  0  0  0  0  0  0  0  0  0
   21.5348   53.0608   91.8335 H   0  0  0  0  0  0  0  0  0  0  0  0
  1  4  1  0
  1 10  2  0
 11  1  1  0
 16  2  1  0
  2 22  1  0
  2 23  2  0
  3  5  2  0
  7  3  1  0
  4  7  2  0
  4  9  1  0
  6  5  1  0
  5  8  1  0
  9  6  2  0
 12 11  1  6
 13 12  1  0
 14 12  1  0
 14 13  1  1
 15 14  1  0
 15 16  1  0
 15 17  1  6
 15 20  1  0
 17 18  1  0
 18 19  1  0
 20 19  1  6
 20 21  1  0
 21 22  1  0
 23 24  1  0
M  END
$$$$
