
     RDKit          3D

 24 27  0  0  0  0  0  0  0  0999 V2000
   26.7671   55.8131   87.4654 C   0  0  0  0  0  0  0  0  0  0  0  0
   21.4102   54.8887   90.6801 C   0  0  0  0  0  0  0  0  0  0  0  0
   29.9665   55.5554   85.5036 C   0  0  0  0  0  0  0  0  0  0  0  0
   27.6913   55.6795   86.3433 C   0  0  0  0  0  0  0  0  0  0  0  0
   29.4905   55.4245   84.2079 C   0  0  0  0  0  0  0  0  0  0  0  0
   28.1200   55.4282   84.0478 C   0  0  0  0  0  0  0  0  0  0  0  0
   29.0572   55.6791   86.5339 C   0  0  0  0  0  0  0  0  0  0  0  0
   30.3528   55.3003   83.1658 F   0  0  0  0  0  0  0  0  0  0  0  0
   27.2573   55.5509   85.0764 N   0  0  0  0  0  0  0  0  0  0  0  0
   27.2001   56.1212   88.5900 O   0  0  0  0  0  0  0  0  0  0  0  0
   25.3930   55.5998   87.2996 N   0  0  0  0  0  0  0  0  0  0  0  0
   24.3744   55.9434   88.2371 C   0  0  1  0  0  0  0  0  0  0  0  0
   24.1484   57.4731   88.3880 C   0  0  0  0  0  0  0  0  0  0  0  0
   23.1125   56.6032   87.8525 C   0  0  2  0  0  0  0  0  0  0  0  0
   21.8950   56.1388   88.6325 C   0  0  2  0  0  0  0  0  0  0  0  0
   22.3411   55.5429   89.8629 N   0  0  0  0  0  0  0  0  0  0  0  0
   21.2567   55.0213   87.8004 C   0  0  0  0  0  0  0  0  0  0  0  0
   19.9346   55.3345   87.6386 O   0  0  0  0  0  0  0  0  0  0  0  0
   19.9470   56.7358   87.4999 C   0  0  0  0  0  0  0  0  0  0  0  0
   20.8186   57.1348   88.7100 C   0  0  1  0  0  0  0  0  0  0  0  0
   19.9069   57.1304   89.8779 C   0  0  0  0  0  0  0  0  0  0  0  0
   19.7156   55.4124   90.5071 S   0  0  0  0  0  0  0  0  0  0  0  0
   21.7203   53.9817   91.5002 N   0  0  0  0  0  0  0  0  0  0  0  0
   22.4456   53.2658   91.3589 H   0  0  0  0  0  0  0  0  0  0  0  0
  1  4  1  0
  1 10  2  0
 11  1  1  0
 16  2  1  0
  2 22  1  0
  2 23  2  0
  3  5  2  0
  7  3  1  0
  4  7  2  0
  4  9  1  0
  6  5  1  0
  5  8  1  0
  9  6  2  0
 12 11  1  6
 13 12  1  0
 14 12  1  0
 14 13  1  1
 15 14  1  0
 15 16  1  0
 15 17  1  6
 15 20  1  0
 17 18  1  0
 18 19  1  0
 20 19  1  6
 20 21  1  0
 21 22  1  0
 23 24  1  0
M  END
$$$$
