
     RDKit          3D

 24 27  0  0  0  0  0  0  0  0999 V2000
   26.6326   56.1560   85.7614 C   0  0  0  0  0  0  0  0  0  0  0  0
   22.4610   54.9865   90.0792 C   0  0  0  0  0  0  0  0  0  0  0  0
   29.9298   55.6625   87.4849 C   0  0  0  0  0  0  0  0  0  0  0  0
   27.6629   55.6112   86.6385 C   0  0  0  0  0  0  0  0  0  0  0  0
   29.6281   54.5909   88.2952 C   0  0  0  0  0  0  0  0  0  0  0  0
   28.3588   54.0492   88.2659 C   0  0  0  0  0  0  0  0  0  0  0  0
   28.9234   56.1578   86.6600 C   0  0  0  0  0  0  0  0  0  0  0  0
   30.5920   54.0954   89.1035 F   0  0  0  0  0  0  0  0  0  0  0  0
   27.4188   54.5663   87.4483 N   0  0  0  0  0  0  0  0  0  0  0  0
   26.8839   57.1695   85.0704 O   0  0  0  0  0  0  0  0  0  0  0  0
   25.3584   55.5827   85.6611 N   0  0  0  0  0  0  0  0  0  0  0  0
   24.1797   56.0175   86.3171 C   0  0  1  0  0  0  0  0  0  0  0  0
   22.9978   56.2829   85.3426 C   0  0  0  0  0  0  0  0  0  0  0  0
   22.9198   55.2747   86.3916 C   0  0  2  0  0  0  0  0  0  0  0  0
   22.1099   55.4329   87.6659 C   0  0  2  0  0  0  0  0  0  0  0  0
   22.9573   55.0380   88.7683 N   0  0  0  0  0  0  0  0  0  0  0  0
   20.9770   54.3958   87.6329 C   0  0  0  0  0  0  0  0  0  0  0  0
   19.8088   55.0723   87.9496 O   0  0  0  0  0  0  0  0  0  0  0  0
   19.9742   56.2906   87.2887 C   0  0  0  0  0  0  0  0  0  0  0  0
   21.3736   56.6920   87.7957 C   0  0  1  0  0  0  0  0  0  0  0  0
   21.1755   57.3029   89.1259 C   0  0  0  0  0  0  0  0  0  0  0  0
   21.0534   56.0140   90.4307 S   0  0  0  0  0  0  0  0  0  0  0  0
   22.9664   54.2622   90.9719 N   0  0  0  0  0  0  0  0  0  0  0  0
   22.3794   53.9688   91.7873 H   0  0  0  0  0  0  0  0  0  0  0  0
  1  4  1  0
  1 10  2  0
 11  1  1  0
 16  2  1  0
  2 22  1  0
  2 23  2  0
  3  5  2  0
  7  3  1  0
  4  7  2  0
  4  9  1  0
  6  5  1  0
  5  8  1  0
  9  6  2  0
 12 11  1  6
 13 12  1  1
 14 12  1  0
 14 13  1  6
 15 14  1  0
 15 16  1  1
 15 17  1  0
 15 20  1  0
 17 18  1  6
 19 18  1  1
 20 19  1  1
 20 21  1  0
 21 22  1  6
 23 24  1  0
M  END
$$$$
