
     RDKit          3D

 24 27  0  0  0  0  0  0  0  0999 V2000
   26.8306   55.9864   86.2182 C   0  0  0  0  0  0  0  0  0  0  0  0
   22.1840   54.9733   90.2889 C   0  0  0  0  0  0  0  0  0  0  0  0
   30.3781   55.6769   87.4309 C   0  0  0  0  0  0  0  0  0  0  0  0
   27.9963   55.5432   86.9772 C   0  0  0  0  0  0  0  0  0  0  0  0
   30.2530   54.7118   88.4186 C   0  0  0  0  0  0  0  0  0  0  0  0
   28.9872   54.2072   88.6352 C   0  0  0  0  0  0  0  0  0  0  0  0
   29.2499   56.0659   86.7384 C   0  0  0  0  0  0  0  0  0  0  0  0
   31.3393   54.3015   89.1232 F   0  0  0  0  0  0  0  0  0  0  0  0
   27.9039   54.6089   87.9406 N   0  0  0  0  0  0  0  0  0  0  0  0
   26.9375   56.9305   85.4156 O   0  0  0  0  0  0  0  0  0  0  0  0
   25.5856   55.3651   86.3769 N   0  0  0  0  0  0  0  0  0  0  0  0
   24.4217   55.9590   86.9489 C   0  0  1  0  0  0  0  0  0  0  0  0
   23.4655   56.6004   85.9058 C   0  0  0  0  0  0  0  0  0  0  0  0
   23.0564   55.4563   86.7058 C   0  0  2  0  0  0  0  0  0  0  0  0
   22.1316   55.5370   87.9077 C   0  0  2  0  0  0  0  0  0  0  0  0
   22.8676   55.1401   89.0776 N   0  0  0  0  0  0  0  0  0  0  0  0
   21.0464   54.4787   87.6822 C   0  0  0  0  0  0  0  0  0  0  0  0
   19.8343   55.0981   87.8212 O   0  0  0  0  0  0  0  0  0  0  0  0
   20.0535   56.3711   87.2602 C   0  0  0  0  0  0  0  0  0  0  0  0
   21.3549   56.7811   87.9823 C   0  0  1  0  0  0  0  0  0  0  0  0
   20.9323   57.2960   89.3058 C   0  0  0  0  0  0  0  0  0  0  0  0
   20.6651   55.8892   90.4605 S   0  0  0  0  0  0  0  0  0  0  0  0
   22.5928   54.2292   91.2220 N   0  0  0  0  0  0  0  0  0  0  0  0
   23.0505   54.5465   92.0872 H   0  0  0  0  0  0  0  0  0  0  0  0
  1  4  1  0
  1 10  2  0
 11  1  1  0
 16  2  1  0
  2 22  1  0
  2 23  2  0
  3  5  2  0
  7  3  1  0
  4  7  2  0
  4  9  1  0
  6  5  1  0
  5  8  1  0
  9  6  2  0
 12 11  1  6
 13 12  1  0
 14 12  1  0
 14 13  1  6
 15 14  1  0
 15 16  1  0
 15 17  1  6
 15 20  1  0
 17 18  1  0
 18 19  1  0
 20 19  1  6
 20 21  1  0
 21 22  1  0
 23 24  1  0
M  END
$$$$
