
     RDKit          3D

 24 27  0  0  0  0  0  0  0  0999 V2000
   26.9115   56.1401   87.5570 C   0  0  0  0  0  0  0  0  0  0  0  0
   21.6436   55.0796   90.4562 C   0  0  0  0  0  0  0  0  0  0  0  0
   30.3390   55.5924   86.1067 C   0  0  0  0  0  0  0  0  0  0  0  0
   27.9738   55.7599   86.6306 C   0  0  0  0  0  0  0  0  0  0  0  0
   30.0354   55.0394   84.8720 C   0  0  0  0  0  0  0  0  0  0  0  0
   28.6971   54.8741   84.5792 C   0  0  0  0  0  0  0  0  0  0  0  0
   29.3034   55.9370   86.9508 C   0  0  0  0  0  0  0  0  0  0  0  0
   31.0258   54.6866   84.0121 F   0  0  0  0  0  0  0  0  0  0  0  0
   27.7080   55.2215   85.4268 N   0  0  0  0  0  0  0  0  0  0  0  0
   27.2006   56.5452   88.6969 O   0  0  0  0  0  0  0  0  0  0  0  0
   25.5639   56.0571   87.1851 N   0  0  0  0  0  0  0  0  0  0  0  0
   24.4486   56.4206   87.9966 C   0  0  1  0  0  0  0  0  0  0  0  0
   23.9326   57.8645   87.7463 C   0  0  0  0  0  0  0  0  0  0  0  0
   23.1089   56.7030   87.4479 C   0  0  2  0  0  0  0  0  0  0  0  0
   21.9584   56.2221   88.3147 C   0  0  2  0  0  0  0  0  0  0  0  0
   22.4955   55.7312   89.5551 N   0  0  0  0  0  0  0  0  0  0  0  0
   21.3485   55.0204   87.5851 C   0  0  0  0  0  0  0  0  0  0  0  0
   20.0043   55.2487   87.4712 O   0  0  0  0  0  0  0  0  0  0  0  0
   19.9281   56.6370   87.2472 C   0  0  0  0  0  0  0  0  0  0  0  0
   20.8304   57.1598   88.3856 C   0  0  1  0  0  0  0  0  0  0  0  0
   19.9759   57.1789   89.5959 C   0  0  0  0  0  0  0  0  0  0  0  0
   19.9151   55.4963   90.3370 S   0  0  0  0  0  0  0  0  0  0  0  0
   22.0442   54.2450   91.3133 N   0  0  0  0  0  0  0  0  0  0  0  0
   21.6751   54.1395   92.2679 H   0  0  0  0  0  0  0  0  0  0  0  0
  1  4  1  0
  1 10  2  0
 11  1  1  0
 16  2  1  0
  2 22  1  0
  2 23  2  0
  3  5  2  0
  7  3  1  0
  4  7  2  0
  4  9  1  0
  6  5  1  0
  5  8  1  0
  9  6  2  0
 12 11  1  6
 13 12  1  0
 14 12  1  0
 14 13  1  1
 15 14  1  0
 15 16  1  0
 15 17  1  6
 15 20  1  0
 17 18  1  0
 18 19  1  0
 20 19  1  6
 20 21  1  0
 21 22  1  0
 23 24  1  0
M  END
$$$$
