
     RDKit          3D

 24 27  0  0  0  0  0  0  0  0999 V2000
   25.7952   56.0461   85.9213 C   0  0  0  0  0  0  0  0  0  0  0  0
   21.4683   54.6167   90.9105 C   0  0  0  0  0  0  0  0  0  0  0  0
   29.4669   56.7865   86.1591 C   0  0  0  0  0  0  0  0  0  0  0  0
   27.1844   56.0081   86.3646 C   0  0  0  0  0  0  0  0  0  0  0  0
   29.8224   55.9488   87.1923 C   0  0  0  0  0  0  0  0  0  0  0  0
   28.8620   55.1592   87.7920 C   0  0  0  0  0  0  0  0  0  0  0  0
   28.1327   56.7982   85.7608 C   0  0  0  0  0  0  0  0  0  0  0  0
   31.1132   55.9230   87.5937 F   0  0  0  0  0  0  0  0  0  0  0  0
   27.5822   55.2076   87.3686 N   0  0  0  0  0  0  0  0  0  0  0  0
   25.3752   57.0451   85.2941 O   0  0  0  0  0  0  0  0  0  0  0  0
   24.9027   54.9962   86.1729 N   0  0  0  0  0  0  0  0  0  0  0  0
   24.1017   54.8238   87.3293 C   0  0  1  0  0  0  0  0  0  0  0  0
   24.9257   54.4691   88.5990 C   0  0  0  0  0  0  0  0  0  0  0  0
   24.1200   55.6803   88.5170 C   0  0  2  0  0  0  0  0  0  0  0  0
   22.7981   55.8739   89.2379 C   0  0  2  0  0  0  0  0  0  0  0  0
   22.6425   54.7707   90.1588 N   0  0  0  0  0  0  0  0  0  0  0  0
   21.6724   55.7038   88.2065 C   0  0  0  0  0  0  0  0  0  0  0  0
   20.8172   56.7831   88.3690 O   0  0  0  0  0  0  0  0  0  0  0  0
   21.6997   57.8356   88.6178 C   0  0  0  0  0  0  0  0  0  0  0  0
   22.5481   57.2230   89.7498 C   0  0  1  0  0  0  0  0  0  0  0  0
   21.7793   57.4137   90.9966 C   0  0  0  0  0  0  0  0  0  0  0  0
   20.5190   56.0914   91.2017 S   0  0  0  0  0  0  0  0  0  0  0  0
   21.0886   53.5086   91.3631 N   0  0  0  0  0  0  0  0  0  0  0  0
   21.3760   53.2233   92.3283 H   0  0  0  0  0  0  0  0  0  0  0  0
  1  4  1  0
  1 10  2  0
 11  1  1  0
 16  2  1  0
  2 22  1  0
  2 23  2  0
  3  5  2  0
  7  3  1  0
  4  7  2  0
  4  9  1  0
  6  5  1  0
  5  8  1  0
  9  6  2  0
 12 11  1  6
 13 12  1  1
 14 12  1  0
 14 13  1  1
 15 14  1  0
 15 16  1  1
 15 17  1  0
 15 20  1  0
 17 18  1  6
 19 18  1  1
 20 19  1  6
 20 21  1  0
 21 22  1  6
 23 24  1  0
M  END
$$$$
