
     RDKit          3D

 24 27  0  0  0  0  0  0  0  0999 V2000
   24.4621   55.5107   84.6828 C   0  0  0  0  0  0  0  0  0  0  0  0
   21.7039   54.9735   90.7760 C   0  0  0  0  0  0  0  0  0  0  0  0
   26.8991   54.6347   81.9664 C   0  0  0  0  0  0  0  0  0  0  0  0
   25.0647   54.8499   83.5305 C   0  0  0  0  0  0  0  0  0  0  0  0
   26.2219   53.6082   81.3473 C   0  0  0  0  0  0  0  0  0  0  0  0
   24.9860   53.2203   81.8245 C   0  0  0  0  0  0  0  0  0  0  0  0
   26.2955   55.2437   83.0634 C   0  0  0  0  0  0  0  0  0  0  0  0
   26.7914   53.0039   80.2803 F   0  0  0  0  0  0  0  0  0  0  0  0
   24.4443   53.8430   82.8913 N   0  0  0  0  0  0  0  0  0  0  0  0
   24.9339   56.5980   85.0866 O   0  0  0  0  0  0  0  0  0  0  0  0
   23.3634   54.9699   85.3630 N   0  0  0  0  0  0  0  0  0  0  0  0
   23.0865   55.0801   86.7486 C   0  0  1  0  0  0  0  0  0  0  0  0
   24.1361   55.9304   87.5181 C   0  0  0  0  0  0  0  0  0  0  0  0
   22.7320   56.3137   87.4536 C   0  0  2  0  0  0  0  0  0  0  0  0
   21.7592   56.1812   88.6116 C   0  0  2  0  0  0  0  0  0  0  0  0
   22.3928   55.3571   89.6159 N   0  0  0  0  0  0  0  0  0  0  0  0
   20.5531   55.3667   88.1197 C   0  0  0  0  0  0  0  0  0  0  0  0
   19.4182   56.0645   88.5041 O   0  0  0  0  0  0  0  0  0  0  0  0
   19.7920   57.3927   88.2935 C   0  0  0  0  0  0  0  0  0  0  0  0
   21.1312   57.4271   89.0563 C   0  0  1  0  0  0  0  0  0  0  0  0
   20.7942   57.6216   90.4812 C   0  0  0  0  0  0  0  0  0  0  0  0
   20.3605   56.0236   91.2793 S   0  0  0  0  0  0  0  0  0  0  0  0
   22.0016   53.9493   91.4389 N   0  0  0  0  0  0  0  0  0  0  0  0
   22.7112   53.2806   91.0582 H   0  0  0  0  0  0  0  0  0  0  0  0
  1  4  1  0
  1 10  2  0
 11  1  1  0
 16  2  1  0
  2 22  1  0
  2 23  2  0
  3  5  2  0
  7  3  1  0
  4  7  2  0
  4  9  1  0
  6  5  1  0
  5  8  1  0
  9  6  2  0
 12 11  1  6
 13 12  1  1
 14 12  1  0
 14 13  1  1
 15 14  1  0
 15 16  1  1
 15 17  1  0
 15 20  1  0
 17 18  1  6
 19 18  1  1
 20 19  1  6
 20 21  1  0
 21 22  1  6
 23 24  1  0
M  END
$$$$
