
     RDKit          3D

 24 27  0  0  0  0  0  0  0  0999 V2000
   26.7437   56.6047   86.5059 C   0  0  0  0  0  0  0  0  0  0  0  0
   21.9691   55.5247   90.4289 C   0  0  0  0  0  0  0  0  0  0  0  0
   30.3796   56.0406   87.2459 C   0  0  0  0  0  0  0  0  0  0  0  0
   27.9711   55.9995   87.0108 C   0  0  0  0  0  0  0  0  0  0  0  0
   30.3078   54.8660   87.9608 C   0  0  0  0  0  0  0  0  0  0  0  0
   29.0790   54.2797   88.1887 C   0  0  0  0  0  0  0  0  0  0  0  0
   29.1892   56.5912   86.7785 C   0  0  0  0  0  0  0  0  0  0  0  0
   31.4527   54.3154   88.4233 F   0  0  0  0  0  0  0  0  0  0  0  0
   27.9546   54.8538   87.7139 N   0  0  0  0  0  0  0  0  0  0  0  0
   26.7536   57.8000   86.1331 O   0  0  0  0  0  0  0  0  0  0  0  0
   25.5406   55.8923   86.4209 N   0  0  0  0  0  0  0  0  0  0  0  0
   24.2602   56.3394   86.8322 C   0  0  1  0  0  0  0  0  0  0  0  0
   23.2191   56.3641   85.6780 C   0  0  0  0  0  0  0  0  0  0  0  0
   23.0402   55.5298   86.8590 C   0  0  2  0  0  0  0  0  0  0  0  0
   22.0490   55.8277   87.9696 C   0  0  2  0  0  0  0  0  0  0  0  0
   22.6738   55.4539   89.2182 N   0  0  0  0  0  0  0  0  0  0  0  0
   20.8605   54.8679   87.8069 C   0  0  0  0  0  0  0  0  0  0  0  0
   19.7115   55.6401   87.8859 O   0  0  0  0  0  0  0  0  0  0  0  0
   20.0745   56.7968   87.1941 C   0  0  0  0  0  0  0  0  0  0  0  0
   21.3997   57.1387   87.9037 C   0  0  1  0  0  0  0  0  0  0  0  0
   21.0358   57.8506   89.1457 C   0  0  0  0  0  0  0  0  0  0  0  0
   20.6057   56.6646   90.4825 S   0  0  0  0  0  0  0  0  0  0  0  0
   22.2663   54.8313   91.4327 N   0  0  0  0  0  0  0  0  0  0  0  0
   22.5070   55.3086   92.3326 H   0  0  0  0  0  0  0  0  0  0  0  0
  1  4  1  0
  1 10  2  0
 11  1  1  0
 16  2  1  0
  2 22  1  0
  2 23  2  0
  3  5  2  0
  7  3  1  0
  4  7  2  0
  4  9  1  0
  6  5  1  0
  5  8  1  0
  9  6  2  0
 12 11  1  6
 13 12  1  1
 14 12  1  0
 14 13  1  6
 15 14  1  0
 15 16  1  1
 15 17  1  0
 15 20  1  0
 17 18  1  6
 19 18  1  1
 20 19  1  6
 20 21  1  0
 21 22  1  6
 23 24  1  0
M  END
$$$$
