
     RDKit          3D

 24 27  0  0  0  0  0  0  0  0999 V2000
   26.2486   55.6695   86.7061 C   0  0  0  0  0  0  0  0  0  0  0  0
   22.0677   55.2057   90.3923 C   0  0  0  0  0  0  0  0  0  0  0  0
   29.9749   55.9151   86.3323 C   0  0  0  0  0  0  0  0  0  0  0  0
   27.6748   55.4955   86.9578 C   0  0  0  0  0  0  0  0  0  0  0  0
   30.3825   55.1759   87.4201 C   0  0  0  0  0  0  0  0  0  0  0  0
   29.4385   54.6117   88.2543 C   0  0  0  0  0  0  0  0  0  0  0  0
   28.6065   56.0613   86.1212 C   0  0  0  0  0  0  0  0  0  0  0  0
   31.7073   55.0222   87.6422 F   0  0  0  0  0  0  0  0  0  0  0  0
   28.1239   54.7832   88.0057 N   0  0  0  0  0  0  0  0  0  0  0  0
   25.5819   54.7130   86.2495 O   0  0  0  0  0  0  0  0  0  0  0  0
   25.5885   56.8790   86.9582 N   0  0  0  0  0  0  0  0  0  0  0  0
   24.3937   57.0536   87.7003 C   0  0  1  0  0  0  0  0  0  0  0  0
   23.5164   58.2281   87.1829 C   0  0  0  0  0  0  0  0  0  0  0  0
   23.0351   56.8530   87.1919 C   0  0  2  0  0  0  0  0  0  0  0  0
   22.0117   56.3156   88.1761 C   0  0  2  0  0  0  0  0  0  0  0  0
   22.7336   55.8470   89.3374 N   0  0  0  0  0  0  0  0  0  0  0  0
   21.3801   55.0597   87.5566 C   0  0  0  0  0  0  0  0  0  0  0  0
   20.0066   55.2001   87.6852 O   0  0  0  0  0  0  0  0  0  0  0  0
   19.8150   56.5593   87.4319 C   0  0  0  0  0  0  0  0  0  0  0  0
   20.8440   57.1693   88.4043 C   0  0  1  0  0  0  0  0  0  0  0  0
   20.1954   57.2017   89.7309 C   0  0  0  0  0  0  0  0  0  0  0  0
   20.3379   55.5742   90.5734 S   0  0  0  0  0  0  0  0  0  0  0  0
   22.6408   54.4111   91.1780 N   0  0  0  0  0  0  0  0  0  0  0  0
   23.6855   54.3466   91.1701 H   0  0  0  0  0  0  0  0  0  0  0  0
  1  4  1  0
  1 10  2  0
 11  1  1  0
 16  2  1  0
  2 22  1  0
  2 23  2  0
  3  5  2  0
  7  3  1  0
  4  7  2  0
  4  9  1  0
  6  5  1  0
  5  8  1  0
  9  6  2  0
 12 11  1  6
 13 12  1  1
 14 12  1  0
 14 13  1  1
 15 14  1  0
 15 16  1  1
 15 17  1  0
 15 20  1  0
 17 18  1  6
 19 18  1  1
 20 19  1  6
 20 21  1  0
 21 22  1  6
 23 24  1  0
M  END
$$$$
