
     RDKit          3D

 24 27  0  0  0  0  0  0  0  0999 V2000
   26.3712   54.9356   86.1009 C   0  0  0  0  0  0  0  0  0  0  0  0
   22.1607   55.1443   90.0368 C   0  0  0  0  0  0  0  0  0  0  0  0
   30.0940   55.0640   86.6255 C   0  0  0  0  0  0  0  0  0  0  0  0
   27.6841   55.3592   86.5783 C   0  0  0  0  0  0  0  0  0  0  0  0
   30.2191   56.1496   87.4789 C   0  0  0  0  0  0  0  0  0  0  0  0
   29.0523   56.7908   87.8412 C   0  0  0  0  0  0  0  0  0  0  0  0
   28.8338   54.6985   86.1990 C   0  0  0  0  0  0  0  0  0  0  0  0
   31.4420   56.5414   87.9215 F   0  0  0  0  0  0  0  0  0  0  0  0
   27.8347   56.4085   87.4066 N   0  0  0  0  0  0  0  0  0  0  0  0
   26.1743   53.7425   85.8097 O   0  0  0  0  0  0  0  0  0  0  0  0
   25.3215   55.8523   85.9633 N   0  0  0  0  0  0  0  0  0  0  0  0
   24.4457   56.2829   87.0035 C   0  0  1  0  0  0  0  0  0  0  0  0
   24.0044   57.7674   86.8800 C   0  0  0  0  0  0  0  0  0  0  0  0
   23.0449   56.6798   86.7668 C   0  0  2  0  0  0  0  0  0  0  0  0
   22.0795   56.2703   87.8652 C   0  0  2  0  0  0  0  0  0  0  0  0
   22.8384   55.7432   88.9671 N   0  0  0  0  0  0  0  0  0  0  0  0
   21.2537   55.1113   87.2964 C   0  0  0  0  0  0  0  0  0  0  0  0
   19.9332   55.4243   87.4705 O   0  0  0  0  0  0  0  0  0  0  0  0
   19.8973   56.8152   87.2528 C   0  0  0  0  0  0  0  0  0  0  0  0
   21.0534   57.2770   88.1657 C   0  0  1  0  0  0  0  0  0  0  0  0
   20.4812   57.3469   89.5306 C   0  0  0  0  0  0  0  0  0  0  0  0
   20.4763   55.6696   90.2861 S   0  0  0  0  0  0  0  0  0  0  0  0
   22.6831   54.2839   90.7973 N   0  0  0  0  0  0  0  0  0  0  0  0
   22.1762   53.5574   91.3208 H   0  0  0  0  0  0  0  0  0  0  0  0
  1  4  1  0
  1 10  2  0
 11  1  1  0
 16  2  1  0
  2 22  1  0
  2 23  2  0
  3  5  2  0
  7  3  1  0
  4  7  2  0
  4  9  1  0
  6  5  1  0
  5  8  1  0
  9  6  2  0
 12 11  1  6
 13 12  1  0
 14 12  1  0
 14 13  1  1
 15 14  1  0
 15 16  1  0
 15 17  1  6
 15 20  1  0
 17 18  1  0
 18 19  1  0
 20 19  1  6
 20 21  1  0
 21 22  1  0
 23 24  1  0
M  END
$$$$
