
     RDKit          3D

 24 27  0  0  0  0  0  0  0  0999 V2000
   26.4286   56.7044   87.2871 C   0  0  0  0  0  0  0  0  0  0  0  0
   21.3340   55.2870   90.4710 C   0  0  0  0  0  0  0  0  0  0  0  0
   30.0850   56.0567   86.7426 C   0  0  0  0  0  0  0  0  0  0  0  0
   27.6658   56.1107   86.7927 C   0  0  0  0  0  0  0  0  0  0  0  0
   30.0212   54.9972   85.8656 C   0  0  0  0  0  0  0  0  0  0  0  0
   28.7910   54.5135   85.4678 C   0  0  0  0  0  0  0  0  0  0  0  0
   28.8853   56.5997   87.1949 C   0  0  0  0  0  0  0  0  0  0  0  0
   31.1753   54.4560   85.4148 F   0  0  0  0  0  0  0  0  0  0  0  0
   27.6574   55.0753   85.9354 N   0  0  0  0  0  0  0  0  0  0  0  0
   26.4738   57.7765   87.9323 O   0  0  0  0  0  0  0  0  0  0  0  0
   25.1774   56.1148   87.0654 N   0  0  0  0  0  0  0  0  0  0  0  0
   23.9343   56.5392   87.5978 C   0  0  1  0  0  0  0  0  0  0  0  0
   23.1324   57.4535   86.6294 C   0  0  0  0  0  0  0  0  0  0  0  0
   22.6138   56.1700   87.0837 C   0  0  2  0  0  0  0  0  0  0  0  0
   21.5033   56.0145   88.1070 C   0  0  2  0  0  0  0  0  0  0  0  0
   22.1156   55.6035   89.3502 N   0  0  0  0  0  0  0  0  0  0  0  0
   20.6290   54.8281   87.6733 C   0  0  0  0  0  0  0  0  0  0  0  0
   19.3128   55.2603   87.7341 O   0  0  0  0  0  0  0  0  0  0  0  0
   19.4014   56.5715   87.2638 C   0  0  0  0  0  0  0  0  0  0  0  0
   20.5337   57.1107   88.1603 C   0  0  1  0  0  0  0  0  0  0  0  0
   19.9062   57.4855   89.4438 C   0  0  0  0  0  0  0  0  0  0  0  0
   19.7154   56.0197   90.5364 S   0  0  0  0  0  0  0  0  0  0  0  0
   21.7341   54.5305   91.3900 N   0  0  0  0  0  0  0  0  0  0  0  0
   21.4435   53.5249   91.3893 H   0  0  0  0  0  0  0  0  0  0  0  0
  1  4  1  0
  1 10  2  0
 11  1  1  0
 16  2  1  0
  2 22  1  0
  2 23  2  0
  3  5  2  0
  7  3  1  0
  4  7  2  0
  4  9  1  0
  6  5  1  0
  5  8  1  0
  9  6  2  0
 12 11  1  6
 13 12  1  1
 14 12  1  0
 14 13  1  6
 15 14  1  0
 15 16  1  1
 15 17  1  0
 15 20  1  0
 17 18  1  6
 19 18  1  1
 20 19  1  6
 20 21  1  0
 21 22  1  6
 23 24  1  0
M  END
$$$$
