
     RDKit          3D

 24 27  0  0  0  0  0  0  0  0999 V2000
   26.3523   55.9513   85.7739 C   0  0  0  0  0  0  0  0  0  0  0  0
   21.9215   55.2710   90.3875 C   0  0  0  0  0  0  0  0  0  0  0  0
   30.0826   56.0981   86.1588 C   0  0  0  0  0  0  0  0  0  0  0  0
   27.6964   55.7145   86.2884 C   0  0  0  0  0  0  0  0  0  0  0  0
   30.2518   55.2767   87.2508 C   0  0  0  0  0  0  0  0  0  0  0  0
   29.1501   54.6907   87.8412 C   0  0  0  0  0  0  0  0  0  0  0  0
   28.7864   56.3027   85.6934 C   0  0  0  0  0  0  0  0  0  0  0  0
   31.5028   55.0655   87.7179 F   0  0  0  0  0  0  0  0  0  0  0  0
   27.9146   54.9212   87.3515 N   0  0  0  0  0  0  0  0  0  0  0  0
   26.1881   56.7457   84.8201 O   0  0  0  0  0  0  0  0  0  0  0  0
   25.2250   55.3169   86.3116 N   0  0  0  0  0  0  0  0  0  0  0  0
   24.3134   55.8615   87.2503 C   0  0  1  0  0  0  0  0  0  0  0  0
   23.9646   57.3510   86.9735 C   0  0  0  0  0  0  0  0  0  0  0  0
   22.9492   56.3062   86.9576 C   0  0  2  0  0  0  0  0  0  0  0  0
   21.9173   56.1051   88.0529 C   0  0  2  0  0  0  0  0  0  0  0  0
   22.6188   55.6375   89.2270 N   0  0  0  0  0  0  0  0  0  0  0  0
   21.0082   54.9404   87.6322 C   0  0  0  0  0  0  0  0  0  0  0  0
   19.7020   55.3705   87.8105 O   0  0  0  0  0  0  0  0  0  0  0  0
   19.7608   56.7017   87.3948 C   0  0  0  0  0  0  0  0  0  0  0  0
   20.9590   57.1986   88.2279 C   0  0  1  0  0  0  0  0  0  0  0  0
   20.4304   57.5151   89.5704 C   0  0  0  0  0  0  0  0  0  0  0  0
   20.3153   56.0012   90.6065 S   0  0  0  0  0  0  0  0  0  0  0  0
   22.3857   54.4731   91.2389 N   0  0  0  0  0  0  0  0  0  0  0  0
   22.9629   54.8450   92.0289 H   0  0  0  0  0  0  0  0  0  0  0  0
  1  4  1  0
  1 10  2  0
 11  1  1  0
 16  2  1  0
  2 22  1  0
  2 23  2  0
  3  5  2  0
  7  3  1  0
  4  7  2  0
  4  9  1  0
  6  5  1  0
  5  8  1  0
  9  6  2  0
 12 11  1  6
 13 12  1  1
 14 12  1  0
 14 13  1  1
 15 14  1  0
 15 16  1  1
 15 17  1  0
 15 20  1  0
 17 18  1  6
 19 18  1  1
 20 19  1  6
 20 21  1  0
 21 22  1  6
 23 24  1  0
M  END
$$$$
