
     RDKit          3D

 24 27  0  0  0  0  0  0  0  0999 V2000
   25.9165   55.6192   86.0770 C   0  0  0  0  0  0  0  0  0  0  0  0
   21.3439   55.1975   90.6818 C   0  0  0  0  0  0  0  0  0  0  0  0
   29.6399   56.0838   86.1546 C   0  0  0  0  0  0  0  0  0  0  0  0
   27.3062   55.5528   86.5150 C   0  0  0  0  0  0  0  0  0  0  0  0
   29.9461   55.4364   87.3305 C   0  0  0  0  0  0  0  0  0  0  0  0
   28.9366   54.8612   88.0758 C   0  0  0  0  0  0  0  0  0  0  0  0
   28.3037   56.1287   85.7657 C   0  0  0  0  0  0  0  0  0  0  0  0
   31.2381   55.3819   87.7253 F   0  0  0  0  0  0  0  0  0  0  0  0
   27.6571   54.9326   87.6550 N   0  0  0  0  0  0  0  0  0  0  0  0
   25.6243   56.2727   85.0497 O   0  0  0  0  0  0  0  0  0  0  0  0
   24.8843   54.9728   86.7691 N   0  0  0  0  0  0  0  0  0  0  0  0
   24.0171   55.5501   87.7299 C   0  0  1  0  0  0  0  0  0  0  0  0
   23.9954   57.1038   87.6815 C   0  0  0  0  0  0  0  0  0  0  0  0
   22.7995   56.3086   87.4356 C   0  0  2  0  0  0  0  0  0  0  0  0
   21.6536   56.1672   88.4213 C   0  0  2  0  0  0  0  0  0  0  0  0
   22.1840   55.5473   89.6145 N   0  0  0  0  0  0  0  0  0  0  0  0
   20.6600   55.1488   87.8419 C   0  0  0  0  0  0  0  0  0  0  0  0
   19.4010   55.7218   87.9383 O   0  0  0  0  0  0  0  0  0  0  0  0
   19.6509   57.0590   87.6257 C   0  0  0  0  0  0  0  0  0  0  0  0
   20.8151   57.3556   88.5918 C   0  0  1  0  0  0  0  0  0  0  0  0
   20.2033   57.6511   89.9033 C   0  0  0  0  0  0  0  0  0  0  0  0
   19.8188   56.1017   90.8145 S   0  0  0  0  0  0  0  0  0  0  0  0
   21.6318   54.2988   91.5103 N   0  0  0  0  0  0  0  0  0  0  0  0
   22.5816   53.8599   91.4812 H   0  0  0  0  0  0  0  0  0  0  0  0
  1  4  1  0
  1 10  2  0
 11  1  1  0
 16  2  1  0
  2 22  1  0
  2 23  2  0
  3  5  2  0
  7  3  1  0
  4  7  2  0
  4  9  1  0
  6  5  1  0
  5  8  1  0
  9  6  2  0
 12 11  1  6
 13 12  1  1
 14 12  1  0
 14 13  1  1
 15 14  1  0
 15 16  1  1
 15 17  1  0
 15 20  1  0
 17 18  1  6
 19 18  1  1
 20 19  1  6
 20 21  1  0
 21 22  1  6
 23 24  1  0
M  END
$$$$
