
     RDKit          3D

 24 27  0  0  0  0  0  0  0  0999 V2000
   26.1757   55.1021   85.8766 C   0  0  0  0  0  0  0  0  0  0  0  0
   22.1245   55.1831   90.1111 C   0  0  0  0  0  0  0  0  0  0  0  0
   29.8080   55.0767   86.8550 C   0  0  0  0  0  0  0  0  0  0  0  0
   27.4533   55.5121   86.4520 C   0  0  0  0  0  0  0  0  0  0  0  0
   29.9200   56.2734   87.5464 C   0  0  0  0  0  0  0  0  0  0  0  0
   28.7752   57.0360   87.6547 C   0  0  0  0  0  0  0  0  0  0  0  0
   28.5814   54.7288   86.3277 C   0  0  0  0  0  0  0  0  0  0  0  0
   31.1099   56.6523   88.0807 F   0  0  0  0  0  0  0  0  0  0  0  0
   27.5904   56.6674   87.1275 N   0  0  0  0  0  0  0  0  0  0  0  0
   26.0525   53.9629   85.3927 O   0  0  0  0  0  0  0  0  0  0  0  0
   25.0785   55.9721   85.8583 N   0  0  0  0  0  0  0  0  0  0  0  0
   24.2827   56.3380   86.9841 C   0  0  1  0  0  0  0  0  0  0  0  0
   23.9228   57.8485   87.0357 C   0  0  0  0  0  0  0  0  0  0  0  0
   22.8972   56.8305   86.8674 C   0  0  2  0  0  0  0  0  0  0  0  0
   21.9661   56.3606   87.9713 C   0  0  2  0  0  0  0  0  0  0  0  0
   22.7622   55.8317   89.0458 N   0  0  0  0  0  0  0  0  0  0  0  0
   21.1694   55.1891   87.3869 C   0  0  0  0  0  0  0  0  0  0  0  0
   19.8425   55.4527   87.5919 O   0  0  0  0  0  0  0  0  0  0  0  0
   19.7562   56.8466   87.4111 C   0  0  0  0  0  0  0  0  0  0  0  0
   20.9125   57.3240   88.3156 C   0  0  1  0  0  0  0  0  0  0  0  0
   20.3632   57.3396   89.6916 C   0  0  0  0  0  0  0  0  0  0  0  0
   20.4281   55.6444   90.4031 S   0  0  0  0  0  0  0  0  0  0  0  0
   22.6890   54.3219   90.8398 N   0  0  0  0  0  0  0  0  0  0  0  0
   22.2854   53.4203   91.1278 H   0  0  0  0  0  0  0  0  0  0  0  0
  1  4  1  0
  1 10  2  0
 11  1  1  0
 16  2  1  0
  2 22  1  0
  2 23  2  0
  3  5  2  0
  7  3  1  0
  4  7  2  0
  4  9  1  0
  6  5  1  0
  5  8  1  0
  9  6  2  0
 12 11  1  6
 13 12  1  0
 14 12  1  0
 14 13  1  1
 15 14  1  0
 15 16  1  0
 15 17  1  6
 15 20  1  0
 17 18  1  0
 18 19  1  0
 20 19  1  6
 20 21  1  0
 21 22  1  0
 23 24  1  0
M  END
$$$$
