
     RDKit          3D

 24 27  0  0  0  0  0  0  0  0999 V2000
   26.3079   56.1483   86.2578 C   0  0  0  0  0  0  0  0  0  0  0  0
   22.3435   54.9712   90.1990 C   0  0  0  0  0  0  0  0  0  0  0  0
   29.9182   55.1515   86.4979 C   0  0  0  0  0  0  0  0  0  0  0  0
   27.5632   55.6283   86.7884 C   0  0  0  0  0  0  0  0  0  0  0  0
   29.9514   54.6467   87.7785 C   0  0  0  0  0  0  0  0  0  0  0  0
   28.7998   54.6399   88.5395 C   0  0  0  0  0  0  0  0  0  0  0  0
   28.7040   55.6397   86.0226 C   0  0  0  0  0  0  0  0  0  0  0  0
   31.1212   54.1679   88.2584 F   0  0  0  0  0  0  0  0  0  0  0  0
   27.6480   55.1249   88.0320 N   0  0  0  0  0  0  0  0  0  0  0  0
   25.7943   55.6103   85.2505 O   0  0  0  0  0  0  0  0  0  0  0  0
   25.6472   57.2387   86.8381 N   0  0  0  0  0  0  0  0  0  0  0  0
   24.5254   57.1873   87.7027 C   0  0  1  0  0  0  0  0  0  0  0  0
   23.6457   58.4678   87.6429 C   0  0  0  0  0  0  0  0  0  0  0  0
   23.1231   57.1565   87.2821 C   0  0  2  0  0  0  0  0  0  0  0  0
   22.1696   56.3524   88.1476 C   0  0  2  0  0  0  0  0  0  0  0  0
   22.9296   55.8367   89.2637 N   0  0  0  0  0  0  0  0  0  0  0  0
   21.7372   55.1161   87.3448 C   0  0  0  0  0  0  0  0  0  0  0  0
   20.3556   55.0437   87.4386 O   0  0  0  0  0  0  0  0  0  0  0  0
   19.9749   56.3842   87.3592 C   0  0  0  0  0  0  0  0  0  0  0  0
   20.8869   56.9950   88.4417 C   0  0  1  0  0  0  0  0  0  0  0  0
   20.2158   56.7559   89.7355 C   0  0  0  0  0  0  0  0  0  0  0  0
   20.5756   55.0655   90.3614 S   0  0  0  0  0  0  0  0  0  0  0  0
   23.0103   54.1658   90.8945 N   0  0  0  0  0  0  0  0  0  0  0  0
   22.5441   53.3097   91.2757 H   0  0  0  0  0  0  0  0  0  0  0  0
  1  4  1  0
  1 10  2  0
 11  1  1  0
 16  2  1  0
  2 22  1  0
  2 23  2  0
  3  5  2  0
  7  3  1  0
  4  7  2  0
  4  9  1  0
  6  5  1  0
  5  8  1  0
  9  6  2  0
 12 11  1  6
 13 12  1  1
 14 12  1  0
 14 13  1  1
 15 14  1  0
 15 16  1  1
 15 17  1  0
 15 20  1  0
 17 18  1  6
 19 18  1  1
 20 19  1  6
 20 21  1  0
 21 22  1  6
 23 24  1  0
M  END
$$$$
