
     RDKit          3D

 24 27  0  0  0  0  0  0  0  0999 V2000
   25.6998   55.9662   85.7747 C   0  0  0  0  0  0  0  0  0  0  0  0
   20.9799   54.5466   90.1436 C   0  0  0  0  0  0  0  0  0  0  0  0
   29.3793   56.7434   85.8659 C   0  0  0  0  0  0  0  0  0  0  0  0
   27.1134   55.9129   86.1356 C   0  0  0  0  0  0  0  0  0  0  0  0
   29.8342   55.8338   86.8084 C   0  0  0  0  0  0  0  0  0  0  0  0
   28.8896   55.0006   87.3719 C   0  0  0  0  0  0  0  0  0  0  0  0
   28.0351   56.7589   85.5553 C   0  0  0  0  0  0  0  0  0  0  0  0
   31.1499   55.7866   87.1422 F   0  0  0  0  0  0  0  0  0  0  0  0
   27.5820   55.0409   87.0464 N   0  0  0  0  0  0  0  0  0  0  0  0
   25.2388   56.9842   85.2285 O   0  0  0  0  0  0  0  0  0  0  0  0
   24.8464   54.8863   86.0331 N   0  0  0  0  0  0  0  0  0  0  0  0
   24.0338   54.7219   87.1938 C   0  0  1  0  0  0  0  0  0  0  0  0
   24.8429   54.5345   88.5068 C   0  0  0  0  0  0  0  0  0  0  0  0
   23.9963   55.6990   88.2981 C   0  0  2  0  0  0  0  0  0  0  0  0
   22.6269   55.8874   88.9269 C   0  0  2  0  0  0  0  0  0  0  0  0
   22.2726   54.6784   89.6202 N   0  0  0  0  0  0  0  0  0  0  0  0
   21.6411   56.0406   87.7636 C   0  0  0  0  0  0  0  0  0  0  0  0
   20.9221   57.1839   87.9831 O   0  0  0  0  0  0  0  0  0  0  0  0
   21.8684   58.0592   88.5503 C   0  0  0  0  0  0  0  0  0  0  0  0
   22.4697   57.1566   89.6489 C   0  0  1  0  0  0  0  0  0  0  0  0
   21.5264   57.2324   90.7889 C   0  0  0  0  0  0  0  0  0  0  0  0
   20.1290   56.0679   90.5144 S   0  0  0  0  0  0  0  0  0  0  0  0
   20.4241   53.4337   90.3534 N   0  0  0  0  0  0  0  0  0  0  0  0
   20.9078   52.5506   90.5648 H   0  0  0  0  0  0  0  0  0  0  0  0
  1  4  1  0
  1 10  2  0
 11  1  1  0
 16  2  1  0
  2 22  1  0
  2 23  2  0
  3  5  2  0
  7  3  1  0
  4  7  2  0
  4  9  1  0
  6  5  1  0
  5  8  1  0
  9  6  2  0
 12 11  1  6
 13 12  1  0
 14 12  1  0
 14 13  1  1
 15 14  1  0
 15 16  1  0
 15 17  1  6
 15 20  1  0
 17 18  1  0
 18 19  1  0
 20 19  1  6
 20 21  1  0
 21 22  1  0
 23 24  1  0
M  END
$$$$
