
     RDKit          3D

 24 27  0  0  0  0  0  0  0  0999 V2000
   26.6732   56.0419   86.0778 C   0  0  0  0  0  0  0  0  0  0  0  0
   22.0920   55.3254   90.3985 C   0  0  0  0  0  0  0  0  0  0  0  0
   30.3661   55.7711   86.6895 C   0  0  0  0  0  0  0  0  0  0  0  0
   27.9519   55.6097   86.6307 C   0  0  0  0  0  0  0  0  0  0  0  0
   30.3850   54.8023   87.6677 C   0  0  0  0  0  0  0  0  0  0  0  0
   29.1971   54.2555   88.1099 C   0  0  0  0  0  0  0  0  0  0  0  0
   29.1288   56.1604   86.1836 C   0  0  0  0  0  0  0  0  0  0  0  0
   31.5768   54.4106   88.1719 F   0  0  0  0  0  0  0  0  0  0  0  0
   28.0241   54.6676   87.5869 N   0  0  0  0  0  0  0  0  0  0  0  0
   26.6441   56.9870   85.2570 O   0  0  0  0  0  0  0  0  0  0  0  0
   25.4626   55.4335   86.4336 N   0  0  0  0  0  0  0  0  0  0  0  0
   24.3647   56.0485   87.0856 C   0  0  1  0  0  0  0  0  0  0  0  0
   23.5266   56.9612   86.1468 C   0  0  0  0  0  0  0  0  0  0  0  0
   22.9508   55.7942   86.8020 C   0  0  2  0  0  0  0  0  0  0  0  0
   21.9961   55.8640   87.9804 C   0  0  2  0  0  0  0  0  0  0  0  0
   22.7303   55.4543   89.1561 N   0  0  0  0  0  0  0  0  0  0  0  0
   20.9209   54.7858   87.7770 C   0  0  0  0  0  0  0  0  0  0  0  0
   19.6957   55.4012   87.9842 O   0  0  0  0  0  0  0  0  0  0  0  0
   19.8809   56.6531   87.3952 C   0  0  0  0  0  0  0  0  0  0  0  0
   21.1952   57.0863   88.0746 C   0  0  1  0  0  0  0  0  0  0  0  0
   20.8216   57.6295   89.3964 C   0  0  0  0  0  0  0  0  0  0  0  0
   20.6099   56.2804   90.6267 S   0  0  0  0  0  0  0  0  0  0  0  0
   22.5249   54.5828   91.3139 N   0  0  0  0  0  0  0  0  0  0  0  0
   22.0553   53.6649   91.4947 H   0  0  0  0  0  0  0  0  0  0  0  0
  1  4  1  0
  1 10  2  0
 11  1  1  0
 16  2  1  0
  2 22  1  0
  2 23  2  0
  3  5  2  0
  7  3  1  0
  4  7  2  0
  4  9  1  0
  6  5  1  0
  5  8  1  0
  9  6  2  0
 12 11  1  6
 13 12  1  1
 14 12  1  0
 14 13  1  6
 15 14  1  0
 15 16  1  1
 15 17  1  0
 15 20  1  0
 17 18  1  6
 19 18  1  1
 20 19  1  6
 20 21  1  0
 21 22  1  6
 23 24  1  0
M  END
$$$$
