
     RDKit          3D

 24 27  0  0  0  0  0  0  0  0999 V2000
   26.4647   54.9896   86.5201 C   0  0  0  0  0  0  0  0  0  0  0  0
   22.5343   55.2781   90.1898 C   0  0  0  0  0  0  0  0  0  0  0  0
   29.9387   56.4009   86.8219 C   0  0  0  0  0  0  0  0  0  0  0  0
   27.8286   55.2110   86.9913 C   0  0  0  0  0  0  0  0  0  0  0  0
   30.4519   55.6586   87.8747 C   0  0  0  0  0  0  0  0  0  0  0  0
   29.6128   54.7185   88.4371 C   0  0  0  0  0  0  0  0  0  0  0  0
   28.6447   56.1582   86.4093 C   0  0  0  0  0  0  0  0  0  0  0  0
   31.7212   55.8667   88.3110 F   0  0  0  0  0  0  0  0  0  0  0  0
   28.3519   54.5055   88.0103 N   0  0  0  0  0  0  0  0  0  0  0  0
   26.0122   53.8327   86.4573 O   0  0  0  0  0  0  0  0  0  0  0  0
   25.6500   56.0614   86.1347 N   0  0  0  0  0  0  0  0  0  0  0  0
   24.5499   56.5845   86.8768 C   0  0  1  0  0  0  0  0  0  0  0  0
   23.5683   57.4390   86.0283 C   0  0  0  0  0  0  0  0  0  0  0  0
   23.1507   56.1849   86.6359 C   0  0  2  0  0  0  0  0  0  0  0  0
   22.2999   56.0808   87.8895 C   0  0  2  0  0  0  0  0  0  0  0  0
   23.1297   55.6132   88.9669 N   0  0  0  0  0  0  0  0  0  0  0  0
   21.2662   54.9837   87.6132 C   0  0  0  0  0  0  0  0  0  0  0  0
   20.0312   55.5058   87.8857 O   0  0  0  0  0  0  0  0  0  0  0  0
   20.1401   56.8415   87.4530 C   0  0  0  0  0  0  0  0  0  0  0  0
   21.4582   57.2577   88.1406 C   0  0  1  0  0  0  0  0  0  0  0  0
   21.0901   57.6045   89.5333 C   0  0  0  0  0  0  0  0  0  0  0  0
   20.9783   56.0713   90.5438 S   0  0  0  0  0  0  0  0  0  0  0  0
   23.0435   54.4694   91.0133 N   0  0  0  0  0  0  0  0  0  0  0  0
   22.7128   54.3005   91.9729 H   0  0  0  0  0  0  0  0  0  0  0  0
  1  4  1  0
  1 10  2  0
 11  1  1  0
 16  2  1  0
  2 22  1  0
  2 23  2  0
  3  5  2  0
  7  3  1  0
  4  7  2  0
  4  9  1  0
  6  5  1  0
  5  8  1  0
  9  6  2  0
 12 11  1  6
 13 12  1  0
 14 12  1  0
 14 13  1  6
 15 14  1  0
 15 16  1  0
 15 17  1  6
 15 20  1  0
 17 18  1  0
 18 19  1  0
 20 19  1  6
 20 21  1  0
 21 22  1  0
 23 24  1  0
M  END
$$$$
