
     RDKit          3D

 20 20  0  0  0  0  0  0  0  0999 V2000
   16.0493   22.8991  -22.3915 C   0  0  2  0  0  0  0  0  0  0  0  0
   15.7275   24.3164  -22.0515 C   0  0  0  0  0  0  0  0  0  0  0  0
   14.4426   24.8025  -22.6216 C   0  0  0  0  0  0  0  0  0  0  0  0
   13.9446   24.1342  -23.8359 C   0  0  0  0  0  0  0  0  0  0  0  0
   14.6055   22.8986  -24.2982 C   0  0  2  0  0  0  0  0  0  0  0  0
   16.0705   22.7632  -23.9052 C   0  0  1  0  0  0  0  0  0  0  0  0
   16.9793   23.6640  -24.5342 C   0  0  0  0  0  0  0  0  0  0  0  0
   17.7755   24.4533  -25.0856 C   0  0  0  0  0  0  0  0  0  0  0  0
   19.2395   24.1780  -25.1095 C   0  0  0  0  0  0  0  0  0  0  0  0
   19.9952   24.5985  -26.1402 C   0  0  0  0  0  0  0  0  0  0  0  0
   21.3876   24.3517  -26.1707 C   0  0  0  0  0  0  0  0  0  0  0  0
   22.3033   24.7525  -27.0044 C   0  0  0  0  0  0  0  0  0  0  0  0
   22.9972   23.9978  -28.0084 C   0  0  0  0  0  0  0  0  0  0  0  0
   24.3231   24.2253  -28.1438 C   0  0  0  0  0  0  0  0  0  0  0  0
   25.0616   23.6351  -29.2747 C   0  0  0  0  0  0  0  0  0  0  0  0
   14.9269   22.0505  -21.7961 C   0  0  0  0  0  0  0  0  0  0  0  0
   17.3141   22.4119  -21.7950 C   0  0  0  0  0  0  0  0  0  0  0  0
   14.5964   22.8126  -25.8308 C   0  0  0  0  0  0  0  0  0  0  0  0
   19.8985   23.3702  -24.0691 C   0  0  0  0  0  0  0  0  0  0  0  0
   22.4268   22.9815  -28.9269 C   0  0  0  0  0  0  0  0  0  0  0  0
  1  2  1  0
  1  6  1  0
  1 16  1  1
  1 17  1  0
  2  3  1  0
  3  4  1  0
  4  5  1  0
  5  6  1  0
  5 18  1  6
  6  7  1  6
  7  8  2  0
  8  9  1  0
  9 10  2  0
  9 19  1  0
 10 11  1  0
 11 12  2  0
 12 13  1  0
 13 14  2  0
 13 20  1  0
 14 15  1  0
M  END
$$$$
