
     RDKit          3D

 20 20  0  0  0  0  0  0  0  0999 V2000
   36.0196   20.5263  -28.7661 C   0  0  2  0  0  0  0  0  0  0  0  0
   36.6456   20.7693  -30.0992 C   0  0  0  0  0  0  0  0  0  0  0  0
   37.8514   21.6390  -30.0560 C   0  0  0  0  0  0  0  0  0  0  0  0
   37.9669   22.5813  -28.9299 C   0  0  0  0  0  0  0  0  0  0  0  0
   37.0209   22.4730  -27.8028 C   0  0  2  0  0  0  0  0  0  0  0  0
   35.6663   21.8707  -28.1512 C   0  0  1  0  0  0  0  0  0  0  0  0
   34.8190   22.6601  -28.9831 C   0  0  0  0  0  0  0  0  0  0  0  0
   34.0767   23.3517  -29.7121 C   0  0  0  0  0  0  0  0  0  0  0  0
   32.7873   23.8962  -29.2017 C   0  0  0  0  0  0  0  0  0  0  0  0
   31.8421   23.0696  -28.7184 C   0  0  0  0  0  0  0  0  0  0  0  0
   30.5095   23.5102  -28.5433 C   0  0  0  0  0  0  0  0  0  0  0  0
   29.4876   22.9256  -27.9883 C   0  0  0  0  0  0  0  0  0  0  0  0
   28.1335   23.3893  -27.8855 C   0  0  0  0  0  0  0  0  0  0  0  0
   27.3534   22.8100  -26.9452 C   0  0  0  0  0  0  0  0  0  0  0  0
   25.9653   23.2672  -26.7537 C   0  0  0  0  0  0  0  0  0  0  0  0
   37.0749   19.8147  -27.9209 C   0  0  0  0  0  0  0  0  0  0  0  0
   34.8383   19.6346  -28.8122 C   0  0  0  0  0  0  0  0  0  0  0  0
   36.7016   23.8568  -27.2202 C   0  0  0  0  0  0  0  0  0  0  0  0
   32.4585   25.3295  -29.2843 C   0  0  0  0  0  0  0  0  0  0  0  0
   27.4782   24.4448  -28.6969 C   0  0  0  0  0  0  0  0  0  0  0  0
  1  2  1  0
  1  6  1  0
  1 16  1  1
  1 17  1  0
  2  3  1  0
  3  4  1  0
  4  5  1  0
  5  6  1  0
  5 18  1  6
  6  7  1  6
  7  8  2  0
  8  9  1  0
  9 10  2  0
  9 19  1  0
 10 11  1  0
 11 12  2  0
 12 13  1  0
 13 14  2  0
 13 20  1  0
 14 15  1  0
M  END
$$$$
