
     RDKit          3D

 20 20  0  0  0  0  0  0  0  0999 V2000
   17.0251   21.2727  -25.4591 C   0  0  2  0  0  0  0  0  0  0  0  0
   17.4029   21.6903  -26.8414 C   0  0  0  0  0  0  0  0  0  0  0  0
   17.5651   23.1590  -27.0106 C   0  0  0  0  0  0  0  0  0  0  0  0
   16.8324   24.0332  -26.0788 C   0  0  0  0  0  0  0  0  0  0  0  0
   16.1626   23.4345  -24.9084 C   0  0  2  0  0  0  0  0  0  0  0  0
   15.7356   21.9828  -25.0804 C   0  0  1  0  0  0  0  0  0  0  0  0
   14.6739   21.7413  -26.0009 C   0  0  0  0  0  0  0  0  0  0  0  0
   13.7436   21.5299  -26.8075 C   0  0  0  0  0  0  0  0  0  0  0  0
   12.5234   20.7805  -26.3961 C   0  0  0  0  0  0  0  0  0  0  0  0
   11.7354   20.2012  -27.3201 C   0  0  0  0  0  0  0  0  0  0  0  0
   10.6830   19.3358  -26.9406 C   0  0  0  0  0  0  0  0  0  0  0  0
    9.8569   18.6355  -27.6626 C   0  0  0  0  0  0  0  0  0  0  0  0
    8.9435   17.6109  -27.2440 C   0  0  0  0  0  0  0  0  0  0  0  0
    9.1826   16.3550  -27.6841 C   0  0  0  0  0  0  0  0  0  0  0  0
    8.2516   15.2640  -27.3440 C   0  0  0  0  0  0  0  0  0  0  0  0
   18.1674   21.7213  -24.5490 C   0  0  0  0  0  0  0  0  0  0  0  0
   16.8958   19.8073  -25.2899 C   0  0  0  0  0  0  0  0  0  0  0  0
   14.8702   24.1905  -24.5701 C   0  0  0  0  0  0  0  0  0  0  0  0
   12.0833   20.7171  -24.9919 C   0  0  0  0  0  0  0  0  0  0  0  0
    7.7531   17.7661  -26.3719 C   0  0  0  0  0  0  0  0  0  0  0  0
  1  2  1  0
  1  6  1  0
  1 16  1  1
  1 17  1  0
  2  3  1  0
  3  4  1  0
  4  5  1  0
  5  6  1  0
  5 18  1  6
  6  7  1  6
  7  8  2  0
  8  9  1  0
  9 10  2  0
  9 19  1  0
 10 11  1  0
 11 12  2  0
 12 13  1  0
 13 14  2  0
 13 20  1  0
 14 15  1  0
M  END
$$$$
