
     RDKit          3D

 20 20  0  0  0  0  0  0  0  0999 V2000
   23.8022   23.7163  -32.5142 C   0  0  2  0  0  0  0  0  0  0  0  0
   23.9245   24.8574  -33.4686 C   0  0  0  0  0  0  0  0  0  0  0  0
   24.2724   24.4547  -34.8574 C   0  0  0  0  0  0  0  0  0  0  0  0
   24.9872   23.1791  -35.0339 C   0  0  0  0  0  0  0  0  0  0  0  0
   25.1289   22.2697  -33.8807 C   0  0  2  0  0  0  0  0  0  0  0  0
   25.1134   22.9475  -32.5171 C   0  0  1  0  0  0  0  0  0  0  0  0
   26.2400   23.7634  -32.2043 C   0  0  0  0  0  0  0  0  0  0  0  0
   27.2272   24.4785  -31.9303 C   0  0  0  0  0  0  0  0  0  0  0  0
   28.0799   24.1913  -30.7429 C   0  0  0  0  0  0  0  0  0  0  0  0
   29.3747   23.8598  -30.8977 C   0  0  0  0  0  0  0  0  0  0  0  0
   30.2809   23.9373  -29.8146 C   0  0  0  0  0  0  0  0  0  0  0  0
   31.5551   23.6789  -29.7530 C   0  0  0  0  0  0  0  0  0  0  0  0
   32.3461   23.3242  -28.6094 C   0  0  0  0  0  0  0  0  0  0  0  0
   33.6746   23.1656  -28.8042 C   0  0  0  0  0  0  0  0  0  0  0  0
   34.6318   23.6491  -27.7929 C   0  0  0  0  0  0  0  0  0  0  0  0
   22.6683   22.8377  -33.0404 C   0  0  0  0  0  0  0  0  0  0  0  0
   23.4251   24.1213  -31.1407 C   0  0  0  0  0  0  0  0  0  0  0  0
   26.4670   21.5194  -33.9354 C   0  0  0  0  0  0  0  0  0  0  0  0
   27.5320   24.1697  -29.3759 C   0  0  0  0  0  0  0  0  0  0  0  0
   31.8746   23.1101  -27.2188 C   0  0  0  0  0  0  0  0  0  0  0  0
  1  2  1  0
  1  6  1  0
  1 16  1  6
  1 17  1  0
  2  3  1  0
  3  4  1  0
  4  5  1  0
  5  6  1  0
  5 18  1  6
  6  7  1  6
  7  8  2  0
  8  9  1  0
  9 10  2  0
  9 19  1  0
 10 11  1  0
 11 12  2  0
 12 13  1  0
 13 14  2  0
 13 20  1  0
 14 15  1  0
M  END
$$$$
