
     RDKit          3D

 20 20  0  0  0  0  0  0  0  0999 V2000
   24.3785   22.7799  -32.8528 C   0  0  2  0  0  0  0  0  0  0  0  0
   24.0434   24.2340  -32.8157 C   0  0  0  0  0  0  0  0  0  0  0  0
   24.4266   24.9785  -34.0449 C   0  0  0  0  0  0  0  0  0  0  0  0
   25.5258   24.4274  -34.8556 C   0  0  0  0  0  0  0  0  0  0  0  0
   26.0401   23.0794  -34.5469 C   0  0  2  0  0  0  0  0  0  0  0  0
   25.8718   22.6392  -33.0988 C   0  0  1  0  0  0  0  0  0  0  0  0
   26.6642   23.3270  -32.1333 C   0  0  0  0  0  0  0  0  0  0  0  0
   27.3584   23.9295  -31.2872 C   0  0  0  0  0  0  0  0  0  0  0  0
   28.5187   23.2653  -30.6296 C   0  0  0  0  0  0  0  0  0  0  0  0
   29.6039   23.9793  -30.2792 C   0  0  0  0  0  0  0  0  0  0  0  0
   30.5229   23.4860  -29.3239 C   0  0  0  0  0  0  0  0  0  0  0  0
   31.5729   24.0401  -28.7902 C   0  0  0  0  0  0  0  0  0  0  0  0
   32.6069   23.4328  -28.0021 C   0  0  0  0  0  0  0  0  0  0  0  0
   32.2585   22.9678  -26.7812 C   0  0  0  0  0  0  0  0  0  0  0  0
   33.2990   22.5281  -25.8343 C   0  0  0  0  0  0  0  0  0  0  0  0
   23.5885   22.1881  -34.0190 C   0  0  0  0  0  0  0  0  0  0  0  0
   23.9662   22.0386  -31.6391 C   0  0  0  0  0  0  0  0  0  0  0  0
   27.5491   22.9937  -34.8146 C   0  0  0  0  0  0  0  0  0  0  0  0
   28.5668   21.8084  -30.4185 C   0  0  0  0  0  0  0  0  0  0  0  0
   34.0320   23.2491  -28.3724 C   0  0  0  0  0  0  0  0  0  0  0  0
  1  2  1  0
  1  6  1  0
  1 16  1  6
  1 17  1  0
  2  3  1  0
  3  4  1  0
  4  5  1  0
  5  6  1  0
  5 18  1  1
  6  7  1  1
  7  8  2  0
  8  9  1  0
  9 10  2  0
  9 19  1  0
 10 11  1  0
 11 12  2  0
 12 13  1  0
 13 14  2  0
 13 20  1  0
 14 15  1  0
M  END
$$$$
