
     RDKit          3D

 20 20  0  0  0  0  0  0  0  0999 V2000
   39.2141   19.5353  -28.6178 C   0  0  2  0  0  0  0  0  0  0  0  0
   38.7613   18.1784  -29.0441 C   0  0  0  0  0  0  0  0  0  0  0  0
   38.9223   17.9121  -30.4985 C   0  0  0  0  0  0  0  0  0  0  0  0
   38.9384   19.0749  -31.4024 C   0  0  0  0  0  0  0  0  0  0  0  0
   39.0162   20.4312  -30.8265 C   0  0  2  0  0  0  0  0  0  0  0  0
   38.4450   20.5708  -29.4218 C   0  0  1  0  0  0  0  0  0  0  0  0
   37.0309   20.4363  -29.2985 C   0  0  0  0  0  0  0  0  0  0  0  0
   35.7919   20.3184  -29.1906 C   0  0  0  0  0  0  0  0  0  0  0  0
   34.9229   21.5063  -28.9593 C   0  0  0  0  0  0  0  0  0  0  0  0
   33.7716   21.6514  -29.6401 C   0  0  0  0  0  0  0  0  0  0  0  0
   32.6225   22.1957  -29.0203 C   0  0  0  0  0  0  0  0  0  0  0  0
   31.4131   22.3633  -29.4712 C   0  0  0  0  0  0  0  0  0  0  0  0
   30.2149   22.6625  -28.7405 C   0  0  0  0  0  0  0  0  0  0  0  0
   29.4326   23.6558  -29.2197 C   0  0  0  0  0  0  0  0  0  0  0  0
   28.2099   24.0471  -28.4954 C   0  0  0  0  0  0  0  0  0  0  0  0
   40.7055   19.6100  -28.9409 C   0  0  0  0  0  0  0  0  0  0  0  0
   39.0802   19.7825  -27.1639 C   0  0  0  0  0  0  0  0  0  0  0  0
   38.2255   21.4343  -31.6777 C   0  0  0  0  0  0  0  0  0  0  0  0
   35.3212   22.6004  -28.0571 C   0  0  0  0  0  0  0  0  0  0  0  0
   29.7231   22.0017  -27.5062 C   0  0  0  0  0  0  0  0  0  0  0  0
  1  2  1  0
  1  6  1  0
  1 16  1  6
  1 17  1  0
  2  3  1  0
  3  4  1  0
  4  5  1  0
  5  6  1  0
  5 18  1  6
  6  7  1  6
  7  8  2  0
  8  9  1  0
  9 10  2  0
  9 19  1  0
 10 11  1  0
 11 12  2  0
 12 13  1  0
 13 14  2  0
 13 20  1  0
 14 15  1  0
M  END
$$$$
