
     RDKit          3D

 20 20  0  0  0  0  0  0  0  0999 V2000
   17.6946   24.9054  -21.9156 C   0  0  2  0  0  0  0  0  0  0  0  0
   17.6797   26.0270  -22.9003 C   0  0  0  0  0  0  0  0  0  0  0  0
   16.7217   27.1154  -22.5686 C   0  0  0  0  0  0  0  0  0  0  0  0
   15.5614   26.7648  -21.7319 C   0  0  0  0  0  0  0  0  0  0  0  0
   15.5142   25.4375  -21.0891 C   0  0  2  0  0  0  0  0  0  0  0  0
   16.2869   24.3417  -21.8111 C   0  0  1  0  0  0  0  0  0  0  0  0
   15.7597   23.9192  -23.0667 C   0  0  0  0  0  0  0  0  0  0  0  0
   15.2979   23.5492  -24.1670 C   0  0  0  0  0  0  0  0  0  0  0  0
   13.9746   22.8707  -24.2574 C   0  0  0  0  0  0  0  0  0  0  0  0
   13.5183   22.4219  -25.4409 C   0  0  0  0  0  0  0  0  0  0  0  0
   14.3521   21.6789  -26.3087 C   0  0  0  0  0  0  0  0  0  0  0  0
   14.0786   21.0406  -27.4096 C   0  0  0  0  0  0  0  0  0  0  0  0
   14.9789   20.3957  -28.3221 C   0  0  0  0  0  0  0  0  0  0  0  0
   16.0314   19.7368  -27.7871 C   0  0  0  0  0  0  0  0  0  0  0  0
   16.9455   18.9755  -28.6575 C   0  0  0  0  0  0  0  0  0  0  0  0
   18.1258   25.5125  -20.5815 C   0  0  0  0  0  0  0  0  0  0  0  0
   18.6726   23.8404  -22.2350 C   0  0  0  0  0  0  0  0  0  0  0  0
   14.0719   24.9185  -21.0084 C   0  0  0  0  0  0  0  0  0  0  0  0
   13.0823   22.7427  -23.0926 C   0  0  0  0  0  0  0  0  0  0  0  0
   14.8908   20.3626  -29.8030 C   0  0  0  0  0  0  0  0  0  0  0  0
  1  2  1  0
  1  6  1  0
  1 16  1  1
  1 17  1  0
  2  3  1  0
  3  4  1  0
  4  5  1  0
  5  6  1  0
  5 18  1  6
  6  7  1  6
  7  8  2  0
  8  9  1  0
  9 10  2  0
  9 19  1  0
 10 11  1  0
 11 12  2  0
 12 13  1  0
 13 14  2  0
 13 20  1  0
 14 15  1  0
M  END
$$$$
