
     RDKit          3D

 20 20  0  0  0  0  0  0  0  0999 V2000
   24.5257   23.1012  -33.1032 C   0  0  2  0  0  0  0  0  0  0  0  0
   23.9875   24.4926  -33.1527 C   0  0  0  0  0  0  0  0  0  0  0  0
   24.1710   25.1697  -34.4641 C   0  0  0  0  0  0  0  0  0  0  0  0
   25.2781   24.7052  -35.3174 C   0  0  0  0  0  0  0  0  0  0  0  0
   26.0022   23.4740  -34.9473 C   0  0  2  0  0  0  0  0  0  0  0  0
   26.0024   23.1463  -33.4602 C   0  0  1  0  0  0  0  0  0  0  0  0
   26.7535   24.0204  -32.6207 C   0  0  0  0  0  0  0  0  0  0  0  0
   27.4116   24.7864  -31.8851 C   0  0  0  0  0  0  0  0  0  0  0  0
   28.1628   24.2664  -30.7083 C   0  0  0  0  0  0  0  0  0  0  0  0
   29.4999   24.3996  -30.6402 C   0  0  0  0  0  0  0  0  0  0  0  0
   30.2145   23.9946  -29.4887 C   0  0  0  0  0  0  0  0  0  0  0  0
   31.4885   24.0282  -29.2241 C   0  0  0  0  0  0  0  0  0  0  0  0
   32.1945   23.4317  -28.1264 C   0  0  0  0  0  0  0  0  0  0  0  0
   33.5444   23.4118  -28.1998 C   0  0  0  0  0  0  0  0  0  0  0  0
   34.3349   22.8283  -27.1011 C   0  0  0  0  0  0  0  0  0  0  0  0
   23.7486   22.3041  -34.1497 C   0  0  0  0  0  0  0  0  0  0  0  0
   24.3119   22.4217  -31.8049 C   0  0  0  0  0  0  0  0  0  0  0  0
   27.4850   23.5737  -35.3316 C   0  0  0  0  0  0  0  0  0  0  0  0
   27.4989   23.5170  -29.6280 C   0  0  0  0  0  0  0  0  0  0  0  0
   31.6127   22.8281  -26.9020 C   0  0  0  0  0  0  0  0  0  0  0  0
  1  2  1  0
  1  6  1  0
  1 16  1  6
  1 17  1  0
  2  3  1  0
  3  4  1  0
  4  5  1  0
  5  6  1  0
  5 18  1  1
  6  7  1  1
  7  8  2  0
  8  9  1  0
  9 10  2  0
  9 19  1  0
 10 11  1  0
 11 12  2  0
 12 13  1  0
 13 14  2  0
 13 20  1  0
 14 15  1  0
M  END
$$$$
