
     RDKit          3D

 20 20  0  0  0  0  0  0  0  0999 V2000
   14.5223   20.6162  -27.2003 C   0  0  2  0  0  0  0  0  0  0  0  0
   13.9097   21.9621  -27.4033 C   0  0  0  0  0  0  0  0  0  0  0  0
   14.1132   22.9009  -26.2678 C   0  0  0  0  0  0  0  0  0  0  0  0
   14.3414   22.3142  -24.9363 C   0  0  0  0  0  0  0  0  0  0  0  0
   14.5747   20.8618  -24.8218 C   0  0  2  0  0  0  0  0  0  0  0  0
   13.9509   20.0178  -25.9253 C   0  0  1  0  0  0  0  0  0  0  0  0
   12.5272   19.9409  -25.9335 C   0  0  0  0  0  0  0  0  0  0  0  0
   11.2797   19.8737  -25.9408 C   0  0  0  0  0  0  0  0  0  0  0  0
   10.5726   18.7669  -26.6442 C   0  0  0  0  0  0  0  0  0  0  0  0
    9.4381   18.2517  -26.1365 C   0  0  0  0  0  0  0  0  0  0  0  0
    8.9752   16.9761  -26.5352 C   0  0  0  0  0  0  0  0  0  0  0  0
    7.9337   16.2936  -26.1560 C   0  0  0  0  0  0  0  0  0  0  0  0
    7.3201   15.1627  -26.7915 C   0  0  0  0  0  0  0  0  0  0  0  0
    6.1933   14.6744  -26.2259 C   0  0  0  0  0  0  0  0  0  0  0  0
    4.8813   14.9469  -26.8399 C   0  0  0  0  0  0  0  0  0  0  0  0
   16.0254   20.8477  -27.0532 C   0  0  0  0  0  0  0  0  0  0  0  0
   14.3431   19.6969  -28.3472 C   0  0  0  0  0  0  0  0  0  0  0  0
   13.9800   20.3120  -23.5178 C   0  0  0  0  0  0  0  0  0  0  0  0
   11.1211   18.1373  -27.8574 C   0  0  0  0  0  0  0  0  0  0  0  0
    7.7789   14.4567  -28.0133 C   0  0  0  0  0  0  0  0  0  0  0  0
  1  2  1  0
  1  6  1  0
  1 16  1  1
  1 17  1  0
  2  3  1  0
  3  4  1  0
  4  5  1  0
  5  6  1  0
  5 18  1  1
  6  7  1  6
  7  8  2  0
  8  9  1  0
  9 10  2  0
  9 19  1  0
 10 11  1  0
 11 12  2  0
 12 13  1  0
 13 14  2  0
 13 20  1  0
 14 15  1  0
M  END
$$$$
