
     RDKit          3D

 20 20  0  0  0  0  0  0  0  0999 V2000
   20.2360   25.0448  -19.9449 C   0  0  2  0  0  0  0  0  0  0  0  0
   20.6130   26.3873  -20.4772 C   0  0  0  0  0  0  0  0  0  0  0  0
   20.0791   27.5278  -19.6858 C   0  0  0  0  0  0  0  0  0  0  0  0
   18.8605   27.2906  -18.8931 C   0  0  0  0  0  0  0  0  0  0  0  0
   18.3585   25.9113  -18.7429 C   0  0  2  0  0  0  0  0  0  0  0  0
   18.7195   24.9645  -19.8798 C   0  0  1  0  0  0  0  0  0  0  0  0
   18.0924   25.2167  -21.1352 C   0  0  0  0  0  0  0  0  0  0  0  0
   17.5429   25.4378  -22.2352 C   0  0  0  0  0  0  0  0  0  0  0  0
   16.7269   24.3912  -22.9122 C   0  0  0  0  0  0  0  0  0  0  0  0
   17.1849   23.7808  -24.0204 C   0  0  0  0  0  0  0  0  0  0  0  0
   16.3669   22.8874  -24.7507 C   0  0  0  0  0  0  0  0  0  0  0  0
   16.5858   22.2545  -25.8667 C   0  0  0  0  0  0  0  0  0  0  0  0
   15.7500   21.3004  -26.5378 C   0  0  0  0  0  0  0  0  0  0  0  0
   16.3623   20.4040  -27.3438 C   0  0  0  0  0  0  0  0  0  0  0  0
   15.5635   19.4120  -28.0857 C   0  0  0  0  0  0  0  0  0  0  0  0
   20.8348   24.9568  -18.5420 C   0  0  0  0  0  0  0  0  0  0  0  0
   20.7966   23.9139  -20.7192 C   0  0  0  0  0  0  0  0  0  0  0  0
   16.8249   25.8898  -18.6807 C   0  0  0  0  0  0  0  0  0  0  0  0
   15.3683   24.0471  -22.4595 C   0  0  0  0  0  0  0  0  0  0  0  0
   14.2739   21.1761  -26.4499 C   0  0  0  0  0  0  0  0  0  0  0  0
  1  2  1  0
  1  6  1  0
  1 16  1  1
  1 17  1  0
  2  3  1  0
  3  4  1  0
  4  5  1  0
  5  6  1  0
  5 18  1  6
  6  7  1  6
  7  8  2  0
  8  9  1  0
  9 10  2  0
  9 19  1  0
 10 11  1  0
 11 12  2  0
 12 13  1  0
 13 14  2  0
 13 20  1  0
 14 15  1  0
M  END
$$$$
