
     RDKit          3D

 20 20  0  0  0  0  0  0  0  0999 V2000
   16.8528   23.5145  -25.0068 C   0  0  2  0  0  0  0  0  0  0  0  0
   15.9251   24.6721  -25.1716 C   0  0  0  0  0  0  0  0  0  0  0  0
   15.2155   25.0658  -23.9251 C   0  0  0  0  0  0  0  0  0  0  0  0
   15.0336   24.0304  -22.8935 C   0  0  0  0  0  0  0  0  0  0  0  0
   15.7370   22.7414  -23.0376 C   0  0  2  0  0  0  0  0  0  0  0  0
   16.0567   22.3360  -24.4703 C   0  0  1  0  0  0  0  0  0  0  0  0
   14.9440   21.9926  -25.2930 C   0  0  0  0  0  0  0  0  0  0  0  0
   13.9689   21.6917  -26.0137 C   0  0  0  0  0  0  0  0  0  0  0  0
   13.9967   20.4798  -26.8797 C   0  0  0  0  0  0  0  0  0  0  0  0
   12.8563   19.9801  -27.3896 C   0  0  0  0  0  0  0  0  0  0  0  0
   11.6432   20.0488  -26.6656 C   0  0  0  0  0  0  0  0  0  0  0  0
   10.4568   19.5958  -26.9509 C   0  0  0  0  0  0  0  0  0  0  0  0
   10.0773   18.2826  -27.3876 C   0  0  0  0  0  0  0  0  0  0  0  0
    8.8199   18.1300  -27.8608 C   0  0  0  0  0  0  0  0  0  0  0  0
    8.3929   16.8335  -28.4171 C   0  0  0  0  0  0  0  0  0  0  0  0
   17.9070   23.9519  -23.9911 C   0  0  0  0  0  0  0  0  0  0  0  0
   17.5793   23.1477  -26.2439 C   0  0  0  0  0  0  0  0  0  0  0  0
   14.8903   21.5894  -22.4790 C   0  0  0  0  0  0  0  0  0  0  0  0
   15.2405   19.7347  -27.1390 C   0  0  0  0  0  0  0  0  0  0  0  0
   10.9116   17.0554  -27.3844 C   0  0  0  0  0  0  0  0  0  0  0  0
  1  2  1  0
  1  6  1  0
  1 16  1  1
  1 17  1  0
  2  3  1  0
  3  4  1  0
  4  5  1  0
  5  6  1  0
  5 18  1  6
  6  7  1  6
  7  8  2  0
  8  9  1  0
  9 10  2  0
  9 19  1  0
 10 11  1  0
 11 12  2  0
 12 13  1  0
 13 14  2  0
 13 20  1  0
 14 15  1  0
M  END
$$$$
