
     RDKit          3D

 20 20  0  0  0  0  0  0  0  0999 V2000
   31.3480   24.3228  -28.3621 C   0  0  2  0  0  0  0  0  0  0  0  0
   31.7193   23.9453  -29.7577 C   0  0  0  0  0  0  0  0  0  0  0  0
   30.5810   23.4526  -30.5783 C   0  0  0  0  0  0  0  0  0  0  0  0
   29.4362   22.8627  -29.8636 C   0  0  0  0  0  0  0  0  0  0  0  0
   29.3672   22.9828  -28.3947 C   0  0  2  0  0  0  0  0  0  0  0  0
   30.7122   23.1152  -27.6930 C   0  0  1  0  0  0  0  0  0  0  0  0
   31.5500   21.9615  -27.7101 C   0  0  0  0  0  0  0  0  0  0  0  0
   32.2839   20.9506  -27.7251 C   0  0  0  0  0  0  0  0  0  0  0  0
   33.6042   20.9680  -28.4150 C   0  0  0  0  0  0  0  0  0  0  0  0
   34.7435   21.0510  -27.7043 C   0  0  0  0  0  0  0  0  0  0  0  0
   35.9732   20.6083  -28.2450 C   0  0  0  0  0  0  0  0  0  0  0  0
   37.1783   20.6421  -27.7542 C   0  0  0  0  0  0  0  0  0  0  0  0
   38.3023   19.8089  -28.0730 C   0  0  0  0  0  0  0  0  0  0  0  0
   38.4473   19.4375  -29.3650 C   0  0  0  0  0  0  0  0  0  0  0  0
   39.6035   18.6191  -29.7724 C   0  0  0  0  0  0  0  0  0  0  0  0
   30.3352   25.4605  -28.4814 C   0  0  0  0  0  0  0  0  0  0  0  0
   32.4795   24.8419  -27.5603 C   0  0  0  0  0  0  0  0  0  0  0  0
   28.7161   21.7395  -27.7729 C   0  0  0  0  0  0  0  0  0  0  0  0
   33.7169   20.9855  -29.8835 C   0  0  0  0  0  0  0  0  0  0  0  0
   39.3405   19.3012  -27.1423 C   0  0  0  0  0  0  0  0  0  0  0  0
  1  2  1  0
  1  6  1  0
  1 16  1  6
  1 17  1  0
  2  3  1  0
  3  4  1  0
  4  5  1  0
  5  6  1  0
  5 18  1  1
  6  7  1  6
  7  8  2  0
  8  9  1  0
  9 10  2  0
  9 19  1  0
 10 11  1  0
 11 12  2  0
 12 13  1  0
 13 14  2  0
 13 20  1  0
 14 15  1  0
M  END
$$$$
