
     RDKit          3D

 20 20  0  0  0  0  0  0  0  0999 V2000
   19.3108   25.3798  -19.6410 C   0  0  2  0  0  0  0  0  0  0  0  0
   19.7542   26.7583  -20.0030 C   0  0  0  0  0  0  0  0  0  0  0  0
   18.8464   27.8349  -19.5249 C   0  0  0  0  0  0  0  0  0  0  0  0
   17.4359   27.4789  -19.2942 C   0  0  0  0  0  0  0  0  0  0  0  0
   17.0385   26.0584  -19.3310 C   0  0  2  0  0  0  0  0  0  0  0  0
   17.9137   25.1645  -20.1994 C   0  0  1  0  0  0  0  0  0  0  0  0
   17.8355   25.3789  -21.6069 C   0  0  0  0  0  0  0  0  0  0  0  0
   17.7670   25.5669  -22.8401 C   0  0  0  0  0  0  0  0  0  0  0  0
   16.8417   24.7668  -23.6905 C   0  0  0  0  0  0  0  0  0  0  0  0
   17.1574   23.5074  -24.0430 C   0  0  0  0  0  0  0  0  0  0  0  0
   16.4327   22.8298  -25.0511 C   0  0  0  0  0  0  0  0  0  0  0  0
   16.5448   21.6160  -25.5076 C   0  0  0  0  0  0  0  0  0  0  0  0
   15.9654   21.0430  -26.6888 C   0  0  0  0  0  0  0  0  0  0  0  0
   16.7581   20.9472  -27.7799 C   0  0  0  0  0  0  0  0  0  0  0  0
   16.2012   20.4659  -29.0569 C   0  0  0  0  0  0  0  0  0  0  0  0
   19.2888   25.3242  -18.1143 C   0  0  0  0  0  0  0  0  0  0  0  0
   20.2351   24.3147  -20.0928 C   0  0  0  0  0  0  0  0  0  0  0  0
   15.6218   25.9002  -19.9004 C   0  0  0  0  0  0  0  0  0  0  0  0
   15.6040   25.3383  -24.2482 C   0  0  0  0  0  0  0  0  0  0  0  0
   14.5820   20.5334  -26.8580 C   0  0  0  0  0  0  0  0  0  0  0  0
  1  2  1  0
  1  6  1  0
  1 16  1  1
  1 17  1  0
  2  3  1  0
  3  4  1  0
  4  5  1  0
  5  6  1  0
  5 18  1  6
  6  7  1  6
  7  8  2  0
  8  9  1  0
  9 10  2  0
  9 19  1  0
 10 11  1  0
 11 12  2  0
 12 13  1  0
 13 14  2  0
 13 20  1  0
 14 15  1  0
M  END
$$$$
