
     RDKit          3D

 20 20  0  0  0  0  0  0  0  0999 V2000
   20.1076   24.6457  -20.7135 C   0  0  2  0  0  0  0  0  0  0  0  0
   20.3973   26.1091  -20.6624 C   0  0  0  0  0  0  0  0  0  0  0  0
   19.5938   26.8538  -19.6564 C   0  0  0  0  0  0  0  0  0  0  0  0
   18.2967   26.2769  -19.2638 C   0  0  0  0  0  0  0  0  0  0  0  0
   17.9559   24.9103  -19.7035 C   0  0  2  0  0  0  0  0  0  0  0  0
   18.6255   24.4609  -20.9953 C   0  0  1  0  0  0  0  0  0  0  0  0
   18.1982   25.1136  -22.1887 C   0  0  0  0  0  0  0  0  0  0  0  0
   17.8236   25.6857  -23.2343 C   0  0  0  0  0  0  0  0  0  0  0  0
   16.8768   25.0253  -24.1762 C   0  0  0  0  0  0  0  0  0  0  0  0
   16.5871   23.7178  -24.0463 C   0  0  0  0  0  0  0  0  0  0  0  0
   15.8081   23.0446  -25.0160 C   0  0  0  0  0  0  0  0  0  0  0  0
   15.3872   21.8138  -25.0623 C   0  0  0  0  0  0  0  0  0  0  0  0
   14.6748   21.1465  -26.1142 C   0  0  0  0  0  0  0  0  0  0  0  0
   14.4588   19.8199  -25.9670 C   0  0  0  0  0  0  0  0  0  0  0  0
   13.8512   19.0449  -27.0638 C   0  0  0  0  0  0  0  0  0  0  0  0
   20.4611   24.0909  -19.3345 C   0  0  0  0  0  0  0  0  0  0  0  0
   20.9330   23.9053  -21.6950 C   0  0  0  0  0  0  0  0  0  0  0  0
   16.4500   24.7802  -19.9713 C   0  0  0  0  0  0  0  0  0  0  0  0
   16.2950   25.7390  -25.3258 C   0  0  0  0  0  0  0  0  0  0  0  0
   14.1369   21.7466  -27.3602 C   0  0  0  0  0  0  0  0  0  0  0  0
  1  2  1  0
  1  6  1  0
  1 16  1  1
  1 17  1  0
  2  3  1  0
  3  4  1  0
  4  5  1  0
  5  6  1  0
  5 18  1  6
  6  7  1  6
  7  8  2  0
  8  9  1  0
  9 10  2  0
  9 19  1  0
 10 11  1  0
 11 12  2  0
 12 13  1  0
 13 14  2  0
 13 20  1  0
 14 15  1  0
M  END
$$$$
