
     RDKit          3D

 34 37  0  0  0  0  0  0  0  0999 V2000
   68.4697   -4.9363  148.7353 C   0  0  0  0  0  0  0  0  0  0  0  0
   68.1631   -3.5833  148.8284 C   0  0  0  0  0  0  0  0  0  0  0  0
   68.5031   -2.9772  150.0078 C   0  0  0  0  0  0  0  0  0  0  0  0
   68.2107   -1.6845  147.1644 C   0  0  0  0  0  0  0  0  0  0  0  0
   67.6183   -0.4487  147.1050 C   0  0  0  0  0  0  0  0  0  0  0  0
   69.5212   -1.8147  146.7168 C   0  0  0  0  0  0  0  0  0  0  0  0
   66.4570   -3.3091  147.0692 C   0  0  0  0  0  0  0  0  0  0  0  0
   65.8662   -2.5147  145.9619 C   0  0  0  0  0  0  0  0  0  0  0  0
   64.8238   -1.5413  146.3600 C   0  0  0  0  0  0  0  0  0  0  0  0
   64.1316   -0.8117  145.2464 C   0  0  0  0  0  0  0  0  0  0  0  0
   65.8021   -4.5952  147.3970 C   0  0  0  0  0  0  0  0  0  0  0  0
   65.1933   -4.8433  148.6059 C   0  0  0  0  0  0  0  0  0  0  0  0
   64.6014   -6.0567  148.8425 C   0  0  0  0  0  0  0  0  0  0  0  0
   64.6053   -7.0426  147.8807 C   0  0  0  0  0  0  0  0  0  0  0  0
   65.8013   -5.5948  146.4340 C   0  0  0  0  0  0  0  0  0  0  0  0
   69.8627   -7.1440  156.9299 C   0  0  0  0  0  0  0  0  0  0  0  0
   70.0460   -7.7101  155.5560 C   0  0  2  0  0  0  0  0  0  0  0  0
   71.4874   -8.1559  155.3271 C   0  0  0  0  0  0  0  0  0  0  0  0
   69.3622   -7.5100  153.3256 C   0  0  0  0  0  0  0  0  0  0  0  0
   70.2402   -7.0450  152.1545 C   0  0  0  0  0  0  0  0  0  0  0  0
   70.4329   -4.8400  153.2223 C   0  0  0  0  0  0  0  0  0  0  0  0
   70.8130   -5.8355  154.2969 C   0  0  0  0  0  0  0  0  0  0  0  0
   69.4028   -4.9755  150.9462 C   0  0  0  0  0  0  0  0  0  0  0  0
   69.0848   -5.6209  149.7897 C   0  0  0  0  0  0  0  0  0  0  0  0
   69.1079   -3.6352  151.0547 C   0  0  0  0  0  0  0  0  0  0  0  0
   67.5391   -2.8988  147.6856 C   0  0  0  0  0  0  0  0  0  0  0  0
   68.2985    0.6610  146.6111 C   0  0  0  0  0  0  0  0  0  0  0  0
   69.5917    0.5296  146.1702 C   0  0  0  0  0  0  0  0  0  0  0  0
   70.2058   -0.7103  146.2223 C   0  0  0  0  0  0  0  0  0  0  0  0
   65.2085   -6.8161  146.6649 C   0  0  0  0  0  0  0  0  0  0  0  0
   69.7193   -6.7771  154.4984 N   0  0  2  0  0  4  0  0  0  0  0  0
   69.9990   -5.6117  152.0582 N   0  0  0  0  0  0  0  0  0  0  0  0
   67.6695    1.8823  146.5690 O   0  0  0  0  0  0  0  0  0  0  0  0
   63.2577   -1.6803  144.5540 O   0  0  0  0  0  0  0  0  0  0  0  0
  1  2  2  0
 24  1  1  0
  3  2  1  0
  2 26  1  0
 25  3  2  0
  4  5  2  0
  4  6  1  0
 26  4  1  0
  5 27  1  0
  6 29  2  0
  7  8  1  0
  7 11  1  0
 26  7  2  0
  8  9  1  0
  9 10  1  0
 10 34  1  0
 11 12  2  0
 11 15  1  0
 12 13  1  0
 13 14  2  0
 30 14  1  0
 15 30  2  0
 17 16  1  1
 17 18  1  0
 31 17  1  0
 20 19  1  0
 31 19  1  6
 32 20  1  0
 21 22  1  0
 32 21  1  0
 22 31  1  0
 23 24  2  0
 23 25  1  0
 23 32  1  0
 27 28  2  0
 27 33  1  0
 28 29  1  0
M  CHG  1  31   1
M  END
$$$$
