
     RDKit          3D

 34 37  0  0  0  0  0  0  0  0999 V2000
   68.0682   -2.8422  150.1595 C   0  0  0  0  0  0  0  0  0  0  0  0
   68.3739   -3.4291  148.9366 C   0  0  0  0  0  0  0  0  0  0  0  0
   69.2523   -4.4779  148.9845 C   0  0  0  0  0  0  0  0  0  0  0  0
   68.1771   -1.6042  147.2024 C   0  0  0  0  0  0  0  0  0  0  0  0
   69.4911   -1.2285  147.0845 C   0  0  0  0  0  0  0  0  0  0  0  0
   67.1913   -0.7003  146.8204 C   0  0  0  0  0  0  0  0  0  0  0  0
   66.8426   -3.5805  147.0096 C   0  0  0  0  0  0  0  0  0  0  0  0
   66.2177   -2.9656  145.8107 C   0  0  0  0  0  0  0  0  0  0  0  0
   64.8267   -2.4902  145.9885 C   0  0  0  0  0  0  0  0  0  0  0  0
   64.1692   -1.8840  144.7835 C   0  0  0  0  0  0  0  0  0  0  0  0
   66.4487   -4.9695  147.3348 C   0  0  0  0  0  0  0  0  0  0  0  0
   67.3378   -6.0198  147.3515 C   0  0  0  0  0  0  0  0  0  0  0  0
   66.9062   -7.2823  147.6654 C   0  0  0  0  0  0  0  0  0  0  0  0
   65.5837   -7.5205  147.9677 C   0  0  0  0  0  0  0  0  0  0  0  0
   65.1180   -5.2193  147.6405 C   0  0  0  0  0  0  0  0  0  0  0  0
   72.0707   -7.5711  155.5624 C   0  0  0  0  0  0  0  0  0  0  0  0
   70.5968   -7.3495  155.7056 C   0  0  2  0  0  0  0  0  0  0  0  0
   69.8282   -8.6659  155.6349 C   0  0  0  0  0  0  0  0  0  0  0  0
   70.3115   -7.0397  153.4023 C   0  0  0  0  0  0  0  0  0  0  0  0
   71.0323   -5.9932  152.5400 C   0  0  0  0  0  0  0  0  0  0  0  0
   69.9084   -4.2199  153.8174 C   0  0  0  0  0  0  0  0  0  0  0  0
   70.5368   -5.1210  154.8583 C   0  0  0  0  0  0  0  0  0  0  0  0
   69.5044   -4.3509  151.3516 C   0  0  0  0  0  0  0  0  0  0  0  0
   68.6326   -3.3044  151.3539 C   0  0  0  0  0  0  0  0  0  0  0  0
   69.8168   -4.9449  150.1497 C   0  0  0  0  0  0  0  0  0  0  0  0
   67.7377   -2.9260  147.7094 C   0  0  0  0  0  0  0  0  0  0  0  0
   69.8481    0.0251  146.5954 C   0  0  0  0  0  0  0  0  0  0  0  0
   68.8732    0.9151  146.2192 C   0  0  0  0  0  0  0  0  0  0  0  0
   67.5414    0.5533  146.3315 C   0  0  0  0  0  0  0  0  0  0  0  0
   64.6775   -6.4851  147.9568 C   0  0  0  0  0  0  0  0  0  0  0  0
   70.0418   -6.4810  154.6889 N   0  0  2  0  0  4  0  0  0  0  0  0
   70.1306   -4.8494  152.5161 N   0  0  0  0  0  0  0  0  0  0  0  0
   71.1763    0.3630  146.4922 O   0  0  0  0  0  0  0  0  0  0  0  0
   62.8717   -1.4257  145.1061 O   0  0  0  0  0  0  0  0  0  0  0  0
  1  2  2  0
 24  1  1  0
  3  2  1  0
  2 26  1  0
 25  3  2  0
  4  5  2  0
  4  6  1  0
 26  4  1  0
  5 27  1  0
  6 29  2  0
  7  8  1  0
  7 11  1  0
 26  7  2  0
  8  9  1  0
  9 10  1  0
 10 34  1  0
 11 12  2  0
 11 15  1  0
 12 13  1  0
 13 14  2  0
 30 14  1  0
 15 30  2  0
 17 16  1  6
 17 18  1  0
 31 17  1  0
 20 19  1  0
 31 19  1  6
 32 20  1  0
 21 22  1  0
 32 21  1  0
 22 31  1  0
 23 24  2  0
 23 25  1  0
 23 32  1  0
 27 28  2  0
 27 33  1  0
 28 29  1  0
M  CHG  1  31   1
M  END
$$$$
