
     RDKit          3D

 34 37  0  0  0  0  0  0  0  0999 V2000
   68.0478   -3.0547  150.5511 C   0  0  0  0  0  0  0  0  0  0  0  0
   68.5788   -3.4311  149.3224 C   0  0  0  0  0  0  0  0  0  0  0  0
   69.6518   -4.2795  149.3740 C   0  0  0  0  0  0  0  0  0  0  0  0
   68.4885   -1.6733  147.5116 C   0  0  0  0  0  0  0  0  0  0  0  0
   67.7685   -0.5079  147.4408 C   0  0  0  0  0  0  0  0  0  0  0  0
   69.7926   -1.6785  147.0280 C   0  0  0  0  0  0  0  0  0  0  0  0
   67.0119   -3.5536  147.4221 C   0  0  0  0  0  0  0  0  0  0  0  0
   66.6055   -4.9342  147.7895 C   0  0  0  0  0  0  0  0  0  0  0  0
   65.7053   -5.0446  148.9600 C   0  0  0  0  0  0  0  0  0  0  0  0
   64.3863   -5.7211  148.7262 C   0  0  0  0  0  0  0  0  0  0  0  0
   66.2611   -2.9015  146.3260 C   0  0  0  0  0  0  0  0  0  0  0  0
   65.0858   -2.2135  146.5239 C   0  0  0  0  0  0  0  0  0  0  0  0
   64.4431   -1.6294  145.4636 C   0  0  0  0  0  0  0  0  0  0  0  0
   64.9588   -1.7199  144.1897 C   0  0  0  0  0  0  0  0  0  0  0  0
   66.7730   -2.9876  145.0387 C   0  0  0  0  0  0  0  0  0  0  0  0
   70.2146   -8.8078  156.1656 C   0  0  0  0  0  0  0  0  0  0  0  0
   70.9301   -7.5095  155.9546 C   0  0  2  0  0  0  0  0  0  0  0  0
   71.0022   -6.6993  157.2457 C   0  0  0  0  0  0  0  0  0  0  0  0
   70.7790   -7.0442  153.6648 C   0  0  0  0  0  0  0  0  0  0  0  0
   71.3622   -5.8121  152.9576 C   0  0  0  0  0  0  0  0  0  0  0  0
   69.8325   -4.3900  154.2524 C   0  0  0  0  0  0  0  0  0  0  0  0
   70.5299   -5.2582  155.2772 C   0  0  0  0  0  0  0  0  0  0  0  0
   69.6592   -4.3626  151.7565 C   0  0  0  0  0  0  0  0  0  0  0  0
   68.5887   -3.5205  151.7550 C   0  0  0  0  0  0  0  0  0  0  0  0
   70.1963   -4.7469  150.5486 C   0  0  0  0  0  0  0  0  0  0  0  0
   67.9623   -2.9365  148.0817 C   0  0  0  0  0  0  0  0  0  0  0  0
   68.3149    0.6529  146.9003 C   0  0  0  0  0  0  0  0  0  0  0  0
   69.6021    0.6450  146.4238 C   0  0  0  0  0  0  0  0  0  0  0  0
   70.3439   -0.5225  146.4868 C   0  0  0  0  0  0  0  0  0  0  0  0
   66.1326   -2.4032  143.9689 C   0  0  0  0  0  0  0  0  0  0  0  0
   70.3086   -6.6627  154.9584 N   0  0  2  0  0  4  0  0  0  0  0  0
   70.2705   -4.8480  152.9343 N   0  0  0  0  0  0  0  0  0  0  0  0
   67.5605    1.8006  146.8482 O   0  0  0  0  0  0  0  0  0  0  0  0
   64.1160   -6.6479  149.7585 O   0  0  0  0  0  0  0  0  0  0  0  0
  1  2  2  0
 24  1  1  0
  3  2  1  0
  2 26  1  0
 25  3  2  0
  4  5  2  0
  4  6  1  0
 26  4  1  0
  5 27  1  0
  6 29  2  0
  7  8  1  0
  7 11  1  0
 26  7  2  0
  8  9  1  0
  9 10  1  0
 10 34  1  0
 11 12  2  0
 11 15  1  0
 12 13  1  0
 13 14  2  0
 30 14  1  0
 15 30  2  0
 17 16  1  1
 17 18  1  0
 31 17  1  0
 20 19  1  0
 31 19  1  6
 32 20  1  0
 21 22  1  0
 32 21  1  0
 22 31  1  0
 23 24  2  0
 23 25  1  0
 23 32  1  0
 27 28  2  0
 27 33  1  0
 28 29  1  0
M  CHG  1  31   1
M  END
$$$$
