
     RDKit          3D

 34 37  0  0  0  0  0  0  0  0999 V2000
   68.8147   -4.5779  149.0552 C   0  0  0  0  0  0  0  0  0  0  0  0
   68.2349   -3.3214  149.1915 C   0  0  0  0  0  0  0  0  0  0  0  0
   68.4366   -2.7019  150.3953 C   0  0  0  0  0  0  0  0  0  0  0  0
   67.9538   -1.4342  147.5373 C   0  0  0  0  0  0  0  0  0  0  0  0
   69.2615   -1.1552  147.2315 C   0  0  0  0  0  0  0  0  0  0  0  0
   66.9990   -0.4425  147.3378 C   0  0  0  0  0  0  0  0  0  0  0  0
   66.4703   -3.3100  147.4690 C   0  0  0  0  0  0  0  0  0  0  0  0
   65.8538   -4.5397  148.0292 C   0  0  0  0  0  0  0  0  0  0  0  0
   66.2508   -5.8077  147.3755 C   0  0  0  0  0  0  0  0  0  0  0  0
   65.5345   -7.0456  147.8297 C   0  0  0  0  0  0  0  0  0  0  0  0
   65.8485   -2.7413  146.2523 C   0  0  0  0  0  0  0  0  0  0  0  0
   64.6201   -2.1211  146.2542 C   0  0  0  0  0  0  0  0  0  0  0  0
   64.1039   -1.6123  145.0910 C   0  0  0  0  0  0  0  0  0  0  0  0
   64.8011   -1.7118  143.9073 C   0  0  0  0  0  0  0  0  0  0  0  0
   66.5436   -2.8371  145.0547 C   0  0  0  0  0  0  0  0  0  0  0  0
   71.9227   -7.8298  155.6087 C   0  0  0  0  0  0  0  0  0  0  0  0
   70.8460   -6.8650  155.9986 C   0  0  2  0  0  0  0  0  0  0  0  0
   69.6132   -7.5928  156.5266 C   0  0  0  0  0  0  0  0  0  0  0  0
   69.9559   -6.8476  153.8330 C   0  0  0  0  0  0  0  0  0  0  0  0
   70.7125   -6.4628  152.5533 C   0  0  0  0  0  0  0  0  0  0  0  0
   70.9568   -4.1793  153.4280 C   0  0  0  0  0  0  0  0  0  0  0  0
   71.4547   -5.0833  154.5349 C   0  0  0  0  0  0  0  0  0  0  0  0
   69.7246   -4.5048  151.2749 C   0  0  0  0  0  0  0  0  0  0  0  0
   69.5525   -5.1592  150.0928 C   0  0  0  0  0  0  0  0  0  0  0  0
   69.1589   -3.2590  151.4261 C   0  0  0  0  0  0  0  0  0  0  0  0
   67.4888   -2.7389  148.0655 C   0  0  0  0  0  0  0  0  0  0  0  0
   69.6425    0.0871  146.7316 C   0  0  0  0  0  0  0  0  0  0  0  0
   68.6982    1.0638  146.5357 C   0  0  0  0  0  0  0  0  0  0  0  0
   67.3732    0.8001  146.8391 C   0  0  0  0  0  0  0  0  0  0  0  0
   66.0311   -2.3281  143.8823 C   0  0  0  0  0  0  0  0  0  0  0  0
   70.4040   -6.0212  154.9084 N   0  0  2  0  0  4  0  0  0  0  0  0
   70.4337   -5.0447  152.3714 N   0  0  0  0  0  0  0  0  0  0  0  0
   70.9633    0.3268  146.4370 O   0  0  0  0  0  0  0  0  0  0  0  0
   65.6140   -8.0535  146.8420 O   0  0  0  0  0  0  0  0  0  0  0  0
  1  2  2  0
 24  1  1  0
  3  2  1  0
  2 26  1  0
 25  3  2  0
  4  5  2  0
  4  6  1  0
 26  4  1  0
  5 27  1  0
  6 29  2  0
  7  8  1  0
  7 11  1  0
 26  7  2  0
  8  9  1  0
  9 10  1  0
 10 34  1  0
 11 12  2  0
 11 15  1  0
 12 13  1  0
 13 14  2  0
 30 14  1  0
 15 30  2  0
 17 16  1  6
 17 18  1  0
 31 17  1  0
 20 19  1  0
 31 19  1  6
 32 20  1  0
 21 22  1  0
 32 21  1  0
 22 31  1  0
 23 24  2  0
 23 25  1  0
 23 32  1  0
 27 28  2  0
 27 33  1  0
 28 29  1  0
M  CHG  1  31   1
M  END
$$$$
