
     RDKit          3D

 34 37  0  0  0  0  0  0  0  0999 V2000
   69.0153   -4.3998  148.7198 C   0  0  0  0  0  0  0  0  0  0  0  0
   68.5677   -3.0871  148.8191 C   0  0  0  0  0  0  0  0  0  0  0  0
   68.8895   -2.4362  149.9795 C   0  0  0  0  0  0  0  0  0  0  0  0
   68.2652   -1.1524  147.2247 C   0  0  0  0  0  0  0  0  0  0  0  0
   69.5731   -0.8229  146.9749 C   0  0  0  0  0  0  0  0  0  0  0  0
   67.2857   -0.1871  147.0160 C   0  0  0  0  0  0  0  0  0  0  0  0
   66.8314   -3.0612  147.0683 C   0  0  0  0  0  0  0  0  0  0  0  0
   66.3146   -2.4994  145.7941 C   0  0  0  0  0  0  0  0  0  0  0  0
   64.8613   -2.2173  145.7636 C   0  0  0  0  0  0  0  0  0  0  0  0
   64.3376   -1.5451  144.5285 C   0  0  0  0  0  0  0  0  0  0  0  0
   66.2119   -4.3164  147.5491 C   0  0  0  0  0  0  0  0  0  0  0  0
   65.5974   -4.4311  148.7751 C   0  0  0  0  0  0  0  0  0  0  0  0
   65.0396   -5.6235  149.1568 C   0  0  0  0  0  0  0  0  0  0  0  0
   65.0839   -6.7208  148.3254 C   0  0  0  0  0  0  0  0  0  0  0  0
   66.2518   -5.4276  146.7183 C   0  0  0  0  0  0  0  0  0  0  0  0
   71.9987   -7.8876  155.1258 C   0  0  0  0  0  0  0  0  0  0  0  0
   71.1577   -6.7361  155.5828 C   0  0  2  0  0  0  0  0  0  0  0  0
   69.9039   -7.2175  156.3071 C   0  0  0  0  0  0  0  0  0  0  0  0
   70.2617   -6.6886  153.4200 C   0  0  0  0  0  0  0  0  0  0  0  0
   71.0175   -6.2948  152.1425 C   0  0  0  0  0  0  0  0  0  0  0  0
   71.2802   -4.0229  153.0417 C   0  0  0  0  0  0  0  0  0  0  0  0
   71.7748   -4.9426  154.1371 C   0  0  0  0  0  0  0  0  0  0  0  0
   70.0398   -4.3160  150.8885 C   0  0  0  0  0  0  0  0  0  0  0  0
   69.7452   -5.0034  149.7502 C   0  0  0  0  0  0  0  0  0  0  0  0
   69.6059   -3.0146  151.0027 C   0  0  0  0  0  0  0  0  0  0  0  0
   67.8252   -2.4855  147.7008 C   0  0  0  0  0  0  0  0  0  0  0  0
   69.9302    0.4443  146.5223 C   0  0  0  0  0  0  0  0  0  0  0  0
   68.9616    1.3950  146.3172 C   0  0  0  0  0  0  0  0  0  0  0  0
   67.6360    1.0803  146.5643 C   0  0  0  0  0  0  0  0  0  0  0  0
   65.6935   -6.6286  147.0953 C   0  0  0  0  0  0  0  0  0  0  0  0
   70.7186   -5.8773  154.5032 N   0  0  2  0  0  4  0  0  0  0  0  0
   70.7481   -4.8729  151.9771 N   0  0  0  0  0  0  0  0  0  0  0  0
   71.2521    0.7347  146.2832 O   0  0  0  0  0  0  0  0  0  0  0  0
   64.8191   -2.1953  143.3696 O   0  0  0  0  0  0  0  0  0  0  0  0
  1  2  2  0
 24  1  1  0
  3  2  1  0
  2 26  1  0
 25  3  2  0
  4  5  2  0
  4  6  1  0
 26  4  1  0
  5 27  1  0
  6 29  2  0
  7  8  1  0
  7 11  1  0
 26  7  2  0
  8  9  1  0
  9 10  1  0
 10 34  1  0
 11 12  2  0
 11 15  1  0
 12 13  1  0
 13 14  2  0
 30 14  1  0
 15 30  2  0
 17 16  1  6
 17 18  1  0
 31 17  1  0
 20 19  1  0
 31 19  1  6
 32 20  1  0
 21 22  1  0
 32 21  1  0
 22 31  1  0
 23 24  2  0
 23 25  1  0
 23 32  1  0
 27 28  2  0
 27 33  1  0
 28 29  1  0
M  CHG  1  31   1
M  END
$$$$
