
     RDKit          3D

 34 37  0  0  0  0  0  0  0  0999 V2000
   68.8358   -4.8586  149.0195 C   0  0  0  0  0  0  0  0  0  0  0  0
   68.4425   -3.5271  149.0953 C   0  0  0  0  0  0  0  0  0  0  0  0
   68.8028   -2.8657  150.2383 C   0  0  0  0  0  0  0  0  0  0  0  0
   68.3223   -1.7367  147.3185 C   0  0  0  0  0  0  0  0  0  0  0  0
   67.6844   -0.5314  147.1700 C   0  0  0  0  0  0  0  0  0  0  0  0
   69.6205   -1.8649  146.8360 C   0  0  0  0  0  0  0  0  0  0  0  0
   66.5850   -3.3736  147.4807 C   0  0  0  0  0  0  0  0  0  0  0  0
   65.8617   -4.4884  148.1442 C   0  0  0  0  0  0  0  0  0  0  0  0
   65.9737   -5.8071  147.4801 C   0  0  0  0  0  0  0  0  0  0  0  0
   64.9220   -6.8201  147.8257 C   0  0  0  0  0  0  0  0  0  0  0  0
   65.9471   -2.7754  146.2866 C   0  0  0  0  0  0  0  0  0  0  0  0
   66.4745   -2.8793  145.0198 C   0  0  0  0  0  0  0  0  0  0  0  0
   65.8293   -2.3040  143.9562 C   0  0  0  0  0  0  0  0  0  0  0  0
   64.6493   -1.6164  144.1353 C   0  0  0  0  0  0  0  0  0  0  0  0
   64.7579   -2.0804  146.4574 C   0  0  0  0  0  0  0  0  0  0  0  0
   71.7222   -6.1618  157.0660 C   0  0  0  0  0  0  0  0  0  0  0  0
   70.9800   -6.9166  156.0070 C   0  0  2  0  0  0  0  0  0  0  0  0
   71.8165   -8.0681  155.4568 C   0  0  0  0  0  0  0  0  0  0  0  0
   69.9432   -6.9203  153.9077 C   0  0  0  0  0  0  0  0  0  0  0  0
   70.6521   -6.7599  152.5548 C   0  0  0  0  0  0  0  0  0  0  0  0
   71.3123   -4.4857  153.2117 C   0  0  0  0  0  0  0  0  0  0  0  0
   71.7458   -5.3716  154.3595 C   0  0  0  0  0  0  0  0  0  0  0  0
   69.8864   -4.7711  151.1756 C   0  0  0  0  0  0  0  0  0  0  0  0
   69.5520   -5.4696  150.0552 C   0  0  0  0  0  0  0  0  0  0  0  0
   69.5065   -3.4510  151.2664 C   0  0  0  0  0  0  0  0  0  0  0  0
   67.7126   -2.9194  147.9720 C   0  0  0  0  0  0  0  0  0  0  0  0
   68.3074    0.5499  146.5529 C   0  0  0  0  0  0  0  0  0  0  0  0
   69.5886    0.4207  146.0777 C   0  0  0  0  0  0  0  0  0  0  0  0
   70.2480   -0.7887  146.2186 C   0  0  0  0  0  0  0  0  0  0  0  0
   64.1043   -1.5000  145.3933 C   0  0  0  0  0  0  0  0  0  0  0  0
   70.5935   -6.0977  154.8775 N   0  0  2  0  0  4  0  0  0  0  0  0
   70.5836   -5.3333  152.2686 N   0  0  0  0  0  0  0  0  0  0  0  0
   67.6341    1.7412  146.4242 O   0  0  0  0  0  0  0  0  0  0  0  0
   63.9757   -6.9266  146.7813 O   0  0  0  0  0  0  0  0  0  0  0  0
  1  2  2  0
 24  1  1  0
  3  2  1  0
  2 26  1  0
 25  3  2  0
  4  5  2  0
  4  6  1  0
 26  4  1  0
  5 27  1  0
  6 29  2  0
  7  8  1  0
  7 11  1  0
 26  7  2  0
  8  9  1  0
  9 10  1  0
 10 34  1  0
 11 12  2  0
 11 15  1  0
 12 13  1  0
 13 14  2  0
 30 14  1  0
 15 30  2  0
 17 16  1  1
 17 18  1  0
 31 17  1  0
 20 19  1  0
 31 19  1  6
 32 20  1  0
 21 22  1  0
 32 21  1  0
 22 31  1  0
 23 24  2  0
 23 25  1  0
 23 32  1  0
 27 28  2  0
 27 33  1  0
 28 29  1  0
M  CHG  1  31   1
M  END
$$$$
