
     RDKit          3D

 34 37  0  0  0  0  0  0  0  0999 V2000
   68.1453   -2.6683  150.0171 C   0  0  0  0  0  0  0  0  0  0  0  0
   68.1960   -3.3657  148.8152 C   0  0  0  0  0  0  0  0  0  0  0  0
   68.9154   -4.5301  148.8343 C   0  0  0  0  0  0  0  0  0  0  0  0
   67.9049   -1.5333  147.1021 C   0  0  0  0  0  0  0  0  0  0  0  0
   69.2127   -1.1936  146.8655 C   0  0  0  0  0  0  0  0  0  0  0  0
   66.9141   -0.5999  146.8161 C   0  0  0  0  0  0  0  0  0  0  0  0
   66.5144   -3.4783  147.0150 C   0  0  0  0  0  0  0  0  0  0  0  0
   65.9701   -2.9563  145.7355 C   0  0  0  0  0  0  0  0  0  0  0  0
   64.4966   -2.8229  145.6756 C   0  0  0  0  0  0  0  0  0  0  0  0
   63.9375   -2.1314  144.4668 C   0  0  0  0  0  0  0  0  0  0  0  0
   65.9604   -4.7591  147.5079 C   0  0  0  0  0  0  0  0  0  0  0  0
   65.0770   -4.8421  148.5598 C   0  0  0  0  0  0  0  0  0  0  0  0
   64.5992   -6.0618  148.9630 C   0  0  0  0  0  0  0  0  0  0  0  0
   64.9920   -7.2184  148.3266 C   0  0  0  0  0  0  0  0  0  0  0  0
   66.3507   -5.9300  146.8729 C   0  0  0  0  0  0  0  0  0  0  0  0
   69.9864   -8.4988  155.7111 C   0  0  0  0  0  0  0  0  0  0  0  0
   70.7976   -7.2663  155.4561 C   0  0  2  0  0  0  0  0  0  0  0  0
   70.9839   -6.4506  156.7322 C   0  0  0  0  0  0  0  0  0  0  0  0
   70.3017   -6.9945  153.1839 C   0  0  0  0  0  0  0  0  0  0  0  0
   71.0100   -6.0334  152.2181 C   0  0  0  0  0  0  0  0  0  0  0  0
   70.1670   -4.1413  153.5404 C   0  0  0  0  0  0  0  0  0  0  0  0
   70.8263   -5.0633  154.5431 C   0  0  0  0  0  0  0  0  0  0  0  0
   69.5020   -4.3031  151.1337 C   0  0  0  0  0  0  0  0  0  0  0  0
   68.7956   -3.1390  151.1636 C   0  0  0  0  0  0  0  0  0  0  0  0
   69.5611   -5.0073  149.9523 C   0  0  0  0  0  0  0  0  0  0  0  0
   67.4767   -2.8458  147.6421 C   0  0  0  0  0  0  0  0  0  0  0  0
   69.5586    0.0528  146.3508 C   0  0  0  0  0  0  0  0  0  0  0  0
   68.5788    0.9720  146.0693 C   0  0  0  0  0  0  0  0  0  0  0  0
   67.2533    0.6466  146.3021 C   0  0  0  0  0  0  0  0  0  0  0  0
   65.8746   -7.1587  147.2726 C   0  0  0  0  0  0  0  0  0  0  0  0
   70.2110   -6.3822  154.4712 N   0  0  2  0  0  4  0  0  0  0  0  0
   70.2036   -4.8207  152.2457 N   0  0  0  0  0  0  0  0  0  0  0  0
   70.8807    0.3543  146.1272 O   0  0  0  0  0  0  0  0  0  0  0  0
   64.3725   -2.7727  143.2848 O   0  0  0  0  0  0  0  0  0  0  0  0
  1  2  2  0
 24  1  1  0
  3  2  1  0
  2 26  1  0
 25  3  2  0
  4  5  2  0
  4  6  1  0
 26  4  1  0
  5 27  1  0
  6 29  2  0
  7  8  1  0
  7 11  1  0
 26  7  2  0
  8  9  1  0
  9 10  1  0
 10 34  1  0
 11 12  2  0
 11 15  1  0
 12 13  1  0
 13 14  2  0
 30 14  1  0
 15 30  2  0
 17 16  1  1
 17 18  1  0
 31 17  1  0
 20 19  1  0
 31 19  1  6
 32 20  1  0
 21 22  1  0
 32 21  1  0
 22 31  1  0
 23 24  2  0
 23 25  1  0
 23 32  1  0
 27 28  2  0
 27 33  1  0
 28 29  1  0
M  CHG  1  31   1
M  END
$$$$
