
     RDKit          3D

 34 37  0  0  0  0  0  0  0  0999 V2000
   69.3116   -4.4792  148.8596 C   0  0  0  0  0  0  0  0  0  0  0  0
   68.4333   -3.4029  148.9195 C   0  0  0  0  0  0  0  0  0  0  0  0
   68.1952   -2.8998  150.1701 C   0  0  0  0  0  0  0  0  0  0  0  0
   68.5105   -1.6877  147.0677 C   0  0  0  0  0  0  0  0  0  0  0  0
   67.9078   -0.4633  146.9287 C   0  0  0  0  0  0  0  0  0  0  0  0
   69.8179   -1.8391  146.6178 C   0  0  0  0  0  0  0  0  0  0  0  0
   66.8242   -3.3848  147.0510 C   0  0  0  0  0  0  0  0  0  0  0  0
   66.2613   -2.7269  145.8441 C   0  0  0  0  0  0  0  0  0  0  0  0
   65.0845   -1.8597  146.0800 C   0  0  0  0  0  0  0  0  0  0  0  0
   64.0206   -1.8758  145.0219 C   0  0  0  0  0  0  0  0  0  0  0  0
   66.2071   -4.6636  147.4684 C   0  0  0  0  0  0  0  0  0  0  0  0
   64.8913   -4.7733  147.8562 C   0  0  0  0  0  0  0  0  0  0  0  0
   64.3822   -5.9905  148.2274 C   0  0  0  0  0  0  0  0  0  0  0  0
   65.1733   -7.1180  148.2189 C   0  0  0  0  0  0  0  0  0  0  0  0
   66.9967   -5.8052  147.4633 C   0  0  0  0  0  0  0  0  0  0  0  0
   69.9896   -7.1671  156.9721 C   0  0  0  0  0  0  0  0  0  0  0  0
   70.4800   -7.5304  155.6048 C   0  0  2  0  0  0  0  0  0  0  0  0
   72.0032   -7.4785  155.5294 C   0  0  0  0  0  0  0  0  0  0  0  0
   70.3917   -7.1717  153.2926 C   0  0  0  0  0  0  0  0  0  0  0  0
   71.1322   -6.0664  152.5256 C   0  0  0  0  0  0  0  0  0  0  0  0
   69.8027   -4.3887  153.7328 C   0  0  0  0  0  0  0  0  0  0  0  0
   70.3797   -5.2852  154.8068 C   0  0  0  0  0  0  0  0  0  0  0  0
   69.6350   -4.4715  151.2377 C   0  0  0  0  0  0  0  0  0  0  0  0
   69.9042   -5.0045  150.0136 C   0  0  0  0  0  0  0  0  0  0  0  0
   68.7690   -3.4041  151.3150 C   0  0  0  0  0  0  0  0  0  0  0  0
   67.8531   -2.8679  147.6781 C   0  0  0  0  0  0  0  0  0  0  0  0
   68.5748    0.6145  146.3527 C   0  0  0  0  0  0  0  0  0  0  0  0
   69.8650    0.4622  145.9097 C   0  0  0  0  0  0  0  0  0  0  0  0
   70.4893   -0.7666  146.0416 C   0  0  0  0  0  0  0  0  0  0  0  0
   66.4918   -7.0311  147.8350 C   0  0  0  0  0  0  0  0  0  0  0  0
   69.9755   -6.6634  154.5609 N   0  0  2  0  0  4  0  0  0  0  0  0
   70.1769   -4.9697  152.4438 N   0  0  0  0  0  0  0  0  0  0  0  0
   67.9358    1.8253  146.2322 O   0  0  0  0  0  0  0  0  0  0  0  0
   64.5584   -2.3019  143.7862 O   0  0  0  0  0  0  0  0  0  0  0  0
  1  2  2  0
 24  1  1  0
  3  2  1  0
  2 26  1  0
 25  3  2  0
  4  5  2  0
  4  6  1  0
 26  4  1  0
  5 27  1  0
  6 29  2  0
  7  8  1  0
  7 11  1  0
 26  7  2  0
  8  9  1  0
  9 10  1  0
 10 34  1  0
 11 12  2  0
 11 15  1  0
 12 13  1  0
 13 14  2  0
 30 14  1  0
 15 30  2  0
 17 16  1  1
 17 18  1  0
 31 17  1  0
 20 19  1  0
 31 19  1  6
 32 20  1  0
 21 22  1  0
 32 21  1  0
 22 31  1  0
 23 24  2  0
 23 25  1  0
 23 32  1  0
 27 28  2  0
 27 33  1  0
 28 29  1  0
M  CHG  1  31   1
M  END
$$$$
