
     RDKit          3D

 34 37  0  0  0  0  0  0  0  0999 V2000
   69.2502   -3.9165  149.0694 C   0  0  0  0  0  0  0  0  0  0  0  0
   67.9816   -3.3523  149.1455 C   0  0  0  0  0  0  0  0  0  0  0  0
   67.3183   -3.5402  150.3280 C   0  0  0  0  0  0  0  0  0  0  0  0
   68.2469   -1.4285  147.5314 C   0  0  0  0  0  0  0  0  0  0  0  0
   67.8332   -0.1253  147.6419 C   0  0  0  0  0  0  0  0  0  0  0  0
   69.4837   -1.6855  146.9491 C   0  0  0  0  0  0  0  0  0  0  0  0
   66.3605   -2.8883  147.3463 C   0  0  0  0  0  0  0  0  0  0  0  0
   65.8059   -1.9569  146.3308 C   0  0  0  0  0  0  0  0  0  0  0  0
   66.1848   -2.2423  144.9282 C   0  0  0  0  0  0  0  0  0  0  0  0
   65.5337   -1.3944  143.8751 C   0  0  0  0  0  0  0  0  0  0  0  0
   65.6541   -4.1752  147.5341 C   0  0  0  0  0  0  0  0  0  0  0  0
   66.2115   -5.3931  147.2180 C   0  0  0  0  0  0  0  0  0  0  0  0
   65.5025   -6.5483  147.4213 C   0  0  0  0  0  0  0  0  0  0  0  0
   64.2280   -6.5110  147.9422 C   0  0  0  0  0  0  0  0  0  0  0  0
   64.3692   -4.1476  148.0583 C   0  0  0  0  0  0  0  0  0  0  0  0
   71.7321   -7.4905  156.1071 C   0  0  0  0  0  0  0  0  0  0  0  0
   71.4389   -6.0257  156.0048 C   0  0  2  0  0  0  0  0  0  0  0  0
   70.2782   -5.6274  156.9119 C   0  0  0  0  0  0  0  0  0  0  0  0
   69.8191   -4.9554  154.6960 C   0  0  0  0  0  0  0  0  0  0  0  0
   68.8876   -5.6373  153.6831 C   0  0  0  0  0  0  0  0  0  0  0  0
   70.8533   -6.2430  152.3383 C   0  0  0  0  0  0  0  0  0  0  0  0
   71.1690   -6.7202  153.7393 C   0  0  0  0  0  0  0  0  0  0  0  0
   69.0993   -4.7928  151.2986 C   0  0  0  0  0  0  0  0  0  0  0  0
   69.7987   -4.6300  150.1413 C   0  0  0  0  0  0  0  0  0  0  0  0
   67.8424   -4.2391  151.3918 C   0  0  0  0  0  0  0  0  0  0  0  0
   67.4553   -2.5897  148.0030 C   0  0  0  0  0  0  0  0  0  0  0  0
   68.6207    0.9288  147.1871 C   0  0  0  0  0  0  0  0  0  0  0  0
   69.8408    0.6723  146.6130 C   0  0  0  0  0  0  0  0  0  0  0  0
   70.2746   -0.6371  146.4928 C   0  0  0  0  0  0  0  0  0  0  0  0
   63.6512   -5.3042  148.2651 C   0  0  0  0  0  0  0  0  0  0  0  0
   71.0946   -5.5977  154.6654 N   0  0  2  0  0  4  0  0  0  0  0  0
   69.5819   -5.5234  152.4077 N   0  0  0  0  0  0  0  0  0  0  0  0
   68.1704    2.2208  147.3170 O   0  0  0  0  0  0  0  0  0  0  0  0
   64.4113   -0.7201  144.4072 O   0  0  0  0  0  0  0  0  0  0  0  0
  1  2  2  0
 24  1  1  0
  3  2  1  0
  2 26  1  0
 25  3  2  0
  4  5  2  0
  4  6  1  0
 26  4  1  0
  5 27  1  0
  6 29  2  0
  7  8  1  0
  7 11  1  0
 26  7  2  0
  8  9  1  0
  9 10  1  0
 10 34  1  0
 11 12  2  0
 11 15  1  0
 12 13  1  0
 13 14  2  0
 30 14  1  0
 15 30  2  0
 17 16  1  6
 17 18  1  0
 31 17  1  0
 20 19  1  0
 31 19  1  1
 32 20  1  0
 21 22  1  0
 32 21  1  0
 22 31  1  0
 23 24  2  0
 23 25  1  0
 23 32  1  0
 27 28  2  0
 27 33  1  0
 28 29  1  0
M  CHG  1  31   1
M  END
$$$$
