
     RDKit          3D

 34 37  0  0  0  0  0  0  0  0999 V2000
   68.3897   -2.6734  150.3228 C   0  0  0  0  0  0  0  0  0  0  0  0
   68.5210   -3.3626  149.1223 C   0  0  0  0  0  0  0  0  0  0  0  0
   69.2585   -4.5144  149.1765 C   0  0  0  0  0  0  0  0  0  0  0  0
   68.2231   -1.4832  147.4621 C   0  0  0  0  0  0  0  0  0  0  0  0
   69.5137   -1.0541  147.2842 C   0  0  0  0  0  0  0  0  0  0  0  0
   67.1858   -0.5940  147.2012 C   0  0  0  0  0  0  0  0  0  0  0  0
   67.0081   -3.5251  147.1817 C   0  0  0  0  0  0  0  0  0  0  0  0
   66.6321   -4.9153  147.5451 C   0  0  0  0  0  0  0  0  0  0  0  0
   65.1929   -5.2406  147.4211 C   0  0  0  0  0  0  0  0  0  0  0  0
   64.6922   -6.3825  148.2561 C   0  0  0  0  0  0  0  0  0  0  0  0
   66.3378   -2.9345  146.0018 C   0  0  0  0  0  0  0  0  0  0  0  0
   66.9376   -2.8335  144.7674 C   0  0  0  0  0  0  0  0  0  0  0  0
   66.2575   -2.2786  143.7147 C   0  0  0  0  0  0  0  0  0  0  0  0
   64.9700   -1.8153  143.8727 C   0  0  0  0  0  0  0  0  0  0  0  0
   65.0402   -2.4647  146.1514 C   0  0  0  0  0  0  0  0  0  0  0  0
   71.2734   -6.3759  157.1797 C   0  0  0  0  0  0  0  0  0  0  0  0
   70.7150   -7.1094  155.9998 C   0  0  2  0  0  0  0  0  0  0  0  0
   71.7673   -8.0077  155.3560 C   0  0  0  0  0  0  0  0  0  0  0  0
   70.2634   -6.9228  153.7099 C   0  0  0  0  0  0  0  0  0  0  0  0
   71.0580   -6.0783  152.7030 C   0  0  0  0  0  0  0  0  0  0  0  0
   70.3644   -4.0530  153.9098 C   0  0  0  0  0  0  0  0  0  0  0  0
   70.9356   -4.9699  154.9695 C   0  0  0  0  0  0  0  0  0  0  0  0
   69.7093   -4.2911  151.5068 C   0  0  0  0  0  0  0  0  0  0  0  0
   68.9818   -3.1396  151.5021 C   0  0  0  0  0  0  0  0  0  0  0  0
   69.8478   -4.9871  150.3271 C   0  0  0  0  0  0  0  0  0  0  0  0
   67.8606   -2.8482  147.9127 C   0  0  0  0  0  0  0  0  0  0  0  0
   69.7974    0.2387  146.8525 C   0  0  0  0  0  0  0  0  0  0  0  0
   68.7719    1.1141  146.5957 C   0  0  0  0  0  0  0  0  0  0  0  0
   67.4626    0.6985  146.7701 C   0  0  0  0  0  0  0  0  0  0  0  0
   64.3511   -1.9061  145.0983 C   0  0  0  0  0  0  0  0  0  0  0  0
   70.2129   -6.2352  154.9609 N   0  0  2  0  0  4  0  0  0  0  0  0
   70.3554   -4.8032  152.6544 N   0  0  0  0  0  0  0  0  0  0  0  0
   71.1044    0.6297  146.6859 O   0  0  0  0  0  0  0  0  0  0  0  0
   65.6144   -7.4532  148.2336 O   0  0  0  0  0  0  0  0  0  0  0  0
  1  2  2  0
 24  1  1  0
  3  2  1  0
  2 26  1  0
 25  3  2  0
  4  5  2  0
  4  6  1  0
 26  4  1  0
  5 27  1  0
  6 29  2  0
  7  8  1  0
  7 11  1  0
 26  7  2  0
  8  9  1  0
  9 10  1  0
 10 34  1  0
 11 12  2  0
 11 15  1  0
 12 13  1  0
 13 14  2  0
 30 14  1  0
 15 30  2  0
 17 16  1  1
 17 18  1  0
 31 17  1  0
 20 19  1  0
 31 19  1  6
 32 20  1  0
 21 22  1  0
 32 21  1  0
 22 31  1  0
 23 24  2  0
 23 25  1  0
 23 32  1  0
 27 28  2  0
 27 33  1  0
 28 29  1  0
M  CHG  1  31   1
M  END
$$$$
