
     RDKit          3D

 34 37  0  0  0  0  0  0  0  0999 V2000
   68.8128   -4.7949  148.9633 C   0  0  0  0  0  0  0  0  0  0  0  0
   68.0153   -3.6573  149.0217 C   0  0  0  0  0  0  0  0  0  0  0  0
   67.7658   -3.1708  150.2766 C   0  0  0  0  0  0  0  0  0  0  0  0
   68.0319   -1.6979  147.4287 C   0  0  0  0  0  0  0  0  0  0  0  0
   69.3628   -1.3858  147.3151 C   0  0  0  0  0  0  0  0  0  0  0  0
   67.0933   -0.6970  147.2010 C   0  0  0  0  0  0  0  0  0  0  0  0
   66.7099   -3.6286  146.9298 C   0  0  0  0  0  0  0  0  0  0  0  0
   66.2552   -5.0252  147.1504 C   0  0  0  0  0  0  0  0  0  0  0  0
   65.1770   -5.1951  148.1510 C   0  0  0  0  0  0  0  0  0  0  0  0
   64.6697   -6.5926  148.3549 C   0  0  0  0  0  0  0  0  0  0  0  0
   66.1575   -2.9202  145.7535 C   0  0  0  0  0  0  0  0  0  0  0  0
   66.8963   -2.6434  144.6260 C   0  0  0  0  0  0  0  0  0  0  0  0
   66.3206   -1.9867  143.5697 C   0  0  0  0  0  0  0  0  0  0  0  0
   65.0010   -1.5948  143.6177 C   0  0  0  0  0  0  0  0  0  0  0  0
   64.8286   -2.5212  145.7928 C   0  0  0  0  0  0  0  0  0  0  0  0
   71.8206   -7.3180  156.2545 C   0  0  0  0  0  0  0  0  0  0  0  0
   72.0433   -5.9415  155.7090 C   0  0  2  0  0  0  0  0  0  0  0  0
   71.4218   -4.8795  156.6116 C   0  0  0  0  0  0  0  0  0  0  0  0
   70.7291   -4.5387  154.3719 C   0  0  0  0  0  0  0  0  0  0  0  0
   69.3081   -4.8429  153.8754 C   0  0  0  0  0  0  0  0  0  0  0  0
   70.2055   -6.7225  152.5712 C   0  0  0  0  0  0  0  0  0  0  0  0
   70.7351   -6.9249  153.9744 C   0  0  0  0  0  0  0  0  0  0  0  0
   69.0412   -4.8742  151.3512 C   0  0  0  0  0  0  0  0  0  0  0  0
   69.3185   -5.3936  150.1230 C   0  0  0  0  0  0  0  0  0  0  0  0
   68.2546   -3.7470  151.4271 C   0  0  0  0  0  0  0  0  0  0  0  0
   67.5262   -3.0476  147.7755 C   0  0  0  0  0  0  0  0  0  0  0  0
   69.7826   -0.1014  146.9802 C   0  0  0  0  0  0  0  0  0  0  0  0
   68.8542    0.8845  146.7560 C   0  0  0  0  0  0  0  0  0  0  0  0
   67.5063    0.5877  146.8664 C   0  0  0  0  0  0  0  0  0  0  0  0
   64.2438   -1.8611  144.7353 C   0  0  0  0  0  0  0  0  0  0  0  0
   71.4893   -5.7479  154.3856 N   0  0  2  0  0  4  0  0  0  0  0  0
   69.4963   -5.4435  152.5617 N   0  0  0  0  0  0  0  0  0  0  0  0
   71.1257    0.1707  146.8757 O   0  0  0  0  0  0  0  0  0  0  0  0
   64.1292   -7.1029  147.1529 O   0  0  0  0  0  0  0  0  0  0  0  0
  1  2  2  0
 24  1  1  0
  3  2  1  0
  2 26  1  0
 25  3  2  0
  4  5  2  0
  4  6  1  0
 26  4  1  0
  5 27  1  0
  6 29  2  0
  7  8  1  0
  7 11  1  0
 26  7  2  0
  8  9  1  0
  9 10  1  0
 10 34  1  0
 11 12  2  0
 11 15  1  0
 12 13  1  0
 13 14  2  0
 30 14  1  0
 15 30  2  0
 17 16  1  1
 17 18  1  0
 31 17  1  0
 20 19  1  0
 31 19  1  1
 32 20  1  0
 21 22  1  0
 32 21  1  0
 22 31  1  0
 23 24  2  0
 23 25  1  0
 23 32  1  0
 27 28  2  0
 27 33  1  0
 28 29  1  0
M  CHG  1  31   1
M  END
$$$$
