
     RDKit          3D

 34 37  0  0  0  0  0  0  0  0999 V2000
   68.6299   -2.9072  150.1960 C   0  0  0  0  0  0  0  0  0  0  0  0
   68.5789   -3.6984  149.0537 C   0  0  0  0  0  0  0  0  0  0  0  0
   69.1912   -4.9190  149.1490 C   0  0  0  0  0  0  0  0  0  0  0  0
   68.3838   -1.9736  147.2197 C   0  0  0  0  0  0  0  0  0  0  0  0
   67.6691   -0.8064  147.1280 C   0  0  0  0  0  0  0  0  0  0  0  0
   69.6686   -2.0091  146.6878 C   0  0  0  0  0  0  0  0  0  0  0  0
   66.8489   -3.8070  147.2999 C   0  0  0  0  0  0  0  0  0  0  0  0
   66.2614   -5.0310  147.9022 C   0  0  0  0  0  0  0  0  0  0  0  0
   64.9647   -4.8439  148.5923 C   0  0  0  0  0  0  0  0  0  0  0  0
   64.3350   -6.0749  149.1753 C   0  0  0  0  0  0  0  0  0  0  0  0
   66.1940   -3.2763  146.0834 C   0  0  0  0  0  0  0  0  0  0  0  0
   66.5628   -3.6424  144.8092 C   0  0  0  0  0  0  0  0  0  0  0  0
   65.9106   -3.1148  143.7253 C   0  0  0  0  0  0  0  0  0  0  0  0
   64.8812   -2.2148  143.8911 C   0  0  0  0  0  0  0  0  0  0  0  0
   65.1557   -2.3685  146.2406 C   0  0  0  0  0  0  0  0  0  0  0  0
   71.4525   -8.5154  155.5212 C   0  0  0  0  0  0  0  0  0  0  0  0
   70.9856   -7.1756  155.9999 C   0  0  2  0  0  0  0  0  0  0  0  0
   69.8725   -7.3129  157.0345 C   0  0  0  0  0  0  0  0  0  0  0  0
   70.3818   -7.0944  153.7391 C   0  0  0  0  0  0  0  0  0  0  0  0
   71.1623   -6.3811  152.6254 C   0  0  0  0  0  0  0  0  0  0  0  0
   70.7171   -4.2355  153.7379 C   0  0  0  0  0  0  0  0  0  0  0  0
   71.2930   -5.1288  154.8152 C   0  0  0  0  0  0  0  0  0  0  0  0
   69.8700   -4.5673  151.4071 C   0  0  0  0  0  0  0  0  0  0  0  0
   69.2721   -3.3444  151.3602 C   0  0  0  0  0  0  0  0  0  0  0  0
   69.8273   -5.3644  150.2855 C   0  0  0  0  0  0  0  0  0  0  0  0
   67.8716   -3.2082  147.8607 C   0  0  0  0  0  0  0  0  0  0  0  0
   68.2020    0.3269  146.5199 C   0  0  0  0  0  0  0  0  0  0  0  0
   69.4701    0.2892  145.9960 C   0  0  0  0  0  0  0  0  0  0  0  0
   70.2062   -0.8806  146.0791 C   0  0  0  0  0  0  0  0  0  0  0  0
   64.4961   -1.8346  145.1562 C   0  0  0  0  0  0  0  0  0  0  0  0
   70.4767   -6.3292  154.9414 N   0  0  2  0  0  4  0  0  0  0  0  0
   70.5579   -5.0585  152.5394 N   0  0  0  0  0  0  0  0  0  0  0  0
   67.4536    1.4775  146.4490 O   0  0  0  0  0  0  0  0  0  0  0  0
   64.2738   -7.1042  148.2088 O   0  0  0  0  0  0  0  0  0  0  0  0
  1  2  2  0
 24  1  1  0
  3  2  1  0
  2 26  1  0
 25  3  2  0
  4  5  2  0
  4  6  1  0
 26  4  1  0
  5 27  1  0
  6 29  2  0
  7  8  1  0
  7 11  1  0
 26  7  2  0
  8  9  1  0
  9 10  1  0
 10 34  1  0
 11 12  2  0
 11 15  1  0
 12 13  1  0
 13 14  2  0
 30 14  1  0
 15 30  2  0
 17 16  1  6
 17 18  1  0
 31 17  1  0
 20 19  1  0
 31 19  1  6
 32 20  1  0
 21 22  1  0
 32 21  1  0
 22 31  1  0
 23 24  2  0
 23 25  1  0
 23 32  1  0
 27 28  2  0
 27 33  1  0
 28 29  1  0
M  CHG  1  31   1
M  END
$$$$
