
     RDKit          3D

 34 37  0  0  0  0  0  0  0  0999 V2000
   67.9362   -2.9164  150.4351 C   0  0  0  0  0  0  0  0  0  0  0  0
   68.0921   -3.5094  149.1872 C   0  0  0  0  0  0  0  0  0  0  0  0
   68.6830   -4.7441  149.1862 C   0  0  0  0  0  0  0  0  0  0  0  0
   68.2369   -1.5174  147.6420 C   0  0  0  0  0  0  0  0  0  0  0  0
   69.5909   -1.3345  147.5201 C   0  0  0  0  0  0  0  0  0  0  0  0
   67.3979   -0.4292  147.4262 C   0  0  0  0  0  0  0  0  0  0  0  0
   66.6854   -3.2777  147.1751 C   0  0  0  0  0  0  0  0  0  0  0  0
   66.2881   -2.5175  145.9625 C   0  0  0  0  0  0  0  0  0  0  0  0
   65.9637   -3.3373  144.7729 C   0  0  0  0  0  0  0  0  0  0  0  0
   65.4229   -2.6011  143.5822 C   0  0  0  0  0  0  0  0  0  0  0  0
   66.0378   -4.5916  147.3864 C   0  0  0  0  0  0  0  0  0  0  0  0
   66.4869   -5.7546  146.8037 C   0  0  0  0  0  0  0  0  0  0  0  0
   65.8418   -6.9395  147.0454 C   0  0  0  0  0  0  0  0  0  0  0  0
   64.7398   -6.9868  147.8705 C   0  0  0  0  0  0  0  0  0  0  0  0
   64.9265   -4.6491  148.2161 C   0  0  0  0  0  0  0  0  0  0  0  0
   71.1919   -6.4219  156.7471 C   0  0  0  0  0  0  0  0  0  0  0  0
   72.1368   -6.4349  155.5857 C   0  0  2  0  0  0  0  0  0  0  0  0
   73.2783   -5.4425  155.7878 C   0  0  0  0  0  0  0  0  0  0  0  0
   70.8979   -4.8162  154.4335 C   0  0  0  0  0  0  0  0  0  0  0  0
   69.4160   -4.9261  154.0459 C   0  0  0  0  0  0  0  0  0  0  0  0
   69.9769   -6.8188  152.5822 C   0  0  0  0  0  0  0  0  0  0  0  0
   70.5877   -7.1605  153.9240 C   0  0  0  0  0  0  0  0  0  0  0  0
   68.9487   -4.7821  151.5550 C   0  0  0  0  0  0  0  0  0  0  0  0
   68.3634   -3.5533  151.6059 C   0  0  0  0  0  0  0  0  0  0  0  0
   69.1092   -5.3845  150.3276 C   0  0  0  0  0  0  0  0  0  0  0  0
   67.6056   -2.8138  147.9857 C   0  0  0  0  0  0  0  0  0  0  0  0
   70.1305   -0.0948  147.1884 C   0  0  0  0  0  0  0  0  0  0  0  0
   69.3002    0.9774  146.9760 C   0  0  0  0  0  0  0  0  0  0  0  0
   67.9307    0.8115  147.0950 C   0  0  0  0  0  0  0  0  0  0  0  0
   64.2735   -5.8360  148.4633 C   0  0  0  0  0  0  0  0  0  0  0  0
   71.5071   -6.1036  154.3249 N   0  0  2  0  0  4  0  0  0  0  0  0
   69.4268   -5.4682  152.6940 N   0  0  0  0  0  0  0  0  0  0  0  0
   71.4929    0.0469  147.0754 O   0  0  0  0  0  0  0  0  0  0  0  0
   64.2141   -1.9473  143.9122 O   0  0  0  0  0  0  0  0  0  0  0  0
  1  2  2  0
 24  1  1  0
  3  2  1  0
  2 26  1  0
 25  3  2  0
  4  5  2  0
  4  6  1  0
 26  4  1  0
  5 27  1  0
  6 29  2  0
  7  8  1  0
  7 11  1  0
 26  7  2  0
  8  9  1  0
  9 10  1  0
 10 34  1  0
 11 12  2  0
 11 15  1  0
 12 13  1  0
 13 14  2  0
 30 14  1  0
 15 30  2  0
 17 16  1  1
 17 18  1  0
 31 17  1  0
 20 19  1  0
 31 19  1  1
 32 20  1  0
 21 22  1  0
 32 21  1  0
 22 31  1  0
 23 24  2  0
 23 25  1  0
 23 32  1  0
 27 28  2  0
 27 33  1  0
 28 29  1  0
M  CHG  1  31   1
M  END
$$$$
