
     RDKit          3D

 34 37  0  0  0  0  0  0  0  0999 V2000
   68.0810   -3.1734  150.6147 C   0  0  0  0  0  0  0  0  0  0  0  0
   68.2557   -3.8566  149.4162 C   0  0  0  0  0  0  0  0  0  0  0  0
   68.8461   -5.0876  149.5151 C   0  0  0  0  0  0  0  0  0  0  0  0
   68.4971   -2.0436  147.6751 C   0  0  0  0  0  0  0  0  0  0  0  0
   67.9872   -0.7728  147.7573 C   0  0  0  0  0  0  0  0  0  0  0  0
   69.7563   -2.2186  147.1106 C   0  0  0  0  0  0  0  0  0  0  0  0
   66.8179   -3.7281  147.4169 C   0  0  0  0  0  0  0  0  0  0  0  0
   66.3003   -5.1033  147.6339 C   0  0  0  0  0  0  0  0  0  0  0  0
   65.1279   -5.4813  146.8122 C   0  0  0  0  0  0  0  0  0  0  0  0
   64.6165   -6.8817  146.9832 C   0  0  0  0  0  0  0  0  0  0  0  0
   66.1538   -2.9176  146.3718 C   0  0  0  0  0  0  0  0  0  0  0  0
   65.0639   -2.1152  146.6206 C   0  0  0  0  0  0  0  0  0  0  0  0
   64.4992   -1.3868  145.6061 C   0  0  0  0  0  0  0  0  0  0  0  0
   65.0093   -1.4447  144.3280 C   0  0  0  0  0  0  0  0  0  0  0  0
   66.6608   -2.9697  145.0807 C   0  0  0  0  0  0  0  0  0  0  0  0
   73.5550   -6.6807  156.0998 C   0  0  0  0  0  0  0  0  0  0  0  0
   72.1406   -6.1921  156.1512 C   0  0  2  0  0  0  0  0  0  0  0  0
   71.2353   -7.1877  156.8708 C   0  0  0  0  0  0  0  0  0  0  0  0
   70.8570   -4.7192  154.8606 C   0  0  0  0  0  0  0  0  0  0  0  0
   69.4109   -4.9540  154.4003 C   0  0  0  0  0  0  0  0  0  0  0  0
   70.1864   -6.8610  153.0582 C   0  0  0  0  0  0  0  0  0  0  0  0
   70.7432   -7.0996  154.4450 C   0  0  0  0  0  0  0  0  0  0  0  0
   69.0758   -4.9509  151.8840 C   0  0  0  0  0  0  0  0  0  0  0  0
   68.4902   -3.7222  151.8355 C   0  0  0  0  0  0  0  0  0  0  0  0
   69.2548   -5.6419  150.7069 C   0  0  0  0  0  0  0  0  0  0  0  0
   67.7877   -3.2517  148.1596 C   0  0  0  0  0  0  0  0  0  0  0  0
   68.7002    0.3285  147.2914 C   0  0  0  0  0  0  0  0  0  0  0  0
   69.9426    0.1529  146.7349 C   0  0  0  0  0  0  0  0  0  0  0  0
   70.4731   -1.1228  146.6434 C   0  0  0  0  0  0  0  0  0  0  0  0
   66.0984   -2.2407  144.0567 C   0  0  0  0  0  0  0  0  0  0  0  0
   71.5611   -5.9619  154.8446 N   0  0  2  0  0  4  0  0  0  0  0  0
   69.5364   -5.5509  153.0775 N   0  0  0  0  0  0  0  0  0  0  0  0
   68.1543    1.5857  147.3928 O   0  0  0  0  0  0  0  0  0  0  0  0
   64.2809   -7.1240  148.3346 O   0  0  0  0  0  0  0  0  0  0  0  0
  1  2  2  0
 24  1  1  0
  3  2  1  0
  2 26  1  0
 25  3  2  0
  4  5  2  0
  4  6  1  0
 26  4  1  0
  5 27  1  0
  6 29  2  0
  7  8  1  0
  7 11  1  0
 26  7  2  0
  8  9  1  0
  9 10  1  0
 10 34  1  0
 11 12  2  0
 11 15  1  0
 12 13  1  0
 13 14  2  0
 30 14  1  0
 15 30  2  0
 17 16  1  6
 17 18  1  0
 31 17  1  0
 20 19  1  0
 31 19  1  1
 32 20  1  0
 21 22  1  0
 32 21  1  0
 22 31  1  0
 23 24  2  0
 23 25  1  0
 23 32  1  0
 27 28  2  0
 27 33  1  0
 28 29  1  0
M  CHG  1  31   1
M  END
$$$$
