
     RDKit          3D

 34 37  0  0  0  0  0  0  0  0999 V2000
   68.4220   -4.8829  149.4478 C   0  0  0  0  0  0  0  0  0  0  0  0
   67.9006   -3.5939  149.4592 C   0  0  0  0  0  0  0  0  0  0  0  0
   67.9406   -2.9478  150.6652 C   0  0  0  0  0  0  0  0  0  0  0  0
   68.0047   -1.7536  147.7332 C   0  0  0  0  0  0  0  0  0  0  0  0
   69.3563   -1.5852  147.5705 C   0  0  0  0  0  0  0  0  0  0  0  0
   67.1614   -0.6909  147.4259 C   0  0  0  0  0  0  0  0  0  0  0  0
   66.4346   -3.5404  147.4770 C   0  0  0  0  0  0  0  0  0  0  0  0
   65.7556   -4.7921  147.8993 C   0  0  0  0  0  0  0  0  0  0  0  0
   65.9484   -5.9562  147.0047 C   0  0  0  0  0  0  0  0  0  0  0  0
   65.2849   -7.2359  147.4219 C   0  0  0  0  0  0  0  0  0  0  0  0
   65.9562   -2.9050  146.2289 C   0  0  0  0  0  0  0  0  0  0  0  0
   66.7272   -2.8008  145.0938 C   0  0  0  0  0  0  0  0  0  0  0  0
   66.2200   -2.2030  143.9695 C   0  0  0  0  0  0  0  0  0  0  0  0
   64.9381   -1.6993  143.9560 C   0  0  0  0  0  0  0  0  0  0  0  0
   64.6657   -2.3943  146.2059 C   0  0  0  0  0  0  0  0  0  0  0  0
   71.5125   -5.6600  157.0123 C   0  0  0  0  0  0  0  0  0  0  0  0
   72.2768   -6.1519  155.8224 C   0  0  2  0  0  0  0  0  0  0  0  0
   73.6246   -5.4472  155.6984 C   0  0  0  0  0  0  0  0  0  0  0  0
   71.1481   -4.5982  154.4827 C   0  0  0  0  0  0  0  0  0  0  0  0
   69.6350   -4.5675  154.2223 C   0  0  0  0  0  0  0  0  0  0  0  0
   69.8224   -6.7408  153.0907 C   0  0  0  0  0  0  0  0  0  0  0  0
   70.5055   -6.9297  154.4278 C   0  0  0  0  0  0  0  0  0  0  0  0
   68.9649   -4.7871  151.7837 C   0  0  0  0  0  0  0  0  0  0  0  0
   68.9485   -5.4688  150.6047 C   0  0  0  0  0  0  0  0  0  0  0  0
   68.4542   -3.5090  151.8123 C   0  0  0  0  0  0  0  0  0  0  0  0
   67.3802   -3.0092  148.2137 C   0  0  0  0  0  0  0  0  0  0  0  0
   69.8894   -0.3847  147.1092 C   0  0  0  0  0  0  0  0  0  0  0  0
   69.0549    0.6623  146.8067 C   0  0  0  0  0  0  0  0  0  0  0  0
   67.6877    0.5106  146.9651 C   0  0  0  0  0  0  0  0  0  0  0  0
   64.1498   -1.7925  145.0800 C   0  0  0  0  0  0  0  0  0  0  0  0
   71.5811   -5.9567  154.5679 N   0  0  2  0  0  4  0  0  0  0  0  0
   69.4559   -5.3283  152.9931 N   0  0  0  0  0  0  0  0  0  0  0  0
   71.2495   -0.2564  146.9592 O   0  0  0  0  0  0  0  0  0  0  0  0
   63.9061   -7.0261  147.6513 O   0  0  0  0  0  0  0  0  0  0  0  0
  1  2  2  0
 24  1  1  0
  3  2  1  0
  2 26  1  0
 25  3  2  0
  4  5  2  0
  4  6  1  0
 26  4  1  0
  5 27  1  0
  6 29  2  0
  7  8  1  0
  7 11  1  0
 26  7  2  0
  8  9  1  0
  9 10  1  0
 10 34  1  0
 11 12  2  0
 11 15  1  0
 12 13  1  0
 13 14  2  0
 30 14  1  0
 15 30  2  0
 17 16  1  1
 17 18  1  0
 31 17  1  0
 20 19  1  0
 31 19  1  1
 32 20  1  0
 21 22  1  0
 32 21  1  0
 22 31  1  0
 23 24  2  0
 23 25  1  0
 23 32  1  0
 27 28  2  0
 27 33  1  0
 28 29  1  0
M  CHG  1  31   1
M  END
$$$$
