
     RDKit          3D

 34 37  0  0  0  0  0  0  0  0999 V2000
   68.7769   -4.6334  148.9468 C   0  0  0  0  0  0  0  0  0  0  0  0
   68.3369   -3.3151  148.9908 C   0  0  0  0  0  0  0  0  0  0  0  0
   68.5699   -2.6503  150.1644 C   0  0  0  0  0  0  0  0  0  0  0  0
   68.2950   -1.4887  147.2475 C   0  0  0  0  0  0  0  0  0  0  0  0
   67.6213   -0.3007  147.1194 C   0  0  0  0  0  0  0  0  0  0  0  0
   69.6225   -1.5470  146.8361 C   0  0  0  0  0  0  0  0  0  0  0  0
   66.6570   -3.2314  147.1876 C   0  0  0  0  0  0  0  0  0  0  0  0
   66.1392   -2.6133  145.9402 C   0  0  0  0  0  0  0  0  0  0  0  0
   64.7335   -2.1508  145.9926 C   0  0  0  0  0  0  0  0  0  0  0  0
   64.4435   -0.8228  145.3569 C   0  0  0  0  0  0  0  0  0  0  0  0
   65.9847   -4.4641  147.6556 C   0  0  0  0  0  0  0  0  0  0  0  0
   65.2381   -4.5225  148.8101 C   0  0  0  0  0  0  0  0  0  0  0  0
   64.6385   -5.6970  149.1836 C   0  0  0  0  0  0  0  0  0  0  0  0
   64.7715   -6.8322  148.4149 C   0  0  0  0  0  0  0  0  0  0  0  0
   66.1133   -5.6131  146.8876 C   0  0  0  0  0  0  0  0  0  0  0  0
   71.2331   -6.1887  157.0029 C   0  0  0  0  0  0  0  0  0  0  0  0
   70.3258   -6.8504  156.0126 C   0  0  2  0  0  0  0  0  0  0  0  0
   70.9521   -8.1231  155.4500 C   0  0  0  0  0  0  0  0  0  0  0  0
   69.5886   -6.8356  153.7902 C   0  0  0  0  0  0  0  0  0  0  0  0
   70.4456   -6.4990  152.5612 C   0  0  0  0  0  0  0  0  0  0  0  0
   70.7136   -4.2120  153.4198 C   0  0  0  0  0  0  0  0  0  0  0  0
   71.0999   -5.1156  154.5708 C   0  0  0  0  0  0  0  0  0  0  0  0
   69.6219   -4.5274  151.1907 C   0  0  0  0  0  0  0  0  0  0  0  0
   69.4137   -5.2287  150.0418 C   0  0  0  0  0  0  0  0  0  0  0  0
   69.1942   -3.2202  151.2508 C   0  0  0  0  0  0  0  0  0  0  0  0
   67.6946   -2.7231  147.8072 C   0  0  0  0  0  0  0  0  0  0  0  0
   68.2367    0.8312  146.5919 C   0  0  0  0  0  0  0  0  0  0  0  0
   69.5468    0.7708  146.1867 C   0  0  0  0  0  0  0  0  0  0  0  0
   70.2425   -0.4201  146.3083 C   0  0  0  0  0  0  0  0  0  0  0  0
   65.5136   -6.7964  147.2567 C   0  0  0  0  0  0  0  0  0  0  0  0
   69.9918   -6.0088  154.8829 N   0  0  2  0  0  4  0  0  0  0  0  0
   70.2329   -5.0748  152.3412 N   0  0  0  0  0  0  0  0  0  0  0  0
   67.5271    2.0029  146.4808 O   0  0  0  0  0  0  0  0  0  0  0  0
   64.6422   -0.8896  143.9592 O   0  0  0  0  0  0  0  0  0  0  0  0
  1  2  2  0
 24  1  1  0
  3  2  1  0
  2 26  1  0
 25  3  2  0
  4  5  2  0
  4  6  1  0
 26  4  1  0
  5 27  1  0
  6 29  2  0
  7  8  1  0
  7 11  1  0
 26  7  2  0
  8  9  1  0
  9 10  1  0
 10 34  1  0
 11 12  2  0
 11 15  1  0
 12 13  1  0
 13 14  2  0
 30 14  1  0
 15 30  2  0
 17 16  1  1
 17 18  1  0
 31 17  1  0
 20 19  1  0
 31 19  1  6
 32 20  1  0
 21 22  1  0
 32 21  1  0
 22 31  1  0
 23 24  2  0
 23 25  1  0
 23 32  1  0
 27 28  2  0
 27 33  1  0
 28 29  1  0
M  CHG  1  31   1
M  END
$$$$
