
     RDKit          3D

 34 37  0  0  0  0  0  0  0  0999 V2000
   69.2502   -4.2530  148.8966 C   0  0  0  0  0  0  0  0  0  0  0  0
   68.3111   -3.2283  148.9353 C   0  0  0  0  0  0  0  0  0  0  0  0
   67.8530   -2.8894  150.1799 C   0  0  0  0  0  0  0  0  0  0  0  0
   68.6772   -1.3901  147.2430 C   0  0  0  0  0  0  0  0  0  0  0  0
   68.1811   -0.1114  147.2239 C   0  0  0  0  0  0  0  0  0  0  0  0
   69.9891   -1.5996  146.8308 C   0  0  0  0  0  0  0  0  0  0  0  0
   66.9220   -2.9820  146.9127 C   0  0  0  0  0  0  0  0  0  0  0  0
   66.5406   -2.2159  145.6987 C   0  0  0  0  0  0  0  0  0  0  0  0
   65.0866   -2.1169  145.4369 C   0  0  0  0  0  0  0  0  0  0  0  0
   64.6746   -1.2666  144.2710 C   0  0  0  0  0  0  0  0  0  0  0  0
   66.1895   -4.2421  147.1695 C   0  0  0  0  0  0  0  0  0  0  0  0
   64.9905   -4.2920  147.8431 C   0  0  0  0  0  0  0  0  0  0  0  0
   64.3627   -5.4938  148.0432 C   0  0  0  0  0  0  0  0  0  0  0  0
   64.9170   -6.6652  147.5765 C   0  0  0  0  0  0  0  0  0  0  0  0
   66.7404   -5.4277  146.7031 C   0  0  0  0  0  0  0  0  0  0  0  0
   73.1130   -5.8283  156.1605 C   0  0  0  0  0  0  0  0  0  0  0  0
   71.6600   -5.5136  155.9829 C   0  0  2  0  0  0  0  0  0  0  0  0
   70.7796   -6.6542  156.4856 C   0  0  0  0  0  0  0  0  0  0  0  0
   70.2921   -4.2420  154.5707 C   0  0  0  0  0  0  0  0  0  0  0  0
   69.0649   -4.7576  153.8049 C   0  0  0  0  0  0  0  0  0  0  0  0
   70.5396   -6.2376  152.5110 C   0  0  0  0  0  0  0  0  0  0  0  0
   70.8793   -6.5081  153.9608 C   0  0  0  0  0  0  0  0  0  0  0  0
   69.2010   -4.5182  151.2814 C   0  0  0  0  0  0  0  0  0  0  0  0
   69.6874   -4.8886  150.0643 C   0  0  0  0  0  0  0  0  0  0  0  0
   68.2717   -3.5040  151.3381 C   0  0  0  0  0  0  0  0  0  0  0  0
   67.8991   -2.5720  147.6849 C   0  0  0  0  0  0  0  0  0  0  0  0
   68.9589    0.9644  146.8046 C   0  0  0  0  0  0  0  0  0  0  0  0
   70.2532    0.7548  146.3984 C   0  0  0  0  0  0  0  0  0  0  0  0
   70.7709   -0.5294  146.4108 C   0  0  0  0  0  0  0  0  0  0  0  0
   66.1152   -6.6385  146.9006 C   0  0  0  0  0  0  0  0  0  0  0  0
   71.2865   -5.2668  154.6062 N   0  0  2  0  0  4  0  0  0  0  0  0
   69.5784   -5.1354  152.4952 N   0  0  0  0  0  0  0  0  0  0  0  0
   68.4247    2.2306  146.8009 O   0  0  0  0  0  0  0  0  0  0  0  0
   65.1095   -1.8466  143.0578 O   0  0  0  0  0  0  0  0  0  0  0  0
  1  2  2  0
 24  1  1  0
  3  2  1  0
  2 26  1  0
 25  3  2  0
  4  5  2  0
  4  6  1  0
 26  4  1  0
  5 27  1  0
  6 29  2  0
  7  8  1  0
  7 11  1  0
 26  7  2  0
  8  9  1  0
  9 10  1  0
 10 34  1  0
 11 12  2  0
 11 15  1  0
 12 13  1  0
 13 14  2  0
 30 14  1  0
 15 30  2  0
 17 16  1  6
 17 18  1  0
 31 17  1  0
 20 19  1  0
 31 19  1  1
 32 20  1  0
 21 22  1  0
 32 21  1  0
 22 31  1  0
 23 24  2  0
 23 25  1  0
 23 32  1  0
 27 28  2  0
 27 33  1  0
 28 29  1  0
M  CHG  1  31   1
M  END
$$$$
