
     RDKit          3D

 34 37  0  0  0  0  0  0  0  0999 V2000
   68.5770   -2.8315  150.4158 C   0  0  0  0  0  0  0  0  0  0  0  0
   68.6343   -3.5400  149.2207 C   0  0  0  0  0  0  0  0  0  0  0  0
   69.3125   -4.7281  149.2667 C   0  0  0  0  0  0  0  0  0  0  0  0
   68.4735   -1.7310  147.4661 C   0  0  0  0  0  0  0  0  0  0  0  0
   67.8710   -0.5143  147.6618 C   0  0  0  0  0  0  0  0  0  0  0  0
   69.6358   -1.7814  146.7038 C   0  0  0  0  0  0  0  0  0  0  0  0
   66.9762   -3.5957  147.3963 C   0  0  0  0  0  0  0  0  0  0  0  0
   66.3495   -4.8238  147.9486 C   0  0  0  0  0  0  0  0  0  0  0  0
   65.0784   -4.6186  148.6798 C   0  0  0  0  0  0  0  0  0  0  0  0
   64.4263   -5.8472  149.2429 C   0  0  0  0  0  0  0  0  0  0  0  0
   66.3995   -3.0509  146.1469 C   0  0  0  0  0  0  0  0  0  0  0  0
   66.6003   -3.6247  144.9123 C   0  0  0  0  0  0  0  0  0  0  0  0
   66.0328   -3.0701  143.7947 C   0  0  0  0  0  0  0  0  0  0  0  0
   65.2565   -1.9361  143.8870 C   0  0  0  0  0  0  0  0  0  0  0  0
   65.6160   -1.9082  146.2299 C   0  0  0  0  0  0  0  0  0  0  0  0
   71.1296   -6.7532  157.3184 C   0  0  0  0  0  0  0  0  0  0  0  0
   70.8988   -7.4198  155.9977 C   0  0  2  0  0  0  0  0  0  0  0  0
   72.1881   -8.0230  155.4477 C   0  0  0  0  0  0  0  0  0  0  0  0
   70.4409   -7.1814  153.7139 C   0  0  0  0  0  0  0  0  0  0  0  0
   71.2224   -6.3011  152.7276 C   0  0  0  0  0  0  0  0  0  0  0  0
   70.5039   -4.3165  153.9862 C   0  0  0  0  0  0  0  0  0  0  0  0
   71.0891   -5.2522  155.0216 C   0  0  0  0  0  0  0  0  0  0  0  0
   69.8480   -4.5025  151.5788 C   0  0  0  0  0  0  0  0  0  0  0  0
   69.1814   -3.3148  151.5820 C   0  0  0  0  0  0  0  0  0  0  0  0
   69.9128   -5.2179  150.4044 C   0  0  0  0  0  0  0  0  0  0  0  0
   67.9633   -3.0054  148.0257 C   0  0  0  0  0  0  0  0  0  0  0  0
   68.3973    0.6539  147.1173 C   0  0  0  0  0  0  0  0  0  0  0  0
   69.5445    0.6012  146.3655 C   0  0  0  0  0  0  0  0  0  0  0  0
   70.1662   -0.6183  146.1572 C   0  0  0  0  0  0  0  0  0  0  0  0
   65.0428   -1.3457  145.1114 C   0  0  0  0  0  0  0  0  0  0  0  0
   70.3833   -6.5264  154.9819 N   0  0  2  0  0  4  0  0  0  0  0  0
   70.5028   -5.0348  152.7122 N   0  0  0  0  0  0  0  0  0  0  0  0
   67.7638    1.8535  147.3372 O   0  0  0  0  0  0  0  0  0  0  0  0
   63.7191   -5.5338  150.4258 O   0  0  0  0  0  0  0  0  0  0  0  0
  1  2  2  0
 24  1  1  0
  3  2  1  0
  2 26  1  0
 25  3  2  0
  4  5  2  0
  4  6  1  0
 26  4  1  0
  5 27  1  0
  6 29  2  0
  7  8  1  0
  7 11  1  0
 26  7  2  0
  8  9  1  0
  9 10  1  0
 10 34  1  0
 11 12  2  0
 11 15  1  0
 12 13  1  0
 13 14  2  0
 30 14  1  0
 15 30  2  0
 17 16  1  1
 17 18  1  0
 31 17  1  0
 20 19  1  0
 31 19  1  6
 32 20  1  0
 21 22  1  0
 32 21  1  0
 22 31  1  0
 23 24  2  0
 23 25  1  0
 23 32  1  0
 27 28  2  0
 27 33  1  0
 28 29  1  0
M  CHG  1  31   1
M  END
$$$$
