
     RDKit          3D

 34 37  0  0  0  0  0  0  0  0999 V2000
   67.3366   -3.3165  150.4817 C   0  0  0  0  0  0  0  0  0  0  0  0
   68.1747   -3.1791  149.3807 C   0  0  0  0  0  0  0  0  0  0  0  0
   69.4671   -3.5915  149.5632 C   0  0  0  0  0  0  0  0  0  0  0  0
   68.2131   -1.3752  147.6139 C   0  0  0  0  0  0  0  0  0  0  0  0
   69.5102   -1.2401  147.1885 C   0  0  0  0  0  0  0  0  0  0  0  0
   67.3792   -0.2631  147.5655 C   0  0  0  0  0  0  0  0  0  0  0  0
   66.7174   -3.2293  147.3920 C   0  0  0  0  0  0  0  0  0  0  0  0
   66.1368   -2.5456  146.2081 C   0  0  0  0  0  0  0  0  0  0  0  0
   65.4418   -3.4247  145.2403 C   0  0  0  0  0  0  0  0  0  0  0  0
   64.7214   -2.7410  144.1153 C   0  0  0  0  0  0  0  0  0  0  0  0
   66.2504   -4.6062  147.6687 C   0  0  0  0  0  0  0  0  0  0  0  0
   67.0482   -5.7168  147.5154 C   0  0  0  0  0  0  0  0  0  0  0  0
   66.5528   -6.9642  147.7935 C   0  0  0  0  0  0  0  0  0  0  0  0
   65.2561   -7.1269  148.2286 C   0  0  0  0  0  0  0  0  0  0  0  0
   64.9450   -4.7801  148.1074 C   0  0  0  0  0  0  0  0  0  0  0  0
   70.4924   -8.3133  156.4915 C   0  0  0  0  0  0  0  0  0  0  0  0
   71.2864   -7.5928  155.4464 C   0  0  2  0  0  0  0  0  0  0  0  0
   72.2138   -6.5546  156.0715 C   0  0  0  0  0  0  0  0  0  0  0  0
   71.3083   -6.3790  153.4442 C   0  0  0  0  0  0  0  0  0  0  0  0
   71.0621   -4.8696  153.3053 C   0  0  0  0  0  0  0  0  0  0  0  0
   68.7650   -5.2072  154.1104 C   0  0  0  0  0  0  0  0  0  0  0  0
   69.6478   -5.8884  155.1335 C   0  0  0  0  0  0  0  0  0  0  0  0
   69.0970   -4.2381  151.8277 C   0  0  0  0  0  0  0  0  0  0  0  0
   67.8007   -3.8427  151.6927 C   0  0  0  0  0  0  0  0  0  0  0  0
   69.9401   -4.1107  150.7469 C   0  0  0  0  0  0  0  0  0  0  0  0
   67.6373   -2.6439  148.1202 C   0  0  0  0  0  0  0  0  0  0  0  0
   69.9978   -0.0248  146.7158 C   0  0  0  0  0  0  0  0  0  0  0  0
   69.1726    1.0711  146.6691 C   0  0  0  0  0  0  0  0  0  0  0  0
   67.8602    0.9534  147.0947 C   0  0  0  0  0  0  0  0  0  0  0  0
   64.4407   -6.0302  148.3886 C   0  0  0  0  0  0  0  0  0  0  0  0
   70.4675   -6.8977  154.4757 N   0  0  2  0  0  4  0  0  0  0  0  0
   69.6370   -4.7515  153.0283 N   0  0  0  0  0  0  0  0  0  0  0  0
   71.3037    0.0690  146.2981 O   0  0  0  0  0  0  0  0  0  0  0  0
   65.5538   -1.7710  143.5121 O   0  0  0  0  0  0  0  0  0  0  0  0
  1  2  2  0
 24  1  1  0
  3  2  1  0
  2 26  1  0
 25  3  2  0
  4  5  2  0
  4  6  1  0
 26  4  1  0
  5 27  1  0
  6 29  2  0
  7  8  1  0
  7 11  1  0
 26  7  2  0
  8  9  1  0
  9 10  1  0
 10 34  1  0
 11 12  2  0
 11 15  1  0
 12 13  1  0
 13 14  2  0
 30 14  1  0
 15 30  2  0
 17 16  1  1
 17 18  1  0
 31 17  1  0
 20 19  1  0
 31 19  1  6
 32 20  1  0
 21 22  1  0
 32 21  1  0
 22 31  1  0
 23 24  2  0
 23 25  1  0
 23 32  1  0
 27 28  2  0
 27 33  1  0
 28 29  1  0
M  CHG  1  31   1
M  END
$$$$
