
     RDKit          3D

 34 38  0  0  0  0  0  0  0  0999 V2000
   58.0557  172.8712  183.9709 O   0  0  0  0  0  0  0  0  0  0  0  0
   57.2204  173.9292  183.7430 C   0  0  1  0  0  0  0  0  0  0  0  0
   56.6737  173.8445  182.3093 C   0  0  0  0  0  0  0  0  0  0  0  0
   55.6963  174.9100  182.3519 N   0  0  2  0  0  4  0  0  0  0  0  0
   56.3580  176.1311  181.9486 C   0  0  0  0  0  0  0  0  0  0  0  0
   55.9341  176.6114  180.6159 C   0  0  0  0  0  0  0  0  0  0  0  0
   56.7793  176.5666  179.5034 C   0  0  0  0  0  0  0  0  0  0  0  0
   58.0444  176.1359  179.3437 N   0  0  0  0  0  0  0  0  0  0  0  0
   58.5937  176.2278  178.1199 C   0  0  0  0  0  0  0  0  0  0  0  0
   57.8690  176.7388  177.1169 N   0  0  0  0  0  0  0  0  0  0  0  0
   56.6127  177.1786  177.2254 C   0  0  0  0  0  0  0  0  0  0  0  0
   55.8663  177.7134  176.1569 N   0  0  0  0  0  0  0  0  0  0  0  0
   56.0277  177.0919  178.4827 C   0  0  0  0  0  0  0  0  0  0  0  0
   54.8094  177.4288  178.9595 N   0  0  0  0  0  0  0  0  0  0  0  0
   54.7260  177.1413  180.2775 C   0  0  0  0  0  0  0  0  0  0  0  0
   55.1589  174.9747  183.6741 C   0  0  0  0  0  0  0  0  0  0  0  0
   55.9106  173.8792  184.5040 C   0  0  2  0  0  0  0  0  0  0  0  0
   56.0377  174.3767  185.9012 C   0  0  0  0  0  0  0  0  0  0  0  0
   54.5352  174.8808  186.6871 S   0  0  0  0  0  0  0  0  0  0  0  0
   53.2929  173.6189  186.8145 C   0  0  0  0  0  0  0  0  0  0  0  0
   52.4593  173.5152  185.5766 C   0  0  0  0  0  0  0  0  0  0  0  0
   51.0042  173.5229  185.9387 C   0  0  0  0  0  0  0  0  0  0  0  0
   50.7103  172.4249  186.8854 C   0  0  0  0  0  0  0  0  0  0  0  0
   51.4038  171.3223  187.1988 N   0  0  0  0  0  0  0  0  0  0  0  0
   50.7643  170.6076  188.0996 N   0  0  0  0  0  0  0  0  0  0  0  0
   49.6399  171.2237  188.3965 N   0  0  0  0  0  0  0  0  0  0  0  0
   49.5612  172.3477  187.6747 C   0  0  0  0  0  0  0  0  0  0  0  0
   48.6124  170.7813  189.3557 C   0  0  0  0  0  0  0  0  0  0  0  0
   47.4255  170.4564  188.5148 C   0  0  0  0  0  0  0  0  0  0  0  0
   47.3851  169.3038  187.7796 C   0  0  0  0  0  0  0  0  0  0  0  0
   46.2631  169.0437  187.0170 C   0  0  0  0  0  0  0  0  0  0  0  0
   45.2210  169.9286  187.0058 C   0  0  0  0  0  0  0  0  0  0  0  0
   45.2611  171.1026  187.7541 C   0  0  0  0  0  0  0  0  0  0  0  0
   46.3783  171.3453  188.5035 C   0  0  0  0  0  0  0  0  0  0  0  0
  2  1  1  1
  2  3  1  0
  2 17  1  0
  3  4  1  0
  4  5  1  1
  4 16  1  0
  5  6  1  0
  6  7  1  0
  6 15  2  0
  7  8  2  0
  7 13  1  0
  8  9  1  0
  9 10  2  0
 10 11  1  0
 11 12  1  0
 11 13  2  0
 13 14  1  0
 14 15  1  0
 16 17  1  0
 17 18  1  1
 18 19  1  0
 19 20  1  0
 20 21  1  0
 21 22  1  0
 22 23  1  0
 23 24  1  0
 23 27  2  0
 24 25  2  0
 25 26  1  0
 26 27  1  0
 26 28  1  0
 28 29  1  0
 29 30  2  0
 29 34  1  0
 30 31  1  0
 31 32  2  0
 32 33  1  0
 33 34  2  0
M  CHG  1   4   1
M  END
$$$$
