
     RDKit          3D

 34 38  0  0  0  0  0  0  0  0999 V2000
   86.2411  163.9464  179.2601 O   0  0  0  0  0  0  0  0  0  0  0  0
   85.5217  163.0749  178.4804 C   0  0  1  0  0  0  0  0  0  0  0  0
   85.2216  163.7730  177.1575 C   0  0  0  0  0  0  0  0  0  0  0  0
   86.3625  163.4447  176.3762 N   0  0  2  0  0  4  0  0  0  0  0  0
   86.3636  163.8727  175.0177 C   0  0  0  0  0  0  0  0  0  0  0  0
   85.0261  163.5142  174.4245 C   0  0  0  0  0  0  0  0  0  0  0  0
   84.7145  162.4870  173.5589 C   0  0  0  0  0  0  0  0  0  0  0  0
   85.4655  161.5397  172.9930 N   0  0  0  0  0  0  0  0  0  0  0  0
   84.9191  160.6404  172.1733 C   0  0  0  0  0  0  0  0  0  0  0  0
   83.5886  160.6616  171.8921 N   0  0  0  0  0  0  0  0  0  0  0  0
   82.7857  161.5894  172.4314 C   0  0  0  0  0  0  0  0  0  0  0  0
   81.4066  161.5623  172.1065 N   0  0  0  0  0  0  0  0  0  0  0  0
   83.3476  162.5174  173.2762 C   0  0  0  0  0  0  0  0  0  0  0  0
   82.8543  163.5454  173.9615 N   0  0  0  0  0  0  0  0  0  0  0  0
   83.8346  164.1645  174.6606 C   0  0  0  0  0  0  0  0  0  0  0  0
   86.4268  162.0001  176.5196 C   0  0  0  0  0  0  0  0  0  0  0  0
   86.3732  161.9027  178.0449 C   0  0  2  0  0  0  0  0  0  0  0  0
   85.7297  160.6384  178.5016 C   0  0  0  0  0  0  0  0  0  0  0  0
   86.6671  159.2113  177.8325 S   0  0  0  0  0  0  0  0  0  0  0  0
   88.4084  159.5386  178.2296 C   0  0  0  0  0  0  0  0  0  0  0  0
   89.0466  158.1775  178.5188 C   0  0  0  0  0  0  0  0  0  0  0  0
   90.3941  158.4859  179.1289 C   0  0  0  0  0  0  0  0  0  0  0  0
   90.7219  157.4932  180.1743 C   0  0  0  0  0  0  0  0  0  0  0  0
   90.3096  157.4723  181.4529 N   0  0  0  0  0  0  0  0  0  0  0  0
   90.8243  156.4150  182.0613 N   0  0  0  0  0  0  0  0  0  0  0  0
   91.5825  155.7237  181.1967 N   0  0  0  0  0  0  0  0  0  0  0  0
   91.5244  156.3801  180.0344 C   0  0  0  0  0  0  0  0  0  0  0  0
   92.2846  154.5127  181.5644 C   0  0  0  0  0  0  0  0  0  0  0  0
   91.4926  153.2800  181.2880 C   0  0  0  0  0  0  0  0  0  0  0  0
   91.3050  152.8360  179.9972 C   0  0  0  0  0  0  0  0  0  0  0  0
   90.5759  151.6965  179.7681 C   0  0  0  0  0  0  0  0  0  0  0  0
   90.0223  150.9800  180.8127 C   0  0  0  0  0  0  0  0  0  0  0  0
   90.1977  151.4058  182.1040 C   0  0  0  0  0  0  0  0  0  0  0  0
   90.9379  152.5609  182.3223 C   0  0  0  0  0  0  0  0  0  0  0  0
  2  1  1  1
  3  2  1  1
  2 17  1  0
  3  4  1  0
  4  5  1  6
  4 16  1  0
  5  6  1  6
  6  7  1  0
  6 15  2  0
  7  8  2  0
  7 13  1  0
  8  9  1  0
  9 10  2  0
 10 11  1  0
 11 12  1  0
 11 13  2  0
 13 14  1  0
 14 15  1  0
 16 17  1  6
 17 18  1  6
 18 19  1  6
 20 19  1  1
 21 20  1  1
 21 22  1  0
 22 23  1  6
 23 24  1  0
 23 27  2  0
 24 25  2  0
 25 26  1  0
 26 27  1  0
 28 26  1  1
 28 29  1  0
 29 30  2  0
 29 34  1  0
 30 31  1  0
 31 32  2  0
 32 33  1  0
 33 34  2  0
M  CHG  1   4   1
M  END
$$$$
