
     RDKit          3D

 34 38  0  0  0  0  0  0  0  0999 V2000
   58.1495  173.5212  185.2792 O   0  0  0  0  0  0  0  0  0  0  0  0
   57.1133  174.0148  184.5256 C   0  0  1  0  0  0  0  0  0  0  0  0
   57.6216  174.1984  183.0990 C   0  0  0  0  0  0  0  0  0  0  0  0
   57.3647  172.9261  182.5199 N   0  0  2  0  0  4  0  0  0  0  0  0
   57.6425  172.7775  181.1309 C   0  0  0  0  0  0  0  0  0  0  0  0
   56.8880  173.8546  180.3961 C   0  0  0  0  0  0  0  0  0  0  0  0
   57.3474  175.0737  179.9443 C   0  0  0  0  0  0  0  0  0  0  0  0
   58.5442  175.6594  180.0218 N   0  0  0  0  0  0  0  0  0  0  0  0
   58.7427  176.8692  179.4963 C   0  0  0  0  0  0  0  0  0  0  0  0
   57.7377  177.5374  178.8693 N   0  0  0  0  0  0  0  0  0  0  0  0
   56.5153  176.9986  178.7613 C   0  0  0  0  0  0  0  0  0  0  0  0
   55.5065  177.7377  178.0947 N   0  0  0  0  0  0  0  0  0  0  0  0
   56.3090  175.7518  179.3029 C   0  0  0  0  0  0  0  0  0  0  0  0
   55.2497  174.9500  179.3723 N   0  0  0  0  0  0  0  0  0  0  0  0
   55.5630  173.8041  180.0217 C   0  0  0  0  0  0  0  0  0  0  0  0
   55.9645  172.7173  182.8476 C   0  0  0  0  0  0  0  0  0  0  0  0
   56.0234  172.9799  184.3531 C   0  0  2  0  0  0  0  0  0  0  0  0
   54.7413  173.5328  184.8743 C   0  0  0  0  0  0  0  0  0  0  0  0
   55.0895  174.5772  186.3409 S   0  0  0  0  0  0  0  0  0  0  0  0
   54.3987  176.2115  185.9545 C   0  0  0  0  0  0  0  0  0  0  0  0
   52.8826  176.0891  186.1276 C   0  0  0  0  0  0  0  0  0  0  0  0
   52.6845  175.1140  187.2647 C   0  0  0  0  0  0  0  0  0  0  0  0
   51.7541  175.6775  188.2660 C   0  0  0  0  0  0  0  0  0  0  0  0
   50.4107  175.6548  188.2512 N   0  0  0  0  0  0  0  0  0  0  0  0
   49.9510  176.2661  189.3320 N   0  0  0  0  0  0  0  0  0  0  0  0
   50.9803  176.7009  190.0745 N   0  0  0  0  0  0  0  0  0  0  0  0
   52.0923  176.3428  189.4260 C   0  0  0  0  0  0  0  0  0  0  0  0
   50.8013  177.4128  191.3219 C   0  0  0  0  0  0  0  0  0  0  0  0
   51.2762  178.8246  191.2540 C   0  0  0  0  0  0  0  0  0  0  0  0
   52.5826  179.1451  191.5525 C   0  0  0  0  0  0  0  0  0  0  0  0
   52.9973  180.4508  191.4787 C   0  0  0  0  0  0  0  0  0  0  0  0
   52.1257  181.4579  191.1084 C   0  0  0  0  0  0  0  0  0  0  0  0
   50.8220  181.1590  190.8077 C   0  0  0  0  0  0  0  0  0  0  0  0
   50.4148  179.8332  190.8862 C   0  0  0  0  0  0  0  0  0  0  0  0
  2  1  1  1
  3  2  1  1
  2 17  1  0
  3  4  1  0
  4  5  1  6
  4 16  1  0
  5  6  1  6
  6  7  1  0
  6 15  2  0
  7  8  2  0
  7 13  1  0
  8  9  1  0
  9 10  2  0
 10 11  1  0
 11 12  1  0
 11 13  2  0
 13 14  1  0
 14 15  1  0
 16 17  1  6
 17 18  1  6
 18 19  1  6
 20 19  1  1
 21 20  1  1
 21 22  1  0
 22 23  1  6
 23 24  1  0
 23 27  2  0
 24 25  2  0
 25 26  1  0
 26 27  1  0
 28 26  1  1
 28 29  1  0
 29 30  2  0
 29 34  1  0
 30 31  1  0
 31 32  2  0
 32 33  1  0
 33 34  2  0
M  CHG  1   4   1
M  END
$$$$
