
     RDKit          3D

 34 38  0  0  0  0  0  0  0  0999 V2000
   86.6145  163.1089  179.9042 O   0  0  0  0  0  0  0  0  0  0  0  0
   86.1801  162.8531  178.6335 C   0  0  1  0  0  0  0  0  0  0  0  0
   86.8538  163.8328  177.6600 C   0  0  0  0  0  0  0  0  0  0  0  0
   86.4181  163.2715  176.4001 N   0  0  2  0  0  4  0  0  0  0  0  0
   85.1638  163.8997  176.0483 C   0  0  0  0  0  0  0  0  0  0  0  0
   84.7231  163.5911  174.6709 C   0  0  0  0  0  0  0  0  0  0  0  0
   83.7623  162.6133  174.3968 C   0  0  0  0  0  0  0  0  0  0  0  0
   83.0597  161.7856  175.1922 N   0  0  0  0  0  0  0  0  0  0  0  0
   82.1908  160.9387  174.6129 C   0  0  0  0  0  0  0  0  0  0  0  0
   82.0587  160.9507  173.2807 N   0  0  0  0  0  0  0  0  0  0  0  0
   82.7320  161.7514  172.4507 C   0  0  0  0  0  0  0  0  0  0  0  0
   82.5785  161.7489  171.0502 N   0  0  0  0  0  0  0  0  0  0  0  0
   83.6349  162.6340  173.0307 C   0  0  0  0  0  0  0  0  0  0  0  0
   84.4694  163.5674  172.5234 N   0  0  0  0  0  0  0  0  0  0  0  0
   85.1544  164.1741  173.5182 C   0  0  0  0  0  0  0  0  0  0  0  0
   86.3117  161.8548  176.5517 C   0  0  0  0  0  0  0  0  0  0  0  0
   86.6761  161.5478  178.0439 C   0  0  2  0  0  0  0  0  0  0  0  0
   85.8659  160.3764  178.4767 C   0  0  0  0  0  0  0  0  0  0  0  0
   86.7353  159.1115  179.3560 S   0  0  0  0  0  0  0  0  0  0  0  0
   87.9367  158.2205  178.3996 C   0  0  0  0  0  0  0  0  0  0  0  0
   89.3092  158.3068  178.9885 C   0  0  0  0  0  0  0  0  0  0  0  0
   90.3020  157.6656  178.0657 C   0  0  0  0  0  0  0  0  0  0  0  0
   91.1780  156.7445  178.8224 C   0  0  0  0  0  0  0  0  0  0  0  0
   92.0284  156.9683  179.8331 N   0  0  0  0  0  0  0  0  0  0  0  0
   92.6128  155.8510  180.2090 N   0  0  0  0  0  0  0  0  0  0  0  0
   92.1602  154.8718  179.4551 N   0  0  0  0  0  0  0  0  0  0  0  0
   91.2741  155.3717  178.5860 C   0  0  0  0  0  0  0  0  0  0  0  0
   92.5421  153.4501  179.5238 C   0  0  0  0  0  0  0  0  0  0  0  0
   91.4299  152.7959  180.2697 C   0  0  0  0  0  0  0  0  0  0  0  0
   91.4176  151.4413  180.4584 C   0  0  0  0  0  0  0  0  0  0  0  0
   90.3672  150.8797  181.1581 C   0  0  0  0  0  0  0  0  0  0  0  0
   89.3666  151.6727  181.6467 C   0  0  0  0  0  0  0  0  0  0  0  0
   89.3781  153.0522  181.4552 C   0  0  0  0  0  0  0  0  0  0  0  0
   90.4244  153.5925  180.7609 C   0  0  0  0  0  0  0  0  0  0  0  0
  2  1  1  1
  2  3  1  0
  2 17  1  0
  3  4  1  0
  4  5  1  1
  4 16  1  0
  5  6  1  0
  6  7  1  0
  6 15  2  0
  7  8  2  0
  7 13  1  0
  8  9  1  0
  9 10  2  0
 10 11  1  0
 11 12  1  0
 11 13  2  0
 13 14  1  0
 14 15  1  0
 16 17  1  0
 17 18  1  1
 18 19  1  0
 19 20  1  0
 20 21  1  0
 21 22  1  0
 22 23  1  0
 23 24  1  0
 23 27  2  0
 24 25  2  0
 25 26  1  0
 26 27  1  0
 26 28  1  0
 28 29  1  0
 29 30  2  0
 29 34  1  0
 30 31  1  0
 31 32  2  0
 32 33  1  0
 33 34  2  0
M  CHG  1   4   1
M  END
$$$$
