
     RDKit          3D

 34 38  0  0  0  0  0  0  0  0999 V2000
   88.6028  162.2921  177.7292 O   0  0  0  0  0  0  0  0  0  0  0  0
   87.4225  162.5916  177.1078 C   0  0  1  0  0  0  0  0  0  0  0  0
   87.2340  161.6601  175.9002 C   0  0  0  0  0  0  0  0  0  0  0  0
   85.8806  162.0077  175.5262 N   0  0  2  0  0  4  0  0  0  0  0  0
   85.9517  163.0990  174.5798 C   0  0  0  0  0  0  0  0  0  0  0  0
   84.6941  163.3028  173.8292 C   0  0  0  0  0  0  0  0  0  0  0  0
   83.7704  162.2729  173.6277 C   0  0  0  0  0  0  0  0  0  0  0  0
   83.7585  160.9806  174.0035 N   0  0  0  0  0  0  0  0  0  0  0  0
   82.7024  160.2286  173.6473 C   0  0  0  0  0  0  0  0  0  0  0  0
   81.7129  160.7878  172.9397 N   0  0  0  0  0  0  0  0  0  0  0  0
   81.6792  162.0629  172.5441 C   0  0  0  0  0  0  0  0  0  0  0  0
   80.6279  162.6330  171.7995 N   0  0  0  0  0  0  0  0  0  0  0  0
   82.7620  162.8562  172.9027 C   0  0  0  0  0  0  0  0  0  0  0  0
   83.0677  164.1542  172.6860 N   0  0  0  0  0  0  0  0  0  0  0  0
   84.2587  164.4557  173.2495 C   0  0  0  0  0  0  0  0  0  0  0  0
   85.1578  162.3415  176.7125 C   0  0  0  0  0  0  0  0  0  0  0  0
   86.1800  162.2225  177.8935 C   0  0  2  0  0  0  0  0  0  0  0  0
   85.8178  163.2464  178.9115 C   0  0  0  0  0  0  0  0  0  0  0  0
   85.1239  162.6331  180.4187 S   0  0  0  0  0  0  0  0  0  0  0  0
   85.9571  161.2277  181.1133 C   0  0  0  0  0  0  0  0  0  0  0  0
   86.1241  161.3416  182.5956 C   0  0  0  0  0  0  0  0  0  0  0  0
   86.6785  160.0620  183.1468 C   0  0  0  0  0  0  0  0  0  0  0  0
   87.6749  159.4954  182.2116 C   0  0  0  0  0  0  0  0  0  0  0  0
   88.8278  159.9929  181.7446 N   0  0  0  0  0  0  0  0  0  0  0  0
   89.4044  159.1438  180.9213 N   0  0  0  0  0  0  0  0  0  0  0  0
   88.6445  158.0731  180.8300 N   0  0  0  0  0  0  0  0  0  0  0  0
   87.5678  158.2417  181.6064 C   0  0  0  0  0  0  0  0  0  0  0  0
   88.9005  156.8703  180.0180 C   0  0  0  0  0  0  0  0  0  0  0  0
   89.7413  155.9995  180.8875 C   0  0  0  0  0  0  0  0  0  0  0  0
   89.5503  154.6454  180.9131 C   0  0  0  0  0  0  0  0  0  0  0  0
   90.3552  153.8784  181.7327 C   0  0  0  0  0  0  0  0  0  0  0  0
   91.3196  154.4728  182.4980 C   0  0  0  0  0  0  0  0  0  0  0  0
   91.5151  155.8516  182.4727 C   0  0  0  0  0  0  0  0  0  0  0  0
   90.7105  156.5966  181.6564 C   0  0  0  0  0  0  0  0  0  0  0  0
  2  1  1  1
  2  3  1  0
  2 17  1  0
  3  4  1  0
  4  5  1  6
  4 16  1  0
  5  6  1  0
  6  7  1  0
  6 15  2  0
  7  8  2  0
  7 13  1  0
  8  9  1  0
  9 10  2  0
 10 11  1  0
 11 12  1  0
 11 13  2  0
 13 14  1  0
 14 15  1  0
 16 17  1  0
 17 18  1  1
 18 19  1  0
 19 20  1  0
 20 21  1  0
 21 22  1  0
 22 23  1  0
 23 24  1  0
 23 27  2  0
 24 25  2  0
 25 26  1  0
 26 27  1  0
 26 28  1  0
 28 29  1  0
 29 30  2  0
 29 34  1  0
 30 31  1  0
 31 32  2  0
 32 33  1  0
 33 34  2  0
M  CHG  1   4   1
M  END
$$$$
