
     RDKit          3D

 34 38  0  0  0  0  0  0  0  0999 V2000
   88.4984  163.7679  177.9144 O   0  0  0  0  0  0  0  0  0  0  0  0
   87.4921  163.0950  177.2792 C   0  0  1  0  0  0  0  0  0  0  0  0
   87.2221  163.7535  175.9172 C   0  0  0  0  0  0  0  0  0  0  0  0
   86.2953  162.7949  175.3563 N   0  0  2  0  0  4  0  0  0  0  0  0
   84.9595  163.2005  175.7343 C   0  0  0  0  0  0  0  0  0  0  0  0
   84.0246  163.2668  174.5906 C   0  0  0  0  0  0  0  0  0  0  0  0
   83.4058  162.1283  174.0662 C   0  0  0  0  0  0  0  0  0  0  0  0
   83.4718  160.8262  174.4006 N   0  0  0  0  0  0  0  0  0  0  0  0
   82.7398  159.9526  173.6874 C   0  0  0  0  0  0  0  0  0  0  0  0
   81.9807  160.4061  172.6821 N   0  0  0  0  0  0  0  0  0  0  0  0
   81.8822  161.6857  172.3128 C   0  0  0  0  0  0  0  0  0  0  0  0
   81.0771  162.1433  171.2512 N   0  0  0  0  0  0  0  0  0  0  0  0
   82.6315  162.6039  173.0381 C   0  0  0  0  0  0  0  0  0  0  0  0
   82.7809  163.9440  172.9561 N   0  0  0  0  0  0  0  0  0  0  0  0
   83.6382  164.3791  173.9063 C   0  0  0  0  0  0  0  0  0  0  0  0
   86.6440  161.4964  175.8395 C   0  0  0  0  0  0  0  0  0  0  0  0
   87.8597  161.7030  176.8055 C   0  0  2  0  0  0  0  0  0  0  0  0
   87.7594  160.6828  177.8849 C   0  0  0  0  0  0  0  0  0  0  0  0
   87.3766  159.0358  177.3654 S   0  0  0  0  0  0  0  0  0  0  0  0
   87.7345  157.7690  178.5566 C   0  0  0  0  0  0  0  0  0  0  0  0
   89.0115  158.0254  179.2925 C   0  0  0  0  0  0  0  0  0  0  0  0
   89.5607  156.7365  179.8268 C   0  0  0  0  0  0  0  0  0  0  0  0
   89.4993  156.7318  181.3049 C   0  0  0  0  0  0  0  0  0  0  0  0
   88.5475  157.1525  182.1486 N   0  0  0  0  0  0  0  0  0  0  0  0
   88.9116  156.9599  183.3982 N   0  0  0  0  0  0  0  0  0  0  0  0
   90.1073  156.4101  183.4021 N   0  0  0  0  0  0  0  0  0  0  0  0
   90.5116  156.2495  182.1367 C   0  0  0  0  0  0  0  0  0  0  0  0
   90.9020  156.0233  184.5814 C   0  0  0  0  0  0  0  0  0  0  0  0
   90.9506  154.5345  184.5324 C   0  0  0  0  0  0  0  0  0  0  0  0
   92.1478  153.8768  184.4639 C   0  0  0  0  0  0  0  0  0  0  0  0
   92.1435  152.4961  184.4229 C   0  0  0  0  0  0  0  0  0  0  0  0
   90.9598  151.8126  184.4506 C   0  0  0  0  0  0  0  0  0  0  0  0
   89.7401  152.4813  184.5203 C   0  0  0  0  0  0  0  0  0  0  0  0
   89.7613  153.8476  184.5604 C   0  0  0  0  0  0  0  0  0  0  0  0
  2  1  1  6
  2  3  1  0
  2 17  1  0
  3  4  1  0
  4  5  1  1
  4 16  1  0
  5  6  1  0
  6  7  1  0
  6 15  2  0
  7  8  2  0
  7 13  1  0
  8  9  1  0
  9 10  2  0
 10 11  1  0
 11 12  1  0
 11 13  2  0
 13 14  1  0
 14 15  1  0
 16 17  1  0
 17 18  1  1
 18 19  1  0
 19 20  1  0
 20 21  1  0
 21 22  1  0
 22 23  1  0
 23 24  1  0
 23 27  2  0
 24 25  2  0
 25 26  1  0
 26 27  1  0
 26 28  1  0
 28 29  1  0
 29 30  2  0
 29 34  1  0
 30 31  1  0
 31 32  2  0
 32 33  1  0
 33 34  2  0
M  CHG  1   4   1
M  END
$$$$
