
     RDKit          3D

 34 38  0  0  0  0  0  0  0  0999 V2000
   53.8946  174.1476  180.8097 O   0  0  0  0  0  0  0  0  0  0  0  0
   55.2182  174.3662  181.1020 C   0  0  1  0  0  0  0  0  0  0  0  0
   55.9954  174.3380  179.7897 C   0  0  0  0  0  0  0  0  0  0  0  0
   55.9219  175.6922  179.3649 N   0  0  2  0  0  4  0  0  0  0  0  0
   56.6421  176.0428  178.1870 C   0  0  0  0  0  0  0  0  0  0  0  0
   58.0667  176.3225  178.5887 C   0  0  0  0  0  0  0  0  0  0  0  0
   58.7461  177.5224  178.5762 C   0  0  0  0  0  0  0  0  0  0  0  0
   58.3765  178.7520  178.2117 N   0  0  0  0  0  0  0  0  0  0  0  0
   59.2341  179.7704  178.2934 C   0  0  0  0  0  0  0  0  0  0  0  0
   60.5026  179.5871  178.7483 N   0  0  0  0  0  0  0  0  0  0  0  0
   60.9292  178.3747  179.1284 C   0  0  0  0  0  0  0  0  0  0  0  0
   62.2598  178.2420  179.5977 N   0  0  0  0  0  0  0  0  0  0  0  0
   60.0465  177.3239  179.0443 C   0  0  0  0  0  0  0  0  0  0  0  0
   60.1394  176.0279  179.3300 N   0  0  0  0  0  0  0  0  0  0  0  0
   58.9696  175.3986  179.0680 C   0  0  0  0  0  0  0  0  0  0  0  0
   56.3746  176.4087  180.5453 C   0  0  0  0  0  0  0  0  0  0  0  0
   55.4433  175.7825  181.5842 C   0  0  2  0  0  0  0  0  0  0  0  0
   56.0641  175.7419  182.9384 C   0  0  0  0  0  0  0  0  0  0  0  0
   55.8003  174.0814  183.6708 S   0  0  0  0  0  0  0  0  0  0  0  0
   54.7537  174.3495  185.1302 C   0  0  0  0  0  0  0  0  0  0  0  0
   53.4537  174.9749  184.6178 C   0  0  0  0  0  0  0  0  0  0  0  0
   52.3499  174.3186  185.4141 C   0  0  0  0  0  0  0  0  0  0  0  0
   52.7392  174.2113  186.8364 C   0  0  0  0  0  0  0  0  0  0  0  0
   53.9444  174.4429  187.3834 N   0  0  0  0  0  0  0  0  0  0  0  0
   53.8786  174.2373  188.6898 N   0  0  0  0  0  0  0  0  0  0  0  0
   52.6331  173.8676  189.0245 N   0  0  0  0  0  0  0  0  0  0  0  0
   51.9265  173.8494  187.8906 C   0  0  0  0  0  0  0  0  0  0  0  0
   52.2435  173.5683  190.3858 C   0  0  0  0  0  0  0  0  0  0  0  0
   52.5156  174.6941  191.3248 C   0  0  0  0  0  0  0  0  0  0  0  0
   53.5943  174.6540  192.1812 C   0  0  0  0  0  0  0  0  0  0  0  0
   53.8269  175.7039  193.0332 C   0  0  0  0  0  0  0  0  0  0  0  0
   52.9958  176.8085  193.0500 C   0  0  0  0  0  0  0  0  0  0  0  0
   51.9173  176.8670  192.2055 C   0  0  0  0  0  0  0  0  0  0  0  0
   51.6931  175.7974  191.3479 C   0  0  0  0  0  0  0  0  0  0  0  0
  2  1  1  6
  3  2  1  1
  2 17  1  0
  3  4  1  0
  4  5  1  6
  4 16  1  0
  5  6  1  6
  6  7  1  0
  6 15  2  0
  7  8  2  0
  7 13  1  0
  8  9  1  0
  9 10  2  0
 10 11  1  0
 11 12  1  0
 11 13  2  0
 13 14  1  0
 14 15  1  0
 16 17  1  6
 17 18  1  1
 18 19  1  6
 20 19  1  1
 21 20  1  1
 21 22  1  0
 22 23  1  6
 23 24  1  0
 23 27  2  0
 24 25  2  0
 25 26  1  0
 26 27  1  0
 28 26  1  1
 28 29  1  0
 29 30  2  0
 29 34  1  0
 30 31  1  0
 31 32  2  0
 32 33  1  0
 33 34  2  0
M  CHG  1   4   1
M  END
$$$$
