
     RDKit          3D

 34 38  0  0  0  0  0  0  0  0999 V2000
   87.4502  163.1514  179.9032 O   0  0  0  0  0  0  0  0  0  0  0  0
   87.4202  162.3988  178.7553 C   0  0  1  0  0  0  0  0  0  0  0  0
   85.9993  161.8716  178.5815 C   0  0  0  0  0  0  0  0  0  0  0  0
   85.3760  162.9169  177.8475 N   0  0  2  0  0  4  0  0  0  0  0  0
   84.0325  162.7022  177.4262 C   0  0  0  0  0  0  0  0  0  0  0  0
   84.0719  162.2269  175.9973 C   0  0  0  0  0  0  0  0  0  0  0  0
   83.5788  162.8471  174.8688 C   0  0  0  0  0  0  0  0  0  0  0  0
   82.9328  164.0023  174.6970 N   0  0  0  0  0  0  0  0  0  0  0  0
   82.5508  164.3915  173.4797 C   0  0  0  0  0  0  0  0  0  0  0  0
   82.8072  163.6276  172.3841 N   0  0  0  0  0  0  0  0  0  0  0  0
   83.4524  162.4581  172.4960 C   0  0  0  0  0  0  0  0  0  0  0  0
   83.6960  161.7046  171.3208 N   0  0  0  0  0  0  0  0  0  0  0  0
   83.8463  162.0554  173.7502 C   0  0  0  0  0  0  0  0  0  0  0  0
   84.4874  160.9823  174.2055 N   0  0  0  0  0  0  0  0  0  0  0  0
   84.6388  161.0539  175.5490 C   0  0  0  0  0  0  0  0  0  0  0  0
   86.2981  163.1060  176.7404 C   0  0  0  0  0  0  0  0  0  0  0  0
   87.5983  163.2672  177.5293 C   0  0  2  0  0  0  0  0  0  0  0  0
   88.7812  162.7862  176.7608 C   0  0  0  0  0  0  0  0  0  0  0  0
   88.4080  161.1356  176.0542 S   0  0  0  0  0  0  0  0  0  0  0  0
   89.3482  159.9489  177.0567 C   0  0  0  0  0  0  0  0  0  0  0  0
   88.3287  158.9480  177.6065 C   0  0  0  0  0  0  0  0  0  0  0  0
   88.8517  157.5851  177.2164 C   0  0  0  0  0  0  0  0  0  0  0  0
   90.2480  157.4223  177.6744 C   0  0  0  0  0  0  0  0  0  0  0  0
   91.3512  158.0183  177.1915 N   0  0  0  0  0  0  0  0  0  0  0  0
   92.4064  157.6070  177.8773 N   0  0  0  0  0  0  0  0  0  0  0  0
   92.0177  156.7355  178.8205 N   0  0  0  0  0  0  0  0  0  0  0  0
   90.6921  156.6168  178.7023 C   0  0  0  0  0  0  0  0  0  0  0  0
   92.9454  156.1047  179.7349 C   0  0  0  0  0  0  0  0  0  0  0  0
   93.3788  157.0129  180.8351 C   0  0  0  0  0  0  0  0  0  0  0  0
   93.0466  158.3500  180.8189 C   0  0  0  0  0  0  0  0  0  0  0  0
   93.4532  159.1653  181.8447 C   0  0  0  0  0  0  0  0  0  0  0  0
   94.1941  158.6693  182.9013 C   0  0  0  0  0  0  0  0  0  0  0  0
   94.5348  157.3418  182.9353 C   0  0  0  0  0  0  0  0  0  0  0  0
   94.1168  156.5272  181.8905 C   0  0  0  0  0  0  0  0  0  0  0  0
  2  1  1  1
  3  2  1  1
  2 17  1  0
  3  4  1  0
  4  5  1  6
  4 16  1  0
  5  6  1  6
  6  7  1  0
  6 15  2  0
  7  8  2  0
  7 13  1  0
  8  9  1  0
  9 10  2  0
 10 11  1  0
 11 12  1  0
 11 13  2  0
 13 14  1  0
 14 15  1  0
 16 17  1  6
 17 18  1  6
 18 19  1  6
 20 19  1  1
 21 20  1  1
 21 22  1  0
 22 23  1  6
 23 24  1  0
 23 27  2  0
 24 25  2  0
 25 26  1  0
 26 27  1  0
 28 26  1  1
 28 29  1  0
 29 30  2  0
 29 34  1  0
 30 31  1  0
 31 32  2  0
 32 33  1  0
 33 34  2  0
M  CHG  1   4   1
M  END
$$$$
