
     RDKit          3D

 34 38  0  0  0  0  0  0  0  0999 V2000
   85.9839  161.3688  179.2964 O   0  0  0  0  0  0  0  0  0  0  0  0
   86.1047  160.9619  177.9907 C   0  0  1  0  0  0  0  0  0  0  0  0
   85.1415  161.7963  177.1521 C   0  0  0  0  0  0  0  0  0  0  0  0
   85.9341  162.9271  176.8160 N   0  0  2  0  0  4  0  0  0  0  0  0
   85.3549  163.8875  175.9380 C   0  0  0  0  0  0  0  0  0  0  0  0
   84.8163  163.1471  174.7418 C   0  0  0  0  0  0  0  0  0  0  0  0
   83.5031  162.9429  174.3739 C   0  0  0  0  0  0  0  0  0  0  0  0
   82.3516  163.3098  174.9403 N   0  0  0  0  0  0  0  0  0  0  0  0
   81.1858  162.9843  174.3798 C   0  0  0  0  0  0  0  0  0  0  0  0
   81.1364  162.2737  173.2213 N   0  0  0  0  0  0  0  0  0  0  0  0
   82.2605  161.8783  172.6077 C   0  0  0  0  0  0  0  0  0  0  0  0
   82.1502  161.1434  171.4010 N   0  0  0  0  0  0  0  0  0  0  0  0
   83.4629  162.2127  173.1845 C   0  0  0  0  0  0  0  0  0  0  0  0
   84.7305  161.9859  172.8506 N   0  0  0  0  0  0  0  0  0  0  0  0
   85.5675  162.5328  173.7636 C   0  0  0  0  0  0  0  0  0  0  0  0
   87.1342  162.3107  176.2760 C   0  0  0  0  0  0  0  0  0  0  0  0
   87.4521  161.3487  177.4216 C   0  0  2  0  0  0  0  0  0  0  0  0
   88.1482  160.1208  176.9431 C   0  0  0  0  0  0  0  0  0  0  0  0
   88.6708  159.1236  178.3906 S   0  0  0  0  0  0  0  0  0  0  0  0
   89.8333  160.1699  179.3132 C   0  0  0  0  0  0  0  0  0  0  0  0
   91.2260  159.5829  179.0699 C   0  0  0  0  0  0  0  0  0  0  0  0
   91.0513  158.5815  177.9519 C   0  0  0  0  0  0  0  0  0  0  0  0
   90.9234  157.2157  178.5035 C   0  0  0  0  0  0  0  0  0  0  0  0
   90.1422  156.2156  178.0620 N   0  0  0  0  0  0  0  0  0  0  0  0
   90.3195  155.1509  178.8288 N   0  0  0  0  0  0  0  0  0  0  0  0
   91.2174  155.4306  179.7856 N   0  0  0  0  0  0  0  0  0  0  0  0
   91.5935  156.6981  179.5924 C   0  0  0  0  0  0  0  0  0  0  0  0
   91.6238  154.4660  180.7852 C   0  0  0  0  0  0  0  0  0  0  0  0
   90.6563  154.3633  181.9151 C   0  0  0  0  0  0  0  0  0  0  0  0
   89.5869  153.4968  181.8521 C   0  0  0  0  0  0  0  0  0  0  0  0
   88.7122  153.4166  182.9061 C   0  0  0  0  0  0  0  0  0  0  0  0
   88.8833  154.1924  184.0376 C   0  0  0  0  0  0  0  0  0  0  0  0
   89.9412  155.0606  184.1190 C   0  0  0  0  0  0  0  0  0  0  0  0
   90.8194  155.1322  183.0450 C   0  0  0  0  0  0  0  0  0  0  0  0
  2  1  1  1
  3  2  1  1
  2 17  1  0
  3  4  1  0
  4  5  1  6
  4 16  1  0
  5  6  1  6
  6  7  1  0
  6 15  2  0
  7  8  2  0
  7 13  1  0
  8  9  1  0
  9 10  2  0
 10 11  1  0
 11 12  1  0
 11 13  2  0
 13 14  1  0
 14 15  1  0
 16 17  1  6
 17 18  1  6
 18 19  1  6
 20 19  1  1
 21 20  1  1
 21 22  1  0
 22 23  1  6
 23 24  1  0
 23 27  2  0
 24 25  2  0
 25 26  1  0
 26 27  1  0
 28 26  1  1
 28 29  1  0
 29 30  2  0
 29 34  1  0
 30 31  1  0
 31 32  2  0
 32 33  1  0
 33 34  2  0
M  CHG  1   4   1
M  END
$$$$
