
     RDKit          3D

 34 38  0  0  0  0  0  0  0  0999 V2000
   86.3049  164.0977  179.7158 O   0  0  0  0  0  0  0  0  0  0  0  0
   86.0647  163.4209  178.5525 C   0  0  1  0  0  0  0  0  0  0  0  0
   86.9682  163.9819  177.4432 C   0  0  0  0  0  0  0  0  0  0  0  0
   86.6993  163.0229  176.3941 N   0  0  2  0  0  4  0  0  0  0  0  0
   85.5765  163.5137  175.6260 C   0  0  0  0  0  0  0  0  0  0  0  0
   85.2549  162.6671  174.4571 C   0  0  0  0  0  0  0  0  0  0  0  0
   83.9386  162.3841  174.0807 C   0  0  0  0  0  0  0  0  0  0  0  0
   82.7505  162.7468  174.5988 N   0  0  0  0  0  0  0  0  0  0  0  0
   81.6351  162.3013  173.9945 C   0  0  0  0  0  0  0  0  0  0  0  0
   81.7472  161.5219  172.9117 N   0  0  0  0  0  0  0  0  0  0  0  0
   82.9010  161.1356  172.3613 C   0  0  0  0  0  0  0  0  0  0  0  0
   82.9981  160.3145  171.2206 N   0  0  0  0  0  0  0  0  0  0  0  0
   84.0651  161.5860  172.9718 C   0  0  0  0  0  0  0  0  0  0  0  0
   85.3771  161.4052  172.7050 N   0  0  0  0  0  0  0  0  0  0  0  0
   86.1345  162.0643  173.6099 C   0  0  0  0  0  0  0  0  0  0  0  0
   86.4516  161.7524  176.9988 C   0  0  0  0  0  0  0  0  0  0  0  0
   86.5398  161.9817  178.5459 C   0  0  2  0  0  0  0  0  0  0  0  0
   85.5748  161.0542  179.1973 C   0  0  0  0  0  0  0  0  0  0  0  0
   86.2438  159.5299  179.7955 S   0  0  0  0  0  0  0  0  0  0  0  0
   87.3724  159.6866  181.1570 C   0  0  0  0  0  0  0  0  0  0  0  0
   88.6603  158.9655  180.9133 C   0  0  0  0  0  0  0  0  0  0  0  0
   88.6977  157.7009  181.7180 C   0  0  0  0  0  0  0  0  0  0  0  0
   90.0446  157.0931  181.6472 C   0  0  0  0  0  0  0  0  0  0  0  0
   91.2587  157.6506  181.5460 N   0  0  0  0  0  0  0  0  0  0  0  0
   92.1957  156.7276  181.5105 N   0  0  0  0  0  0  0  0  0  0  0  0
   91.6189  155.5472  181.5874 N   0  0  0  0  0  0  0  0  0  0  0  0
   90.2948  155.7197  181.6734 C   0  0  0  0  0  0  0  0  0  0  0  0
   92.2846  154.2325  181.5808 C   0  0  0  0  0  0  0  0  0  0  0  0
   92.3226  153.8356  180.1447 C   0  0  0  0  0  0  0  0  0  0  0  0
   91.8164  152.6313  179.7395 C   0  0  0  0  0  0  0  0  0  0  0  0
   91.8715  152.3075  178.3978 C   0  0  0  0  0  0  0  0  0  0  0  0
   92.4234  153.1817  177.5032 C   0  0  0  0  0  0  0  0  0  0  0  0
   92.9392  154.4082  177.9147 C   0  0  0  0  0  0  0  0  0  0  0  0
   92.8771  154.7138  179.2457 C   0  0  0  0  0  0  0  0  0  0  0  0
  2  1  1  1
  2  3  1  0
  2 17  1  0
  3  4  1  0
  4  5  1  1
  4 16  1  0
  5  6  1  0
  6  7  1  0
  6 15  2  0
  7  8  2  0
  7 13  1  0
  8  9  1  0
  9 10  2  0
 10 11  1  0
 11 12  1  0
 11 13  2  0
 13 14  1  0
 14 15  1  0
 16 17  1  0
 17 18  1  1
 18 19  1  0
 19 20  1  0
 20 21  1  0
 21 22  1  0
 22 23  1  0
 23 24  1  0
 23 27  2  0
 24 25  2  0
 25 26  1  0
 26 27  1  0
 26 28  1  0
 28 29  1  0
 29 30  2  0
 29 34  1  0
 30 31  1  0
 31 32  2  0
 32 33  1  0
 33 34  2  0
M  CHG  1   4   1
M  END
$$$$
