
     RDKit          3D

 34 38  0  0  0  0  0  0  0  0999 V2000
   86.6716  164.5218  179.9619 O   0  0  0  0  0  0  0  0  0  0  0  0
   86.1008  163.4059  179.4015 C   0  0  1  0  0  0  0  0  0  0  0  0
   85.3668  163.8434  178.1377 C   0  0  0  0  0  0  0  0  0  0  0  0
   86.3843  163.7523  177.1497 N   0  0  2  0  0  4  0  0  0  0  0  0
   86.0041  164.0095  175.8013 C   0  0  0  0  0  0  0  0  0  0  0  0
   84.7599  163.2095  175.5166 C   0  0  0  0  0  0  0  0  0  0  0  0
   84.3633  162.6248  174.3324 C   0  0  0  0  0  0  0  0  0  0  0  0
   84.9243  162.5944  173.1217 N   0  0  0  0  0  0  0  0  0  0  0  0
   84.3325  161.9486  172.1158 C   0  0  0  0  0  0  0  0  0  0  0  0
   83.1474  161.3054  172.2931 N   0  0  0  0  0  0  0  0  0  0  0  0
   82.5377  161.3021  173.4868 C   0  0  0  0  0  0  0  0  0  0  0  0
   81.3062  160.6130  173.6156 N   0  0  0  0  0  0  0  0  0  0  0  0
   83.1464  161.9678  174.5245 C   0  0  0  0  0  0  0  0  0  0  0  0
   82.8242  162.1587  175.8010 N   0  0  0  0  0  0  0  0  0  0  0  0
   83.7707  162.8995  176.4242 C   0  0  0  0  0  0  0  0  0  0  0  0
   86.8895  162.4051  177.3532 C   0  0  0  0  0  0  0  0  0  0  0  0
   87.1562  162.4682  178.8578 C   0  0  2  0  0  0  0  0  0  0  0  0
   87.0045  161.1360  179.5084 C   0  0  0  0  0  0  0  0  0  0  0  0
   87.0971  159.8275  178.2269 S   0  0  0  0  0  0  0  0  0  0  0  0
   88.6712  158.9694  178.5149 C   0  0  0  0  0  0  0  0  0  0  0  0
   89.4404  159.0272  177.1926 C   0  0  0  0  0  0  0  0  0  0  0  0
   90.3103  157.7917  177.1783 C   0  0  0  0  0  0  0  0  0  0  0  0
   90.3616  157.1863  178.5261 C   0  0  0  0  0  0  0  0  0  0  0  0
   91.2286  157.4497  179.5183 N   0  0  0  0  0  0  0  0  0  0  0  0
   90.9351  156.6968  180.5671 N   0  0  0  0  0  0  0  0  0  0  0  0
   89.8734  155.9267  180.2845 N   0  0  0  0  0  0  0  0  0  0  0  0
   89.5149  156.2219  179.0317 C   0  0  0  0  0  0  0  0  0  0  0  0
   89.3106  154.9893  181.2328 C   0  0  0  0  0  0  0  0  0  0  0  0
   90.0950  153.7250  181.3294 C   0  0  0  0  0  0  0  0  0  0  0  0
   90.7857  153.2378  180.2412 C   0  0  0  0  0  0  0  0  0  0  0  0
   91.5040  152.0745  180.3556 C   0  0  0  0  0  0  0  0  0  0  0  0
   91.5496  151.3768  181.5481 C   0  0  0  0  0  0  0  0  0  0  0  0
   90.8689  151.8453  182.6421 C   0  0  0  0  0  0  0  0  0  0  0  0
   90.1455  153.0242  182.5130 C   0  0  0  0  0  0  0  0  0  0  0  0
  2  1  1  6
  3  2  1  1
  2 17  1  0
  3  4  1  0
  4  5  1  6
  4 16  1  0
  5  6  1  6
  6  7  1  0
  6 15  2  0
  7  8  2  0
  7 13  1  0
  8  9  1  0
  9 10  2  0
 10 11  1  0
 11 12  1  0
 11 13  2  0
 13 14  1  0
 14 15  1  0
 16 17  1  6
 17 18  1  1
 18 19  1  6
 20 19  1  1
 21 20  1  1
 21 22  1  0
 22 23  1  6
 23 24  1  0
 23 27  2  0
 24 25  2  0
 25 26  1  0
 26 27  1  0
 28 26  1  1
 28 29  1  0
 29 30  2  0
 29 34  1  0
 30 31  1  0
 31 32  2  0
 32 33  1  0
 33 34  2  0
M  CHG  1   4   1
M  END
$$$$
