
     RDKit          3D

 34 38  0  0  0  0  0  0  0  0999 V2000
   58.6246  175.0527  184.6511 O   0  0  0  0  0  0  0  0  0  0  0  0
   57.4779  174.2987  184.6903 C   0  0  1  0  0  0  0  0  0  0  0  0
   56.3168  175.1951  184.2710 C   0  0  0  0  0  0  0  0  0  0  0  0
   56.3073  175.0375  182.8586 N   0  0  2  0  0  4  0  0  0  0  0  0
   55.2602  175.6834  182.1408 C   0  0  0  0  0  0  0  0  0  0  0  0
   55.8907  176.4686  181.0205 C   0  0  0  0  0  0  0  0  0  0  0  0
   56.2163  176.0465  179.7488 C   0  0  0  0  0  0  0  0  0  0  0  0
   56.0914  174.8636  179.1432 N   0  0  0  0  0  0  0  0  0  0  0  0
   56.4890  174.7029  177.8801 C   0  0  0  0  0  0  0  0  0  0  0  0
   57.0296  175.7333  177.1762 N   0  0  0  0  0  0  0  0  0  0  0  0
   57.1795  176.9434  177.7327 C   0  0  0  0  0  0  0  0  0  0  0  0
   57.7454  177.9819  176.9518 N   0  0  0  0  0  0  0  0  0  0  0  0
   56.7705  177.1105  179.0347 C   0  0  0  0  0  0  0  0  0  0  0  0
   56.7750  178.1480  179.8673 N   0  0  0  0  0  0  0  0  0  0  0  0
   56.2542  177.7968  181.0667 C   0  0  0  0  0  0  0  0  0  0  0  0
   56.2928  173.5918  182.7116 C   0  0  0  0  0  0  0  0  0  0  0  0
   57.4825  173.2427  183.6069 C   0  0  2  0  0  0  0  0  0  0  0  0
   57.3329  171.9001  184.2363 C   0  0  0  0  0  0  0  0  0  0  0  0
   55.5616  171.4250  184.2244 S   0  0  0  0  0  0  0  0  0  0  0  0
   55.1645  170.9693  185.9366 C   0  0  0  0  0  0  0  0  0  0  0  0
   55.7749  169.5842  186.1654 C   0  0  0  0  0  0  0  0  0  0  0  0
   55.0882  169.0398  187.3964 C   0  0  0  0  0  0  0  0  0  0  0  0
   54.3338  170.1129  188.0784 C   0  0  0  0  0  0  0  0  0  0  0  0
   54.7786  170.9722  189.0107 N   0  0  0  0  0  0  0  0  0  0  0  0
   53.7922  171.7803  189.3670 N   0  0  0  0  0  0  0  0  0  0  0  0
   52.6841  171.4679  188.6780 N   0  0  0  0  0  0  0  0  0  0  0  0
   53.0089  170.4440  187.8835 C   0  0  0  0  0  0  0  0  0  0  0  0
   51.4315  172.1730  188.8467 C   0  0  0  0  0  0  0  0  0  0  0  0
   50.7660  171.8647  190.1448 C   0  0  0  0  0  0  0  0  0  0  0  0
   49.7793  170.9060  190.2222 C   0  0  0  0  0  0  0  0  0  0  0  0
   49.1844  170.6368  191.4288 C   0  0  0  0  0  0  0  0  0  0  0  0
   49.5573  171.3120  192.5762 C   0  0  0  0  0  0  0  0  0  0  0  0
   50.5369  172.2695  192.5195 C   0  0  0  0  0  0  0  0  0  0  0  0
   51.1312  172.5324  191.2917 C   0  0  0  0  0  0  0  0  0  0  0  0
  2  1  1  6
  3  2  1  1
  2 17  1  0
  3  4  1  0
  4  5  1  1
  4 16  1  0
  5  6  1  6
  6  7  1  0
  6 15  2  0
  7  8  2  0
  7 13  1  0
  8  9  1  0
  9 10  2  0
 10 11  1  0
 11 12  1  0
 11 13  2  0
 13 14  1  0
 14 15  1  0
 16 17  1  6
 17 18  1  1
 18 19  1  6
 20 19  1  1
 21 20  1  1
 21 22  1  0
 22 23  1  6
 23 24  1  0
 23 27  2  0
 24 25  2  0
 25 26  1  0
 26 27  1  0
 28 26  1  1
 28 29  1  0
 29 30  2  0
 29 34  1  0
 30 31  1  0
 31 32  2  0
 32 33  1  0
 33 34  2  0
M  CHG  1   4   1
M  END
$$$$
