
     RDKit          3D

 34 38  0  0  0  0  0  0  0  0999 V2000
   86.3379  164.0651  180.1256 O   0  0  0  0  0  0  0  0  0  0  0  0
   86.0777  163.3244  179.0064 C   0  0  1  0  0  0  0  0  0  0  0  0
   85.9580  164.2614  177.7942 C   0  0  0  0  0  0  0  0  0  0  0  0
   85.8833  163.2843  176.7303 N   0  0  2  0  0  4  0  0  0  0  0  0
   84.4885  162.9618  176.5255 C   0  0  0  0  0  0  0  0  0  0  0  0
   84.2150  162.3731  175.1969 C   0  0  0  0  0  0  0  0  0  0  0  0
   83.4012  163.0070  174.2534 C   0  0  0  0  0  0  0  0  0  0  0  0
   82.7254  164.1708  174.2762 N   0  0  0  0  0  0  0  0  0  0  0  0
   82.0162  164.5112  173.1858 C   0  0  0  0  0  0  0  0  0  0  0  0
   82.0091  163.6884  172.1297 N   0  0  0  0  0  0  0  0  0  0  0  0
   82.6622  162.5256  172.0594 C   0  0  0  0  0  0  0  0  0  0  0  0
   82.6422  161.6732  170.9379 N   0  0  0  0  0  0  0  0  0  0  0  0
   83.4009  162.1565  173.1768 C   0  0  0  0  0  0  0  0  0  0  0  0
   84.1679  161.0817  173.4628 N   0  0  0  0  0  0  0  0  0  0  0  0
   84.6834  161.1917  174.7075 C   0  0  0  0  0  0  0  0  0  0  0  0
   86.6709  162.1521  177.1034 C   0  0  0  0  0  0  0  0  0  0  0  0
   87.2314  162.4633  178.5326 C   0  0  2  0  0  0  0  0  0  0  0  0
   87.3290  161.1748  179.2717 C   0  0  0  0  0  0  0  0  0  0  0  0
   88.9068  160.3758  179.2372 S   0  0  0  0  0  0  0  0  0  0  0  0
   89.0108  158.9621  178.1684 C   0  0  0  0  0  0  0  0  0  0  0  0
   88.8928  157.6729  178.9182 C   0  0  0  0  0  0  0  0  0  0  0  0
   89.6077  156.5834  178.1764 C   0  0  0  0  0  0  0  0  0  0  0  0
   91.0574  156.8731  178.1210 C   0  0  0  0  0  0  0  0  0  0  0  0
   91.7793  157.5942  177.2528 N   0  0  0  0  0  0  0  0  0  0  0  0
   93.0530  157.5851  177.5825 N   0  0  0  0  0  0  0  0  0  0  0  0
   93.1948  156.8596  178.6714 N   0  0  0  0  0  0  0  0  0  0  0  0
   91.9941  156.3995  179.0417 C   0  0  0  0  0  0  0  0  0  0  0  0
   94.4490  156.5759  179.3912 C   0  0  0  0  0  0  0  0  0  0  0  0
   94.6646  155.1120  179.2120 C   0  0  0  0  0  0  0  0  0  0  0  0
   94.6370  154.2656  180.2859 C   0  0  0  0  0  0  0  0  0  0  0  0
   94.8397  152.9162  180.0709 C   0  0  0  0  0  0  0  0  0  0  0  0
   95.0623  152.4490  178.8055 C   0  0  0  0  0  0  0  0  0  0  0  0
   95.0905  153.3101  177.7112 C   0  0  0  0  0  0  0  0  0  0  0  0
   94.8882  154.6424  177.9406 C   0  0  0  0  0  0  0  0  0  0  0  0
  2  1  1  1
  2  3  1  0
  2 17  1  0
  3  4  1  0
  4  5  1  1
  4 16  1  0
  5  6  1  0
  6  7  1  0
  6 15  2  0
  7  8  2  0
  7 13  1  0
  8  9  1  0
  9 10  2  0
 10 11  1  0
 11 12  1  0
 11 13  2  0
 13 14  1  0
 14 15  1  0
 16 17  1  0
 17 18  1  1
 18 19  1  0
 19 20  1  0
 20 21  1  0
 21 22  1  0
 22 23  1  0
 23 24  1  0
 23 27  2  0
 24 25  2  0
 25 26  1  0
 26 27  1  0
 26 28  1  0
 28 29  1  0
 29 30  2  0
 29 34  1  0
 30 31  1  0
 31 32  2  0
 32 33  1  0
 33 34  2  0
M  CHG  1   4   1
M  END
$$$$
