
     RDKit          3D

 34 38  0  0  0  0  0  0  0  0999 V2000
   88.2818  166.1021  178.3531 O   0  0  0  0  0  0  0  0  0  0  0  0
   87.9426  164.7883  178.1431 C   0  0  1  0  0  0  0  0  0  0  0  0
   86.4279  164.7198  177.9757 C   0  0  0  0  0  0  0  0  0  0  0  0
   86.2678  164.9277  176.5789 N   0  0  2  0  0  4  0  0  0  0  0  0
   84.9466  164.8306  176.0557 C   0  0  0  0  0  0  0  0  0  0  0  0
   84.9097  163.6477  175.1238 C   0  0  0  0  0  0  0  0  0  0  0  0
   84.3527  162.4035  175.3317 C   0  0  0  0  0  0  0  0  0  0  0  0
   83.7115  161.8777  176.3776 N   0  0  0  0  0  0  0  0  0  0  0  0
   83.2576  160.6241  176.3349 C   0  0  0  0  0  0  0  0  0  0  0  0
   83.4331  159.8496  175.2308 N   0  0  0  0  0  0  0  0  0  0  0  0
   84.0693  160.3244  174.1509 C   0  0  0  0  0  0  0  0  0  0  0  0
   84.2209  159.4748  173.0268 N   0  0  0  0  0  0  0  0  0  0  0  0
   84.5382  161.6162  174.1937 C   0  0  0  0  0  0  0  0  0  0  0  0
   85.1948  162.3788  173.3235 N   0  0  0  0  0  0  0  0  0  0  0  0
   85.4333  163.6031  173.8501 C   0  0  0  0  0  0  0  0  0  0  0  0
   87.1782  163.9445  176.0164 C   0  0  0  0  0  0  0  0  0  0  0  0
   88.4416  164.3046  176.7993 C   0  0  2  0  0  0  0  0  0  0  0  0
   89.3263  163.1231  177.0060 C   0  0  0  0  0  0  0  0  0  0  0  0
   88.2927  161.6600  177.3988 S   0  0  0  0  0  0  0  0  0  0  0  0
   88.8085  161.1257  179.0558 C   0  0  0  0  0  0  0  0  0  0  0  0
   87.8693  159.9831  179.4507 C   0  0  0  0  0  0  0  0  0  0  0  0
   88.4327  158.7499  178.7836 C   0  0  0  0  0  0  0  0  0  0  0  0
   88.0008  157.5345  179.5062 C   0  0  0  0  0  0  0  0  0  0  0  0
   86.8434  157.3266  180.1563 N   0  0  0  0  0  0  0  0  0  0  0  0
   86.8427  156.1059  180.6689 N   0  0  0  0  0  0  0  0  0  0  0  0
   87.9961  155.4908  180.3665 N   0  0  0  0  0  0  0  0  0  0  0  0
   88.7134  156.3625  179.6517 C   0  0  0  0  0  0  0  0  0  0  0  0
   88.2983  154.1399  180.7890 C   0  0  0  0  0  0  0  0  0  0  0  0
   89.5199  153.5901  180.1345 C   0  0  0  0  0  0  0  0  0  0  0  0
   90.7626  153.7565  180.7060 C   0  0  0  0  0  0  0  0  0  0  0  0
   91.8718  153.2378  180.0872 C   0  0  0  0  0  0  0  0  0  0  0  0
   91.7675  152.5471  178.8942 C   0  0  0  0  0  0  0  0  0  0  0  0
   90.5398  152.3713  178.3098 C   0  0  0  0  0  0  0  0  0  0  0  0
   89.4248  152.9014  178.9467 C   0  0  0  0  0  0  0  0  0  0  0  0
  2  1  1  6
  3  2  1  1
  2 17  1  0
  3  4  1  0
  4  5  1  6
  4 16  1  0
  5  6  1  6
  6  7  1  0
  6 15  2  0
  7  8  2  0
  7 13  1  0
  8  9  1  0
  9 10  2  0
 10 11  1  0
 11 12  1  0
 11 13  2  0
 13 14  1  0
 14 15  1  0
 16 17  1  6
 17 18  1  1
 18 19  1  6
 20 19  1  1
 21 20  1  1
 21 22  1  0
 22 23  1  6
 23 24  1  0
 23 27  2  0
 24 25  2  0
 25 26  1  0
 26 27  1  0
 28 26  1  1
 28 29  1  0
 29 30  2  0
 29 34  1  0
 30 31  1  0
 31 32  2  0
 32 33  1  0
 33 34  2  0
M  CHG  1   4   1
M  END
$$$$
