
     RDKit          3D

 34 38  0  0  0  0  0  0  0  0999 V2000
   86.5719  162.7993  179.6664 O   0  0  0  0  0  0  0  0  0  0  0  0
   86.1763  162.3144  178.4511 C   0  0  1  0  0  0  0  0  0  0  0  0
   86.2968  163.4264  177.3973 C   0  0  0  0  0  0  0  0  0  0  0  0
   86.0276  162.6636  176.1981 N   0  0  2  0  0  4  0  0  0  0  0  0
   84.6008  162.6987  175.9647 C   0  0  0  0  0  0  0  0  0  0  0  0
   84.2040  162.0781  174.6826 C   0  0  0  0  0  0  0  0  0  0  0  0
   83.3042  162.6897  173.8048 C   0  0  0  0  0  0  0  0  0  0  0  0
   82.6320  163.8544  173.8628 N   0  0  0  0  0  0  0  0  0  0  0  0
   81.8228  164.1689  172.8361 C   0  0  0  0  0  0  0  0  0  0  0  0
   81.7173  163.3205  171.8058 N   0  0  0  0  0  0  0  0  0  0  0  0
   82.3623  162.1557  171.7026 C   0  0  0  0  0  0  0  0  0  0  0  0
   82.2379  161.2763  170.6091 N   0  0  0  0  0  0  0  0  0  0  0  0
   83.2035  161.8132  172.7540 C   0  0  0  0  0  0  0  0  0  0  0  0
   83.9955  160.7450  172.9926 N   0  0  0  0  0  0  0  0  0  0  0  0
   84.6258  160.8847  174.1800 C   0  0  0  0  0  0  0  0  0  0  0  0
   86.5321  161.3399  176.3843 C   0  0  0  0  0  0  0  0  0  0  0  0
   87.1170  161.2970  177.8369 C   0  0  2  0  0  0  0  0  0  0  0  0
   86.9061  159.9232  178.3700 C   0  0  0  0  0  0  0  0  0  0  0  0
   88.3622  159.0490  178.8648 S   0  0  0  0  0  0  0  0  0  0  0  0
   89.5047  158.6884  177.5547 C   0  0  0  0  0  0  0  0  0  0  0  0
   90.8883  159.1692  177.8589 C   0  0  0  0  0  0  0  0  0  0  0  0
   91.7841  158.0007  178.1430 C   0  0  0  0  0  0  0  0  0  0  0  0
   91.5997  157.5465  179.5387 C   0  0  0  0  0  0  0  0  0  0  0  0
   90.9316  158.0942  180.5626 N   0  0  0  0  0  0  0  0  0  0  0  0
   91.0328  157.3467  181.6407 N   0  0  0  0  0  0  0  0  0  0  0  0
   91.7679  156.2948  181.3489 N   0  0  0  0  0  0  0  0  0  0  0  0
   92.1406  156.3723  180.0661 C   0  0  0  0  0  0  0  0  0  0  0  0
   92.1422  155.1950  182.2556 C   0  0  0  0  0  0  0  0  0  0  0  0
   91.0228  154.2172  182.1455 C   0  0  0  0  0  0  0  0  0  0  0  0
   91.2744  152.8855  181.9612 C   0  0  0  0  0  0  0  0  0  0  0  0
   90.2051  152.0163  181.8671 C   0  0  0  0  0  0  0  0  0  0  0  0
   88.9259  152.4900  181.9580 C   0  0  0  0  0  0  0  0  0  0  0  0
   88.6684  153.8458  182.1458 C   0  0  0  0  0  0  0  0  0  0  0  0
   89.7374  154.6930  182.2369 C   0  0  0  0  0  0  0  0  0  0  0  0
  2  1  1  1
  2  3  1  0
  2 17  1  0
  3  4  1  0
  4  5  1  1
  4 16  1  0
  5  6  1  0
  6  7  1  0
  6 15  2  0
  7  8  2  0
  7 13  1  0
  8  9  1  0
  9 10  2  0
 10 11  1  0
 11 12  1  0
 11 13  2  0
 13 14  1  0
 14 15  1  0
 16 17  1  0
 17 18  1  1
 18 19  1  0
 19 20  1  0
 20 21  1  0
 21 22  1  0
 22 23  1  0
 23 24  1  0
 23 27  2  0
 24 25  2  0
 25 26  1  0
 26 27  1  0
 26 28  1  0
 28 29  1  0
 29 30  2  0
 29 34  1  0
 30 31  1  0
 31 32  2  0
 32 33  1  0
 33 34  2  0
M  CHG  1   4   1
M  END
$$$$
