
     RDKit          3D

 34 38  0  0  0  0  0  0  0  0999 V2000
   58.9856  171.6386  184.1396 O   0  0  0  0  0  0  0  0  0  0  0  0
   58.4213  172.8693  183.9115 C   0  0  1  0  0  0  0  0  0  0  0  0
   58.2520  173.0316  182.4041 C   0  0  0  0  0  0  0  0  0  0  0  0
   56.9691  172.4623  182.1803 N   0  0  2  0  0  4  0  0  0  0  0  0
   56.4488  172.5355  180.8564 C   0  0  0  0  0  0  0  0  0  0  0  0
   55.9712  173.9461  180.6303 C   0  0  0  0  0  0  0  0  0  0  0  0
   56.6822  175.0330  180.1670 C   0  0  0  0  0  0  0  0  0  0  0  0
   57.9582  175.1731  179.8014 N   0  0  0  0  0  0  0  0  0  0  0  0
   58.4175  176.3523  179.3799 C   0  0  0  0  0  0  0  0  0  0  0  0
   57.6041  177.4400  179.3101 N   0  0  0  0  0  0  0  0  0  0  0  0
   56.3140  177.3587  179.6642 C   0  0  0  0  0  0  0  0  0  0  0  0
   55.5113  178.5226  179.5682 N   0  0  0  0  0  0  0  0  0  0  0  0
   55.8392  176.1440  180.0993 C   0  0  0  0  0  0  0  0  0  0  0  0
   54.6470  175.7254  180.5156 N   0  0  0  0  0  0  0  0  0  0  0  0
   54.6920  174.4121  180.8418 C   0  0  0  0  0  0  0  0  0  0  0  0
   56.1493  173.1616  183.1553 C   0  0  0  0  0  0  0  0  0  0  0  0
   56.9925  172.9141  184.4070 C   0  0  2  0  0  0  0  0  0  0  0  0
   56.8566  174.0178  185.3992 C   0  0  0  0  0  0  0  0  0  0  0  0
   56.3502  175.5500  184.5280 S   0  0  0  0  0  0  0  0  0  0  0  0
   54.5353  175.5134  184.4861 C   0  0  0  0  0  0  0  0  0  0  0  0
   54.0692  176.9354  184.8088 C   0  0  0  0  0  0  0  0  0  0  0  0
   53.3503  176.8326  186.1339 C   0  0  0  0  0  0  0  0  0  0  0  0
   54.2050  177.3541  187.2217 C   0  0  0  0  0  0  0  0  0  0  0  0
   54.8980  176.6548  188.1360 N   0  0  0  0  0  0  0  0  0  0  0  0
   55.5388  177.4940  188.9350 N   0  0  0  0  0  0  0  0  0  0  0  0
   55.2793  178.7564  188.5621 N   0  0  0  0  0  0  0  0  0  0  0  0
   54.4601  178.6788  187.5093 C   0  0  0  0  0  0  0  0  0  0  0  0
   55.8346  179.9053  189.2449 C   0  0  0  0  0  0  0  0  0  0  0  0
   54.9363  181.0943  189.1981 C   0  0  0  0  0  0  0  0  0  0  0  0
   54.1834  181.4540  190.2946 C   0  0  0  0  0  0  0  0  0  0  0  0
   53.3671  182.5547  190.2290 C   0  0  0  0  0  0  0  0  0  0  0  0
   53.2842  183.3156  189.0777 C   0  0  0  0  0  0  0  0  0  0  0  0
   54.0253  182.9738  187.9761 C   0  0  0  0  0  0  0  0  0  0  0  0
   54.8478  181.8571  188.0557 C   0  0  0  0  0  0  0  0  0  0  0  0
  2  1  1  6
  3  2  1  1
  2 17  1  0
  3  4  1  0
  4  5  1  6
  4 16  1  0
  5  6  1  6
  6  7  1  0
  6 15  2  0
  7  8  2  0
  7 13  1  0
  8  9  1  0
  9 10  2  0
 10 11  1  0
 11 12  1  0
 11 13  2  0
 13 14  1  0
 14 15  1  0
 16 17  1  6
 17 18  1  1
 18 19  1  6
 20 19  1  1
 21 20  1  1
 21 22  1  0
 22 23  1  6
 23 24  1  0
 23 27  2  0
 24 25  2  0
 25 26  1  0
 26 27  1  0
 28 26  1  1
 28 29  1  0
 29 30  2  0
 29 34  1  0
 30 31  1  0
 31 32  2  0
 32 33  1  0
 33 34  2  0
M  CHG  1   4   1
M  END
$$$$
