
     RDKit          3D

 34 38  0  0  0  0  0  0  0  0999 V2000
   87.0830  164.2915  178.2207 O   0  0  0  0  0  0  0  0  0  0  0  0
   86.1324  163.4266  177.7379 C   0  0  1  0  0  0  0  0  0  0  0  0
   85.8221  163.8315  176.3001 C   0  0  0  0  0  0  0  0  0  0  0  0
   86.7883  163.0949  175.5628 N   0  0  2  0  0  4  0  0  0  0  0  0
   86.7179  163.1727  174.1423 C   0  0  0  0  0  0  0  0  0  0  0  0
   85.4658  162.4572  173.7069 C   0  0  0  0  0  0  0  0  0  0  0  0
   84.2188  162.9843  173.4449 C   0  0  0  0  0  0  0  0  0  0  0  0
   83.7485  164.2321  173.5027 N   0  0  0  0  0  0  0  0  0  0  0  0
   82.4771  164.4928  173.1949 C   0  0  0  0  0  0  0  0  0  0  0  0
   81.6276  163.5011  172.8150 N   0  0  0  0  0  0  0  0  0  0  0  0
   82.0442  162.2294  172.7389 C   0  0  0  0  0  0  0  0  0  0  0  0
   81.1173  161.2368  172.3339 N   0  0  0  0  0  0  0  0  0  0  0  0
   83.3543  161.9590  173.0563 C   0  0  0  0  0  0  0  0  0  0  0  0
   84.0746  160.8409  173.0869 N   0  0  0  0  0  0  0  0  0  0  0  0
   85.3452  161.1048  173.4731 C   0  0  0  0  0  0  0  0  0  0  0  0
   86.5990  161.7467  176.0708 C   0  0  0  0  0  0  0  0  0  0  0  0
   86.6979  162.0335  177.5697 C   0  0  2  0  0  0  0  0  0  0  0  0
   85.8858  161.0787  178.3759 C   0  0  0  0  0  0  0  0  0  0  0  0
   86.4422  159.3678  178.0208 S   0  0  0  0  0  0  0  0  0  0  0  0
   88.2152  159.3375  178.4115 C   0  0  0  0  0  0  0  0  0  0  0  0
   88.3327  158.7802  179.8325 C   0  0  0  0  0  0  0  0  0  0  0  0
   88.1104  157.2914  179.7008 C   0  0  0  0  0  0  0  0  0  0  0  0
   89.1385  156.5510  180.4629 C   0  0  0  0  0  0  0  0  0  0  0  0
   89.2338  156.4036  181.7950 N   0  0  0  0  0  0  0  0  0  0  0  0
   90.2966  155.6668  182.0786 N   0  0  0  0  0  0  0  0  0  0  0  0
   90.9179  155.3177  180.9419 N   0  0  0  0  0  0  0  0  0  0  0  0
   90.2119  155.8573  179.9441 C   0  0  0  0  0  0  0  0  0  0  0  0
   92.1184  154.5095  180.9210 C   0  0  0  0  0  0  0  0  0  0  0  0
   92.1055  153.4305  181.9500 C   0  0  0  0  0  0  0  0  0  0  0  0
   92.7559  153.5950  183.1535 C   0  0  0  0  0  0  0  0  0  0  0  0
   92.7264  152.5895  184.0866 C   0  0  0  0  0  0  0  0  0  0  0  0
   92.0530  151.4072  183.8423 C   0  0  0  0  0  0  0  0  0  0  0  0
   91.4000  151.2245  182.6508 C   0  0  0  0  0  0  0  0  0  0  0  0
   91.4375  152.2503  181.7147 C   0  0  0  0  0  0  0  0  0  0  0  0
  2  1  1  6
  3  2  1  1
  2 17  1  0
  3  4  1  0
  4  5  1  6
  4 16  1  0
  5  6  1  6
  6  7  1  0
  6 15  2  0
  7  8  2  0
  7 13  1  0
  8  9  1  0
  9 10  2  0
 10 11  1  0
 11 12  1  0
 11 13  2  0
 13 14  1  0
 14 15  1  0
 16 17  1  6
 17 18  1  1
 18 19  1  6
 20 19  1  1
 21 20  1  1
 21 22  1  0
 22 23  1  6
 23 24  1  0
 23 27  2  0
 24 25  2  0
 25 26  1  0
 26 27  1  0
 28 26  1  1
 28 29  1  0
 29 30  2  0
 29 34  1  0
 30 31  1  0
 31 32  2  0
 32 33  1  0
 33 34  2  0
M  CHG  1   4   1
M  END
$$$$
