
     RDKit          3D

 34 38  0  0  0  0  0  0  0  0999 V2000
   86.7338  162.9893  179.6946 O   0  0  0  0  0  0  0  0  0  0  0  0
   86.0904  162.4607  178.6104 C   0  0  1  0  0  0  0  0  0  0  0  0
   86.2366  163.4178  177.4171 C   0  0  0  0  0  0  0  0  0  0  0  0
   85.6733  162.5963  176.3682 N   0  0  2  0  0  4  0  0  0  0  0  0
   84.2530  162.8638  176.3140 C   0  0  0  0  0  0  0  0  0  0  0  0
   83.5912  162.2646  175.1353 C   0  0  0  0  0  0  0  0  0  0  0  0
   83.1374  163.0368  174.0619 C   0  0  0  0  0  0  0  0  0  0  0  0
   83.1656  164.3611  173.8230 N   0  0  0  0  0  0  0  0  0  0  0  0
   82.6353  164.8067  172.6706 C   0  0  0  0  0  0  0  0  0  0  0  0
   82.1049  163.9257  171.8133 N   0  0  0  0  0  0  0  0  0  0  0  0
   82.0535  162.6051  172.0051 C   0  0  0  0  0  0  0  0  0  0  0  0
   81.4907  161.6937  171.0900 N   0  0  0  0  0  0  0  0  0  0  0  0
   82.5966  162.1252  173.1906 C   0  0  0  0  0  0  0  0  0  0  0  0
   82.7211  160.8860  173.7142 N   0  0  0  0  0  0  0  0  0  0  0  0
   83.3336  160.9451  174.9176 C   0  0  0  0  0  0  0  0  0  0  0  0
   85.9751  161.2298  176.6561 C   0  0  0  0  0  0  0  0  0  0  0  0
   86.7509  161.2324  178.0170 C   0  0  2  0  0  0  0  0  0  0  0  0
   86.3975  159.9817  178.7427 C   0  0  0  0  0  0  0  0  0  0  0  0
   87.6708  158.7585  178.8502 S   0  0  0  0  0  0  0  0  0  0  0  0
   89.2222  159.3416  179.4866 C   0  0  0  0  0  0  0  0  0  0  0  0
   90.2210  158.2393  179.6468 C   0  0  0  0  0  0  0  0  0  0  0  0
   89.7305  157.2492  180.6605 C   0  0  0  0  0  0  0  0  0  0  0  0
   90.6390  156.0828  180.7124 C   0  0  0  0  0  0  0  0  0  0  0  0
   90.3869  154.7674  180.6786 N   0  0  0  0  0  0  0  0  0  0  0  0
   91.5032  154.0751  180.7544 N   0  0  0  0  0  0  0  0  0  0  0  0
   92.5098  154.9186  180.8396 N   0  0  0  0  0  0  0  0  0  0  0  0
   92.0287  156.1670  180.8176 C   0  0  0  0  0  0  0  0  0  0  0  0
   93.9412  154.5839  180.9453 C   0  0  0  0  0  0  0  0  0  0  0  0
   94.3757  154.3359  179.5414 C   0  0  0  0  0  0  0  0  0  0  0  0
   94.9723  155.3257  178.8100 C   0  0  0  0  0  0  0  0  0  0  0  0
   95.3605  155.0488  177.5135 C   0  0  0  0  0  0  0  0  0  0  0  0
   95.1469  153.8066  176.9840 C   0  0  0  0  0  0  0  0  0  0  0  0
   94.5394  152.7979  177.7279 C   0  0  0  0  0  0  0  0  0  0  0  0
   94.1613  153.0878  179.0092 C   0  0  0  0  0  0  0  0  0  0  0  0
  2  1  1  1
  2  3  1  0
  2 17  1  0
  3  4  1  0
  4  5  1  1
  4 16  1  0
  5  6  1  0
  6  7  1  0
  6 15  2  0
  7  8  2  0
  7 13  1  0
  8  9  1  0
  9 10  2  0
 10 11  1  0
 11 12  1  0
 11 13  2  0
 13 14  1  0
 14 15  1  0
 16 17  1  0
 17 18  1  1
 18 19  1  0
 19 20  1  0
 20 21  1  0
 21 22  1  0
 22 23  1  0
 23 24  1  0
 23 27  2  0
 24 25  2  0
 25 26  1  0
 26 27  1  0
 26 28  1  0
 28 29  1  0
 29 30  2  0
 29 34  1  0
 30 31  1  0
 31 32  2  0
 32 33  1  0
 33 34  2  0
M  CHG  1   4   1
M  END
$$$$
