
     RDKit          3D

 34 38  0  0  0  0  0  0  0  0999 V2000
   59.0437  172.6962  185.5290 O   0  0  0  0  0  0  0  0  0  0  0  0
   57.9304  173.1679  184.8785 C   0  0  1  0  0  0  0  0  0  0  0  0
   58.3992  173.8994  183.6245 C   0  0  0  0  0  0  0  0  0  0  0  0
   58.4497  172.8526  182.6644 N   0  0  2  0  0  4  0  0  0  0  0  0
   58.7704  173.2157  181.3250 C   0  0  0  0  0  0  0  0  0  0  0  0
   57.5815  173.9410  180.7508 C   0  0  0  0  0  0  0  0  0  0  0  0
   57.5508  175.1339  180.0598 C   0  0  0  0  0  0  0  0  0  0  0  0
   58.5167  175.9857  179.7089 N   0  0  0  0  0  0  0  0  0  0  0  0
   58.2278  177.0961  179.0287 C   0  0  0  0  0  0  0  0  0  0  0  0
   56.9484  177.3913  178.6743 N   0  0  0  0  0  0  0  0  0  0  0  0
   55.9378  176.5731  178.9996 C   0  0  0  0  0  0  0  0  0  0  0  0
   54.6248  176.9282  178.6017 N   0  0  0  0  0  0  0  0  0  0  0  0
   56.2340  175.4283  179.7011 C   0  0  0  0  0  0  0  0  0  0  0  0
   55.4937  174.4278  180.1709 N   0  0  0  0  0  0  0  0  0  0  0  0
   56.2710  173.5191  180.8058 C   0  0  0  0  0  0  0  0  0  0  0  0
   57.1317  172.2544  182.7937 C   0  0  0  0  0  0  0  0  0  0  0  0
   57.1109  172.0321  184.3066 C   0  0  2  0  0  0  0  0  0  0  0  0
   55.7298  172.1015  184.8624 C   0  0  0  0  0  0  0  0  0  0  0  0
   55.5999  173.5582  185.9688 S   0  0  0  0  0  0  0  0  0  0  0  0
   53.8424  174.0147  185.9744 C   0  0  0  0  0  0  0  0  0  0  0  0
   53.6592  175.0332  184.8464 C   0  0  0  0  0  0  0  0  0  0  0  0
   52.3042  175.6583  185.0843 C   0  0  0  0  0  0  0  0  0  0  0  0
   51.6977  175.1117  186.3169 C   0  0  0  0  0  0  0  0  0  0  0  0
   51.5729  173.8229  186.6756 N   0  0  0  0  0  0  0  0  0  0  0  0
   50.9746  173.7529  187.8546 N   0  0  0  0  0  0  0  0  0  0  0  0
   50.6954  174.9905  188.2911 N   0  0  0  0  0  0  0  0  0  0  0  0
   51.1370  175.8314  187.3514 C   0  0  0  0  0  0  0  0  0  0  0  0
   50.0370  175.2461  189.5544 C   0  0  0  0  0  0  0  0  0  0  0  0
   49.0150  174.2142  189.8916 C   0  0  0  0  0  0  0  0  0  0  0  0
   49.1671  173.4044  190.9960 C   0  0  0  0  0  0  0  0  0  0  0  0
   48.2111  172.4648  191.2884 C   0  0  0  0  0  0  0  0  0  0  0  0
   47.0909  172.3129  190.4926 C   0  0  0  0  0  0  0  0  0  0  0  0
   46.9217  173.1090  189.3893 C   0  0  0  0  0  0  0  0  0  0  0  0
   47.8969  174.0565  189.1044 C   0  0  0  0  0  0  0  0  0  0  0  0
  2  1  1  6
  3  2  1  1
  2 17  1  0
  3  4  1  0
  4  5  1  6
  4 16  1  0
  5  6  1  6
  6  7  1  0
  6 15  2  0
  7  8  2  0
  7 13  1  0
  8  9  1  0
  9 10  2  0
 10 11  1  0
 11 12  1  0
 11 13  2  0
 13 14  1  0
 14 15  1  0
 16 17  1  6
 17 18  1  1
 18 19  1  6
 20 19  1  1
 21 20  1  1
 21 22  1  0
 22 23  1  6
 23 24  1  0
 23 27  2  0
 24 25  2  0
 25 26  1  0
 26 27  1  0
 28 26  1  1
 28 29  1  0
 29 30  2  0
 29 34  1  0
 30 31  1  0
 31 32  2  0
 32 33  1  0
 33 34  2  0
M  CHG  1   4   1
M  END
$$$$
