
     RDKit          3D

 34 38  0  0  0  0  0  0  0  0999 V2000
   86.5691  162.9924  179.6597 O   0  0  0  0  0  0  0  0  0  0  0  0
   86.2038  162.5403  178.4223 C   0  0  1  0  0  0  0  0  0  0  0  0
   86.5047  163.6252  177.3764 C   0  0  0  0  0  0  0  0  0  0  0  0
   86.2353  162.8840  176.1638 N   0  0  2  0  0  4  0  0  0  0  0  0
   84.8374  163.0631  175.8394 C   0  0  0  0  0  0  0  0  0  0  0  0
   84.5078  162.6818  174.4492 C   0  0  0  0  0  0  0  0  0  0  0  0
   83.5411  163.3584  173.6996 C   0  0  0  0  0  0  0  0  0  0  0  0
   82.7423  164.4037  173.9839 N   0  0  0  0  0  0  0  0  0  0  0  0
   81.8985  164.8324  173.0289 C   0  0  0  0  0  0  0  0  0  0  0  0
   81.8850  164.2099  171.8436 N   0  0  0  0  0  0  0  0  0  0  0  0
   82.6567  163.1708  171.5145 C   0  0  0  0  0  0  0  0  0  0  0  0
   82.6276  162.5291  170.2607 N   0  0  0  0  0  0  0  0  0  0  0  0
   83.5355  162.7132  172.4886 C   0  0  0  0  0  0  0  0  0  0  0  0
   84.4437  161.7135  172.5166 N   0  0  0  0  0  0  0  0  0  0  0  0
   85.0592  161.6730  173.7193 C   0  0  0  0  0  0  0  0  0  0  0  0
   86.5883  161.5172  176.3844 C   0  0  0  0  0  0  0  0  0  0  0  0
   87.0721  161.4268  177.8716 C   0  0  2  0  0  0  0  0  0  0  0  0
   86.6878  160.0864  178.3925 C   0  0  0  0  0  0  0  0  0  0  0  0
   87.8506  159.3105  179.4765 S   0  0  0  0  0  0  0  0  0  0  0  0
   89.2102  158.5041  178.6684 C   0  0  0  0  0  0  0  0  0  0  0  0
   90.5276  158.8591  179.2821 C   0  0  0  0  0  0  0  0  0  0  0  0
   90.5243  158.5043  180.7389 C   0  0  0  0  0  0  0  0  0  0  0  0
   91.0473  157.1337  180.9294 C   0  0  0  0  0  0  0  0  0  0  0  0
   91.1364  156.3690  182.0258 N   0  0  0  0  0  0  0  0  0  0  0  0
   91.6762  155.2034  181.7407 N   0  0  0  0  0  0  0  0  0  0  0  0
   91.9527  155.1776  180.4543 N   0  0  0  0  0  0  0  0  0  0  0  0
   91.5838  156.3434  179.9110 C   0  0  0  0  0  0  0  0  0  0  0  0
   92.5676  154.0701  179.7012 C   0  0  0  0  0  0  0  0  0  0  0  0
   93.6274  153.5409  180.6057 C   0  0  0  0  0  0  0  0  0  0  0  0
   94.9085  154.0143  180.5321 C   0  0  0  0  0  0  0  0  0  0  0  0
   95.8566  153.4955  181.3923 C   0  0  0  0  0  0  0  0  0  0  0  0
   95.5087  152.5288  182.2944 C   0  0  0  0  0  0  0  0  0  0  0  0
   94.2045  152.0461  182.3701 C   0  0  0  0  0  0  0  0  0  0  0  0
   93.2781  152.5697  181.5121 C   0  0  0  0  0  0  0  0  0  0  0  0
  2  1  1  1
  2  3  1  0
  2 17  1  0
  3  4  1  0
  4  5  1  1
  4 16  1  0
  5  6  1  0
  6  7  1  0
  6 15  2  0
  7  8  2  0
  7 13  1  0
  8  9  1  0
  9 10  2  0
 10 11  1  0
 11 12  1  0
 11 13  2  0
 13 14  1  0
 14 15  1  0
 16 17  1  0
 17 18  1  1
 18 19  1  0
 19 20  1  0
 20 21  1  0
 21 22  1  0
 22 23  1  0
 23 24  1  0
 23 27  2  0
 24 25  2  0
 25 26  1  0
 26 27  1  0
 26 28  1  0
 28 29  1  0
 29 30  2  0
 29 34  1  0
 30 31  1  0
 31 32  2  0
 32 33  1  0
 33 34  2  0
M  CHG  1   4   1
M  END
$$$$
