
     RDKit          3D

 34 38  0  0  0  0  0  0  0  0999 V2000
   87.6836  163.5668  178.9242 O   0  0  0  0  0  0  0  0  0  0  0  0
   86.8981  163.1040  177.9056 C   0  0  1  0  0  0  0  0  0  0  0  0
   86.7531  164.2001  176.8383 C   0  0  0  0  0  0  0  0  0  0  0  0
   86.0750  163.4516  175.8028 N   0  0  2  0  0  4  0  0  0  0  0  0
   84.6519  163.5826  176.0248 C   0  0  0  0  0  0  0  0  0  0  0  0
   83.8618  163.5558  174.7752 C   0  0  0  0  0  0  0  0  0  0  0  0
   83.9276  162.4892  173.8739 C   0  0  0  0  0  0  0  0  0  0  0  0
   84.6293  161.3406  173.8794 N   0  0  0  0  0  0  0  0  0  0  0  0
   84.4714  160.4986  172.8432 C   0  0  0  0  0  0  0  0  0  0  0  0
   83.6309  160.8308  171.8555 N   0  0  0  0  0  0  0  0  0  0  0  0
   82.9140  161.9564  171.8050 C   0  0  0  0  0  0  0  0  0  0  0  0
   82.0341  162.2880  170.7559 N   0  0  0  0  0  0  0  0  0  0  0  0
   83.0637  162.8396  172.8671 C   0  0  0  0  0  0  0  0  0  0  0  0
   82.5175  164.0419  173.1524 N   0  0  0  0  0  0  0  0  0  0  0  0
   82.9951  164.5065  174.3283 C   0  0  0  0  0  0  0  0  0  0  0  0
   86.5278  162.0976  175.8568 C   0  0  0  0  0  0  0  0  0  0  0  0
   87.5335  162.0220  177.0554 C   0  0  2  0  0  0  0  0  0  0  0  0
   87.4136  160.6684  177.6630 C   0  0  0  0  0  0  0  0  0  0  0  0
   87.9004  160.5308  179.3581 S   0  0  0  0  0  0  0  0  0  0  0  0
   88.2822  158.8837  179.8997 C   0  0  0  0  0  0  0  0  0  0  0  0
   87.6746  157.8400  179.0167 C   0  0  0  0  0  0  0  0  0  0  0  0
   88.0348  156.4738  179.5187 C   0  0  0  0  0  0  0  0  0  0  0  0
   89.2360  156.5488  180.3790 C   0  0  0  0  0  0  0  0  0  0  0  0
   89.5255  157.3395  181.4210 N   0  0  0  0  0  0  0  0  0  0  0  0
   90.7214  157.0668  181.8972 N   0  0  0  0  0  0  0  0  0  0  0  0
   91.2418  156.0938  181.1799 N   0  0  0  0  0  0  0  0  0  0  0  0
   90.3651  155.7406  180.2327 C   0  0  0  0  0  0  0  0  0  0  0  0
   92.5659  155.4716  181.3570 C   0  0  0  0  0  0  0  0  0  0  0  0
   92.2729  154.0513  181.7005 C   0  0  0  0  0  0  0  0  0  0  0  0
   92.0983  153.6694  183.0022 C   0  0  0  0  0  0  0  0  0  0  0  0
   91.8261  152.3424  183.2723 C   0  0  0  0  0  0  0  0  0  0  0  0
   91.7358  151.4389  182.2503 C   0  0  0  0  0  0  0  0  0  0  0  0
   91.9135  151.8266  180.9244 C   0  0  0  0  0  0  0  0  0  0  0  0
   92.1821  153.1433  180.6738 C   0  0  0  0  0  0  0  0  0  0  0  0
  2  1  1  1
  2  3  1  0
  2 17  1  0
  3  4  1  0
  4  5  1  1
  4 16  1  0
  5  6  1  0
  6  7  1  0
  6 15  2  0
  7  8  2  0
  7 13  1  0
  8  9  1  0
  9 10  2  0
 10 11  1  0
 11 12  1  0
 11 13  2  0
 13 14  1  0
 14 15  1  0
 16 17  1  0
 17 18  1  1
 18 19  1  0
 19 20  1  0
 20 21  1  0
 21 22  1  0
 22 23  1  0
 23 24  1  0
 23 27  2  0
 24 25  2  0
 25 26  1  0
 26 27  1  0
 26 28  1  0
 28 29  1  0
 29 30  2  0
 29 34  1  0
 30 31  1  0
 31 32  2  0
 32 33  1  0
 33 34  2  0
M  CHG  1   4   1
M  END
$$$$
