
     RDKit          3D

 34 38  0  0  0  0  0  0  0  0999 V2000
   87.5669  164.1787  177.8002 O   0  0  0  0  0  0  0  0  0  0  0  0
   86.9404  163.0715  177.2996 C   0  0  1  0  0  0  0  0  0  0  0  0
   86.8616  163.1816  175.7689 C   0  0  0  0  0  0  0  0  0  0  0  0
   86.3605  161.8627  175.4497 N   0  0  2  0  0  4  0  0  0  0  0  0
   84.9157  161.9272  175.4549 C   0  0  0  0  0  0  0  0  0  0  0  0
   84.3261  161.9065  174.0990 C   0  0  0  0  0  0  0  0  0  0  0  0
   83.2567  162.7313  173.7380 C   0  0  0  0  0  0  0  0  0  0  0  0
   82.5522  163.6522  174.4216 N   0  0  0  0  0  0  0  0  0  0  0  0
   81.5592  164.2925  173.7799 C   0  0  0  0  0  0  0  0  0  0  0  0
   81.3113  163.9930  172.4988 N   0  0  0  0  0  0  0  0  0  0  0  0
   81.9810  163.0890  171.7793 C   0  0  0  0  0  0  0  0  0  0  0  0
   81.7047  162.7880  170.4311 N   0  0  0  0  0  0  0  0  0  0  0  0
   83.0112  162.4167  172.4252 C   0  0  0  0  0  0  0  0  0  0  0  0
   83.8819  161.4624  172.0296 N   0  0  0  0  0  0  0  0  0  0  0  0
   84.7066  161.1293  173.0473 C   0  0  0  0  0  0  0  0  0  0  0  0
   86.8833  160.9393  176.4063 C   0  0  0  0  0  0  0  0  0  0  0  0
   87.7380  161.7873  177.4084 C   0  0  2  0  0  0  0  0  0  0  0  0
   87.6258  161.1523  178.7500 C   0  0  0  0  0  0  0  0  0  0  0  0
   88.2431  159.4998  178.8825 S   0  0  0  0  0  0  0  0  0  0  0  0
   89.9959  159.3312  178.6561 C   0  0  0  0  0  0  0  0  0  0  0  0
   90.7563  159.5477  179.9262 C   0  0  0  0  0  0  0  0  0  0  0  0
   91.7713  158.4587  180.1056 C   0  0  0  0  0  0  0  0  0  0  0  0
   91.0937  157.1731  180.3823 C   0  0  0  0  0  0  0  0  0  0  0  0
   90.6797  156.2001  179.5596 N   0  0  0  0  0  0  0  0  0  0  0  0
   90.1163  155.2229  180.2369 N   0  0  0  0  0  0  0  0  0  0  0  0
   90.1479  155.5321  181.5157 N   0  0  0  0  0  0  0  0  0  0  0  0
   90.7402  156.7237  181.6562 C   0  0  0  0  0  0  0  0  0  0  0  0
   89.6268  154.7286  182.6358 C   0  0  0  0  0  0  0  0  0  0  0  0
   90.0047  153.3260  182.3023 C   0  0  0  0  0  0  0  0  0  0  0  0
   91.3153  152.9350  182.3118 C   0  0  0  0  0  0  0  0  0  0  0  0
   91.6176  151.6240  181.9982 C   0  0  0  0  0  0  0  0  0  0  0  0
   90.6178  150.7453  181.6864 C   0  0  0  0  0  0  0  0  0  0  0  0
   89.2829  151.1424  181.6764 C   0  0  0  0  0  0  0  0  0  0  0  0
   89.0004  152.4429  181.9891 C   0  0  0  0  0  0  0  0  0  0  0  0
  2  1  1  6
  2  3  1  0
  2 17  1  0
  3  4  1  0
  4  5  1  1
  4 16  1  0
  5  6  1  0
  6  7  1  0
  6 15  2  0
  7  8  2  0
  7 13  1  0
  8  9  1  0
  9 10  2  0
 10 11  1  0
 11 12  1  0
 11 13  2  0
 13 14  1  0
 14 15  1  0
 16 17  1  0
 17 18  1  1
 18 19  1  0
 19 20  1  0
 20 21  1  0
 21 22  1  0
 22 23  1  0
 23 24  1  0
 23 27  2  0
 24 25  2  0
 25 26  1  0
 26 27  1  0
 26 28  1  0
 28 29  1  0
 29 30  2  0
 29 34  1  0
 30 31  1  0
 31 32  2  0
 32 33  1  0
 33 34  2  0
M  CHG  1   4   1
M  END
$$$$
