
     RDKit          3D

 34 38  0  0  0  0  0  0  0  0999 V2000
   85.1731  164.0946  179.9905 O   0  0  0  0  0  0  0  0  0  0  0  0
   85.1642  163.0330  179.1198 C   0  0  1  0  0  0  0  0  0  0  0  0
   84.7833  163.5647  177.7416 C   0  0  0  0  0  0  0  0  0  0  0  0
   86.0449  163.9295  177.1984 N   0  0  2  0  0  4  0  0  0  0  0  0
   86.0624  164.3892  175.8504 C   0  0  0  0  0  0  0  0  0  0  0  0
   84.9097  163.7392  175.1307 C   0  0  0  0  0  0  0  0  0  0  0  0
   84.9324  162.6846  174.2426 C   0  0  0  0  0  0  0  0  0  0  0  0
   85.9355  161.9507  173.7561 N   0  0  0  0  0  0  0  0  0  0  0  0
   85.6967  160.9646  172.8902 C   0  0  0  0  0  0  0  0  0  0  0  0
   84.4317  160.6791  172.4804 N   0  0  0  0  0  0  0  0  0  0  0  0
   83.3855  161.3826  172.9354 C   0  0  0  0  0  0  0  0  0  0  0  0
   82.0889  161.0396  172.4776 N   0  0  0  0  0  0  0  0  0  0  0  0
   83.6301  162.3997  173.8276 C   0  0  0  0  0  0  0  0  0  0  0  0
   82.8459  163.2701  174.4578 N   0  0  0  0  0  0  0  0  0  0  0  0
   83.5818  164.0878  175.2471 C   0  0  0  0  0  0  0  0  0  0  0  0
   86.8262  162.7209  177.3995 C   0  0  0  0  0  0  0  0  0  0  0  0
   86.5630  162.5044  178.8904 C   0  0  2  0  0  0  0  0  0  0  0  0
   86.6040  161.0614  179.2610 C   0  0  0  0  0  0  0  0  0  0  0  0
   86.7247  160.0522  177.7346 S   0  0  0  0  0  0  0  0  0  0  0  0
   88.1121  158.9131  178.0080 C   0  0  0  0  0  0  0  0  0  0  0  0
   89.2901  159.4699  177.2044 C   0  0  0  0  0  0  0  0  0  0  0  0
   90.4293  159.5895  178.1900 C   0  0  0  0  0  0  0  0  0  0  0  0
   90.6023  158.3205  178.9286 C   0  0  0  0  0  0  0  0  0  0  0  0
   89.6570  157.5775  179.5283 N   0  0  0  0  0  0  0  0  0  0  0  0
   90.2208  156.5131  180.0782 N   0  0  0  0  0  0  0  0  0  0  0  0
   91.5429  156.5369  179.8513 N   0  0  0  0  0  0  0  0  0  0  0  0
   91.7853  157.6449  179.1449 C   0  0  0  0  0  0  0  0  0  0  0  0
   92.4390  155.5062  180.3300 C   0  0  0  0  0  0  0  0  0  0  0  0
   92.5304  154.3438  179.4007 C   0  0  0  0  0  0  0  0  0  0  0  0
   93.5533  154.2531  178.4821 C   0  0  0  0  0  0  0  0  0  0  0  0
   93.6189  153.1717  177.6403 C   0  0  0  0  0  0  0  0  0  0  0  0
   92.6735  152.1645  177.6954 C   0  0  0  0  0  0  0  0  0  0  0  0
   91.6480  152.2367  178.6026 C   0  0  0  0  0  0  0  0  0  0  0  0
   91.5933  153.3369  179.4490 C   0  0  0  0  0  0  0  0  0  0  0  0
  2  1  1  1
  3  2  1  1
  2 17  1  0
  3  4  1  0
  4  5  1  6
  4 16  1  0
  5  6  1  6
  6  7  1  0
  6 15  2  0
  7  8  2  0
  7 13  1  0
  8  9  1  0
  9 10  2  0
 10 11  1  0
 11 12  1  0
 11 13  2  0
 13 14  1  0
 14 15  1  0
 16 17  1  6
 17 18  1  6
 18 19  1  6
 20 19  1  1
 21 20  1  1
 21 22  1  0
 22 23  1  6
 23 24  1  0
 23 27  2  0
 24 25  2  0
 25 26  1  0
 26 27  1  0
 28 26  1  1
 28 29  1  0
 29 30  2  0
 29 34  1  0
 30 31  1  0
 31 32  2  0
 32 33  1  0
 33 34  2  0
M  CHG  1   4   1
M  END
$$$$
