
     RDKit          3D

 34 38  0  0  0  0  0  0  0  0999 V2000
   54.2050  175.3049  184.1386 O   0  0  0  0  0  0  0  0  0  0  0  0
   54.8822  174.4219  183.3345 C   0  0  1  0  0  0  0  0  0  0  0  0
   55.7682  175.2336  182.3946 C   0  0  0  0  0  0  0  0  0  0  0  0
   56.9626  175.3759  183.1516 N   0  0  2  0  0  4  0  0  0  0  0  0
   58.0610  176.0216  182.5152 C   0  0  0  0  0  0  0  0  0  0  0  0
   57.8591  175.9063  181.0268 C   0  0  0  0  0  0  0  0  0  0  0  0
   57.3093  176.8250  180.1578 C   0  0  0  0  0  0  0  0  0  0  0  0
   56.7977  178.0421  180.3541 N   0  0  0  0  0  0  0  0  0  0  0  0
   56.3169  178.7490  179.3302 C   0  0  0  0  0  0  0  0  0  0  0  0
   56.3342  178.2539  178.0637 N   0  0  0  0  0  0  0  0  0  0  0  0
   56.8358  177.0378  177.8068 C   0  0  0  0  0  0  0  0  0  0  0  0
   56.8318  176.5733  176.4679 N   0  0  0  0  0  0  0  0  0  0  0  0
   57.3313  176.3077  178.8612 C   0  0  0  0  0  0  0  0  0  0  0  0
   57.8843  175.1016  178.9570 N   0  0  0  0  0  0  0  0  0  0  0  0
   58.2123  174.8302  180.2423 C   0  0  0  0  0  0  0  0  0  0  0  0
   57.2497  174.0031  183.5320 C   0  0  0  0  0  0  0  0  0  0  0  0
   55.8935  173.6257  184.1297 C   0  0  2  0  0  0  0  0  0  0  0  0
   55.5993  172.1730  183.9741 C   0  0  0  0  0  0  0  0  0  0  0  0
   56.7985  171.2070  184.9699 S   0  0  0  0  0  0  0  0  0  0  0  0
   56.1909  171.2836  186.6793 C   0  0  0  0  0  0  0  0  0  0  0  0
   57.3154  170.7332  187.5603 C   0  0  0  0  0  0  0  0  0  0  0  0
   57.0125  169.2624  187.7279 C   0  0  0  0  0  0  0  0  0  0  0  0
   55.6469  169.0790  188.2640 C   0  0  0  0  0  0  0  0  0  0  0  0
   54.5285  168.7661  187.5881 N   0  0  0  0  0  0  0  0  0  0  0  0
   53.5125  168.6924  188.4338 N   0  0  0  0  0  0  0  0  0  0  0  0
   53.9427  168.9551  189.6772 N   0  0  0  0  0  0  0  0  0  0  0  0
   55.2539  169.1936  189.5812 C   0  0  0  0  0  0  0  0  0  0  0  0
   53.0640  168.9540  190.8272 C   0  0  0  0  0  0  0  0  0  0  0  0
   52.9838  167.6213  191.4910 C   0  0  0  0  0  0  0  0  0  0  0  0
   51.8386  166.8595  191.4090 C   0  0  0  0  0  0  0  0  0  0  0  0
   51.7900  165.6344  192.0245 C   0  0  0  0  0  0  0  0  0  0  0  0
   52.8737  165.1452  192.7298 C   0  0  0  0  0  0  0  0  0  0  0  0
   54.0221  165.8883  192.8230 C   0  0  0  0  0  0  0  0  0  0  0  0
   54.0582  167.1271  192.1952 C   0  0  0  0  0  0  0  0  0  0  0  0
  2  1  1  1
  3  2  1  1
  2 17  1  0
  3  4  1  0
  4  5  1  6
  4 16  1  0
  5  6  1  6
  6  7  1  0
  6 15  2  0
  7  8  2  0
  7 13  1  0
  8  9  1  0
  9 10  2  0
 10 11  1  0
 11 12  1  0
 11 13  2  0
 13 14  1  0
 14 15  1  0
 16 17  1  6
 17 18  1  6
 18 19  1  6
 20 19  1  1
 21 20  1  1
 21 22  1  0
 22 23  1  6
 23 24  1  0
 23 27  2  0
 24 25  2  0
 25 26  1  0
 26 27  1  0
 28 26  1  1
 28 29  1  0
 29 30  2  0
 29 34  1  0
 30 31  1  0
 31 32  2  0
 32 33  1  0
 33 34  2  0
M  CHG  1   4   1
M  END
$$$$
