
     RDKit          3D

 34 38  0  0  0  0  0  0  0  0999 V2000
   87.1179  163.7215  179.5257 O   0  0  0  0  0  0  0  0  0  0  0  0
   86.5029  163.2224  178.4114 C   0  0  1  0  0  0  0  0  0  0  0  0
   87.2318  163.7320  177.1582 C   0  0  0  0  0  0  0  0  0  0  0  0
   86.5601  162.9496  176.1438 N   0  0  2  0  0  4  0  0  0  0  0  0
   85.4122  163.7050  175.6932 C   0  0  0  0  0  0  0  0  0  0  0  0
   84.8295  163.1867  174.4368 C   0  0  0  0  0  0  0  0  0  0  0  0
   83.5310  162.6730  174.3731 C   0  0  0  0  0  0  0  0  0  0  0  0
   82.5703  162.5212  175.3035 N   0  0  0  0  0  0  0  0  0  0  0  0
   81.3995  161.9821  174.9209 C   0  0  0  0  0  0  0  0  0  0  0  0
   81.2352  161.6204  173.6423 N   0  0  0  0  0  0  0  0  0  0  0  0
   82.1565  161.7507  172.6843 C   0  0  0  0  0  0  0  0  0  0  0  0
   81.9641  161.3638  171.3434 N   0  0  0  0  0  0  0  0  0  0  0  0
   83.3734  162.3060  173.0604 C   0  0  0  0  0  0  0  0  0  0  0  0
   84.5095  162.5844  172.3845 N   0  0  0  0  0  0  0  0  0  0  0  0
   85.4265  163.1304  173.2140 C   0  0  0  0  0  0  0  0  0  0  0  0
   86.2113  161.6846  176.7091 C   0  0  0  0  0  0  0  0  0  0  0  0
   86.6790  161.7314  178.2034 C   0  0  2  0  0  0  0  0  0  0  0  0
   85.7203  160.9217  179.0040 C   0  0  0  0  0  0  0  0  0  0  0  0
   86.0018  159.1754  179.0210 S   0  0  0  0  0  0  0  0  0  0  0  0
   87.4829  158.6441  178.1987 C   0  0  0  0  0  0  0  0  0  0  0  0
   88.5849  158.3291  179.1603 C   0  0  0  0  0  0  0  0  0  0  0  0
   88.5151  156.8862  179.5620 C   0  0  0  0  0  0  0  0  0  0  0  0
   89.6077  156.5684  180.5073 C   0  0  0  0  0  0  0  0  0  0  0  0
   90.1371  157.2779  181.5129 N   0  0  0  0  0  0  0  0  0  0  0  0
   91.1056  156.6076  182.0993 N   0  0  0  0  0  0  0  0  0  0  0  0
   91.2329  155.4464  181.4931 N   0  0  0  0  0  0  0  0  0  0  0  0
   90.3325  155.3750  180.5059 C   0  0  0  0  0  0  0  0  0  0  0  0
   92.1951  154.3779  181.8159 C   0  0  0  0  0  0  0  0  0  0  0  0
   91.3498  153.1949  182.1438 C   0  0  0  0  0  0  0  0  0  0  0  0
   90.4685  153.2346  183.1889 C   0  0  0  0  0  0  0  0  0  0  0  0
   89.7043  152.1147  183.4536 C   0  0  0  0  0  0  0  0  0  0  0  0
   89.8358  150.9957  182.6792 C   0  0  0  0  0  0  0  0  0  0  0  0
   90.7330  150.9542  181.6147 C   0  0  0  0  0  0  0  0  0  0  0  0
   91.4817  152.0705  181.3658 C   0  0  0  0  0  0  0  0  0  0  0  0
  2  1  1  1
  2  3  1  0
  2 17  1  0
  3  4  1  0
  4  5  1  1
  4 16  1  0
  5  6  1  0
  6  7  1  0
  6 15  2  0
  7  8  2  0
  7 13  1  0
  8  9  1  0
  9 10  2  0
 10 11  1  0
 11 12  1  0
 11 13  2  0
 13 14  1  0
 14 15  1  0
 16 17  1  0
 17 18  1  1
 18 19  1  0
 19 20  1  0
 20 21  1  0
 21 22  1  0
 22 23  1  0
 23 24  1  0
 23 27  2  0
 24 25  2  0
 25 26  1  0
 26 27  1  0
 26 28  1  0
 28 29  1  0
 29 30  2  0
 29 34  1  0
 30 31  1  0
 31 32  2  0
 32 33  1  0
 33 34  2  0
M  CHG  1   4   1
M  END
$$$$
