
     RDKit          3D

 34 38  0  0  0  0  0  0  0  0999 V2000
   86.5932  162.8925  179.1158 O   0  0  0  0  0  0  0  0  0  0  0  0
   86.0909  162.4425  177.9266 C   0  0  1  0  0  0  0  0  0  0  0  0
   85.7343  163.6450  177.0388 C   0  0  0  0  0  0  0  0  0  0  0  0
   85.4212  162.9591  175.8043 N   0  0  2  0  0  4  0  0  0  0  0  0
   84.0093  162.6460  175.8202 C   0  0  0  0  0  0  0  0  0  0  0  0
   83.5541  161.9429  174.6015 C   0  0  0  0  0  0  0  0  0  0  0  0
   83.0300  162.6243  173.4992 C   0  0  0  0  0  0  0  0  0  0  0  0
   82.8165  163.9315  173.2600 N   0  0  0  0  0  0  0  0  0  0  0  0
   82.2859  164.2787  172.0744 C   0  0  0  0  0  0  0  0  0  0  0  0
   81.9931  163.3211  171.1858 N   0  0  0  0  0  0  0  0  0  0  0  0
   82.1861  162.0135  171.3763 C   0  0  0  0  0  0  0  0  0  0  0  0
   81.8712  161.0205  170.4279 N   0  0  0  0  0  0  0  0  0  0  0  0
   82.7337  161.6349  172.5959 C   0  0  0  0  0  0  0  0  0  0  0  0
   83.0617  160.4376  173.1290 N   0  0  0  0  0  0  0  0  0  0  0  0
   83.5717  160.6010  174.3700 C   0  0  0  0  0  0  0  0  0  0  0  0
   86.2508  161.7997  175.7110 C   0  0  0  0  0  0  0  0  0  0  0  0
   87.1047  161.7683  177.0239 C   0  0  2  0  0  0  0  0  0  0  0  0
   87.3344  160.3417  177.3813 C   0  0  0  0  0  0  0  0  0  0  0  0
   88.5650  160.0373  178.6150 S   0  0  0  0  0  0  0  0  0  0  0  0
   88.1488  158.7815  179.7989 C   0  0  0  0  0  0  0  0  0  0  0  0
   88.0509  157.4243  179.1770 C   0  0  0  0  0  0  0  0  0  0  0  0
   89.1693  156.5553  179.6691 C   0  0  0  0  0  0  0  0  0  0  0  0
   89.5055  156.9028  181.0673 C   0  0  0  0  0  0  0  0  0  0  0  0
   89.2701  158.0121  181.7805 N   0  0  0  0  0  0  0  0  0  0  0  0
   89.7503  157.8951  182.9999 N   0  0  0  0  0  0  0  0  0  0  0  0
   90.3101  156.7094  183.1135 N   0  0  0  0  0  0  0  0  0  0  0  0
   90.1849  156.0608  181.9499 C   0  0  0  0  0  0  0  0  0  0  0  0
   90.9755  156.1530  184.3049 C   0  0  0  0  0  0  0  0  0  0  0  0
   92.2273  155.5342  183.7840 C   0  0  0  0  0  0  0  0  0  0  0  0
   92.1765  154.5321  182.8546 C   0  0  0  0  0  0  0  0  0  0  0  0
   93.3628  153.9905  182.3991 C   0  0  0  0  0  0  0  0  0  0  0  0
   94.5568  154.4555  182.8757 C   0  0  0  0  0  0  0  0  0  0  0  0
   94.6097  155.4759  183.8221 C   0  0  0  0  0  0  0  0  0  0  0  0
   93.4271  156.0014  184.2626 C   0  0  0  0  0  0  0  0  0  0  0  0
  2  1  1  1
  2  3  1  0
  2 17  1  0
  3  4  1  0
  4  5  1  1
  4 16  1  0
  5  6  1  0
  6  7  1  0
  6 15  2  0
  7  8  2  0
  7 13  1  0
  8  9  1  0
  9 10  2  0
 10 11  1  0
 11 12  1  0
 11 13  2  0
 13 14  1  0
 14 15  1  0
 16 17  1  0
 17 18  1  1
 18 19  1  0
 19 20  1  0
 20 21  1  0
 21 22  1  0
 22 23  1  0
 23 24  1  0
 23 27  2  0
 24 25  2  0
 25 26  1  0
 26 27  1  0
 26 28  1  0
 28 29  1  0
 29 30  2  0
 29 34  1  0
 30 31  1  0
 31 32  2  0
 32 33  1  0
 33 34  2  0
M  CHG  1   4   1
M  END
$$$$
