
     RDKit          3D

 34 38  0  0  0  0  0  0  0  0999 V2000
   86.8109  162.9522  179.1905 O   0  0  0  0  0  0  0  0  0  0  0  0
   85.9511  162.2225  178.4073 C   0  0  1  0  0  0  0  0  0  0  0  0
   85.0486  163.2047  177.6671 C   0  0  0  0  0  0  0  0  0  0  0  0
   85.7992  163.4793  176.4919 N   0  0  2  0  0  4  0  0  0  0  0  0
   85.1880  164.3123  175.5115 C   0  0  0  0  0  0  0  0  0  0  0  0
   84.0039  163.5673  174.9527 C   0  0  0  0  0  0  0  0  0  0  0  0
   83.9202  162.8284  173.7916 C   0  0  0  0  0  0  0  0  0  0  0  0
   84.8153  162.5626  172.8378 N   0  0  0  0  0  0  0  0  0  0  0  0
   84.4856  161.8063  171.7897 C   0  0  0  0  0  0  0  0  0  0  0  0
   83.2354  161.2862  171.6629 N   0  0  0  0  0  0  0  0  0  0  0  0
   82.2955  161.5196  172.5896 C   0  0  0  0  0  0  0  0  0  0  0  0
   81.0107  160.9498  172.4085 N   0  0  0  0  0  0  0  0  0  0  0  0
   82.6337  162.2994  173.6703 C   0  0  0  0  0  0  0  0  0  0  0  0
   81.9633  162.7168  174.7408 N   0  0  0  0  0  0  0  0  0  0  0  0
   82.7560  163.4794  175.5302 C   0  0  0  0  0  0  0  0  0  0  0  0
   86.0987  162.1448  176.0008 C   0  0  0  0  0  0  0  0  0  0  0  0
   86.6892  161.5413  177.2760 C   0  0  2  0  0  0  0  0  0  0  0  0
   86.4555  160.0717  177.3585 C   0  0  0  0  0  0  0  0  0  0  0  0
   86.7475  159.5127  179.0805 S   0  0  0  0  0  0  0  0  0  0  0  0
   88.3739  158.7055  179.0651 C   0  0  0  0  0  0  0  0  0  0  0  0
   88.9536  158.8797  180.4713 C   0  0  0  0  0  0  0  0  0  0  0  0
   90.4145  158.5122  180.3530 C   0  0  0  0  0  0  0  0  0  0  0  0
   90.5596  157.0591  180.1220 C   0  0  0  0  0  0  0  0  0  0  0  0
   90.0723  156.3313  179.1030 N   0  0  0  0  0  0  0  0  0  0  0  0
   90.4249  155.0651  179.2621 N   0  0  0  0  0  0  0  0  0  0  0  0
   91.1479  154.9374  180.3850 N   0  0  0  0  0  0  0  0  0  0  0  0
   91.2353  156.1590  180.9194 C   0  0  0  0  0  0  0  0  0  0  0  0
   91.6794  153.6687  180.8351 C   0  0  0  0  0  0  0  0  0  0  0  0
   92.9969  153.3433  180.2178 C   0  0  0  0  0  0  0  0  0  0  0  0
   94.1009  154.1337  180.4522 C   0  0  0  0  0  0  0  0  0  0  0  0
   95.3039  153.8117  179.8764 C   0  0  0  0  0  0  0  0  0  0  0  0
   95.4318  152.7030  179.0606 C   0  0  0  0  0  0  0  0  0  0  0  0
   94.3449  151.9042  178.8152 C   0  0  0  0  0  0  0  0  0  0  0  0
   93.1329  152.2413  179.4043 C   0  0  0  0  0  0  0  0  0  0  0  0
  2  1  1  1
  3  2  1  1
  2 17  1  0
  3  4  1  0
  4  5  1  6
  4 16  1  0
  5  6  1  6
  6  7  1  0
  6 15  2  0
  7  8  2  0
  7 13  1  0
  8  9  1  0
  9 10  2  0
 10 11  1  0
 11 12  1  0
 11 13  2  0
 13 14  1  0
 14 15  1  0
 16 17  1  6
 17 18  1  6
 18 19  1  6
 20 19  1  1
 21 20  1  1
 21 22  1  0
 22 23  1  6
 23 24  1  0
 23 27  2  0
 24 25  2  0
 25 26  1  0
 26 27  1  0
 28 26  1  1
 28 29  1  0
 29 30  2  0
 29 34  1  0
 30 31  1  0
 31 32  2  0
 32 33  1  0
 33 34  2  0
M  CHG  1   4   1
M  END
$$$$
