
     RDKit          3D

 34 38  0  0  0  0  0  0  0  0999 V2000
   86.5834  163.3118  179.7168 O   0  0  0  0  0  0  0  0  0  0  0  0
   86.1069  162.5832  178.6628 C   0  0  1  0  0  0  0  0  0  0  0  0
   86.2954  163.3848  177.3653 C   0  0  0  0  0  0  0  0  0  0  0  0
   85.9198  162.3800  176.3948 N   0  0  2  0  0  4  0  0  0  0  0  0
   84.4955  162.4942  176.1713 C   0  0  0  0  0  0  0  0  0  0  0  0
   84.0694  161.9821  174.8512 C   0  0  0  0  0  0  0  0  0  0  0  0
   83.4831  162.8056  173.8856 C   0  0  0  0  0  0  0  0  0  0  0  0
   83.1783  164.1165  173.8773 N   0  0  0  0  0  0  0  0  0  0  0  0
   82.6067  164.6255  172.7718 C   0  0  0  0  0  0  0  0  0  0  0  0
   82.3650  163.8176  171.7320 N   0  0  0  0  0  0  0  0  0  0  0  0
   82.6487  162.5132  171.6924 C   0  0  0  0  0  0  0  0  0  0  0  0
   82.3864  161.6793  170.5876 N   0  0  0  0  0  0  0  0  0  0  0  0
   83.2399  161.9687  172.8258 C   0  0  0  0  0  0  0  0  0  0  0  0
   83.6562  160.7230  173.1422 N   0  0  0  0  0  0  0  0  0  0  0  0
   84.1737  160.7047  174.3907 C   0  0  0  0  0  0  0  0  0  0  0  0
   86.3067  161.1006  176.8994 C   0  0  0  0  0  0  0  0  0  0  0  0
   86.9307  161.3601  178.3126 C   0  0  2  0  0  0  0  0  0  0  0  0
   86.6119  160.1867  179.1713 C   0  0  0  0  0  0  0  0  0  0  0  0
   87.6347  158.7604  178.9502 S   0  0  0  0  0  0  0  0  0  0  0  0
   89.0948  158.7181  179.9592 C   0  0  0  0  0  0  0  0  0  0  0  0
   89.6076  160.0877  180.2744 C   0  0  0  0  0  0  0  0  0  0  0  0
   90.9204  159.9887  180.9921 C   0  0  0  0  0  0  0  0  0  0  0  0
   91.9234  159.3286  180.1281 C   0  0  0  0  0  0  0  0  0  0  0  0
   92.7102  159.8167  179.1598 N   0  0  0  0  0  0  0  0  0  0  0  0
   93.4590  158.8668  178.6420 N   0  0  0  0  0  0  0  0  0  0  0  0
   93.1808  157.7372  179.2574 N   0  0  0  0  0  0  0  0  0  0  0  0
   92.2412  157.9700  180.1811 C   0  0  0  0  0  0  0  0  0  0  0  0
   93.7802  156.4157  178.9998 C   0  0  0  0  0  0  0  0  0  0  0  0
   92.9793  155.8500  177.8774 C   0  0  0  0  0  0  0  0  0  0  0  0
   91.6127  155.8412  177.9299 C   0  0  0  0  0  0  0  0  0  0  0  0
   90.9125  155.3085  176.8649 C   0  0  0  0  0  0  0  0  0  0  0  0
   91.5837  154.8036  175.7863 C   0  0  0  0  0  0  0  0  0  0  0  0
   92.9754  154.8121  175.7318 C   0  0  0  0  0  0  0  0  0  0  0  0
   93.6536  155.3427  176.7935 C   0  0  0  0  0  0  0  0  0  0  0  0
  2  1  1  1
  2  3  1  0
  2 17  1  0
  3  4  1  0
  4  5  1  1
  4 16  1  0
  5  6  1  0
  6  7  1  0
  6 15  2  0
  7  8  2  0
  7 13  1  0
  8  9  1  0
  9 10  2  0
 10 11  1  0
 11 12  1  0
 11 13  2  0
 13 14  1  0
 14 15  1  0
 16 17  1  0
 17 18  1  1
 18 19  1  0
 19 20  1  0
 20 21  1  0
 21 22  1  0
 22 23  1  0
 23 24  1  0
 23 27  2  0
 24 25  2  0
 25 26  1  0
 26 27  1  0
 26 28  1  0
 28 29  1  0
 29 30  2  0
 29 34  1  0
 30 31  1  0
 31 32  2  0
 32 33  1  0
 33 34  2  0
M  CHG  1   4   1
M  END
$$$$
