
     RDKit          3D

 34 38  0  0  0  0  0  0  0  0999 V2000
   82.3043  160.9894  172.5295 O   0  0  0  0  0  0  0  0  0  0  0  0
   83.4551  160.7323  173.2329 C   0  0  1  0  0  0  0  0  0  0  0  0
   84.2700  162.0211  173.2789 C   0  0  0  0  0  0  0  0  0  0  0  0
   83.7645  162.6577  174.4447 N   0  0  2  0  0  4  0  0  0  0  0  0
   84.3890  163.8745  174.8422 C   0  0  0  0  0  0  0  0  0  0  0  0
   85.1807  163.5947  176.0929 C   0  0  0  0  0  0  0  0  0  0  0  0
   86.5449  163.4532  176.2359 C   0  0  0  0  0  0  0  0  0  0  0  0
   87.5438  163.5058  175.3523 N   0  0  0  0  0  0  0  0  0  0  0  0
   88.8068  163.3330  175.7450 C   0  0  0  0  0  0  0  0  0  0  0  0
   89.1122  163.1000  177.0496 N   0  0  0  0  0  0  0  0  0  0  0  0
   88.1505  163.0366  177.9810 C   0  0  0  0  0  0  0  0  0  0  0  0
   88.5260  162.7947  179.3260 N   0  0  0  0  0  0  0  0  0  0  0  0
   86.8481  163.2141  177.5776 C   0  0  0  0  0  0  0  0  0  0  0  0
   85.6842  163.2130  178.2219 N   0  0  0  0  0  0  0  0  0  0  0  0
   84.6642  163.4383  177.3606 C   0  0  0  0  0  0  0  0  0  0  0  0
   83.8771  161.6062  175.4414 C   0  0  0  0  0  0  0  0  0  0  0  0
   83.1563  160.4828  174.6948 C   0  0  2  0  0  0  0  0  0  0  0  0
   83.6744  159.1378  175.0741 C   0  0  0  0  0  0  0  0  0  0  0  0
   84.8410  159.3173  176.4776 S   0  0  0  0  0  0  0  0  0  0  0  0
   86.4987  159.3455  175.7371 C   0  0  0  0  0  0  0  0  0  0  0  0
   87.4755  159.6310  176.8807 C   0  0  0  0  0  0  0  0  0  0  0  0
   87.7268  158.2942  177.5388 C   0  0  0  0  0  0  0  0  0  0  0  0
   88.5113  158.4737  178.7791 C   0  0  0  0  0  0  0  0  0  0  0  0
   88.8514  159.6248  179.3829 N   0  0  0  0  0  0  0  0  0  0  0  0
   89.5545  159.3563  180.4722 N   0  0  0  0  0  0  0  0  0  0  0  0
   89.6894  158.0280  180.6040 N   0  0  0  0  0  0  0  0  0  0  0  0
   89.0507  157.4783  179.5671 C   0  0  0  0  0  0  0  0  0  0  0  0
   90.4122  157.4185  181.6998 C   0  0  0  0  0  0  0  0  0  0  0  0
   91.6830  156.7718  181.2641 C   0  0  0  0  0  0  0  0  0  0  0  0
   92.6828  157.5099  180.6689 C   0  0  0  0  0  0  0  0  0  0  0  0
   93.8452  156.8934  180.2802 C   0  0  0  0  0  0  0  0  0  0  0  0
   94.0353  155.5381  180.4750 C   0  0  0  0  0  0  0  0  0  0  0  0
   93.0522  154.7866  181.0653 C   0  0  0  0  0  0  0  0  0  0  0  0
   91.8801  155.4229  181.4542 C   0  0  0  0  0  0  0  0  0  0  0  0
  2  1  1  6
  3  2  1  1
  2 17  1  0
  3  4  1  0
  4  5  1  1
  4 16  1  0
  5  6  1  6
  6  7  1  0
  6 15  2  0
  7  8  2  0
  7 13  1  0
  8  9  1  0
  9 10  2  0
 10 11  1  0
 11 12  1  0
 11 13  2  0
 13 14  1  0
 14 15  1  0
 16 17  1  6
 17 18  1  1
 18 19  1  6
 20 19  1  1
 21 20  1  1
 21 22  1  0
 22 23  1  6
 23 24  1  0
 23 27  2  0
 24 25  2  0
 25 26  1  0
 26 27  1  0
 28 26  1  1
 28 29  1  0
 29 30  2  0
 29 34  1  0
 30 31  1  0
 31 32  2  0
 32 33  1  0
 33 34  2  0
M  CHG  1   4   1
M  END
$$$$
