
     RDKit          3D

 34 38  0  0  0  0  0  0  0  0999 V2000
   86.8153  162.7592  179.5978 O   0  0  0  0  0  0  0  0  0  0  0  0
   86.3147  162.2296  178.4412 C   0  0  1  0  0  0  0  0  0  0  0  0
   86.3417  163.3005  177.3393 C   0  0  0  0  0  0  0  0  0  0  0  0
   85.9685  162.4935  176.1983 N   0  0  2  0  0  4  0  0  0  0  0  0
   84.5267  162.5239  176.0899 C   0  0  0  0  0  0  0  0  0  0  0  0
   84.0366  162.1939  174.7344 C   0  0  0  0  0  0  0  0  0  0  0  0
   83.0751  162.9691  174.0797 C   0  0  0  0  0  0  0  0  0  0  0  0
   82.4096  164.0820  174.4408 N   0  0  0  0  0  0  0  0  0  0  0  0
   81.5273  164.6015  173.5693 C   0  0  0  0  0  0  0  0  0  0  0  0
   81.3461  163.9987  172.3877 N   0  0  0  0  0  0  0  0  0  0  0  0
   81.9812  162.8952  171.9846 C   0  0  0  0  0  0  0  0  0  0  0  0
   81.7764  162.2756  170.7360 N   0  0  0  0  0  0  0  0  0  0  0  0
   82.8971  162.3433  172.8717 C   0  0  0  0  0  0  0  0  0  0  0  0
   83.7039  161.2614  172.8118 N   0  0  0  0  0  0  0  0  0  0  0  0
   84.4198  161.1467  173.9525 C   0  0  0  0  0  0  0  0  0  0  0  0
   86.4881  161.1764  176.3898 C   0  0  0  0  0  0  0  0  0  0  0  0
   87.1982  161.1869  177.7859 C   0  0  2  0  0  0  0  0  0  0  0  0
   87.0357  159.8350  178.3874 C   0  0  0  0  0  0  0  0  0  0  0  0
   88.1396  158.5842  177.7992 S   0  0  0  0  0  0  0  0  0  0  0  0
   89.6765  158.4627  178.6796 C   0  0  0  0  0  0  0  0  0  0  0  0
   89.4857  158.0287  180.0986 C   0  0  0  0  0  0  0  0  0  0  0  0
   90.8020  158.0378  180.8167 C   0  0  0  0  0  0  0  0  0  0  0  0
   91.8171  157.3074  180.0264 C   0  0  0  0  0  0  0  0  0  0  0  0
   92.7803  157.7487  179.2064 N   0  0  0  0  0  0  0  0  0  0  0  0
   93.4629  156.7429  178.7026 N   0  0  0  0  0  0  0  0  0  0  0  0
   92.9639  155.6223  179.1795 N   0  0  0  0  0  0  0  0  0  0  0  0
   91.9485  155.9176  179.9995 C   0  0  0  0  0  0  0  0  0  0  0  0
   93.4178  154.2521  178.8827 C   0  0  0  0  0  0  0  0  0  0  0  0
   94.5894  154.0398  179.7792 C   0  0  0  0  0  0  0  0  0  0  0  0
   95.8437  153.8710  179.2607 C   0  0  0  0  0  0  0  0  0  0  0  0
   96.8996  153.6797  180.1306 C   0  0  0  0  0  0  0  0  0  0  0  0
   96.6820  153.6614  181.4801 C   0  0  0  0  0  0  0  0  0  0  0  0
   95.4051  153.8332  182.0092 C   0  0  0  0  0  0  0  0  0  0  0  0
   94.3709  154.0215  181.1352 C   0  0  0  0  0  0  0  0  0  0  0  0
  2  1  1  1
  2  3  1  0
  2 17  1  0
  3  4  1  0
  4  5  1  1
  4 16  1  0
  5  6  1  0
  6  7  1  0
  6 15  2  0
  7  8  2  0
  7 13  1  0
  8  9  1  0
  9 10  2  0
 10 11  1  0
 11 12  1  0
 11 13  2  0
 13 14  1  0
 14 15  1  0
 16 17  1  0
 17 18  1  1
 18 19  1  0
 19 20  1  0
 20 21  1  0
 21 22  1  0
 22 23  1  0
 23 24  1  0
 23 27  2  0
 24 25  2  0
 25 26  1  0
 26 27  1  0
 26 28  1  0
 28 29  1  0
 29 30  2  0
 29 34  1  0
 30 31  1  0
 31 32  2  0
 32 33  1  0
 33 34  2  0
M  CHG  1   4   1
M  END
$$$$
