
     RDKit          3D

 34 38  0  0  0  0  0  0  0  0999 V2000
   88.4426  162.5801  175.0694 O   0  0  0  0  0  0  0  0  0  0  0  0
   87.1821  162.5125  175.6096 C   0  0  1  0  0  0  0  0  0  0  0  0
   86.2518  163.3366  174.7249 C   0  0  0  0  0  0  0  0  0  0  0  0
   85.8297  162.3836  173.7588 N   0  0  2  0  0  4  0  0  0  0  0  0
   84.8564  162.8092  172.8099 C   0  0  0  0  0  0  0  0  0  0  0  0
   83.6296  163.2351  173.5733 C   0  0  0  0  0  0  0  0  0  0  0  0
   82.4188  162.5857  173.6908 C   0  0  0  0  0  0  0  0  0  0  0  0
   81.9708  161.4364  173.1809 N   0  0  0  0  0  0  0  0  0  0  0  0
   80.7341  161.0129  173.4463 C   0  0  0  0  0  0  0  0  0  0  0  0
   79.8984  161.7348  174.2400 N   0  0  0  0  0  0  0  0  0  0  0  0
   80.2940  162.8962  174.7796 C   0  0  0  0  0  0  0  0  0  0  0  0
   79.3831  163.6053  175.6018 N   0  0  0  0  0  0  0  0  0  0  0  0
   81.5683  163.3343  174.5065 C   0  0  0  0  0  0  0  0  0  0  0  0
   82.2609  164.4111  174.8680 N   0  0  0  0  0  0  0  0  0  0  0  0
   83.5010  164.3825  174.3252 C   0  0  0  0  0  0  0  0  0  0  0  0
   85.3723  161.2845  174.5920 C   0  0  0  0  0  0  0  0  0  0  0  0
   86.6070  161.1193  175.4792 C   0  0  2  0  0  0  0  0  0  0  0  0
   86.2565  160.6093  176.8349 C   0  0  0  0  0  0  0  0  0  0  0  0
   87.5310  159.4050  177.3719 S   0  0  0  0  0  0  0  0  0  0  0  0
   87.5640  159.5013  179.1849 C   0  0  0  0  0  0  0  0  0  0  0  0
   88.8024  160.3243  179.5491 C   0  0  0  0  0  0  0  0  0  0  0  0
   88.8148  160.3865  181.0588 C   0  0  0  0  0  0  0  0  0  0  0  0
   89.4196  159.1582  181.6167 C   0  0  0  0  0  0  0  0  0  0  0  0
   90.6875  158.9705  182.0198 N   0  0  0  0  0  0  0  0  0  0  0  0
   90.8278  157.7292  182.4588 N   0  0  0  0  0  0  0  0  0  0  0  0
   89.6585  157.0800  182.3524 N   0  0  0  0  0  0  0  0  0  0  0  0
   88.7876  157.9518  181.8356 C   0  0  0  0  0  0  0  0  0  0  0  0
   89.4897  155.6989  182.7507 C   0  0  0  0  0  0  0  0  0  0  0  0
   89.3746  154.7728  181.5878 C   0  0  0  0  0  0  0  0  0  0  0  0
   88.1710  154.5995  180.9398 C   0  0  0  0  0  0  0  0  0  0  0  0
   88.0906  153.7451  179.8694 C   0  0  0  0  0  0  0  0  0  0  0  0
   89.1998  153.0502  179.4246 C   0  0  0  0  0  0  0  0  0  0  0  0
   90.4062  153.2091  180.0563 C   0  0  0  0  0  0  0  0  0  0  0  0
   90.4740  154.0771  181.1387 C   0  0  0  0  0  0  0  0  0  0  0  0
  2  1  1  6
  3  2  1  1
  2 17  1  0
  3  4  1  0
  4  5  1  1
  4 16  1  0
  5  6  1  6
  6  7  1  0
  6 15  2  0
  7  8  2  0
  7 13  1  0
  8  9  1  0
  9 10  2  0
 10 11  1  0
 11 12  1  0
 11 13  2  0
 13 14  1  0
 14 15  1  0
 16 17  1  6
 17 18  1  1
 18 19  1  6
 20 19  1  1
 21 20  1  1
 21 22  1  0
 22 23  1  6
 23 24  1  0
 23 27  2  0
 24 25  2  0
 25 26  1  0
 26 27  1  0
 28 26  1  1
 28 29  1  0
 29 30  2  0
 29 34  1  0
 30 31  1  0
 31 32  2  0
 32 33  1  0
 33 34  2  0
M  CHG  1   4   1
M  END
$$$$
