
     RDKit          3D

 23 24  0  0  0  0  0  0  0  0999 V2000
   -6.8025  -33.3484  -14.9744 C   0  0  1  0  0  0  0  0  0  0  0  0
   -6.5097  -31.9841  -14.3906 C   0  0  1  0  0  0  0  0  0  0  0  0
   -7.6344  -31.0202  -14.7045 C   0  0  2  0  0  0  0  0  0  0  0  0
   -7.6846  -30.8395  -16.2213 C   0  0  1  0  0  0  0  0  0  0  0  0
   -7.6156  -32.2358  -16.7955 C   0  0  1  0  0  0  0  0  0  0  0  0
   -6.3516  -32.4258  -17.6068 C   0  0  0  0  0  0  0  0  0  0  0  0
   -6.9559  -34.2245  -13.9544 O   0  0  0  0  0  0  0  0  0  0  0  0
   -6.4225  -32.0547  -12.9804 O   0  0  0  0  0  0  0  0  0  0  0  0
   -7.4230  -29.7849  -14.1445 O   0  0  0  0  0  0  0  0  0  0  0  0
   -8.8840  -30.2198  -16.5062 O   0  0  0  0  0  0  0  0  0  0  0  0
   -7.8248  -33.2340  -15.8613 O   0  0  0  0  0  0  0  0  0  0  0  0
   -6.6891  -33.2093  -18.7387 O   0  0  0  0  0  0  0  0  0  0  0  0
   -6.7170  -36.3217  -12.7990 C   0  0  0  0  0  0  0  0  0  0  0  0
   -6.8193  -35.5541  -14.1317 C   0  0  1  0  0  0  0  0  0  0  0  0
   -7.7558  -36.2587  -15.0335 C   0  0  2  0  0  0  0  0  0  0  0  0
   -7.0233  -36.2174  -16.3651 C   0  0  1  0  0  0  0  0  0  0  0  0
   -5.6151  -36.4067  -15.8391 C   0  0  1  0  0  0  0  0  0  0  0  0
   -4.5946  -36.0240  -16.8815 C   0  0  0  0  0  0  0  0  0  0  0  0
   -6.5751  -37.6711  -13.1520 O   0  0  0  0  0  0  0  0  0  0  0  0
   -5.5155  -35.7253  -14.6733 O   0  0  0  0  0  0  0  0  0  0  0  0
   -9.0109  -35.7622  -15.1823 O   0  0  0  0  0  0  0  0  0  0  0  0
   -7.4084  -37.2747  -17.1869 O   0  0  0  0  0  0  0  0  0  0  0  0
   -3.5299  -35.3294  -16.3697 O   0  0  0  0  0  0  0  0  0  0  0  0
  1  2  1  0
  1  7  1  1
  1 11  1  0
  2  3  1  0
  2  8  1  1
  3  4  1  0
  3  9  1  1
  5  4  1  0
  4 10  1  1
  5  6  1  0
  5 11  1  1
  6 12  1  6
 14  7  1  1
 14 13  1  0
 13 19  1  6
 14 15  1  0
 20 14  1  0
 16 15  1  0
 15 21  1  6
 17 16  1  0
 16 22  1  6
 18 17  1  0
 17 20  1  1
 18 23  1  6
M  END
$$$$
