
     RDKit          3D

 23 24  0  0  0  0  0  0  0  0999 V2000
   -6.9839  -33.7307  -15.6877 C   0  0  1  0  0  0  0  0  0  0  0  0
   -7.7619  -34.9496  -15.2440 C   0  0  1  0  0  0  0  0  0  0  0  0
   -6.8214  -36.0942  -14.9307 C   0  0  2  0  0  0  0  0  0  0  0  0
   -6.1112  -36.4829  -16.2269 C   0  0  1  0  0  0  0  0  0  0  0  0
   -5.6454  -35.1810  -16.8368 C   0  0  1  0  0  0  0  0  0  0  0  0
   -6.3314  -34.9281  -18.1624 C   0  0  0  0  0  0  0  0  0  0  0  0
   -7.1585  -32.7549  -14.7663 O   0  0  0  0  0  0  0  0  0  0  0  0
   -8.4756  -34.6780  -14.0532 O   0  0  0  0  0  0  0  0  0  0  0  0
   -7.4937  -37.2010  -14.4758 O   0  0  0  0  0  0  0  0  0  0  0  0
   -5.0552  -37.2963  -15.8705 O   0  0  0  0  0  0  0  0  0  0  0  0
   -5.7092  -34.1049  -15.9704 O   0  0  0  0  0  0  0  0  0  0  0  0
   -5.4690  -34.1116  -18.9362 O   0  0  0  0  0  0  0  0  0  0  0  0
   -8.1500  -31.3123  -16.4174 C   0  0  0  0  0  0  0  0  0  0  0  0
   -7.3325  -31.4655  -15.1195 C   0  0  1  0  0  0  0  0  0  0  0  0
   -7.8285  -30.5048  -14.1107 C   0  0  2  0  0  0  0  0  0  0  0  0
   -6.5402  -29.9516  -13.5227 C   0  0  1  0  0  0  0  0  0  0  0  0
   -5.7218  -29.9183  -14.7973 C   0  0  1  0  0  0  0  0  0  0  0  0
   -4.2518  -29.7788  -14.4903 C   0  0  0  0  0  0  0  0  0  0  0  0
   -8.7578  -30.0518  -16.3325 O   0  0  0  0  0  0  0  0  0  0  0  0
   -6.0463  -31.0136  -15.5242 O   0  0  0  0  0  0  0  0  0  0  0  0
   -8.6294  -30.9646  -13.1151 O   0  0  0  0  0  0  0  0  0  0  0  0
   -6.7298  -28.6725  -13.0033 O   0  0  0  0  0  0  0  0  0  0  0  0
   -3.6486  -30.9673  -14.1718 O   0  0  0  0  0  0  0  0  0  0  0  0
  1  2  1  0
  1  7  1  1
  1 11  1  0
  2  3  1  0
  2  8  1  1
  3  4  1  0
  3  9  1  6
  5  4  1  0
  4 10  1  1
  5  6  1  0
  5 11  1  1
  6 12  1  6
 14  7  1  1
 14 13  1  0
 13 19  1  6
 14 15  1  0
 20 14  1  0
 16 15  1  0
 15 21  1  1
 17 16  1  0
 16 22  1  6
 18 17  1  0
 17 20  1  1
 18 23  1  6
M  END
$$$$
