
     RDKit          3D

 23 24  0  0  0  0  0  0  0  0999 V2000
   -6.8461  -33.4755  -16.3183 C   0  0  1  0  0  0  0  0  0  0  0  0
   -6.8588  -33.2407  -17.8126 C   0  0  1  0  0  0  0  0  0  0  0  0
   -7.5754  -34.3708  -18.5211 C   0  0  2  0  0  0  0  0  0  0  0  0
   -6.7714  -35.6500  -18.2914 C   0  0  1  0  0  0  0  0  0  0  0  0
   -6.4645  -35.6723  -16.8118 C   0  0  1  0  0  0  0  0  0  0  0  0
   -4.9736  -35.5768  -16.5666 C   0  0  0  0  0  0  0  0  0  0  0  0
   -7.5790  -32.5030  -15.7279 O   0  0  0  0  0  0  0  0  0  0  0  0
   -7.5678  -32.0569  -18.1241 O   0  0  0  0  0  0  0  0  0  0  0  0
   -7.6489  -34.1624  -19.8758 O   0  0  0  0  0  0  0  0  0  0  0  0
   -7.5828  -36.7002  -18.6690 O   0  0  0  0  0  0  0  0  0  0  0  0
   -7.2023  -34.7635  -16.0753 O   0  0  0  0  0  0  0  0  0  0  0  0
   -4.6487  -36.5216  -15.5612 O   0  0  0  0  0  0  0  0  0  0  0  0
   -6.7936  -30.2781  -15.2552 C   0  0  0  0  0  0  0  0  0  0  0  0
   -7.0671  -31.7129  -14.7627 C   0  0  1  0  0  0  0  0  0  0  0  0
   -7.7380  -31.6605  -13.4460 C   0  0  2  0  0  0  0  0  0  0  0  0
   -7.0059  -32.7374  -12.6612 C   0  0  1  0  0  0  0  0  0  0  0  0
   -5.6187  -32.5047  -13.2241 C   0  0  1  0  0  0  0  0  0  0  0  0
   -4.7158  -33.6775  -12.9342 C   0  0  0  0  0  0  0  0  0  0  0  0
   -5.6530  -29.8527  -14.5598 O   0  0  0  0  0  0  0  0  0  0  0  0
   -5.7519  -32.2048  -14.5378 O   0  0  0  0  0  0  0  0  0  0  0  0
   -9.0770  -31.8797  -13.3906 O   0  0  0  0  0  0  0  0  0  0  0  0
   -7.0511  -32.4839  -11.2918 O   0  0  0  0  0  0  0  0  0  0  0  0
   -4.8401  -34.6960  -13.8426 O   0  0  0  0  0  0  0  0  0  0  0  0
  1  2  1  0
  1  7  1  1
  1 11  1  0
  2  3  1  0
  2  8  1  1
  3  4  1  0
  3  9  1  6
  5  4  1  0
  4 10  1  1
  5  6  1  0
  5 11  1  1
  6 12  1  6
 14  7  1  6
 14 13  1  0
 13 19  1  6
 14 15  1  0
 20 14  1  0
 16 15  1  0
 15 21  1  6
 17 16  1  0
 16 22  1  1
 18 17  1  0
 17 20  1  6
 18 23  1  6
M  END
$$$$
