
     RDKit          3D

 23 24  0  0  0  0  0  0  0  0999 V2000
   -7.0007  -32.8259  -15.2390 C   0  0  1  0  0  0  0  0  0  0  0  0
   -6.4366  -31.8180  -14.2624 C   0  0  1  0  0  0  0  0  0  0  0  0
   -7.5347  -30.9199  -13.7332 C   0  0  2  0  0  0  0  0  0  0  0  0
   -8.0894  -30.1178  -14.9099 C   0  0  1  0  0  0  0  0  0  0  0  0
   -8.3133  -31.1254  -16.0139 C   0  0  1  0  0  0  0  0  0  0  0  0
   -7.4191  -30.8358  -17.2007 C   0  0  0  0  0  0  0  0  0  0  0  0
   -6.8527  -34.0622  -14.7088 O   0  0  0  0  0  0  0  0  0  0  0  0
   -5.8764  -32.4723  -13.1402 O   0  0  0  0  0  0  0  0  0  0  0  0
   -7.0636  -30.0256  -12.8046 O   0  0  0  0  0  0  0  0  0  0  0  0
   -9.2703  -29.5490  -14.4791 O   0  0  0  0  0  0  0  0  0  0  0  0
   -8.2550  -32.4403  -15.5893 O   0  0  0  0  0  0  0  0  0  0  0  0
   -8.1437  -31.1777  -18.3699 O   0  0  0  0  0  0  0  0  0  0  0  0
   -8.7874  -35.4547  -15.0376 C   0  0  0  0  0  0  0  0  0  0  0  0
   -7.3036  -35.1654  -15.3390 C   0  0  1  0  0  0  0  0  0  0  0  0
   -7.0593  -35.3146  -16.7897 C   0  0  2  0  0  0  0  0  0  0  0  0
   -5.7491  -36.0853  -16.8246 C   0  0  1  0  0  0  0  0  0  0  0  0
   -5.9989  -36.9834  -15.6303 C   0  0  1  0  0  0  0  0  0  0  0  0
   -4.7149  -37.6139  -15.1524 C   0  0  0  0  0  0  0  0  0  0  0  0
   -8.8541  -35.6759  -13.6547 O   0  0  0  0  0  0  0  0  0  0  0  0
   -6.6528  -36.2538  -14.6955 O   0  0  0  0  0  0  0  0  0  0  0  0
   -6.9550  -34.1937  -17.5491 O   0  0  0  0  0  0  0  0  0  0  0  0
   -5.6268  -36.8216  -18.0012 O   0  0  0  0  0  0  0  0  0  0  0  0
   -4.7761  -38.0547  -13.8562 O   0  0  0  0  0  0  0  0  0  0  0  0
  1  2  1  0
  1  7  1  1
  1 11  1  0
  2  3  1  0
  2  8  1  1
  3  4  1  0
  3  9  1  1
  5  4  1  0
  4 10  1  1
  5  6  1  0
  5 11  1  1
  6 12  1  6
 14  7  1  1
 14 13  1  0
 13 19  1  6
 14 15  1  0
 20 14  1  0
 16 15  1  0
 15 21  1  6
 17 16  1  0
 16 22  1  6
 18 17  1  0
 17 20  1  1
 18 23  1  6
M  END
$$$$
