
     RDKit          3D

 23 24  0  0  0  0  0  0  0  0999 V2000
   -6.6814  -33.2567  -14.5729 C   0  0  1  0  0  0  0  0  0  0  0  0
   -6.9058  -32.1935  -13.5197 C   0  0  1  0  0  0  0  0  0  0  0  0
   -7.8154  -31.1457  -14.1260 C   0  0  2  0  0  0  0  0  0  0  0  0
   -7.0749  -30.6420  -15.3721 C   0  0  1  0  0  0  0  0  0  0  0  0
   -7.0757  -31.8115  -16.3416 C   0  0  1  0  0  0  0  0  0  0  0  0
   -5.7520  -31.7838  -17.0645 C   0  0  0  0  0  0  0  0  0  0  0  0
   -7.1877  -34.4484  -14.0544 O   0  0  0  0  0  0  0  0  0  0  0  0
   -7.5621  -32.6924  -12.3956 O   0  0  0  0  0  0  0  0  0  0  0  0
   -8.0804  -30.1060  -13.2513 O   0  0  0  0  0  0  0  0  0  0  0  0
   -7.6866  -29.5189  -15.9061 O   0  0  0  0  0  0  0  0  0  0  0  0
   -7.3619  -33.0032  -15.7518 O   0  0  0  0  0  0  0  0  0  0  0  0
   -5.3352  -30.5230  -17.4134 O   0  0  0  0  0  0  0  0  0  0  0  0
   -6.4940  -36.7358  -13.7170 C   0  0  0  0  0  0  0  0  0  0  0  0
   -6.6492  -35.5648  -14.6381 C   0  0  1  0  0  0  0  0  0  0  0  0
   -7.6103  -35.9895  -15.7534 C   0  0  2  0  0  0  0  0  0  0  0  0
   -6.7265  -36.0630  -16.9726 C   0  0  1  0  0  0  0  0  0  0  0  0
   -5.3439  -36.1459  -16.3427 C   0  0  1  0  0  0  0  0  0  0  0  0
   -4.3672  -35.6327  -17.3808 C   0  0  0  0  0  0  0  0  0  0  0  0
   -7.6083  -37.0213  -12.9657 O   0  0  0  0  0  0  0  0  0  0  0  0
   -5.4477  -35.2984  -15.2583 O   0  0  0  0  0  0  0  0  0  0  0  0
   -8.5743  -35.0180  -15.9873 O   0  0  0  0  0  0  0  0  0  0  0  0
   -7.0014  -37.1598  -17.7759 O   0  0  0  0  0  0  0  0  0  0  0  0
   -3.7070  -34.5159  -16.9259 O   0  0  0  0  0  0  0  0  0  0  0  0
  1  2  1  0
  1  7  1  1
  1 11  1  0
  2  3  1  0
  2  8  1  1
  3  4  1  0
  3  9  1  1
  5  4  1  0
  4 10  1  6
  5  6  1  1
 11  5  1  0
  6 12  1  0
 14  7  1  0
 14 13  1  1
 13 19  1  0
 14 15  1  0
 20 14  1  0
 16 15  1  0
 15 21  1  6
 17 16  1  0
 16 22  1  1
 17 18  1  6
 17 20  1  0
 23 18  1  0
M  END
$$$$
