
     RDKit          3D

 23 24  0  0  0  0  0  0  0  0999 V2000
   -7.3369  -32.3528  -14.9594 C   0  0  1  0  0  0  0  0  0  0  0  0
   -6.4028  -31.3282  -14.3549 C   0  0  1  0  0  0  0  0  0  0  0  0
   -7.1267  -30.4981  -13.3159 C   0  0  2  0  0  0  0  0  0  0  0  0
   -8.2265  -29.7126  -14.0294 C   0  0  1  0  0  0  0  0  0  0  0  0
   -8.9295  -30.7167  -14.9135 C   0  0  1  0  0  0  0  0  0  0  0  0
   -8.7587  -30.3637  -16.3757 C   0  0  0  0  0  0  0  0  0  0  0  0
   -6.8938  -33.5859  -14.6206 O   0  0  0  0  0  0  0  0  0  0  0  0
   -5.3316  -31.9652  -13.6857 O   0  0  0  0  0  0  0  0  0  0  0  0
   -6.2924  -29.5913  -12.7111 O   0  0  0  0  0  0  0  0  0  0  0  0
   -9.0575  -29.2145  -13.0470 O   0  0  0  0  0  0  0  0  0  0  0  0
   -8.6135  -32.0318  -14.6246 O   0  0  0  0  0  0  0  0  0  0  0  0
   -8.4161  -28.9899  -16.4422 O   0  0  0  0  0  0  0  0  0  0  0  0
   -8.4005  -35.4534  -14.8012 C   0  0  0  0  0  0  0  0  0  0  0  0
   -7.1909  -34.6758  -15.3564 C   0  0  1  0  0  0  0  0  0  0  0  0
   -7.3269  -34.5378  -16.8224 C   0  0  2  0  0  0  0  0  0  0  0  0
   -5.9217  -34.8475  -17.3133 C   0  0  1  0  0  0  0  0  0  0  0  0
   -5.5828  -35.9356  -16.3151 C   0  0  1  0  0  0  0  0  0  0  0  0
   -4.0971  -36.1933  -16.2825 C   0  0  0  0  0  0  0  0  0  0  0  0
   -7.9401  -36.0835  -13.6364 O   0  0  0  0  0  0  0  0  0  0  0  0
   -6.1221  -35.5846  -15.1237 O   0  0  0  0  0  0  0  0  0  0  0  0
   -7.7392  -33.3463  -17.3267 O   0  0  0  0  0  0  0  0  0  0  0  0
   -5.9383  -35.3375  -18.6176 O   0  0  0  0  0  0  0  0  0  0  0  0
   -3.4155  -35.3367  -15.4580 O   0  0  0  0  0  0  0  0  0  0  0  0
  1  2  1  0
  1  7  1  1
  1 11  1  0
  2  3  1  0
  2  8  1  1
  3  4  1  0
  3  9  1  6
  5  4  1  0
  4 10  1  1
  5  6  1  0
  5 11  1  6
  6 12  1  6
 14  7  1  1
 14 13  1  0
 13 19  1  6
 14 15  1  0
 20 14  1  0
 16 15  1  0
 15 21  1  1
 17 16  1  0
 16 22  1  6
 18 17  1  0
 17 20  1  1
 18 23  1  6
M  END
$$$$
