
     RDKit          3D

 23 24  0  0  0  0  0  0  0  0999 V2000
   -7.0392  -33.8763  -15.9876 C   0  0  1  0  0  0  0  0  0  0  0  0
   -8.1313  -34.3946  -16.8980 C   0  0  1  0  0  0  0  0  0  0  0  0
   -8.1843  -35.8979  -16.7250 C   0  0  2  0  0  0  0  0  0  0  0  0
   -6.7796  -36.3952  -17.0911 C   0  0  1  0  0  0  0  0  0  0  0  0
   -5.8692  -35.8771  -15.9910 C   0  0  1  0  0  0  0  0  0  0  0  0
   -4.5594  -35.5082  -16.6419 C   0  0  0  0  0  0  0  0  0  0  0  0
   -7.6513  -33.0164  -15.0759 O   0  0  0  0  0  0  0  0  0  0  0  0
   -9.3888  -33.9059  -16.5473 O   0  0  0  0  0  0  0  0  0  0  0  0
   -9.1454  -36.4886  -17.5274 O   0  0  0  0  0  0  0  0  0  0  0  0
   -6.7417  -37.7767  -17.1947 O   0  0  0  0  0  0  0  0  0  0  0  0
   -6.4248  -34.8775  -15.2548 O   0  0  0  0  0  0  0  0  0  0  0  0
   -3.4944  -35.4868  -15.7756 O   0  0  0  0  0  0  0  0  0  0  0  0
   -6.6878  -30.9415  -15.8461 C   0  0  0  0  0  0  0  0  0  0  0  0
   -6.8745  -31.9379  -14.7434 C   0  0  1  0  0  0  0  0  0  0  0  0
   -7.5870  -31.2153  -13.5953 C   0  0  2  0  0  0  0  0  0  0  0  0
   -6.5311  -31.1292  -12.5226 C   0  0  1  0  0  0  0  0  0  0  0  0
   -5.2600  -31.3617  -13.3262 C   0  0  1  0  0  0  0  0  0  0  0  0
   -4.2261  -31.8884  -12.3522 C   0  0  0  0  0  0  0  0  0  0  0  0
   -5.6176  -31.1963  -16.6692 O   0  0  0  0  0  0  0  0  0  0  0  0
   -5.6465  -32.3161  -14.2453 O   0  0  0  0  0  0  0  0  0  0  0  0
   -8.6375  -31.9732  -13.0954 O   0  0  0  0  0  0  0  0  0  0  0  0
   -6.5202  -29.9055  -11.8698 O   0  0  0  0  0  0  0  0  0  0  0  0
   -3.9517  -33.2135  -12.5944 O   0  0  0  0  0  0  0  0  0  0  0  0
  1  2  1  0
  1  7  1  1
  1 11  1  0
  2  3  1  0
  2  8  1  1
  3  4  1  0
  3  9  1  6
  5  4  1  0
  4 10  1  1
  5  6  1  6
 11  5  1  0
  6 12  1  0
 14  7  1  0
 14 13  1  6
 13 19  1  0
 14 15  1  0
 20 14  1  0
 16 15  1  0
 15 21  1  1
 17 16  1  0
 16 22  1  6
 17 18  1  1
 17 20  1  0
 23 18  1  0
M  END
$$$$
