
     RDKit          3D

 23 24  0  0  0  0  0  0  0  0999 V2000
   -6.5436  -32.4452  -15.2667 C   0  0  1  0  0  0  0  0  0  0  0  0
   -6.2127  -30.9694  -15.2451 C   0  0  1  0  0  0  0  0  0  0  0  0
   -7.4639  -30.1484  -15.0148 C   0  0  2  0  0  0  0  0  0  0  0  0
   -8.3915  -30.3659  -16.2098 C   0  0  1  0  0  0  0  0  0  0  0  0
   -8.4194  -31.8607  -16.4308 C   0  0  1  0  0  0  0  0  0  0  0  0
   -7.8240  -32.2204  -17.7755 C   0  0  0  0  0  0  0  0  0  0  0  0
   -5.9410  -33.0327  -14.2069 O   0  0  0  0  0  0  0  0  0  0  0  0
   -5.3343  -30.6721  -14.1769 O   0  0  0  0  0  0  0  0  0  0  0  0
   -7.1899  -28.8055  -14.9390 O   0  0  0  0  0  0  0  0  0  0  0  0
   -9.6273  -29.8718  -15.8461 O   0  0  0  0  0  0  0  0  0  0  0  0
   -7.8892  -32.5896  -15.3819 O   0  0  0  0  0  0  0  0  0  0  0  0
   -8.8408  -32.8544  -18.5326 O   0  0  0  0  0  0  0  0  0  0  0  0
   -5.8324  -34.8044  -12.5823 C   0  0  0  0  0  0  0  0  0  0  0  0
   -5.9074  -34.3725  -14.0600 C   0  0  1  0  0  0  0  0  0  0  0  0
   -6.9137  -35.1977  -14.7622 C   0  0  2  0  0  0  0  0  0  0  0  0
   -6.2103  -35.5332  -16.0677 C   0  0  1  0  0  0  0  0  0  0  0  0
   -4.8085  -35.6995  -15.5173 C   0  0  1  0  0  0  0  0  0  0  0  0
   -3.7861  -35.6576  -16.6252 C   0  0  0  0  0  0  0  0  0  0  0  0
   -4.5161  -34.5388  -12.1791 O   0  0  0  0  0  0  0  0  0  0  0  0
   -4.6325  -34.7687  -14.5498 O   0  0  0  0  0  0  0  0  0  0  0  0
   -8.1315  -34.6557  -15.0210 O   0  0  0  0  0  0  0  0  0  0  0  0
   -6.6911  -36.7234  -16.6098 O   0  0  0  0  0  0  0  0  0  0  0  0
   -2.5542  -35.2231  -16.2109 O   0  0  0  0  0  0  0  0  0  0  0  0
  1  2  1  0
  1  7  1  1
  1 11  1  0
  2  3  1  0
  2  8  1  1
  3  4  1  0
  3  9  1  6
  5  4  1  0
  4 10  1  1
  5  6  1  0
  5 11  1  1
  6 12  1  6
 14  7  1  1
 14 13  1  0
 13 19  1  6
 14 15  1  0
 20 14  1  0
 16 15  1  0
 15 21  1  6
 17 16  1  0
 16 22  1  1
 18 17  1  0
 17 20  1  1
 18 23  1  6
M  END
$$$$
