
     RDKit          3D

 23 24  0  0  0  0  0  0  0  0999 V2000
   -6.6312  -33.0565  -15.9302 C   0  0  1  0  0  0  0  0  0  0  0  0
   -5.6090  -31.9546  -15.7596 C   0  0  1  0  0  0  0  0  0  0  0  0
   -6.1029  -30.6703  -16.3914 C   0  0  2  0  0  0  0  0  0  0  0  0
   -6.2332  -30.9099  -17.8952 C   0  0  1  0  0  0  0  0  0  0  0  0
   -6.9639  -32.2258  -18.0313 C   0  0  1  0  0  0  0  0  0  0  0  0
   -6.0867  -33.2660  -18.6949 C   0  0  0  0  0  0  0  0  0  0  0  0
   -7.0917  -33.4039  -14.7060 O   0  0  0  0  0  0  0  0  0  0  0  0
   -5.4032  -31.6750  -14.3883 O   0  0  0  0  0  0  0  0  0  0  0  0
   -5.2193  -29.6358  -16.2094 O   0  0  0  0  0  0  0  0  0  0  0  0
   -6.9647  -29.8553  -18.4017 O   0  0  0  0  0  0  0  0  0  0  0  0
   -7.5450  -32.6653  -16.8558 O   0  0  0  0  0  0  0  0  0  0  0  0
   -6.8440  -33.8549  -19.7384 O   0  0  0  0  0  0  0  0  0  0  0  0
   -8.3855  -34.7262  -13.1673 C   0  0  0  0  0  0  0  0  0  0  0  0
   -7.5050  -34.6573  -14.4306 C   0  0  1  0  0  0  0  0  0  0  0  0
   -8.1246  -35.4621  -15.5053 C   0  0  2  0  0  0  0  0  0  0  0  0
   -6.9333  -36.2070  -16.0863 C   0  0  1  0  0  0  0  0  0  0  0  0
   -6.1830  -36.4499  -14.7926 C   0  0  1  0  0  0  0  0  0  0  0  0
   -4.7504  -36.8348  -15.0647 C   0  0  0  0  0  0  0  0  0  0  0  0
   -7.6839  -34.0191  -12.1807 O   0  0  0  0  0  0  0  0  0  0  0  0
   -6.3357  -35.3519  -14.0152 O   0  0  0  0  0  0  0  0  0  0  0  0
   -8.7927  -34.8172  -16.4961 O   0  0  0  0  0  0  0  0  0  0  0  0
   -7.3267  -37.4039  -16.6815 O   0  0  0  0  0  0  0  0  0  0  0  0
   -3.8421  -36.0427  -14.4123 O   0  0  0  0  0  0  0  0  0  0  0  0
  1  2  1  0
  1  7  1  1
  1 11  1  0
  2  3  1  0
  2  8  1  1
  3  4  1  0
  3  9  1  6
  5  4  1  0
  4 10  1  6
  5  6  1  0
  5 11  1  1
  6 12  1  6
 14  7  1  6
 14 13  1  0
 13 19  1  6
 14 15  1  0
 20 14  1  0
 16 15  1  0
 15 21  1  6
 17 16  1  0
 16 22  1  1
 18 17  1  0
 17 20  1  1
 18 23  1  6
M  END
$$$$
