
     RDKit          3D

 23 24  0  0  0  0  0  0  0  0999 V2000
   -6.5867  -33.4722  -16.1781 C   0  0  1  0  0  0  0  0  0  0  0  0
   -5.7394  -33.8068  -17.3855 C   0  0  1  0  0  0  0  0  0  0  0  0
   -6.3064  -35.0059  -18.1158 C   0  0  2  0  0  0  0  0  0  0  0  0
   -6.2165  -36.2091  -17.1778 C   0  0  1  0  0  0  0  0  0  0  0  0
   -6.7546  -35.7260  -15.8507 C   0  0  1  0  0  0  0  0  0  0  0  0
   -5.6785  -35.7574  -14.7864 C   0  0  0  0  0  0  0  0  0  0  0  0
   -7.1500  -32.2577  -16.3761 O   0  0  0  0  0  0  0  0  0  0  0  0
   -5.7433  -32.7349  -18.3086 O   0  0  0  0  0  0  0  0  0  0  0  0
   -5.5885  -35.3047  -19.2469 O   0  0  0  0  0  0  0  0  0  0  0  0
   -7.0045  -37.1991  -17.7280 O   0  0  0  0  0  0  0  0  0  0  0  0
   -7.4190  -34.5154  -15.9256 O   0  0  0  0  0  0  0  0  0  0  0  0
   -6.2436  -36.3523  -13.6306 O   0  0  0  0  0  0  0  0  0  0  0  0
   -8.1370  -30.1368  -15.8122 C   0  0  0  0  0  0  0  0  0  0  0  0
   -7.4451  -31.4343  -15.3500 C   0  0  1  0  0  0  0  0  0  0  0  0
   -8.1575  -31.9786  -14.1740 C   0  0  2  0  0  0  0  0  0  0  0  0
   -7.0152  -32.3757  -13.2527 C   0  0  1  0  0  0  0  0  0  0  0  0
   -6.0802  -31.2252  -13.5652 C   0  0  1  0  0  0  0  0  0  0  0  0
   -4.6783  -31.5281  -13.0988 C   0  0  0  0  0  0  0  0  0  0  0  0
   -7.1729  -29.4404  -16.5547 O   0  0  0  0  0  0  0  0  0  0  0  0
   -6.1899  -30.9522  -14.8869 O   0  0  0  0  0  0  0  0  0  0  0  0
   -8.9936  -33.0336  -14.3526 O   0  0  0  0  0  0  0  0  0  0  0  0
   -7.4143  -32.3620  -11.9177 O   0  0  0  0  0  0  0  0  0  0  0  0
   -3.8570  -31.9735  -14.1013 O   0  0  0  0  0  0  0  0  0  0  0  0
  1  2  1  0
  1  7  1  6
  1 11  1  0
  2  3  1  0
  2  8  1  6
  3  4  1  0
  3  9  1  6
  5  4  1  0
  4 10  1  6
  5  6  1  0
  5 11  1  6
  6 12  1  6
 14  7  1  6
 14 13  1  0
 13 19  1  6
 14 15  1  0
 20 14  1  0
 16 15  1  0
 15 21  1  6
 17 16  1  0
 16 22  1  1
 18 17  1  0
 17 20  1  6
 18 23  1  6
M  END
$$$$
