
     RDKit          3D

 23 24  0  0  0  0  0  0  0  0999 V2000
   -7.1734  -34.0927  -15.6722 C   0  0  1  0  0  0  0  0  0  0  0  0
   -7.9420  -35.3825  -15.4833 C   0  0  1  0  0  0  0  0  0  0  0  0
   -6.9281  -36.4736  -15.2108 C   0  0  2  0  0  0  0  0  0  0  0  0
   -5.9996  -36.4747  -16.4325 C   0  0  1  0  0  0  0  0  0  0  0  0
   -5.2362  -35.1634  -16.3598 C   0  0  1  0  0  0  0  0  0  0  0  0
   -5.0599  -34.6784  -17.7772 C   0  0  0  0  0  0  0  0  0  0  0  0
   -7.5953  -33.2231  -14.6666 O   0  0  0  0  0  0  0  0  0  0  0  0
   -8.7889  -35.3366  -14.3769 O   0  0  0  0  0  0  0  0  0  0  0  0
   -7.5197  -37.7128  -15.0351 O   0  0  0  0  0  0  0  0  0  0  0  0
   -5.1549  -37.5733  -16.4266 O   0  0  0  0  0  0  0  0  0  0  0  0
   -5.8057  -34.2512  -15.5270 O   0  0  0  0  0  0  0  0  0  0  0  0
   -4.1688  -33.6415  -17.9034 O   0  0  0  0  0  0  0  0  0  0  0  0
   -7.8102  -31.3570  -16.1826 C   0  0  0  0  0  0  0  0  0  0  0  0
   -7.2616  -31.9160  -14.9059 C   0  0  1  0  0  0  0  0  0  0  0  0
   -7.8525  -31.0903  -13.7584 C   0  0  2  0  0  0  0  0  0  0  0  0
   -6.6676  -30.3242  -13.2275 C   0  0  1  0  0  0  0  0  0  0  0  0
   -5.6917  -30.4272  -14.3905 C   0  0  1  0  0  0  0  0  0  0  0  0
   -4.3058  -30.2464  -13.8058 C   0  0  0  0  0  0  0  0  0  0  0  0
   -7.1699  -30.2274  -16.6316 O   0  0  0  0  0  0  0  0  0  0  0  0
   -5.8999  -31.7101  -14.8550 O   0  0  0  0  0  0  0  0  0  0  0  0
   -8.3212  -31.9062  -12.7373 O   0  0  0  0  0  0  0  0  0  0  0  0
   -6.9697  -29.0074  -12.9139 O   0  0  0  0  0  0  0  0  0  0  0  0
   -3.5392  -31.3709  -13.9998 O   0  0  0  0  0  0  0  0  0  0  0  0
  1  2  1  0
  1  7  1  1
  1 11  1  0
  2  3  1  0
  2  8  1  1
  3  4  1  0
  3  9  1  6
  5  4  1  0
  4 10  1  1
  5  6  1  6
 11  5  1  0
  6 12  1  0
 14  7  1  0
 14 13  1  6
 13 19  1  0
 14 15  1  0
 20 14  1  0
 16 15  1  0
 15 21  1  1
 17 16  1  0
 16 22  1  6
 17 18  1  1
 17 20  1  0
 23 18  1  0
M  END
$$$$
