
     RDKit          3D

 23 24  0  0  0  0  0  0  0  0999 V2000
   -6.8394  -33.6216  -15.8001 C   0  0  1  0  0  0  0  0  0  0  0  0
   -7.6931  -34.8160  -15.4360 C   0  0  1  0  0  0  0  0  0  0  0  0
   -6.8219  -36.0049  -15.0893 C   0  0  2  0  0  0  0  0  0  0  0  0
   -6.0445  -36.3961  -16.3456 C   0  0  1  0  0  0  0  0  0  0  0  0
   -5.4879  -35.1024  -16.8937 C   0  0  1  0  0  0  0  0  0  0  0  0
   -6.0749  -34.7939  -18.2547 C   0  0  0  0  0  0  0  0  0  0  0  0
   -7.0346  -32.6586  -14.8694 O   0  0  0  0  0  0  0  0  0  0  0  0
   -8.4717  -34.5395  -14.2878 O   0  0  0  0  0  0  0  0  0  0  0  0
   -7.5665  -37.0920  -14.7046 O   0  0  0  0  0  0  0  0  0  0  0  0
   -5.0476  -37.2598  -15.9408 O   0  0  0  0  0  0  0  0  0  0  0  0
   -5.5650  -34.0426  -16.0085 O   0  0  0  0  0  0  0  0  0  0  0  0
   -5.2204  -35.3741  -19.2254 O   0  0  0  0  0  0  0  0  0  0  0  0
   -5.4612  -31.1879  -15.9426 C   0  0  0  0  0  0  0  0  0  0  0  0
   -6.7493  -31.3639  -15.1145 C   0  0  1  0  0  0  0  0  0  0  0  0
   -7.8070  -30.4858  -15.6593 C   0  0  2  0  0  0  0  0  0  0  0  0
   -8.4234  -29.8946  -14.4015 C   0  0  1  0  0  0  0  0  0  0  0  0
   -7.1524  -29.7500  -13.5897 C   0  0  1  0  0  0  0  0  0  0  0  0
   -7.4664  -29.5468  -12.1286 C   0  0  0  0  0  0  0  0  0  0  0  0
   -4.9421  -29.9399  -15.5700 O   0  0  0  0  0  0  0  0  0  0  0  0
   -6.3690  -30.8219  -13.8560 O   0  0  0  0  0  0  0  0  0  0  0  0
   -8.7770  -31.0401  -16.4312 O   0  0  0  0  0  0  0  0  0  0  0  0
   -9.0090  -28.6568  -14.6591 O   0  0  0  0  0  0  0  0  0  0  0  0
   -7.2972  -30.6784  -11.3744 O   0  0  0  0  0  0  0  0  0  0  0  0
  1  2  1  0
  1  7  1  1
  1 11  1  0
  2  3  1  0
  2  8  1  1
  3  4  1  0
  3  9  1  6
  5  4  1  0
  4 10  1  1
  5  6  1  0
  5 11  1  1
  6 12  1  6
 14  7  1  1
 14 13  1  0
 13 19  1  6
 14 15  1  0
 20 14  1  0
 16 15  1  0
 15 21  1  1
 17 16  1  0
 16 22  1  6
 18 17  1  0
 17 20  1  1
 18 23  1  6
M  END
$$$$
