
     RDKit          3D

 23 24  0  0  0  0  0  0  0  0999 V2000
   -7.1028  -33.7235  -15.2243 C   0  0  1  0  0  0  0  0  0  0  0  0
   -7.1474  -32.8824  -13.9670 C   0  0  1  0  0  0  0  0  0  0  0  0
   -6.8041  -31.4622  -14.3645 C   0  0  2  0  0  0  0  0  0  0  0  0
   -5.4134  -31.5488  -15.0074 C   0  0  1  0  0  0  0  0  0  0  0  0
   -5.6162  -32.3115  -16.3053 C   0  0  1  0  0  0  0  0  0  0  0  0
   -4.3978  -33.1792  -16.5001 C   0  0  0  0  0  0  0  0  0  0  0  0
   -8.3852  -34.2409  -15.4067 O   0  0  0  0  0  0  0  0  0  0  0  0
   -8.4207  -32.8438  -13.4010 O   0  0  0  0  0  0  0  0  0  0  0  0
   -6.7988  -30.5975  -13.2834 O   0  0  0  0  0  0  0  0  0  0  0  0
   -4.8730  -30.2903  -15.2185 O   0  0  0  0  0  0  0  0  0  0  0  0
   -6.7947  -32.9887  -16.3566 O   0  0  0  0  0  0  0  0  0  0  0  0
   -3.2217  -32.4758  -16.5833 O   0  0  0  0  0  0  0  0  0  0  0  0
   -9.7527  -36.0520  -16.2291 C   0  0  0  0  0  0  0  0  0  0  0  0
   -8.3892  -35.5001  -15.9464 C   0  0  1  0  0  0  0  0  0  0  0  0
   -7.6495  -35.4111  -17.2853 C   0  0  2  0  0  0  0  0  0  0  0  0
   -6.5839  -36.4715  -17.1716 C   0  0  1  0  0  0  0  0  0  0  0  0
   -7.1263  -37.3287  -16.0374 C   0  0  1  0  0  0  0  0  0  0  0  0
   -5.9348  -38.0379  -15.4272 C   0  0  0  0  0  0  0  0  0  0  0  0
  -10.7513  -35.5362  -15.4390 O   0  0  0  0  0  0  0  0  0  0  0  0
   -7.6744  -36.3956  -15.1807 O   0  0  0  0  0  0  0  0  0  0  0  0
   -7.0133  -34.1855  -17.4310 O   0  0  0  0  0  0  0  0  0  0  0  0
   -6.4153  -37.1980  -18.3410 O   0  0  0  0  0  0  0  0  0  0  0  0
   -5.8774  -37.8254  -14.0701 O   0  0  0  0  0  0  0  0  0  0  0  0
  1  2  1  0
  1  7  1  6
  1 11  1  0
  2  3  1  0
  2  8  1  6
  3  4  1  0
  3  9  1  1
  5  4  1  0
  4 10  1  6
  5  6  1  1
 11  5  1  0
  6 12  1  0
 14  7  1  0
 14 13  1  6
 13 19  1  0
 14 15  1  0
 20 14  1  0
 16 15  1  0
 15 21  1  1
 17 16  1  0
 16 22  1  6
 17 18  1  1
 17 20  1  0
 23 18  1  0
M  END
$$$$
