
     RDKit          3D

 23 24  0  0  0  0  0  0  0  0999 V2000
   -6.4688  -32.7226  -15.1997 C   0  0  1  0  0  0  0  0  0  0  0  0
   -6.6646  -32.2130  -13.7891 C   0  0  1  0  0  0  0  0  0  0  0  0
   -7.7698  -31.1789  -13.7472 C   0  0  2  0  0  0  0  0  0  0  0  0
   -7.3192  -29.9801  -14.5812 C   0  0  1  0  0  0  0  0  0  0  0  0
   -6.7889  -30.5633  -15.8706 C   0  0  1  0  0  0  0  0  0  0  0  0
   -5.3094  -30.2814  -16.0243 C   0  0  0  0  0  0  0  0  0  0  0  0
   -6.7997  -34.0345  -15.2288 O   0  0  0  0  0  0  0  0  0  0  0  0
   -7.0649  -33.2644  -12.9314 O   0  0  0  0  0  0  0  0  0  0  0  0
   -8.0073  -30.7329  -12.4709 O   0  0  0  0  0  0  0  0  0  0  0  0
   -8.4374  -29.1984  -14.7863 O   0  0  0  0  0  0  0  0  0  0  0  0
   -7.1176  -31.8935  -16.0579 O   0  0  0  0  0  0  0  0  0  0  0  0
   -5.1718  -28.9091  -16.3516 O   0  0  0  0  0  0  0  0  0  0  0  0
   -7.4710  -34.2167  -17.5324 C   0  0  0  0  0  0  0  0  0  0  0  0
   -6.6639  -34.7781  -16.3452 C   0  0  1  0  0  0  0  0  0  0  0  0
   -5.3067  -35.1446  -16.8038 C   0  0  2  0  0  0  0  0  0  0  0  0
   -5.0853  -36.4905  -16.1323 C   0  0  1  0  0  0  0  0  0  0  0  0
   -6.4964  -37.0269  -16.2609 C   0  0  1  0  0  0  0  0  0  0  0  0
   -6.7125  -38.2013  -15.3397 C   0  0  0  0  0  0  0  0  0  0  0  0
   -8.5715  -35.0732  -17.6777 O   0  0  0  0  0  0  0  0  0  0  0  0
   -7.3494  -35.9930  -16.0688 O   0  0  0  0  0  0  0  0  0  0  0  0
   -4.2759  -34.3096  -16.5133 O   0  0  0  0  0  0  0  0  0  0  0  0
   -4.1758  -37.2682  -16.8463 O   0  0  0  0  0  0  0  0  0  0  0  0
   -6.8391  -37.8425  -14.0231 O   0  0  0  0  0  0  0  0  0  0  0  0
  1  2  1  0
  1  7  1  1
  1 11  1  0
  2  3  1  0
  2  8  1  1
  3  4  1  0
  3  9  1  1
  5  4  1  0
  4 10  1  6
  5  6  1  0
  5 11  1  1
  6 12  1  6
 14  7  1  1
 14 13  1  0
 13 19  1  6
 14 15  1  0
 20 14  1  0
 16 15  1  0
 15 21  1  1
 17 16  1  0
 16 22  1  6
 18 17  1  0
 17 20  1  1
 18 23  1  6
M  END
$$$$
