
     RDKit          3D

 23 24  0  0  0  0  0  0  0  0999 V2000
   -6.5111  -33.0995  -15.0625 C   0  0  1  0  0  0  0  0  0  0  0  0
   -6.8435  -34.4439  -14.4522 C   0  0  1  0  0  0  0  0  0  0  0  0
   -6.0200  -35.4842  -15.1819 C   0  0  2  0  0  0  0  0  0  0  0  0
   -6.4213  -35.3532  -16.6572 C   0  0  1  0  0  0  0  0  0  0  0  0
   -5.8845  -34.0037  -17.1025 C   0  0  1  0  0  0  0  0  0  0  0  0
   -6.8948  -33.4234  -18.0606 C   0  0  0  0  0  0  0  0  0  0  0  0
   -5.9630  -32.3207  -14.0434 O   0  0  0  0  0  0  0  0  0  0  0  0
   -6.4834  -34.5182  -13.1075 O   0  0  0  0  0  0  0  0  0  0  0  0
   -6.2545  -36.7662  -14.7150 O   0  0  0  0  0  0  0  0  0  0  0  0
   -5.9122  -36.3954  -17.4156 O   0  0  0  0  0  0  0  0  0  0  0  0
   -5.5630  -33.1811  -16.0682 O   0  0  0  0  0  0  0  0  0  0  0  0
   -6.3485  -32.5989  -19.0129 O   0  0  0  0  0  0  0  0  0  0  0  0
   -5.8637  -30.1580  -12.9758 C   0  0  0  0  0  0  0  0  0  0  0  0
   -6.5488  -31.0873  -13.9300 C   0  0  1  0  0  0  0  0  0  0  0  0
   -6.4884  -30.4386  -15.3169 C   0  0  2  0  0  0  0  0  0  0  0  0
   -7.9222  -30.0645  -15.5947 C   0  0  1  0  0  0  0  0  0  0  0  0
   -8.5226  -30.0975  -14.1969 C   0  0  1  0  0  0  0  0  0  0  0  0
  -10.0086  -30.3339  -14.3730 C   0  0  0  0  0  0  0  0  0  0  0  0
   -4.5169  -30.3855  -12.8267 O   0  0  0  0  0  0  0  0  0  0  0  0
   -7.8872  -31.1752  -13.6138 O   0  0  0  0  0  0  0  0  0  0  0  0
   -6.0938  -31.3517  -16.2856 O   0  0  0  0  0  0  0  0  0  0  0  0
   -8.0517  -28.8183  -16.1897 O   0  0  0  0  0  0  0  0  0  0  0  0
  -10.4398  -31.3696  -13.5784 O   0  0  0  0  0  0  0  0  0  0  0  0
  1  2  1  0
  1  7  1  1
  1 11  1  0
  2  3  1  0
  2  8  1  1
  3  4  1  0
  3  9  1  1
  5  4  1  0
  4 10  1  6
  5  6  1  6
 11  5  1  0
  6 12  1  0
 14  7  1  0
 14 13  1  1
 13 19  1  0
 14 15  1  0
 20 14  1  0
 16 15  1  0
 15 21  1  6
 17 16  1  0
 16 22  1  1
 17 18  1  6
 17 20  1  0
 23 18  1  0
M  END
$$$$
