
     RDKit          3D

 23 24  0  0  0  0  0  0  0  0999 V2000
   -6.7724  -33.5413  -16.1730 C   0  0  1  0  0  0  0  0  0  0  0  0
   -7.3425  -34.1729  -17.4245 C   0  0  1  0  0  0  0  0  0  0  0  0
   -7.5750  -35.6382  -17.1222 C   0  0  2  0  0  0  0  0  0  0  0  0
   -6.2011  -36.1886  -16.7167 C   0  0  1  0  0  0  0  0  0  0  0  0
   -5.8800  -35.5304  -15.3859 C   0  0  1  0  0  0  0  0  0  0  0  0
   -4.3959  -35.2610  -15.3757 C   0  0  0  0  0  0  0  0  0  0  0  0
   -7.6794  -32.5617  -15.7689 O   0  0  0  0  0  0  0  0  0  0  0  0
   -8.5802  -33.6339  -17.7725 O   0  0  0  0  0  0  0  0  0  0  0  0
   -8.0855  -36.3274  -18.2088 O   0  0  0  0  0  0  0  0  0  0  0  0
   -6.2152  -37.5715  -16.6270 O   0  0  0  0  0  0  0  0  0  0  0  0
   -6.6451  -34.4367  -15.1246 O   0  0  0  0  0  0  0  0  0  0  0  0
   -3.7122  -35.9503  -14.4049 O   0  0  0  0  0  0  0  0  0  0  0  0
   -7.4654  -30.1783  -15.4520 C   0  0  0  0  0  0  0  0  0  0  0  0
   -7.1049  -31.5671  -15.0221 C   0  0  1  0  0  0  0  0  0  0  0  0
   -7.6100  -31.7427  -13.5861 C   0  0  2  0  0  0  0  0  0  0  0  0
   -6.3432  -31.8096  -12.7715 C   0  0  1  0  0  0  0  0  0  0  0  0
   -5.3308  -31.2017  -13.7313 C   0  0  1  0  0  0  0  0  0  0  0  0
   -3.9738  -31.7337  -13.3182 C   0  0  0  0  0  0  0  0  0  0  0  0
   -8.7654  -30.0312  -15.8717 O   0  0  0  0  0  0  0  0  0  0  0  0
   -5.7341  -31.6927  -14.9565 O   0  0  0  0  0  0  0  0  0  0  0  0
   -8.2784  -32.9496  -13.4293 O   0  0  0  0  0  0  0  0  0  0  0  0
   -6.4258  -31.1015  -11.5818 O   0  0  0  0  0  0  0  0  0  0  0  0
   -3.3988  -32.4584  -14.3351 O   0  0  0  0  0  0  0  0  0  0  0  0
  1  2  1  0
  1  7  1  1
  1 11  1  0
  2  3  1  0
  2  8  1  1
  3  4  1  0
  3  9  1  6
  5  4  1  0
  4 10  1  1
  5  6  1  6
 11  5  1  0
  6 12  1  0
 14  7  1  0
 14 13  1  6
 13 19  1  0
 14 15  1  0
 20 14  1  0
 16 15  1  0
 15 21  1  6
 17 16  1  0
 16 22  1  1
 17 18  1  1
 17 20  1  0
 23 18  1  0
M  END
$$$$
