
     RDKit          3D

 23 24  0  0  0  0  0  0  0  0999 V2000
   -6.5435  -32.4546  -15.7161 C   0  0  1  0  0  0  0  0  0  0  0  0
   -7.4227  -31.3249  -15.2251 C   0  0  1  0  0  0  0  0  0  0  0  0
   -7.9349  -31.7174  -13.8553 C   0  0  2  0  0  0  0  0  0  0  0  0
   -8.6817  -33.0408  -14.0686 C   0  0  1  0  0  0  0  0  0  0  0  0
   -7.6091  -34.0563  -14.4234 C   0  0  1  0  0  0  0  0  0  0  0  0
   -8.2063  -34.9855  -15.4507 C   0  0  0  0  0  0  0  0  0  0  0  0
   -5.2662  -31.9221  -15.8908 O   0  0  0  0  0  0  0  0  0  0  0  0
   -6.7143  -30.1353  -15.0627 O   0  0  0  0  0  0  0  0  0  0  0  0
   -8.7699  -30.7581  -13.3086 O   0  0  0  0  0  0  0  0  0  0  0  0
   -9.3967  -33.4073  -12.9394 O   0  0  0  0  0  0  0  0  0  0  0  0
   -6.4324  -33.4900  -14.8037 O   0  0  0  0  0  0  0  0  0  0  0  0
   -8.7605  -36.1225  -14.9167 O   0  0  0  0  0  0  0  0  0  0  0  0
   -3.1389  -32.1185  -17.0145 C   0  0  0  0  0  0  0  0  0  0  0  0
   -4.4210  -32.7558  -16.5747 C   0  0  1  0  0  0  0  0  0  0  0  0
   -4.0558  -33.8974  -15.6201 C   0  0  2  0  0  0  0  0  0  0  0  0
   -4.4089  -35.1377  -16.4010 C   0  0  1  0  0  0  0  0  0  0  0  0
   -4.4697  -34.5967  -17.8220 C   0  0  1  0  0  0  0  0  0  0  0  0
   -5.3663  -35.5366  -18.6017 C   0  0  0  0  0  0  0  0  0  0  0  0
   -2.8563  -30.9230  -16.3992 O   0  0  0  0  0  0  0  0  0  0  0  0
   -5.0389  -33.3507  -17.6534 O   0  0  0  0  0  0  0  0  0  0  0  0
   -4.8474  -33.8756  -14.4796 O   0  0  0  0  0  0  0  0  0  0  0  0
   -3.4690  -36.1488  -16.2666 O   0  0  0  0  0  0  0  0  0  0  0  0
   -6.4209  -34.8573  -19.1642 O   0  0  0  0  0  0  0  0  0  0  0  0
  1  2  1  0
  1  7  1  1
  1 11  1  0
  2  3  1  0
  2  8  1  1
  3  4  1  0
  3  9  1  6
  5  4  1  0
  4 10  1  1
  5  6  1  6
 11  5  1  0
  6 12  1  0
 14  7  1  0
 14 13  1  6
 13 19  1  0
 14 15  1  0
 20 14  1  0
 16 15  1  0
 15 21  1  1
 17 16  1  0
 16 22  1  6
 17 18  1  6
 17 20  1  0
 23 18  1  0
M  END
$$$$
