
     RDKit          3D

 23 24  0  0  0  0  0  0  0  0999 V2000
   -6.5694  -33.1488  -15.3337 C   0  0  1  0  0  0  0  0  0  0  0  0
   -7.0690  -32.8072  -13.9467 C   0  0  1  0  0  0  0  0  0  0  0  0
   -5.8706  -32.3638  -13.1342 C   0  0  2  0  0  0  0  0  0  0  0  0
   -4.8978  -33.5499  -13.1715 C   0  0  1  0  0  0  0  0  0  0  0  0
   -4.4214  -33.6354  -14.6114 C   0  0  1  0  0  0  0  0  0  0  0  0
   -4.2723  -35.1003  -14.9387 C   0  0  0  0  0  0  0  0  0  0  0  0
   -7.2117  -32.2810  -16.2167 O   0  0  0  0  0  0  0  0  0  0  0  0
   -7.9651  -31.7393  -13.9552 O   0  0  0  0  0  0  0  0  0  0  0  0
   -6.2069  -32.0376  -11.8315 O   0  0  0  0  0  0  0  0  0  0  0  0
   -3.8492  -33.3739  -12.2827 O   0  0  0  0  0  0  0  0  0  0  0  0
   -5.2076  -32.9484  -15.4831 O   0  0  0  0  0  0  0  0  0  0  0  0
   -3.3307  -35.7473  -14.1772 O   0  0  0  0  0  0  0  0  0  0  0  0
   -8.0920  -31.9146  -18.4343 C   0  0  0  0  0  0  0  0  0  0  0  0
   -7.4621  -32.8423  -17.4412 C   0  0  1  0  0  0  0  0  0  0  0  0
   -6.1088  -33.2720  -18.0172 C   0  0  2  0  0  0  0  0  0  0  0  0
   -6.3108  -34.7296  -18.3447 C   0  0  1  0  0  0  0  0  0  0  0  0
   -7.8290  -34.8286  -18.3722 C   0  0  1  0  0  0  0  0  0  0  0  0
   -8.1703  -36.2783  -18.0945 C   0  0  0  0  0  0  0  0  0  0  0  0
   -9.2840  -31.3667  -18.0259 O   0  0  0  0  0  0  0  0  0  0  0  0
   -8.2111  -33.9947  -17.3409 O   0  0  0  0  0  0  0  0  0  0  0  0
   -5.1035  -33.1878  -17.0631 O   0  0  0  0  0  0  0  0  0  0  0  0
   -5.7412  -35.0973  -19.5546 O   0  0  0  0  0  0  0  0  0  0  0  0
   -8.4007  -36.4817  -16.7545 O   0  0  0  0  0  0  0  0  0  0  0  0
  1  2  1  0
  1  7  1  6
  1 11  1  0
  2  3  1  0
  2  8  1  6
  3  4  1  0
  3  9  1  1
  5  4  1  0
  4 10  1  1
  5  6  1  6
 11  5  1  0
  6 12  1  0
 14  7  1  0
 14 13  1  6
 13 19  1  0
 14 15  1  0
 20 14  1  0
 16 15  1  0
 15 21  1  1
 17 16  1  0
 16 22  1  6
 17 18  1  1
 17 20  1  0
 23 18  1  0
M  END
$$$$
