
     RDKit          3D

 23 24  0  0  0  0  0  0  0  0999 V2000
   -6.7540  -33.1270  -16.0908 C   0  0  1  0  0  0  0  0  0  0  0  0
   -7.0674  -32.3556  -17.3545 C   0  0  1  0  0  0  0  0  0  0  0  0
   -8.2928  -32.9914  -17.9765 C   0  0  2  0  0  0  0  0  0  0  0  0
   -7.9067  -34.4564  -18.2201 C   0  0  1  0  0  0  0  0  0  0  0  0
   -7.7688  -35.0721  -16.8383 C   0  0  1  0  0  0  0  0  0  0  0  0
   -6.6245  -36.0526  -16.9063 C   0  0  0  0  0  0  0  0  0  0  0  0
   -6.8596  -32.2241  -15.0330 O   0  0  0  0  0  0  0  0  0  0  0  0
   -7.3935  -31.0253  -17.0953 O   0  0  0  0  0  0  0  0  0  0  0  0
   -8.6672  -32.3732  -19.1572 O   0  0  0  0  0  0  0  0  0  0  0  0
   -8.8547  -35.1091  -18.9919 O   0  0  0  0  0  0  0  0  0  0  0  0
   -7.6529  -34.1508  -15.8445 O   0  0  0  0  0  0  0  0  0  0  0  0
   -5.5238  -35.5772  -17.5752 O   0  0  0  0  0  0  0  0  0  0  0  0
   -6.1822  -31.6302  -12.7935 C   0  0  0  0  0  0  0  0  0  0  0  0
   -6.2112  -32.6395  -13.8998 C   0  0  1  0  0  0  0  0  0  0  0  0
   -6.9713  -33.8631  -13.3774 C   0  0  2  0  0  0  0  0  0  0  0  0
   -5.9015  -34.9184  -13.2559 C   0  0  1  0  0  0  0  0  0  0  0  0
   -4.6368  -34.0722  -13.2551 C   0  0  1  0  0  0  0  0  0  0  0  0
   -3.5166  -34.9731  -13.7331 C   0  0  0  0  0  0  0  0  0  0  0  0
   -6.0488  -30.3287  -13.2130 O   0  0  0  0  0  0  0  0  0  0  0  0
   -4.9313  -33.0766  -14.1645 O   0  0  0  0  0  0  0  0  0  0  0  0
   -7.9049  -34.3113  -14.3022 O   0  0  0  0  0  0  0  0  0  0  0  0
   -6.0207  -35.6810  -12.1036 O   0  0  0  0  0  0  0  0  0  0  0  0
   -2.5640  -34.2542  -14.4156 O   0  0  0  0  0  0  0  0  0  0  0  0
  1  2  1  0
  1  7  1  1
  1 11  1  0
  2  3  1  0
  2  8  1  1
  3  4  1  0
  3  9  1  6
  5  4  1  0
  4 10  1  6
  5  6  1  6
 11  5  1  0
  6 12  1  0
 14  7  1  0
 14 13  1  1
 13 19  1  0
 14 15  1  0
 20 14  1  0
 16 15  1  0
 15 21  1  6
 17 16  1  0
 16 22  1  1
 17 18  1  6
 17 20  1  0
 23 18  1  0
M  END
$$$$
