
     RDKit          3D

 23 24  0  0  0  0  0  0  0  0999 V2000
   -6.4426  -34.4994  -15.3978 C   0  0  1  0  0  0  0  0  0  0  0  0
   -5.3849  -35.3633  -14.7473 C   0  0  1  0  0  0  0  0  0  0  0  0
   -4.5353  -36.0442  -15.7995 C   0  0  2  0  0  0  0  0  0  0  0  0
   -5.4395  -36.9895  -16.5897 C   0  0  1  0  0  0  0  0  0  0  0  0
   -6.6712  -36.1808  -16.9261 C   0  0  1  0  0  0  0  0  0  0  0  0
   -7.8995  -36.7622  -16.2588 C   0  0  0  0  0  0  0  0  0  0  0  0
   -6.1885  -33.2073  -15.0858 O   0  0  0  0  0  0  0  0  0  0  0  0
   -4.5060  -34.5731  -13.9701 O   0  0  0  0  0  0  0  0  0  0  0  0
   -3.5323  -36.7968  -15.2411 O   0  0  0  0  0  0  0  0  0  0  0  0
   -4.7364  -37.3579  -17.7183 O   0  0  0  0  0  0  0  0  0  0  0  0
   -6.5214  -34.8223  -16.7147 O   0  0  0  0  0  0  0  0  0  0  0  0
   -8.6632  -37.4053  -17.2648 O   0  0  0  0  0  0  0  0  0  0  0  0
   -7.2193  -31.7767  -16.7232 C   0  0  0  0  0  0  0  0  0  0  0  0
   -7.1113  -32.2393  -15.2568 C   0  0  1  0  0  0  0  0  0  0  0  0
   -8.4682  -32.4341  -14.7023 C   0  0  2  0  0  0  0  0  0  0  0  0
   -8.3563  -31.7939  -13.3278 C   0  0  1  0  0  0  0  0  0  0  0  0
   -7.4533  -30.6373  -13.7048 C   0  0  1  0  0  0  0  0  0  0  0  0
   -6.8307  -30.0179  -12.4787 C   0  0  0  0  0  0  0  0  0  0  0  0
   -7.9267  -30.5668  -16.6848 O   0  0  0  0  0  0  0  0  0  0  0  0
   -6.5661  -31.0892  -14.6225 O   0  0  0  0  0  0  0  0  0  0  0  0
   -8.9454  -33.6998  -14.5837 O   0  0  0  0  0  0  0  0  0  0  0  0
   -9.5965  -31.3478  -12.8754 O   0  0  0  0  0  0  0  0  0  0  0  0
   -5.5625  -29.5453  -12.6935 O   0  0  0  0  0  0  0  0  0  0  0  0
  1  2  1  0
  1  7  1  6
  1 11  1  0
  2  3  1  0
  2  8  1  1
  3  4  1  0
  3  9  1  1
  5  4  1  0
  4 10  1  6
  5  6  1  0
  5 11  1  1
  6 12  1  6
 14  7  1  6
 14 13  1  0
 13 19  1  6
 14 15  1  0
 20 14  1  0
 16 15  1  0
 15 21  1  1
 17 16  1  0
 16 22  1  6
 18 17  1  0
 17 20  1  6
 18 23  1  6
M  END
$$$$
