
     RDKit          3D

 23 24  0  0  0  0  0  0  0  0999 V2000
   -7.4548  -32.3153  -14.6409 C   0  0  1  0  0  0  0  0  0  0  0  0
   -8.4432  -31.3517  -15.2594 C   0  0  1  0  0  0  0  0  0  0  0  0
   -7.8341  -29.9706  -15.3784 C   0  0  2  0  0  0  0  0  0  0  0  0
   -7.5581  -29.4588  -13.9651 C   0  0  1  0  0  0  0  0  0  0  0  0
   -6.8717  -30.6000  -13.2506 C   0  0  1  0  0  0  0  0  0  0  0  0
   -7.7170  -31.1056  -12.1009 C   0  0  0  0  0  0  0  0  0  0  0  0
   -7.1386  -33.2528  -15.5644 O   0  0  0  0  0  0  0  0  0  0  0  0
   -8.7788  -31.7577  -16.5723 O   0  0  0  0  0  0  0  0  0  0  0  0
   -8.6888  -29.0831  -15.9835 O   0  0  0  0  0  0  0  0  0  0  0  0
   -6.7353  -28.3589  -14.0965 O   0  0  0  0  0  0  0  0  0  0  0  0
   -6.4344  -31.6043  -14.0950 O   0  0  0  0  0  0  0  0  0  0  0  0
   -6.8314  -31.5191  -11.0744 O   0  0  0  0  0  0  0  0  0  0  0  0
   -7.4699  -34.8560  -13.8008 C   0  0  0  0  0  0  0  0  0  0  0  0
   -7.0099  -34.5552  -15.2409 C   0  0  1  0  0  0  0  0  0  0  0  0
   -7.5575  -35.5802  -16.1553 C   0  0  2  0  0  0  0  0  0  0  0  0
   -6.3653  -35.8989  -17.0433 C   0  0  1  0  0  0  0  0  0  0  0  0
   -5.2821  -35.7993  -15.9887 C   0  0  1  0  0  0  0  0  0  0  0  0
   -3.9198  -35.6809  -16.6250 C   0  0  0  0  0  0  0  0  0  0  0  0
   -6.3162  -35.2593  -13.1138 O   0  0  0  0  0  0  0  0  0  0  0  0
   -5.6083  -34.7813  -15.1576 O   0  0  0  0  0  0  0  0  0  0  0  0
   -8.6308  -35.2587  -16.9226 O   0  0  0  0  0  0  0  0  0  0  0  0
   -6.4537  -37.1879  -17.5651 O   0  0  0  0  0  0  0  0  0  0  0  0
   -3.7391  -34.5060  -17.3067 O   0  0  0  0  0  0  0  0  0  0  0  0
  1  2  1  0
  1  7  1  6
  1 11  1  0
  2  3  1  0
  2  8  1  6
  3  4  1  0
  3  9  1  1
  5  4  1  0
  4 10  1  6
  5  6  1  0
  5 11  1  6
  6 12  1  6
 14  7  1  6
 14 13  1  0
 13 19  1  6
 14 15  1  0
 20 14  1  0
 16 15  1  0
 15 21  1  6
 17 16  1  0
 16 22  1  1
 18 17  1  0
 17 20  1  6
 18 23  1  6
M  END
$$$$
