
     RDKit          3D

 23 24  0  0  0  0  0  0  0  0999 V2000
   -6.8597  -33.1737  -15.3824 C   0  0  1  0  0  0  0  0  0  0  0  0
   -6.8907  -31.6645  -15.2745 C   0  0  1  0  0  0  0  0  0  0  0  0
   -7.9453  -31.1668  -16.2403 C   0  0  2  0  0  0  0  0  0  0  0  0
   -7.5071  -31.6843  -17.6168 C   0  0  1  0  0  0  0  0  0  0  0  0
   -7.6742  -33.1927  -17.5523 C   0  0  1  0  0  0  0  0  0  0  0  0
   -6.5379  -33.7948  -18.3407 C   0  0  0  0  0  0  0  0  0  0  0  0
   -7.2009  -33.6730  -14.1256 O   0  0  0  0  0  0  0  0  0  0  0  0
   -7.2731  -31.2326  -14.0054 O   0  0  0  0  0  0  0  0  0  0  0  0
   -8.0533  -29.7867  -16.2395 O   0  0  0  0  0  0  0  0  0  0  0  0
   -8.2580  -31.1173  -18.6343 O   0  0  0  0  0  0  0  0  0  0  0  0
   -7.7854  -33.6710  -16.2840 O   0  0  0  0  0  0  0  0  0  0  0  0
   -6.7584  -33.8305  -19.6954 O   0  0  0  0  0  0  0  0  0  0  0  0
   -6.3806  -35.0129  -12.2930 C   0  0  0  0  0  0  0  0  0  0  0  0
   -6.4797  -34.7822  -13.7696 C   0  0  1  0  0  0  0  0  0  0  0  0
   -7.2024  -35.9925  -14.3702 C   0  0  2  0  0  0  0  0  0  0  0  0
   -6.1252  -36.6907  -15.1609 C   0  0  1  0  0  0  0  0  0  0  0  0
   -4.8645  -36.0977  -14.5490 C   0  0  1  0  0  0  0  0  0  0  0  0
   -3.7763  -36.2296  -15.5946 C   0  0  0  0  0  0  0  0  0  0  0  0
   -6.1896  -33.8733  -11.5497 O   0  0  0  0  0  0  0  0  0  0  0  0
   -5.2190  -34.7825  -14.3263 O   0  0  0  0  0  0  0  0  0  0  0  0
   -8.1934  -35.5996  -15.2598 O   0  0  0  0  0  0  0  0  0  0  0  0
   -6.1682  -38.0712  -15.0341 O   0  0  0  0  0  0  0  0  0  0  0  0
   -3.5971  -35.0460  -16.2706 O   0  0  0  0  0  0  0  0  0  0  0  0
  1  2  1  0
  1  7  1  1
  1 11  1  0
  2  3  1  0
  2  8  1  1
  3  4  1  0
  3  9  1  6
  5  4  1  0
  4 10  1  6
  5  6  1  1
 11  5  1  0
  6 12  1  0
 14  7  1  0
 14 13  1  1
 13 19  1  0
 14 15  1  0
 20 14  1  0
 16 15  1  0
 15 21  1  6
 17 16  1  0
 16 22  1  1
 17 18  1  6
 17 20  1  0
 23 18  1  0
M  END
$$$$
