
     RDKit          3D

 23 24  0  0  0  0  0  0  0  0999 V2000
   -6.6519  -33.2243  -15.2467 C   0  0  1  0  0  0  0  0  0  0  0  0
   -7.1784  -33.2604  -13.8284 C   0  0  1  0  0  0  0  0  0  0  0  0
   -5.9857  -33.4292  -12.9109 C   0  0  2  0  0  0  0  0  0  0  0  0
   -5.3139  -34.7338  -13.3596 C   0  0  1  0  0  0  0  0  0  0  0  0
   -4.7462  -34.4414  -14.7379 C   0  0  1  0  0  0  0  0  0  0  0  0
   -4.9116  -35.6974  -15.5568 C   0  0  0  0  0  0  0  0  0  0  0  0
   -6.9966  -31.9787  -15.7711 O   0  0  0  0  0  0  0  0  0  0  0  0
   -7.7991  -32.0666  -13.4638 O   0  0  0  0  0  0  0  0  0  0  0  0
   -6.3500  -33.4912  -11.5767 O   0  0  0  0  0  0  0  0  0  0  0  0
   -4.3348  -35.1341  -12.4642 O   0  0  0  0  0  0  0  0  0  0  0  0
   -5.2730  -33.3283  -15.3151 O   0  0  0  0  0  0  0  0  0  0  0  0
   -4.1972  -36.7692  -15.0816 O   0  0  0  0  0  0  0  0  0  0  0  0
   -7.4985  -30.6639  -17.7323 C   0  0  0  0  0  0  0  0  0  0  0  0
   -7.0370  -31.9602  -17.1405 C   0  0  1  0  0  0  0  0  0  0  0  0
   -5.6044  -32.1974  -17.6296 C   0  0  2  0  0  0  0  0  0  0  0  0
   -5.7409  -33.3689  -18.5686 C   0  0  1  0  0  0  0  0  0  0  0  0
   -7.2329  -33.3483  -18.8672 C   0  0  1  0  0  0  0  0  0  0  0  0
   -7.6073  -34.7560  -19.2834 C   0  0  0  0  0  0  0  0  0  0  0  0
   -8.3641  -29.9512  -16.9384 O   0  0  0  0  0  0  0  0  0  0  0  0
   -7.7857  -32.9979  -17.6521 O   0  0  0  0  0  0  0  0  0  0  0  0
   -4.7720  -32.5846  -16.5879 O   0  0  0  0  0  0  0  0  0  0  0  0
   -4.9761  -33.2344  -19.7179 O   0  0  0  0  0  0  0  0  0  0  0  0
   -8.8662  -35.0826  -18.8381 O   0  0  0  0  0  0  0  0  0  0  0  0
  1  2  1  0
  1  7  1  1
  1 11  1  0
  2  3  1  0
  2  8  1  1
  3  4  1  0
  3  9  1  1
  5  4  1  0
  4 10  1  1
  5  6  1  6
 11  5  1  0
  6 12  1  0
 14  7  1  0
 14 13  1  1
 13 19  1  0
 14 15  1  0
 20 14  1  0
 16 15  1  0
 15 21  1  1
 17 16  1  0
 16 22  1  6
 17 18  1  1
 17 20  1  0
 23 18  1  0
M  END
$$$$
