
     RDKit          3D

 23 24  0  0  0  0  0  0  0  0999 V2000
   -6.4218  -32.5576  -15.5469 C   0  0  1  0  0  0  0  0  0  0  0  0
   -6.7355  -31.1275  -15.9298 C   0  0  1  0  0  0  0  0  0  0  0  0
   -8.0201  -31.1486  -16.7310 C   0  0  2  0  0  0  0  0  0  0  0  0
   -7.7336  -32.0656  -17.9275 C   0  0  1  0  0  0  0  0  0  0  0  0
   -7.5811  -33.4583  -17.3404 C   0  0  1  0  0  0  0  0  0  0  0  0
   -6.5021  -34.1535  -18.1329 C   0  0  0  0  0  0  0  0  0  0  0  0
   -6.4319  -32.6112  -14.1531 O   0  0  0  0  0  0  0  0  0  0  0  0
   -6.9698  -30.3209  -14.8172 O   0  0  0  0  0  0  0  0  0  0  0  0
   -8.4008  -29.8861  -17.1525 O   0  0  0  0  0  0  0  0  0  0  0  0
   -8.7483  -32.0026  -18.8692 O   0  0  0  0  0  0  0  0  0  0  0  0
   -7.3715  -33.4591  -15.9966 O   0  0  0  0  0  0  0  0  0  0  0  0
   -6.8871  -35.3639  -18.6539 O   0  0  0  0  0  0  0  0  0  0  0  0
   -5.7695  -33.8473  -12.1884 C   0  0  0  0  0  0  0  0  0  0  0  0
   -6.0699  -33.8354  -13.6558 C   0  0  1  0  0  0  0  0  0  0  0  0
   -7.2583  -34.7755  -13.8831 C   0  0  2  0  0  0  0  0  0  0  0  0
   -6.6526  -35.9368  -14.6296 C   0  0  1  0  0  0  0  0  0  0  0  0
   -5.1728  -35.7581  -14.3233 C   0  0  1  0  0  0  0  0  0  0  0  0
   -4.4164  -36.4453  -15.4416 C   0  0  0  0  0  0  0  0  0  0  0  0
   -6.5468  -32.9961  -11.4408 O   0  0  0  0  0  0  0  0  0  0  0  0
   -5.0156  -34.3871  -14.3510 O   0  0  0  0  0  0  0  0  0  0  0  0
   -8.2127  -34.1940  -14.7070 O   0  0  0  0  0  0  0  0  0  0  0  0
   -7.1305  -37.1659  -14.2000 O   0  0  0  0  0  0  0  0  0  0  0  0
   -3.3968  -35.6495  -15.9077 O   0  0  0  0  0  0  0  0  0  0  0  0
  1  2  1  0
  1  7  1  1
  1 11  1  0
  2  3  1  0
  2  8  1  1
  3  4  1  0
  3  9  1  6
  5  4  1  0
  4 10  1  6
  5  6  1  6
 11  5  1  0
  6 12  1  0
 14  7  1  0
 14 13  1  1
 13 19  1  0
 14 15  1  0
 20 14  1  0
 16 15  1  0
 15 21  1  6
 17 16  1  0
 16 22  1  1
 17 18  1  6
 17 20  1  0
 23 18  1  0
M  END
$$$$
