
     RDKit          3D

 23 24  0  0  0  0  0  0  0  0999 V2000
   -7.0199  -33.6941  -15.2906 C   0  0  1  0  0  0  0  0  0  0  0  0
   -8.0143  -34.7434  -15.7382 C   0  0  1  0  0  0  0  0  0  0  0  0
   -7.5058  -36.0824  -15.2467 C   0  0  2  0  0  0  0  0  0  0  0  0
   -6.1126  -36.2378  -15.8708 C   0  0  1  0  0  0  0  0  0  0  0  0
   -5.2490  -35.1863  -15.1954 C   0  0  1  0  0  0  0  0  0  0  0  0
   -4.2990  -34.6596  -16.2421 C   0  0  0  0  0  0  0  0  0  0  0  0
   -7.7085  -32.8226  -14.4471 O   0  0  0  0  0  0  0  0  0  0  0  0
   -9.2723  -34.5580  -15.1670 O   0  0  0  0  0  0  0  0  0  0  0  0
   -8.3342  -37.1291  -15.6136 O   0  0  0  0  0  0  0  0  0  0  0  0
   -5.6158  -37.5187  -15.6895 O   0  0  0  0  0  0  0  0  0  0  0  0
   -5.9678  -34.2214  -14.5613 O   0  0  0  0  0  0  0  0  0  0  0  0
   -3.1079  -34.2042  -15.7332 O   0  0  0  0  0  0  0  0  0  0  0  0
   -8.1513  -30.5153  -13.8927 C   0  0  0  0  0  0  0  0  0  0  0  0
   -7.2364  -31.5373  -14.4944 C   0  0  1  0  0  0  0  0  0  0  0  0
   -5.9350  -31.5128  -13.6859 C   0  0  2  0  0  0  0  0  0  0  0  0
   -4.9321  -30.9288  -14.6481 C   0  0  1  0  0  0  0  0  0  0  0  0
   -5.8418  -30.2672  -15.6729 C   0  0  1  0  0  0  0  0  0  0  0  0
   -5.0445  -30.1725  -16.9576 C   0  0  0  0  0  0  0  0  0  0  0  0
   -9.4892  -30.7918  -14.0388 O   0  0  0  0  0  0  0  0  0  0  0  0
   -6.8917  -31.1574  -15.7735 O   0  0  0  0  0  0  0  0  0  0  0  0
   -5.5153  -32.7967  -13.3643 O   0  0  0  0  0  0  0  0  0  0  0  0
   -4.0718  -30.0204  -14.0494 O   0  0  0  0  0  0  0  0  0  0  0  0
   -5.3946  -31.1763  -17.8293 O   0  0  0  0  0  0  0  0  0  0  0  0
  1  2  1  0
  1  7  1  1
  1 11  1  0
  2  3  1  0
  2  8  1  1
  3  4  1  0
  3  9  1  6
  5  4  1  0
  4 10  1  1
  5  6  1  6
 11  5  1  0
  6 12  1  0
 14  7  1  0
 14 13  1  1
 13 19  1  0
 14 15  1  0
 20 14  1  0
 16 15  1  0
 15 21  1  6
 17 16  1  0
 16 22  1  1
 17 18  1  6
 17 20  1  0
 23 18  1  0
M  END
$$$$
