
     RDKit          3D

 23 24  0  0  0  0  0  0  0  0999 V2000
   -7.5129  -31.7521  -14.9138 C   0  0  1  0  0  0  0  0  0  0  0  0
   -6.9013  -30.5692  -15.6311 C   0  0  1  0  0  0  0  0  0  0  0  0
   -6.4340  -29.5286  -14.6355 C   0  0  2  0  0  0  0  0  0  0  0  0
   -7.6652  -28.9992  -13.9009 C   0  0  1  0  0  0  0  0  0  0  0  0
   -8.4521  -30.2253  -13.4989 C   0  0  1  0  0  0  0  0  0  0  0  0
   -9.7982  -30.2558  -14.1910 C   0  0  0  0  0  0  0  0  0  0  0  0
   -6.7361  -32.8367  -15.1413 O   0  0  0  0  0  0  0  0  0  0  0  0
   -5.7580  -30.9678  -16.3627 O   0  0  0  0  0  0  0  0  0  0  0  0
   -5.8272  -28.4634  -15.2530 O   0  0  0  0  0  0  0  0  0  0  0  0
   -7.2018  -28.2981  -12.8067 O   0  0  0  0  0  0  0  0  0  0  0  0
   -7.7442  -31.4071  -13.6206 O   0  0  0  0  0  0  0  0  0  0  0  0
  -10.2276  -28.9133  -14.3406 O   0  0  0  0  0  0  0  0  0  0  0  0
   -7.8596  -34.2153  -13.5203 C   0  0  0  0  0  0  0  0  0  0  0  0
   -7.1717  -34.0884  -14.8939 C   0  0  1  0  0  0  0  0  0  0  0  0
   -7.9849  -34.7815  -15.9161 C   0  0  2  0  0  0  0  0  0  0  0  0
   -6.9339  -35.5308  -16.7195 C   0  0  1  0  0  0  0  0  0  0  0  0
   -6.0161  -35.9037  -15.5732 C   0  0  1  0  0  0  0  0  0  0  0  0
   -4.6618  -36.3283  -16.0834 C   0  0  0  0  0  0  0  0  0  0  0  0
   -6.8508  -33.9929  -12.5724 O   0  0  0  0  0  0  0  0  0  0  0  0
   -5.9933  -34.8625  -14.7079 O   0  0  0  0  0  0  0  0  0  0  0  0
   -8.7554  -34.0347  -16.7484 O   0  0  0  0  0  0  0  0  0  0  0  0
   -7.4746  -36.6607  -17.3299 O   0  0  0  0  0  0  0  0  0  0  0  0
   -3.8350  -35.2741  -16.3711 O   0  0  0  0  0  0  0  0  0  0  0  0
  1  2  1  0
  1  7  1  1
  1 11  1  0
  2  3  1  0
  2  8  1  1
  3  4  1  0
  3  9  1  6
  5  4  1  0
  4 10  1  1
  5  6  1  0
  5 11  1  6
  6 12  1  6
 14  7  1  6
 14 13  1  0
 13 19  1  6
 14 15  1  0
 20 14  1  0
 16 15  1  0
 15 21  1  6
 17 16  1  0
 16 22  1  1
 18 17  1  0
 17 20  1  1
 18 23  1  6
M  END
$$$$
