
     RDKit          3D

 23 24  0  0  0  0  0  0  0  0999 V2000
   -6.7180  -33.7704  -15.9531 C   0  0  1  0  0  0  0  0  0  0  0  0
   -6.6470  -33.8984  -17.4586 C   0  0  1  0  0  0  0  0  0  0  0  0
   -7.1605  -35.2525  -17.9007 C   0  0  2  0  0  0  0  0  0  0  0  0
   -6.2222  -36.3161  -17.3318 C   0  0  1  0  0  0  0  0  0  0  0  0
   -6.0276  -35.9460  -15.8795 C   0  0  1  0  0  0  0  0  0  0  0  0
   -4.5833  -35.5877  -15.6008 C   0  0  0  0  0  0  0  0  0  0  0  0
   -7.6096  -32.7985  -15.6496 O   0  0  0  0  0  0  0  0  0  0  0  0
   -7.4733  -32.9326  -18.0796 O   0  0  0  0  0  0  0  0  0  0  0  0
   -7.1569  -35.3816  -19.2673 O   0  0  0  0  0  0  0  0  0  0  0  0
   -6.8646  -37.5286  -17.4768 O   0  0  0  0  0  0  0  0  0  0  0  0
   -6.9271  -35.0016  -15.4192 O   0  0  0  0  0  0  0  0  0  0  0  0
   -4.3456  -35.8284  -14.2244 O   0  0  0  0  0  0  0  0  0  0  0  0
   -7.2762  -30.4257  -15.8700 C   0  0  0  0  0  0  0  0  0  0  0  0
   -7.2482  -31.6848  -14.9813 C   0  0  1  0  0  0  0  0  0  0  0  0
   -7.8917  -31.3846  -13.6842 C   0  0  2  0  0  0  0  0  0  0  0  0
   -6.9448  -32.0363  -12.6891 C   0  0  1  0  0  0  0  0  0  0  0  0
   -5.6427  -31.7197  -13.3960 C   0  0  1  0  0  0  0  0  0  0  0  0
   -4.5184  -32.5711  -12.8613 C   0  0  0  0  0  0  0  0  0  0  0  0
   -6.0561  -29.7748  -15.6388 O   0  0  0  0  0  0  0  0  0  0  0  0
   -5.8573  -31.8378  -14.7277 O   0  0  0  0  0  0  0  0  0  0  0  0
   -9.1586  -31.8244  -13.4709 O   0  0  0  0  0  0  0  0  0  0  0  0
   -7.0144  -31.4154  -11.4436 O   0  0  0  0  0  0  0  0  0  0  0  0
   -3.5782  -32.8855  -13.8075 O   0  0  0  0  0  0  0  0  0  0  0  0
  1  2  1  0
  1  7  1  6
  1 11  1  0
  2  3  1  0
  2  8  1  6
  3  4  1  0
  3  9  1  6
  5  4  1  0
  4 10  1  1
  5  6  1  0
  5 11  1  6
  6 12  1  6
 14  7  1  6
 14 13  1  0
 13 19  1  6
 14 15  1  0
 20 14  1  0
 16 15  1  0
 15 21  1  6
 17 16  1  0
 16 22  1  1
 18 17  1  0
 17 20  1  6
 18 23  1  6
M  END
$$$$
