
     RDKit          3D

 23 24  0  0  0  0  0  0  0  0999 V2000
   -6.8793  -34.1856  -15.6502 C   0  0  1  0  0  0  0  0  0  0  0  0
   -7.3748  -35.5751  -15.3158 C   0  0  1  0  0  0  0  0  0  0  0  0
   -6.2093  -36.5232  -15.1285 C   0  0  2  0  0  0  0  0  0  0  0  0
   -5.4789  -36.6352  -16.4663 C   0  0  1  0  0  0  0  0  0  0  0  0
   -5.3114  -35.2144  -16.9535 C   0  0  1  0  0  0  0  0  0  0  0  0
   -6.0794  -34.9886  -18.2385 C   0  0  0  0  0  0  0  0  0  0  0  0
   -7.2190  -33.3564  -14.6360 O   0  0  0  0  0  0  0  0  0  0  0  0
   -8.0881  -35.5683  -14.0942 O   0  0  0  0  0  0  0  0  0  0  0  0
   -6.6241  -37.7826  -14.7736 O   0  0  0  0  0  0  0  0  0  0  0  0
   -4.2669  -37.2407  -16.2056 O   0  0  0  0  0  0  0  0  0  0  0  0
   -5.5653  -34.2593  -15.9860 O   0  0  0  0  0  0  0  0  0  0  0  0
   -5.4020  -33.9768  -18.9641 O   0  0  0  0  0  0  0  0  0  0  0  0
   -8.7823  -31.9093  -15.7551 C   0  0  0  0  0  0  0  0  0  0  0  0
   -7.5439  -32.0656  -14.8507 C   0  0  1  0  0  0  0  0  0  0  0  0
   -7.6628  -31.1526  -13.6936 C   0  0  2  0  0  0  0  0  0  0  0  0
   -6.2638  -30.5658  -13.5932 C   0  0  1  0  0  0  0  0  0  0  0  0
   -5.9682  -30.4661  -15.0758 C   0  0  1  0  0  0  0  0  0  0  0  0
   -4.4917  -30.2779  -15.3194 C   0  0  0  0  0  0  0  0  0  0  0  0
   -8.3360  -31.2126  -16.8870 O   0  0  0  0  0  0  0  0  0  0  0  0
   -6.5065  -31.5532  -15.6774 O   0  0  0  0  0  0  0  0  0  0  0  0
   -8.0327  -31.6700  -12.4938 O   0  0  0  0  0  0  0  0  0  0  0  0
   -6.2845  -29.3096  -12.9905 O   0  0  0  0  0  0  0  0  0  0  0  0
   -3.7376  -31.3593  -14.9456 O   0  0  0  0  0  0  0  0  0  0  0  0
  1  2  1  0
  1  7  1  1
  1 11  1  0
  2  3  1  0
  2  8  1  1
  3  4  1  0
  3  9  1  6
  5  4  1  0
  4 10  1  1
  5  6  1  0
  5 11  1  1
  6 12  1  6
 14  7  1  1
 14 13  1  0
 13 19  1  6
 14 15  1  0
 20 14  1  0
 16 15  1  0
 15 21  1  1
 17 16  1  0
 16 22  1  6
 18 17  1  0
 17 20  1  6
 18 23  1  6
M  END
$$$$
