
     RDKit          3D

 23 24  0  0  0  0  0  0  0  0999 V2000
   -6.7290  -33.3332  -15.8248 C   0  0  1  0  0  0  0  0  0  0  0  0
   -6.0344  -33.4971  -17.1585 C   0  0  1  0  0  0  0  0  0  0  0  0
   -6.6051  -34.6799  -17.9121 C   0  0  2  0  0  0  0  0  0  0  0  0
   -6.2954  -35.9406  -17.1057 C   0  0  1  0  0  0  0  0  0  0  0  0
   -6.6792  -35.6118  -15.6814 C   0  0  1  0  0  0  0  0  0  0  0  0
   -5.4666  -35.6329  -14.7752 C   0  0  0  0  0  0  0  0  0  0  0  0
   -7.4044  -32.1605  -15.8372 O   0  0  0  0  0  0  0  0  0  0  0  0
   -6.2473  -32.3604  -17.9732 O   0  0  0  0  0  0  0  0  0  0  0  0
   -6.0304  -34.8254  -19.1500 O   0  0  0  0  0  0  0  0  0  0  0  0
   -7.0751  -36.9491  -17.6337 O   0  0  0  0  0  0  0  0  0  0  0  0
   -7.4371  -34.4614  -15.5593 O   0  0  0  0  0  0  0  0  0  0  0  0
   -5.8244  -36.3499  -13.6061 O   0  0  0  0  0  0  0  0  0  0  0  0
   -8.8399  -30.5823  -14.7242 C   0  0  0  0  0  0  0  0  0  0  0  0
   -7.5349  -31.4027  -14.7298 C   0  0  1  0  0  0  0  0  0  0  0  0
   -7.3429  -32.0288  -13.4040 C   0  0  2  0  0  0  0  0  0  0  0  0
   -5.8650  -31.7903  -13.1390 C   0  0  1  0  0  0  0  0  0  0  0  0
   -5.7587  -30.4099  -13.7543 C   0  0  1  0  0  0  0  0  0  0  0  0
   -4.3179  -30.0406  -14.0038 C   0  0  0  0  0  0  0  0  0  0  0  0
   -8.6173  -29.5154  -15.6062 O   0  0  0  0  0  0  0  0  0  0  0  0
   -6.5470  -30.3875  -14.8550 O   0  0  0  0  0  0  0  0  0  0  0  0
   -7.6296  -33.3485  -13.2618 O   0  0  0  0  0  0  0  0  0  0  0  0
   -5.5943  -31.7630  -11.7724 O   0  0  0  0  0  0  0  0  0  0  0  0
   -4.0882  -29.5768  -15.2727 O   0  0  0  0  0  0  0  0  0  0  0  0
  1  2  1  0
  1  7  1  6
  1 11  1  0
  2  3  1  0
  2  8  1  6
  3  4  1  0
  3  9  1  6
  5  4  1  0
  4 10  1  6
  5  6  1  0
  5 11  1  6
  6 12  1  6
 14  7  1  6
 14 13  1  0
 13 19  1  6
 14 15  1  0
 20 14  1  0
 16 15  1  0
 15 21  1  6
 17 16  1  0
 16 22  1  1
 18 17  1  0
 17 20  1  6
 18 23  1  6
M  END
$$$$
