
     RDKit          3D

 23 24  0  0  0  0  0  0  0  0999 V2000
   -7.1276  -33.7246  -15.5655 C   0  0  1  0  0  0  0  0  0  0  0  0
   -7.8169  -35.0304  -15.2338 C   0  0  1  0  0  0  0  0  0  0  0  0
   -6.7783  -36.1268  -15.3427 C   0  0  2  0  0  0  0  0  0  0  0  0
   -6.2567  -36.0458  -16.7835 C   0  0  1  0  0  0  0  0  0  0  0  0
   -5.4940  -34.7345  -16.8630 C   0  0  1  0  0  0  0  0  0  0  0  0
   -5.7441  -34.1633  -18.2365 C   0  0  0  0  0  0  0  0  0  0  0  0
   -7.2219  -32.9212  -14.4293 O   0  0  0  0  0  0  0  0  0  0  0  0
   -8.2946  -35.0589  -13.9245 O   0  0  0  0  0  0  0  0  0  0  0  0
   -7.3022  -37.3795  -15.0734 O   0  0  0  0  0  0  0  0  0  0  0  0
   -5.4592  -37.1352  -17.0961 O   0  0  0  0  0  0  0  0  0  0  0  0
   -5.7804  -33.8794  -15.8449 O   0  0  0  0  0  0  0  0  0  0  0  0
   -4.7736  -33.2898  -18.6608 O   0  0  0  0  0  0  0  0  0  0  0  0
   -6.4620  -31.2830  -16.0311 C   0  0  0  0  0  0  0  0  0  0  0  0
   -7.0703  -31.5859  -14.6963 C   0  0  1  0  0  0  0  0  0  0  0  0
   -8.4732  -30.9698  -14.6871 C   0  0  2  0  0  0  0  0  0  0  0  0
   -8.3545  -29.8352  -13.7014 C   0  0  1  0  0  0  0  0  0  0  0  0
   -6.8464  -29.6423  -13.6385 C   0  0  1  0  0  0  0  0  0  0  0  0
   -6.5520  -28.9900  -12.3032 C   0  0  0  0  0  0  0  0  0  0  0  0
   -5.6755  -30.1567  -16.0565 O   0  0  0  0  0  0  0  0  0  0  0  0
   -6.3671  -30.9348  -13.7060 O   0  0  0  0  0  0  0  0  0  0  0  0
   -9.4145  -31.8630  -14.1931 O   0  0  0  0  0  0  0  0  0  0  0  0
   -9.0115  -28.6862  -14.1159 O   0  0  0  0  0  0  0  0  0  0  0  0
   -5.4847  -29.5962  -11.6840 O   0  0  0  0  0  0  0  0  0  0  0  0
  1  2  1  0
  1  7  1  1
  1 11  1  0
  2  3  1  0
  2  8  1  1
  3  4  1  0
  3  9  1  6
  5  4  1  0
  4 10  1  1
  5  6  1  6
 11  5  1  0
  6 12  1  0
 14  7  1  0
 14 13  1  6
 13 19  1  0
 14 15  1  0
 20 14  1  0
 16 15  1  0
 15 21  1  1
 17 16  1  0
 16 22  1  6
 17 18  1  1
 17 20  1  0
 23 18  1  0
M  END
$$$$
