
     RDKit          3D

 23 24  0  0  0  0  0  0  0  0999 V2000
   -7.1486  -33.5045  -15.4138 C   0  0  1  0  0  0  0  0  0  0  0  0
   -7.7466  -32.7270  -14.2613 C   0  0  1  0  0  0  0  0  0  0  0  0
   -6.5956  -32.1876  -13.4384 C   0  0  2  0  0  0  0  0  0  0  0  0
   -5.7948  -33.4235  -13.0074 C   0  0  1  0  0  0  0  0  0  0  0  0
   -5.1792  -33.9702  -14.2840 C   0  0  1  0  0  0  0  0  0  0  0  0
   -5.1954  -35.4743  -14.1705 C   0  0  0  0  0  0  0  0  0  0  0  0
   -7.5662  -32.8715  -16.5844 O   0  0  0  0  0  0  0  0  0  0  0  0
   -8.4828  -31.6245  -14.6923 O   0  0  0  0  0  0  0  0  0  0  0  0
   -7.0255  -31.4655  -12.3383 O   0  0  0  0  0  0  0  0  0  0  0  0
   -4.8361  -33.1015  -12.0599 O   0  0  0  0  0  0  0  0  0  0  0  0
   -5.7641  -33.4919  -15.4148 O   0  0  0  0  0  0  0  0  0  0  0  0
   -4.2526  -36.1008  -14.9475 O   0  0  0  0  0  0  0  0  0  0  0  0
   -8.5270  -33.6169  -18.6696 C   0  0  0  0  0  0  0  0  0  0  0  0
   -7.3788  -33.6329  -17.7079 C   0  0  1  0  0  0  0  0  0  0  0  0
   -6.1654  -33.0509  -18.4407 C   0  0  2  0  0  0  0  0  0  0  0  0
   -5.2536  -34.2389  -18.6136 C   0  0  1  0  0  0  0  0  0  0  0  0
   -6.2190  -35.3970  -18.4076 C   0  0  1  0  0  0  0  0  0  0  0  0
   -5.3827  -36.5799  -17.9641 C   0  0  0  0  0  0  0  0  0  0  0  0
   -8.7878  -32.3876  -19.2252 O   0  0  0  0  0  0  0  0  0  0  0  0
   -7.0452  -34.9349  -17.4033 O   0  0  0  0  0  0  0  0  0  0  0  0
   -5.5008  -32.1177  -17.6563 O   0  0  0  0  0  0  0  0  0  0  0  0
   -4.6469  -34.2797  -19.8602 O   0  0  0  0  0  0  0  0  0  0  0  0
   -6.1620  -37.5301  -17.3479 O   0  0  0  0  0  0  0  0  0  0  0  0
  1  2  1  0
  1  7  1  6
  1 11  1  0
  2  3  1  0
  2  8  1  6
  3  4  1  0
  3  9  1  1
  5  4  1  0
  4 10  1  1
  5  6  1  1
 11  5  1  0
  6 12  1  0
 14  7  1  0
 14 13  1  6
 13 19  1  0
 14 15  1  0
 20 14  1  0
 16 15  1  0
 15 21  1  1
 17 16  1  0
 16 22  1  6
 17 18  1  1
 17 20  1  0
 23 18  1  0
M  END
$$$$
