
     RDKit          3D

 23 24  0  0  0  0  0  0  0  0999 V2000
   -6.0508  -34.1880  -15.1931 C   0  0  1  0  0  0  0  0  0  0  0  0
   -6.5064  -33.6787  -16.5434 C   0  0  1  0  0  0  0  0  0  0  0  0
   -7.2440  -34.8117  -17.2252 C   0  0  2  0  0  0  0  0  0  0  0  0
   -6.2318  -35.9625  -17.3023 C   0  0  1  0  0  0  0  0  0  0  0  0
   -6.0153  -36.4058  -15.8656 C   0  0  1  0  0  0  0  0  0  0  0  0
   -4.5601  -36.7810  -15.7361 C   0  0  0  0  0  0  0  0  0  0  0  0
   -6.6711  -33.3891  -14.2328 O   0  0  0  0  0  0  0  0  0  0  0  0
   -7.4085  -32.6216  -16.4334 O   0  0  0  0  0  0  0  0  0  0  0  0
   -7.6978  -34.4638  -18.4859 O   0  0  0  0  0  0  0  0  0  0  0  0
   -6.6958  -36.9932  -18.1041 O   0  0  0  0  0  0  0  0  0  0  0  0
   -6.4381  -35.4946  -14.9486 O   0  0  0  0  0  0  0  0  0  0  0  0
   -4.1705  -37.0619  -14.4498 O   0  0  0  0  0  0  0  0  0  0  0  0
   -7.9732  -32.0583  -15.7691 C   0  0  0  0  0  0  0  0  0  0  0  0
   -6.9486  -32.1236  -14.6785 C   0  0  1  0  0  0  0  0  0  0  0  0
   -7.5084  -31.3452  -13.4832 C   0  0  2  0  0  0  0  0  0  0  0  0
   -6.6274  -30.1239  -13.4129 C   0  0  1  0  0  0  0  0  0  0  0  0
   -6.0144  -30.1091  -14.8056 C   0  0  1  0  0  0  0  0  0  0  0  0
   -4.7125  -29.3426  -14.6940 C   0  0  0  0  0  0  0  0  0  0  0  0
   -8.7641  -30.9352  -15.7414 O   0  0  0  0  0  0  0  0  0  0  0  0
   -5.8116  -31.4490  -15.0674 O   0  0  0  0  0  0  0  0  0  0  0  0
   -7.3474  -32.0522  -12.2991 O   0  0  0  0  0  0  0  0  0  0  0  0
   -7.3331  -28.9614  -13.1402 O   0  0  0  0  0  0  0  0  0  0  0  0
   -3.7176  -29.9540  -15.4195 O   0  0  0  0  0  0  0  0  0  0  0  0
  1  2  1  0
  1  7  1  1
  1 11  1  0
  2  3  1  0
  2  8  1  1
  3  4  1  0
  3  9  1  6
  5  4  1  0
  4 10  1  6
  5  6  1  6
 11  5  1  0
  6 12  1  0
 14  7  1  0
 14 13  1  6
 13 19  1  0
 14 15  1  0
 20 14  1  0
 16 15  1  0
 15 21  1  1
 17 16  1  0
 16 22  1  6
 17 18  1  1
 17 20  1  0
 23 18  1  0
M  END
$$$$
