
     RDKit          3D

 36 41  0  0  0  0  0  0  0  0999 V2000
  137.1183  -44.7526  268.7663 C   0  0  0  0  0  0  0  0  0  0  0  0
  135.8588  -44.2808  269.4153 C   0  0  0  0  0  0  0  0  0  0  0  0
  134.8469  -44.1521  268.3933 N   0  0  2  0  0  4  0  0  0  0  0  0
  133.5660  -44.4923  269.0015 C   0  0  0  0  0  0  0  0  0  0  0  0
  135.2208  -45.1289  267.4188 C   0  0  0  0  0  0  0  0  0  0  0  0
  136.7314  -45.1412  267.3579 C   0  0  1  0  0  0  0  0  0  0  0  0
  137.2462  -44.1105  266.4596 N   0  0  0  0  0  0  0  0  0  0  0  0
  138.6395  -43.7811  266.3875 C   0  0  0  0  0  0  0  0  0  0  0  0
  139.3086  -44.3003  267.3152 O   0  0  0  0  0  0  0  0  0  0  0  0
  139.2136  -42.9446  265.3622 C   0  0  0  0  0  0  0  0  0  0  0  0
  138.4448  -42.6225  264.2430 C   0  0  0  0  0  0  0  0  0  0  0  0
  138.9941  -41.8071  263.2607 C   0  0  0  0  0  0  0  0  0  0  0  0
  140.2292  -41.3233  263.3513 N   0  0  0  0  0  0  0  0  0  0  0  0
  140.9839  -41.6142  264.4057 C   0  0  0  0  0  0  0  0  0  0  0  0
  140.4821  -42.4327  265.4298 C   0  0  0  0  0  0  0  0  0  0  0  0
  141.3236  -42.6879  266.5300 N   0  0  0  0  0  0  0  0  0  0  0  0
  142.5996  -42.0139  266.5963 C   0  0  0  0  0  0  0  0  0  0  0  0
  142.6977  -40.7435  267.1172 C   0  0  0  0  0  0  0  0  0  0  0  0
  143.7125  -42.6844  266.1204 C   0  0  0  0  0  0  0  0  0  0  0  0
  144.9373  -42.0710  266.1685 C   0  0  0  0  0  0  0  0  0  0  0  0
  146.0693  -42.6572  265.7247 N   0  0  0  0  0  0  0  0  0  0  0  0
  147.2572  -42.0379  265.7814 C   0  0  0  0  0  0  0  0  0  0  0  0
  147.3424  -40.7581  266.3084 C   0  0  0  0  0  0  0  0  0  0  0  0
  146.2215  -40.1742  266.7494 N   0  0  0  0  0  0  0  0  0  0  0  0
  145.0230  -40.8127  266.6864 C   0  0  0  0  0  0  0  0  0  0  0  0
  143.9263  -40.1302  267.1647 C   0  0  0  0  0  0  0  0  0  0  0  0
  144.0810  -38.7655  267.7165 C   0  0  0  0  0  0  0  0  0  0  0  0
  143.0862  -37.8235  267.6447 C   0  0  0  0  0  0  0  0  0  0  0  0
  143.2142  -36.5458  268.1549 C   0  0  0  0  0  0  0  0  0  0  0  0
  142.4134  -35.4668  268.2119 N   0  0  0  0  0  0  0  0  0  0  0  0
  141.0665  -35.3836  267.6876 C   0  0  0  0  0  0  0  0  0  0  0  0
  143.0594  -34.4667  268.8357 C   0  0  0  0  0  0  0  0  0  0  0  0
  144.3349  -34.9062  269.2030 C   0  0  0  0  0  0  0  0  0  0  0  0
  144.4218  -36.2155  268.7699 C   0  0  0  0  0  0  0  0  0  0  0  0
  145.4345  -37.1492  268.8521 C   0  0  0  0  0  0  0  0  0  0  0  0
  145.2725  -38.4316  268.3262 C   0  0  0  0  0  0  0  0  0  0  0  0
  1  2  1  0
  1  6  1  0
  2  3  1  0
  3  4  1  1
  3  5  1  0
  5  6  1  0
  6  7  1  6
  7  8  1  0
  8  9  2  0
  8 10  1  0
 10 11  2  0
 10 15  1  0
 11 12  1  0
 12 13  2  0
 13 14  1  0
 14 15  2  0
 15 16  1  0
 16 17  1  0
 17 18  2  0
 17 19  1  0
 18 26  1  0
 19 20  2  0
 20 21  1  0
 20 25  1  0
 21 22  2  0
 22 23  1  0
 23 24  2  0
 24 25  1  0
 25 26  2  0
 26 27  1  0
 27 28  2  0
 27 36  1  0
 28 29  1  0
 29 30  1  0
 29 34  2  0
 30 31  1  0
 30 32  1  0
 32 33  2  0
 33 34  1  0
 34 35  1  0
 35 36  2  0
M  CHG  1   3   1
M  END
$$$$
