
     RDKit          3D

 36 41  0  0  0  0  0  0  0  0999 V2000
  135.0031  -41.0929  265.4827 C   0  0  0  0  0  0  0  0  0  0  0  0
  134.0747  -41.9178  266.3119 C   0  0  0  0  0  0  0  0  0  0  0  0
  134.8411  -42.5294  267.3719 N   0  0  2  0  0  4  0  0  0  0  0  0
  133.9752  -42.6183  268.5418 C   0  0  0  0  0  0  0  0  0  0  0  0
  135.9069  -41.6040  267.5992 C   0  0  0  0  0  0  0  0  0  0  0  0
  136.3026  -41.0415  266.2528 C   0  0  1  0  0  0  0  0  0  0  0  0
  137.2575  -41.9059  265.5636 N   0  0  0  0  0  0  0  0  0  0  0  0
  138.6643  -41.8667  265.8365 C   0  0  0  0  0  0  0  0  0  0  0  0
  138.9331  -41.2720  266.9098 O   0  0  0  0  0  0  0  0  0  0  0  0
  139.6648  -42.4464  264.9742 C   0  0  0  0  0  0  0  0  0  0  0  0
  139.4072  -43.6790  264.3726 C   0  0  0  0  0  0  0  0  0  0  0  0
  140.3666  -44.2318  263.5327 C   0  0  0  0  0  0  0  0  0  0  0  0
  141.5231  -43.6254  263.2830 N   0  0  0  0  0  0  0  0  0  0  0  0
  141.7951  -42.4511  263.8426 C   0  0  0  0  0  0  0  0  0  0  0  0
  140.8636  -41.8439  264.6996 C   0  0  0  0  0  0  0  0  0  0  0  0
  141.2025  -40.5906  265.2454 N   0  0  0  0  0  0  0  0  0  0  0  0
  142.5769  -40.3461  265.6168 C   0  0  0  0  0  0  0  0  0  0  0  0
  142.9202  -39.2316  266.3482 C   0  0  0  0  0  0  0  0  0  0  0  0
  143.5305  -41.2641  265.2137 C   0  0  0  0  0  0  0  0  0  0  0  0
  144.8436  -41.0594  265.5496 C   0  0  0  0  0  0  0  0  0  0  0  0
  145.8323  -41.9070  265.1946 N   0  0  0  0  0  0  0  0  0  0  0  0
  147.1106  -41.6865  265.5341 C   0  0  0  0  0  0  0  0  0  0  0  0
  147.4432  -40.5599  266.2710 C   0  0  0  0  0  0  0  0  0  0  0  0
  146.4648  -39.7175  266.6246 N   0  0  0  0  0  0  0  0  0  0  0  0
  145.1724  -39.9523  266.2742 C   0  0  0  0  0  0  0  0  0  0  0  0
  144.2368  -39.0280  266.6840 C   0  0  0  0  0  0  0  0  0  0  0  0
  144.6535  -37.8450  267.4697 C   0  0  0  0  0  0  0  0  0  0  0  0
  143.9847  -36.6485  267.4125 C   0  0  0  0  0  0  0  0  0  0  0  0
  144.3601  -35.5350  268.1395 C   0  0  0  0  0  0  0  0  0  0  0  0
  143.8881  -34.2813  268.2584 N   0  0  0  0  0  0  0  0  0  0  0  0
  142.7360  -33.7414  267.5675 C   0  0  0  0  0  0  0  0  0  0  0  0
  144.6557  -33.5980  269.1246 C   0  0  0  0  0  0  0  0  0  0  0  0
  145.6721  -34.4360  269.5933 C   0  0  0  0  0  0  0  0  0  0  0  0
  145.4767  -35.6521  268.9672 C   0  0  0  0  0  0  0  0  0  0  0  0
  146.1627  -36.8473  269.0384 C   0  0  0  0  0  0  0  0  0  0  0  0
  145.7569  -37.9533  268.2905 C   0  0  0  0  0  0  0  0  0  0  0  0
  1  2  1  0
  1  6  1  0
  2  3  1  0
  3  4  1  1
  3  5  1  0
  5  6  1  0
  6  7  1  6
  7  8  1  0
  8  9  2  0
  8 10  1  0
 10 11  2  0
 10 15  1  0
 11 12  1  0
 12 13  2  0
 13 14  1  0
 14 15  2  0
 15 16  1  0
 16 17  1  0
 17 18  2  0
 17 19  1  0
 18 26  1  0
 19 20  2  0
 20 21  1  0
 20 25  1  0
 21 22  2  0
 22 23  1  0
 23 24  2  0
 24 25  1  0
 25 26  2  0
 26 27  1  0
 27 28  2  0
 27 36  1  0
 28 29  1  0
 29 30  1  0
 29 34  2  0
 30 31  1  0
 30 32  1  0
 32 33  2  0
 33 34  1  0
 34 35  1  0
 35 36  2  0
M  CHG  1   3   1
M  END
$$$$
