
     RDKit          3D

 36 41  0  0  0  0  0  0  0  0999 V2000
  135.9701  -41.2784  265.6447 C   0  0  0  0  0  0  0  0  0  0  0  0
  134.7124  -42.0404  265.3845 C   0  0  0  0  0  0  0  0  0  0  0  0
  134.8585  -43.3585  265.9558 N   0  0  2  0  0  4  0  0  0  0  0  0
  133.5449  -43.7769  266.4306 C   0  0  0  0  0  0  0  0  0  0  0  0
  135.7536  -43.1571  267.0522 C   0  0  0  0  0  0  0  0  0  0  0  0
  136.7638  -42.1199  266.6173 C   0  0  1  0  0  0  0  0  0  0  0  0
  137.8724  -42.7193  265.8784 N   0  0  0  0  0  0  0  0  0  0  0  0
  139.0390  -41.9739  265.5062 C   0  0  0  0  0  0  0  0  0  0  0  0
  138.8456  -40.7328  265.5201 O   0  0  0  0  0  0  0  0  0  0  0  0
  140.2993  -42.5805  265.1537 C   0  0  0  0  0  0  0  0  0  0  0  0
  140.3336  -43.9428  264.8530 C   0  0  0  0  0  0  0  0  0  0  0  0
  141.5460  -44.5245  264.5022 C   0  0  0  0  0  0  0  0  0  0  0  0
  142.6758  -43.8261  264.4436 N   0  0  0  0  0  0  0  0  0  0  0  0
  142.6726  -42.5274  264.7253 C   0  0  0  0  0  0  0  0  0  0  0  0
  141.4773  -41.8853  265.0855 C   0  0  0  0  0  0  0  0  0  0  0  0
  141.5360  -40.5037  265.3528 N   0  0  0  0  0  0  0  0  0  0  0  0
  142.7695  -39.9486  265.8598 C   0  0  0  0  0  0  0  0  0  0  0  0
  142.7590  -38.8371  266.6718 C   0  0  0  0  0  0  0  0  0  0  0  0
  143.9542  -40.5677  265.5028 C   0  0  0  0  0  0  0  0  0  0  0  0
  145.1414  -40.0640  265.9670 C   0  0  0  0  0  0  0  0  0  0  0  0
  146.3383  -40.6097  265.6643 N   0  0  0  0  0  0  0  0  0  0  0  0
  147.4877  -40.0997  266.1298 C   0  0  0  0  0  0  0  0  0  0  0  0
  147.4635  -38.9796  266.9469 C   0  0  0  0  0  0  0  0  0  0  0  0
  146.2780  -38.4362  267.2488 N   0  0  0  0  0  0  0  0  0  0  0  0
  145.1194  -38.9628  266.7705 C   0  0  0  0  0  0  0  0  0  0  0  0
  143.9500  -38.3335  267.1363 C   0  0  0  0  0  0  0  0  0  0  0  0
  143.9886  -37.1411  268.0123 C   0  0  0  0  0  0  0  0  0  0  0  0
  144.6995  -36.0125  267.6912 C   0  0  0  0  0  0  0  0  0  0  0  0
  144.7457  -34.8912  268.4973 C   0  0  0  0  0  0  0  0  0  0  0  0
  145.3495  -33.6923  268.4142 N   0  0  0  0  0  0  0  0  0  0  0  0
  146.1947  -33.2436  267.3277 C   0  0  0  0  0  0  0  0  0  0  0  0
  145.0466  -32.9659  269.5038 C   0  0  0  0  0  0  0  0  0  0  0  0
  144.2107  -33.7174  270.3355 C   0  0  0  0  0  0  0  0  0  0  0  0
  144.0278  -34.9267  269.6927 C   0  0  0  0  0  0  0  0  0  0  0  0
  143.3067  -36.0528  270.0334 C   0  0  0  0  0  0  0  0  0  0  0  0
  143.2811  -37.1690  269.1962 C   0  0  0  0  0  0  0  0  0  0  0  0
  1  2  1  0
  1  6  1  0
  2  3  1  0
  3  4  1  1
  3  5  1  0
  5  6  1  0
  6  7  1  6
  7  8  1  0
  8  9  2  0
  8 10  1  0
 10 11  2  0
 10 15  1  0
 11 12  1  0
 12 13  2  0
 13 14  1  0
 14 15  2  0
 15 16  1  0
 16 17  1  0
 17 18  2  0
 17 19  1  0
 18 26  1  0
 19 20  2  0
 20 21  1  0
 20 25  1  0
 21 22  2  0
 22 23  1  0
 23 24  2  0
 24 25  1  0
 25 26  2  0
 26 27  1  0
 27 28  2  0
 27 36  1  0
 28 29  1  0
 29 30  1  0
 29 34  2  0
 30 31  1  0
 30 32  1  0
 32 33  2  0
 33 34  1  0
 34 35  1  0
 35 36  2  0
M  CHG  1   3   1
M  END
$$$$
