
     RDKit          3D

 36 41  0  0  0  0  0  0  0  0999 V2000
  136.8433  -43.7170  263.4055 C   0  0  0  0  0  0  0  0  0  0  0  0
  135.9639  -44.4079  264.3951 C   0  0  0  0  0  0  0  0  0  0  0  0
  136.3129  -43.9353  265.7141 N   0  0  2  0  0  4  0  0  0  0  0  0
  135.0903  -43.9150  266.5086 C   0  0  0  0  0  0  0  0  0  0  0  0
  136.7906  -42.6075  265.4848 C   0  0  0  0  0  0  0  0  0  0  0  0
  137.5505  -42.6274  264.1780 C   0  0  1  0  0  0  0  0  0  0  0  0
  138.9371  -43.0482  264.3637 N   0  0  0  0  0  0  0  0  0  0  0  0
  139.9052  -42.2284  265.0316 C   0  0  0  0  0  0  0  0  0  0  0  0
  139.4053  -41.1791  265.5079 O   0  0  0  0  0  0  0  0  0  0  0  0
  141.3022  -42.5691  265.1458 C   0  0  0  0  0  0  0  0  0  0  0  0
  141.7135  -43.8592  264.8086 C   0  0  0  0  0  0  0  0  0  0  0  0
  143.0612  -44.1838  264.9077 C   0  0  0  0  0  0  0  0  0  0  0  0
  143.9729  -43.3055  265.3139 N   0  0  0  0  0  0  0  0  0  0  0  0
  143.6095  -42.0701  265.6418 C   0  0  0  0  0  0  0  0  0  0  0  0
  142.2620  -41.6848  265.5609 C   0  0  0  0  0  0  0  0  0  0  0  0
  141.9436  -40.3562  265.9030 N   0  0  0  0  0  0  0  0  0  0  0  0
  143.0033  -39.4851  266.3558 C   0  0  0  0  0  0  0  0  0  0  0  0
  142.7880  -38.5879  267.3773 C   0  0  0  0  0  0  0  0  0  0  0  0
  144.2339  -39.5820  265.7307 C   0  0  0  0  0  0  0  0  0  0  0  0
  145.2592  -38.7682  266.1369 C   0  0  0  0  0  0  0  0  0  0  0  0
  146.4876  -38.8014  265.5784 N   0  0  0  0  0  0  0  0  0  0  0  0
  147.4761  -37.9953  265.9919 C   0  0  0  0  0  0  0  0  0  0  0  0
  147.2462  -37.0959  267.0219 C   0  0  0  0  0  0  0  0  0  0  0  0
  146.0290  -37.0606  267.5778 N   0  0  0  0  0  0  0  0  0  0  0  0
  145.0350  -37.8832  267.1496 C   0  0  0  0  0  0  0  0  0  0  0  0
  143.8170  -37.7728  267.7833 C   0  0  0  0  0  0  0  0  0  0  0  0
  143.6331  -36.7935  268.8777 C   0  0  0  0  0  0  0  0  0  0  0  0
  143.9755  -35.4712  268.7496 C   0  0  0  0  0  0  0  0  0  0  0  0
  143.8101  -34.5442  269.7609 C   0  0  0  0  0  0  0  0  0  0  0  0
  144.0579  -33.2283  269.8860 N   0  0  0  0  0  0  0  0  0  0  0  0
  144.6250  -32.3729  268.8648 C   0  0  0  0  0  0  0  0  0  0  0  0
  143.6959  -32.8229  271.1152 C   0  0  0  0  0  0  0  0  0  0  0  0
  143.1901  -33.9158  271.8258 C   0  0  0  0  0  0  0  0  0  0  0  0
  143.2666  -34.9935  270.9644 C   0  0  0  0  0  0  0  0  0  0  0  0
  142.9158  -36.3198  271.1127 C   0  0  0  0  0  0  0  0  0  0  0  0
  143.0962  -37.2306  270.0709 C   0  0  0  0  0  0  0  0  0  0  0  0
  1  2  1  0
  1  6  1  0
  2  3  1  0
  3  4  1  1
  3  5  1  0
  5  6  1  0
  6  7  1  1
  7  8  1  0
  8  9  2  0
  8 10  1  0
 10 11  2  0
 10 15  1  0
 11 12  1  0
 12 13  2  0
 13 14  1  0
 14 15  2  0
 15 16  1  0
 16 17  1  0
 17 18  2  0
 17 19  1  0
 18 26  1  0
 19 20  2  0
 20 21  1  0
 20 25  1  0
 21 22  2  0
 22 23  1  0
 23 24  2  0
 24 25  1  0
 25 26  2  0
 26 27  1  0
 27 28  2  0
 27 36  1  0
 28 29  1  0
 29 30  1  0
 29 34  2  0
 30 31  1  0
 30 32  1  0
 32 33  2  0
 33 34  1  0
 34 35  1  0
 35 36  2  0
M  CHG  1   3   1
M  END
$$$$
