
     RDKit          3D

 36 41  0  0  0  0  0  0  0  0999 V2000
  135.5555  -41.9151  267.1788 C   0  0  0  0  0  0  0  0  0  0  0  0
  134.3295  -42.7564  267.3176 C   0  0  0  0  0  0  0  0  0  0  0  0
  134.7421  -44.1327  267.4611 N   0  0  2  0  0  4  0  0  0  0  0  0
  133.7836  -44.7863  268.3446 C   0  0  0  0  0  0  0  0  0  0  0  0
  136.0253  -44.0403  268.0846 C   0  0  0  0  0  0  0  0  0  0  0  0
  136.7159  -42.8272  267.5039 C   0  0  1  0  0  0  0  0  0  0  0  0
  137.3957  -43.1393  266.2491 N   0  0  0  0  0  0  0  0  0  0  0  0
  138.1956  -42.1770  265.5494 C   0  0  0  0  0  0  0  0  0  0  0  0
  137.9890  -41.0007  265.9386 O   0  0  0  0  0  0  0  0  0  0  0  0
  139.1363  -42.5195  264.5110 C   0  0  0  0  0  0  0  0  0  0  0  0
  138.8722  -43.6206  263.6954 C   0  0  0  0  0  0  0  0  0  0  0  0
  139.7730  -43.9435  262.6876 C   0  0  0  0  0  0  0  0  0  0  0  0
  140.8795  -43.2380  262.4742 N   0  0  0  0  0  0  0  0  0  0  0  0
  141.1564  -42.1849  263.2360 C   0  0  0  0  0  0  0  0  0  0  0  0
  140.2829  -41.8107  264.2692 C   0  0  0  0  0  0  0  0  0  0  0  0
  140.6222  -40.6738  265.0282 N   0  0  0  0  0  0  0  0  0  0  0  0
  142.0006  -40.4883  265.4185 C   0  0  0  0  0  0  0  0  0  0  0  0
  142.3780  -39.3990  266.1708 C   0  0  0  0  0  0  0  0  0  0  0  0
  142.9228  -41.4364  265.0121 C   0  0  0  0  0  0  0  0  0  0  0  0
  144.2387  -41.2877  265.3656 C   0  0  0  0  0  0  0  0  0  0  0  0
  145.1982  -42.1675  265.0086 N   0  0  0  0  0  0  0  0  0  0  0  0
  146.4799  -42.0018  265.3657 C   0  0  0  0  0  0  0  0  0  0  0  0
  146.8470  -40.9001  266.1236 C   0  0  0  0  0  0  0  0  0  0  0  0
  145.8977  -40.0259  266.4791 N   0  0  0  0  0  0  0  0  0  0  0  0
  144.6014  -40.2051  266.1108 C   0  0  0  0  0  0  0  0  0  0  0  0
  143.6975  -39.2516  266.5243 C   0  0  0  0  0  0  0  0  0  0  0  0
  144.1502  -38.0974  267.3328 C   0  0  0  0  0  0  0  0  0  0  0  0
  143.2952  -37.1100  267.7525 C   0  0  0  0  0  0  0  0  0  0  0  0
  143.7013  -36.0266  268.5078 C   0  0  0  0  0  0  0  0  0  0  0  0
  143.0810  -34.9541  269.0312 N   0  0  0  0  0  0  0  0  0  0  0  0
  141.6709  -34.6488  268.9096 C   0  0  0  0  0  0  0  0  0  0  0  0
  143.9772  -34.2007  269.6910 C   0  0  0  0  0  0  0  0  0  0  0  0
  145.2361  -34.8019  269.5974 C   0  0  0  0  0  0  0  0  0  0  0  0
  145.0510  -35.9498  268.8510 C   0  0  0  0  0  0  0  0  0  0  0  0
  145.9268  -36.9332  268.4384 C   0  0  0  0  0  0  0  0  0  0  0  0
  145.4837  -38.0149  267.6760 C   0  0  0  0  0  0  0  0  0  0  0  0
  1  2  1  0
  1  6  1  0
  2  3  1  0
  3  4  1  1
  3  5  1  0
  5  6  1  0
  6  7  1  6
  7  8  1  0
  8  9  2  0
  8 10  1  0
 10 11  2  0
 10 15  1  0
 11 12  1  0
 12 13  2  0
 13 14  1  0
 14 15  2  0
 15 16  1  0
 16 17  1  0
 17 18  2  0
 17 19  1  0
 18 26  1  0
 19 20  2  0
 20 21  1  0
 20 25  1  0
 21 22  2  0
 22 23  1  0
 23 24  2  0
 24 25  1  0
 25 26  2  0
 26 27  1  0
 27 28  2  0
 27 36  1  0
 28 29  1  0
 29 30  1  0
 29 34  2  0
 30 31  1  0
 30 32  1  0
 32 33  2  0
 33 34  1  0
 34 35  1  0
 35 36  2  0
M  CHG  1   3   1
M  END
$$$$
