
     RDKit          3D

 36 41  0  0  0  0  0  0  0  0999 V2000
  134.5702  -42.4918  265.8968 C   0  0  0  0  0  0  0  0  0  0  0  0
  134.0385  -43.6993  266.5962 C   0  0  0  0  0  0  0  0  0  0  0  0
  135.1285  -44.3227  267.3091 N   0  0  2  0  0  4  0  0  0  0  0  0
  134.5777  -44.9043  268.5276 C   0  0  0  0  0  0  0  0  0  0  0  0
  136.0014  -43.2331  267.6171 C   0  0  0  0  0  0  0  0  0  0  0  0
  135.9667  -42.2881  266.4376 C   0  0  1  0  0  0  0  0  0  0  0  0
  136.9063  -42.6896  265.3935 N   0  0  0  0  0  0  0  0  0  0  0  0
  138.3244  -42.5359  265.5365 C   0  0  0  0  0  0  0  0  0  0  0  0
  138.6853  -42.4663  266.7376 O   0  0  0  0  0  0  0  0  0  0  0  0
  139.2398  -42.4684  264.4238 C   0  0  0  0  0  0  0  0  0  0  0  0
  138.9999  -43.2624  263.3015 C   0  0  0  0  0  0  0  0  0  0  0  0
  139.8757  -43.1886  262.2250 C   0  0  0  0  0  0  0  0  0  0  0  0
  140.9359  -42.3864  262.2284 N   0  0  0  0  0  0  0  0  0  0  0  0
  141.1889  -41.6197  263.2839 C   0  0  0  0  0  0  0  0  0  0  0  0
  140.3388  -41.6515  264.4006 C   0  0  0  0  0  0  0  0  0  0  0  0
  140.6497  -40.8011  265.4793 N   0  0  0  0  0  0  0  0  0  0  0  0
  142.0389  -40.5371  265.7745 C   0  0  0  0  0  0  0  0  0  0  0  0
  142.4229  -39.3424  266.3402 C   0  0  0  0  0  0  0  0  0  0  0  0
  142.9645  -41.5195  265.4700 C   0  0  0  0  0  0  0  0  0  0  0  0
  144.2905  -41.2984  265.7372 C   0  0  0  0  0  0  0  0  0  0  0  0
  145.2539  -42.2054  265.4698 N   0  0  0  0  0  0  0  0  0  0  0  0
  146.5456  -41.9675  265.7395 C   0  0  0  0  0  0  0  0  0  0  0  0
  146.9193  -40.7599  266.3094 C   0  0  0  0  0  0  0  0  0  0  0  0
  145.9662  -39.8584  266.5756 N   0  0  0  0  0  0  0  0  0  0  0  0
  144.6598  -40.1116  266.2975 C   0  0  0  0  0  0  0  0  0  0  0  0
  143.7526  -39.1225  266.6073 C   0  0  0  0  0  0  0  0  0  0  0  0
  144.2128  -37.8540  267.2155 C   0  0  0  0  0  0  0  0  0  0  0  0
  143.7468  -37.4041  268.4249 C   0  0  0  0  0  0  0  0  0  0  0  0
  144.1662  -36.2230  269.0067 C   0  0  0  0  0  0  0  0  0  0  0  0
  143.8734  -35.5767  270.1492 N   0  0  0  0  0  0  0  0  0  0  0  0
  142.9361  -36.0234  271.1582 C   0  0  0  0  0  0  0  0  0  0  0  0
  144.5900  -34.4414  270.2134 C   0  0  0  0  0  0  0  0  0  0  0  0
  145.3849  -34.3379  269.0679 C   0  0  0  0  0  0  0  0  0  0  0  0
  145.1105  -35.4639  268.3156 C   0  0  0  0  0  0  0  0  0  0  0  0
  145.5913  -35.8996  267.0978 C   0  0  0  0  0  0  0  0  0  0  0  0
  145.1466  -37.0980  266.5378 C   0  0  0  0  0  0  0  0  0  0  0  0
  1  2  1  0
  1  6  1  0
  2  3  1  0
  3  4  1  1
  3  5  1  0
  5  6  1  0
  6  7  1  6
  7  8  1  0
  8  9  2  0
  8 10  1  0
 10 11  2  0
 10 15  1  0
 11 12  1  0
 12 13  2  0
 13 14  1  0
 14 15  2  0
 15 16  1  0
 16 17  1  0
 17 18  2  0
 17 19  1  0
 18 26  1  0
 19 20  2  0
 20 21  1  0
 20 25  1  0
 21 22  2  0
 22 23  1  0
 23 24  2  0
 24 25  1  0
 25 26  2  0
 26 27  1  0
 27 28  2  0
 27 36  1  0
 28 29  1  0
 29 30  1  0
 29 34  2  0
 30 31  1  0
 30 32  1  0
 32 33  2  0
 33 34  1  0
 34 35  1  0
 35 36  2  0
M  CHG  1   3   1
M  END
$$$$
