
     RDKit          3D

 36 41  0  0  0  0  0  0  0  0999 V2000
  135.0788  -44.4786  265.9527 C   0  0  0  0  0  0  0  0  0  0  0  0
  135.2659  -45.3612  267.1426 C   0  0  0  0  0  0  0  0  0  0  0  0
  136.3689  -44.8438  267.9177 N   0  0  2  0  0  4  0  0  0  0  0  0
  136.0766  -45.1053  269.3222 C   0  0  0  0  0  0  0  0  0  0  0  0
  136.3459  -43.4400  267.6479 C   0  0  0  0  0  0  0  0  0  0  0  0
  135.9558  -43.2721  266.1969 C   0  0  1  0  0  0  0  0  0  0  0  0
  137.1108  -43.3803  265.3090 N   0  0  0  0  0  0  0  0  0  0  0  0
  137.9192  -42.2490  264.9598 C   0  0  0  0  0  0  0  0  0  0  0  0
  137.5745  -41.2026  265.5633 O   0  0  0  0  0  0  0  0  0  0  0  0
  139.0106  -42.3034  264.0183 C   0  0  0  0  0  0  0  0  0  0  0  0
  138.8847  -43.1044  262.8825 C   0  0  0  0  0  0  0  0  0  0  0  0
  139.9318  -43.1478  261.9698 C   0  0  0  0  0  0  0  0  0  0  0  0
  141.0510  -42.4512  262.1425 N   0  0  0  0  0  0  0  0  0  0  0  0
  141.1982  -41.6806  263.2151 C   0  0  0  0  0  0  0  0  0  0  0  0
  140.1737  -41.5968  264.1712 C   0  0  0  0  0  0  0  0  0  0  0  0
  140.3822  -40.7477  265.2754 N   0  0  0  0  0  0  0  0  0  0  0  0
  141.7283  -40.5726  265.7694 C   0  0  0  0  0  0  0  0  0  0  0  0
  142.1003  -39.4063  266.3990 C   0  0  0  0  0  0  0  0  0  0  0  0
  142.6256  -41.6102  265.5882 C   0  0  0  0  0  0  0  0  0  0  0  0
  143.9107  -41.4739  266.0449 C   0  0  0  0  0  0  0  0  0  0  0  0
  144.8446  -42.4387  265.9069 N   0  0  0  0  0  0  0  0  0  0  0  0
  146.0964  -42.2835  266.3614 C   0  0  0  0  0  0  0  0  0  0  0  0
  146.4583  -41.1037  266.9938 C   0  0  0  0  0  0  0  0  0  0  0  0
  145.5344  -40.1450  267.1322 N   0  0  0  0  0  0  0  0  0  0  0  0
  144.2683  -40.3146  266.6670 C   0  0  0  0  0  0  0  0  0  0  0  0
  143.3889  -39.2714  266.8562 C   0  0  0  0  0  0  0  0  0  0  0  0
  143.8345  -38.0366  267.5398 C   0  0  0  0  0  0  0  0  0  0  0  0
  144.0477  -36.8585  266.8698 C   0  0  0  0  0  0  0  0  0  0  0  0
  144.4631  -35.6971  267.4926 C   0  0  0  0  0  0  0  0  0  0  0  0
  144.7364  -34.4478  267.0764 N   0  0  0  0  0  0  0  0  0  0  0  0
  144.6478  -33.9717  265.7120 C   0  0  0  0  0  0  0  0  0  0  0  0
  145.1082  -33.7001  268.1296 C   0  0  0  0  0  0  0  0  0  0  0  0
  145.0779  -34.4895  269.2833 C   0  0  0  0  0  0  0  0  0  0  0  0
  144.6708  -35.7438  268.8712 C   0  0  0  0  0  0  0  0  0  0  0  0
  144.4617  -36.9195  269.5628 C   0  0  0  0  0  0  0  0  0  0  0  0
  144.0419  -38.0753  268.9030 C   0  0  0  0  0  0  0  0  0  0  0  0
  1  2  1  0
  1  6  1  0
  2  3  1  0
  3  4  1  1
  3  5  1  0
  5  6  1  0
  6  7  1  6
  7  8  1  0
  8  9  2  0
  8 10  1  0
 10 11  2  0
 10 15  1  0
 11 12  1  0
 12 13  2  0
 13 14  1  0
 14 15  2  0
 15 16  1  0
 16 17  1  0
 17 18  2  0
 17 19  1  0
 18 26  1  0
 19 20  2  0
 20 21  1  0
 20 25  1  0
 21 22  2  0
 22 23  1  0
 23 24  2  0
 24 25  1  0
 25 26  2  0
 26 27  1  0
 27 28  2  0
 27 36  1  0
 28 29  1  0
 29 30  1  0
 29 34  2  0
 30 31  1  0
 30 32  1  0
 32 33  2  0
 33 34  1  0
 34 35  1  0
 35 36  2  0
M  CHG  1   3   1
M  END
$$$$
