
     RDKit          3D

 36 41  0  0  0  0  0  0  0  0999 V2000
  135.9920  -43.4923  268.2324 C   0  0  0  0  0  0  0  0  0  0  0  0
  134.5287  -43.7059  268.0242 C   0  0  0  0  0  0  0  0  0  0  0  0
  134.3618  -44.7045  266.9946 N   0  0  2  0  0  4  0  0  0  0  0  0
  133.1650  -45.4714  267.3197 C   0  0  0  0  0  0  0  0  0  0  0  0
  135.5324  -45.5164  267.1147 C   0  0  0  0  0  0  0  0  0  0  0  0
  136.6798  -44.5946  267.4604 C   0  0  1  0  0  0  0  0  0  0  0  0
  137.2711  -43.9939  266.2672 N   0  0  0  0  0  0  0  0  0  0  0  0
  138.5966  -43.4480  266.2592 C   0  0  0  0  0  0  0  0  0  0  0  0
  139.0936  -43.3655  267.4099 O   0  0  0  0  0  0  0  0  0  0  0  0
  139.2873  -43.0373  265.0612 C   0  0  0  0  0  0  0  0  0  0  0  0
  138.8305  -43.4978  263.8256 C   0  0  0  0  0  0  0  0  0  0  0  0
  139.4891  -43.0928  262.6708 C   0  0  0  0  0  0  0  0  0  0  0  0
  140.5412  -42.2806  262.7036 N   0  0  0  0  0  0  0  0  0  0  0  0
  140.9980  -41.8273  263.8662 C   0  0  0  0  0  0  0  0  0  0  0  0
  140.3726  -42.2021  265.0659 C   0  0  0  0  0  0  0  0  0  0  0  0
  140.8917  -41.6724  266.2632 N   0  0  0  0  0  0  0  0  0  0  0  0
  142.2343  -41.1394  266.2596 C   0  0  0  0  0  0  0  0  0  0  0  0
  142.5159  -39.9385  266.8707 C   0  0  0  0  0  0  0  0  0  0  0  0
  143.2210  -41.8720  265.6238 C   0  0  0  0  0  0  0  0  0  0  0  0
  144.5048  -41.3921  265.6022 C   0  0  0  0  0  0  0  0  0  0  0  0
  145.5225  -42.0462  265.0033 N   0  0  0  0  0  0  0  0  0  0  0  0
  146.7710  -41.5575  264.9942 C   0  0  0  0  0  0  0  0  0  0  0  0
  147.0414  -40.3466  265.6135 C   0  0  0  0  0  0  0  0  0  0  0  0
  146.0343  -39.6957  266.2083 N   0  0  0  0  0  0  0  0  0  0  0  0
  144.7725  -40.2017  266.2106 C   0  0  0  0  0  0  0  0  0  0  0  0
  143.8033  -39.4590  266.8481 C   0  0  0  0  0  0  0  0  0  0  0  0
  144.1539  -38.1733  267.4921 C   0  0  0  0  0  0  0  0  0  0  0  0
  143.2689  -37.1291  267.5849 C   0  0  0  0  0  0  0  0  0  0  0  0
  143.5800  -35.9231  268.1830 C   0  0  0  0  0  0  0  0  0  0  0  0
  142.9129  -34.7751  268.3975 N   0  0  0  0  0  0  0  0  0  0  0  0
  141.5465  -34.5037  268.0031 C   0  0  0  0  0  0  0  0  0  0  0  0
  143.7148  -33.9088  269.0400 C   0  0  0  0  0  0  0  0  0  0  0  0
  144.9578  -34.5114  269.2562 C   0  0  0  0  0  0  0  0  0  0  0  0
  144.8621  -35.7782  268.7131 C   0  0  0  0  0  0  0  0  0  0  0  0
  145.7665  -36.8171  268.6297 C   0  0  0  0  0  0  0  0  0  0  0  0
  145.4200  -38.0229  268.0186 C   0  0  0  0  0  0  0  0  0  0  0  0
  1  2  1  0
  1  6  1  0
  2  3  1  0
  3  4  1  1
  3  5  1  0
  5  6  1  0
  6  7  1  6
  7  8  1  0
  8  9  2  0
  8 10  1  0
 10 11  2  0
 10 15  1  0
 11 12  1  0
 12 13  2  0
 13 14  1  0
 14 15  2  0
 15 16  1  0
 16 17  1  0
 17 18  2  0
 17 19  1  0
 18 26  1  0
 19 20  2  0
 20 21  1  0
 20 25  1  0
 21 22  2  0
 22 23  1  0
 23 24  2  0
 24 25  1  0
 25 26  2  0
 26 27  1  0
 27 28  2  0
 27 36  1  0
 28 29  1  0
 29 30  1  0
 29 34  2  0
 30 31  1  0
 30 32  1  0
 32 33  2  0
 33 34  1  0
 34 35  1  0
 35 36  2  0
M  CHG  1   3   1
M  END
$$$$
