
     RDKit          3D

 36 41  0  0  0  0  0  0  0  0999 V2000
  134.8568  -42.1206  265.2888 C   0  0  0  0  0  0  0  0  0  0  0  0
  134.2719  -42.8586  266.4477 C   0  0  0  0  0  0  0  0  0  0  0  0
  135.2564  -42.8911  267.5036 N   0  0  2  0  0  4  0  0  0  0  0  0
  134.5389  -42.8341  268.7718 C   0  0  0  0  0  0  0  0  0  0  0  0
  136.0166  -41.6981  267.2971 C   0  0  0  0  0  0  0  0  0  0  0  0
  136.1344  -41.4983  265.8031 C   0  0  1  0  0  0  0  0  0  0  0  0
  137.2503  -42.2554  265.2413 N   0  0  0  0  0  0  0  0  0  0  0  0
  138.4743  -41.6301  264.8338 C   0  0  0  0  0  0  0  0  0  0  0  0
  138.4129  -40.3760  264.8697 O   0  0  0  0  0  0  0  0  0  0  0  0
  139.6503  -42.3593  264.4265 C   0  0  0  0  0  0  0  0  0  0  0  0
  139.4962  -43.5323  263.6864 C   0  0  0  0  0  0  0  0  0  0  0  0
  140.6297  -44.2285  263.2842 C   0  0  0  0  0  0  0  0  0  0  0  0
  141.8576  -43.8144  263.5815 N   0  0  0  0  0  0  0  0  0  0  0  0
  142.0340  -42.7011  264.2854 C   0  0  0  0  0  0  0  0  0  0  0  0
  140.9260  -41.9558  264.7185 C   0  0  0  0  0  0  0  0  0  0  0  0
  141.1794  -40.7751  265.4434 N   0  0  0  0  0  0  0  0  0  0  0  0
  142.5425  -40.4657  265.8078 C   0  0  0  0  0  0  0  0  0  0  0  0
  142.8521  -39.2761  266.4275 C   0  0  0  0  0  0  0  0  0  0  0  0
  143.5202  -41.3995  265.5135 C   0  0  0  0  0  0  0  0  0  0  0  0
  144.8233  -41.1346  265.8458 C   0  0  0  0  0  0  0  0  0  0  0  0
  145.8340  -41.9928  265.5927 N   0  0  0  0  0  0  0  0  0  0  0  0
  147.1020  -41.7125  265.9265 C   0  0  0  0  0  0  0  0  0  0  0  0
  147.4006  -40.5106  266.5504 C   0  0  0  0  0  0  0  0  0  0  0  0
  146.4004  -39.6575  266.8026 N   0  0  0  0  0  0  0  0  0  0  0  0
  145.1187  -39.9533  266.4592 C   0  0  0  0  0  0  0  0  0  0  0  0
  144.1589  -39.0122  266.7598 C   0  0  0  0  0  0  0  0  0  0  0  0
  144.5396  -37.7474  267.4277 C   0  0  0  0  0  0  0  0  0  0  0  0
  143.9103  -37.2918  268.5584 C   0  0  0  0  0  0  0  0  0  0  0  0
  144.2536  -36.1140  269.1942 C   0  0  0  0  0  0  0  0  0  0  0  0
  143.8071  -35.4637  270.2835 N   0  0  0  0  0  0  0  0  0  0  0  0
  142.7315  -35.9005  271.1486 C   0  0  0  0  0  0  0  0  0  0  0  0
  144.5179  -34.3350  270.4494 C   0  0  0  0  0  0  0  0  0  0  0  0
  145.4688  -34.2402  269.4287 C   0  0  0  0  0  0  0  0  0  0  0  0
  145.2938  -35.3645  268.6448 C   0  0  0  0  0  0  0  0  0  0  0  0
  145.9391  -35.8060  267.5078 C   0  0  0  0  0  0  0  0  0  0  0  0
  145.5674  -37.0009  266.8900 C   0  0  0  0  0  0  0  0  0  0  0  0
  1  2  1  0
  1  6  1  0
  2  3  1  0
  3  4  1  1
  3  5  1  0
  5  6  1  0
  6  7  1  6
  7  8  1  0
  8  9  2  0
  8 10  1  0
 10 11  2  0
 10 15  1  0
 11 12  1  0
 12 13  2  0
 13 14  1  0
 14 15  2  0
 15 16  1  0
 16 17  1  0
 17 18  2  0
 17 19  1  0
 18 26  1  0
 19 20  2  0
 20 21  1  0
 20 25  1  0
 21 22  2  0
 22 23  1  0
 23 24  2  0
 24 25  1  0
 25 26  2  0
 26 27  1  0
 27 28  2  0
 27 36  1  0
 28 29  1  0
 29 30  1  0
 29 34  2  0
 30 31  1  0
 30 32  1  0
 32 33  2  0
 33 34  1  0
 34 35  1  0
 35 36  2  0
M  CHG  1   3   1
M  END
$$$$
