
     RDKit          3D

 36 41  0  0  0  0  0  0  0  0999 V2000
  136.4015  -43.2786  267.5523 C   0  0  0  0  0  0  0  0  0  0  0  0
  135.0322  -42.6861  267.6158 C   0  0  0  0  0  0  0  0  0  0  0  0
  134.3470  -43.0035  266.3851 N   0  0  2  0  0  4  0  0  0  0  0  0
  132.9354  -43.1819  266.7043 C   0  0  0  0  0  0  0  0  0  0  0  0
  134.9350  -44.2412  265.9774 C   0  0  0  0  0  0  0  0  0  0  0  0
  136.4021  -44.1766  266.3368 C   0  0  1  0  0  0  0  0  0  0  0  0
  137.1858  -43.5118  265.2985 N   0  0  0  0  0  0  0  0  0  0  0  0
  138.5806  -43.2214  265.4571 C   0  0  0  0  0  0  0  0  0  0  0  0
  138.9431  -43.2283  266.6598 O   0  0  0  0  0  0  0  0  0  0  0  0
  139.4734  -42.9504  264.3570 C   0  0  0  0  0  0  0  0  0  0  0  0
  139.3766  -43.7257  263.2007 C   0  0  0  0  0  0  0  0  0  0  0  0
  140.2291  -43.4569  262.1366 C   0  0  0  0  0  0  0  0  0  0  0  0
  141.1352  -42.4851  262.1833 N   0  0  0  0  0  0  0  0  0  0  0  0
  141.2498  -41.7316  263.2719 C   0  0  0  0  0  0  0  0  0  0  0  0
  140.4152  -41.9563  264.3781 C   0  0  0  0  0  0  0  0  0  0  0  0
  140.5722  -41.1114  265.4938 N   0  0  0  0  0  0  0  0  0  0  0  0
  141.9029  -40.6776  265.8517 C   0  0  0  0  0  0  0  0  0  0  0  0
  142.0982  -39.4991  266.5357 C   0  0  0  0  0  0  0  0  0  0  0  0
  142.9675  -41.4816  265.4848 C   0  0  0  0  0  0  0  0  0  0  0  0
  144.2424  -41.0966  265.8091 C   0  0  0  0  0  0  0  0  0  0  0  0
  145.3328  -41.8244  265.4872 N   0  0  0  0  0  0  0  0  0  0  0  0
  146.5712  -41.4281  265.8145 C   0  0  0  0  0  0  0  0  0  0  0  0
  146.7543  -40.2387  266.5034 C   0  0  0  0  0  0  0  0  0  0  0  0
  145.6750  -39.5148  266.8240 N   0  0  0  0  0  0  0  0  0  0  0  0
  144.4244  -39.9275  266.4865 C   0  0  0  0  0  0  0  0  0  0  0  0
  143.3769  -39.1147  266.8598 C   0  0  0  0  0  0  0  0  0  0  0  0
  143.6361  -37.8566  267.5951 C   0  0  0  0  0  0  0  0  0  0  0  0
  144.3793  -36.8323  267.0653 C   0  0  0  0  0  0  0  0  0  0  0  0
  144.6302  -35.6516  267.7379 C   0  0  0  0  0  0  0  0  0  0  0  0
  145.3080  -34.5262  267.4502 N   0  0  0  0  0  0  0  0  0  0  0  0
  146.0190  -34.2579  266.2178 C   0  0  0  0  0  0  0  0  0  0  0  0
  145.2247  -33.6793  268.4904 C   0  0  0  0  0  0  0  0  0  0  0  0
  144.4621  -34.2717  269.5016 C   0  0  0  0  0  0  0  0  0  0  0  0
  144.0932  -35.5122  269.0176 C   0  0  0  0  0  0  0  0  0  0  0  0
  143.3428  -36.5313  269.5678 C   0  0  0  0  0  0  0  0  0  0  0  0
  143.1081  -37.7116  268.8612 C   0  0  0  0  0  0  0  0  0  0  0  0
  1  2  1  0
  1  6  1  0
  2  3  1  0
  3  4  1  1
  3  5  1  0
  5  6  1  0
  6  7  1  6
  7  8  1  0
  8  9  2  0
  8 10  1  0
 10 11  2  0
 10 15  1  0
 11 12  1  0
 12 13  2  0
 13 14  1  0
 14 15  2  0
 15 16  1  0
 16 17  1  0
 17 18  2  0
 17 19  1  0
 18 26  1  0
 19 20  2  0
 20 21  1  0
 20 25  1  0
 21 22  2  0
 22 23  1  0
 23 24  2  0
 24 25  1  0
 25 26  2  0
 26 27  1  0
 27 28  2  0
 27 36  1  0
 28 29  1  0
 29 30  1  0
 29 34  2  0
 30 31  1  0
 30 32  1  0
 32 33  2  0
 33 34  1  0
 34 35  1  0
 35 36  2  0
M  CHG  1   3   1
M  END
$$$$
