
     RDKit          3D

 39 45  0  0  0  0  0  0  0  0999 V2000
   10.1786   13.2987  -22.9073 C   0  0  0  0  0  0  0  0  0  0  0  0
   11.0425   12.3400  -22.4353 C   0  0  0  0  0  0  0  0  0  0  0  0
   11.7580   12.4831  -21.2790 C   0  0  0  0  0  0  0  0  0  0  0  0
   10.7797   15.7532  -20.0299 C   0  0  0  0  0  0  0  0  0  0  0  0
   11.6182   13.6436  -20.5346 C   0  0  0  0  0  0  0  0  0  0  0  0
   13.7128   14.1192  -19.3717 C   0  0  0  0  0  0  0  0  0  0  0  0
   14.5107   14.0320  -18.1991 C   0  0  0  0  0  0  0  0  0  0  0  0
   16.5238   13.8904  -16.3855 C   0  0  0  0  0  0  0  0  0  0  0  0
   16.8353   13.9756  -17.7126 C   0  0  0  0  0  0  0  0  0  0  0  0
   17.6913   18.8003  -21.0119 C   0  0  0  0  0  0  0  0  0  0  0  0
   17.0665   16.5367  -21.3235 C   0  0  0  0  0  0  0  0  0  0  0  0
   16.1884   18.2024  -22.7812 C   0  0  0  0  0  0  0  0  0  0  0  0
   11.1480   11.1795  -23.2295 O   0  0  0  0  0  0  0  0  0  0  0  0
   10.1022   16.8305  -20.1348 O   0  0  0  0  0  0  0  0  0  0  0  0
   10.0521   14.4444  -22.1561 C   0  0  0  0  0  0  0  0  0  0  0  0
   11.6941   15.3769  -19.0079 N   0  0  0  0  0  0  0  0  0  0  0  0
   10.7721   14.6240  -20.9637 C   0  0  0  0  0  0  0  0  0  0  0  0
   12.2459   14.0943  -19.2550 C   0  0  1  0  0  0  0  0  0  0  0  0
   14.1717   14.2941  -21.8925 C   0  0  0  0  0  0  0  0  0  0  0  0
   15.8243   14.1392  -19.9977 N   0  0  0  0  0  0  0  0  0  0  0  0
   14.5380   14.1842  -20.4622 C   0  0  0  0  0  0  0  0  0  0  0  0
   15.8081   14.0494  -18.6590 C   0  0  0  0  0  0  0  0  0  0  0  0
   14.2067   13.9458  -16.8594 C   0  0  0  0  0  0  0  0  0  0  0  0
   15.2036   13.8729  -15.9212 C   0  0  0  0  0  0  0  0  0  0  0  0
   14.2597   15.6449  -22.4125 N   0  0  0  0  0  4  0  0  0  0  0  0
   16.9002   19.1515  -22.0838 C   0  0  0  0  0  0  0  0  0  0  0  0
   17.7860   17.4614  -20.6107 C   0  0  0  0  0  0  0  0  0  0  0  0
   16.2744   16.8987  -22.3982 C   0  0  0  0  0  0  0  0  0  0  0  0
   15.5012   15.8480  -23.1513 C   0  0  0  0  0  0  0  0  0  0  0  0
   18.2604   19.9533  -20.5363 C   0  0  0  0  0  0  0  0  0  0  0  0
   17.7978   20.9711  -21.3338 C   0  0  0  0  0  0  0  0  0  0  0  0
   16.9706   20.4800  -22.2742 N   0  0  0  0  0  0  0  0  0  0  0  0
   16.2836   21.2570  -23.3121 C   0  0  0  0  0  0  0  0  0  0  0  0
   14.9432   21.6182  -22.7759 C   0  0  0  0  0  0  0  0  0  0  0  0
   13.7150   21.0258  -22.9711 C   0  0  0  0  0  0  0  0  0  0  0  0
   12.7474   21.6789  -22.2908 N   0  0  0  0  0  0  0  0  0  0  0  0
   13.3756   22.6932  -21.6612 C   0  0  0  0  0  0  0  0  0  0  0  0
   14.6880   22.6608  -21.9480 N   0  0  0  0  0  0  0  0  0  0  0  0
   11.3237   21.3810  -22.2275 C   0  0  0  0  0  0  0  0  0  0  0  0
  2  1  2  0
 15  1  1  0
  3  2  1  0
  2 13  1  0
  5  3  2  0
  4 14  2  0
 16  4  1  0
  4 17  1  0
  5 17  1  0
 18  5  1  0
  6  7  1  0
 18  6  1  6
 21  6  2  0
 22  7  2  0
  7 23  1  0
  9  8  2  0
  8 24  1  0
 22  9  1  0
 26 10  2  0
 27 10  1  0
 10 30  1  0
 11 27  2  0
 28 11  1  0
 12 26  1  0
 28 12  2  0
 17 15  2  0
 18 16  1  0
 19 21  1  0
 25 19  1  0
 21 20  1  0
 20 22  1  0
 23 24  2  0
 29 25  1  0
 26 32  1  0
 28 29  1  0
 30 31  2  0
 31 32  1  0
 32 33  1  0
 33 34  1  0
 34 35  2  0
 34 38  1  0
 35 36  1  0
 36 37  1  0
 36 39  1  0
 37 38  2  0
M  CHG  1  25   1
M  END
$$$$
