
     RDKit          3D

 39 45  0  0  0  0  0  0  0  0999 V2000
   17.3451   17.2678  -18.4642 C   0  0  0  0  0  0  0  0  0  0  0  0
   16.5705   17.1677  -19.5948 C   0  0  0  0  0  0  0  0  0  0  0  0
   15.5621   16.2545  -19.7313 C   0  0  0  0  0  0  0  0  0  0  0  0
   15.5847   14.4322  -16.5864 C   0  0  0  0  0  0  0  0  0  0  0  0
   15.2943   15.3799  -18.6902 C   0  0  0  0  0  0  0  0  0  0  0  0
   14.4290   13.2824  -19.5945 C   0  0  0  0  0  0  0  0  0  0  0  0
   15.0559   12.0414  -19.3011 C   0  0  0  0  0  0  0  0  0  0  0  0
   16.1180    9.5453  -19.3632 C   0  0  0  0  0  0  0  0  0  0  0  0
   15.5502   10.0498  -20.4983 C   0  0  0  0  0  0  0  0  0  0  0  0
    7.2608   15.8033  -21.1314 C   0  0  0  0  0  0  0  0  0  0  0  0
    9.3866   15.3780  -20.1768 C   0  0  0  0  0  0  0  0  0  0  0  0
    9.2531   16.2924  -22.3714 C   0  0  0  0  0  0  0  0  0  0  0  0
   16.8840   18.0800  -20.6234 O   0  0  0  0  0  0  0  0  0  0  0  0
   16.0652   14.2225  -15.4221 O   0  0  0  0  0  0  0  0  0  0  0  0
   17.0657   16.3919  -17.4407 C   0  0  0  0  0  0  0  0  0  0  0  0
   14.5140   13.7603  -17.2379 N   0  0  0  0  0  0  0  0  0  0  0  0
   16.0372   15.4414  -17.5477 C   0  0  0  0  0  0  0  0  0  0  0  0
   14.2828   14.2907  -18.5324 C   0  0  1  0  0  0  0  0  0  0  0  0
   13.3447   14.3439  -21.6664 C   0  0  0  0  0  0  0  0  0  0  0  0
   14.3916   12.0651  -21.4296 N   0  0  0  0  0  0  0  0  0  0  0  0
   14.0299   13.2756  -20.9041 C   0  0  0  0  0  0  0  0  0  0  0  0
   14.9987   11.3352  -20.4814 C   0  0  0  0  0  0  0  0  0  0  0  0
   15.6304   11.5243  -18.1621 C   0  0  0  0  0  0  0  0  0  0  0  0
   16.1745   10.2660  -18.1648 C   0  0  0  0  0  0  0  0  0  0  0  0
   11.9366   14.4748  -21.3453 N   0  0  0  0  0  4  0  0  0  0  0  0
    7.8809   16.2688  -22.2701 C   0  0  0  0  0  0  0  0  0  0  0  0
    8.0216   15.3429  -20.0489 C   0  0  0  0  0  0  0  0  0  0  0  0
   10.0006   15.8469  -21.3243 C   0  0  0  0  0  0  0  0  0  0  0  0
   11.5037   15.8661  -21.4198 C   0  0  0  0  0  0  0  0  0  0  0  0
    5.9094   15.9066  -21.3376 C   0  0  0  0  0  0  0  0  0  0  0  0
    5.7487   16.4321  -22.5962 C   0  0  0  0  0  0  0  0  0  0  0  0
    6.9500   16.6514  -23.1608 N   0  0  0  0  0  0  0  0  0  0  0  0
    7.1882   17.2093  -24.4968 C   0  0  0  0  0  0  0  0  0  0  0  0
    7.3599   18.6787  -24.3354 C   0  0  0  0  0  0  0  0  0  0  0  0
    8.5050   19.4363  -24.2255 C   0  0  0  0  0  0  0  0  0  0  0  0
    8.2086   20.7480  -24.0939 N   0  0  0  0  0  0  0  0  0  0  0  0
    6.8616   20.8145  -24.1215 C   0  0  0  0  0  0  0  0  0  0  0  0
    6.3500   19.5803  -24.2658 N   0  0  0  0  0  0  0  0  0  0  0  0
    9.1199   21.8744  -23.9508 C   0  0  0  0  0  0  0  0  0  0  0  0
  2  1  2  0
 15  1  1  0
  3  2  1  0
  2 13  1  0
  5  3  2  0
  4 14  2  0
 16  4  1  0
  4 17  1  0
  5 17  1  0
 18  5  1  0
  6  7  1  0
 18  6  1  6
 21  6  2  0
 22  7  2  0
  7 23  1  0
  9  8  2  0
  8 24  1  0
 22  9  1  0
 26 10  2  0
 27 10  1  0
 10 30  1  0
 11 27  2  0
 28 11  1  0
 12 26  1  0
 28 12  2  0
 17 15  2  0
 18 16  1  0
 19 21  1  0
 25 19  1  0
 21 20  1  0
 20 22  1  0
 23 24  2  0
 29 25  1  0
 26 32  1  0
 28 29  1  0
 30 31  2  0
 31 32  1  0
 32 33  1  0
 33 34  1  0
 34 35  2  0
 34 38  1  0
 35 36  1  0
 36 37  1  0
 36 39  1  0
 37 38  2  0
M  CHG  1  25   1
M  END
$$$$
