
     RDKit          3D

 39 45  0  0  0  0  0  0  0  0999 V2000
   17.3179   17.9342  -21.9733 C   0  0  0  0  0  0  0  0  0  0  0  0
   17.4942   17.6950  -20.6336 C   0  0  0  0  0  0  0  0  0  0  0  0
   17.0358   16.5044  -20.1194 C   0  0  0  0  0  0  0  0  0  0  0  0
   15.5368   14.6742  -22.8722 C   0  0  0  0  0  0  0  0  0  0  0  0
   16.4122   15.5494  -20.8859 C   0  0  0  0  0  0  0  0  0  0  0  0
   14.8730   14.1901  -19.4814 C   0  0  0  0  0  0  0  0  0  0  0  0
   15.2202   13.9288  -18.1656 C   0  0  0  0  0  0  0  0  0  0  0  0
   15.2272   13.5066  -15.4255 C   0  0  0  0  0  0  0  0  0  0  0  0
   14.0580   13.8077  -16.0844 C   0  0  0  0  0  0  0  0  0  0  0  0
   10.9479   20.8511  -21.7689 C   0  0  0  0  0  0  0  0  0  0  0  0
   10.8632   18.7009  -20.6858 C   0  0  0  0  0  0  0  0  0  0  0  0
   11.7470   18.8845  -22.8486 C   0  0  0  0  0  0  0  0  0  0  0  0
   18.1262   18.6402  -19.8049 O   0  0  0  0  0  0  0  0  0  0  0  0
   15.2398   14.6127  -24.0847 O   0  0  0  0  0  0  0  0  0  0  0  0
   16.6948   16.9938  -22.7659 C   0  0  0  0  0  0  0  0  0  0  0  0
   15.2990   13.7458  -21.8463 N   0  0  0  0  0  0  0  0  0  0  0  0
   16.2316   15.7966  -22.2570 C   0  0  0  0  0  0  0  0  0  0  0  0
   15.8606   14.2206  -20.6151 C   0  0  1  0  0  0  0  0  0  0  0  0
   12.7541   14.7539  -20.7846 C   0  0  0  0  0  0  0  0  0  0  0  0
   13.0275   14.3263  -18.3159 N   0  0  0  0  0  0  0  0  0  0  0  0
   13.5207   14.4318  -19.5525 C   0  0  0  0  0  0  0  0  0  0  0  0
   14.0196   14.0260  -17.4626 C   0  0  0  0  0  0  0  0  0  0  0  0
   16.3929   13.6254  -17.4955 C   0  0  0  0  0  0  0  0  0  0  0  0
   16.4044   13.4142  -16.1338 C   0  0  0  0  0  0  0  0  0  0  0  0
   12.8558   16.1437  -21.1702 N   0  0  0  0  0  4  0  0  0  0  0  0
   11.5245   20.2430  -22.8811 C   0  0  0  0  0  0  0  0  0  0  0  0
   10.6195   20.0805  -20.6769 C   0  0  0  0  0  0  0  0  0  0  0  0
   11.4339   18.0716  -21.7748 C   0  0  0  0  0  0  0  0  0  0  0  0
   11.6680   16.6480  -21.7160 C   0  0  0  0  0  0  0  0  0  0  0  0
   10.8409   22.1933  -22.0632 C   0  0  0  0  0  0  0  0  0  0  0  0
   11.3537   22.3440  -23.3344 C   0  0  0  0  0  0  0  0  0  0  0  0
   11.7626   21.1707  -23.8214 N   0  0  0  0  0  0  0  0  0  0  0  0
   12.3514   20.8990  -25.1091 C   0  0  0  0  0  0  0  0  0  0  0  0
   11.5836   21.6152  -26.1779 C   0  0  0  0  0  0  0  0  0  0  0  0
   10.4779   21.1462  -26.8836 C   0  0  0  0  0  0  0  0  0  0  0  0
   10.0603   22.0874  -27.7734 N   0  0  0  0  0  0  0  0  0  0  0  0
   10.8938   23.1276  -27.6247 C   0  0  0  0  0  0  0  0  0  0  0  0
   11.8035   22.8508  -26.6745 N   0  0  0  0  0  0  0  0  0  0  0  0
    8.9380   21.9785  -28.6959 C   0  0  0  0  0  0  0  0  0  0  0  0
  2  1  2  0
 15  1  1  0
  3  2  1  0
  2 13  1  0
  5  3  2  0
  4 14  2  0
 16  4  1  0
  4 17  1  0
  5 17  1  0
 18  5  1  0
  6  7  1  0
 18  6  1  1
 21  6  2  0
 22  7  2  0
  7 23  1  0
  9  8  2  0
  8 24  1  0
 22  9  1  0
 26 10  2  0
 27 10  1  0
 10 30  1  0
 11 27  2  0
 28 11  1  0
 12 26  1  0
 28 12  2  0
 17 15  2  0
 18 16  1  0
 19 21  1  1
 25 19  1  1
 21 20  1  0
 20 22  1  0
 23 24  2  0
 29 25  1  0
 26 32  1  0
 29 28  1  6
 30 31  2  0
 31 32  1  0
 33 32  1  1
 33 34  1  0
 34 35  2  0
 34 38  1  0
 35 36  1  0
 36 37  1  0
 39 36  1  1
 37 38  2  0
M  CHG  1  25   1
M  END
$$$$
