
     RDKit          3D

 39 45  0  0  0  0  0  0  0  0999 V2000
   19.6433   16.0776  -20.6446 C   0  0  0  0  0  0  0  0  0  0  0  0
   19.1669   14.7968  -20.7694 C   0  0  0  0  0  0  0  0  0  0  0  0
   17.8049   14.6114  -20.8219 C   0  0  0  0  0  0  0  0  0  0  0  0
   16.2824   17.8953  -20.5527 C   0  0  0  0  0  0  0  0  0  0  0  0
   16.9058   15.6485  -20.7551 C   0  0  0  0  0  0  0  0  0  0  0  0
   14.7417   14.8515  -19.8217 C   0  0  0  0  0  0  0  0  0  0  0  0
   15.3296   14.3732  -18.6616 C   0  0  0  0  0  0  0  0  0  0  0  0
   15.8736   13.1223  -16.2480 C   0  0  0  0  0  0  0  0  0  0  0  0
   14.6334   13.0081  -16.8317 C   0  0  0  0  0  0  0  0  0  0  0  0
    6.2690   13.9456  -21.3997 C   0  0  0  0  0  0  0  0  0  0  0  0
    7.9808   15.4878  -20.6964 C   0  0  0  0  0  0  0  0  0  0  0  0
    8.4939   13.7969  -22.2360 C   0  0  0  0  0  0  0  0  0  0  0  0
   20.0451   13.6999  -20.8416 O   0  0  0  0  0  0  0  0  0  0  0  0
   16.4135   19.1328  -20.4371 O   0  0  0  0  0  0  0  0  0  0  0  0
   18.7638   17.1371  -20.5747 C   0  0  0  0  0  0  0  0  0  0  0  0
   15.1115   17.1254  -20.6370 N   0  0  0  0  0  0  0  0  0  0  0  0
   17.3954   16.9590  -20.6262 C   0  0  0  0  0  0  0  0  0  0  0  0
   15.4458   15.7413  -20.8087 C   0  0  1  0  0  0  0  0  0  0  0  0
   12.4722   14.6955  -20.9753 C   0  0  0  0  0  0  0  0  0  0  0  0
   13.2169   13.6622  -18.8004 N   0  0  0  0  0  0  0  0  0  0  0  0
   13.4431   14.4030  -19.8883 C   0  0  0  0  0  0  0  0  0  0  0  0
   14.3267   13.6249  -18.0458 C   0  0  0  0  0  0  0  0  0  0  0  0
   16.5754   14.4835  -18.0680 C   0  0  0  0  0  0  0  0  0  0  0  0
   16.8533   13.8647  -16.8685 C   0  0  0  0  0  0  0  0  0  0  0  0
   11.1731   15.0974  -20.4840 N   0  0  0  0  0  4  0  0  0  0  0  0
    7.2048   13.3134  -22.2145 C   0  0  0  0  0  0  0  0  0  0  0  0
    6.6583   15.0282  -20.6447 C   0  0  0  0  0  0  0  0  0  0  0  0
    8.9295   14.8805  -21.4956 C   0  0  0  0  0  0  0  0  0  0  0  0
   10.2728   15.4098  -21.5111 C   0  0  0  0  0  0  0  0  0  0  0  0
    5.0789   13.2709  -21.5676 C   0  0  0  0  0  0  0  0  0  0  0  0
    5.3396   12.2629  -22.4717 C   0  0  0  0  0  0  0  0  0  0  0  0
    6.6169   12.2922  -22.8571 N   0  0  0  0  0  0  0  0  0  0  0  0
    7.2868   11.4129  -23.7828 C   0  0  0  0  0  0  0  0  0  0  0  0
    7.1504    9.9938  -23.3219 C   0  0  0  0  0  0  0  0  0  0  0  0
    8.0638    8.9565  -23.4958 C   0  0  0  0  0  0  0  0  0  0  0  0
    7.5809    7.8129  -22.9380 N   0  0  0  0  0  0  0  0  0  0  0  0
    6.3840    8.1329  -22.4243 C   0  0  0  0  0  0  0  0  0  0  0  0
    6.1232    9.4320  -22.6506 N   0  0  0  0  0  0  0  0  0  0  0  0
    8.2359    6.5119  -22.9104 C   0  0  0  0  0  0  0  0  0  0  0  0
  2  1  2  0
 15  1  1  0
  3  2  1  0
  2 13  1  0
  5  3  2  0
  4 14  2  0
 16  4  1  0
  4 17  1  0
  5 17  1  0
 18  5  1  0
  6  7  1  0
 18  6  1  1
 21  6  2  0
 22  7  2  0
  7 23  1  0
  9  8  2  0
  8 24  1  0
 22  9  1  0
 26 10  2  0
 27 10  1  0
 10 30  1  0
 11 27  2  0
 28 11  1  0
 12 26  1  0
 28 12  2  0
 17 15  2  0
 18 16  1  0
 19 21  1  1
 25 19  1  1
 21 20  1  0
 20 22  1  0
 23 24  2  0
 29 25  1  0
 26 32  1  0
 29 28  1  6
 30 31  2  0
 31 32  1  0
 33 32  1  1
 33 34  1  0
 34 35  2  0
 34 38  1  0
 35 36  1  0
 36 37  1  0
 39 36  1  1
 37 38  2  0
M  CHG  1  25   1
M  END
$$$$
