
     RDKit          3D

 39 45  0  0  0  0  0  0  0  0999 V2000
   11.5588   11.6786  -22.8341 C   0  0  0  0  0  0  0  0  0  0  0  0
   12.6356   11.2836  -22.0807 C   0  0  0  0  0  0  0  0  0  0  0  0
   12.9209   11.9877  -20.9340 C   0  0  0  0  0  0  0  0  0  0  0  0
   10.4460   14.6303  -20.6761 C   0  0  0  0  0  0  0  0  0  0  0  0
   12.1774   13.0641  -20.5129 C   0  0  0  0  0  0  0  0  0  0  0  0
   13.5822   14.5977  -19.1476 C   0  0  0  0  0  0  0  0  0  0  0  0
   14.4495   14.2506  -18.1241 C   0  0  0  0  0  0  0  0  0  0  0  0
   16.5931   14.0426  -16.3783 C   0  0  0  0  0  0  0  0  0  0  0  0
   16.6283   14.9316  -17.4272 C   0  0  0  0  0  0  0  0  0  0  0  0
   14.2915   14.5680  -27.3514 C   0  0  0  0  0  0  0  0  0  0  0  0
   13.4489   14.2094  -25.1232 C   0  0  0  0  0  0  0  0  0  0  0  0
   14.1457   16.3493  -25.7773 C   0  0  0  0  0  0  0  0  0  0  0  0
   13.4293   10.1883  -22.4680 O   0  0  0  0  0  0  0  0  0  0  0  0
    9.4405   15.2083  -21.1419 O   0  0  0  0  0  0  0  0  0  0  0  0
   10.7958   12.7556  -22.4356 C   0  0  0  0  0  0  0  0  0  0  0  0
   11.1892   14.9228  -19.5214 N   0  0  0  0  0  0  0  0  0  0  0  0
   11.0761   13.4676  -21.2861 C   0  0  0  0  0  0  0  0  0  0  0  0
   12.2371   13.9579  -19.3550 C   0  0  1  0  0  0  0  0  0  0  0  0
   13.5609   16.2162  -21.1189 C   0  0  0  0  0  0  0  0  0  0  0  0
   15.3657   15.8377  -19.4008 N   0  0  0  0  0  0  0  0  0  0  0  0
   14.1641   15.5750  -19.9212 C   0  0  0  0  0  0  0  0  0  0  0  0
   15.5665   15.0613  -18.3241 C   0  0  0  0  0  0  0  0  0  0  0  0
   14.4214   13.3582  -17.0662 C   0  0  0  0  0  0  0  0  0  0  0  0
   15.4829   13.2491  -16.1943 C   0  0  0  0  0  0  0  0  0  0  0  0
   14.0851   15.7012  -22.3640 N   0  0  0  0  0  4  0  0  0  0  0  0
   14.4814   15.9118  -27.0390 C   0  0  0  0  0  0  0  0  0  0  0  0
   13.7772   13.7224  -26.3952 C   0  0  0  0  0  0  0  0  0  0  0  0
   13.6264   15.5369  -24.7862 C   0  0  0  0  0  0  0  0  0  0  0  0
   13.2583   15.9769  -23.4611 C   0  0  0  0  0  0  0  0  0  0  0  0
   14.7010   14.4040  -28.6572 C   0  0  0  0  0  0  0  0  0  0  0  0
   15.1202   15.6473  -29.0813 C   0  0  0  0  0  0  0  0  0  0  0  0
   14.9867   16.5491  -28.1067 N   0  0  0  0  0  0  0  0  0  0  0  0
   15.3131   17.9530  -28.1435 C   0  0  0  0  0  0  0  0  0  0  0  0
   16.7139   18.1600  -27.6542 C   0  0  0  0  0  0  0  0  0  0  0  0
   17.2019   19.2361  -26.9161 C   0  0  0  0  0  0  0  0  0  0  0  0
   18.5278   19.0636  -26.6630 N   0  0  0  0  0  0  0  0  0  0  0  0
   18.8614   17.8973  -27.2351 C   0  0  0  0  0  0  0  0  0  0  0  0
   17.7833   17.3549  -27.8270 N   0  0  0  0  0  0  0  0  0  0  0  0
   19.3991   19.9665  -25.9227 C   0  0  0  0  0  0  0  0  0  0  0  0
  2  1  2  0
 15  1  1  0
  3  2  1  0
  2 13  1  0
  5  3  2  0
  4 14  2  0
 16  4  1  0
  4 17  1  0
  5 17  1  0
 18  5  1  0
  6  7  1  0
 18  6  1  6
 21  6  2  0
 22  7  2  0
  7 23  1  0
  9  8  2  0
  8 24  1  0
 22  9  1  0
 26 10  2  0
 27 10  1  0
 10 30  1  0
 11 27  2  0
 28 11  1  0
 12 26  1  0
 28 12  2  0
 17 15  2  0
 18 16  1  0
 19 21  1  1
 25 19  1  1
 21 20  1  0
 20 22  1  0
 23 24  2  0
 29 25  1  0
 26 32  1  0
 29 28  1  6
 30 31  2  0
 31 32  1  0
 33 32  1  1
 33 34  1  0
 34 35  2  0
 34 38  1  0
 35 36  1  0
 36 37  1  0
 39 36  1  1
 37 38  2  0
M  CHG  1  25   1
M  END
$$$$
