
     RDKit          3D

 39 45  0  0  0  0  0  0  0  0999 V2000
   12.9248   11.4963  -22.9978 C   0  0  0  0  0  0  0  0  0  0  0  0
   11.9301   12.1789  -22.3397 C   0  0  0  0  0  0  0  0  0  0  0  0
   12.1519   13.3335  -21.6418 C   0  0  0  0  0  0  0  0  0  0  0  0
   15.7156   13.9338  -22.0303 C   0  0  0  0  0  0  0  0  0  0  0  0
   13.4346   13.8549  -21.5841 C   0  0  0  0  0  0  0  0  0  0  0  0
   13.7343   15.0409  -19.4701 C   0  0  0  0  0  0  0  0  0  0  0  0
   14.6790   14.4284  -18.6032 C   0  0  0  0  0  0  0  0  0  0  0  0
   16.0659   13.4471  -16.4876 C   0  0  0  0  0  0  0  0  0  0  0  0
   14.8824   14.0900  -16.2605 C   0  0  0  0  0  0  0  0  0  0  0  0
   11.9213   20.3448  -23.5462 C   0  0  0  0  0  0  0  0  0  0  0  0
   12.2686   18.7162  -21.8614 C   0  0  0  0  0  0  0  0  0  0  0  0
   10.2319   19.9495  -21.8920 C   0  0  0  0  0  0  0  0  0  0  0  0
   10.6445   11.6064  -22.4298 O   0  0  0  0  0  0  0  0  0  0  0  0
   16.8586   13.6027  -22.4932 O   0  0  0  0  0  0  0  0  0  0  0  0
   14.1920   12.0278  -22.9300 C   0  0  0  0  0  0  0  0  0  0  0  0
   15.3752   15.0587  -21.2296 N   0  0  0  0  0  0  0  0  0  0  0  0
   14.4549   13.2119  -22.2218 C   0  0  0  0  0  0  0  0  0  0  0  0
   13.9919   15.0719  -20.9187 C   0  0  1  0  0  0  0  0  0  0  0  0
   11.4925   16.2580  -19.1720 C   0  0  0  0  0  0  0  0  0  0  0  0
   12.9903   15.2614  -17.4088 N   0  0  0  0  0  0  0  0  0  0  0  0
   12.7075   15.5446  -18.7173 C   0  0  0  0  0  0  0  0  0  0  0  0
   14.1564   14.6011  -17.3414 C   0  0  0  0  0  0  0  0  0  0  0  0
   15.8728   13.7790  -18.8220 C   0  0  0  0  0  0  0  0  0  0  0  0
   16.5944   13.2734  -17.7718 C   0  0  0  0  0  0  0  0  0  0  0  0
   11.7263   17.6505  -19.5028 N   0  0  0  0  0  4  0  0  0  0  0  0
   10.6847   20.6205  -23.0049 C   0  0  0  0  0  0  0  0  0  0  0  0
   12.7450   19.3694  -22.9692 C   0  0  0  0  0  0  0  0  0  0  0  0
   11.0257   19.0000  -21.3247 C   0  0  0  0  0  0  0  0  0  0  0  0
   10.5444   18.2569  -20.1060 C   0  0  0  0  0  0  0  0  0  0  0  0
   12.0790   21.1681  -24.6309 C   0  0  0  0  0  0  0  0  0  0  0  0
   10.9329   21.9197  -24.7165 C   0  0  0  0  0  0  0  0  0  0  0  0
   10.0867   21.5842  -23.7260 N   0  0  0  0  0  0  0  0  0  0  0  0
    8.7597   22.1638  -23.4893 C   0  0  0  0  0  0  0  0  0  0  0  0
    8.9282   23.2551  -22.4916 C   0  0  0  0  0  0  0  0  0  0  0  0
    8.2257   23.5255  -21.3380 C   0  0  0  0  0  0  0  0  0  0  0  0
    8.7129   24.6232  -20.7189 N   0  0  0  0  0  0  0  0  0  0  0  0
    9.7334   25.0468  -21.4930 C   0  0  0  0  0  0  0  0  0  0  0  0
    9.8659   24.2321  -22.5534 N   0  0  0  0  0  0  0  0  0  0  0  0
    8.2598   25.2440  -19.4823 C   0  0  0  0  0  0  0  0  0  0  0  0
  2  1  2  0
 15  1  1  0
  3  2  1  0
  2 13  1  0
  5  3  2  0
  4 14  2  0
 16  4  1  0
  4 17  1  0
  5 17  1  0
 18  5  1  0
  6  7  1  0
 18  6  1  1
 21  6  2  0
 22  7  2  0
  7 23  1  0
  9  8  2  0
  8 24  1  0
 22  9  1  0
 26 10  2  0
 27 10  1  0
 10 30  1  0
 11 27  2  0
 28 11  1  0
 12 26  1  0
 28 12  2  0
 17 15  2  0
 18 16  1  0
 19 21  1  0
 25 19  1  0
 21 20  1  0
 20 22  1  0
 23 24  2  0
 29 25  1  0
 26 32  1  0
 28 29  1  0
 30 31  2  0
 31 32  1  0
 32 33  1  0
 33 34  1  0
 34 35  2  0
 34 38  1  0
 35 36  1  0
 36 37  1  0
 36 39  1  0
 37 38  2  0
M  CHG  1  25   1
M  END
$$$$
