
     RDKit          3D

 39 45  0  0  0  0  0  0  0  0999 V2000
   10.9507   11.7077  -22.3880 C   0  0  0  0  0  0  0  0  0  0  0  0
   11.9986   11.2672  -21.6193 C   0  0  0  0  0  0  0  0  0  0  0  0
   12.4091   12.0525  -20.5672 C   0  0  0  0  0  0  0  0  0  0  0  0
   10.2844   14.9953  -20.5562 C   0  0  0  0  0  0  0  0  0  0  0  0
   11.8178   13.2531  -20.2548 C   0  0  0  0  0  0  0  0  0  0  0  0
   13.4475   14.7410  -19.1060 C   0  0  0  0  0  0  0  0  0  0  0  0
   14.3959   14.1750  -18.2691 C   0  0  0  0  0  0  0  0  0  0  0  0
   16.7087   13.5319  -16.8823 C   0  0  0  0  0  0  0  0  0  0  0  0
   16.7037   14.5592  -17.7970 C   0  0  0  0  0  0  0  0  0  0  0  0
   15.9508   20.7897  -25.0493 C   0  0  0  0  0  0  0  0  0  0  0  0
   15.2210   20.1313  -22.8500 C   0  0  0  0  0  0  0  0  0  0  0  0
   14.3838   19.0235  -24.7380 C   0  0  0  0  0  0  0  0  0  0  0  0
   12.6388   10.0455  -21.8970 O   0  0  0  0  0  0  0  0  0  0  0  0
    9.3400   15.6391  -21.0619 O   0  0  0  0  0  0  0  0  0  0  0  0
   10.3392   12.9088  -22.0977 C   0  0  0  0  0  0  0  0  0  0  0  0
   11.0994   15.3186  -19.4598 N   0  0  0  0  0  0  0  0  0  0  0  0
   10.7459   13.7029  -21.0437 C   0  0  0  0  0  0  0  0  0  0  0  0
   12.0280   14.2549  -19.2083 C   0  0  1  0  0  0  0  0  0  0  0  0
   13.3462   16.6274  -20.8198 C   0  0  0  0  0  0  0  0  0  0  0  0
   15.3037   15.8490  -19.4360 N   0  0  0  0  0  0  0  0  0  0  0  0
   14.0256   15.7684  -19.8147 C   0  0  0  0  0  0  0  0  0  0  0  0
   15.5568   14.9087  -18.5118 C   0  0  0  0  0  0  0  0  0  0  0  0
   14.4087   13.1426  -17.3470 C   0  0  0  0  0  0  0  0  0  0  0  0
   15.5543   12.8170  -16.6538 C   0  0  0  0  0  0  0  0  0  0  0  0
   14.2686   17.3751  -21.6448 N   0  0  0  0  0  4  0  0  0  0  0  0
   15.1280   19.8060  -25.5922 C   0  0  0  0  0  0  0  0  0  0  0  0
   15.9950   20.9495  -23.6831 C   0  0  0  0  0  0  0  0  0  0  0  0
   14.3967   19.1478  -23.3609 C   0  0  0  0  0  0  0  0  0  0  0  0
   13.6328   18.3317  -22.4471 C   0  0  0  0  0  0  0  0  0  0  0  0
   16.5729   21.4139  -26.1090 C   0  0  0  0  0  0  0  0  0  0  0  0
   16.1051   20.7874  -27.2449 C   0  0  0  0  0  0  0  0  0  0  0  0
   15.2380   19.8231  -26.9298 N   0  0  0  0  0  0  0  0  0  0  0  0
   14.5252   18.9422  -27.8213 C   0  0  0  0  0  0  0  0  0  0  0  0
   15.2470   17.6333  -27.9236 C   0  0  0  0  0  0  0  0  0  0  0  0
   14.8067   16.3877  -27.4817 C   0  0  0  0  0  0  0  0  0  0  0  0
   15.7445   15.4396  -27.7527 N   0  0  0  0  0  0  0  0  0  0  0  0
   16.7547   16.0849  -28.3544 C   0  0  0  0  0  0  0  0  0  0  0  0
   16.4625   17.3929  -28.4586 N   0  0  0  0  0  0  0  0  0  0  0  0
   15.6609   14.0176  -27.4470 C   0  0  0  0  0  0  0  0  0  0  0  0
  2  1  2  0
 15  1  1  0
  3  2  1  0
  2 13  1  0
  5  3  2  0
  4 14  2  0
 16  4  1  0
  4 17  1  0
  5 17  1  0
 18  5  1  0
  6  7  1  0
 18  6  1  6
 21  6  2  0
 22  7  2  0
  7 23  1  0
  9  8  2  0
  8 24  1  0
 22  9  1  0
 26 10  2  0
 27 10  1  0
 10 30  1  0
 11 27  2  0
 28 11  1  0
 12 26  1  0
 28 12  2  0
 17 15  2  0
 18 16  1  0
 19 21  1  1
 25 19  1  1
 21 20  1  0
 20 22  1  0
 23 24  2  0
 29 25  1  0
 26 32  1  0
 29 28  1  6
 30 31  2  0
 31 32  1  0
 33 32  1  1
 33 34  1  0
 34 35  2  0
 34 38  1  0
 35 36  1  0
 36 37  1  0
 39 36  1  1
 37 38  2  0
M  CHG  1  25   1
M  END
$$$$
