
     RDKit          3D

 39 45  0  0  0  0  0  0  0  0999 V2000
   15.9155   11.8769  -17.1717 C   0  0  0  0  0  0  0  0  0  0  0  0
   16.9794   12.5103  -17.7634 C   0  0  0  0  0  0  0  0  0  0  0  0
   16.8140   13.8117  -18.1769 C   0  0  0  0  0  0  0  0  0  0  0  0
   13.3998   14.7470  -17.3748 C   0  0  0  0  0  0  0  0  0  0  0  0
   15.6350   14.5010  -18.0236 C   0  0  0  0  0  0  0  0  0  0  0  0
   15.4348   16.2612  -19.7703 C   0  0  0  0  0  0  0  0  0  0  0  0
   16.4523   17.1115  -20.1726 C   0  0  0  0  0  0  0  0  0  0  0  0
   18.2213   18.6848  -21.6154 C   0  0  0  0  0  0  0  0  0  0  0  0
   17.2258   17.9837  -22.2553 C   0  0  0  0  0  0  0  0  0  0  0  0
    8.2377   12.4773  -21.6059 C   0  0  0  0  0  0  0  0  0  0  0  0
    9.9832   13.2074  -20.1149 C   0  0  0  0  0  0  0  0  0  0  0  0
    9.4411   14.4950  -21.9965 C   0  0  0  0  0  0  0  0  0  0  0  0
   18.2082   11.8492  -17.9443 O   0  0  0  0  0  0  0  0  0  0  0  0
   12.2890   14.4416  -16.8899 O   0  0  0  0  0  0  0  0  0  0  0  0
   14.7206   12.5442  -17.0058 C   0  0  0  0  0  0  0  0  0  0  0  0
   13.8153   15.9502  -17.9668 N   0  0  0  0  0  0  0  0  0  0  0  0
   14.5466   13.8505  -17.4187 C   0  0  0  0  0  0  0  0  0  0  0  0
   15.1972   15.8617  -18.3401 C   0  0  1  0  0  0  0  0  0  0  0  0
   13.5610   14.9269  -20.8723 C   0  0  0  0  0  0  0  0  0  0  0  0
   15.2846   16.4196  -21.9463 N   0  0  0  0  0  0  0  0  0  0  0  0
   14.7285   15.8470  -20.8756 C   0  0  0  0  0  0  0  0  0  0  0  0
   16.3190   17.1828  -21.5590 C   0  0  0  0  0  0  0  0  0  0  0  0
   17.4567   17.8200  -19.5357 C   0  0  0  0  0  0  0  0  0  0  0  0
   18.3397   18.6041  -20.2459 C   0  0  0  0  0  0  0  0  0  0  0  0
   12.3302   15.5692  -21.2761 N   0  0  0  0  0  4  0  0  0  0  0  0
    8.4620   13.6087  -22.3863 C   0  0  0  0  0  0  0  0  0  0  0  0
    8.9969   12.2799  -20.4752 C   0  0  0  0  0  0  0  0  0  0  0  0
   10.2270   14.3380  -20.8698 C   0  0  0  0  0  0  0  0  0  0  0  0
   11.2511   15.2595  -20.4377 C   0  0  0  0  0  0  0  0  0  0  0  0
    7.2195   11.7740  -22.2129 C   0  0  0  0  0  0  0  0  0  0  0  0
    6.8698   12.5027  -23.3300 C   0  0  0  0  0  0  0  0  0  0  0  0
    7.6183   13.6030  -23.4301 N   0  0  0  0  0  0  0  0  0  0  0  0
    7.5705   14.6213  -24.4498 C   0  0  0  0  0  0  0  0  0  0  0  0
    8.7179   14.4436  -25.3967 C   0  0  0  0  0  0  0  0  0  0  0  0
    8.7098   13.7766  -26.6198 C   0  0  0  0  0  0  0  0  0  0  0  0
    9.9457   13.8296  -27.1869 N   0  0  0  0  0  0  0  0  0  0  0  0
   10.7129   14.5193  -26.3297 C   0  0  0  0  0  0  0  0  0  0  0  0
    9.9852   14.8875  -25.2612 N   0  0  0  0  0  0  0  0  0  0  0  0
   10.3453   13.2517  -28.4631 C   0  0  0  0  0  0  0  0  0  0  0  0
  2  1  2  0
 15  1  1  0
  3  2  1  0
  2 13  1  0
  5  3  2  0
  4 14  2  0
 16  4  1  0
  4 17  1  0
  5 17  1  0
 18  5  1  0
  6  7  1  0
 18  6  1  6
 21  6  2  0
 22  7  2  0
  7 23  1  0
  9  8  2  0
  8 24  1  0
 22  9  1  0
 26 10  2  0
 27 10  1  0
 10 30  1  0
 11 27  2  0
 28 11  1  0
 12 26  1  0
 28 12  2  0
 17 15  2  0
 18 16  1  0
 19 21  1  1
 25 19  1  1
 21 20  1  0
 20 22  1  0
 23 24  2  0
 29 25  1  0
 26 32  1  0
 29 28  1  6
 30 31  2  0
 31 32  1  0
 33 32  1  1
 33 34  1  0
 34 35  2  0
 34 38  1  0
 35 36  1  0
 36 37  1  0
 39 36  1  1
 37 38  2  0
M  CHG  1  25   1
M  END
$$$$
