
     RDKit          3D

 39 45  0  0  0  0  0  0  0  0999 V2000
   14.1547   10.4051  -18.5687 C   0  0  0  0  0  0  0  0  0  0  0  0
   15.2111   11.1533  -18.1134 C   0  0  0  0  0  0  0  0  0  0  0  0
   15.0273   12.5065  -17.9495 C   0  0  0  0  0  0  0  0  0  0  0  0
   11.6090   13.2329  -18.9308 C   0  0  0  0  0  0  0  0  0  0  0  0
   13.8372   13.1379  -18.2209 C   0  0  0  0  0  0  0  0  0  0  0  0
   14.2441   15.5171  -18.8238 C   0  0  0  0  0  0  0  0  0  0  0  0
   15.5099   15.8726  -18.3861 C   0  0  0  0  0  0  0  0  0  0  0  0
   18.0304   16.9876  -18.0861 C   0  0  0  0  0  0  0  0  0  0  0  0
   17.2364   17.3297  -19.1558 C   0  0  0  0  0  0  0  0  0  0  0  0
   11.8825   13.7398  -26.6280 C   0  0  0  0  0  0  0  0  0  0  0  0
   11.5015   13.2852  -24.2932 C   0  0  0  0  0  0  0  0  0  0  0  0
   12.0011   15.4659  -24.9915 C   0  0  0  0  0  0  0  0  0  0  0  0
   16.4509   10.5556  -17.8212 O   0  0  0  0  0  0  0  0  0  0  0  0
   10.5034   12.8274  -19.3495 O   0  0  0  0  0  0  0  0  0  0  0  0
   12.9493   11.0125  -18.8496 C   0  0  0  0  0  0  0  0  0  0  0  0
   12.0168   14.5359  -18.6039 N   0  0  0  0  0  0  0  0  0  0  0  0
   12.7572   12.3705  -18.6881 C   0  0  0  0  0  0  0  0  0  0  0  0
   13.3663   14.5203  -18.1185 C   0  0  1  0  0  0  0  0  0  0  0  0
   12.7051   16.0916  -20.7750 C   0  0  0  0  0  0  0  0  0  0  0  0
   15.0187   16.9577  -20.2755 N   0  0  0  0  0  0  0  0  0  0  0  0
   13.9610   16.1952  -19.9866 C   0  0  0  0  0  0  0  0  0  0  0  0
   15.9630   16.7872  -19.3365 C   0  0  0  0  0  0  0  0  0  0  0  0
   16.3147   15.5332  -17.3121 C   0  0  0  0  0  0  0  0  0  0  0  0
   17.5687   16.0831  -17.1562 C   0  0  0  0  0  0  0  0  0  0  0  0
   12.7229   15.0086  -21.7327 N   0  0  0  0  0  4  0  0  0  0  0  0
   12.0948   15.0788  -26.3095 C   0  0  0  0  0  0  0  0  0  0  0  0
   11.5872   12.8487  -25.6217 C   0  0  0  0  0  0  0  0  0  0  0  0
   11.7069   14.6068  -23.9487 C   0  0  0  0  0  0  0  0  0  0  0  0
   11.5938   14.9934  -22.5621 C   0  0  0  0  0  0  0  0  0  0  0  0
   12.0328   13.6297  -27.9937 C   0  0  0  0  0  0  0  0  0  0  0  0
   12.3286   14.8985  -28.4454 C   0  0  0  0  0  0  0  0  0  0  0  0
   12.3649   15.7650  -27.4310 N   0  0  0  0  0  0  0  0  0  0  0  0
   12.6412   17.1792  -27.4791 C   0  0  0  0  0  0  0  0  0  0  0  0
   14.1091   17.4147  -27.2939 C   0  0  0  0  0  0  0  0  0  0  0  0
   14.9001   18.3676  -27.9319 C   0  0  0  0  0  0  0  0  0  0  0  0
   16.1867   18.2695  -27.4994 N   0  0  0  0  0  0  0  0  0  0  0  0
   16.1975   17.2699  -26.6052 C   0  0  0  0  0  0  0  0  0  0  0  0
   14.9611   16.7575  -26.4793 N   0  0  0  0  0  0  0  0  0  0  0  0
   17.3151   19.0859  -27.9267 C   0  0  0  0  0  0  0  0  0  0  0  0
  2  1  2  0
 15  1  1  0
  3  2  1  0
  2 13  1  0
  5  3  2  0
  4 14  2  0
 16  4  1  0
  4 17  1  0
  5 17  1  0
 18  5  1  0
  6  7  1  0
 18  6  1  6
 21  6  2  0
 22  7  2  0
  7 23  1  0
  9  8  2  0
  8 24  1  0
 22  9  1  0
 26 10  2  0
 27 10  1  0
 10 30  1  0
 11 27  2  0
 28 11  1  0
 12 26  1  0
 28 12  2  0
 17 15  2  0
 18 16  1  0
 19 21  1  1
 25 19  1  1
 21 20  1  0
 20 22  1  0
 23 24  2  0
 29 25  1  0
 26 32  1  0
 29 28  1  6
 30 31  2  0
 31 32  1  0
 33 32  1  1
 33 34  1  0
 34 35  2  0
 34 38  1  0
 35 36  1  0
 36 37  1  0
 39 36  1  1
 37 38  2  0
M  CHG  1  25   1
M  END
$$$$
