
     RDKit          3D

 39 45  0  0  0  0  0  0  0  0999 V2000
   17.6249   17.3750  -22.5357 C   0  0  0  0  0  0  0  0  0  0  0  0
   17.7057   17.3436  -21.1662 C   0  0  0  0  0  0  0  0  0  0  0  0
   17.2409   16.2263  -20.5124 C   0  0  0  0  0  0  0  0  0  0  0  0
   16.0020   13.9542  -23.0575 C   0  0  0  0  0  0  0  0  0  0  0  0
   16.7019   15.1458  -21.1686 C   0  0  0  0  0  0  0  0  0  0  0  0
   15.0968   13.9538  -19.6880 C   0  0  0  0  0  0  0  0  0  0  0  0
   15.3599   14.1223  -18.3379 C   0  0  0  0  0  0  0  0  0  0  0  0
   15.1844   14.4617  -15.5920 C   0  0  0  0  0  0  0  0  0  0  0  0
   14.0471   14.3621  -16.3591 C   0  0  0  0  0  0  0  0  0  0  0  0
    6.8609   13.8587  -21.9391 C   0  0  0  0  0  0  0  0  0  0  0  0
    8.7911   12.4777  -21.5265 C   0  0  0  0  0  0  0  0  0  0  0  0
    9.0283   14.4972  -22.6917 C   0  0  0  0  0  0  0  0  0  0  0  0
   18.2486   18.4239  -20.4466 O   0  0  0  0  0  0  0  0  0  0  0  0
   15.7991   13.7027  -24.2648 O   0  0  0  0  0  0  0  0  0  0  0  0
   17.0881   16.3051  -23.2199 C   0  0  0  0  0  0  0  0  0  0  0  0
   15.7116   13.1799  -21.9230 N   0  0  0  0  0  0  0  0  0  0  0  0
   16.6190   15.1803  -22.5706 C   0  0  0  0  0  0  0  0  0  0  0  0
   16.1661   13.8524  -20.7406 C   0  0  1  0  0  0  0  0  0  0  0  0
   13.0428   13.7610  -21.1879 C   0  0  0  0  0  0  0  0  0  0  0  0
   13.1548   14.0695  -18.6890 N   0  0  0  0  0  0  0  0  0  0  0  0
   13.7354   13.9238  -19.8828 C   0  0  0  0  0  0  0  0  0  0  0  0
   14.1002   14.1908  -17.7435 C   0  0  0  0  0  0  0  0  0  0  0  0
   16.5000   14.2233  -17.5593 C   0  0  0  0  0  0  0  0  0  0  0  0
   16.4209   14.3921  -16.1939 C   0  0  0  0  0  0  0  0  0  0  0  0
   11.8194   12.9967  -21.0906 N   0  0  0  0  0  4  0  0  0  0  0  0
    7.6822   14.7711  -22.5967 C   0  0  0  0  0  0  0  0  0  0  0  0
    7.4159   12.7173  -21.4072 C   0  0  0  0  0  0  0  0  0  0  0  0
    9.6291   13.3650  -22.1729 C   0  0  0  0  0  0  0  0  0  0  0  0
   11.0390   13.0636  -22.2524 C   0  0  0  0  0  0  0  0  0  0  0  0
    5.5825   14.3716  -21.9873 C   0  0  0  0  0  0  0  0  0  0  0  0
    5.6795   15.5667  -22.6681 C   0  0  0  0  0  0  0  0  0  0  0  0
    6.9417   15.8023  -23.0321 N   0  0  0  0  0  0  0  0  0  0  0  0
    7.4609   16.9337  -23.7597 C   0  0  0  0  0  0  0  0  0  0  0  0
    7.8468   18.0182  -22.8008 C   0  0  0  0  0  0  0  0  0  0  0  0
    9.1212   18.3053  -22.3167 C   0  0  0  0  0  0  0  0  0  0  0  0
    9.0672   19.3640  -21.4634 N   0  0  0  0  0  0  0  0  0  0  0  0
    7.7781   19.7313  -21.4162 C   0  0  0  0  0  0  0  0  0  0  0  0
    7.0468   18.9319  -22.2120 N   0  0  0  0  0  0  0  0  0  0  0  0
   10.1852   19.9675  -20.7504 C   0  0  0  0  0  0  0  0  0  0  0  0
  2  1  2  0
 15  1  1  0
  3  2  1  0
  2 13  1  0
  5  3  2  0
  4 14  2  0
 16  4  1  0
  4 17  1  0
  5 17  1  0
 18  5  1  0
  6  7  1  0
 18  6  1  1
 21  6  2  0
 22  7  2  0
  7 23  1  0
  9  8  2  0
  8 24  1  0
 22  9  1  0
 26 10  2  0
 27 10  1  0
 10 30  1  0
 11 27  2  0
 28 11  1  0
 12 26  1  0
 28 12  2  0
 17 15  2  0
 18 16  1  0
 19 21  1  1
 25 19  1  1
 21 20  1  0
 20 22  1  0
 23 24  2  0
 29 25  1  0
 26 32  1  0
 29 28  1  6
 30 31  2  0
 31 32  1  0
 33 32  1  1
 33 34  1  0
 34 35  2  0
 34 38  1  0
 35 36  1  0
 36 37  1  0
 39 36  1  1
 37 38  2  0
M  CHG  1  25   1
M  END
$$$$
