
     RDKit          3D

 39 45  0  0  0  0  0  0  0  0999 V2000
   16.5443   17.3597  -23.2655 C   0  0  0  0  0  0  0  0  0  0  0  0
   16.6485   17.6318  -21.9245 C   0  0  0  0  0  0  0  0  0  0  0  0
   16.6021   16.5784  -21.0412 C   0  0  0  0  0  0  0  0  0  0  0  0
   16.1825   13.5629  -23.0174 C   0  0  0  0  0  0  0  0  0  0  0  0
   16.4568   15.2720  -21.4422 C   0  0  0  0  0  0  0  0  0  0  0  0
   15.3751   13.9360  -19.6437 C   0  0  0  0  0  0  0  0  0  0  0  0
   15.6877   14.0026  -18.2953 C   0  0  0  0  0  0  0  0  0  0  0  0
   15.6149   14.0938  -15.5254 C   0  0  0  0  0  0  0  0  0  0  0  0
   14.4521   13.9950  -16.2534 C   0  0  0  0  0  0  0  0  0  0  0  0
    6.8898   13.0602  -21.9836 C   0  0  0  0  0  0  0  0  0  0  0  0
    8.7561   14.0803  -20.8525 C   0  0  0  0  0  0  0  0  0  0  0  0
    9.0795   13.0243  -22.9195 C   0  0  0  0  0  0  0  0  0  0  0  0
   16.7984   18.9521  -21.4617 O   0  0  0  0  0  0  0  0  0  0  0  0
   16.0624   13.0220  -24.1377 O   0  0  0  0  0  0  0  0  0  0  0  0
   16.3970   16.0582  -23.6959 C   0  0  0  0  0  0  0  0  0  0  0  0
   16.1889   12.9799  -21.7403 N   0  0  0  0  0  0  0  0  0  0  0  0
   16.3491   14.9955  -22.8153 C   0  0  0  0  0  0  0  0  0  0  0  0
   16.4011   13.9876  -20.7421 C   0  0  1  0  0  0  0  0  0  0  0  0
   13.2707   13.7546  -21.0736 C   0  0  0  0  0  0  0  0  0  0  0  0
   13.4755   13.8528  -18.5634 N   0  0  0  0  0  0  0  0  0  0  0  0
   14.0102   13.8442  -19.7872 C   0  0  0  0  0  0  0  0  0  0  0  0
   14.4535   13.9468  -17.6485 C   0  0  0  0  0  0  0  0  0  0  0  0
   16.8538   14.1020  -17.5559 C   0  0  0  0  0  0  0  0  0  0  0  0
   16.8257   14.1479  -16.1789 C   0  0  0  0  0  0  0  0  0  0  0  0
   11.8842   13.3800  -20.9072 N   0  0  0  0  0  4  0  0  0  0  0  0
    7.7484   12.6847  -23.0138 C   0  0  0  0  0  0  0  0  0  0  0  0
    7.3945   13.7551  -20.9083 C   0  0  0  0  0  0  0  0  0  0  0  0
    9.6301   13.7211  -21.8597 C   0  0  0  0  0  0  0  0  0  0  0  0
   11.0199   14.0960  -21.7459 C   0  0  0  0  0  0  0  0  0  0  0  0
    5.6359   12.6031  -22.3278 C   0  0  0  0  0  0  0  0  0  0  0  0
    5.7839   11.9727  -23.5452 C   0  0  0  0  0  0  0  0  0  0  0  0
    7.0535   12.0240  -23.9530 N   0  0  0  0  0  0  0  0  0  0  0  0
    7.6213   11.4838  -25.1631 C   0  0  0  0  0  0  0  0  0  0  0  0
    7.6986   12.5547  -26.2080 C   0  0  0  0  0  0  0  0  0  0  0  0
    7.6359   12.3940  -27.5904 C   0  0  0  0  0  0  0  0  0  0  0  0
    7.7435   13.6035  -28.2048 N   0  0  0  0  0  0  0  0  0  0  0  0
    7.8716   14.5048  -27.2198 C   0  0  0  0  0  0  0  0  0  0  0  0
    7.8452   13.8842  -26.0277 N   0  0  0  0  0  0  0  0  0  0  0  0
    7.7240   13.8579  -29.6391 C   0  0  0  0  0  0  0  0  0  0  0  0
  2  1  2  0
 15  1  1  0
  3  2  1  0
  2 13  1  0
  5  3  2  0
  4 14  2  0
 16  4  1  0
  4 17  1  0
  5 17  1  0
 18  5  1  0
  6  7  1  0
 18  6  1  1
 21  6  2  0
 22  7  2  0
  7 23  1  0
  9  8  2  0
  8 24  1  0
 22  9  1  0
 26 10  2  0
 27 10  1  0
 10 30  1  0
 11 27  2  0
 28 11  1  0
 12 26  1  0
 28 12  2  0
 17 15  2  0
 18 16  1  0
 19 21  1  1
 25 19  1  1
 21 20  1  0
 20 22  1  0
 23 24  2  0
 29 25  1  0
 26 32  1  0
 29 28  1  6
 30 31  2  0
 31 32  1  0
 33 32  1  1
 33 34  1  0
 34 35  2  0
 34 38  1  0
 35 36  1  0
 36 37  1  0
 39 36  1  1
 37 38  2  0
M  CHG  1  25   1
M  END
$$$$
