
     RDKit          3D

 39 45  0  0  0  0  0  0  0  0999 V2000
   10.8578   11.8350  -21.4908 C   0  0  0  0  0  0  0  0  0  0  0  0
   12.1362   11.4958  -21.1251 C   0  0  0  0  0  0  0  0  0  0  0  0
   12.7649   12.2615  -20.1709 C   0  0  0  0  0  0  0  0  0  0  0  0
   10.4349   14.8743  -19.2124 C   0  0  0  0  0  0  0  0  0  0  0  0
   12.1706   13.3460  -19.5714 C   0  0  0  0  0  0  0  0  0  0  0  0
   13.9006   14.9689  -18.8213 C   0  0  0  0  0  0  0  0  0  0  0  0
   15.0912   14.6157  -18.2066 C   0  0  0  0  0  0  0  0  0  0  0  0
   17.7329   14.4156  -17.3896 C   0  0  0  0  0  0  0  0  0  0  0  0
   17.3625   15.3363  -18.3419 C   0  0  0  0  0  0  0  0  0  0  0  0
    8.0643   14.2397  -23.8528 C   0  0  0  0  0  0  0  0  0  0  0  0
    8.8230   15.2169  -21.7858 C   0  0  0  0  0  0  0  0  0  0  0  0
   10.1906   15.2995  -23.6872 C   0  0  0  0  0  0  0  0  0  0  0  0
   12.7899   10.3950  -21.7087 O   0  0  0  0  0  0  0  0  0  0  0  0
    9.3137   15.4119  -19.3391 O   0  0  0  0  0  0  0  0  0  0  0  0
   10.2375   12.9186  -20.9062 C   0  0  0  0  0  0  0  0  0  0  0  0
   11.5107   15.2367  -18.3864 N   0  0  0  0  0  0  0  0  0  0  0  0
   10.8622   13.6923  -19.9480 C   0  0  0  0  0  0  0  0  0  0  0  0
   12.5844   14.2982  -18.5394 C   0  0  1  0  0  0  0  0  0  0  0  0
   13.1241   16.6445  -20.5807 C   0  0  0  0  0  0  0  0  0  0  0  0
   15.4436   16.2654  -19.6704 N   0  0  0  0  0  0  0  0  0  0  0  0
   14.1387   15.9849  -19.7176 C   0  0  0  0  0  0  0  0  0  0  0  0
   16.0416   15.4631  -18.7754 C   0  0  0  0  0  0  0  0  0  0  0  0
   15.4715   13.6916  -17.2486 C   0  0  0  0  0  0  0  0  0  0  0  0
   16.7825   13.5862  -16.8374 C   0  0  0  0  0  0  0  0  0  0  0  0
   12.1775   15.7157  -21.1565 N   0  0  0  0  0  4  0  0  0  0  0  0
    9.2603   14.6297  -24.4501 C   0  0  0  0  0  0  0  0  0  0  0  0
    7.8492   14.5334  -22.5256 C   0  0  0  0  0  0  0  0  0  0  0  0
   10.0177   15.6159  -22.3523 C   0  0  0  0  0  0  0  0  0  0  0  0
   10.9751   16.3259  -21.5373 C   0  0  0  0  0  0  0  0  0  0  0  0
    7.3265   13.6005  -24.8259 C   0  0  0  0  0  0  0  0  0  0  0  0
    8.1002   13.6285  -25.9669 C   0  0  0  0  0  0  0  0  0  0  0  0
    9.2601   14.2471  -25.7366 N   0  0  0  0  0  0  0  0  0  0  0  0
   10.3417   14.4815  -26.6607 C   0  0  0  0  0  0  0  0  0  0  0  0
   10.3912   15.9342  -27.0239 C   0  0  0  0  0  0  0  0  0  0  0  0
   11.4988   16.7784  -26.9859 C   0  0  0  0  0  0  0  0  0  0  0  0
   11.1446   18.0291  -27.3887 N   0  0  0  0  0  0  0  0  0  0  0  0
    9.8355   17.9654  -27.6733 C   0  0  0  0  0  0  0  0  0  0  0  0
    9.3821   16.7184  -27.4575 N   0  0  0  0  0  0  0  0  0  0  0  0
   12.0151   19.1931  -27.4863 C   0  0  0  0  0  0  0  0  0  0  0  0
  2  1  2  0
 15  1  1  0
  3  2  1  0
  2 13  1  0
  5  3  2  0
  4 14  2  0
 16  4  1  0
  4 17  1  0
  5 17  1  0
 18  5  1  0
  6  7  1  0
 18  6  1  6
 21  6  2  0
 22  7  2  0
  7 23  1  0
  9  8  2  0
  8 24  1  0
 22  9  1  0
 26 10  2  0
 27 10  1  0
 10 30  1  0
 11 27  2  0
 28 11  1  0
 12 26  1  0
 28 12  2  0
 17 15  2  0
 18 16  1  0
 19 21  1  1
 25 19  1  1
 21 20  1  0
 20 22  1  0
 23 24  2  0
 29 25  1  0
 26 32  1  0
 29 28  1  6
 30 31  2  0
 31 32  1  0
 33 32  1  1
 33 34  1  0
 34 35  2  0
 34 38  1  0
 35 36  1  0
 36 37  1  0
 39 36  1  1
 37 38  2  0
M  CHG  1  25   1
M  END
$$$$
