
     RDKit          3D

 39 45  0  0  0  0  0  0  0  0999 V2000
   16.4636   15.0498  -19.3571 C   0  0  0  0  0  0  0  0  0  0  0  0
   16.1680   16.3389  -19.7302 C   0  0  0  0  0  0  0  0  0  0  0  0
   14.9045   16.8593  -19.6829 C   0  0  0  0  0  0  0  0  0  0  0  0
   12.8651   14.1236  -18.4304 C   0  0  0  0  0  0  0  0  0  0  0  0
   13.8598   16.0634  -19.2406 C   0  0  0  0  0  0  0  0  0  0  0  0
   11.7942   16.7438  -20.3523 C   0  0  0  0  0  0  0  0  0  0  0  0
   11.1863   18.0239  -20.4577 C   0  0  0  0  0  0  0  0  0  0  0  0
    9.9242   20.2833  -21.2727 C   0  0  0  0  0  0  0  0  0  0  0  0
   10.1126   19.2716  -22.1707 C   0  0  0  0  0  0  0  0  0  0  0  0
   10.9462    9.2935  -23.8505 C   0  0  0  0  0  0  0  0  0  0  0  0
   12.4199   10.5286  -22.4670 C   0  0  0  0  0  0  0  0  0  0  0  0
   10.1504   11.2209  -22.6677 C   0  0  0  0  0  0  0  0  0  0  0  0
   17.2658   17.1057  -20.1721 O   0  0  0  0  0  0  0  0  0  0  0  0
   12.7436   12.9225  -18.0145 O   0  0  0  0  0  0  0  0  0  0  0  0
   15.4148   14.2737  -18.9208 C   0  0  0  0  0  0  0  0  0  0  0  0
   11.8575   15.1156  -18.5820 N   0  0  0  0  0  0  0  0  0  0  0  0
   14.1047   14.7765  -18.8598 C   0  0  0  0  0  0  0  0  0  0  0  0
   12.3982   16.3299  -19.0757 C   0  0  1  0  0  0  0  0  0  0  0  0
   12.1968   14.7691  -21.9442 C   0  0  0  0  0  0  0  0  0  0  0  0
   11.0737   16.9728  -22.4210 N   0  0  0  0  0  0  0  0  0  0  0  0
   11.7138   16.1167  -21.5668 C   0  0  0  0  0  0  0  0  0  0  0  0
   10.7616   18.1009  -21.7649 C   0  0  0  0  0  0  0  0  0  0  0  0
   10.9918   19.0490  -19.5599 C   0  0  0  0  0  0  0  0  0  0  0  0
   10.3573   20.2019  -19.9443 C   0  0  0  0  0  0  0  0  0  0  0  0
   11.1697   13.7470  -21.8876 N   0  0  0  0  0  4  0  0  0  0  0  0
    9.9306   10.1648  -23.5223 C   0  0  0  0  0  0  0  0  0  0  0  0
   12.2292    9.4685  -23.3159 C   0  0  0  0  0  0  0  0  0  0  0  0
   11.3943   11.3985  -22.1435 C   0  0  0  0  0  0  0  0  0  0  0  0
   11.6510   12.5499  -21.2067 C   0  0  0  0  0  0  0  0  0  0  0  0
   10.4181    8.3642  -24.7089 C   0  0  0  0  0  0  0  0  0  0  0  0
    9.0968    8.6987  -24.8766 C   0  0  0  0  0  0  0  0  0  0  0  0
    8.8034    9.7945  -24.1534 N   0  0  0  0  0  0  0  0  0  0  0  0
    7.4937   10.4510  -24.0716 C   0  0  0  0  0  0  0  0  0  0  0  0
    7.5097   11.5854  -25.0346 C   0  0  0  0  0  0  0  0  0  0  0  0
    6.4784   12.1877  -25.7209 C   0  0  0  0  0  0  0  0  0  0  0  0
    6.9351   13.1937  -26.4988 N   0  0  0  0  0  0  0  0  0  0  0  0
    8.2688   13.2231  -26.2985 C   0  0  0  0  0  0  0  0  0  0  0  0
    8.6168   12.2640  -25.4241 N   0  0  0  0  0  0  0  0  0  0  0  0
    6.1802   14.0763  -27.3768 C   0  0  0  0  0  0  0  0  0  0  0  0
  2  1  2  0
 15  1  1  0
  3  2  1  0
  2 13  1  0
  5  3  2  0
  4 14  2  0
 16  4  1  0
  4 17  1  0
  5 17  1  0
 18  5  1  0
  6  7  1  0
 18  6  1  6
 21  6  2  0
 22  7  2  0
  7 23  1  0
  9  8  2  0
  8 24  1  0
 22  9  1  0
 26 10  2  0
 27 10  1  0
 10 30  1  0
 11 27  2  0
 28 11  1  0
 12 26  1  0
 28 12  2  0
 17 15  2  0
 18 16  1  0
 19 21  1  0
 25 19  1  0
 21 20  1  0
 20 22  1  0
 23 24  2  0
 29 25  1  0
 26 32  1  0
 28 29  1  0
 30 31  2  0
 31 32  1  0
 32 33  1  0
 33 34  1  0
 34 35  2  0
 34 38  1  0
 35 36  1  0
 36 37  1  0
 36 39  1  0
 37 38  2  0
M  CHG  1  25   1
M  END
$$$$
