
     RDKit          3D

 39 45  0  0  0  0  0  0  0  0999 V2000
   15.2636   11.2640  -18.6518 C   0  0  0  0  0  0  0  0  0  0  0  0
   16.3652   11.9298  -19.1275 C   0  0  0  0  0  0  0  0  0  0  0  0
   16.4530   13.2844  -18.9055 C   0  0  0  0  0  0  0  0  0  0  0  0
   13.4638   14.2508  -17.0873 C   0  0  0  0  0  0  0  0  0  0  0  0
   15.4895   13.9958  -18.2314 C   0  0  0  0  0  0  0  0  0  0  0  0
   15.4888   16.3675  -18.9826 C   0  0  0  0  0  0  0  0  0  0  0  0
   16.6922   16.6270  -19.6188 C   0  0  0  0  0  0  0  0  0  0  0  0
   18.6990   17.5725  -21.2816 C   0  0  0  0  0  0  0  0  0  0  0  0
   17.4022   18.0052  -21.4334 C   0  0  0  0  0  0  0  0  0  0  0  0
    8.4982   13.4634  -21.9025 C   0  0  0  0  0  0  0  0  0  0  0  0
   10.1375   13.9753  -20.2132 C   0  0  0  0  0  0  0  0  0  0  0  0
    9.2277   15.6974  -21.5168 C   0  0  0  0  0  0  0  0  0  0  0  0
   17.3799   11.2483  -19.8244 O   0  0  0  0  0  0  0  0  0  0  0  0
   12.3790   13.9284  -16.5569 O   0  0  0  0  0  0  0  0  0  0  0  0
   14.2812   11.9528  -17.9725 C   0  0  0  0  0  0  0  0  0  0  0  0
   14.0691   15.5137  -17.1860 N   0  0  0  0  0  0  0  0  0  0  0  0
   14.3619   13.3126  -17.7463 C   0  0  0  0  0  0  0  0  0  0  0  0
   15.3393   15.3989  -17.8419 C   0  0  1  0  0  0  0  0  0  0  0  0
   13.0585   17.1131  -19.1920 C   0  0  0  0  0  0  0  0  0  0  0  0
   15.0535   17.8150  -20.5631 N   0  0  0  0  0  0  0  0  0  0  0  0
   14.4940   17.1078  -19.5780 C   0  0  0  0  0  0  0  0  0  0  0  0
   16.3685   17.5494  -20.6134 C   0  0  0  0  0  0  0  0  0  0  0  0
   17.9995   16.1961  -19.4721 C   0  0  0  0  0  0  0  0  0  0  0  0
   19.0024   16.6614  -20.2947 C   0  0  0  0  0  0  0  0  0  0  0  0
   12.1891   16.6049  -20.2296 N   0  0  0  0  0  4  0  0  0  0  0  0
    8.4344   14.8180  -22.2191 C   0  0  0  0  0  0  0  0  0  0  0  0
    9.3474   13.0465  -20.9031 C   0  0  0  0  0  0  0  0  0  0  0  0
   10.0943   15.3244  -20.5059 C   0  0  0  0  0  0  0  0  0  0  0  0
   10.9268   16.2306  -19.7505 C   0  0  0  0  0  0  0  0  0  0  0  0
    7.6156   12.8191  -22.7425 C   0  0  0  0  0  0  0  0  0  0  0  0
    7.0557   13.8030  -23.5298 C   0  0  0  0  0  0  0  0  0  0  0  0
    7.5503   15.0011  -23.2122 N   0  0  0  0  0  0  0  0  0  0  0  0
    7.2303   16.2790  -23.7984 C   0  0  0  0  0  0  0  0  0  0  0  0
    8.4170   16.8037  -24.5473 C   0  0  0  0  0  0  0  0  0  0  0  0
    9.0885   18.0055  -24.3335 C   0  0  0  0  0  0  0  0  0  0  0  0
   10.1157   18.1282  -25.2176 N   0  0  0  0  0  0  0  0  0  0  0  0
   10.0848   17.0193  -25.9715 C   0  0  0  0  0  0  0  0  0  0  0  0
    9.0739   16.2267  -25.5754 N   0  0  0  0  0  0  0  0  0  0  0  0
   11.0515   19.2402  -25.3185 C   0  0  0  0  0  0  0  0  0  0  0  0
  2  1  2  0
 15  1  1  0
  3  2  1  0
  2 13  1  0
  5  3  2  0
  4 14  2  0
 16  4  1  0
  4 17  1  0
  5 17  1  0
 18  5  1  0
  6  7  1  0
 18  6  1  6
 21  6  2  0
 22  7  2  0
  7 23  1  0
  9  8  2  0
  8 24  1  0
 22  9  1  0
 26 10  2  0
 27 10  1  0
 10 30  1  0
 11 27  2  0
 28 11  1  0
 12 26  1  0
 28 12  2  0
 17 15  2  0
 18 16  1  0
 19 21  1  1
 25 19  1  1
 21 20  1  0
 20 22  1  0
 23 24  2  0
 29 25  1  0
 26 32  1  0
 29 28  1  6
 30 31  2  0
 31 32  1  0
 33 32  1  1
 33 34  1  0
 34 35  2  0
 34 38  1  0
 35 36  1  0
 36 37  1  0
 39 36  1  1
 37 38  2  0
M  CHG  1  25   1
M  END
$$$$
