
     RDKit          3D

 39 45  0  0  0  0  0  0  0  0999 V2000
   16.3046   18.3828  -22.4015 C   0  0  0  0  0  0  0  0  0  0  0  0
   16.4498   18.3059  -21.0372 C   0  0  0  0  0  0  0  0  0  0  0  0
   16.4487   17.1231  -20.3513 C   0  0  0  0  0  0  0  0  0  0  0  0
   16.0011   14.6022  -22.9312 C   0  0  0  0  0  0  0  0  0  0  0  0
   16.2947   15.9353  -21.0485 C   0  0  0  0  0  0  0  0  0  0  0  0
   15.1688   14.2996  -19.6264 C   0  0  0  0  0  0  0  0  0  0  0  0
   15.4869   14.1188  -18.2534 C   0  0  0  0  0  0  0  0  0  0  0  0
   15.4494   13.7388  -15.5671 C   0  0  0  0  0  0  0  0  0  0  0  0
   14.2639   13.7899  -16.2434 C   0  0  0  0  0  0  0  0  0  0  0  0
    7.4152   12.1566  -22.5758 C   0  0  0  0  0  0  0  0  0  0  0  0
    8.6404   13.2002  -20.8378 C   0  0  0  0  0  0  0  0  0  0  0  0
    9.3184   13.5173  -23.0983 C   0  0  0  0  0  0  0  0  0  0  0  0
   16.6029   19.5421  -20.3763 O   0  0  0  0  0  0  0  0  0  0  0  0
   15.8448   14.2745  -24.1554 O   0  0  0  0  0  0  0  0  0  0  0  0
   16.1528   17.1944  -23.0778 C   0  0  0  0  0  0  0  0  0  0  0  0
   16.0725   13.7576  -21.7894 N   0  0  0  0  0  0  0  0  0  0  0  0
   16.1469   15.9618  -22.4044 C   0  0  0  0  0  0  0  0  0  0  0  0
   16.2515   14.5098  -20.6008 C   0  0  1  0  0  0  0  0  0  0  0  0
   13.0071   14.4021  -21.0093 C   0  0  0  0  0  0  0  0  0  0  0  0
   13.2743   14.0738  -18.5261 N   0  0  0  0  0  0  0  0  0  0  0  0
   13.8076   14.2684  -19.7711 C   0  0  0  0  0  0  0  0  0  0  0  0
   14.2676   13.9852  -17.6284 C   0  0  0  0  0  0  0  0  0  0  0  0
   16.6765   14.0660  -17.5631 C   0  0  0  0  0  0  0  0  0  0  0  0
   16.6873   13.8751  -16.2055 C   0  0  0  0  0  0  0  0  0  0  0  0
   11.7227   13.7318  -20.9457 N   0  0  0  0  0  4  0  0  0  0  0  0
    8.2737   12.7152  -23.4973 C   0  0  0  0  0  0  0  0  0  0  0  0
    7.5918   12.3972  -21.2071 C   0  0  0  0  0  0  0  0  0  0  0  0
    9.4976   13.7566  -21.7701 C   0  0  0  0  0  0  0  0  0  0  0  0
   10.6366   14.6322  -21.3174 C   0  0  0  0  0  0  0  0  0  0  0  0
    6.4949   11.4209  -23.2768 C   0  0  0  0  0  0  0  0  0  0  0  0
    6.8219   11.5548  -24.6039 C   0  0  0  0  0  0  0  0  0  0  0  0
    7.9043   12.3428  -24.7346 N   0  0  0  0  0  0  0  0  0  0  0  0
    8.5495   12.7227  -25.9965 C   0  0  0  0  0  0  0  0  0  0  0  0
    8.1771   14.1370  -26.2722 C   0  0  0  0  0  0  0  0  0  0  0  0
    8.9180   15.2928  -26.1598 C   0  0  0  0  0  0  0  0  0  0  0  0
    8.1889   16.3733  -26.5153 N   0  0  0  0  0  0  0  0  0  0  0  0
    6.9760   15.8901  -26.8549 C   0  0  0  0  0  0  0  0  0  0  0  0
    6.9643   14.5541  -26.7114 N   0  0  0  0  0  0  0  0  0  0  0  0
    8.5918   17.7722  -26.5391 C   0  0  0  0  0  0  0  0  0  0  0  0
  2  1  2  0
 15  1  1  0
  3  2  1  0
  2 13  1  0
  5  3  2  0
  4 14  2  0
 16  4  1  0
  4 17  1  0
  5 17  1  0
 18  5  1  0
  6  7  1  0
 18  6  1  1
 21  6  2  0
 22  7  2  0
  7 23  1  0
  9  8  2  0
  8 24  1  0
 22  9  1  0
 26 10  2  0
 27 10  1  0
 10 30  1  0
 11 27  2  0
 28 11  1  0
 12 26  1  0
 28 12  2  0
 17 15  2  0
 18 16  1  0
 19 21  1  0
 25 19  1  0
 21 20  1  0
 20 22  1  0
 23 24  2  0
 29 25  1  0
 26 32  1  0
 28 29  1  0
 30 31  2  0
 31 32  1  0
 32 33  1  0
 33 34  1  0
 34 35  2  0
 34 38  1  0
 35 36  1  0
 36 37  1  0
 36 39  1  0
 37 38  2  0
M  CHG  1  25   1
M  END
$$$$
