
     RDKit          3D

 39 45  0  0  0  0  0  0  0  0999 V2000
   17.7992   14.3831  -23.7981 C   0  0  0  0  0  0  0  0  0  0  0  0
   18.2377   14.8242  -22.5748 C   0  0  0  0  0  0  0  0  0  0  0  0
   17.5951   14.3648  -21.4488 C   0  0  0  0  0  0  0  0  0  0  0  0
   14.9569   12.1401  -22.5739 C   0  0  0  0  0  0  0  0  0  0  0  0
   16.5381   13.4877  -21.4962 C   0  0  0  0  0  0  0  0  0  0  0  0
   15.0838   13.7853  -19.4998 C   0  0  0  0  0  0  0  0  0  0  0  0
   15.5595   13.9793  -18.2128 C   0  0  0  0  0  0  0  0  0  0  0  0
   15.9823   14.8299  -15.6082 C   0  0  0  0  0  0  0  0  0  0  0  0
   14.9550   15.3540  -16.3578 C   0  0  0  0  0  0  0  0  0  0  0  0
    6.8093   13.8477  -21.0364 C   0  0  0  0  0  0  0  0  0  0  0  0
    9.1069   13.1939  -20.7256 C   0  0  0  0  0  0  0  0  0  0  0  0
    8.5916   15.0479  -22.0634 C   0  0  0  0  0  0  0  0  0  0  0  0
   19.3156   15.7226  -22.4713 O   0  0  0  0  0  0  0  0  0  0  0  0
   14.3508   11.5836  -23.5147 O   0  0  0  0  0  0  0  0  0  0  0  0
   16.7403   13.5035  -23.8753 C   0  0  0  0  0  0  0  0  0  0  0  0
   14.7280   12.0577  -21.1912 N   0  0  0  0  0  0  0  0  0  0  0  0
   16.0898   13.0383  -22.7495 C   0  0  0  0  0  0  0  0  0  0  0  0
   15.7054   12.8342  -20.4850 C   0  0  1  0  0  0  0  0  0  0  0  0
   13.2060   14.7020  -20.9625 C   0  0  0  0  0  0  0  0  0  0  0  0
   13.7980   15.3004  -18.5868 N   0  0  0  0  0  0  0  0  0  0  0  0
   14.0006   14.6067  -19.7098 C   0  0  0  0  0  0  0  0  0  0  0  0
   14.7147   14.9479  -17.6715 C   0  0  0  0  0  0  0  0  0  0  0  0
   16.5913   13.4565  -17.4523 C   0  0  0  0  0  0  0  0  0  0  0  0
   16.8078   13.8742  -16.1571 C   0  0  0  0  0  0  0  0  0  0  0  0
   11.7958   14.9163  -20.7260 N   0  0  0  0  0  4  0  0  0  0  0  0
    7.2404   14.8948  -21.8470 C   0  0  0  0  0  0  0  0  0  0  0  0
    7.7411   13.0020  -20.4793 C   0  0  0  0  0  0  0  0  0  0  0  0
    9.5627   14.2239  -21.5249 C   0  0  0  0  0  0  0  0  0  0  0  0
   10.9841   14.3726  -21.7304 C   0  0  0  0  0  0  0  0  0  0  0  0
    5.4341   13.9258  -20.9879 C   0  0  0  0  0  0  0  0  0  0  0  0
    5.0889   15.0104  -21.7664 C   0  0  0  0  0  0  0  0  0  0  0  0
    6.1763   15.5888  -22.2801 N   0  0  0  0  0  0  0  0  0  0  0  0
    6.2465   16.7403  -23.1449 C   0  0  0  0  0  0  0  0  0  0  0  0
    6.6337   16.3121  -24.5275 C   0  0  0  0  0  0  0  0  0  0  0  0
    7.7965   16.6414  -25.2205 C   0  0  0  0  0  0  0  0  0  0  0  0
    7.7845   16.0616  -26.4516 N   0  0  0  0  0  0  0  0  0  0  0  0
    6.6310   15.3811  -26.5248 C   0  0  0  0  0  0  0  0  0  0  0  0
    5.9417   15.5274  -25.3800 N   0  0  0  0  0  0  0  0  0  0  0  0
    8.8165   16.1652  -27.4746 C   0  0  0  0  0  0  0  0  0  0  0  0
  2  1  2  0
 15  1  1  0
  3  2  1  0
  2 13  1  0
  5  3  2  0
  4 14  2  0
 16  4  1  0
  4 17  1  0
  5 17  1  0
 18  5  1  0
  6  7  1  0
 18  6  1  6
 21  6  2  0
 22  7  2  0
  7 23  1  0
  9  8  2  0
  8 24  1  0
 22  9  1  0
 26 10  2  0
 27 10  1  0
 10 30  1  0
 11 27  2  0
 28 11  1  0
 12 26  1  0
 28 12  2  0
 17 15  2  0
 18 16  1  0
 19 21  1  1
 25 19  1  1
 21 20  1  0
 20 22  1  0
 23 24  2  0
 29 25  1  0
 26 32  1  0
 29 28  1  6
 30 31  2  0
 31 32  1  0
 33 32  1  1
 33 34  1  0
 34 35  2  0
 34 38  1  0
 35 36  1  0
 36 37  1  0
 39 36  1  1
 37 38  2  0
M  CHG  1  25   1
M  END
$$$$
