
     RDKit          3D

 39 45  0  0  0  0  0  0  0  0999 V2000
   18.5652   13.7484  -18.3364 C   0  0  0  0  0  0  0  0  0  0  0  0
   17.7383   13.1109  -19.2297 C   0  0  0  0  0  0  0  0  0  0  0  0
   16.6792   13.7259  -19.8377 C   0  0  0  0  0  0  0  0  0  0  0  0
   16.7434   17.1121  -18.5180 C   0  0  0  0  0  0  0  0  0  0  0  0
   16.4117   15.0552  -19.5512 C   0  0  0  0  0  0  0  0  0  0  0  0
   14.0112   15.4606  -19.7482 C   0  0  0  0  0  0  0  0  0  0  0  0
   13.8065   14.6702  -18.5852 C   0  0  0  0  0  0  0  0  0  0  0  0
   12.8013   13.1526  -16.5731 C   0  0  0  0  0  0  0  0  0  0  0  0
   11.9586   13.5895  -17.5551 C   0  0  0  0  0  0  0  0  0  0  0  0
   10.7017   22.1316  -21.5558 C   0  0  0  0  0  0  0  0  0  0  0  0
   10.2145   19.8247  -21.3280 C   0  0  0  0  0  0  0  0  0  0  0  0
   11.8076   20.5274  -22.9523 C   0  0  0  0  0  0  0  0  0  0  0  0
   18.0539   11.7606  -19.4860 O   0  0  0  0  0  0  0  0  0  0  0  0
   17.2621   18.0086  -17.7713 O   0  0  0  0  0  0  0  0  0  0  0  0
   18.2851   15.0675  -18.0635 C   0  0  0  0  0  0  0  0  0  0  0  0
   15.6130   17.2166  -19.3744 N   0  0  0  0  0  0  0  0  0  0  0  0
   17.2052   15.7297  -18.6701 C   0  0  0  0  0  0  0  0  0  0  0  0
   15.3529   15.9911  -20.0385 C   0  0  1  0  0  0  0  0  0  0  0  0
   12.5298   16.3313  -21.6569 C   0  0  0  0  0  0  0  0  0  0  0  0
   11.8762   14.9251  -19.6718 N   0  0  0  0  0  0  0  0  0  0  0  0
   12.8153   15.6040  -20.3993 C   0  0  0  0  0  0  0  0  0  0  0  0
   12.4625   14.3726  -18.5988 C   0  0  0  0  0  0  0  0  0  0  0  0
   14.6480   14.2253  -17.5909 C   0  0  0  0  0  0  0  0  0  0  0  0
   14.1673   13.4571  -16.5622 C   0  0  0  0  0  0  0  0  0  0  0  0
   11.4875   17.3310  -21.5258 N   0  0  0  0  0  4  0  0  0  0  0  0
   11.5972   21.8290  -22.5582 C   0  0  0  0  0  0  0  0  0  0  0  0
    9.9849   21.1123  -20.9156 C   0  0  0  0  0  0  0  0  0  0  0  0
   11.1154   19.5304  -22.3356 C   0  0  0  0  0  0  0  0  0  0  0  0
   11.3343   18.1005  -22.7558 C   0  0  0  0  0  0  0  0  0  0  0  0
   10.7178   23.4934  -21.3988 C   0  0  0  0  0  0  0  0  0  0  0  0
   11.6230   23.9778  -22.3108 C   0  0  0  0  0  0  0  0  0  0  0  0
   12.1563   22.9628  -23.0145 N   0  0  0  0  0  0  0  0  0  0  0  0
   13.1630   23.0816  -24.0753 C   0  0  0  0  0  0  0  0  0  0  0  0
   14.4943   23.1434  -23.4130 C   0  0  0  0  0  0  0  0  0  0  0  0
   15.5037   22.2083  -23.3501 C   0  0  0  0  0  0  0  0  0  0  0  0
   16.5549   22.6755  -22.6414 N   0  0  0  0  0  0  0  0  0  0  0  0
   16.2011   23.9186  -22.2548 C   0  0  0  0  0  0  0  0  0  0  0  0
   14.9705   24.2026  -22.7137 N   0  0  0  0  0  0  0  0  0  0  0  0
   17.8139   22.0095  -22.3395 C   0  0  0  0  0  0  0  0  0  0  0  0
  2  1  2  0
 15  1  1  0
  3  2  1  0
  2 13  1  0
  5  3  2  0
  4 14  2  0
 16  4  1  0
  4 17  1  0
  5 17  1  0
 18  5  1  0
  6  7  1  0
 18  6  1  1
 21  6  2  0
 22  7  2  0
  7 23  1  0
  9  8  2  0
  8 24  1  0
 22  9  1  0
 26 10  2  0
 27 10  1  0
 10 30  1  0
 11 27  2  0
 28 11  1  0
 12 26  1  0
 28 12  2  0
 17 15  2  0
 18 16  1  0
 19 21  1  0
 25 19  1  0
 21 20  1  0
 20 22  1  0
 23 24  2  0
 29 25  1  0
 26 32  1  0
 28 29  1  0
 30 31  2  0
 31 32  1  0
 32 33  1  0
 33 34  1  0
 34 35  2  0
 34 38  1  0
 35 36  1  0
 36 37  1  0
 36 39  1  0
 37 38  2  0
M  CHG  1  25   1
M  END
$$$$
