
     RDKit          3D

 39 45  0  0  0  0  0  0  0  0999 V2000
   17.4831   10.2933  -21.3241 C   0  0  0  0  0  0  0  0  0  0  0  0
   16.2372   10.7386  -21.6952 C   0  0  0  0  0  0  0  0  0  0  0  0
   15.8663   12.0534  -21.6388 C   0  0  0  0  0  0  0  0  0  0  0  0
   18.8178   13.7538  -20.3704 C   0  0  0  0  0  0  0  0  0  0  0  0
   16.7770   12.9959  -21.1883 C   0  0  0  0  0  0  0  0  0  0  0  0
   15.5800   14.8258  -20.1002 C   0  0  0  0  0  0  0  0  0  0  0  0
   15.5497   14.2689  -18.7932 C   0  0  0  0  0  0  0  0  0  0  0  0
   14.9553   13.5660  -16.2409 C   0  0  0  0  0  0  0  0  0  0  0  0
   14.1374   14.4456  -16.8912 C   0  0  0  0  0  0  0  0  0  0  0  0
   18.6523   20.5945  -21.1581 C   0  0  0  0  0  0  0  0  0  0  0  0
   17.2887   18.6858  -20.8285 C   0  0  0  0  0  0  0  0  0  0  0  0
   17.0849   19.9328  -22.8468 C   0  0  0  0  0  0  0  0  0  0  0  0
   15.3493    9.7400  -22.1457 O   0  0  0  0  0  0  0  0  0  0  0  0
   20.0243   13.7325  -19.9529 O   0  0  0  0  0  0  0  0  0  0  0  0
   18.3746   11.2421  -20.8793 C   0  0  0  0  0  0  0  0  0  0  0  0
   17.9495   14.8704  -20.5158 N   0  0  0  0  0  0  0  0  0  0  0  0
   18.0264   12.6010  -20.8086 C   0  0  0  0  0  0  0  0  0  0  0  0
   16.6809   14.4772  -21.0125 C   0  0  1  0  0  0  0  0  0  0  0  0
   14.1130   16.4611  -21.4304 C   0  0  0  0  0  0  0  0  0  0  0  0
   13.8149   15.6428  -19.0668 N   0  0  0  0  0  0  0  0  0  0  0  0
   14.5077   15.6646  -20.2465 C   0  0  0  0  0  0  0  0  0  0  0  0
   14.4312   14.8171  -18.2073 C   0  0  0  0  0  0  0  0  0  0  0  0
   16.3681   13.3831  -18.1296 C   0  0  0  0  0  0  0  0  0  0  0  0
   16.0918   13.0105  -16.8396 C   0  0  0  0  0  0  0  0  0  0  0  0
   14.6868   17.7927  -21.4522 N   0  0  0  0  0  4  0  0  0  0  0  0
   18.0625   20.7859  -22.3884 C   0  0  0  0  0  0  0  0  0  0  0  0
   18.2646   19.5202  -20.3468 C   0  0  0  0  0  0  0  0  0  0  0  0
   16.7018   18.8861  -22.0651 C   0  0  0  0  0  0  0  0  0  0  0  0
   15.6328   17.9435  -22.5526 C   0  0  0  0  0  0  0  0  0  0  0  0
   19.5732   21.5964  -20.9924 C   0  0  0  0  0  0  0  0  0  0  0  0
   19.5155   22.3671  -22.1276 C   0  0  0  0  0  0  0  0  0  0  0  0
   18.5956   21.8714  -22.9748 N   0  0  0  0  0  0  0  0  0  0  0  0
   18.2504   22.4177  -24.2922 C   0  0  0  0  0  0  0  0  0  0  0  0
   17.1352   23.3820  -24.0898 C   0  0  0  0  0  0  0  0  0  0  0  0
   15.8009   23.2845  -24.4178 C   0  0  0  0  0  0  0  0  0  0  0  0
   15.1285   24.3979  -24.0520 N   0  0  0  0  0  0  0  0  0  0  0  0
   16.0515   25.2037  -23.4876 C   0  0  0  0  0  0  0  0  0  0  0  0
   17.2522   24.6007  -23.5078 N   0  0  0  0  0  0  0  0  0  0  0  0
   13.7132   24.6982  -24.2156 C   0  0  0  0  0  0  0  0  0  0  0  0
  2  1  2  0
 15  1  1  0
  3  2  1  0
  2 13  1  0
  5  3  2  0
  4 14  2  0
 16  4  1  0
  4 17  1  0
  5 17  1  0
 18  5  1  0
  6  7  1  0
 18  6  1  1
 21  6  2  0
 22  7  2  0
  7 23  1  0
  9  8  2  0
  8 24  1  0
 22  9  1  0
 26 10  2  0
 27 10  1  0
 10 30  1  0
 11 27  2  0
 28 11  1  0
 12 26  1  0
 28 12  2  0
 17 15  2  0
 18 16  1  0
 19 21  1  0
 25 19  1  0
 21 20  1  0
 20 22  1  0
 23 24  2  0
 29 25  1  0
 26 32  1  0
 28 29  1  0
 30 31  2  0
 31 32  1  0
 32 33  1  0
 33 34  1  0
 34 35  2  0
 34 38  1  0
 35 36  1  0
 36 37  1  0
 36 39  1  0
 37 38  2  0
M  CHG  1  25   1
M  END
$$$$
