
     RDKit          3D

 39 45  0  0  0  0  0  0  0  0999 V2000
   17.8376   16.8135  -23.0019 C   0  0  0  0  0  0  0  0  0  0  0  0
   17.8937   17.0568  -21.6525 C   0  0  0  0  0  0  0  0  0  0  0  0
   17.4348   16.0832  -20.7961 C   0  0  0  0  0  0  0  0  0  0  0  0
   16.2792   13.3267  -22.8556 C   0  0  0  0  0  0  0  0  0  0  0  0
   16.9252   14.8835  -21.2318 C   0  0  0  0  0  0  0  0  0  0  0  0
   15.3123   13.9793  -19.5673 C   0  0  0  0  0  0  0  0  0  0  0  0
   15.5287   14.1040  -18.2043 C   0  0  0  0  0  0  0  0  0  0  0  0
   15.2693   14.4773  -15.4694 C   0  0  0  0  0  0  0  0  0  0  0  0
   14.1742   14.5736  -16.2961 C   0  0  0  0  0  0  0  0  0  0  0  0
    7.0962   13.0258  -21.5483 C   0  0  0  0  0  0  0  0  0  0  0  0
    9.4445   12.6627  -21.1524 C   0  0  0  0  0  0  0  0  0  0  0  0
    8.7560   14.3589  -22.6158 C   0  0  0  0  0  0  0  0  0  0  0  0
   18.4061   18.2689  -21.1546 O   0  0  0  0  0  0  0  0  0  0  0  0
   16.1025   12.8362  -23.9915 O   0  0  0  0  0  0  0  0  0  0  0  0
   17.3305   15.6188  -23.4670 C   0  0  0  0  0  0  0  0  0  0  0  0
   15.9803   12.7882  -21.5939 N   0  0  0  0  0  0  0  0  0  0  0  0
   16.8675   14.6368  -22.6136 C   0  0  0  0  0  0  0  0  0  0  0  0
   16.4023   13.6911  -20.5627 C   0  0  1  0  0  0  0  0  0  0  0  0
   13.3384   14.1401  -21.1747 C   0  0  0  0  0  0  0  0  0  0  0  0
   13.3695   14.4324  -18.6715 N   0  0  0  0  0  0  0  0  0  0  0  0
   13.9786   14.1846  -19.8339 C   0  0  0  0  0  0  0  0  0  0  0  0
   14.2701   14.3913  -17.6767 C   0  0  0  0  0  0  0  0  0  0  0  0
   16.6262   14.0086  -17.3660 C   0  0  0  0  0  0  0  0  0  0  0  0
   16.5052   14.1929  -16.0057 C   0  0  0  0  0  0  0  0  0  0  0  0
   11.9528   14.5526  -21.1569 N   0  0  0  0  0  4  0  0  0  0  0  0
    7.4259   14.0639  -22.4159 C   0  0  0  0  0  0  0  0  0  0  0  0
    8.1036   12.3295  -20.9205 C   0  0  0  0  0  0  0  0  0  0  0  0
    9.8004   13.6874  -22.0072 C   0  0  0  0  0  0  0  0  0  0  0  0
   11.2004   13.9868  -22.1947 C   0  0  0  0  0  0  0  0  0  0  0  0
    5.7202   12.9470  -21.5312 C   0  0  0  0  0  0  0  0  0  0  0  0
    5.2739   13.9344  -22.3840 C   0  0  0  0  0  0  0  0  0  0  0  0
    6.3013   14.6022  -22.9128 N   0  0  0  0  0  0  0  0  0  0  0  0
    6.2621   15.6987  -23.8481 C   0  0  0  0  0  0  0  0  0  0  0  0
    5.7212   16.9215  -23.1721 C   0  0  0  0  0  0  0  0  0  0  0  0
    5.8892   18.2482  -23.5625 C   0  0  0  0  0  0  0  0  0  0  0  0
    5.2476   19.0742  -22.6919 N   0  0  0  0  0  0  0  0  0  0  0  0
    4.6880   18.2741  -21.7723 C   0  0  0  0  0  0  0  0  0  0  0  0
    4.9675   16.9899  -22.0546 N   0  0  0  0  0  0  0  0  0  0  0  0
    5.1872   20.5285  -22.7530 C   0  0  0  0  0  0  0  0  0  0  0  0
  2  1  2  0
 15  1  1  0
  3  2  1  0
  2 13  1  0
  5  3  2  0
  4 14  2  0
 16  4  1  0
  4 17  1  0
  5 17  1  0
 18  5  1  0
  6  7  1  0
 18  6  1  1
 21  6  2  0
 22  7  2  0
  7 23  1  0
  9  8  2  0
  8 24  1  0
 22  9  1  0
 26 10  2  0
 27 10  1  0
 10 30  1  0
 11 27  2  0
 28 11  1  0
 12 26  1  0
 28 12  2  0
 17 15  2  0
 18 16  1  0
 19 21  1  1
 25 19  1  1
 21 20  1  0
 20 22  1  0
 23 24  2  0
 29 25  1  0
 26 32  1  0
 29 28  1  6
 30 31  2  0
 31 32  1  0
 33 32  1  1
 33 34  1  0
 34 35  2  0
 34 38  1  0
 35 36  1  0
 36 37  1  0
 39 36  1  1
 37 38  2  0
M  CHG  1  25   1
M  END
$$$$
