
     RDKit          3D

 39 45  0  0  0  0  0  0  0  0999 V2000
   17.2280   18.3425  -21.0667 C   0  0  0  0  0  0  0  0  0  0  0  0
   17.3710   17.7673  -19.8269 C   0  0  0  0  0  0  0  0  0  0  0  0
   16.9505   16.4986  -19.5389 C   0  0  0  0  0  0  0  0  0  0  0  0
   15.5319   15.3036  -22.6648 C   0  0  0  0  0  0  0  0  0  0  0  0
   16.3489   15.7420  -20.5321 C   0  0  0  0  0  0  0  0  0  0  0  0
   14.7360   14.2114  -19.5216 C   0  0  0  0  0  0  0  0  0  0  0  0
   15.0890   14.1341  -18.1473 C   0  0  0  0  0  0  0  0  0  0  0  0
   15.1204   13.9534  -15.4402 C   0  0  0  0  0  0  0  0  0  0  0  0
   13.9182   13.9484  -16.0885 C   0  0  0  0  0  0  0  0  0  0  0  0
   10.4547   19.4817  -23.1785 C   0  0  0  0  0  0  0  0  0  0  0  0
   11.9793   17.7511  -23.7188 C   0  0  0  0  0  0  0  0  0  0  0  0
   10.1892   17.3033  -22.2138 C   0  0  0  0  0  0  0  0  0  0  0  0
   17.9888   18.5788  -18.8531 O   0  0  0  0  0  0  0  0  0  0  0  0
   15.2324   15.4801  -23.8934 O   0  0  0  0  0  0  0  0  0  0  0  0
   16.6287   17.5776  -22.0406 C   0  0  0  0  0  0  0  0  0  0  0  0
   15.3162   14.1540  -21.8559 N   0  0  0  0  0  0  0  0  0  0  0  0
   16.1850   16.2710  -21.7788 C   0  0  0  0  0  0  0  0  0  0  0  0
   15.7929   14.3545  -20.5356 C   0  0  1  0  0  0  0  0  0  0  0  0
   12.5402   14.2005  -20.8536 C   0  0  0  0  0  0  0  0  0  0  0  0
   12.8708   14.0578  -18.3605 N   0  0  0  0  0  0  0  0  0  0  0  0
   13.3719   14.1626  -19.6293 C   0  0  0  0  0  0  0  0  0  0  0  0
   13.8864   14.0408  -17.4839 C   0  0  0  0  0  0  0  0  0  0  0  0
   16.2957   14.1385  -17.4850 C   0  0  0  0  0  0  0  0  0  0  0  0
   16.3412   14.0485  -16.1178 C   0  0  0  0  0  0  0  0  0  0  0  0
   12.6595   15.4388  -21.5987 N   0  0  0  0  0  4  0  0  0  0  0  0
    9.7743   18.6073  -22.3596 C   0  0  0  0  0  0  0  0  0  0  0  0
   11.5885   19.0555  -23.8824 C   0  0  0  0  0  0  0  0  0  0  0  0
   11.2901   16.8804  -22.8940 C   0  0  0  0  0  0  0  0  0  0  0  0
   11.7571   15.4560  -22.7448 C   0  0  0  0  0  0  0  0  0  0  0  0
    9.8039   20.6864  -23.1109 C   0  0  0  0  0  0  0  0  0  0  0  0
    8.7469   20.5078  -22.2525 C   0  0  0  0  0  0  0  0  0  0  0  0
    8.7317   19.2420  -21.7972 N   0  0  0  0  0  0  0  0  0  0  0  0
    7.7526   18.6701  -20.8658 C   0  0  0  0  0  0  0  0  0  0  0  0
    7.0890   17.5373  -21.5666 C   0  0  0  0  0  0  0  0  0  0  0  0
    7.0704   16.1924  -21.2695 C   0  0  0  0  0  0  0  0  0  0  0  0
    6.3393   15.5053  -22.1745 N   0  0  0  0  0  0  0  0  0  0  0  0
    5.8938   16.4299  -23.0500 C   0  0  0  0  0  0  0  0  0  0  0  0
    6.3391   17.6457  -22.6907 N   0  0  0  0  0  0  0  0  0  0  0  0
    6.0692   14.0756  -22.2257 C   0  0  0  0  0  0  0  0  0  0  0  0
  2  1  2  0
 15  1  1  0
  3  2  1  0
  2 13  1  0
  5  3  2  0
  4 14  2  0
 16  4  1  0
  4 17  1  0
  5 17  1  0
 18  5  1  0
  6  7  1  0
 18  6  1  1
 21  6  2  0
 22  7  2  0
  7 23  1  0
  9  8  2  0
  8 24  1  0
 22  9  1  0
 26 10  2  0
 27 10  1  0
 10 30  1  0
 11 27  2  0
 28 11  1  0
 12 26  1  0
 28 12  2  0
 17 15  2  0
 18 16  1  0
 19 21  1  0
 25 19  1  0
 21 20  1  0
 20 22  1  0
 23 24  2  0
 29 25  1  0
 26 32  1  0
 28 29  1  0
 30 31  2  0
 31 32  1  0
 32 33  1  0
 33 34  1  0
 34 35  2  0
 34 38  1  0
 35 36  1  0
 36 37  1  0
 36 39  1  0
 37 38  2  0
M  CHG  1  25   1
M  END
$$$$
