
     RDKit          3D

 39 45  0  0  0  0  0  0  0  0999 V2000
   18.1418   11.2866  -20.5326 C   0  0  0  0  0  0  0  0  0  0  0  0
   18.7034   12.5294  -20.6853 C   0  0  0  0  0  0  0  0  0  0  0  0
   17.9810   13.6250  -20.2729 C   0  0  0  0  0  0  0  0  0  0  0  0
   14.8258   12.3817  -18.9793 C   0  0  0  0  0  0  0  0  0  0  0  0
   16.7277   13.5286  -19.7175 C   0  0  0  0  0  0  0  0  0  0  0  0
   15.4404   15.6166  -20.1329 C   0  0  0  0  0  0  0  0  0  0  0  0
   16.1276   16.8192  -20.1708 C   0  0  0  0  0  0  0  0  0  0  0  0
   17.0531   19.3631  -20.7695 C   0  0  0  0  0  0  0  0  0  0  0  0
   16.0064   18.8152  -21.4738 C   0  0  0  0  0  0  0  0  0  0  0  0
    7.0968   14.1055  -20.9825 C   0  0  0  0  0  0  0  0  0  0  0  0
    9.1345   13.2609  -20.0141 C   0  0  0  0  0  0  0  0  0  0  0  0
    9.2154   14.5242  -21.9865 C   0  0  0  0  0  0  0  0  0  0  0  0
   19.9835   12.6828  -21.2486 O   0  0  0  0  0  0  0  0  0  0  0  0
   14.0769   11.4140  -18.7245 O   0  0  0  0  0  0  0  0  0  0  0  0
   16.8855   11.1605  -19.9789 C   0  0  0  0  0  0  0  0  0  0  0  0
   14.6072   13.7550  -18.7866 N   0  0  0  0  0  0  0  0  0  0  0  0
   16.1541   12.2555  -19.5631 C   0  0  0  0  0  0  0  0  0  0  0  0
   15.7684   14.4971  -19.1838 C   0  0  1  0  0  0  0  0  0  0  0  0
   13.5073   14.5217  -21.3861 C   0  0  0  0  0  0  0  0  0  0  0  0
   14.5290   16.7998  -21.7304 N   0  0  0  0  0  0  0  0  0  0  0  0
   14.4616   15.6247  -21.0994 C   0  0  0  0  0  0  0  0  0  0  0  0
   15.5162   17.5376  -21.1979 C   0  0  0  0  0  0  0  0  0  0  0  0
   17.1806   17.3772  -19.4664 C   0  0  0  0  0  0  0  0  0  0  0  0
   17.6463   18.6410  -19.7581 C   0  0  0  0  0  0  0  0  0  0  0  0
   12.1828   14.7649  -20.8597 N   0  0  0  0  0  4  0  0  0  0  0  0
    7.8476   14.6827  -22.0034 C   0  0  0  0  0  0  0  0  0  0  0  0
    7.7403   13.3978  -19.9931 C   0  0  0  0  0  0  0  0  0  0  0  0
    9.9040   13.8229  -21.0139 C   0  0  0  0  0  0  0  0  0  0  0  0
   11.3373   13.6533  -20.9717 C   0  0  0  0  0  0  0  0  0  0  0  0
    5.7782   14.4147  -21.2383 C   0  0  0  0  0  0  0  0  0  0  0  0
    5.7827   15.1623  -22.3970 C   0  0  0  0  0  0  0  0  0  0  0  0
    7.0270   15.3204  -22.8527 N   0  0  0  0  0  0  0  0  0  0  0  0
    7.4588   16.0299  -24.0313 C   0  0  0  0  0  0  0  0  0  0  0  0
    7.7095   17.4677  -23.6931 C   0  0  0  0  0  0  0  0  0  0  0  0
    8.9404   18.0848  -23.4815 C   0  0  0  0  0  0  0  0  0  0  0  0
    8.7572   19.4024  -23.1945 N   0  0  0  0  0  0  0  0  0  0  0  0
    7.4315   19.6035  -23.2266 C   0  0  0  0  0  0  0  0  0  0  0  0
    6.8029   18.4530  -23.5236 N   0  0  0  0  0  0  0  0  0  0  0  0
    9.7941   20.3855  -22.9105 C   0  0  0  0  0  0  0  0  0  0  0  0
  2  1  2  0
 15  1  1  0
  3  2  1  0
  2 13  1  0
  5  3  2  0
  4 14  2  0
 16  4  1  0
  4 17  1  0
  5 17  1  0
 18  5  1  0
  6  7  1  0
 18  6  1  6
 21  6  2  0
 22  7  2  0
  7 23  1  0
  9  8  2  0
  8 24  1  0
 22  9  1  0
 26 10  2  0
 27 10  1  0
 10 30  1  0
 11 27  2  0
 28 11  1  0
 12 26  1  0
 28 12  2  0
 17 15  2  0
 18 16  1  0
 19 21  1  1
 25 19  1  1
 21 20  1  0
 20 22  1  0
 23 24  2  0
 29 25  1  0
 26 32  1  0
 29 28  1  6
 30 31  2  0
 31 32  1  0
 33 32  1  1
 33 34  1  0
 34 35  2  0
 34 38  1  0
 35 36  1  0
 36 37  1  0
 39 36  1  1
 37 38  2  0
M  CHG  1  25   1
M  END
$$$$
