
     RDKit          3D

 39 45  0  0  0  0  0  0  0  0999 V2000
   18.0779   17.3932  -20.2630 C   0  0  0  0  0  0  0  0  0  0  0  0
   18.0958   16.3647  -21.1712 C   0  0  0  0  0  0  0  0  0  0  0  0
   17.8664   16.6612  -22.4947 C   0  0  0  0  0  0  0  0  0  0  0  0
   17.3064   20.2420  -22.6914 C   0  0  0  0  0  0  0  0  0  0  0  0
   17.6214   17.9367  -22.9438 C   0  0  0  0  0  0  0  0  0  0  0  0
   16.2594   17.8687  -25.0246 C   0  0  0  0  0  0  0  0  0  0  0  0
   16.4561   17.0906  -26.1543 C   0  0  0  0  0  0  0  0  0  0  0  0
   16.1504   15.4673  -28.3808 C   0  0  0  0  0  0  0  0  0  0  0  0
   15.0575   15.8518  -27.6395 C   0  0  0  0  0  0  0  0  0  0  0  0
   11.2157   14.2000  -20.1908 C   0  0  0  0  0  0  0  0  0  0  0  0
   11.2641   15.8241  -21.9693 C   0  0  0  0  0  0  0  0  0  0  0  0
   12.7170   16.0482  -20.1440 C   0  0  0  0  0  0  0  0  0  0  0  0
   18.3415   15.0407  -20.7632 O   0  0  0  0  0  0  0  0  0  0  0  0
   17.2262   21.3489  -22.1166 O   0  0  0  0  0  0  0  0  0  0  0  0
   17.8340   18.6827  -20.6857 C   0  0  0  0  0  0  0  0  0  0  0  0
   17.1445   19.9275  -24.0500 N   0  0  0  0  0  0  0  0  0  0  0  0
   17.6023   18.9881  -22.0123 C   0  0  0  0  0  0  0  0  0  0  0  0
   17.3744   18.5276  -24.2602 C   0  0  1  0  0  0  0  0  0  0  0  0
   14.2912   18.6294  -23.5916 C   0  0  0  0  0  0  0  0  0  0  0  0
   14.2827   17.1691  -25.6458 N   0  0  0  0  0  0  0  0  0  0  0  0
   14.9165   17.9044  -24.7287 C   0  0  0  0  0  0  0  0  0  0  0  0
   15.1764   16.6682  -26.5135 C   0  0  0  0  0  0  0  0  0  0  0  0
   17.5512   16.6995  -26.9053 C   0  0  0  0  0  0  0  0  0  0  0  0
   17.4073   15.8927  -28.0132 C   0  0  0  0  0  0  0  0  0  0  0  0
   14.1090   17.8010  -22.4207 N   0  0  0  0  0  4  0  0  0  0  0  0
   12.2276   14.9079  -19.5471 C   0  0  0  0  0  0  0  0  0  0  0  0
   10.7377   14.6587  -21.3970 C   0  0  0  0  0  0  0  0  0  0  0  0
   12.2679   16.5457  -21.3535 C   0  0  0  0  0  0  0  0  0  0  0  0
   12.7738   17.7327  -22.0015 C   0  0  0  0  0  0  0  0  0  0  0  0
   10.9185   13.1187  -19.3894 C   0  0  0  0  0  0  0  0  0  0  0  0
   11.7569   13.2141  -18.2988 C   0  0  0  0  0  0  0  0  0  0  0  0
   12.5408   14.2896  -18.3978 N   0  0  0  0  0  0  0  0  0  0  0  0
   13.5460   14.7456  -17.4702 C   0  0  0  0  0  0  0  0  0  0  0  0
   14.6860   13.7739  -17.4413 C   0  0  0  0  0  0  0  0  0  0  0  0
   15.8386   13.7986  -18.2234 C   0  0  0  0  0  0  0  0  0  0  0  0
   16.6391   12.7448  -17.9059 N   0  0  0  0  0  0  0  0  0  0  0  0
   15.9946   12.0730  -16.9403 C   0  0  0  0  0  0  0  0  0  0  0  0
   14.8300   12.6829  -16.6599 N   0  0  0  0  0  0  0  0  0  0  0  0
   17.9292   12.4197  -18.4993 C   0  0  0  0  0  0  0  0  0  0  0  0
  2  1  2  0
 15  1  1  0
  3  2  1  0
  2 13  1  0
  5  3  2  0
  4 14  2  0
 16  4  1  0
  4 17  1  0
  5 17  1  0
 18  5  1  0
  6  7  1  0
 18  6  1  1
 21  6  2  0
 22  7  2  0
  7 23  1  0
  9  8  2  0
  8 24  1  0
 22  9  1  0
 26 10  2  0
 27 10  1  0
 10 30  1  0
 11 27  2  0
 28 11  1  0
 12 26  1  0
 28 12  2  0
 17 15  2  0
 18 16  1  0
 19 21  1  1
 25 19  1  1
 21 20  1  0
 20 22  1  0
 23 24  2  0
 29 25  1  0
 26 32  1  0
 29 28  1  6
 30 31  2  0
 31 32  1  0
 33 32  1  1
 33 34  1  0
 34 35  2  0
 34 38  1  0
 35 36  1  0
 36 37  1  0
 39 36  1  1
 37 38  2  0
M  CHG  1  25   1
M  END
$$$$
