
     RDKit          3D

 39 45  0  0  0  0  0  0  0  0999 V2000
   11.4178   14.5386  -23.5493 C   0  0  0  0  0  0  0  0  0  0  0  0
   12.7873   14.6103  -23.5965 C   0  0  0  0  0  0  0  0  0  0  0  0
   13.4928   14.3471  -22.4454 C   0  0  0  0  0  0  0  0  0  0  0  0
   11.0547   13.6038  -19.8611 C   0  0  0  0  0  0  0  0  0  0  0  0
   12.8878   14.0170  -21.2564 C   0  0  0  0  0  0  0  0  0  0  0  0
   14.3321   14.6825  -19.3431 C   0  0  0  0  0  0  0  0  0  0  0  0
   15.0308   14.4923  -18.1616 C   0  0  0  0  0  0  0  0  0  0  0  0
   16.6911   14.7448  -15.9558 C   0  0  0  0  0  0  0  0  0  0  0  0
   16.6270   15.7415  -16.9015 C   0  0  0  0  0  0  0  0  0  0  0  0
    9.5485   20.9471  -21.8253 C   0  0  0  0  0  0  0  0  0  0  0  0
   10.4954   19.2760  -20.3713 C   0  0  0  0  0  0  0  0  0  0  0  0
   11.0396   19.2837  -22.6509 C   0  0  0  0  0  0  0  0  0  0  0  0
   13.4557   14.9444  -24.7887 O   0  0  0  0  0  0  0  0  0  0  0  0
    9.8600   13.4685  -19.5197 O   0  0  0  0  0  0  0  0  0  0  0  0
   10.7843   14.2104  -22.3695 C   0  0  0  0  0  0  0  0  0  0  0  0
   12.2231   13.4733  -19.0937 N   0  0  0  0  0  0  0  0  0  0  0  0
   11.4855   13.9453  -21.2098 C   0  0  0  0  0  0  0  0  0  0  0  0
   13.3778   13.6736  -19.9203 C   0  0  1  0  0  0  0  0  0  0  0  0
   14.1507   16.4780  -21.1456 C   0  0  0  0  0  0  0  0  0  0  0  0
   15.5688   16.4640  -19.0621 N   0  0  0  0  0  0  0  0  0  0  0  0
   14.6769   15.9006  -19.8810 C   0  0  0  0  0  0  0  0  0  0  0  0
   15.8019   15.6460  -18.0234 C   0  0  0  0  0  0  0  0  0  0  0  0
   15.1005   13.4935  -17.2057 C   0  0  0  0  0  0  0  0  0  0  0  0
   15.9234   13.6117  -16.1066 C   0  0  0  0  0  0  0  0  0  0  0  0
   13.4130   17.7054  -20.9463 N   0  0  0  0  0  4  0  0  0  0  0  0
   10.2444   20.3819  -22.8910 C   0  0  0  0  0  0  0  0  0  0  0  0
    9.6752   20.3941  -20.5715 C   0  0  0  0  0  0  0  0  0  0  0  0
   11.1972   18.6954  -21.4095 C   0  0  0  0  0  0  0  0  0  0  0  0
   12.0331   17.5508  -21.1341 C   0  0  0  0  0  0  0  0  0  0  0  0
    8.8436   22.0158  -22.3359 C   0  0  0  0  0  0  0  0  0  0  0  0
    9.1388   22.0553  -23.6823 C   0  0  0  0  0  0  0  0  0  0  0  0
    9.9798   21.0726  -24.0110 N   0  0  0  0  0  0  0  0  0  0  0  0
   10.5262   20.7671  -25.3098 C   0  0  0  0  0  0  0  0  0  0  0  0
   11.8299   21.4827  -25.4915 C   0  0  0  0  0  0  0  0  0  0  0  0
   12.1162   22.5022  -26.3967 C   0  0  0  0  0  0  0  0  0  0  0  0
   13.4119   22.8954  -26.2602 N   0  0  0  0  0  0  0  0  0  0  0  0
   13.9256   22.1319  -25.2845 C   0  0  0  0  0  0  0  0  0  0  0  0
   12.9862   21.2884  -24.8231 N   0  0  0  0  0  0  0  0  0  0  0  0
   14.0935   23.9327  -27.0229 C   0  0  0  0  0  0  0  0  0  0  0  0
  2  1  2  0
 15  1  1  0
  3  2  1  0
  2 13  1  0
  5  3  2  0
  4 14  2  0
 16  4  1  0
  4 17  1  0
  5 17  1  0
 18  5  1  0
  6  7  1  0
 18  6  1  1
 21  6  2  0
 22  7  2  0
  7 23  1  0
  9  8  2  0
  8 24  1  0
 22  9  1  0
 26 10  2  0
 27 10  1  0
 10 30  1  0
 11 27  2  0
 28 11  1  0
 12 26  1  0
 28 12  2  0
 17 15  2  0
 18 16  1  0
 19 21  1  1
 25 19  1  1
 21 20  1  0
 20 22  1  0
 23 24  2  0
 29 25  1  0
 26 32  1  0
 29 28  1  6
 30 31  2  0
 31 32  1  0
 33 32  1  1
 33 34  1  0
 34 35  2  0
 34 38  1  0
 35 36  1  0
 36 37  1  0
 39 36  1  1
 37 38  2  0
M  CHG  1  25   1
M  END
$$$$
