
     RDKit          3D

 39 45  0  0  0  0  0  0  0  0999 V2000
   14.2420   11.0211  -22.7380 C   0  0  0  0  0  0  0  0  0  0  0  0
   15.1874   11.3311  -21.7902 C   0  0  0  0  0  0  0  0  0  0  0  0
   14.8902   11.9745  -20.6209 C   0  0  0  0  0  0  0  0  0  0  0  0
   11.3017   12.5247  -20.7990 C   0  0  0  0  0  0  0  0  0  0  0  0
   13.5784   12.3392  -20.3624 C   0  0  0  0  0  0  0  0  0  0  0  0
   13.5531   14.3601  -18.9909 C   0  0  0  0  0  0  0  0  0  0  0  0
   14.4959   14.5365  -17.9425 C   0  0  0  0  0  0  0  0  0  0  0  0
   16.3203   15.4802  -16.1695 C   0  0  0  0  0  0  0  0  0  0  0  0
   15.8263   16.3255  -17.1219 C   0  0  0  0  0  0  0  0  0  0  0  0
   10.9534   21.4863  -21.5184 C   0  0  0  0  0  0  0  0  0  0  0  0
    9.8719   19.4497  -20.9761 C   0  0  0  0  0  0  0  0  0  0  0  0
   11.8857   19.4011  -22.2459 C   0  0  0  0  0  0  0  0  0  0  0  0
   16.5054   10.9384  -22.1020 O   0  0  0  0  0  0  0  0  0  0  0  0
   10.1855   12.4159  -21.4093 O   0  0  0  0  0  0  0  0  0  0  0  0
   12.9450   11.3905  -22.4653 C   0  0  0  0  0  0  0  0  0  0  0  0
   11.5661   13.1162  -19.5331 N   0  0  0  0  0  0  0  0  0  0  0  0
   12.6050   12.0526  -21.2742 C   0  0  0  0  0  0  0  0  0  0  0  0
   12.9431   13.0378  -19.2037 C   0  0  1  0  0  0  0  0  0  0  0  0
   12.5433   15.8548  -20.8190 C   0  0  0  0  0  0  0  0  0  0  0  0
   14.2459   16.4496  -19.0604 N   0  0  0  0  0  0  0  0  0  0  0  0
   13.4149   15.5449  -19.6630 C   0  0  0  0  0  0  0  0  0  0  0  0
   14.8852   15.8531  -18.0426 C   0  0  0  0  0  0  0  0  0  0  0  0
   14.9995   13.6921  -16.9791 C   0  0  0  0  0  0  0  0  0  0  0  0
   15.9224   14.1420  -16.0706 C   0  0  0  0  0  0  0  0  0  0  0  0
   11.4502   16.7520  -20.4981 N   0  0  0  0  0  4  0  0  0  0  0  0
   11.9300   20.7750  -22.1805 C   0  0  0  0  0  0  0  0  0  0  0  0
    9.8909   20.8187  -20.8955 C   0  0  0  0  0  0  0  0  0  0  0  0
   10.8568   18.7439  -21.6434 C   0  0  0  0  0  0  0  0  0  0  0  0
   10.7940   17.2402  -21.7063 C   0  0  0  0  0  0  0  0  0  0  0  0
   11.2753   22.8141  -21.6316 C   0  0  0  0  0  0  0  0  0  0  0  0
   12.4385   22.8699  -22.3593 C   0  0  0  0  0  0  0  0  0  0  0  0
   12.8342   21.6278  -22.6917 N   0  0  0  0  0  0  0  0  0  0  0  0
   14.0329   21.2799  -23.4631 C   0  0  0  0  0  0  0  0  0  0  0  0
   13.5978   21.0360  -24.8652 C   0  0  0  0  0  0  0  0  0  0  0  0
   13.9720   21.6573  -26.0363 C   0  0  0  0  0  0  0  0  0  0  0  0
   13.3298   21.1208  -27.0971 N   0  0  0  0  0  0  0  0  0  0  0  0
   12.5432   20.1515  -26.5859 C   0  0  0  0  0  0  0  0  0  0  0  0
   12.7001   20.0969  -25.2525 N   0  0  0  0  0  0  0  0  0  0  0  0
   13.4381   21.4849  -28.5027 C   0  0  0  0  0  0  0  0  0  0  0  0
  2  1  2  0
 15  1  1  0
  3  2  1  0
  2 13  1  0
  5  3  2  0
  4 14  2  0
 16  4  1  0
  4 17  1  0
  5 17  1  0
 18  5  1  0
  6  7  1  0
 18  6  1  6
 21  6  2  0
 22  7  2  0
  7 23  1  0
  9  8  2  0
  8 24  1  0
 22  9  1  0
 26 10  2  0
 27 10  1  0
 10 30  1  0
 11 27  2  0
 28 11  1  0
 12 26  1  0
 28 12  2  0
 17 15  2  0
 18 16  1  0
 19 21  1  0
 25 19  1  0
 21 20  1  0
 20 22  1  0
 23 24  2  0
 29 25  1  0
 26 32  1  0
 28 29  1  0
 30 31  2  0
 31 32  1  0
 32 33  1  0
 33 34  1  0
 34 35  2  0
 34 38  1  0
 35 36  1  0
 36 37  1  0
 36 39  1  0
 37 38  2  0
M  CHG  1  25   1
M  END
$$$$
