
     RDKit          3D

 39 45  0  0  0  0  0  0  0  0999 V2000
   18.3251   16.7857  -23.9174 C   0  0  0  0  0  0  0  0  0  0  0  0
   16.9621   16.6112  -23.9281 C   0  0  0  0  0  0  0  0  0  0  0  0
   16.2084   16.5443  -22.7893 C   0  0  0  0  0  0  0  0  0  0  0  0
   18.6265   16.9224  -20.1021 C   0  0  0  0  0  0  0  0  0  0  0  0
   16.8316   16.6555  -21.5565 C   0  0  0  0  0  0  0  0  0  0  0  0
   15.5882   15.3625  -19.8989 C   0  0  0  0  0  0  0  0  0  0  0  0
   15.6509   14.7763  -18.6059 C   0  0  0  0  0  0  0  0  0  0  0  0
   15.3805   13.2129  -16.4049 C   0  0  0  0  0  0  0  0  0  0  0  0
   14.7345   12.8538  -17.5535 C   0  0  0  0  0  0  0  0  0  0  0  0
    8.8419   14.6674  -19.9547 C   0  0  0  0  0  0  0  0  0  0  0  0
   10.6327   16.1401  -20.4397 C   0  0  0  0  0  0  0  0  0  0  0  0
   10.3298   14.1903  -21.7727 C   0  0  0  0  0  0  0  0  0  0  0  0
   16.3779   16.5037  -25.2071 O   0  0  0  0  0  0  0  0  0  0  0  0
   19.8258   17.0860  -19.6955 O   0  0  0  0  0  0  0  0  0  0  0  0
   18.9274   16.8941  -22.6852 C   0  0  0  0  0  0  0  0  0  0  0  0
   17.4390   16.7911  -19.3309 N   0  0  0  0  0  0  0  0  0  0  0  0
   18.1833   16.8296  -21.4957 C   0  0  0  0  0  0  0  0  0  0  0  0
   16.3007   16.6236  -20.1596 C   0  0  1  0  0  0  0  0  0  0  0  0
   14.4329   14.7859  -22.1190 C   0  0  0  0  0  0  0  0  0  0  0  0
   14.3545   13.5382  -19.9321 N   0  0  0  0  0  0  0  0  0  0  0  0
   14.7888   14.5873  -20.6956 C   0  0  0  0  0  0  0  0  0  0  0  0
   14.8646   13.6499  -18.6961 C   0  0  0  0  0  0  0  0  0  0  0  0
   16.2980   15.1301  -17.4438 C   0  0  0  0  0  0  0  0  0  0  0  0
   16.1791   14.3589  -16.3167 C   0  0  0  0  0  0  0  0  0  0  0  0
   13.0433   14.4966  -22.4160 N   0  0  0  0  0  4  0  0  0  0  0  0
    9.2377   13.8640  -21.0016 C   0  0  0  0  0  0  0  0  0  0  0  0
    9.5490   15.8390  -19.6550 C   0  0  0  0  0  0  0  0  0  0  0  0
   11.0230   15.3271  -21.4886 C   0  0  0  0  0  0  0  0  0  0  0  0
   12.2209   15.6980  -22.3232 C   0  0  0  0  0  0  0  0  0  0  0  0
    7.7395   14.0796  -19.3902 C   0  0  0  0  0  0  0  0  0  0  0  0
    7.4982   12.9361  -20.1114 C   0  0  0  0  0  0  0  0  0  0  0  0
    8.4113   12.8079  -21.0909 N   0  0  0  0  0  0  0  0  0  0  0  0
    8.4800   11.7183  -22.0714 C   0  0  0  0  0  0  0  0  0  0  0  0
    7.8215   12.2035  -23.3146 C   0  0  0  0  0  0  0  0  0  0  0  0
    8.3669   12.6172  -24.5099 C   0  0  0  0  0  0  0  0  0  0  0  0
    7.4025   12.9796  -25.3840 N   0  0  0  0  0  0  0  0  0  0  0  0
    6.2379   12.7912  -24.7297 C   0  0  0  0  0  0  0  0  0  0  0  0
    6.4833   12.3273  -23.4926 N   0  0  0  0  0  0  0  0  0  0  0  0
    7.5506   13.4719  -26.7462 C   0  0  0  0  0  0  0  0  0  0  0  0
  2  1  2  0
 15  1  1  0
  3  2  1  0
  2 13  1  0
  5  3  2  0
  4 14  2  0
 16  4  1  0
  4 17  1  0
  5 17  1  0
 18  5  1  0
  6  7  1  0
 18  6  1  1
 21  6  2  0
 22  7  2  0
  7 23  1  0
  9  8  2  0
  8 24  1  0
 22  9  1  0
 26 10  2  0
 27 10  1  0
 10 30  1  0
 11 27  2  0
 28 11  1  0
 12 26  1  0
 28 12  2  0
 17 15  2  0
 18 16  1  0
 19 21  1  0
 25 19  1  0
 21 20  1  0
 20 22  1  0
 23 24  2  0
 29 25  1  0
 26 32  1  0
 28 29  1  0
 30 31  2  0
 31 32  1  0
 32 33  1  0
 33 34  1  0
 34 35  2  0
 34 38  1  0
 35 36  1  0
 36 37  1  0
 36 39  1  0
 37 38  2  0
M  CHG  1  25   1
M  END
$$$$
