
     RDKit          3D

 39 45  0  0  0  0  0  0  0  0999 V2000
   16.7929   15.5120  -16.9518 C   0  0  0  0  0  0  0  0  0  0  0  0
   16.5067   16.0699  -18.1746 C   0  0  0  0  0  0  0  0  0  0  0  0
   15.4145   15.7193  -18.9186 C   0  0  0  0  0  0  0  0  0  0  0  0
   13.7454   13.1933  -16.9076 C   0  0  0  0  0  0  0  0  0  0  0  0
   14.5436   14.7572  -18.4324 C   0  0  0  0  0  0  0  0  0  0  0  0
   13.5404   13.5505  -20.3041 C   0  0  0  0  0  0  0  0  0  0  0  0
   14.6902   12.7357  -20.4868 C   0  0  0  0  0  0  0  0  0  0  0  0
   16.6459   11.1115  -21.4348 C   0  0  0  0  0  0  0  0  0  0  0  0
   15.6198   11.4635  -22.2647 C   0  0  0  0  0  0  0  0  0  0  0  0
    9.8594   19.5960  -20.9115 C   0  0  0  0  0  0  0  0  0  0  0  0
   10.9851   17.5862  -20.3595 C   0  0  0  0  0  0  0  0  0  0  0  0
   11.3444   18.5781  -22.4943 C   0  0  0  0  0  0  0  0  0  0  0  0
   17.4237   17.0428  -18.6231 O   0  0  0  0  0  0  0  0  0  0  0  0
   13.6733   12.4736  -15.8553 O   0  0  0  0  0  0  0  0  0  0  0  0
   15.9180   14.5586  -16.4844 C   0  0  0  0  0  0  0  0  0  0  0  0
   12.8589   13.2302  -18.0189 N   0  0  0  0  0  0  0  0  0  0  0  0
   14.7866   14.1749  -17.2229 C   0  0  0  0  0  0  0  0  0  0  0  0
   13.2891   14.1677  -18.9919 C   0  0  1  0  0  0  0  0  0  0  0  0
   11.5665   14.2909  -21.7708 C   0  0  0  0  0  0  0  0  0  0  0  0
   13.5022   12.7957  -22.3728 N   0  0  0  0  0  0  0  0  0  0  0  0
   12.8267   13.5735  -21.4723 C   0  0  0  0  0  0  0  0  0  0  0  0
   14.6045   12.3002  -21.7899 C   0  0  0  0  0  0  0  0  0  0  0  0
   15.7284   12.3755  -19.6579 C   0  0  0  0  0  0  0  0  0  0  0  0
   16.7299   11.5560  -20.1104 C   0  0  0  0  0  0  0  0  0  0  0  0
   11.7455   15.4482  -22.6261 N   0  0  0  0  0  4  0  0  0  0  0  0
   10.4734   19.5847  -22.1447 C   0  0  0  0  0  0  0  0  0  0  0  0
   10.1130   18.5762  -19.9851 C   0  0  0  0  0  0  0  0  0  0  0  0
   11.5968   17.5829  -21.6002 C   0  0  0  0  0  0  0  0  0  0  0  0
   12.5475   16.4739  -21.9679 C   0  0  0  0  0  0  0  0  0  0  0  0
    9.0627   20.7109  -20.8683 C   0  0  0  0  0  0  0  0  0  0  0  0
    9.2167   21.3440  -22.0772 C   0  0  0  0  0  0  0  0  0  0  0  0
   10.0755   20.6564  -22.8514 N   0  0  0  0  0  0  0  0  0  0  0  0
   10.4965   21.0199  -24.2092 C   0  0  0  0  0  0  0  0  0  0  0  0
   11.8007   21.7268  -24.0906 C   0  0  0  0  0  0  0  0  0  0  0  0
   13.0682   21.3274  -24.4529 C   0  0  0  0  0  0  0  0  0  0  0  0
   13.9787   22.2840  -24.1679 N   0  0  0  0  0  0  0  0  0  0  0  0
   13.2745   23.2959  -23.6201 C   0  0  0  0  0  0  0  0  0  0  0  0
   11.9724   22.9675  -23.5720 N   0  0  0  0  0  0  0  0  0  0  0  0
   15.4175   22.2624  -24.3897 C   0  0  0  0  0  0  0  0  0  0  0  0
  2  1  2  0
 15  1  1  0
  3  2  1  0
  2 13  1  0
  5  3  2  0
  4 14  2  0
 16  4  1  0
  4 17  1  0
  5 17  1  0
 18  5  1  0
  6  7  1  0
 18  6  1  6
 21  6  2  0
 22  7  2  0
  7 23  1  0
  9  8  2  0
  8 24  1  0
 22  9  1  0
 26 10  2  0
 27 10  1  0
 10 30  1  0
 11 27  2  0
 28 11  1  0
 12 26  1  0
 28 12  2  0
 17 15  2  0
 18 16  1  0
 19 21  1  0
 25 19  1  0
 21 20  1  0
 20 22  1  0
 23 24  2  0
 29 25  1  0
 26 32  1  0
 28 29  1  0
 30 31  2  0
 31 32  1  0
 32 33  1  0
 33 34  1  0
 34 35  2  0
 34 38  1  0
 35 36  1  0
 36 37  1  0
 36 39  1  0
 37 38  2  0
M  CHG  1  25   1
M  END
$$$$
