
     RDKit          3D

 39 45  0  0  0  0  0  0  0  0999 V2000
   10.0993   16.3090  -20.4709 C   0  0  0  0  0  0  0  0  0  0  0  0
   10.4851   15.6409  -19.3360 C   0  0  0  0  0  0  0  0  0  0  0  0
   11.8290   15.4356  -19.1269 C   0  0  0  0  0  0  0  0  0  0  0  0
   13.5719   16.8999  -21.9540 C   0  0  0  0  0  0  0  0  0  0  0  0
   12.7967   15.8688  -20.0013 C   0  0  0  0  0  0  0  0  0  0  0  0
   14.8165   14.4261  -19.8317 C   0  0  0  0  0  0  0  0  0  0  0  0
   15.6383   14.0637  -18.7764 C   0  0  0  0  0  0  0  0  0  0  0  0
   17.2535   12.7086  -16.9762 C   0  0  0  0  0  0  0  0  0  0  0  0
   16.7076   12.0551  -18.0564 C   0  0  0  0  0  0  0  0  0  0  0  0
    7.4247   13.2308  -22.8101 C   0  0  0  0  0  0  0  0  0  0  0  0
    9.3997   11.9948  -22.1979 C   0  0  0  0  0  0  0  0  0  0  0  0
    9.5995   13.9810  -23.4259 C   0  0  0  0  0  0  0  0  0  0  0  0
    9.5340   15.1764  -18.4090 O   0  0  0  0  0  0  0  0  0  0  0  0
   13.5268   17.5147  -23.0413 O   0  0  0  0  0  0  0  0  0  0  0  0
   11.0489   16.7542  -21.3658 C   0  0  0  0  0  0  0  0  0  0  0  0
   14.6839   16.4124  -21.2492 N   0  0  0  0  0  0  0  0  0  0  0  0
   12.3997   16.5515  -21.1631 C   0  0  0  0  0  0  0  0  0  0  0  0
   14.2594   15.8105  -20.0186 C   0  0  1  0  0  0  0  0  0  0  0  0
   13.7618   13.2958  -21.8604 C   0  0  0  0  0  0  0  0  0  0  0  0
   15.2544   12.2993  -20.0908 N   0  0  0  0  0  0  0  0  0  0  0  0
   14.5926   13.3272  -20.6282 C   0  0  0  0  0  0  0  0  0  0  0  0
   15.8905   12.7075  -18.9813 C   0  0  0  0  0  0  0  0  0  0  0  0
   16.1912   14.7147  -17.6870 C   0  0  0  0  0  0  0  0  0  0  0  0
   16.9950   14.0479  -16.7878 C   0  0  0  0  0  0  0  0  0  0  0  0
   12.3815   12.9480  -21.6065 N   0  0  0  0  0  4  0  0  0  0  0  0
    8.2357   14.1697  -23.4426 C   0  0  0  0  0  0  0  0  0  0  0  0
    8.0072   12.1485  -22.1910 C   0  0  0  0  0  0  0  0  0  0  0  0
   10.2280   12.9104  -22.8169 C   0  0  0  0  0  0  0  0  0  0  0  0
   11.6558   12.6988  -22.7788 C   0  0  0  0  0  0  0  0  0  0  0  0
    6.1243   13.6570  -22.9745 C   0  0  0  0  0  0  0  0  0  0  0  0
    6.1987   14.8298  -23.6958 C   0  0  0  0  0  0  0  0  0  0  0  0
    7.4680   15.1336  -23.9746 N   0  0  0  0  0  0  0  0  0  0  0  0
    7.9700   16.2686  -24.7085 C   0  0  0  0  0  0  0  0  0  0  0  0
    8.3980   15.8368  -26.0778 C   0  0  0  0  0  0  0  0  0  0  0  0
    9.3414   16.4476  -26.9010 C   0  0  0  0  0  0  0  0  0  0  0  0
    9.4535   15.7601  -28.0701 N   0  0  0  0  0  0  0  0  0  0  0  0
    8.5924   14.7360  -27.9769 C   0  0  0  0  0  0  0  0  0  0  0  0
    7.9611   14.7776  -26.7909 N   0  0  0  0  0  0  0  0  0  0  0  0
   10.3305   16.0791  -29.1888 C   0  0  0  0  0  0  0  0  0  0  0  0
  2  1  2  0
 15  1  1  0
  3  2  1  0
  2 13  1  0
  5  3  2  0
  4 14  2  0
 16  4  1  0
  4 17  1  0
  5 17  1  0
 18  5  1  0
  6  7  1  0
 18  6  1  6
 21  6  2  0
 22  7  2  0
  7 23  1  0
  9  8  2  0
  8 24  1  0
 22  9  1  0
 26 10  2  0
 27 10  1  0
 10 30  1  0
 11 27  2  0
 28 11  1  0
 12 26  1  0
 28 12  2  0
 17 15  2  0
 18 16  1  0
 19 21  1  1
 25 19  1  1
 21 20  1  0
 20 22  1  0
 23 24  2  0
 29 25  1  0
 26 32  1  0
 29 28  1  6
 30 31  2  0
 31 32  1  0
 33 32  1  1
 33 34  1  0
 34 35  2  0
 34 38  1  0
 35 36  1  0
 36 37  1  0
 39 36  1  1
 37 38  2  0
M  CHG  1  25   1
M  END
$$$$
