
     RDKit          3D

 39 45  0  0  0  0  0  0  0  0999 V2000
   14.0988   14.4778  -23.4569 C   0  0  0  0  0  0  0  0  0  0  0  0
   13.3019   13.5146  -24.0229 C   0  0  0  0  0  0  0  0  0  0  0  0
   11.9567   13.5320  -23.7362 C   0  0  0  0  0  0  0  0  0  0  0  0
   11.3945   16.3227  -21.4843 C   0  0  0  0  0  0  0  0  0  0  0  0
   11.3798   14.4679  -22.9116 C   0  0  0  0  0  0  0  0  0  0  0  0
    9.3280   13.5363  -21.8571 C   0  0  0  0  0  0  0  0  0  0  0  0
    8.5262   12.6627  -22.5741 C   0  0  0  0  0  0  0  0  0  0  0  0
    6.8726   10.5910  -23.3864 C   0  0  0  0  0  0  0  0  0  0  0  0
    7.2973   10.6770  -22.0810 C   0  0  0  0  0  0  0  0  0  0  0  0
   15.7907   13.9540  -17.5474 C   0  0  0  0  0  0  0  0  0  0  0  0
   13.3965   14.0900  -17.3186 C   0  0  0  0  0  0  0  0  0  0  0  0
   14.4532   15.0985  -19.1514 C   0  0  0  0  0  0  0  0  0  0  0  0
   13.8429   12.5335  -24.8740 O   0  0  0  0  0  0  0  0  0  0  0  0
   11.8521   17.2912  -20.8404 O   0  0  0  0  0  0  0  0  0  0  0  0
   13.5468   15.4286  -22.6250 C   0  0  0  0  0  0  0  0  0  0  0  0
   10.0771   15.8435  -21.5607 N   0  0  0  0  0  0  0  0  0  0  0  0
   12.1975   15.4524  -22.3321 C   0  0  0  0  0  0  0  0  0  0  0  0
   10.0112   14.7310  -22.4634 C   0  0  1  0  0  0  0  0  0  0  0  0
   10.1646   13.7742  -19.4593 C   0  0  0  0  0  0  0  0  0  0  0  0
    8.6673   12.0027  -20.4451 N   0  0  0  0  0  0  0  0  0  0  0  0
    9.4019   13.1130  -20.5504 C   0  0  0  0  0  0  0  0  0  0  0  0
    8.1298   11.7068  -21.6393 C   0  0  0  0  0  0  0  0  0  0  0  0
    8.0947   12.5696  -23.8862 C   0  0  0  0  0  0  0  0  0  0  0  0
    7.2727   11.5428  -24.2975 C   0  0  0  0  0  0  0  0  0  0  0  0
   11.2983   14.5334  -19.9377 N   0  0  0  0  0  4  0  0  0  0  0  0
   15.6976   14.6914  -18.7250 C   0  0  0  0  0  0  0  0  0  0  0  0
   14.6430   13.6560  -16.8489 C   0  0  0  0  0  0  0  0  0  0  0  0
   13.2745   14.8224  -18.4832 C   0  0  0  0  0  0  0  0  0  0  0  0
   11.9594   15.2304  -18.9178 C   0  0  0  0  0  0  0  0  0  0  0  0
   17.1281   13.6800  -17.3573 C   0  0  0  0  0  0  0  0  0  0  0  0
   17.7879   14.2590  -18.4207 C   0  0  0  0  0  0  0  0  0  0  0  0
   16.9252   14.8651  -19.2390 N   0  0  0  0  0  0  0  0  0  0  0  0
   17.2094   15.5862  -20.4547 C   0  0  0  0  0  0  0  0  0  0  0  0
   17.1949   14.6424  -21.6182 C   0  0  0  0  0  0  0  0  0  0  0  0
   16.6232   14.8529  -22.8710 C   0  0  0  0  0  0  0  0  0  0  0  0
   16.8164   13.7610  -23.6600 N   0  0  0  0  0  0  0  0  0  0  0  0
   17.4983   12.8829  -22.9098 C   0  0  0  0  0  0  0  0  0  0  0  0
   17.7263   13.4040  -21.6919 N   0  0  0  0  0  0  0  0  0  0  0  0
   16.3695   13.5891  -25.0359 C   0  0  0  0  0  0  0  0  0  0  0  0
  2  1  2  0
 15  1  1  0
  3  2  1  0
  2 13  1  0
  5  3  2  0
  4 14  2  0
 16  4  1  0
  4 17  1  0
  5 17  1  0
 18  5  1  0
  6  7  1  0
 18  6  1  1
 21  6  2  0
 22  7  2  0
  7 23  1  0
  9  8  2  0
  8 24  1  0
 22  9  1  0
 26 10  2  0
 27 10  1  0
 10 30  1  0
 11 27  2  0
 28 11  1  0
 12 26  1  0
 28 12  2  0
 17 15  2  0
 18 16  1  0
 19 21  1  1
 25 19  1  1
 21 20  1  0
 20 22  1  0
 23 24  2  0
 29 25  1  0
 26 32  1  0
 29 28  1  6
 30 31  2  0
 31 32  1  0
 33 32  1  1
 33 34  1  0
 34 35  2  0
 34 38  1  0
 35 36  1  0
 36 37  1  0
 39 36  1  1
 37 38  2  0
M  CHG  1  25   1
M  END
$$$$
