
     RDKit          3D

 39 45  0  0  0  0  0  0  0  0999 V2000
   16.4891   15.8946  -16.6487 C   0  0  0  0  0  0  0  0  0  0  0  0
   16.1438   14.5696  -16.7398 C   0  0  0  0  0  0  0  0  0  0  0  0
   15.8170   14.0659  -17.9773 C   0  0  0  0  0  0  0  0  0  0  0  0
   16.0937   16.8086  -20.3387 C   0  0  0  0  0  0  0  0  0  0  0  0
   15.8214   14.8290  -19.1203 C   0  0  0  0  0  0  0  0  0  0  0  0
   14.2176   13.9003  -20.7801 C   0  0  0  0  0  0  0  0  0  0  0  0
   14.0658   12.5514  -21.0589 C   0  0  0  0  0  0  0  0  0  0  0  0
   13.0801   10.0239  -21.6300 C   0  0  0  0  0  0  0  0  0  0  0  0
   12.2253   11.0904  -21.4767 C   0  0  0  0  0  0  0  0  0  0  0  0
   10.0828   21.2306  -22.5161 C   0  0  0  0  0  0  0  0  0  0  0  0
   10.9893   19.8542  -20.7590 C   0  0  0  0  0  0  0  0  0  0  0  0
    9.9287   18.8553  -22.5948 C   0  0  0  0  0  0  0  0  0  0  0  0
   16.1233   13.7452  -15.5998 O   0  0  0  0  0  0  0  0  0  0  0  0
   16.3532   18.0107  -20.5619 O   0  0  0  0  0  0  0  0  0  0  0  0
   16.5014   16.6837  -17.7792 C   0  0  0  0  0  0  0  0  0  0  0  0
   15.6834   15.8034  -21.2289 N   0  0  0  0  0  0  0  0  0  0  0  0
   16.1740   16.1855  -19.0249 C   0  0  0  0  0  0  0  0  0  0  0  0
   15.5476   14.5570  -20.5325 C   0  0  1  0  0  0  0  0  0  0  0  0
   12.7077   15.9338  -20.4784 C   0  0  0  0  0  0  0  0  0  0  0  0
   12.0697   13.5515  -20.9981 N   0  0  0  0  0  0  0  0  0  0  0  0
   12.9787   14.4972  -20.7473 C   0  0  0  0  0  0  0  0  0  0  0  0
   12.6885   12.3755  -21.1890 C   0  0  0  0  0  0  0  0  0  0  0  0
   14.9199   11.4732  -21.2145 C   0  0  0  0  0  0  0  0  0  0  0  0
   14.4376   10.2139  -21.4985 C   0  0  0  0  0  0  0  0  0  0  0  0
   11.7463   16.5113  -21.3909 N   0  0  0  0  0  4  0  0  0  0  0  0
    9.6655   20.0764  -23.1741 C   0  0  0  0  0  0  0  0  0  0  0  0
   10.7418   21.1169  -21.3133 C   0  0  0  0  0  0  0  0  0  0  0  0
   10.5871   18.6932  -21.3897 C   0  0  0  0  0  0  0  0  0  0  0  0
   10.8822   17.4229  -20.7699 C   0  0  0  0  0  0  0  0  0  0  0  0
    9.6993   22.2950  -23.3033 C   0  0  0  0  0  0  0  0  0  0  0  0
    9.0687   21.7466  -24.4001 C   0  0  0  0  0  0  0  0  0  0  0  0
    9.0506   20.4147  -24.3182 N   0  0  0  0  0  0  0  0  0  0  0  0
    8.4862   19.4739  -25.2537 C   0  0  0  0  0  0  0  0  0  0  0  0
    6.9922   19.4834  -25.1419 C   0  0  0  0  0  0  0  0  0  0  0  0
    6.0669   19.5816  -26.1786 C   0  0  0  0  0  0  0  0  0  0  0  0
    4.8020   19.5571  -25.6773 N   0  0  0  0  0  0  0  0  0  0  0  0
    4.9369   19.4454  -24.3476 C   0  0  0  0  0  0  0  0  0  0  0  0
    6.2408   19.4010  -24.0237 N   0  0  0  0  0  0  0  0  0  0  0  0
    3.5612   19.6376  -26.4365 C   0  0  0  0  0  0  0  0  0  0  0  0
  2  1  2  0
 15  1  1  0
  3  2  1  0
  2 13  1  0
  5  3  2  0
  4 14  2  0
 16  4  1  0
  4 17  1  0
  5 17  1  0
 18  5  1  0
  6  7  1  0
 18  6  1  1
 21  6  2  0
 22  7  2  0
  7 23  1  0
  9  8  2  0
  8 24  1  0
 22  9  1  0
 26 10  2  0
 27 10  1  0
 10 30  1  0
 11 27  2  0
 28 11  1  0
 12 26  1  0
 28 12  2  0
 17 15  2  0
 18 16  1  0
 19 21  1  1
 25 19  1  1
 21 20  1  0
 20 22  1  0
 23 24  2  0
 29 25  1  0
 26 32  1  0
 29 28  1  6
 30 31  2  0
 31 32  1  0
 33 32  1  1
 33 34  1  0
 34 35  2  0
 34 38  1  0
 35 36  1  0
 36 37  1  0
 39 36  1  1
 37 38  2  0
M  CHG  1  25   1
M  END
$$$$
