
     RDKit          3D

 21 23  0  0  0  0  0  0  0  0999 V2000
   -5.7713   -3.0969   32.3596 C   0  0  0  0  0  0  0  0  0  0  0  0
   -3.1284   -0.6425   27.9571 C   0  0  1  0  0  0  0  0  0  0  0  0
   -4.2646    0.2325   28.3575 C   0  0  0  0  0  0  0  0  0  0  0  0
   -2.9859   -0.7900   26.4627 C   0  0  0  0  0  0  0  0  0  0  0  0
   -1.6757   -0.1748   26.0115 C   0  0  0  0  0  0  0  0  0  0  0  0
   -1.6817    1.2734   26.4912 C   0  0  0  0  0  0  0  0  0  0  0  0
   -1.4770    1.2428   27.9822 C   0  0  0  0  0  0  0  0  0  0  0  0
   -1.8692   -0.0845   28.5872 C   0  0  0  0  0  0  0  0  0  0  0  0
   -5.2444   -0.3612   29.2135 N   0  0  0  0  0  0  0  0  0  0  0  0
   -5.7540   -1.6743   29.0328 C   0  0  0  0  0  0  0  0  0  0  0  0
   -6.0390   -1.9749   27.8248 O   0  0  0  0  0  0  0  0  0  0  0  0
   -5.9537   -2.6379   30.1068 C   0  0  0  0  0  0  0  0  0  0  0  0
   -5.6297   -2.3017   31.3275 O   0  0  0  0  0  0  0  0  0  0  0  0
   -5.4074   -2.6844   33.6458 C   0  0  0  0  0  0  0  0  0  0  0  0
   -5.5615   -3.5311   34.7236 C   0  0  0  0  0  0  0  0  0  0  0  0
   -6.0743   -4.7993   34.5702 C   0  0  0  0  0  0  0  0  0  0  0  0
   -6.4346   -5.2114   33.3050 C   0  0  0  0  0  0  0  0  0  0  0  0
   -6.2856   -4.3684   32.2041 C   0  0  0  0  0  0  0  0  0  0  0  0
   -6.6404   -4.7659   30.9388 C   0  0  0  0  0  0  0  0  0  0  0  0
   -7.1153   -5.9031   30.7062 O   0  0  0  0  0  0  0  0  0  0  0  0
   -6.4712   -3.8916   29.8886 C   0  0  0  0  0  0  0  0  0  0  0  0
 13  1  1  0
  1 14  2  0
  1 18  1  0
  2  3  1  6
  2  4  1  0
  8  2  1  1
  3  9  1  6
  4  5  1  6
  5  6  1  6
  6  7  1  6
  7  8  1  6
 10  9  1  0
 10 11  2  0
 12 10  1  0
 12 13  1  0
 12 21  2  0
 14 15  1  0
 15 16  2  0
 16 17  1  0
 17 18  2  0
 18 19  1  0
 19 20  2  0
 19 21  1  0
M  END
$$$$
