
     RDKit          3D

 21 23  0  0  0  0  0  0  0  0999 V2000
   14.4624  -24.8093   31.9960 C   0  0  0  0  0  0  0  0  0  0  0  0
   11.8981  -28.1852   27.3398 C   0  0  1  0  0  0  0  0  0  0  0  0
   13.3265  -28.4303   27.7541 C   0  0  0  0  0  0  0  0  0  0  0  0
   11.5480  -29.2725   26.3241 C   0  0  0  0  0  0  0  0  0  0  0  0
   10.1620  -29.0043   25.8447 C   0  0  0  0  0  0  0  0  0  0  0  0
    9.1345  -28.8605   26.8988 C   0  0  0  0  0  0  0  0  0  0  0  0
    9.5620  -28.4339   28.2328 C   0  0  0  0  0  0  0  0  0  0  0  0
   11.0196  -28.4518   28.5263 C   0  0  0  0  0  0  0  0  0  0  0  0
   13.7152  -27.6052   28.8718 N   0  0  0  0  0  0  0  0  0  0  0  0
   14.2369  -26.3063   28.6817 C   0  0  0  0  0  0  0  0  0  0  0  0
   14.4638  -25.9561   27.4778 O   0  0  0  0  0  0  0  0  0  0  0  0
   14.5137  -25.3891   29.7691 C   0  0  0  0  0  0  0  0  0  0  0  0
   14.2125  -25.6375   31.0140 O   0  0  0  0  0  0  0  0  0  0  0  0
   14.0964  -25.1801   33.2860 C   0  0  0  0  0  0  0  0  0  0  0  0
   14.3523  -24.3187   34.3351 C   0  0  0  0  0  0  0  0  0  0  0  0
   14.9653  -23.1017   34.1060 C   0  0  0  0  0  0  0  0  0  0  0  0
   15.3273  -22.7374   32.8229 C   0  0  0  0  0  0  0  0  0  0  0  0
   15.0734  -23.5954   31.7706 C   0  0  0  0  0  0  0  0  0  0  0  0
   15.4214  -23.2630   30.4794 C   0  0  0  0  0  0  0  0  0  0  0  0
   15.9723  -22.1752   30.2549 O   0  0  0  0  0  0  0  0  0  0  0  0
   15.1246  -24.1919   29.4903 C   0  0  0  0  0  0  0  0  0  0  0  0
 13  1  1  0
  1 14  2  0
  1 18  1  0
  2  3  1  1
  2  4  1  0
  2  8  1  0
  9  3  1  0
  4  5  1  0
  5  6  1  0
  7  6  1  0
  8  7  1  0
 10  9  1  0
 10 11  2  0
 12 10  1  0
 12 13  1  0
 12 21  2  0
 14 15  1  0
 15 16  2  0
 16 17  1  0
 17 18  2  0
 18 19  1  0
 19 20  2  0
 19 21  1  0
M  END
$$$$
