
     RDKit          3D

 21 23  0  0  0  0  0  0  0  0999 V2000
   -5.5142   -3.6782   31.7029 C   0  0  0  0  0  0  0  0  0  0  0  0
   -3.0389   -0.2551   28.2080 C   0  0  1  0  0  0  0  0  0  0  0  0
   -4.3748   -0.4982   27.5971 C   0  0  0  0  0  0  0  0  0  0  0  0
   -2.0120   -1.2938   27.8314 C   0  0  0  0  0  0  0  0  0  0  0  0
   -0.9094   -0.6490   27.0147 C   0  0  0  0  0  0  0  0  0  0  0  0
   -1.5808    0.0175   25.8179 C   0  0  0  0  0  0  0  0  0  0  0  0
   -2.2932    1.2375   26.3376 C   0  0  0  0  0  0  0  0  0  0  0  0
   -2.5959    1.1387   27.8141 C   0  0  0  0  0  0  0  0  0  0  0  0
   -5.4058   -0.9284   28.4899 N   0  0  0  0  0  0  0  0  0  0  0  0
   -5.4606   -0.5640   29.8614 C   0  0  0  0  0  0  0  0  0  0  0  0
   -5.3123    0.6838   30.0887 O   0  0  0  0  0  0  0  0  0  0  0  0
   -5.6672   -1.5010   30.9574 C   0  0  0  0  0  0  0  0  0  0  0  0
   -5.3648   -2.7601   30.7797 O   0  0  0  0  0  0  0  0  0  0  0  0
   -5.1736   -5.0127   31.4576 C   0  0  0  0  0  0  0  0  0  0  0  0
   -5.3358   -5.9693   32.4378 C   0  0  0  0  0  0  0  0  0  0  0  0
   -5.8339   -5.6449   33.6794 C   0  0  0  0  0  0  0  0  0  0  0  0
   -6.1712   -4.3313   33.9269 C   0  0  0  0  0  0  0  0  0  0  0  0
   -6.0138   -3.3512   32.9474 C   0  0  0  0  0  0  0  0  0  0  0  0
   -6.3457   -2.0396   33.1804 C   0  0  0  0  0  0  0  0  0  0  0  0
   -6.8061   -1.6543   34.2815 O   0  0  0  0  0  0  0  0  0  0  0  0
   -6.1692   -1.1142   32.1762 C   0  0  0  0  0  0  0  0  0  0  0  0
 13  1  1  0
  1 14  2  0
  1 18  1  0
  2  3  1  6
  2  4  1  0
  8  2  1  1
  3  9  1  6
  4  5  1  6
  5  6  1  6
  6  7  1  6
  7  8  1  6
 10  9  1  0
 10 11  2  0
 12 10  1  0
 12 13  1  0
 12 21  2  0
 14 15  1  0
 15 16  2  0
 16 17  1  0
 17 18  2  0
 18 19  1  0
 19 20  2  0
 19 21  1  0
M  END
$$$$
