
     RDKit          3D

 21 23  0  0  0  0  0  0  0  0999 V2000
   -5.7937   -3.2085   32.8223 C   0  0  0  0  0  0  0  0  0  0  0  0
   -3.2323    0.1838   27.6887 C   0  0  1  0  0  0  0  0  0  0  0  0
   -2.8005   -0.5931   28.9061 C   0  0  0  0  0  0  0  0  0  0  0  0
   -3.6773    1.5587   28.1865 C   0  0  0  0  0  0  0  0  0  0  0  0
   -4.1792    2.3187   27.0061 C   0  0  0  0  0  0  0  0  0  0  0  0
   -3.2530    2.4039   25.8562 C   0  0  0  0  0  0  0  0  0  0  0  0
   -2.2418    1.3565   25.6988 C   0  0  0  0  0  0  0  0  0  0  0  0
   -2.0168    0.4397   26.8476 C   0  0  0  0  0  0  0  0  0  0  0  0
   -3.9139   -0.9175   29.7643 N   0  0  0  0  0  0  0  0  0  0  0  0
   -4.7085   -2.0634   29.5379 C   0  0  0  0  0  0  0  0  0  0  0  0
   -4.8352   -2.4361   28.3261 O   0  0  0  0  0  0  0  0  0  0  0  0
   -5.3621   -2.8048   30.5978 C   0  0  0  0  0  0  0  0  0  0  0  0
   -5.2035   -2.5390   31.8652 O   0  0  0  0  0  0  0  0  0  0  0  0
   -5.5501   -2.8357   34.1403 C   0  0  0  0  0  0  0  0  0  0  0  0
   -6.1644   -3.5309   35.1638 C   0  0  0  0  0  0  0  0  0  0  0  0
   -7.0118   -4.5853   34.8818 C   0  0  0  0  0  0  0  0  0  0  0  0
   -7.2510   -4.9522   33.5710 C   0  0  0  0  0  0  0  0  0  0  0  0
   -6.6390   -4.2601   32.5441 C   0  0  0  0  0  0  0  0  0  0  0  0
   -6.8558   -4.5998   31.2265 C   0  0  0  0  0  0  0  0  0  0  0  0
   -7.6130   -5.5432   30.9544 O   0  0  0  0  0  0  0  0  0  0  0  0
   -6.1951   -3.8443   30.2663 C   0  0  0  0  0  0  0  0  0  0  0  0
 13  1  1  0
  1 14  2  0
  1 18  1  0
  2  3  1  1
  2  4  1  0
  2  8  1  0
  9  3  1  0
  4  5  1  0
  5  6  1  0
  7  6  1  0
  8  7  1  0
 10  9  1  0
 10 11  2  0
 12 10  1  0
 12 13  1  0
 12 21  2  0
 14 15  1  0
 15 16  2  0
 16 17  1  0
 17 18  2  0
 18 19  1  0
 19 20  2  0
 19 21  1  0
M  END
$$$$
