
     RDKit          3D

 21 23  0  0  0  0  0  0  0  0999 V2000
   -6.3235   -3.5515   31.8849 C   0  0  0  0  0  0  0  0  0  0  0  0
   -3.6835   -0.4129   26.8867 C   0  0  1  0  0  0  0  0  0  0  0  0
   -3.0355   -1.1076   28.0332 C   0  0  0  0  0  0  0  0  0  0  0  0
   -4.2410    0.9416   27.2468 C   0  0  0  0  0  0  0  0  0  0  0  0
   -3.4909    2.0201   26.4900 C   0  0  0  0  0  0  0  0  0  0  0  0
   -2.0136    1.8501   26.8308 C   0  0  0  0  0  0  0  0  0  0  0  0
   -1.5356    0.6186   26.1090 C   0  0  0  0  0  0  0  0  0  0  0  0
   -2.6680   -0.3207   25.7668 C   0  0  0  0  0  0  0  0  0  0  0  0
   -3.9121   -1.5766   29.0612 N   0  0  0  0  0  0  0  0  0  0  0  0
   -3.4812   -1.8973   30.3759 C   0  0  0  0  0  0  0  0  0  0  0  0
   -2.3073   -1.4880   30.6677 O   0  0  0  0  0  0  0  0  0  0  0  0
   -4.2772   -2.6319   31.3499 C   0  0  0  0  0  0  0  0  0  0  0  0
   -5.5271   -2.8976   31.0751 O   0  0  0  0  0  0  0  0  0  0  0  0
   -7.6545   -3.8082   31.5391 C   0  0  0  0  0  0  0  0  0  0  0  0
   -8.4822   -4.4975   32.4004 C   0  0  0  0  0  0  0  0  0  0  0  0
   -8.0296   -4.9518   33.6184 C   0  0  0  0  0  0  0  0  0  0  0  0
   -6.7188   -4.7018   33.9646 C   0  0  0  0  0  0  0  0  0  0  0  0
   -5.8680   -4.0063   33.1059 C   0  0  0  0  0  0  0  0  0  0  0  0
   -4.5607   -3.7505   33.4380 C   0  0  0  0  0  0  0  0  0  0  0  0
   -4.0637   -4.1267   34.5264 O   0  0  0  0  0  0  0  0  0  0  0  0
   -3.7660   -3.0592   32.5512 C   0  0  0  0  0  0  0  0  0  0  0  0
 13  1  1  0
  1 14  2  0
  1 18  1  0
  2  3  1  1
  2  4  1  0
  8  2  1  1
  3  9  1  6
  4  5  1  6
  5  6  1  6
  6  7  1  6
  7  8  1  6
 10  9  1  0
 10 11  2  0
 12 10  1  0
 12 13  1  0
 12 21  2  0
 14 15  1  0
 15 16  2  0
 16 17  1  0
 17 18  2  0
 18 19  1  0
 19 20  2  0
 19 21  1  0
M  END
$$$$
