
     RDKit          3D

 21 23  0  0  0  0  0  0  0  0999 V2000
   14.4613  -24.5605   32.1001 C   0  0  0  0  0  0  0  0  0  0  0  0
   11.7233  -28.3491   27.6337 C   0  0  1  0  0  0  0  0  0  0  0  0
   13.1832  -27.9811   27.7083 C   0  0  0  0  0  0  0  0  0  0  0  0
   10.9416  -27.0367   27.6880 C   0  0  0  0  0  0  0  0  0  0  0  0
    9.4913  -27.3821   27.6907 C   0  0  0  0  0  0  0  0  0  0  0  0
    9.0398  -28.2665   26.5946 C   0  0  0  0  0  0  0  0  0  0  0  0
   10.0212  -29.1560   25.9701 C   0  0  0  0  0  0  0  0  0  0  0  0
   11.4573  -28.9141   26.2697 C   0  0  0  0  0  0  0  0  0  0  0  0
   13.4792  -27.1728   28.8660 N   0  0  0  0  0  0  0  0  0  0  0  0
   14.4296  -26.1290   28.8115 C   0  0  0  0  0  0  0  0  0  0  0  0
   15.1100  -26.0361   27.7383 O   0  0  0  0  0  0  0  0  0  0  0  0
   14.6510  -25.1924   29.8950 C   0  0  0  0  0  0  0  0  0  0  0  0
   14.2614  -25.4063   31.1217 O   0  0  0  0  0  0  0  0  0  0  0  0
   14.0015  -24.8944   33.3700 C   0  0  0  0  0  0  0  0  0  0  0  0
   14.2035  -24.0140   34.4151 C   0  0  0  0  0  0  0  0  0  0  0  0
   14.8552  -22.8143   34.2018 C   0  0  0  0  0  0  0  0  0  0  0  0
   15.3103  -22.4866   32.9387 C   0  0  0  0  0  0  0  0  0  0  0  0
   15.1107  -23.3638   31.8904 C   0  0  0  0  0  0  0  0  0  0  0  0
   15.5517  -23.0679   30.6189 C   0  0  0  0  0  0  0  0  0  0  0  0
   16.1385  -21.9961   30.4087 O   0  0  0  0  0  0  0  0  0  0  0  0
   15.3035  -24.0136   29.6323 C   0  0  0  0  0  0  0  0  0  0  0  0
 13  1  1  0
  1 14  2  0
  1 18  1  0
  2  3  1  6
  2  4  1  0
  2  8  1  0
  9  3  1  0
  4  5  1  0
  5  6  1  0
  7  6  1  0
  8  7  1  0
 10  9  1  0
 10 11  2  0
 12 10  1  0
 12 13  1  0
 12 21  2  0
 14 15  1  0
 15 16  2  0
 16 17  1  0
 17 18  2  0
 18 19  1  0
 19 20  2  0
 19 21  1  0
M  END
$$$$
