
     RDKit          3D

 21 23  0  0  0  0  0  0  0  0999 V2000
   14.4763  -24.6523   32.0316 C   0  0  0  0  0  0  0  0  0  0  0  0
   11.9039  -28.5990   27.7716 C   0  0  1  0  0  0  0  0  0  0  0  0
   13.3727  -28.2606   27.7704 C   0  0  0  0  0  0  0  0  0  0  0  0
   11.1523  -27.2707   27.6867 C   0  0  0  0  0  0  0  0  0  0  0  0
    9.6954  -27.5779   27.7619 C   0  0  0  0  0  0  0  0  0  0  0  0
    9.1983  -28.5744   26.7886 C   0  0  0  0  0  0  0  0  0  0  0  0
   10.1446  -29.5552   26.2529 C   0  0  0  0  0  0  0  0  0  0  0  0
   11.5925  -29.3146   26.4905 C   0  0  0  0  0  0  0  0  0  0  0  0
   13.7393  -27.4362   28.8963 N   0  0  0  0  0  0  0  0  0  0  0  0
   14.3076  -26.1555   28.7168 C   0  0  0  0  0  0  0  0  0  0  0  0
   14.6154  -25.8330   27.5231 O   0  0  0  0  0  0  0  0  0  0  0  0
   14.5451  -25.2270   29.8039 C   0  0  0  0  0  0  0  0  0  0  0  0
   14.2618  -25.4907   31.0499 O   0  0  0  0  0  0  0  0  0  0  0  0
   14.1343  -25.0413   33.3228 C   0  0  0  0  0  0  0  0  0  0  0  0
   14.3534  -24.1695   34.3717 C   0  0  0  0  0  0  0  0  0  0  0  0
   14.9063  -22.9243   34.1411 C   0  0  0  0  0  0  0  0  0  0  0  0
   15.2445  -22.5420   32.8569 C   0  0  0  0  0  0  0  0  0  0  0  0
   15.0273  -23.4102   31.8048 C   0  0  0  0  0  0  0  0  0  0  0  0
   15.3530  -23.0605   30.5124 C   0  0  0  0  0  0  0  0  0  0  0  0
   15.8501  -21.9473   30.2865 O   0  0  0  0  0  0  0  0  0  0  0  0
   15.0966  -24.0016   29.5236 C   0  0  0  0  0  0  0  0  0  0  0  0
 13  1  1  0
  1 14  2  0
  1 18  1  0
  2  3  1  6
  2  4  1  0
  2  8  1  0
  9  3  1  0
  4  5  1  0
  5  6  1  0
  7  6  1  0
  8  7  1  0
 10  9  1  0
 10 11  2  0
 12 10  1  0
 12 13  1  0
 12 21  2  0
 14 15  1  0
 15 16  2  0
 16 17  1  0
 17 18  2  0
 18 19  1  0
 19 20  2  0
 19 21  1  0
M  END
$$$$
