
     RDKit          3D

 21 23  0  0  0  0  0  0  0  0999 V2000
   -5.8719   -3.0462   32.7714 C   0  0  0  0  0  0  0  0  0  0  0  0
   -3.2938   -0.7421   27.9428 C   0  0  1  0  0  0  0  0  0  0  0  0
   -4.6264   -0.1417   28.2266 C   0  0  0  0  0  0  0  0  0  0  0  0
   -2.8118   -0.4887   26.5361 C   0  0  0  0  0  0  0  0  0  0  0  0
   -1.5664    0.3752   26.5710 C   0  0  0  0  0  0  0  0  0  0  0  0
   -1.9321    1.6433   27.3362 C   0  0  0  0  0  0  0  0  0  0  0  0
   -2.0482    1.2620   28.7878 C   0  0  0  0  0  0  0  0  0  0  0  0
   -2.3179   -0.2126   28.9729 C   0  0  0  0  0  0  0  0  0  0  0  0
   -5.3665   -0.7313   29.2989 N   0  0  0  0  0  0  0  0  0  0  0  0
   -5.8348   -2.0719   29.2869 C   0  0  0  0  0  0  0  0  0  0  0  0
   -6.0611   -2.5481   28.1238 O   0  0  0  0  0  0  0  0  0  0  0  0
   -6.0552   -2.8806   30.4783 C   0  0  0  0  0  0  0  0  0  0  0  0
   -5.7141   -2.3972   31.6438 O   0  0  0  0  0  0  0  0  0  0  0  0
   -5.4884   -2.4797   33.9917 C   0  0  0  0  0  0  0  0  0  0  0  0
   -5.6599   -3.1734   35.1714 C   0  0  0  0  0  0  0  0  0  0  0  0
   -6.2095   -4.4353   35.1865 C   0  0  0  0  0  0  0  0  0  0  0  0
   -6.5893   -4.9987   33.9870 C   0  0  0  0  0  0  0  0  0  0  0  0
   -6.4232   -4.3116   32.7848 C   0  0  0  0  0  0  0  0  0  0  0  0
   -6.7970   -4.8606   31.5833 C   0  0  0  0  0  0  0  0  0  0  0  0
   -7.3055   -6.0042   31.5027 O   0  0  0  0  0  0  0  0  0  0  0  0
   -6.6095   -4.1364   30.4274 C   0  0  0  0  0  0  0  0  0  0  0  0
 13  1  1  0
  1 14  2  0
  1 18  1  0
  2  3  1  6
  2  4  1  0
  8  2  1  1
  3  9  1  6
  4  5  1  6
  5  6  1  6
  6  7  1  6
  7  8  1  6
 10  9  1  0
 10 11  2  0
 12 10  1  0
 12 13  1  0
 12 21  2  0
 14 15  1  0
 15 16  2  0
 16 17  1  0
 17 18  2  0
 18 19  1  0
 19 20  2  0
 19 21  1  0
M  END
$$$$
