
     RDKit          3D

 21 23  0  0  0  0  0  0  0  0999 V2000
   -5.6798   -3.0925   32.5808 C   0  0  0  0  0  0  0  0  0  0  0  0
   -3.5429   -0.3469   27.0067 C   0  0  1  0  0  0  0  0  0  0  0  0
   -3.0955   -0.5034   28.4182 C   0  0  0  0  0  0  0  0  0  0  0  0
   -4.3197    0.9231   26.7638 C   0  0  0  0  0  0  0  0  0  0  0  0
   -3.5472    1.8209   25.8173 C   0  0  0  0  0  0  0  0  0  0  0  0
   -2.1759    2.0468   26.4463 C   0  0  0  0  0  0  0  0  0  0  0  0
   -1.4083    0.7602   26.2995 C   0  0  0  0  0  0  0  0  0  0  0  0
   -2.3180   -0.4323   26.1201 C   0  0  0  0  0  0  0  0  0  0  0  0
   -4.0956   -0.9175   29.3528 N   0  0  0  0  0  0  0  0  0  0  0  0
   -4.8789   -2.0918   29.1972 C   0  0  0  0  0  0  0  0  0  0  0  0
   -5.0655   -2.4526   27.9865 O   0  0  0  0  0  0  0  0  0  0  0  0
   -5.4463   -2.8583   30.2983 C   0  0  0  0  0  0  0  0  0  0  0  0
   -5.2147   -2.4709   31.5250 O   0  0  0  0  0  0  0  0  0  0  0  0
   -5.4001   -2.6331   33.8722 C   0  0  0  0  0  0  0  0  0  0  0  0
   -5.8957   -3.2965   34.9752 C   0  0  0  0  0  0  0  0  0  0  0  0
   -6.6755   -4.4231   34.8424 C   0  0  0  0  0  0  0  0  0  0  0  0
   -6.9545   -4.8805   33.5722 C   0  0  0  0  0  0  0  0  0  0  0  0
   -6.4616   -4.2221   32.4460 C   0  0  0  0  0  0  0  0  0  0  0  0
   -6.7316   -4.6667   31.1755 C   0  0  0  0  0  0  0  0  0  0  0  0
   -7.4328   -5.6841   30.9605 O   0  0  0  0  0  0  0  0  0  0  0  0
   -6.2185   -3.9769   30.1000 C   0  0  0  0  0  0  0  0  0  0  0  0
 13  1  1  0
  1 14  2  0
  1 18  1  0
  2  3  1  1
  2  4  1  0
  8  2  1  1
  3  9  1  6
  4  5  1  6
  5  6  1  6
  6  7  1  6
  7  8  1  6
 10  9  1  0
 10 11  2  0
 12 10  1  0
 12 13  1  0
 12 21  2  0
 14 15  1  0
 15 16  2  0
 16 17  1  0
 17 18  2  0
 18 19  1  0
 19 20  2  0
 19 21  1  0
M  END
$$$$
