
     RDKit          3D

 21 23  0  0  0  0  0  0  0  0999 V2000
   14.3869  -24.7143   32.5260 C   0  0  0  0  0  0  0  0  0  0  0  0
   11.9830  -28.4866   27.9236 C   0  0  1  0  0  0  0  0  0  0  0  0
   13.2683  -27.8928   27.4630 C   0  0  0  0  0  0  0  0  0  0  0  0
   10.8672  -27.4783   28.0408 C   0  0  0  0  0  0  0  0  0  0  0  0
    9.7780  -27.8031   27.0375 C   0  0  0  0  0  0  0  0  0  0  0  0
   10.4405  -27.8339   25.6636 C   0  0  0  0  0  0  0  0  0  0  0  0
   11.2626  -29.0934   25.6009 C   0  0  0  0  0  0  0  0  0  0  0  0
   11.6246  -29.6101   26.9733 C   0  0  0  0  0  0  0  0  0  0  0  0
   13.7567  -26.7838   28.2225 N   0  0  0  0  0  0  0  0  0  0  0  0
   13.3575  -26.5083   29.5572 C   0  0  0  0  0  0  0  0  0  0  0  0
   12.4269  -27.2610   30.0024 O   0  0  0  0  0  0  0  0  0  0  0  0
   13.9325  -25.4623   30.3922 C   0  0  0  0  0  0  0  0  0  0  0  0
   13.8972  -25.5984   31.6916 O   0  0  0  0  0  0  0  0  0  0  0  0
   14.3217  -24.9116   33.9094 C   0  0  0  0  0  0  0  0  0  0  0  0
   14.8408  -23.9733   34.7768 C   0  0  0  0  0  0  0  0  0  0  0  0
   15.4352  -22.8214   34.3134 C   0  0  0  0  0  0  0  0  0  0  0  0
   15.5024  -22.6215   32.9510 C   0  0  0  0  0  0  0  0  0  0  0  0
   14.9826  -23.5597   32.0597 C   0  0  0  0  0  0  0  0  0  0  0  0
   15.0428  -23.3733   30.7009 C   0  0  0  0  0  0  0  0  0  0  0  0
   15.5659  -22.3540   30.1906 O   0  0  0  0  0  0  0  0  0  0  0  0
   14.5132  -24.3332   29.8678 C   0  0  0  0  0  0  0  0  0  0  0  0
 13  1  1  0
  1 14  2  0
  1 18  1  0
  2  3  1  6
  2  4  1  0
  8  2  1  1
  3  9  1  6
  4  5  1  6
  5  6  1  6
  6  7  1  6
  7  8  1  6
 10  9  1  0
 10 11  2  0
 12 10  1  0
 12 13  1  0
 12 21  2  0
 14 15  1  0
 15 16  2  0
 16 17  1  0
 17 18  2  0
 18 19  1  0
 19 20  2  0
 19 21  1  0
M  END
$$$$
