
     RDKit          3D

 21 23  0  0  0  0  0  0  0  0999 V2000
   14.4434  -24.9239   32.8569 C   0  0  0  0  0  0  0  0  0  0  0  0
   12.6421  -28.0924   27.3278 C   0  0  1  0  0  0  0  0  0  0  0  0
   11.5428  -27.6429   28.2258 C   0  0  0  0  0  0  0  0  0  0  0  0
   12.6870  -29.5887   27.1415 C   0  0  0  0  0  0  0  0  0  0  0  0
   12.3931  -29.9320   25.6943 C   0  0  0  0  0  0  0  0  0  0  0  0
   11.0414  -29.3086   25.3602 C   0  0  0  0  0  0  0  0  0  0  0  0
   11.2571  -27.8224   25.2563 C   0  0  0  0  0  0  0  0  0  0  0  0
   12.4868  -27.3682   26.0067 C   0  0  0  0  0  0  0  0  0  0  0  0
   11.8721  -26.6037   29.1515 N   0  0  0  0  0  0  0  0  0  0  0  0
   12.7558  -26.7797   30.2491 C   0  0  0  0  0  0  0  0  0  0  0  0
   12.8923  -27.9889   30.6363 O   0  0  0  0  0  0  0  0  0  0  0  0
   13.4724  -25.6997   30.9141 C   0  0  0  0  0  0  0  0  0  0  0  0
   13.7993  -25.8370   32.1721 O   0  0  0  0  0  0  0  0  0  0  0  0
   14.7680  -25.1241   34.2028 C   0  0  0  0  0  0  0  0  0  0  0  0
   15.4461  -24.1551   34.9122 C   0  0  0  0  0  0  0  0  0  0  0  0
   15.8226  -22.9689   34.3240 C   0  0  0  0  0  0  0  0  0  0  0  0
   15.5054  -22.7659   32.9978 C   0  0  0  0  0  0  0  0  0  0  0  0
   14.8202  -23.7349   32.2655 C   0  0  0  0  0  0  0  0  0  0  0  0
   14.4980  -23.5459   30.9444 C   0  0  0  0  0  0  0  0  0  0  0  0
   14.8013  -22.4964   30.3282 O   0  0  0  0  0  0  0  0  0  0  0  0
   13.8205  -24.5371   30.2705 C   0  0  0  0  0  0  0  0  0  0  0  0
 13  1  1  0
  1 14  2  0
  1 18  1  0
  2  3  1  1
  2  4  1  0
  8  2  1  1
  3  9  1  6
  4  5  1  6
  5  6  1  6
  6  7  1  6
  7  8  1  6
 10  9  1  0
 10 11  2  0
 12 10  1  0
 12 13  1  0
 12 21  2  0
 14 15  1  0
 15 16  2  0
 16 17  1  0
 17 18  2  0
 18 19  1  0
 19 20  2  0
 19 21  1  0
M  END
$$$$
