
     RDKit          3D

 21 23  0  0  0  0  0  0  0  0999 V2000
   14.1219  -24.3345   31.9585 C   0  0  0  0  0  0  0  0  0  0  0  0
   11.2723  -27.3606   27.6190 C   0  0  1  0  0  0  0  0  0  0  0  0
   11.9530  -28.2169   28.6291 C   0  0  0  0  0  0  0  0  0  0  0  0
   11.9489  -27.3746   26.2708 C   0  0  0  0  0  0  0  0  0  0  0  0
   11.0261  -27.9997   25.2431 C   0  0  0  0  0  0  0  0  0  0  0  0
   10.6612  -29.3860   25.7651 C   0  0  0  0  0  0  0  0  0  0  0  0
    9.7069  -29.1859   26.9120 C   0  0  0  0  0  0  0  0  0  0  0  0
    9.8294  -27.8113   27.5260 C   0  0  0  0  0  0  0  0  0  0  0  0
   12.7398  -27.5315   29.6071 N   0  0  0  0  0  0  0  0  0  0  0  0
   13.8967  -26.7705   29.2925 C   0  0  0  0  0  0  0  0  0  0  0  0
   14.5051  -27.1375   28.2315 O   0  0  0  0  0  0  0  0  0  0  0  0
   14.3903  -25.6521   30.0847 C   0  0  0  0  0  0  0  0  0  0  0  0
   13.7567  -25.3231   31.1795 O   0  0  0  0  0  0  0  0  0  0  0  0
   13.4057  -24.0262   33.1199 C   0  0  0  0  0  0  0  0  0  0  0  0
   13.8006  -22.9831   33.9312 C   0  0  0  0  0  0  0  0  0  0  0  0
   14.9035  -22.2175   33.6272 C   0  0  0  0  0  0  0  0  0  0  0  0
   15.6133  -22.5166   32.4838 C   0  0  0  0  0  0  0  0  0  0  0  0
   15.2281  -23.5677   31.6521 C   0  0  0  0  0  0  0  0  0  0  0  0
   15.9257  -23.8764   30.5108 C   0  0  0  0  0  0  0  0  0  0  0  0
   16.9421  -23.2327   30.1564 O   0  0  0  0  0  0  0  0  0  0  0  0
   15.4998  -24.9253   29.7270 C   0  0  0  0  0  0  0  0  0  0  0  0
 13  1  1  0
  1 14  2  0
  1 18  1  0
  2  3  1  1
  2  4  1  0
  8  2  1  1
  3  9  1  6
  4  5  1  6
  5  6  1  6
  6  7  1  6
  7  8  1  6
 10  9  1  0
 10 11  2  0
 12 10  1  0
 12 13  1  0
 12 21  2  0
 14 15  1  0
 15 16  2  0
 16 17  1  0
 17 18  2  0
 18 19  1  0
 19 20  2  0
 19 21  1  0
M  END
$$$$
