
     RDKit          3D

 21 23  0  0  0  0  0  0  0  0999 V2000
   14.5473  -24.8206   31.8147 C   0  0  0  0  0  0  0  0  0  0  0  0
   11.9628  -28.4548   27.5270 C   0  0  1  0  0  0  0  0  0  0  0  0
   13.4618  -28.3064   27.4729 C   0  0  0  0  0  0  0  0  0  0  0  0
   11.3782  -27.0880   27.1712 C   0  0  0  0  0  0  0  0  0  0  0  0
    9.8958  -27.1927   27.2917 C   0  0  0  0  0  0  0  0  0  0  0  0
    9.2662  -28.2944   26.5319 C   0  0  0  0  0  0  0  0  0  0  0  0
   10.0773  -29.4709   26.2121 C   0  0  0  0  0  0  0  0  0  0  0  0
   11.5472  -29.3675   26.4113 C   0  0  0  0  0  0  0  0  0  0  0  0
   13.9707  -27.5427   28.5860 N   0  0  0  0  0  0  0  0  0  0  0  0
   14.3327  -26.1847   28.4428 C   0  0  0  0  0  0  0  0  0  0  0  0
   14.4313  -25.7459   27.2507 O   0  0  0  0  0  0  0  0  0  0  0  0
   14.5871  -25.3029   29.5644 C   0  0  0  0  0  0  0  0  0  0  0  0
   14.3175  -25.6168   30.8018 O   0  0  0  0  0  0  0  0  0  0  0  0
   14.2190  -25.2613   33.0927 C   0  0  0  0  0  0  0  0  0  0  0  0
   14.4544  -24.4345   34.1740 C   0  0  0  0  0  0  0  0  0  0  0  0
   15.0098  -23.1829   33.9884 C   0  0  0  0  0  0  0  0  0  0  0  0
   15.3343  -22.7491   32.7171 C   0  0  0  0  0  0  0  0  0  0  0  0
   15.1009  -23.5723   31.6327 C   0  0  0  0  0  0  0  0  0  0  0  0
   15.4127  -23.1706   30.3520 C   0  0  0  0  0  0  0  0  0  0  0  0
   15.9118  -22.0509   30.1663 O   0  0  0  0  0  0  0  0  0  0  0  0
   15.1404  -24.0691   29.3283 C   0  0  0  0  0  0  0  0  0  0  0  0
 13  1  1  0
  1 14  2  0
  1 18  1  0
  2  3  1  6
  2  4  1  0
  2  8  1  0
  9  3  1  0
  4  5  1  0
  5  6  1  0
  7  6  1  0
  8  7  1  0
 10  9  1  0
 10 11  2  0
 12 10  1  0
 12 13  1  0
 12 21  2  0
 14 15  1  0
 15 16  2  0
 16 17  1  0
 17 18  2  0
 18 19  1  0
 19 20  2  0
 19 21  1  0
M  END
$$$$
