
     RDKit          3D

 21 23  0  0  0  0  0  0  0  0999 V2000
    3.7905    6.4133   28.4453 C   0  0  0  0  0  0  0  0  0  0  0  0
    9.1690    4.4001   30.6799 C   0  0  1  0  0  0  0  0  0  0  0  0
    7.9842    4.4380   31.5809 C   0  0  0  0  0  0  0  0  0  0  0  0
    9.7418    5.7648   30.3888 C   0  0  0  0  0  0  0  0  0  0  0  0
   11.1395    5.8659   30.9674 C   0  0  0  0  0  0  0  0  0  0  0  0
   11.0235    5.5496   32.4553 C   0  0  0  0  0  0  0  0  0  0  0  0
   10.7796    4.0687   32.5716 C   0  0  0  0  0  0  0  0  0  0  0  0
   10.1985    3.4828   31.3064 C   0  0  0  0  0  0  0  0  0  0  0  0
    6.7443    4.8118   30.9742 N   0  0  0  0  0  0  0  0  0  0  0  0
    6.1350    4.0838   29.9180 C   0  0  0  0  0  0  0  0  0  0  0  0
    6.5915    2.9031   29.7504 O   0  0  0  0  0  0  0  0  0  0  0  0
    5.0713    4.5986   29.0662 C   0  0  0  0  0  0  0  0  0  0  0  0
    4.7330    5.8571   29.1662 O   0  0  0  0  0  0  0  0  0  0  0  0
    3.4695    7.7668   28.5942 C   0  0  0  0  0  0  0  0  0  0  0  0
    2.4753    8.3399   27.8292 C   0  0  0  0  0  0  0  0  0  0  0  0
    1.7720    7.6050   26.9017 C   0  0  0  0  0  0  0  0  0  0  0  0
    2.0839    6.2707   26.7505 C   0  0  0  0  0  0  0  0  0  0  0  0
    3.0862    5.6750   27.5156 C   0  0  0  0  0  0  0  0  0  0  0  0
    3.4070    4.3475   27.3754 C   0  0  0  0  0  0  0  0  0  0  0  0
    2.8186    3.6028   26.5554 O   0  0  0  0  0  0  0  0  0  0  0  0
    4.4057    3.8122   28.1576 C   0  0  0  0  0  0  0  0  0  0  0  0
 13  1  1  0
  1 14  2  0
  1 18  1  0
  2  3  1  1
  2  4  1  0
  8  2  1  1
  3  9  1  6
  4  5  1  6
  5  6  1  6
  6  7  1  6
  7  8  1  6
 10  9  1  0
 10 11  2  0
 12 10  1  0
 12 13  1  0
 12 21  2  0
 14 15  1  0
 15 16  2  0
 16 17  1  0
 17 18  2  0
 18 19  1  0
 19 20  2  0
 19 21  1  0
M  END
$$$$
