
     RDKit          3D

 21 23  0  0  0  0  0  0  0  0999 V2000
   -5.8760   -3.3457   32.7608 C   0  0  0  0  0  0  0  0  0  0  0  0
   -3.1540    0.1629   27.8828 C   0  0  1  0  0  0  0  0  0  0  0  0
   -3.2398   -0.5586   29.2034 C   0  0  0  0  0  0  0  0  0  0  0  0
   -3.4000    1.6420   28.1794 C   0  0  0  0  0  0  0  0  0  0  0  0
   -3.3936    2.3647   26.8754 C   0  0  0  0  0  0  0  0  0  0  0  0
   -2.2024    2.1467   26.0264 C   0  0  0  0  0  0  0  0  0  0  0  0
   -1.4418    0.9075   26.2004 C   0  0  0  0  0  0  0  0  0  0  0  0
   -1.7347    0.0842   27.4035 C   0  0  0  0  0  0  0  0  0  0  0  0
   -4.6056   -0.7657   29.6194 N   0  0  0  0  0  0  0  0  0  0  0  0
   -5.2527   -2.0070   29.4298 C   0  0  0  0  0  0  0  0  0  0  0  0
   -5.4278   -2.3776   28.2233 O   0  0  0  0  0  0  0  0  0  0  0  0
   -5.7089   -2.8453   30.5204 C   0  0  0  0  0  0  0  0  0  0  0  0
   -5.4640   -2.5888   31.7759 O   0  0  0  0  0  0  0  0  0  0  0  0
   -5.5553   -2.9737   34.0624 C   0  0  0  0  0  0  0  0  0  0  0  0
   -5.9815   -3.7605   35.1147 C   0  0  0  0  0  0  0  0  0  0  0  0
   -6.7186   -4.9050   34.8773 C   0  0  0  0  0  0  0  0  0  0  0  0
   -7.0349   -5.2708   33.5827 C   0  0  0  0  0  0  0  0  0  0  0  0
   -6.6109   -4.4873   32.5272 C   0  0  0  0  0  0  0  0  0  0  0  0
   -6.9090   -4.8234   31.2245 C   0  0  0  0  0  0  0  0  0  0  0  0
   -7.5694   -5.8468   30.9924 O   0  0  0  0  0  0  0  0  0  0  0  0
   -6.4382   -3.9723   30.2330 C   0  0  0  0  0  0  0  0  0  0  0  0
 13  1  1  0
  1 14  2  0
  1 18  1  0
  2  3  1  1
  2  4  1  0
  2  8  1  0
  9  3  1  0
  4  5  1  0
  5  6  1  0
  7  6  1  0
  8  7  1  0
 10  9  1  0
 10 11  2  0
 12 10  1  0
 12 13  1  0
 12 21  2  0
 14 15  1  0
 15 16  2  0
 16 17  1  0
 17 18  2  0
 18 19  1  0
 19 20  2  0
 19 21  1  0
M  END
$$$$
