
     RDKit          3D

 21 23  0  0  0  0  0  0  0  0999 V2000
   -5.6505   -2.9326   32.7671 C   0  0  0  0  0  0  0  0  0  0  0  0
   -2.9053    0.8267   28.1724 C   0  0  1  0  0  0  0  0  0  0  0  0
   -3.9272   -0.2129   27.8693 C   0  0  0  0  0  0  0  0  0  0  0  0
   -1.5456    0.2540   28.4867 C   0  0  0  0  0  0  0  0  0  0  0  0
   -0.5542    0.6780   27.4208 C   0  0  0  0  0  0  0  0  0  0  0  0
   -1.1236    0.2177   26.0825 C   0  0  0  0  0  0  0  0  0  0  0  0
   -2.2819    1.1246   25.7630 C   0  0  0  0  0  0  0  0  0  0  0  0
   -2.8527    1.7813   26.9977 C   0  0  0  0  0  0  0  0  0  0  0  0
   -5.0442   -0.2753   28.7601 N   0  0  0  0  0  0  0  0  0  0  0  0
   -4.9272   -0.5407   30.1503 C   0  0  0  0  0  0  0  0  0  0  0  0
   -4.4077    0.4055   30.8326 O   0  0  0  0  0  0  0  0  0  0  0  0
   -5.3510   -1.7769   30.7938 C   0  0  0  0  0  0  0  0  0  0  0  0
   -5.2926   -1.8649   32.0965 O   0  0  0  0  0  0  0  0  0  0  0  0
   -5.5670   -2.9717   34.1630 C   0  0  0  0  0  0  0  0  0  0  0  0
   -5.9469   -4.1015   34.8567 C   0  0  0  0  0  0  0  0  0  0  0  0
   -6.4167   -5.2185   34.2037 C   0  0  0  0  0  0  0  0  0  0  0  0
   -6.5011   -5.1859   32.8281 C   0  0  0  0  0  0  0  0  0  0  0  0
   -6.1214   -4.0519   32.1107 C   0  0  0  0  0  0  0  0  0  0  0  0
   -6.2003   -4.0057   30.7409 C   0  0  0  0  0  0  0  0  0  0  0  0
   -6.6163   -4.9765   30.0644 O   0  0  0  0  0  0  0  0  0  0  0  0
   -5.8116   -2.8595   30.0846 C   0  0  0  0  0  0  0  0  0  0  0  0
 13  1  1  0
  1 14  2  0
  1 18  1  0
  2  3  1  6
  2  4  1  0
  8  2  1  1
  3  9  1  6
  4  5  1  6
  5  6  1  6
  6  7  1  6
  7  8  1  6
 10  9  1  0
 10 11  2  0
 12 10  1  0
 12 13  1  0
 12 21  2  0
 14 15  1  0
 15 16  2  0
 16 17  1  0
 17 18  2  0
 18 19  1  0
 19 20  2  0
 19 21  1  0
M  END
$$$$
