
     RDKit          3D

 21 23  0  0  0  0  0  0  0  0999 V2000
   -5.4241   -3.0401   31.9467 C   0  0  0  0  0  0  0  0  0  0  0  0
   -3.0751    0.7861   27.1452 C   0  0  1  0  0  0  0  0  0  0  0  0
   -4.4647    0.2832   27.4417 C   0  0  0  0  0  0  0  0  0  0  0  0
   -2.5338    1.3626   28.4533 C   0  0  0  0  0  0  0  0  0  0  0  0
   -1.1872    1.9338   28.1646 C   0  0  0  0  0  0  0  0  0  0  0  0
   -0.2287    1.0184   27.5083 C   0  0  0  0  0  0  0  0  0  0  0  0
   -0.7596   -0.0895   26.7114 C   0  0  0  0  0  0  0  0  0  0  0  0
   -2.2076   -0.4003   26.8445 C   0  0  0  0  0  0  0  0  0  0  0  0
   -4.4645   -0.7410   28.4578 N   0  0  0  0  0  0  0  0  0  0  0  0
   -5.5296   -1.6615   28.5755 C   0  0  0  0  0  0  0  0  0  0  0  0
   -6.3548   -1.7021   27.6055 O   0  0  0  0  0  0  0  0  0  0  0  0
   -5.7113   -2.5313   29.7204 C   0  0  0  0  0  0  0  0  0  0  0  0
   -5.2601   -2.2546   30.9128 O   0  0  0  0  0  0  0  0  0  0  0  0
   -4.8990   -2.6423   33.1720 C   0  0  0  0  0  0  0  0  0  0  0  0
   -5.0624   -3.4585   34.2744 C   0  0  0  0  0  0  0  0  0  0  0  0
   -5.7402   -4.6574   34.1615 C   0  0  0  0  0  0  0  0  0  0  0  0
   -6.2602   -5.0487   32.9423 C   0  0  0  0  0  0  0  0  0  0  0  0
   -6.0994   -4.2359   31.8371 C   0  0  0  0  0  0  0  0  0  0  0  0
   -6.6053   -4.5960   30.6071 C   0  0  0  0  0  0  0  0  0  0  0  0
   -7.2163   -5.6682   30.4869 O   0  0  0  0  0  0  0  0  0  0  0  0
   -6.3920   -3.7121   29.5571 C   0  0  0  0  0  0  0  0  0  0  0  0
 13  1  1  0
  1 14  2  0
  1 18  1  0
  2  3  1  1
  2  4  1  0
  2  8  1  0
  9  3  1  0
  4  5  1  0
  5  6  1  0
  7  6  1  0
  8  7  1  0
 10  9  1  0
 10 11  2  0
 12 10  1  0
 12 13  1  0
 12 21  2  0
 14 15  1  0
 15 16  2  0
 16 17  1  0
 17 18  2  0
 18 19  1  0
 19 20  2  0
 19 21  1  0
M  END
$$$$
