
     RDKit          3D

 21 23  0  0  0  0  0  0  0  0999 V2000
   14.3284  -24.6534   31.7403 C   0  0  0  0  0  0  0  0  0  0  0  0
   11.8941  -28.1897   28.3714 C   0  0  1  0  0  0  0  0  0  0  0  0
   12.6861  -27.4838   27.3267 C   0  0  0  0  0  0  0  0  0  0  0  0
   10.6199  -27.4723   28.7415 C   0  0  0  0  0  0  0  0  0  0  0  0
    9.4249  -28.3178   28.3468 C   0  0  0  0  0  0  0  0  0  0  0  0
    9.5617  -28.6030   26.8544 C   0  0  0  0  0  0  0  0  0  0  0  0
   10.6753  -29.6039   26.6990 C   0  0  0  0  0  0  0  0  0  0  0  0
   11.6219  -29.5948   27.8761 C   0  0  0  0  0  0  0  0  0  0  0  0
   13.3243  -26.2705   27.7340 N   0  0  0  0  0  0  0  0  0  0  0  0
   14.5261  -26.2296   28.4894 C   0  0  0  0  0  0  0  0  0  0  0  0
   15.3993  -27.0978   28.1509 O   0  0  0  0  0  0  0  0  0  0  0  0
   14.7895  -25.2919   29.5726 C   0  0  0  0  0  0  0  0  0  0  0  0
   14.1602  -25.4432   30.7081 O   0  0  0  0  0  0  0  0  0  0  0  0
   13.6276  -24.8624   32.9328 C   0  0  0  0  0  0  0  0  0  0  0  0
   13.8138  -24.0237   34.0118 C   0  0  0  0  0  0  0  0  0  0  0  0
   14.6881  -22.9623   33.9511 C   0  0  0  0  0  0  0  0  0  0  0  0
   15.3816  -22.7514   32.7784 C   0  0  0  0  0  0  0  0  0  0  0  0
   15.2056  -23.5894   31.6778 C   0  0  0  0  0  0  0  0  0  0  0  0
   15.8896  -23.3909   30.5041 C   0  0  0  0  0  0  0  0  0  0  0  0
   16.7057  -22.4496   30.3595 O   0  0  0  0  0  0  0  0  0  0  0  0
   15.6762  -24.2500   29.4495 C   0  0  0  0  0  0  0  0  0  0  0  0
 13  1  1  0
  1 14  2  0
  1 18  1  0
  2  3  1  6
  2  4  1  0
  8  2  1  1
  3  9  1  6
  4  5  1  6
  5  6  1  6
  6  7  1  6
  7  8  1  6
 10  9  1  0
 10 11  2  0
 12 10  1  0
 12 13  1  0
 12 21  2  0
 14 15  1  0
 15 16  2  0
 16 17  1  0
 17 18  2  0
 18 19  1  0
 19 20  2  0
 19 21  1  0
M  END
$$$$
