
     RDKit          3D

 21 23  0  0  0  0  0  0  0  0999 V2000
   14.4663  -24.9981   31.3651 C   0  0  0  0  0  0  0  0  0  0  0  0
   11.7802  -28.5689   26.7138 C   0  0  1  0  0  0  0  0  0  0  0  0
   13.2454  -28.5361   27.0663 C   0  0  0  0  0  0  0  0  0  0  0  0
   11.0678  -29.2502   27.8821 C   0  0  0  0  0  0  0  0  0  0  0  0
    9.6255  -29.3604   27.5209 C   0  0  0  0  0  0  0  0  0  0  0  0
    8.9679  -28.1003   27.1123 C   0  0  0  0  0  0  0  0  0  0  0  0
    9.7996  -27.0296   26.5588 C   0  0  0  0  0  0  0  0  0  0  0  0
   11.2735  -27.1570   26.7081 C   0  0  0  0  0  0  0  0  0  0  0  0
   13.5124  -27.6723   28.1906 N   0  0  0  0  0  0  0  0  0  0  0  0
   14.2777  -26.4935   28.0478 C   0  0  0  0  0  0  0  0  0  0  0  0
   14.7343  -26.2505   26.8833 O   0  0  0  0  0  0  0  0  0  0  0  0
   14.5528  -25.5820   29.1404 C   0  0  0  0  0  0  0  0  0  0  0  0
   14.2179  -25.8212   30.3784 O   0  0  0  0  0  0  0  0  0  0  0  0
   14.0625  -25.3579   32.6469 C   0  0  0  0  0  0  0  0  0  0  0  0
   14.3162  -24.5017   33.7007 C   0  0  0  0  0  0  0  0  0  0  0  0
   14.9640  -23.3005   33.4844 C   0  0  0  0  0  0  0  0  0  0  0  0
   15.3634  -22.9470   32.2094 C   0  0  0  0  0  0  0  0  0  0  0  0
   15.1120  -23.7999   31.1524 C   0  0  0  0  0  0  0  0  0  0  0  0
   15.4967  -23.4780   29.8690 C   0  0  0  0  0  0  0  0  0  0  0  0
   16.0792  -22.4044   29.6559 O   0  0  0  0  0  0  0  0  0  0  0  0
   15.1992  -24.4006   28.8742 C   0  0  0  0  0  0  0  0  0  0  0  0
 13  1  1  0
  1 14  2  0
  1 18  1  0
  2  3  1  1
  2  4  1  0
  2  8  1  0
  9  3  1  0
  4  5  1  0
  5  6  1  0
  7  6  1  0
  8  7  1  0
 10  9  1  0
 10 11  2  0
 12 10  1  0
 12 13  1  0
 12 21  2  0
 14 15  1  0
 15 16  2  0
 16 17  1  0
 17 18  2  0
 18 19  1  0
 19 20  2  0
 19 21  1  0
M  END
$$$$
