
     RDKit          3D

 21 23  0  0  0  0  0  0  0  0999 V2000
   -5.9348   -3.4306   31.7550 C   0  0  0  0  0  0  0  0  0  0  0  0
   -3.0617   -0.2675   27.0009 C   0  0  1  0  0  0  0  0  0  0  0  0
   -4.5467   -0.3962   27.2250 C   0  0  0  0  0  0  0  0  0  0  0  0
   -2.8446    1.0657   26.2853 C   0  0  0  0  0  0  0  0  0  0  0  0
   -1.3883    1.1789   25.9869 C   0  0  0  0  0  0  0  0  0  0  0  0
   -0.4806    0.9999   27.1408 C   0  0  0  0  0  0  0  0  0  0  0  0
   -0.9531    0.2125   28.2815 C   0  0  0  0  0  0  0  0  0  0  0  0
   -2.4030   -0.1119   28.3397 C   0  0  0  0  0  0  0  0  0  0  0  0
   -4.8866   -1.6188   27.9113 N   0  0  0  0  0  0  0  0  0  0  0  0
   -6.1562   -1.8024   28.5029 C   0  0  0  0  0  0  0  0  0  0  0  0
   -7.1195   -1.1392   27.9973 O   0  0  0  0  0  0  0  0  0  0  0  0
   -6.3942   -2.6873   29.6257 C   0  0  0  0  0  0  0  0  0  0  0  0
   -5.7199   -2.6315   30.7411 O   0  0  0  0  0  0  0  0  0  0  0  0
   -5.1533   -3.2795   32.8961 C   0  0  0  0  0  0  0  0  0  0  0  0
   -5.3659   -4.1140   33.9762 C   0  0  0  0  0  0  0  0  0  0  0  0
   -6.3442   -5.0884   33.9241 C   0  0  0  0  0  0  0  0  0  0  0  0
   -7.1182   -5.2350   32.7886 C   0  0  0  0  0  0  0  0  0  0  0  0
   -6.9094   -4.4030   31.7060 C   0  0  0  0  0  0  0  0  0  0  0  0
   -7.6633   -4.5223   30.5588 C   0  0  0  0  0  0  0  0  0  0  0  0
   -8.5457   -5.3910   30.4940 O   0  0  0  0  0  0  0  0  0  0  0  0
   -7.3779   -3.6395   29.5252 C   0  0  0  0  0  0  0  0  0  0  0  0
 13  1  1  0
  1 14  2  0
  1 18  1  0
  2  3  1  1
  2  4  1  0
  2  8  1  0
  9  3  1  0
  4  5  1  0
  5  6  1  0
  7  6  1  0
  8  7  1  0
 10  9  1  0
 10 11  2  0
 12 10  1  0
 12 13  1  0
 12 21  2  0
 14 15  1  0
 15 16  2  0
 16 17  1  0
 17 18  2  0
 18 19  1  0
 19 20  2  0
 19 21  1  0
M  END
$$$$
