
     RDKit          3D

 21 23  0  0  0  0  0  0  0  0999 V2000
   -5.8554   -3.3144   32.4752 C   0  0  0  0  0  0  0  0  0  0  0  0
   -3.4109   -0.0909   27.6434 C   0  0  1  0  0  0  0  0  0  0  0  0
   -4.7648    0.2750   28.1958 C   0  0  0  0  0  0  0  0  0  0  0  0
   -3.0310    1.0142   26.6581 C   0  0  0  0  0  0  0  0  0  0  0  0
   -1.7271    0.6337   26.0434 C   0  0  0  0  0  0  0  0  0  0  0  0
   -0.6370    0.3204   26.9926 C   0  0  0  0  0  0  0  0  0  0  0  0
   -0.9954   -0.1401   28.3357 C   0  0  0  0  0  0  0  0  0  0  0  0
   -2.4129    0.0106   28.7588 C   0  0  0  0  0  0  0  0  0  0  0  0
   -5.1210   -0.5340   29.3359 N   0  0  0  0  0  0  0  0  0  0  0  0
   -5.8255   -1.7492   29.1850 C   0  0  0  0  0  0  0  0  0  0  0  0
   -6.2559   -2.0145   28.0155 O   0  0  0  0  0  0  0  0  0  0  0  0
   -6.0680   -2.6730   30.2749 C   0  0  0  0  0  0  0  0  0  0  0  0
   -5.6365   -2.4801   31.4910 O   0  0  0  0  0  0  0  0  0  0  0  0
   -5.3463   -3.0053   33.7325 C   0  0  0  0  0  0  0  0  0  0  0  0
   -5.5675   -3.8740   34.7835 C   0  0  0  0  0  0  0  0  0  0  0  0
   -6.2866   -5.0377   34.5883 C   0  0  0  0  0  0  0  0  0  0  0  0
   -6.7905   -5.3408   33.3377 C   0  0  0  0  0  0  0  0  0  0  0  0
   -6.5720   -4.4752   32.2836 C   0  0  0  0  0  0  0  0  0  0  0  0
   -7.0604   -4.7472   31.0242 C   0  0  0  0  0  0  0  0  0  0  0  0
   -7.7079   -5.7867   30.8304 O   0  0  0  0  0  0  0  0  0  0  0  0
   -6.7882   -3.8158   30.0305 C   0  0  0  0  0  0  0  0  0  0  0  0
 13  1  1  0
  1 14  2  0
  1 18  1  0
  2  3  1  1
  2  4  1  0
  2  8  1  0
  9  3  1  0
  4  5  1  0
  5  6  1  0
  7  6  1  0
  8  7  1  0
 10  9  1  0
 10 11  2  0
 12 10  1  0
 12 13  1  0
 12 21  2  0
 14 15  1  0
 15 16  2  0
 16 17  1  0
 17 18  2  0
 18 19  1  0
 19 20  2  0
 19 21  1  0
M  END
$$$$
