
     RDKit          3D

 21 23  0  0  0  0  0  0  0  0999 V2000
   14.4763  -24.9077   32.2790 C   0  0  0  0  0  0  0  0  0  0  0  0
   11.6962  -28.2724   27.3637 C   0  0  1  0  0  0  0  0  0  0  0  0
   11.5756  -27.8834   28.8149 C   0  0  0  0  0  0  0  0  0  0  0  0
   12.3776  -29.6404   27.3361 C   0  0  0  0  0  0  0  0  0  0  0  0
   12.5745  -30.0110   25.9055 C   0  0  0  0  0  0  0  0  0  0  0  0
   11.3639  -29.9629   25.0573 C   0  0  0  0  0  0  0  0  0  0  0  0
   10.2686  -29.0775   25.4584 C   0  0  0  0  0  0  0  0  0  0  0  0
   10.3137  -28.5061   26.8304 C   0  0  0  0  0  0  0  0  0  0  0  0
   12.8604  -27.6059   29.4096 N   0  0  0  0  0  0  0  0  0  0  0  0
   13.5798  -26.4321   29.0933 C   0  0  0  0  0  0  0  0  0  0  0  0
   13.7363  -26.1785   27.8545 O   0  0  0  0  0  0  0  0  0  0  0  0
   14.1275  -25.5367   30.0926 C   0  0  0  0  0  0  0  0  0  0  0  0
   13.9817  -25.7162   31.3766 O   0  0  0  0  0  0  0  0  0  0  0  0
   14.2578  -25.1989   33.6218 C   0  0  0  0  0  0  0  0  0  0  0  0
   14.7722  -24.3567   34.5884 C   0  0  0  0  0  0  0  0  0  0  0  0
   15.4962  -23.2370   34.2258 C   0  0  0  0  0  0  0  0  0  0  0  0
   15.7109  -22.9515   32.8907 C   0  0  0  0  0  0  0  0  0  0  0  0
   15.1984  -23.7906   31.9205 C   0  0  0  0  0  0  0  0  0  0  0  0
   15.3941  -23.5351   30.5806 C   0  0  0  0  0  0  0  0  0  0  0  0
   16.0412  -22.5350   30.2366 O   0  0  0  0  0  0  0  0  0  0  0  0
   14.8396  -24.4373   29.6819 C   0  0  0  0  0  0  0  0  0  0  0  0
 13  1  1  0
  1 14  2  0
  1 18  1  0
  2  3  1  1
  2  4  1  0
  2  8  1  0
  9  3  1  0
  4  5  1  0
  5  6  1  0
  7  6  1  0
  8  7  1  0
 10  9  1  0
 10 11  2  0
 12 10  1  0
 12 13  1  0
 12 21  2  0
 14 15  1  0
 15 16  2  0
 16 17  1  0
 17 18  2  0
 18 19  1  0
 19 20  2  0
 19 21  1  0
M  END
$$$$
