
     RDKit          3D

 21 23  0  0  0  0  0  0  0  0999 V2000
   -6.5848   -3.9811   31.1311 C   0  0  0  0  0  0  0  0  0  0  0  0
   -3.4973    0.1024   27.1445 C   0  0  1  0  0  0  0  0  0  0  0  0
   -4.4583    0.4665   28.2471 C   0  0  0  0  0  0  0  0  0  0  0  0
   -2.9692    1.4195   26.5764 C   0  0  0  0  0  0  0  0  0  0  0  0
   -2.0726    1.0838   25.4335 C   0  0  0  0  0  0  0  0  0  0  0  0
   -0.9913    0.1186   25.7277 C   0  0  0  0  0  0  0  0  0  0  0  0
   -1.1815   -0.8229   26.8331 C   0  0  0  0  0  0  0  0  0  0  0  0
   -2.3084   -0.5665   27.7686 C   0  0  0  0  0  0  0  0  0  0  0  0
   -4.9790   -0.6995   28.9184 N   0  0  0  0  0  0  0  0  0  0  0  0
   -5.3462   -0.6613   30.2820 C   0  0  0  0  0  0  0  0  0  0  0  0
   -5.2788    0.4740   30.8566 O   0  0  0  0  0  0  0  0  0  0  0  0
   -5.7819   -1.8266   31.0253 C   0  0  0  0  0  0  0  0  0  0  0  0
   -6.1914   -2.9287   30.4599 O   0  0  0  0  0  0  0  0  0  0  0  0
   -7.0014   -5.1029   30.4216 C   0  0  0  0  0  0  0  0  0  0  0  0
   -7.4201   -6.2230   31.1131 C   0  0  0  0  0  0  0  0  0  0  0  0
   -7.4252   -6.2294   32.4949 C   0  0  0  0  0  0  0  0  0  0  0  0
   -7.0106   -5.1128   33.1957 C   0  0  0  0  0  0  0  0  0  0  0  0
   -6.5910   -3.9903   32.5086 C   0  0  0  0  0  0  0  0  0  0  0  0
   -6.1713   -2.8605   33.1766 C   0  0  0  0  0  0  0  0  0  0  0  0
   -6.1691   -2.8480   34.4164 O   0  0  0  0  0  0  0  0  0  0  0  0
   -5.7686   -1.7836   32.3973 C   0  0  0  0  0  0  0  0  0  0  0  0
 13  1  1  0
  1 14  2  0
  1 18  1  0
  2  3  1  1
  2  4  1  0
  2  8  1  0
  9  3  1  0
  4  5  1  0
  5  6  1  0
  7  6  1  0
  8  7  1  0
 10  9  1  0
 10 11  2  0
 12 10  1  0
 12 13  1  0
 12 21  2  0
 14 15  1  0
 15 16  2  0
 16 17  1  0
 17 18  2  0
 18 19  1  0
 19 20  2  0
 19 21  1  0
M  END
$$$$
