
     RDKit          3D

 21 23  0  0  0  0  0  0  0  0999 V2000
   -5.5803   -3.2452   32.4599 C   0  0  0  0  0  0  0  0  0  0  0  0
   -3.3042    0.0411   26.9838 C   0  0  1  0  0  0  0  0  0  0  0  0
   -4.5782    0.4088   27.7006 C   0  0  0  0  0  0  0  0  0  0  0  0
   -2.7774    1.3272   26.3475 C   0  0  0  0  0  0  0  0  0  0  0  0
   -1.5560    0.9716   25.5701 C   0  0  0  0  0  0  0  0  0  0  0  0
   -0.5107    0.2384   26.3166 C   0  0  0  0  0  0  0  0  0  0  0  0
   -0.9131   -0.5504   27.4829 C   0  0  0  0  0  0  0  0  0  0  0  0
   -2.2845   -0.3380   28.0168 C   0  0  0  0  0  0  0  0  0  0  0  0
   -5.1646   -0.7226   28.3769 N   0  0  0  0  0  0  0  0  0  0  0  0
   -5.2048   -0.7975   29.7870 C   0  0  0  0  0  0  0  0  0  0  0  0
   -4.9743    0.2840   30.4199 O   0  0  0  0  0  0  0  0  0  0  0  0
   -5.4890   -2.0182   30.5146 C   0  0  0  0  0  0  0  0  0  0  0  0
   -5.3236   -2.1429   31.8027 O   0  0  0  0  0  0  0  0  0  0  0  0
   -5.3660   -3.2633   33.8344 C   0  0  0  0  0  0  0  0  0  0  0  0
   -5.6314   -4.4179   34.5446 C   0  0  0  0  0  0  0  0  0  0  0  0
   -6.1045   -5.5432   33.8970 C   0  0  0  0  0  0  0  0  0  0  0  0
   -6.3159   -5.5208   32.5315 C   0  0  0  0  0  0  0  0  0  0  0  0
   -6.0520   -4.3685   31.8169 C   0  0  0  0  0  0  0  0  0  0  0  0
   -6.2518   -4.3124   30.4547 C   0  0  0  0  0  0  0  0  0  0  0  0
   -6.6758   -5.3124   29.8568 O   0  0  0  0  0  0  0  0  0  0  0  0
   -5.9575   -3.1093   29.8260 C   0  0  0  0  0  0  0  0  0  0  0  0
 13  1  1  0
  1 14  2  0
  1 18  1  0
  2  3  1  1
  2  4  1  0
  2  8  1  0
  9  3  1  0
  4  5  1  0
  5  6  1  0
  7  6  1  0
  8  7  1  0
 10  9  1  0
 10 11  2  0
 12 10  1  0
 12 13  1  0
 12 21  2  0
 14 15  1  0
 15 16  2  0
 16 17  1  0
 17 18  2  0
 18 19  1  0
 19 20  2  0
 19 21  1  0
M  END
$$$$
