
     RDKit          3D

 21 23  0  0  0  0  0  0  0  0999 V2000
   -5.7183   -3.1265   32.5935 C   0  0  0  0  0  0  0  0  0  0  0  0
   -3.2693   -0.4789   27.5752 C   0  0  1  0  0  0  0  0  0  0  0  0
   -3.5395    0.0887   28.9249 C   0  0  0  0  0  0  0  0  0  0  0  0
   -3.9301    0.2921   26.4598 C   0  0  0  0  0  0  0  0  0  0  0  0
   -2.8704    0.9149   25.5721 C   0  0  0  0  0  0  0  0  0  0  0  0
   -1.9875    1.7705   26.4753 C   0  0  0  0  0  0  0  0  0  0  0  0
   -1.1474    0.8247   27.2914 C   0  0  0  0  0  0  0  0  0  0  0  0
   -1.7673   -0.5489   27.3941 C   0  0  0  0  0  0  0  0  0  0  0  0
   -4.7299   -0.3683   29.5726 N   0  0  0  0  0  0  0  0  0  0  0  0
   -5.3256   -1.6327   29.3215 C   0  0  0  0  0  0  0  0  0  0  0  0
   -5.4771   -1.9155   28.0854 O   0  0  0  0  0  0  0  0  0  0  0  0
   -5.7470   -2.5674   30.3562 C   0  0  0  0  0  0  0  0  0  0  0  0
   -5.3897   -2.3456   31.5937 O   0  0  0  0  0  0  0  0  0  0  0  0
   -5.3077   -2.8404   33.8999 C   0  0  0  0  0  0  0  0  0  0  0  0
   -5.6604   -3.6705   34.9434 C   0  0  0  0  0  0  0  0  0  0  0  0
   -6.4216   -4.7983   34.7353 C   0  0  0  0  0  0  0  0  0  0  0  0
   -6.8292   -5.0853   33.4500 C   0  0  0  0  0  0  0  0  0  0  0  0
   -6.4817   -4.2571   32.3831 C   0  0  0  0  0  0  0  0  0  0  0  0
   -6.8808   -4.5310   31.0984 C   0  0  0  0  0  0  0  0  0  0  0  0
   -7.5759   -5.5361   30.8166 O   0  0  0  0  0  0  0  0  0  0  0  0
   -6.5083   -3.6780   30.0838 C   0  0  0  0  0  0  0  0  0  0  0  0
 13  1  1  0
  1 14  2  0
  1 18  1  0
  2  3  1  1
  2  4  1  0
  8  2  1  1
  3  9  1  6
  4  5  1  6
  5  6  1  6
  6  7  1  6
  7  8  1  6
 10  9  1  0
 10 11  2  0
 12 10  1  0
 12 13  1  0
 12 21  2  0
 14 15  1  0
 15 16  2  0
 16 17  1  0
 17 18  2  0
 18 19  1  0
 19 20  2  0
 19 21  1  0
M  END
$$$$
