
     RDKit          3D

 21 23  0  0  0  0  0  0  0  0999 V2000
   -5.5820   -3.1659   32.3129 C   0  0  0  0  0  0  0  0  0  0  0  0
   -4.0689    0.6490   28.0831 C   0  0  1  0  0  0  0  0  0  0  0  0
   -4.0250   -0.7430   27.5564 C   0  0  0  0  0  0  0  0  0  0  0  0
   -3.0006    0.9333   29.1093 C   0  0  0  0  0  0  0  0  0  0  0  0
   -2.0427    1.9789   28.5728 C   0  0  0  0  0  0  0  0  0  0  0  0
   -1.5018    1.4429   27.2509 C   0  0  0  0  0  0  0  0  0  0  0  0
   -2.6181    1.5453   26.2462 C   0  0  0  0  0  0  0  0  0  0  0  0
   -3.9774    1.5940   26.9031 C   0  0  0  0  0  0  0  0  0  0  0  0
   -4.2797   -1.7827   28.5048 N   0  0  0  0  0  0  0  0  0  0  0  0
   -5.5790   -2.2697   28.8073 C   0  0  0  0  0  0  0  0  0  0  0  0
   -6.4498   -2.0702   27.8949 O   0  0  0  0  0  0  0  0  0  0  0  0
   -5.9393   -2.9486   30.0448 C   0  0  0  0  0  0  0  0  0  0  0  0
   -5.3290   -2.6145   31.1512 O   0  0  0  0  0  0  0  0  0  0  0  0
   -4.8975   -2.7688   33.4665 C   0  0  0  0  0  0  0  0  0  0  0  0
   -5.1734   -3.3572   34.6830 C   0  0  0  0  0  0  0  0  0  0  0  0
   -6.1234   -4.3463   34.8009 C   0  0  0  0  0  0  0  0  0  0  0  0
   -6.8012   -4.7417   33.6675 C   0  0  0  0  0  0  0  0  0  0  0  0
   -6.5351   -4.1576   32.4294 C   0  0  0  0  0  0  0  0  0  0  0  0
   -7.2025   -4.5418   31.2929 C   0  0  0  0  0  0  0  0  0  0  0  0
   -8.0833   -5.4345   31.3070 O   0  0  0  0  0  0  0  0  0  0  0  0
   -6.8986   -3.9304   30.0972 C   0  0  0  0  0  0  0  0  0  0  0  0
 13  1  1  0
  1 14  2  0
  1 18  1  0
  2  3  1  6
  2  4  1  0
  8  2  1  1
  3  9  1  6
  4  5  1  6
  5  6  1  6
  6  7  1  6
  7  8  1  6
 10  9  1  0
 10 11  2  0
 12 10  1  0
 12 13  1  0
 12 21  2  0
 14 15  1  0
 15 16  2  0
 16 17  1  0
 17 18  2  0
 18 19  1  0
 19 20  2  0
 19 21  1  0
M  END
$$$$
