
     RDKit          3D

 21 23  0  0  0  0  0  0  0  0999 V2000
   14.4428  -24.6941   31.9649 C   0  0  0  0  0  0  0  0  0  0  0  0
   13.0645  -28.3512   27.5525 C   0  0  1  0  0  0  0  0  0  0  0  0
   12.6727  -26.9518   27.2285 C   0  0  0  0  0  0  0  0  0  0  0  0
   12.2470  -28.9579   28.6656 C   0  0  0  0  0  0  0  0  0  0  0  0
   11.4333  -30.1184   28.1273 C   0  0  0  0  0  0  0  0  0  0  0  0
   10.5971  -29.5719   26.9743 C   0  0  0  0  0  0  0  0  0  0  0  0
   11.5383  -29.3334   25.8240 C   0  0  0  0  0  0  0  0  0  0  0  0
   12.9687  -29.1659   26.2794 C   0  0  0  0  0  0  0  0  0  0  0  0
   12.9638  -25.9699   28.2268 N   0  0  0  0  0  0  0  0  0  0  0  0
   14.2523  -25.4059   28.4224 C   0  0  0  0  0  0  0  0  0  0  0  0
   15.0023  -25.4163   27.3889 O   0  0  0  0  0  0  0  0  0  0  0  0
   14.7273  -24.8477   29.6813 C   0  0  0  0  0  0  0  0  0  0  0  0
   14.0936  -25.1453   30.7850 O   0  0  0  0  0  0  0  0  0  0  0  0
   13.7273  -25.0455   33.1145 C   0  0  0  0  0  0  0  0  0  0  0  0
   14.1053  -24.5637   34.3503 C   0  0  0  0  0  0  0  0  0  0  0  0
   15.1900  -23.7282   34.4918 C   0  0  0  0  0  0  0  0  0  0  0  0
   15.8989  -23.3783   33.3624 C   0  0  0  0  0  0  0  0  0  0  0  0
   15.5308  -23.8562   32.1051 C   0  0  0  0  0  0  0  0  0  0  0  0
   16.2277  -23.5159   30.9723 C   0  0  0  0  0  0  0  0  0  0  0  0
   17.2283  -22.7605   31.0073 O   0  0  0  0  0  0  0  0  0  0  0  0
   15.8190  -24.0174   29.7569 C   0  0  0  0  0  0  0  0  0  0  0  0
 13  1  1  0
  1 14  2  0
  1 18  1  0
  2  3  1  6
  2  4  1  0
  8  2  1  1
  3  9  1  6
  4  5  1  6
  5  6  1  6
  6  7  1  6
  7  8  1  6
 10  9  1  0
 10 11  2  0
 12 10  1  0
 12 13  1  0
 12 21  2  0
 14 15  1  0
 15 16  2  0
 16 17  1  0
 17 18  2  0
 18 19  1  0
 19 20  2  0
 19 21  1  0
M  END
$$$$
