
     RDKit          3D

 21 23  0  0  0  0  0  0  0  0999 V2000
   14.3567  -24.7066   31.9618 C   0  0  0  0  0  0  0  0  0  0  0  0
   11.7286  -28.1634   27.3801 C   0  0  1  0  0  0  0  0  0  0  0  0
   13.1953  -28.2966   27.7010 C   0  0  0  0  0  0  0  0  0  0  0  0
   11.4409  -29.1486   26.2474 C   0  0  0  0  0  0  0  0  0  0  0  0
   10.0103  -28.9799   25.8632 C   0  0  0  0  0  0  0  0  0  0  0  0
    9.0322  -29.0837   26.9677 C   0  0  0  0  0  0  0  0  0  0  0  0
    9.4841  -28.7807   28.3273 C   0  0  0  0  0  0  0  0  0  0  0  0
   10.9491  -28.6717   28.5567 C   0  0  0  0  0  0  0  0  0  0  0  0
   13.5766  -27.4911   28.8356 N   0  0  0  0  0  0  0  0  0  0  0  0
   14.2712  -26.2719   28.6726 C   0  0  0  0  0  0  0  0  0  0  0  0
   14.7136  -26.0221   27.5040 O   0  0  0  0  0  0  0  0  0  0  0  0
   14.4913  -25.3273   29.7495 C   0  0  0  0  0  0  0  0  0  0  0  0
   14.1580  -25.5595   30.9893 O   0  0  0  0  0  0  0  0  0  0  0  0
   13.9602  -25.0617   33.2471 C   0  0  0  0  0  0  0  0  0  0  0  0
   14.1619  -24.1742   34.2862 C   0  0  0  0  0  0  0  0  0  0  0  0
   14.7514  -22.9466   34.0517 C   0  0  0  0  0  0  0  0  0  0  0  0
   15.1438  -22.5978   32.7733 C   0  0  0  0  0  0  0  0  0  0  0  0
   14.9441  -23.4820   31.7310 C   0  0  0  0  0  0  0  0  0  0  0  0
   15.3235  -23.1657   30.4447 C   0  0  0  0  0  0  0  0  0  0  0  0
   15.8539  -22.0686   30.2154 O   0  0  0  0  0  0  0  0  0  0  0  0
   15.0807  -24.1205   29.4656 C   0  0  0  0  0  0  0  0  0  0  0  0
 13  1  1  0
  1 14  2  0
  1 18  1  0
  2  3  1  1
  2  4  1  0
  2  8  1  0
  9  3  1  0
  4  5  1  0
  5  6  1  0
  7  6  1  0
  8  7  1  0
 10  9  1  0
 10 11  2  0
 12 10  1  0
 12 13  1  0
 12 21  2  0
 14 15  1  0
 15 16  2  0
 16 17  1  0
 17 18  2  0
 18 19  1  0
 19 20  2  0
 19 21  1  0
M  END
$$$$
