
     RDKit          3D

 21 23  0  0  0  0  0  0  0  0999 V2000
   -5.9793   -2.9762   32.1911 C   0  0  0  0  0  0  0  0  0  0  0  0
   -3.4063    0.3092   27.4301 C   0  0  1  0  0  0  0  0  0  0  0  0
   -4.7537    0.6760   27.9974 C   0  0  0  0  0  0  0  0  0  0  0  0
   -3.0285    1.4231   26.4539 C   0  0  0  0  0  0  0  0  0  0  0  0
   -1.7315    1.0428   25.8246 C   0  0  0  0  0  0  0  0  0  0  0  0
   -0.6355    0.7133   26.7614 C   0  0  0  0  0  0  0  0  0  0  0  0
   -0.9856    0.2399   28.1022 C   0  0  0  0  0  0  0  0  0  0  0  0
   -2.3988    0.3932   28.5384 C   0  0  0  0  0  0  0  0  0  0  0  0
   -5.1184   -0.1636   29.1125 N   0  0  0  0  0  0  0  0  0  0  0  0
   -5.8302   -1.3692   28.9243 C   0  0  0  0  0  0  0  0  0  0  0  0
   -6.2138   -1.6227   27.7360 O   0  0  0  0  0  0  0  0  0  0  0  0
   -6.1295   -2.2964   29.9972 C   0  0  0  0  0  0  0  0  0  0  0  0
   -5.7090   -2.1390   31.2222 O   0  0  0  0  0  0  0  0  0  0  0  0
   -5.4769   -2.7067   33.4601 C   0  0  0  0  0  0  0  0  0  0  0  0
   -5.7519   -3.5792   34.4952 C   0  0  0  0  0  0  0  0  0  0  0  0
   -6.5178   -4.7076   34.2727 C   0  0  0  0  0  0  0  0  0  0  0  0
   -7.0148   -4.9715   33.0104 C   0  0  0  0  0  0  0  0  0  0  0  0
   -6.7425   -4.1020   31.9722 C   0  0  0  0  0  0  0  0  0  0  0  0
   -7.2225   -4.3353   30.7019 C   0  0  0  0  0  0  0  0  0  0  0  0
   -7.9114   -5.3428   30.4836 O   0  0  0  0  0  0  0  0  0  0  0  0
   -6.8947   -3.4032   29.7257 C   0  0  0  0  0  0  0  0  0  0  0  0
 13  1  1  0
  1 14  2  0
  1 18  1  0
  2  3  1  1
  2  4  1  0
  2  8  1  0
  9  3  1  0
  4  5  1  0
  5  6  1  0
  7  6  1  0
  8  7  1  0
 10  9  1  0
 10 11  2  0
 12 10  1  0
 12 13  1  0
 12 21  2  0
 14 15  1  0
 15 16  2  0
 16 17  1  0
 17 18  2  0
 18 19  1  0
 19 20  2  0
 19 21  1  0
M  END
$$$$
