
     RDKit          3D

 21 23  0  0  0  0  0  0  0  0999 V2000
   14.4775  -24.5547   31.6202 C   0  0  0  0  0  0  0  0  0  0  0  0
   11.6782  -28.3025   27.2572 C   0  0  1  0  0  0  0  0  0  0  0  0
   12.9320  -27.5122   26.9826 C   0  0  0  0  0  0  0  0  0  0  0  0
   10.5040  -27.3648   26.9771 C   0  0  0  0  0  0  0  0  0  0  0  0
    9.2538  -28.1037   27.3144 C   0  0  0  0  0  0  0  0  0  0  0  0
    9.0932  -29.4233   26.6662 C   0  0  0  0  0  0  0  0  0  0  0  0
   10.2974  -30.1412   26.2430 C   0  0  0  0  0  0  0  0  0  0  0  0
   11.5776  -29.3852   26.2237 C   0  0  0  0  0  0  0  0  0  0  0  0
   13.1161  -26.4418   27.9322 N   0  0  0  0  0  0  0  0  0  0  0  0
   14.4037  -25.9620   28.2601 C   0  0  0  0  0  0  0  0  0  0  0  0
   15.3575  -26.3299   27.4995 O   0  0  0  0  0  0  0  0  0  0  0  0
   14.6698  -25.0962   29.3914 C   0  0  0  0  0  0  0  0  0  0  0  0
   14.2372  -25.3365   30.5986 O   0  0  0  0  0  0  0  0  0  0  0  0
   13.9649  -24.9113   32.8634 C   0  0  0  0  0  0  0  0  0  0  0  0
   14.2083  -24.0982   33.9533 C   0  0  0  0  0  0  0  0  0  0  0  0
   14.9529  -22.9430   33.8105 C   0  0  0  0  0  0  0  0  0  0  0  0
   15.4602  -22.5926   32.5736 C   0  0  0  0  0  0  0  0  0  0  0  0
   15.2195  -23.4024   31.4808 C   0  0  0  0  0  0  0  0  0  0  0  0
   15.7106  -23.0823   30.2338 C   0  0  0  0  0  0  0  0  0  0  0  0
   16.3808  -22.0496   30.0867 O   0  0  0  0  0  0  0  0  0  0  0  0
   15.4149  -23.9595   29.1983 C   0  0  0  0  0  0  0  0  0  0  0  0
 13  1  1  0
  1 14  2  0
  1 18  1  0
  2  3  1  6
  2  4  1  0
  2  8  1  0
  9  3  1  0
  4  5  1  0
  5  6  1  0
  7  6  1  0
  8  7  1  0
 10  9  1  0
 10 11  2  0
 12 10  1  0
 12 13  1  0
 12 21  2  0
 14 15  1  0
 15 16  2  0
 16 17  1  0
 17 18  2  0
 18 19  1  0
 19 20  2  0
 19 21  1  0
M  END
$$$$
