
     RDKit          3D

 21 23  0  0  0  0  0  0  0  0999 V2000
   13.5500  -23.8117   31.3711 C   0  0  0  0  0  0  0  0  0  0  0  0
   11.4072  -27.5549   26.8714 C   0  0  1  0  0  0  0  0  0  0  0  0
   12.8672  -27.5937   27.2442 C   0  0  0  0  0  0  0  0  0  0  0  0
   11.1283  -28.8301   26.0761 C   0  0  0  0  0  0  0  0  0  0  0  0
    9.7058  -28.7763   25.6329 C   0  0  0  0  0  0  0  0  0  0  0  0
    8.7090  -28.5439   26.7006 C   0  0  0  0  0  0  0  0  0  0  0  0
    9.1417  -27.8539   27.9175 C   0  0  0  0  0  0  0  0  0  0  0  0
   10.6038  -27.6884   28.1312 C   0  0  0  0  0  0  0  0  0  0  0  0
   13.2589  -26.4413   28.0187 N   0  0  0  0  0  0  0  0  0  0  0  0
   14.2195  -26.5392   29.0498 C   0  0  0  0  0  0  0  0  0  0  0  0
   14.9913  -27.5524   29.0125 O   0  0  0  0  0  0  0  0  0  0  0  0
   14.3542  -25.5626   30.1120 C   0  0  0  0  0  0  0  0  0  0  0  0
   13.4284  -24.6937   30.4119 O   0  0  0  0  0  0  0  0  0  0  0  0
   12.4963  -22.9330   31.6019 C   0  0  0  0  0  0  0  0  0  0  0  0
   12.6067  -21.9953   32.6101 C   0  0  0  0  0  0  0  0  0  0  0  0
   13.7515  -21.9304   33.3813 C   0  0  0  0  0  0  0  0  0  0  0  0
   14.7958  -22.8051   33.1486 C   0  0  0  0  0  0  0  0  0  0  0  0
   14.6900  -23.7446   32.1415 C   0  0  0  0  0  0  0  0  0  0  0  0
   15.7124  -24.6315   31.8831 C   0  0  0  0  0  0  0  0  0  0  0  0
   16.7471  -24.5880   32.5650 O   0  0  0  0  0  0  0  0  0  0  0  0
   15.5113  -25.5381   30.8503 C   0  0  0  0  0  0  0  0  0  0  0  0
 13  1  1  0
  1 14  2  0
  1 18  1  0
  2  3  1  1
  2  4  1  0
  2  8  1  0
  9  3  1  0
  4  5  1  0
  5  6  1  0
  7  6  1  0
  8  7  1  0
 10  9  1  0
 10 11  2  0
 12 10  1  0
 12 13  1  0
 12 21  2  0
 14 15  1  0
 15 16  2  0
 16 17  1  0
 17 18  2  0
 18 19  1  0
 19 20  2  0
 19 21  1  0
M  END
$$$$
