
     RDKit          3D

 21 23  0  0  0  0  0  0  0  0999 V2000
    5.1367  -29.4231   31.4523 C   0  0  0  0  0  0  0  0  0  0  0  0
    5.2374  -34.5151   27.6080 C   0  0  1  0  0  0  0  0  0  0  0  0
    4.2504  -33.4853   27.1812 C   0  0  0  0  0  0  0  0  0  0  0  0
    4.6544  -35.9040   27.6884 C   0  0  0  0  0  0  0  0  0  0  0  0
    5.3158  -36.7959   26.6562 C   0  0  0  0  0  0  0  0  0  0  0  0
    5.1196  -36.1216   25.3019 C   0  0  0  0  0  0  0  0  0  0  0  0
    6.0368  -34.9284   25.2687 C   0  0  0  0  0  0  0  0  0  0  0  0
    6.4116  -34.4553   26.6533 C   0  0  0  0  0  0  0  0  0  0  0  0
    4.5952  -32.1270   27.4668 N   0  0  0  0  0  0  0  0  0  0  0  0
    5.2537  -31.7166   28.6562 C   0  0  0  0  0  0  0  0  0  0  0  0
    6.3526  -32.3220   28.8943 O   0  0  0  0  0  0  0  0  0  0  0  0
    4.7563  -30.6921   29.5643 C   0  0  0  0  0  0  0  0  0  0  0  0
    5.4955  -30.3340   30.5810 O   0  0  0  0  0  0  0  0  0  0  0  0
    5.9687  -29.0787   32.5229 C   0  0  0  0  0  0  0  0  0  0  0  0
    5.5791  -28.1183   33.4329 C   0  0  0  0  0  0  0  0  0  0  0  0
    4.3688  -27.4726   33.3185 C   0  0  0  0  0  0  0  0  0  0  0  0
    3.5447  -27.8079   32.2654 C   0  0  0  0  0  0  0  0  0  0  0  0
    3.9226  -28.7765   31.3361 C   0  0  0  0  0  0  0  0  0  0  0  0
    3.1118  -29.1201   30.2829 C   0  0  0  0  0  0  0  0  0  0  0  0
    1.9928  -28.5836   30.1008 O   0  0  0  0  0  0  0  0  0  0  0  0
    3.5363  -30.0836   29.3956 C   0  0  0  0  0  0  0  0  0  0  0  0
 13  1  1  0
  1 14  2  0
  1 18  1  0
  2  3  1  6
  2  4  1  0
  8  2  1  1
  3  9  1  6
  4  5  1  6
  5  6  1  6
  6  7  1  6
  7  8  1  6
 10  9  1  0
 10 11  2  0
 12 10  1  0
 12 13  1  0
 12 21  2  0
 14 15  1  0
 15 16  2  0
 16 17  1  0
 17 18  2  0
 18 19  1  0
 19 20  2  0
 19 21  1  0
M  END
$$$$
