
     RDKit          3D

 21 23  0  0  0  0  0  0  0  0999 V2000
   -5.9554   -3.1281   32.2780 C   0  0  0  0  0  0  0  0  0  0  0  0
   -3.0715   -0.9128   27.6587 C   0  0  1  0  0  0  0  0  0  0  0  0
   -4.4263   -0.3076   27.7822 C   0  0  0  0  0  0  0  0  0  0  0  0
   -2.6222   -1.0848   26.2290 C   0  0  0  0  0  0  0  0  0  0  0  0
   -1.4178   -0.2031   25.9629 C   0  0  0  0  0  0  0  0  0  0  0  0
   -1.8309    1.2231   26.3129 C   0  0  0  0  0  0  0  0  0  0  0  0
   -1.9082    1.3018   27.8142 C   0  0  0  0  0  0  0  0  0  0  0  0
   -2.1065   -0.0542   28.4494 C   0  0  0  0  0  0  0  0  0  0  0  0
   -5.2349   -0.7898   28.8587 N   0  0  0  0  0  0  0  0  0  0  0  0
   -5.9228   -2.0318   28.8300 C   0  0  0  0  0  0  0  0  0  0  0  0
   -6.3566   -2.3755   27.6791 O   0  0  0  0  0  0  0  0  0  0  0  0
   -6.1418   -2.8819   29.9924 C   0  0  0  0  0  0  0  0  0  0  0  0
   -5.7990   -2.4399   31.1737 O   0  0  0  0  0  0  0  0  0  0  0  0
   -5.5701   -2.6050   33.5170 C   0  0  0  0  0  0  0  0  0  0  0  0
   -5.7402   -3.3398   34.6717 C   0  0  0  0  0  0  0  0  0  0  0  0
   -6.2900   -4.6014   34.6433 C   0  0  0  0  0  0  0  0  0  0  0  0
   -6.6716   -5.1221   33.4251 C   0  0  0  0  0  0  0  0  0  0  0  0
   -6.5069   -4.3931   32.2477 C   0  0  0  0  0  0  0  0  0  0  0  0
   -6.8825   -4.8995   31.0281 C   0  0  0  0  0  0  0  0  0  0  0  0
   -7.3914   -6.0395   30.9081 O   0  0  0  0  0  0  0  0  0  0  0  0
   -6.6964   -4.1351   29.8981 C   0  0  0  0  0  0  0  0  0  0  0  0
 13  1  1  0
  1 14  2  0
  1 18  1  0
  2  3  1  6
  2  4  1  0
  8  2  1  1
  3  9  1  6
  4  5  1  6
  5  6  1  6
  6  7  1  6
  7  8  1  6
 10  9  1  0
 10 11  2  0
 12 10  1  0
 12 13  1  0
 12 21  2  0
 14 15  1  0
 15 16  2  0
 16 17  1  0
 17 18  2  0
 18 19  1  0
 19 20  2  0
 19 21  1  0
M  END
$$$$
