
     RDKit          3D

 21 23  0  0  0  0  0  0  0  0999 V2000
   14.8489  -24.2660   31.2630 C   0  0  0  0  0  0  0  0  0  0  0  0
   12.0789  -27.0056   27.1452 C   0  0  1  0  0  0  0  0  0  0  0  0
   13.2337  -27.8794   27.4913 C   0  0  0  0  0  0  0  0  0  0  0  0
   11.7044  -27.0612   25.6850 C   0  0  0  0  0  0  0  0  0  0  0  0
   10.3186  -27.6577   25.5358 C   0  0  0  0  0  0  0  0  0  0  0  0
   10.3513  -29.0223   26.2171 C   0  0  0  0  0  0  0  0  0  0  0  0
   10.3889  -28.7712   27.7009 C   0  0  0  0  0  0  0  0  0  0  0  0
   10.9183  -27.3968   28.0361 C   0  0  0  0  0  0  0  0  0  0  0  0
   14.1211  -27.3805   28.4957 N   0  0  0  0  0  0  0  0  0  0  0  0
   13.8576  -27.4630   29.8887 C   0  0  0  0  0  0  0  0  0  0  0  0
   13.2232  -28.5104   30.2511 O   0  0  0  0  0  0  0  0  0  0  0  0
   14.2581  -26.4598   30.8660 C   0  0  0  0  0  0  0  0  0  0  0  0
   14.4849  -25.2375   30.4622 O   0  0  0  0  0  0  0  0  0  0  0  0
   15.0785  -22.9749   30.7758 C   0  0  0  0  0  0  0  0  0  0  0  0
   15.4612  -21.9612   31.6293 C   0  0  0  0  0  0  0  0  0  0  0  0
   15.6283  -22.1849   32.9772 C   0  0  0  0  0  0  0  0  0  0  0  0
   15.4034  -23.4553   33.4630 C   0  0  0  0  0  0  0  0  0  0  0  0
   15.0160  -24.4920   32.6144 C   0  0  0  0  0  0  0  0  0  0  0  0
   14.7888  -25.7616   33.0847 C   0  0  0  0  0  0  0  0  0  0  0  0
   14.9168  -26.0559   34.2972 O   0  0  0  0  0  0  0  0  0  0  0  0
   14.4080  -26.7465   32.2010 C   0  0  0  0  0  0  0  0  0  0  0  0
 13  1  1  0
  1 14  2  0
  1 18  1  0
  2  3  1  6
  2  4  1  0
  8  2  1  1
  3  9  1  6
  4  5  1  6
  5  6  1  6
  6  7  1  6
  7  8  1  6
 10  9  1  0
 10 11  2  0
 12 10  1  0
 12 13  1  0
 12 21  2  0
 14 15  1  0
 15 16  2  0
 16 17  1  0
 17 18  2  0
 18 19  1  0
 19 20  2  0
 19 21  1  0
M  END
$$$$
