
     RDKit          3D

 21 23  0  0  0  0  0  0  0  0999 V2000
   14.5527  -24.9295   32.1457 C   0  0  0  0  0  0  0  0  0  0  0  0
   11.5161  -28.2130   27.4322 C   0  0  1  0  0  0  0  0  0  0  0  0
   13.0193  -28.1161   27.3783 C   0  0  0  0  0  0  0  0  0  0  0  0
   10.9793  -26.8195   27.1062 C   0  0  0  0  0  0  0  0  0  0  0  0
    9.4943  -26.8748   27.2273 C   0  0  0  0  0  0  0  0  0  0  0  0
    8.8255  -27.9377   26.4460 C   0  0  0  0  0  0  0  0  0  0  0  0
    9.5946  -29.1349   26.1002 C   0  0  0  0  0  0  0  0  0  0  0  0
   11.0674  -29.0872   26.2987 C   0  0  0  0  0  0  0  0  0  0  0  0
   13.5091  -26.9279   28.0338 N   0  0  0  0  0  0  0  0  0  0  0  0
   14.3618  -27.0055   29.1574 C   0  0  0  0  0  0  0  0  0  0  0  0
   14.9333  -28.1261   29.3602 O   0  0  0  0  0  0  0  0  0  0  0  0
   14.6018  -25.8947   30.0568 C   0  0  0  0  0  0  0  0  0  0  0  0
   14.3360  -25.9325   31.3335 O   0  0  0  0  0  0  0  0  0  0  0  0
   14.2301  -25.0829   33.4903 C   0  0  0  0  0  0  0  0  0  0  0  0
   14.4519  -24.0349   34.3624 C   0  0  0  0  0  0  0  0  0  0  0  0
   14.9885  -22.8467   33.9045 C   0  0  0  0  0  0  0  0  0  0  0  0
   15.3075  -22.6986   32.5680 C   0  0  0  0  0  0  0  0  0  0  0  0
   15.0875  -23.7437   31.6920 C   0  0  0  0  0  0  0  0  0  0  0  0
   15.3943  -23.6292   30.3535 C   0  0  0  0  0  0  0  0  0  0  0  0
   15.8764  -22.5705   29.9247 O   0  0  0  0  0  0  0  0  0  0  0  0
   15.1366  -24.7350   29.5535 C   0  0  0  0  0  0  0  0  0  0  0  0
 13  1  1  0
  1 14  2  0
  1 18  1  0
  2  3  1  6
  2  4  1  0
  2  8  1  0
  9  3  1  0
  4  5  1  0
  5  6  1  0
  7  6  1  0
  8  7  1  0
 10  9  1  0
 10 11  2  0
 12 10  1  0
 12 13  1  0
 12 21  2  0
 14 15  1  0
 15 16  2  0
 16 17  1  0
 17 18  2  0
 18 19  1  0
 19 20  2  0
 19 21  1  0
M  END
$$$$
