
     RDKit          3D

 21 23  0  0  0  0  0  0  0  0999 V2000
   14.2238  -24.5478   31.8296 C   0  0  0  0  0  0  0  0  0  0  0  0
   11.2596  -27.8992   27.0612 C   0  0  1  0  0  0  0  0  0  0  0  0
   12.6939  -27.4400   27.1242 C   0  0  0  0  0  0  0  0  0  0  0  0
   11.1128  -28.6869   25.7595 C   0  0  0  0  0  0  0  0  0  0  0  0
    9.6817  -29.0875   25.6404 C   0  0  0  0  0  0  0  0  0  0  0  0
    9.1166  -29.8042   26.8042 C   0  0  0  0  0  0  0  0  0  0  0  0
    9.7282  -29.5890   28.1173 C   0  0  0  0  0  0  0  0  0  0  0  0
   11.0452  -28.9001   28.1579 C   0  0  0  0  0  0  0  0  0  0  0  0
   12.9104  -26.4844   28.1831 N   0  0  0  0  0  0  0  0  0  0  0  0
   14.2039  -26.0074   28.4911 C   0  0  0  0  0  0  0  0  0  0  0  0
   15.1434  -26.3690   27.7100 O   0  0  0  0  0  0  0  0  0  0  0  0
   14.4910  -25.1511   29.6245 C   0  0  0  0  0  0  0  0  0  0  0  0
   13.9646  -25.3210   30.8061 O   0  0  0  0  0  0  0  0  0  0  0  0
   13.6036  -24.8242   33.0438 C   0  0  0  0  0  0  0  0  0  0  0  0
   13.8652  -24.0189   34.1352 C   0  0  0  0  0  0  0  0  0  0  0  0
   14.7336  -22.9500   34.0223 C   0  0  0  0  0  0  0  0  0  0  0  0
   15.3475  -22.6789   32.8142 C   0  0  0  0  0  0  0  0  0  0  0  0
   15.0891  -23.4814   31.7200 C   0  0  0  0  0  0  0  0  0  0  0  0
   15.6844  -23.2390   30.5011 C   0  0  0  0  0  0  0  0  0  0  0  0
   16.4664  -22.2843   30.3812 O   0  0  0  0  0  0  0  0  0  0  0  0
   15.3609  -24.1017   29.4617 C   0  0  0  0  0  0  0  0  0  0  0  0
 13  1  1  0
  1 14  2  0
  1 18  1  0
  2  3  1  1
  2  4  1  0
  2  8  1  0
  9  3  1  0
  4  5  1  0
  5  6  1  0
  7  6  1  0
  8  7  1  0
 10  9  1  0
 10 11  2  0
 12 10  1  0
 12 13  1  0
 12 21  2  0
 14 15  1  0
 15 16  2  0
 16 17  1  0
 17 18  2  0
 18 19  1  0
 19 20  2  0
 19 21  1  0
M  END
$$$$
