
     RDKit          3D

 21 23  0  0  0  0  0  0  0  0999 V2000
   14.4332  -24.6216   32.6112 C   0  0  0  0  0  0  0  0  0  0  0  0
   11.4263  -28.7399   28.4019 C   0  0  1  0  0  0  0  0  0  0  0  0
   12.8000  -28.2159   28.6375 C   0  0  0  0  0  0  0  0  0  0  0  0
   10.4084  -27.6555   28.1505 C   0  0  0  0  0  0  0  0  0  0  0  0
    9.8733  -27.7754   26.7370 C   0  0  0  0  0  0  0  0  0  0  0  0
   11.0789  -27.7188   25.8040 C   0  0  0  0  0  0  0  0  0  0  0  0
   11.8021  -29.0319   25.9411 C   0  0  0  0  0  0  0  0  0  0  0  0
   11.4956  -29.7207   27.2500 C   0  0  0  0  0  0  0  0  0  0  0  0
   12.9263  -27.2155   29.6516 N   0  0  0  0  0  0  0  0  0  0  0  0
   13.3598  -25.8875   29.3961 C   0  0  0  0  0  0  0  0  0  0  0  0
   13.1633  -25.4823   28.2011 O   0  0  0  0  0  0  0  0  0  0  0  0
   13.9837  -25.0177   30.3840 C   0  0  0  0  0  0  0  0  0  0  0  0
   13.9056  -25.3378   31.6489 O   0  0  0  0  0  0  0  0  0  0  0  0
   14.3188  -25.0121   33.9496 C   0  0  0  0  0  0  0  0  0  0  0  0
   14.8788  -24.2492   34.9530 C   0  0  0  0  0  0  0  0  0  0  0  0
   15.5630  -23.0882   34.6726 C   0  0  0  0  0  0  0  0  0  0  0  0
   15.6790  -22.6983   33.3553 C   0  0  0  0  0  0  0  0  0  0  0  0
   15.1190  -23.4575   32.3283 C   0  0  0  0  0  0  0  0  0  0  0  0
   15.2270  -23.0809   31.0125 C   0  0  0  0  0  0  0  0  0  0  0  0
   15.8322  -22.0388   30.6652 O   0  0  0  0  0  0  0  0  0  0  0  0
   14.6542  -23.8693   30.0397 C   0  0  0  0  0  0  0  0  0  0  0  0
 13  1  1  0
  1 14  2  0
  1 18  1  0
  2  3  1  6
  2  4  1  0
  8  2  1  1
  3  9  1  6
  4  5  1  6
  5  6  1  6
  6  7  1  6
  7  8  1  6
 10  9  1  0
 10 11  2  0
 12 10  1  0
 12 13  1  0
 12 21  2  0
 14 15  1  0
 15 16  2  0
 16 17  1  0
 17 18  2  0
 18 19  1  0
 19 20  2  0
 19 21  1  0
M  END
$$$$
