
     RDKit          3D

 21 23  0  0  0  0  0  0  0  0999 V2000
   -5.9797   -2.8956   32.4056 C   0  0  0  0  0  0  0  0  0  0  0  0
   -3.3587    1.1472   28.7158 C   0  0  1  0  0  0  0  0  0  0  0  0
   -3.9598   -0.0122   29.4310 C   0  0  0  0  0  0  0  0  0  0  0  0
   -1.9037    0.9476   28.3716 C   0  0  0  0  0  0  0  0  0  0  0  0
   -1.7363    0.9071   26.8653 C   0  0  0  0  0  0  0  0  0  0  0  0
   -2.6499   -0.2011   26.3509 C   0  0  0  0  0  0  0  0  0  0  0  0
   -4.0623    0.3079   26.4612 C   0  0  0  0  0  0  0  0  0  0  0  0
   -4.1945    1.4142   27.4813 C   0  0  0  0  0  0  0  0  0  0  0  0
   -5.3586   -0.2237   29.2220 N   0  0  0  0  0  0  0  0  0  0  0  0
   -5.9446   -1.5076   29.0643 C   0  0  0  0  0  0  0  0  0  0  0  0
   -6.2686   -1.8030   27.8650 O   0  0  0  0  0  0  0  0  0  0  0  0
   -6.1782   -2.4482   30.1518 C   0  0  0  0  0  0  0  0  0  0  0  0
   -5.8128   -2.1195   31.3629 O   0  0  0  0  0  0  0  0  0  0  0  0
   -5.5689   -2.4923   33.6806 C   0  0  0  0  0  0  0  0  0  0  0  0
   -5.7503   -3.3188   34.7698 C   0  0  0  0  0  0  0  0  0  0  0  0
   -6.3367   -4.5573   34.6391 C   0  0  0  0  0  0  0  0  0  0  0  0
   -6.7435   -4.9601   33.3850 C   0  0  0  0  0  0  0  0  0  0  0  0
   -6.5678   -4.1374   32.2728 C   0  0  0  0  0  0  0  0  0  0  0  0
   -6.9682   -4.5259   31.0184 C   0  0  0  0  0  0  0  0  0  0  0  0
   -7.5109   -5.6366   30.8064 O   0  0  0  0  0  0  0  0  0  0  0  0
   -6.7697   -3.6726   29.9563 C   0  0  0  0  0  0  0  0  0  0  0  0
 13  1  1  0
  1 14  2  0
  1 18  1  0
  2  3  1  6
  2  4  1  0
  8  2  1  1
  3  9  1  6
  4  5  1  6
  5  6  1  6
  6  7  1  6
  7  8  1  6
 10  9  1  0
 10 11  2  0
 12 10  1  0
 12 13  1  0
 12 21  2  0
 14 15  1  0
 15 16  2  0
 16 17  1  0
 17 18  2  0
 18 19  1  0
 19 20  2  0
 19 21  1  0
M  END
$$$$
