
     RDKit          3D

 20 22  0  0  0  0  0  0  0  0999 V2000
  -12.8242   -1.8557   -8.7874 O   0  0  0  0  0  0  0  0  0  0  0  0
  -12.4422   -1.0464   -9.8668 C   0  0  0  0  0  0  0  0  0  0  0  0
  -12.4071   -1.9315  -11.0828 C   0  0  1  0  0  0  0  0  0  0  0  0
  -11.9420   -3.2174  -10.7783 O   0  0  0  0  0  0  0  0  0  0  0  0
  -12.3056   -4.0281  -11.8243 C   0  0  1  0  0  0  0  0  0  0  0  0
  -12.6510   -5.3692  -11.4001 N   0  0  0  0  0  0  0  0  0  0  0  0
  -13.1445   -5.7218  -10.2000 C   0  0  0  0  0  0  0  0  0  0  0  0
  -13.3516   -7.0899  -10.1597 C   0  0  0  0  0  0  0  0  0  0  0  0
  -12.9692   -7.5835  -11.3805 C   0  0  0  0  0  0  0  0  0  0  0  0
  -12.9628   -8.8648  -11.8844 C   0  0  0  0  0  0  0  0  0  0  0  0
  -12.5235   -9.0433  -13.1394 N   0  0  0  0  0  0  0  0  0  0  0  0
  -12.1112   -8.0094  -13.8613 C   0  0  0  0  0  0  0  0  0  0  0  0
  -12.1121   -6.7467  -13.3795 N   0  0  0  0  0  0  0  0  0  0  0  0
  -12.5418   -6.4970  -12.1234 C   0  0  0  0  0  0  0  0  0  0  0  0
  -13.3964  -10.0005  -11.1437 N   0  0  0  0  0  0  0  0  0  0  0  0
  -13.4512   -3.3773  -12.5504 C   0  0  2  0  0  0  0  0  0  0  0  0
  -12.9707   -2.7567  -13.7214 O   0  0  0  0  0  0  0  0  0  0  0  0
  -13.7977   -2.2479  -11.5939 C   0  0  2  0  0  0  0  0  0  0  0  0
  -14.3728   -1.1717  -12.2492 O   0  0  0  0  0  0  0  0  0  0  0  0
  -14.0981   -8.2480   -8.5818 I   0  0  0  0  0  0  0  0  0  0  0  0
  1  2  1  0
  3  2  1  1
  3  4  1  0
  3 18  1  0
  4  5  1  0
  5  6  1  1
  5 16  1  0
  6  7  1  0
  6 14  1  0
  7  8  2  0
  8  9  1  0
  8 20  1  0
  9 10  1  0
  9 14  2  0
 10 11  2  0
 10 15  1  0
 11 12  1  0
 12 13  2  0
 13 14  1  0
 16 17  1  6
 16 18  1  0
 18 19  1  6
M  END
$$$$
