
     RDKit          3D

 20 22  0  0  0  0  0  0  0  0999 V2000
  -13.2401   -1.8223   -8.6493 O   0  0  0  0  0  0  0  0  0  0  0  0
  -12.8696   -3.1509   -8.5013 C   0  0  0  0  0  0  0  0  0  0  0  0
  -13.8944   -3.8871   -7.6877 C   0  0  1  0  0  0  0  0  0  0  0  0
  -14.5803   -4.8427   -8.3862 O   0  0  0  0  0  0  0  0  0  0  0  0
  -13.7700   -5.9680   -8.5047 C   0  0  1  0  0  0  0  0  0  0  0  0
  -13.3574   -6.0891   -9.8728 N   0  0  0  0  0  0  0  0  0  0  0  0
  -13.1927   -5.0127  -10.6707 C   0  0  0  0  0  0  0  0  0  0  0  0
  -12.7950   -5.4249  -11.9226 C   0  0  0  0  0  0  0  0  0  0  0  0
  -12.7137   -6.7872  -11.8922 C   0  0  0  0  0  0  0  0  0  0  0  0
  -12.3632   -7.7108  -12.8700 C   0  0  0  0  0  0  0  0  0  0  0  0
  -12.3824   -9.0091  -12.5142 N   0  0  0  0  0  0  0  0  0  0  0  0
  -12.7286   -9.3577  -11.2662 C   0  0  0  0  0  0  0  0  0  0  0  0
  -13.0690   -8.4590  -10.3167 N   0  0  0  0  0  0  0  0  0  0  0  0
  -13.0671   -7.1592  -10.6143 C   0  0  0  0  0  0  0  0  0  0  0  0
  -12.0101   -7.2695  -14.1626 N   0  0  0  0  0  0  0  0  0  0  0  0
  -12.6652   -5.8602   -7.5203 C   0  0  2  0  0  0  0  0  0  0  0  0
  -12.6166   -7.0018   -6.7363 O   0  0  0  0  0  0  0  0  0  0  0  0
  -13.1792   -4.7309   -6.6274 C   0  0  2  0  0  0  0  0  0  0  0  0
  -14.1462   -5.2387   -5.7927 O   0  0  0  0  0  0  0  0  0  0  0  0
  -12.3719   -4.2491  -13.6162 I   0  0  0  0  0  0  0  0  0  0  0  0
  2  1  1  1
  2  3  1  0
  3  4  1  6
  3 18  1  0
  4  5  1  0
  5  6  1  6
  5 16  1  0
  6  7  1  0
  6 14  1  0
  7  8  2  0
  8  9  1  0
  8 20  1  0
  9 10  1  0
  9 14  2  0
 10 11  2  0
 10 15  1  0
 11 12  1  0
 12 13  2  0
 13 14  1  0
 16 17  1  1
 16 18  1  0
 18 19  1  1
M  END
$$$$
