
     RDKit          3D

 20 22  0  0  0  0  0  0  0  0999 V2000
  -14.1051   -2.1380   -7.8580 O   0  0  0  0  0  0  0  0  0  0  0  0
  -14.3500   -2.8175   -6.6562 C   0  0  0  0  0  0  0  0  0  0  0  0
  -14.2599   -4.2878   -6.9618 C   0  0  1  0  0  0  0  0  0  0  0  0
  -14.5469   -4.5594   -8.3058 O   0  0  0  0  0  0  0  0  0  0  0  0
  -14.0726   -5.8209   -8.5650 C   0  0  1  0  0  0  0  0  0  0  0  0
  -13.5496   -5.9578   -9.9087 N   0  0  0  0  0  0  0  0  0  0  0  0
  -13.3259   -4.9593  -10.7810 C   0  0  0  0  0  0  0  0  0  0  0  0
  -12.8234   -5.4720  -11.9646 C   0  0  0  0  0  0  0  0  0  0  0  0
  -12.7399   -6.8310  -11.8025 C   0  0  0  0  0  0  0  0  0  0  0  0
  -12.3122   -7.8259  -12.6528 C   0  0  0  0  0  0  0  0  0  0  0  0
  -12.3465   -9.0906  -12.2063 N   0  0  0  0  0  0  0  0  0  0  0  0
  -12.7810   -9.3603  -10.9822 C   0  0  0  0  0  0  0  0  0  0  0  0
  -13.2036   -8.3938  -10.1372 N   0  0  0  0  0  0  0  0  0  0  0  0
  -13.1953   -7.0994  -10.5236 C   0  0  0  0  0  0  0  0  0  0  0  0
  -11.8391   -7.5793  -13.9726 N   0  0  0  0  0  0  0  0  0  0  0  0
  -13.0235   -6.1514   -7.5386 C   0  0  2  0  0  0  0  0  0  0  0  0
  -13.5797   -6.9959   -6.5565 O   0  0  0  0  0  0  0  0  0  0  0  0
  -12.8373   -4.8002   -6.8676 C   0  0  2  0  0  0  0  0  0  0  0  0
  -12.4116   -4.9271   -5.5558 O   0  0  0  0  0  0  0  0  0  0  0  0
  -12.2757   -4.4387  -13.7027 I   0  0  0  0  0  0  0  0  0  0  0  0
  1  2  1  0
  3  2  1  6
  3  4  1  0
  3 18  1  0
  4  5  1  0
  5  6  1  6
  5 16  1  0
  6  7  1  0
  6 14  1  0
  7  8  2  0
  8  9  1  0
  8 20  1  0
  9 10  1  0
  9 14  2  0
 10 11  2  0
 10 15  1  0
 11 12  1  0
 12 13  2  0
 13 14  1  0
 16 17  1  1
 16 18  1  0
 18 19  1  1
M  END
$$$$
