
     RDKit          3D

 20 22  0  0  0  0  0  0  0  0999 V2000
  -15.4870   -2.5819   -8.1625 O   0  0  0  0  0  0  0  0  0  0  0  0
  -14.9406   -3.0030   -6.9418 C   0  0  0  0  0  0  0  0  0  0  0  0
  -14.3029   -4.3428   -7.1899 C   0  0  1  0  0  0  0  0  0  0  0  0
  -14.6040   -4.8349   -8.4665 O   0  0  0  0  0  0  0  0  0  0  0  0
  -13.6956   -5.8288   -8.7322 C   0  0  1  0  0  0  0  0  0  0  0  0
  -13.3141   -5.8805  -10.1285 N   0  0  0  0  0  0  0  0  0  0  0  0
  -13.0678   -4.8261  -10.9256 C   0  0  0  0  0  0  0  0  0  0  0  0
  -12.7312   -5.2640  -12.1949 C   0  0  0  0  0  0  0  0  0  0  0  0
  -12.7755   -6.6341  -12.1648 C   0  0  0  0  0  0  0  0  0  0  0  0
  -12.5329   -7.5757  -13.1397 C   0  0  0  0  0  0  0  0  0  0  0  0
  -12.6580   -8.8695  -12.8073 N   0  0  0  0  0  0  0  0  0  0  0  0
  -13.0051   -9.2170  -11.5750 C   0  0  0  0  0  0  0  0  0  0  0  0
  -13.2461   -8.3036  -10.6085 N   0  0  0  0  0  0  0  0  0  0  0  0
  -13.1381   -6.9839  -10.8759 C   0  0  0  0  0  0  0  0  0  0  0  0
  -12.1586   -7.2453  -14.4728 N   0  0  0  0  0  0  0  0  0  0  0  0
  -12.4953   -5.6201   -7.8496 C   0  0  2  0  0  0  0  0  0  0  0  0
  -12.5535   -6.5146   -6.7617 O   0  0  0  0  0  0  0  0  0  0  0  0
  -12.7934   -4.2454   -7.2735 C   0  0  2  0  0  0  0  0  0  0  0  0
  -12.2100   -4.0667   -6.0302 O   0  0  0  0  0  0  0  0  0  0  0  0
  -12.2392   -4.1198  -13.8794 I   0  0  0  0  0  0  0  0  0  0  0  0
  1  2  1  0
  3  2  1  6
  3  4  1  0
  3 18  1  0
  4  5  1  0
  5  6  1  6
  5 16  1  0
  6  7  1  0
  6 14  1  0
  7  8  2  0
  8  9  1  0
  8 20  1  0
  9 10  1  0
  9 14  2  0
 10 11  2  0
 10 15  1  0
 11 12  1  0
 12 13  2  0
 13 14  1  0
 16 17  1  1
 16 18  1  0
 18 19  1  1
M  END
$$$$
