
     RDKit          3D

 20 22  0  0  0  0  0  0  0  0999 V2000
  -13.2501   -1.6577   -8.3079 O   0  0  0  0  0  0  0  0  0  0  0  0
  -13.0268   -3.0236   -8.4016 C   0  0  0  0  0  0  0  0  0  0  0  0
  -13.9936   -3.7679   -7.5267 C   0  0  1  0  0  0  0  0  0  0  0  0
  -14.6398   -4.7957   -8.1572 O   0  0  0  0  0  0  0  0  0  0  0  0
  -13.7716   -5.8809   -8.2333 C   0  0  1  0  0  0  0  0  0  0  0  0
  -13.3801   -6.0545   -9.6019 N   0  0  0  0  0  0  0  0  0  0  0  0
  -13.2587   -5.0124  -10.4515 C   0  0  0  0  0  0  0  0  0  0  0  0
  -12.8721   -5.4717  -11.6904 C   0  0  0  0  0  0  0  0  0  0  0  0
  -12.7532   -6.8286  -11.5989 C   0  0  0  0  0  0  0  0  0  0  0  0
  -12.3950   -7.7871  -12.5396 C   0  0  0  0  0  0  0  0  0  0  0  0
  -12.3727   -9.0675  -12.1241 N   0  0  0  0  0  0  0  0  0  0  0  0
  -12.6872   -9.3667  -10.8550 C   0  0  0  0  0  0  0  0  0  0  0  0
  -13.0352   -8.4341   -9.9417 N   0  0  0  0  0  0  0  0  0  0  0  0
  -13.0739   -7.1500  -10.2988 C   0  0  0  0  0  0  0  0  0  0  0  0
  -12.0768   -7.3973  -13.8575 N   0  0  0  0  0  0  0  0  0  0  0  0
  -12.6552   -5.6602   -7.2814 C   0  0  2  0  0  0  0  0  0  0  0  0
  -12.5288   -6.7529   -6.4385 O   0  0  0  0  0  0  0  0  0  0  0  0
  -13.2126   -4.5128   -6.4390 C   0  0  2  0  0  0  0  0  0  0  0  0
  -14.1337   -5.0251   -5.5566 O   0  0  0  0  0  0  0  0  0  0  0  0
  -12.5109   -4.3653  -13.4440 I   0  0  0  0  0  0  0  0  0  0  0  0
  2  1  1  1
  2  3  1  0
  3  4  1  6
  3 18  1  0
  4  5  1  0
  5  6  1  6
  5 16  1  0
  6  7  1  0
  6 14  1  0
  7  8  2  0
  8  9  1  0
  8 20  1  0
  9 10  1  0
  9 14  2  0
 10 11  2  0
 10 15  1  0
 11 12  1  0
 12 13  2  0
 13 14  1  0
 16 17  1  1
 16 18  1  0
 18 19  1  1
M  END
$$$$
