
     RDKit          3D

 20 22  0  0  0  0  0  0  0  0999 V2000
  -13.7940   -2.1396   -7.8751 O   0  0  0  0  0  0  0  0  0  0  0  0
  -14.4560   -2.8154   -6.8401 C   0  0  0  0  0  0  0  0  0  0  0  0
  -14.3026   -4.2867   -7.1137 C   0  0  1  0  0  0  0  0  0  0  0  0
  -14.6198   -4.6062   -8.4402 O   0  0  0  0  0  0  0  0  0  0  0  0
  -14.0919   -5.8490   -8.6855 C   0  0  1  0  0  0  0  0  0  0  0  0
  -13.6073   -5.9941  -10.0427 N   0  0  0  0  0  0  0  0  0  0  0  0
  -13.4229   -5.0025  -10.9320 C   0  0  0  0  0  0  0  0  0  0  0  0
  -12.9491   -5.5218  -12.1245 C   0  0  0  0  0  0  0  0  0  0  0  0
  -12.8428   -6.8778  -11.9504 C   0  0  0  0  0  0  0  0  0  0  0  0
  -12.4274   -7.8765  -12.8023 C   0  0  0  0  0  0  0  0  0  0  0  0
  -12.4315   -9.1364  -12.3413 N   0  0  0  0  0  0  0  0  0  0  0  0
  -12.8257   -9.3981  -11.1019 C   0  0  0  0  0  0  0  0  0  0  0  0
  -13.2359   -8.4278  -10.2552 N   0  0  0  0  0  0  0  0  0  0  0  0
  -13.2563   -7.1378  -10.6556 C   0  0  0  0  0  0  0  0  0  0  0  0
  -11.9971   -7.6385  -14.1382 N   0  0  0  0  0  0  0  0  0  0  0  0
  -12.9942   -6.1013   -7.6880 C   0  0  2  0  0  0  0  0  0  0  0  0
  -13.4747   -6.9469   -6.6677 O   0  0  0  0  0  0  0  0  0  0  0  0
  -12.8538   -4.7260   -7.0561 C   0  0  2  0  0  0  0  0  0  0  0  0
  -12.3792   -4.7984   -5.7570 O   0  0  0  0  0  0  0  0  0  0  0  0
  -12.4673   -4.5010  -13.8892 I   0  0  0  0  0  0  0  0  0  0  0  0
  1  2  1  0
  3  2  1  6
  3  4  1  0
  3 18  1  0
  4  5  1  0
  5  6  1  6
  5 16  1  0
  6  7  1  0
  6 14  1  0
  7  8  2  0
  8  9  1  0
  8 20  1  0
  9 10  1  0
  9 14  2  0
 10 11  2  0
 10 15  1  0
 11 12  1  0
 12 13  2  0
 13 14  1  0
 16 17  1  1
 16 18  1  0
 18 19  1  1
M  END
$$$$
