
     RDKit          3D

 20 22  0  0  0  0  0  0  0  0999 V2000
  -13.5017   -1.9157   -9.0445 O   0  0  0  0  0  0  0  0  0  0  0  0
  -12.9516   -3.1137   -8.6123 C   0  0  0  0  0  0  0  0  0  0  0  0
  -13.9594   -3.8881   -7.8132 C   0  0  1  0  0  0  0  0  0  0  0  0
  -14.6208   -4.8482   -8.5290 O   0  0  0  0  0  0  0  0  0  0  0  0
  -13.7831   -5.9514   -8.6649 C   0  0  1  0  0  0  0  0  0  0  0  0
  -13.3658   -6.0393  -10.0340 N   0  0  0  0  0  0  0  0  0  0  0  0
  -13.1696   -4.9426  -10.7964 C   0  0  0  0  0  0  0  0  0  0  0  0
  -12.7750   -5.3246  -12.0588 C   0  0  0  0  0  0  0  0  0  0  0  0
  -12.7279   -6.6889  -12.0715 C   0  0  0  0  0  0  0  0  0  0  0  0
  -12.3949   -7.5895  -13.0764 C   0  0  0  0  0  0  0  0  0  0  0  0
  -12.4486   -8.8975  -12.7623 N   0  0  0  0  0  0  0  0  0  0  0  0
  -12.8106   -9.2768  -11.5278 C   0  0  0  0  0  0  0  0  0  0  0  0
  -13.1340   -8.4004  -10.5518 N   0  0  0  0  0  0  0  0  0  0  0  0
  -13.0979   -7.0923  -10.8079 C   0  0  0  0  0  0  0  0  0  0  0  0
  -12.0233   -7.1164  -14.3525 N   0  0  0  0  0  0  0  0  0  0  0  0
  -12.6827   -5.8333   -7.6768 C   0  0  2  0  0  0  0  0  0  0  0  0
  -12.6074   -6.9865   -6.9120 O   0  0  0  0  0  0  0  0  0  0  0  0
  -13.2254   -4.7321   -6.7659 C   0  0  2  0  0  0  0  0  0  0  0  0
  -14.1809   -5.2773   -5.9417 O   0  0  0  0  0  0  0  0  0  0  0  0
  -12.3128   -4.1067  -13.7119 I   0  0  0  0  0  0  0  0  0  0  0  0
  2  1  1  1
  2  3  1  0
  3  4  1  6
  3 18  1  0
  4  5  1  0
  5  6  1  6
  5 16  1  0
  6  7  1  0
  6 14  1  0
  7  8  2  0
  8  9  1  0
  8 20  1  0
  9 10  1  0
  9 14  2  0
 10 11  2  0
 10 15  1  0
 11 12  1  0
 12 13  2  0
 13 14  1  0
 16 17  1  1
 16 18  1  0
 18 19  1  1
M  END
$$$$
