
     RDKit          3D

 20 22  0  0  0  0  0  0  0  0999 V2000
  -13.8252   -2.1694   -8.1690 O   0  0  0  0  0  0  0  0  0  0  0  0
  -14.4436   -2.8443   -7.1068 C   0  0  0  0  0  0  0  0  0  0  0  0
  -14.3008   -4.3159   -7.3848 C   0  0  1  0  0  0  0  0  0  0  0  0
  -14.6198   -4.6289   -8.7125 O   0  0  0  0  0  0  0  0  0  0  0  0
  -14.1009   -5.8749   -8.9614 C   0  0  1  0  0  0  0  0  0  0  0  0
  -13.6168   -6.0193  -10.3188 N   0  0  0  0  0  0  0  0  0  0  0  0
  -13.4161   -5.0254  -11.2019 C   0  0  0  0  0  0  0  0  0  0  0  0
  -12.9488   -5.5449  -12.3970 C   0  0  0  0  0  0  0  0  0  0  0  0
  -12.8636   -6.9033  -12.2308 C   0  0  0  0  0  0  0  0  0  0  0  0
  -12.4624   -7.9032  -13.0882 C   0  0  0  0  0  0  0  0  0  0  0  0
  -12.4866   -9.1657  -12.6348 N   0  0  0  0  0  0  0  0  0  0  0  0
  -12.8864   -9.4286  -11.3974 C   0  0  0  0  0  0  0  0  0  0  0  0
  -13.2826   -8.4571  -10.5454 N   0  0  0  0  0  0  0  0  0  0  0  0
  -13.2827   -7.1646  -10.9381 C   0  0  0  0  0  0  0  0  0  0  0  0
  -12.0268   -7.6640  -14.4221 N   0  0  0  0  0  0  0  0  0  0  0  0
  -13.0055   -6.1382   -7.9643 C   0  0  2  0  0  0  0  0  0  0  0  0
  -13.4926   -6.9834   -6.9467 O   0  0  0  0  0  0  0  0  0  0  0  0
  -12.8553   -4.7659   -7.3280 C   0  0  2  0  0  0  0  0  0  0  0  0
  -12.3818   -4.8458   -6.0290 O   0  0  0  0  0  0  0  0  0  0  0  0
  -12.4490   -4.5211  -14.1550 I   0  0  0  0  0  0  0  0  0  0  0  0
  1  2  1  0
  3  2  1  6
  3  4  1  0
  3 18  1  0
  4  5  1  0
  5  6  1  6
  5 16  1  0
  6  7  1  0
  6 14  1  0
  7  8  2  0
  8  9  1  0
  8 20  1  0
  9 10  1  0
  9 14  2  0
 10 11  2  0
 10 15  1  0
 11 12  1  0
 12 13  2  0
 13 14  1  0
 16 17  1  1
 16 18  1  0
 18 19  1  1
M  END
$$$$
