
     RDKit          3D

 20 22  0  0  0  0  0  0  0  0999 V2000
  -13.8454   -2.3063   -8.0948 O   0  0  0  0  0  0  0  0  0  0  0  0
  -14.2022   -2.9799   -6.9179 C   0  0  0  0  0  0  0  0  0  0  0  0
  -14.1458   -4.4516   -7.2252 C   0  0  1  0  0  0  0  0  0  0  0  0
  -14.4694   -4.7178   -8.5619 O   0  0  0  0  0  0  0  0  0  0  0  0
  -14.0242   -5.9876   -8.8319 C   0  0  1  0  0  0  0  0  0  0  0  0
  -13.5357   -6.1337  -10.1875 N   0  0  0  0  0  0  0  0  0  0  0  0
  -13.3370   -5.1415  -11.0729 C   0  0  0  0  0  0  0  0  0  0  0  0
  -12.8640   -5.6622  -12.2652 C   0  0  0  0  0  0  0  0  0  0  0  0
  -12.7731   -7.0197  -12.0949 C   0  0  0  0  0  0  0  0  0  0  0  0
  -12.3650   -8.0203  -12.9483 C   0  0  0  0  0  0  0  0  0  0  0  0
  -12.3847   -9.2815  -12.4913 N   0  0  0  0  0  0  0  0  0  0  0  0
  -12.7868   -9.5427  -11.2543 C   0  0  0  0  0  0  0  0  0  0  0  0
  -13.1898   -8.5706  -10.4062 N   0  0  0  0  0  0  0  0  0  0  0  0
  -13.1946   -7.2793  -10.8026 C   0  0  0  0  0  0  0  0  0  0  0  0
  -11.9267   -7.7829  -14.2817 N   0  0  0  0  0  0  0  0  0  0  0  0
  -12.9572   -6.3370   -7.8305 C   0  0  2  0  0  0  0  0  0  0  0  0
  -13.5050   -7.1715   -6.8352 O   0  0  0  0  0  0  0  0  0  0  0  0
  -12.7308   -4.9895   -7.1645 C   0  0  2  0  0  0  0  0  0  0  0  0
  -12.2765   -5.1242   -5.8631 O   0  0  0  0  0  0  0  0  0  0  0  0
  -12.3639   -4.6412  -14.0247 I   0  0  0  0  0  0  0  0  0  0  0  0
  1  2  1  0
  3  2  1  6
  3  4  1  0
  3 18  1  0
  4  5  1  0
  5  6  1  6
  5 16  1  0
  6  7  1  0
  6 14  1  0
  7  8  2  0
  8  9  1  0
  8 20  1  0
  9 10  1  0
  9 14  2  0
 10 11  2  0
 10 15  1  0
 11 12  1  0
 12 13  2  0
 13 14  1  0
 16 17  1  1
 16 18  1  0
 18 19  1  1
M  END
$$$$
