
     RDKit          3D

 20 22  0  0  0  0  0  0  0  0999 V2000
  -13.5849   -1.6856   -8.8374 O   0  0  0  0  0  0  0  0  0  0  0  0
  -13.0656   -2.9158   -8.4615 C   0  0  0  0  0  0  0  0  0  0  0  0
  -14.0702   -3.6740   -7.6429 C   0  0  1  0  0  0  0  0  0  0  0  0
  -14.7433   -4.6399   -8.3397 O   0  0  0  0  0  0  0  0  0  0  0  0
  -13.9129   -5.7494   -8.4684 C   0  0  1  0  0  0  0  0  0  0  0  0
  -13.5086   -5.8579   -9.8399 N   0  0  0  0  0  0  0  0  0  0  0  0
  -13.3448   -4.7740  -10.6278 C   0  0  0  0  0  0  0  0  0  0  0  0
  -12.9556   -5.1747  -11.8861 C   0  0  0  0  0  0  0  0  0  0  0  0
  -12.8787   -6.5376  -11.8700 C   0  0  0  0  0  0  0  0  0  0  0  0
  -12.5369   -7.4523  -12.8591 C   0  0  0  0  0  0  0  0  0  0  0  0
  -12.5584   -8.7541  -12.5164 N   0  0  0  0  0  0  0  0  0  0  0  0
  -12.8986   -9.1142  -11.2700 C   0  0  0  0  0  0  0  0  0  0  0  0
  -13.2306   -8.2241  -10.3095 N   0  0  0  0  0  0  0  0  0  0  0  0
  -13.2261   -6.9214  -10.5939 C   0  0  0  0  0  0  0  0  0  0  0  0
  -12.1896   -6.9991  -14.1492 N   0  0  0  0  0  0  0  0  0  0  0  0
  -12.8029   -5.6242   -7.4919 C   0  0  2  0  0  0  0  0  0  0  0  0
  -12.7269   -6.7675   -6.7125 O   0  0  0  0  0  0  0  0  0  0  0  0
  -13.3313   -4.5079   -6.5910 C   0  0  2  0  0  0  0  0  0  0  0  0
  -14.2822   -5.0367   -5.7510 O   0  0  0  0  0  0  0  0  0  0  0  0
  -12.5382   -3.9832  -13.5701 I   0  0  0  0  0  0  0  0  0  0  0  0
  2  1  1  1
  2  3  1  0
  3  4  1  6
  3 18  1  0
  4  5  1  0
  5  6  1  6
  5 16  1  0
  6  7  1  0
  6 14  1  0
  7  8  2  0
  8  9  1  0
  8 20  1  0
  9 10  1  0
  9 14  2  0
 10 11  2  0
 10 15  1  0
 11 12  1  0
 12 13  2  0
 13 14  1  0
 16 17  1  1
 16 18  1  0
 18 19  1  1
M  END
$$$$
