
     RDKit          3D

 20 22  0  0  0  0  0  0  0  0999 V2000
  -14.1360   -2.2455   -7.8663 O   0  0  0  0  0  0  0  0  0  0  0  0
  -14.6110   -2.9451   -6.7478 C   0  0  0  0  0  0  0  0  0  0  0  0
  -14.4620   -4.4101   -7.0558 C   0  0  1  0  0  0  0  0  0  0  0  0
  -14.7579   -4.6938   -8.3953 O   0  0  0  0  0  0  0  0  0  0  0  0
  -14.2335   -5.9336   -8.6628 C   0  0  1  0  0  0  0  0  0  0  0  0
  -13.7261   -6.0477  -10.0145 N   0  0  0  0  0  0  0  0  0  0  0  0
  -13.5374   -5.0374  -10.8815 C   0  0  0  0  0  0  0  0  0  0  0  0
  -13.0397   -5.5289  -12.0760 C   0  0  0  0  0  0  0  0  0  0  0  0
  -12.9228   -6.8869  -11.9264 C   0  0  0  0  0  0  0  0  0  0  0  0
  -12.4842   -7.8649  -12.7906 C   0  0  0  0  0  0  0  0  0  0  0  0
  -12.4832   -9.1335  -12.3541 N   0  0  0  0  0  0  0  0  0  0  0  0
  -12.8944   -9.4229  -11.1264 C   0  0  0  0  0  0  0  0  0  0  0  0
  -13.3275   -8.4732  -10.2679 N   0  0  0  0  0  0  0  0  0  0  0  0
  -13.3542   -7.1759  -10.6436 C   0  0  0  0  0  0  0  0  0  0  0  0
  -12.0351   -7.5970  -14.1146 N   0  0  0  0  0  0  0  0  0  0  0  0
  -13.1552   -6.2183   -7.6530 C   0  0  2  0  0  0  0  0  0  0  0  0
  -13.6589   -7.0862   -6.6630 O   0  0  0  0  0  0  0  0  0  0  0  0
  -13.0173   -4.8604   -6.9841 C   0  0  2  0  0  0  0  0  0  0  0  0
  -12.5661   -4.9687   -5.6792 O   0  0  0  0  0  0  0  0  0  0  0  0
  -12.5400   -4.4695  -13.8128 I   0  0  0  0  0  0  0  0  0  0  0  0
  1  2  1  0
  3  2  1  6
  3  4  1  0
  3 18  1  0
  4  5  1  0
  5  6  1  6
  5 16  1  0
  6  7  1  0
  6 14  1  0
  7  8  2  0
  8  9  1  0
  8 20  1  0
  9 10  1  0
  9 14  2  0
 10 11  2  0
 10 15  1  0
 11 12  1  0
 12 13  2  0
 13 14  1  0
 16 17  1  1
 16 18  1  0
 18 19  1  1
M  END
$$$$
