
     RDKit          3D

 20 22  0  0  0  0  0  0  0  0999 V2000
  -13.9594   -2.1549   -7.9557 O   0  0  0  0  0  0  0  0  0  0  0  0
  -14.5893   -2.8628   -6.9222 C   0  0  0  0  0  0  0  0  0  0  0  0
  -14.4163   -4.3254   -7.2288 C   0  0  1  0  0  0  0  0  0  0  0  0
  -14.7114   -4.6159   -8.5671 O   0  0  0  0  0  0  0  0  0  0  0  0
  -14.1668   -5.8470   -8.8346 C   0  0  1  0  0  0  0  0  0  0  0  0
  -13.6617   -5.9541  -10.1878 N   0  0  0  0  0  0  0  0  0  0  0  0
  -13.4407   -4.9358  -11.0376 C   0  0  0  0  0  0  0  0  0  0  0  0
  -12.9572   -5.4224  -12.2399 C   0  0  0  0  0  0  0  0  0  0  0  0
  -12.8829   -6.7857  -12.1131 C   0  0  0  0  0  0  0  0  0  0  0  0
  -12.4740   -7.7623  -12.9934 C   0  0  0  0  0  0  0  0  0  0  0  0
  -12.5130   -9.0375  -12.5782 N   0  0  0  0  0  0  0  0  0  0  0  0
  -12.9344   -9.3345  -11.3558 C   0  0  0  0  0  0  0  0  0  0  0  0
  -13.3386   -8.3862  -10.4816 N   0  0  0  0  0  0  0  0  0  0  0  0
  -13.3245   -7.0827  -10.8356 C   0  0  0  0  0  0  0  0  0  0  0  0
  -12.0154   -7.4864  -14.3124 N   0  0  0  0  0  0  0  0  0  0  0  0
  -13.0807   -6.1119   -7.8279 C   0  0  2  0  0  0  0  0  0  0  0  0
  -13.5663   -6.9869   -6.8352 O   0  0  0  0  0  0  0  0  0  0  0  0
  -12.9639   -4.7509   -7.1611 C   0  0  2  0  0  0  0  0  0  0  0  0
  -12.5068   -4.8498   -5.8575 O   0  0  0  0  0  0  0  0  0  0  0  0
  -12.4229   -4.3501  -13.9584 I   0  0  0  0  0  0  0  0  0  0  0  0
  1  2  1  0
  3  2  1  6
  3  4  1  0
  3 18  1  0
  4  5  1  0
  5  6  1  6
  5 16  1  0
  6  7  1  0
  6 14  1  0
  7  8  2  0
  8  9  1  0
  8 20  1  0
  9 10  1  0
  9 14  2  0
 10 11  2  0
 10 15  1  0
 11 12  1  0
 12 13  2  0
 13 14  1  0
 16 17  1  1
 16 18  1  0
 18 19  1  1
M  END
$$$$
