
     RDKit          3D

 20 22  0  0  0  0  0  0  0  0999 V2000
  -13.5765   -1.7853   -8.2920 O   0  0  0  0  0  0  0  0  0  0  0  0
  -13.4628   -3.1366   -8.5842 C   0  0  0  0  0  0  0  0  0  0  0  0
  -14.4101   -3.9322   -7.7336 C   0  0  1  0  0  0  0  0  0  0  0  0
  -15.0253   -4.9599   -8.3946 O   0  0  0  0  0  0  0  0  0  0  0  0
  -14.1264   -6.0175   -8.4981 C   0  0  1  0  0  0  0  0  0  0  0  0
  -13.7267   -6.1416   -9.8697 N   0  0  0  0  0  0  0  0  0  0  0  0
  -13.5874   -5.0684  -10.6767 C   0  0  0  0  0  0  0  0  0  0  0  0
  -13.1968   -5.4829  -11.9300 C   0  0  0  0  0  0  0  0  0  0  0  0
  -13.0938   -6.8436  -11.8913 C   0  0  0  0  0  0  0  0  0  0  0  0
  -12.7394   -7.7684  -12.8665 C   0  0  0  0  0  0  0  0  0  0  0  0
  -12.7345   -9.0644  -12.5018 N   0  0  0  0  0  0  0  0  0  0  0  0
  -13.0617   -9.4096  -11.2477 C   0  0  0  0  0  0  0  0  0  0  0  0
  -13.4060   -8.5097  -10.3006 N   0  0  0  0  0  0  0  0  0  0  0  0
  -13.4276   -7.2122  -10.6071 C   0  0  0  0  0  0  0  0  0  0  0  0
  -12.4071   -7.3307  -14.1659 N   0  0  0  0  0  0  0  0  0  0  0  0
  -13.0190   -5.7919   -7.5368 C   0  0  2  0  0  0  0  0  0  0  0  0
  -12.8636   -6.9037   -6.7243 O   0  0  0  0  0  0  0  0  0  0  0  0
  -13.6109   -4.6848   -6.6645 C   0  0  2  0  0  0  0  0  0  0  0  0
  -14.5192   -5.2475   -5.7998 O   0  0  0  0  0  0  0  0  0  0  0  0
  -12.8103   -4.3126  -13.6361 I   0  0  0  0  0  0  0  0  0  0  0  0
  2  1  1  1
  2  3  1  0
  3  4  1  6
  3 18  1  0
  4  5  1  0
  5  6  1  6
  5 16  1  0
  6  7  1  0
  6 14  1  0
  7  8  2  0
  8  9  1  0
  8 20  1  0
  9 10  1  0
  9 14  2  0
 10 11  2  0
 10 15  1  0
 11 12  1  0
 12 13  2  0
 13 14  1  0
 16 17  1  1
 16 18  1  0
 18 19  1  1
M  END
$$$$
