
     RDKit          3D

 20 22  0  0  0  0  0  0  0  0999 V2000
  -13.3956   -1.8239   -8.2310 O   0  0  0  0  0  0  0  0  0  0  0  0
  -13.3896   -3.1531   -8.6280 C   0  0  0  0  0  0  0  0  0  0  0  0
  -14.3053   -3.9593   -7.7532 C   0  0  1  0  0  0  0  0  0  0  0  0
  -14.9069   -5.0089   -8.3920 O   0  0  0  0  0  0  0  0  0  0  0  0
  -13.9857   -6.0470   -8.4969 C   0  0  1  0  0  0  0  0  0  0  0  0
  -13.6044   -6.1790   -9.8729 N   0  0  0  0  0  0  0  0  0  0  0  0
  -13.4867   -5.1114  -10.6908 C   0  0  0  0  0  0  0  0  0  0  0  0
  -13.1100   -5.5329  -11.9460 C   0  0  0  0  0  0  0  0  0  0  0  0
  -12.9937   -6.8922  -11.8974 C   0  0  0  0  0  0  0  0  0  0  0  0
  -12.6445   -7.8219  -12.8698 C   0  0  0  0  0  0  0  0  0  0  0  0
  -12.6221   -9.1146  -12.4944 N   0  0  0  0  0  0  0  0  0  0  0  0
  -12.9282   -9.4523  -11.2329 C   0  0  0  0  0  0  0  0  0  0  0  0
  -13.2675   -8.5476  -10.2886 N   0  0  0  0  0  0  0  0  0  0  0  0
  -13.3057   -7.2530  -10.6056 C   0  0  0  0  0  0  0  0  0  0  0  0
  -12.3348   -7.3921  -14.1774 N   0  0  0  0  0  0  0  0  0  0  0  0
  -12.8692   -5.7844   -7.5557 C   0  0  2  0  0  0  0  0  0  0  0  0
  -12.6760   -6.8823   -6.7324 O   0  0  0  0  0  0  0  0  0  0  0  0
  -13.4728   -4.6803   -6.6877 C   0  0  2  0  0  0  0  0  0  0  0  0
  -14.3546   -5.2527   -5.8022 O   0  0  0  0  0  0  0  0  0  0  0  0
  -12.7589   -4.3735  -13.6671 I   0  0  0  0  0  0  0  0  0  0  0  0
  2  1  1  1
  2  3  1  0
  3  4  1  6
  3 18  1  0
  4  5  1  0
  5  6  1  6
  5 16  1  0
  6  7  1  0
  6 14  1  0
  7  8  2  0
  8  9  1  0
  8 20  1  0
  9 10  1  0
  9 14  2  0
 10 11  2  0
 10 15  1  0
 11 12  1  0
 12 13  2  0
 13 14  1  0
 16 17  1  1
 16 18  1  0
 18 19  1  1
M  END
$$$$
