
     RDKit          3D

 20 22  0  0  0  0  0  0  0  0999 V2000
  -13.4347   -1.7788   -8.8433 O   0  0  0  0  0  0  0  0  0  0  0  0
  -12.8805   -2.9992   -8.4857 C   0  0  0  0  0  0  0  0  0  0  0  0
  -13.8347   -3.7670   -7.6174 C   0  0  1  0  0  0  0  0  0  0  0  0
  -14.4795   -4.7867   -8.2623 O   0  0  0  0  0  0  0  0  0  0  0  0
  -13.6047   -5.8642   -8.3671 C   0  0  1  0  0  0  0  0  0  0  0  0
  -13.2239   -6.0084   -9.7421 N   0  0  0  0  0  0  0  0  0  0  0  0
  -13.0433   -4.9439  -10.5523 C   0  0  0  0  0  0  0  0  0  0  0  0
  -12.6836   -5.3777  -11.8084 C   0  0  0  0  0  0  0  0  0  0  0  0
  -12.6425   -6.7416  -11.7681 C   0  0  0  0  0  0  0  0  0  0  0  0
  -12.3397   -7.6830  -12.7448 C   0  0  0  0  0  0  0  0  0  0  0  0
  -12.3905   -8.9773  -12.3776 N   0  0  0  0  0  0  0  0  0  0  0  0
  -12.7215   -9.3054  -11.1200 C   0  0  0  0  0  0  0  0  0  0  0  0
  -13.0156   -8.3894  -10.1715 N   0  0  0  0  0  0  0  0  0  0  0  0
  -12.9808   -7.0927  -10.4802 C   0  0  0  0  0  0  0  0  0  0  0  0
  -11.9998   -7.2628  -14.0479 N   0  0  0  0  0  0  0  0  0  0  0  0
  -12.4816   -5.6545   -7.4206 C   0  0  2  0  0  0  0  0  0  0  0  0
  -12.3406   -6.7626   -6.6003 O   0  0  0  0  0  0  0  0  0  0  0  0
  -13.0394   -4.5276   -6.5511 C   0  0  2  0  0  0  0  0  0  0  0  0
  -13.9494   -5.0633   -5.6711 O   0  0  0  0  0  0  0  0  0  0  0  0
  -12.2600   -4.2286  -13.5201 I   0  0  0  0  0  0  0  0  0  0  0  0
  2  1  1  1
  2  3  1  0
  3  4  1  6
  3 18  1  0
  4  5  1  0
  5  6  1  6
  5 16  1  0
  6  7  1  0
  6 14  1  0
  7  8  2  0
  8  9  1  0
  8 20  1  0
  9 10  1  0
  9 14  2  0
 10 11  2  0
 10 15  1  0
 11 12  1  0
 12 13  2  0
 13 14  1  0
 16 17  1  1
 16 18  1  0
 18 19  1  1
M  END
$$$$
