
     RDKit          3D

 20 22  0  0  0  0  0  0  0  0999 V2000
  -13.6111   -2.3274   -8.2141 O   0  0  0  0  0  0  0  0  0  0  0  0
  -14.2615   -2.9840   -7.1596 C   0  0  0  0  0  0  0  0  0  0  0  0
  -14.1020   -4.4602   -7.4023 C   0  0  1  0  0  0  0  0  0  0  0  0
  -14.4013   -4.8061   -8.7264 O   0  0  0  0  0  0  0  0  0  0  0  0
  -13.8681   -6.0525   -8.9404 C   0  0  1  0  0  0  0  0  0  0  0  0
  -13.3656   -6.2231  -10.2880 N   0  0  0  0  0  0  0  0  0  0  0  0
  -13.1611   -5.2475  -11.1904 C   0  0  0  0  0  0  0  0  0  0  0  0
  -12.6745   -5.7895  -12.3676 C   0  0  0  0  0  0  0  0  0  0  0  0
  -12.5811   -7.1432  -12.1702 C   0  0  0  0  0  0  0  0  0  0  0  0
  -12.1614   -8.1587  -13.0000 C   0  0  0  0  0  0  0  0  0  0  0  0
  -12.1817   -9.4109  -12.5189 N   0  0  0  0  0  0  0  0  0  0  0  0
  -12.5954   -9.6495  -11.2812 C   0  0  0  0  0  0  0  0  0  0  0  0
  -13.0100   -8.6626  -10.4561 N   0  0  0  0  0  0  0  0  0  0  0  0
  -13.0148   -7.3792  -10.8774 C   0  0  0  0  0  0  0  0  0  0  0  0
  -11.7105   -7.9456  -14.3333 N   0  0  0  0  0  0  0  0  0  0  0  0
  -12.7832   -6.2830   -7.9240 C   0  0  2  0  0  0  0  0  0  0  0  0
  -13.2756   -7.1095   -6.8936 O   0  0  0  0  0  0  0  0  0  0  0  0
  -12.6534   -4.8954   -7.3172 C   0  0  2  0  0  0  0  0  0  0  0  0
  -12.1957   -4.9415   -6.0109 O   0  0  0  0  0  0  0  0  0  0  0  0
  -12.1599   -4.8010  -14.1414 I   0  0  0  0  0  0  0  0  0  0  0  0
  1  2  1  0
  3  2  1  6
  3  4  1  0
  3 18  1  0
  4  5  1  0
  5  6  1  6
  5 16  1  0
  6  7  1  0
  6 14  1  0
  7  8  2  0
  8  9  1  0
  8 20  1  0
  9 10  1  0
  9 14  2  0
 10 11  2  0
 10 15  1  0
 11 12  1  0
 12 13  2  0
 13 14  1  0
 16 17  1  1
 16 18  1  0
 18 19  1  1
M  END
$$$$
