
     RDKit          3D

 20 22  0  0  0  0  0  0  0  0999 V2000
  -13.5922   -2.1921   -7.9990 O   0  0  0  0  0  0  0  0  0  0  0  0
  -14.0124   -2.8495   -6.8339 C   0  0  0  0  0  0  0  0  0  0  0  0
  -14.0004   -4.3229   -7.1378 C   0  0  1  0  0  0  0  0  0  0  0  0
  -14.3356   -4.5825   -8.4730 O   0  0  0  0  0  0  0  0  0  0  0  0
  -13.9290   -5.8656   -8.7412 C   0  0  1  0  0  0  0  0  0  0  0  0
  -13.4490   -6.0292  -10.0979 N   0  0  0  0  0  0  0  0  0  0  0  0
  -13.2488   -5.0477  -10.9948 C   0  0  0  0  0  0  0  0  0  0  0  0
  -12.7859   -5.5840  -12.1841 C   0  0  0  0  0  0  0  0  0  0  0  0
  -12.7028   -6.9403  -11.9999 C   0  0  0  0  0  0  0  0  0  0  0  0
  -12.3060   -7.9524  -12.8449 C   0  0  0  0  0  0  0  0  0  0  0  0
  -12.3313   -9.2086  -12.3744 N   0  0  0  0  0  0  0  0  0  0  0  0
  -12.7282   -9.4541  -11.1325 C   0  0  0  0  0  0  0  0  0  0  0  0
  -13.1202   -8.4705  -10.2926 N   0  0  0  0  0  0  0  0  0  0  0  0
  -13.1188   -7.1834  -10.7026 C   0  0  0  0  0  0  0  0  0  0  0  0
  -11.8737   -7.7320  -14.1831 N   0  0  0  0  0  0  0  0  0  0  0  0
  -12.8698   -6.2440   -7.7420 C   0  0  2  0  0  0  0  0  0  0  0  0
  -13.4392   -7.0597   -6.7432 O   0  0  0  0  0  0  0  0  0  0  0  0
  -12.6018   -4.9023   -7.0800 C   0  0  2  0  0  0  0  0  0  0  0  0
  -12.1479   -5.0473   -5.7796 O   0  0  0  0  0  0  0  0  0  0  0  0
  -12.2890   -4.5850  -13.9571 I   0  0  0  0  0  0  0  0  0  0  0  0
  1  2  1  0
  3  2  1  6
  3  4  1  0
  3 18  1  0
  4  5  1  0
  5  6  1  6
  5 16  1  0
  6  7  1  0
  6 14  1  0
  7  8  2  0
  8  9  1  0
  8 20  1  0
  9 10  1  0
  9 14  2  0
 10 11  2  0
 10 15  1  0
 11 12  1  0
 12 13  2  0
 13 14  1  0
 16 17  1  1
 16 18  1  0
 18 19  1  1
M  END
$$$$
