
     RDKit          3D

 20 22  0  0  0  0  0  0  0  0999 V2000
  -13.8290   -2.2166   -7.7410 O   0  0  0  0  0  0  0  0  0  0  0  0
  -14.4733   -2.8853   -6.6903 C   0  0  0  0  0  0  0  0  0  0  0  0
  -14.3223   -4.3585   -6.9552 C   0  0  1  0  0  0  0  0  0  0  0  0
  -14.6238   -4.6828   -8.2843 O   0  0  0  0  0  0  0  0  0  0  0  0
  -14.0978   -5.9288   -8.5171 C   0  0  1  0  0  0  0  0  0  0  0  0
  -13.5964   -6.0820   -9.8673 N   0  0  0  0  0  0  0  0  0  0  0  0
  -13.4022   -5.0960  -10.7606 C   0  0  0  0  0  0  0  0  0  0  0  0
  -12.9132   -5.6224  -11.9439 C   0  0  0  0  0  0  0  0  0  0  0  0
  -12.8075   -6.9771  -11.7597 C   0  0  0  0  0  0  0  0  0  0  0  0
  -12.3806   -7.9808  -12.6001 C   0  0  0  0  0  0  0  0  0  0  0  0
  -12.3889   -9.2377  -12.1310 N   0  0  0  0  0  0  0  0  0  0  0  0
  -12.7981   -9.4918  -10.8949 C   0  0  0  0  0  0  0  0  0  0  0  0
  -13.2197   -8.5166  -10.0595 N   0  0  0  0  0  0  0  0  0  0  0  0
  -13.2366   -7.2293  -10.4685 C   0  0  0  0  0  0  0  0  0  0  0  0
  -11.9342   -7.7509  -13.9321 N   0  0  0  0  0  0  0  0  0  0  0  0
  -13.0141   -6.1809   -7.5045 C   0  0  2  0  0  0  0  0  0  0  0  0
  -13.5110   -7.0199   -6.4866 O   0  0  0  0  0  0  0  0  0  0  0  0
  -12.8762   -4.8033   -6.8770 C   0  0  2  0  0  0  0  0  0  0  0  0
  -12.4186   -4.8716   -5.5716 O   0  0  0  0  0  0  0  0  0  0  0  0
  -12.4109   -4.6124  -13.7091 I   0  0  0  0  0  0  0  0  0  0  0  0
  1  2  1  0
  3  2  1  6
  3  4  1  0
  3 18  1  0
  4  5  1  0
  5  6  1  6
  5 16  1  0
  6  7  1  0
  6 14  1  0
  7  8  2  0
  8  9  1  0
  8 20  1  0
  9 10  1  0
  9 14  2  0
 10 11  2  0
 10 15  1  0
 11 12  1  0
 12 13  2  0
 13 14  1  0
 16 17  1  1
 16 18  1  0
 18 19  1  1
M  END
$$$$
