
     RDKit          3D

 20 22  0  0  0  0  0  0  0  0999 V2000
  -13.9662   -1.9664   -7.9028 O   0  0  0  0  0  0  0  0  0  0  0  0
  -14.5618   -2.6386   -6.8260 C   0  0  0  0  0  0  0  0  0  0  0  0
  -14.4441   -4.1106   -7.1137 C   0  0  1  0  0  0  0  0  0  0  0  0
  -14.7692   -4.4095   -8.4431 O   0  0  0  0  0  0  0  0  0  0  0  0
  -14.2716   -5.6624   -8.7005 C   0  0  1  0  0  0  0  0  0  0  0  0
  -13.7910   -5.8062  -10.0592 N   0  0  0  0  0  0  0  0  0  0  0  0
  -13.5747   -4.8101  -10.9362 C   0  0  0  0  0  0  0  0  0  0  0  0
  -13.1168   -5.3296  -12.1349 C   0  0  0  0  0  0  0  0  0  0  0  0
  -13.0537   -6.6902  -11.9774 C   0  0  0  0  0  0  0  0  0  0  0  0
  -12.6695   -7.6912  -12.8414 C   0  0  0  0  0  0  0  0  0  0  0  0
  -12.7139   -8.9559  -12.3958 N   0  0  0  0  0  0  0  0  0  0  0  0
  -13.1170   -9.2200  -11.1598 C   0  0  0  0  0  0  0  0  0  0  0  0
  -13.4968   -8.2476  -10.3014 N   0  0  0  0  0  0  0  0  0  0  0  0
  -13.4760   -6.9529  -10.6860 C   0  0  0  0  0  0  0  0  0  0  0  0
  -12.2311   -7.4507  -14.1741 N   0  0  0  0  0  0  0  0  0  0  0  0
  -13.1802   -5.9507   -7.7060 C   0  0  2  0  0  0  0  0  0  0  0  0
  -13.6807   -6.7941   -6.6936 O   0  0  0  0  0  0  0  0  0  0  0  0
  -13.0064   -4.5852   -7.0610 C   0  0  2  0  0  0  0  0  0  0  0  0
  -12.5334   -4.6816   -5.7628 O   0  0  0  0  0  0  0  0  0  0  0  0
  -12.6017   -4.3031  -13.8869 I   0  0  0  0  0  0  0  0  0  0  0  0
  1  2  1  0
  3  2  1  6
  3  4  1  0
  3 18  1  0
  4  5  1  0
  5  6  1  6
  5 16  1  0
  6  7  1  0
  6 14  1  0
  7  8  2  0
  8  9  1  0
  8 20  1  0
  9 10  1  0
  9 14  2  0
 10 11  2  0
 10 15  1  0
 11 12  1  0
 12 13  2  0
 13 14  1  0
 16 17  1  1
 16 18  1  0
 18 19  1  1
M  END
$$$$
