
     RDKit          3D

 20 22  0  0  0  0  0  0  0  0999 V2000
  -15.2409   -2.1913   -7.8394 O   0  0  0  0  0  0  0  0  0  0  0  0
  -14.7336   -2.8105   -6.6882 C   0  0  0  0  0  0  0  0  0  0  0  0
  -14.5669   -4.2691   -7.0167 C   0  0  1  0  0  0  0  0  0  0  0  0
  -14.8593   -4.5377   -8.3601 O   0  0  0  0  0  0  0  0  0  0  0  0
  -14.3200   -5.7671   -8.6448 C   0  0  1  0  0  0  0  0  0  0  0  0
  -13.8112   -5.8560   -9.9980 N   0  0  0  0  0  0  0  0  0  0  0  0
  -13.5562   -4.8242  -10.8215 C   0  0  0  0  0  0  0  0  0  0  0  0
  -13.0810   -5.2954  -12.0333 C   0  0  0  0  0  0  0  0  0  0  0  0
  -13.0472   -6.6630  -11.9396 C   0  0  0  0  0  0  0  0  0  0  0  0
  -12.6625   -7.6295  -12.8417 C   0  0  0  0  0  0  0  0  0  0  0  0
  -12.7409   -8.9127  -12.4581 N   0  0  0  0  0  0  0  0  0  0  0  0
  -13.1771   -9.2268  -11.2452 C   0  0  0  0  0  0  0  0  0  0  0  0
  -13.5579   -8.2887  -10.3499 N   0  0  0  0  0  0  0  0  0  0  0  0
  -13.5038   -6.9779  -10.6717 C   0  0  0  0  0  0  0  0  0  0  0  0
  -12.1892   -7.3350  -14.1515 N   0  0  0  0  0  0  0  0  0  0  0  0
  -13.2382   -6.0528   -7.6391 C   0  0  2  0  0  0  0  0  0  0  0  0
  -13.7312   -6.9405   -6.6613 O   0  0  0  0  0  0  0  0  0  0  0  0
  -13.1168   -4.7028   -6.9512 C   0  0  2  0  0  0  0  0  0  0  0  0
  -12.6642   -4.8239   -5.6478 O   0  0  0  0  0  0  0  0  0  0  0  0
  -12.5066   -4.1977  -13.7226 I   0  0  0  0  0  0  0  0  0  0  0  0
  1  2  1  0
  3  2  1  6
  3  4  1  0
  3 18  1  0
  4  5  1  0
  5  6  1  6
  5 16  1  0
  6  7  1  0
  6 14  1  0
  7  8  2  0
  8  9  1  0
  8 20  1  0
  9 10  1  0
  9 14  2  0
 10 11  2  0
 10 15  1  0
 11 12  1  0
 12 13  2  0
 13 14  1  0
 16 17  1  1
 16 18  1  0
 18 19  1  1
M  END
$$$$
