
     RDKit          3D

 20 22  0  0  0  0  0  0  0  0999 V2000
  -13.3123   -1.7186   -8.4122 O   0  0  0  0  0  0  0  0  0  0  0  0
  -13.0724   -3.0828   -8.4877 C   0  0  0  0  0  0  0  0  0  0  0  0
  -14.0699   -3.8313   -7.6517 C   0  0  1  0  0  0  0  0  0  0  0  0
  -14.7413   -4.8124   -8.3286 O   0  0  0  0  0  0  0  0  0  0  0  0
  -13.9061   -5.9200   -8.4415 C   0  0  1  0  0  0  0  0  0  0  0  0
  -13.5071   -6.0506   -9.8126 N   0  0  0  0  0  0  0  0  0  0  0  0
  -13.3800   -4.9822  -10.6280 C   0  0  0  0  0  0  0  0  0  0  0  0
  -12.9868   -5.4024  -11.8787 C   0  0  0  0  0  0  0  0  0  0  0  0
  -12.8698   -6.7616  -11.8297 C   0  0  0  0  0  0  0  0  0  0  0  0
  -12.5072   -7.6902  -12.7983 C   0  0  0  0  0  0  0  0  0  0  0  0
  -12.4884   -8.9831  -12.4236 N   0  0  0  0  0  0  0  0  0  0  0  0
  -12.8103   -9.3221  -11.1664 C   0  0  0  0  0  0  0  0  0  0  0  0
  -13.1626   -8.4186  -10.2258 N   0  0  0  0  0  0  0  0  0  0  0  0
  -13.1980   -7.1237  -10.5422 C   0  0  0  0  0  0  0  0  0  0  0  0
  -12.1813   -7.2591  -14.1014 N   0  0  0  0  0  0  0  0  0  0  0  0
  -12.7926   -5.7725   -7.4722 C   0  0  2  0  0  0  0  0  0  0  0  0
  -12.7077   -6.9016   -6.6732 O   0  0  0  0  0  0  0  0  0  0  0  0
  -13.3224   -4.6432   -6.5886 C   0  0  2  0  0  0  0  0  0  0  0  0
  -14.2672   -5.1617   -5.7354 O   0  0  0  0  0  0  0  0  0  0  0  0
  -12.6148   -4.2412  -13.5943 I   0  0  0  0  0  0  0  0  0  0  0  0
  2  1  1  1
  2  3  1  0
  3  4  1  6
  3 18  1  0
  4  5  1  0
  5  6  1  6
  5 16  1  0
  6  7  1  0
  6 14  1  0
  7  8  2  0
  8  9  1  0
  8 20  1  0
  9 10  1  0
  9 14  2  0
 10 11  2  0
 10 15  1  0
 11 12  1  0
 12 13  2  0
 13 14  1  0
 16 17  1  1
 16 18  1  0
 18 19  1  1
M  END
$$$$
