
     RDKit          3D

 20 22  0  0  0  0  0  0  0  0999 V2000
  -13.4106   -1.7697   -8.2896 O   0  0  0  0  0  0  0  0  0  0  0  0
  -13.3903   -3.0848   -8.7306 C   0  0  0  0  0  0  0  0  0  0  0  0
  -14.2473   -3.9417   -7.8446 C   0  0  1  0  0  0  0  0  0  0  0  0
  -14.7922   -5.0267   -8.4750 O   0  0  0  0  0  0  0  0  0  0  0  0
  -13.8122   -6.0085   -8.5876 C   0  0  1  0  0  0  0  0  0  0  0  0
  -13.4382   -6.1212   -9.9674 N   0  0  0  0  0  0  0  0  0  0  0  0
  -13.3184   -5.0417  -10.7691 C   0  0  0  0  0  0  0  0  0  0  0  0
  -12.9500   -5.4456  -12.0325 C   0  0  0  0  0  0  0  0  0  0  0  0
  -12.8411   -6.8061  -12.0057 C   0  0  0  0  0  0  0  0  0  0  0  0
  -12.5018   -7.7225  -12.9941 C   0  0  0  0  0  0  0  0  0  0  0  0
  -12.4849   -9.0210  -12.6390 N   0  0  0  0  0  0  0  0  0  0  0  0
  -12.7870   -9.3766  -11.3815 C   0  0  0  0  0  0  0  0  0  0  0  0
  -13.1167   -8.4849  -10.4216 N   0  0  0  0  0  0  0  0  0  0  0  0
  -13.1491   -7.1853  -10.7181 C   0  0  0  0  0  0  0  0  0  0  0  0
  -12.1959   -7.2741  -14.2963 N   0  0  0  0  0  0  0  0  0  0  0  0
  -12.7034   -5.6778   -7.6589 C   0  0  2  0  0  0  0  0  0  0  0  0
  -12.4367   -6.7602   -6.8356 O   0  0  0  0  0  0  0  0  0  0  0  0
  -13.3623   -4.6093   -6.7867 C   0  0  2  0  0  0  0  0  0  0  0  0
  -14.1993   -5.2307   -5.8907 O   0  0  0  0  0  0  0  0  0  0  0  0
  -12.6005   -4.2615  -13.7371 I   0  0  0  0  0  0  0  0  0  0  0  0
  2  1  1  1
  2  3  1  0
  3  4  1  6
  3 18  1  0
  4  5  1  0
  5  6  1  6
  5 16  1  0
  6  7  1  0
  6 14  1  0
  7  8  2  0
  8  9  1  0
  8 20  1  0
  9 10  1  0
  9 14  2  0
 10 11  2  0
 10 15  1  0
 11 12  1  0
 12 13  2  0
 13 14  1  0
 16 17  1  1
 16 18  1  0
 18 19  1  1
M  END
$$$$
