
     RDKit          3D

 20 22  0  0  0  0  0  0  0  0999 V2000
  -13.8718   -2.2396   -7.8184 O   0  0  0  0  0  0  0  0  0  0  0  0
  -14.4371   -2.9176   -6.7289 C   0  0  0  0  0  0  0  0  0  0  0  0
  -14.2845   -4.3885   -7.0057 C   0  0  1  0  0  0  0  0  0  0  0  0
  -14.5655   -4.6993   -8.3424 O   0  0  0  0  0  0  0  0  0  0  0  0
  -14.0381   -5.9440   -8.5790 C   0  0  1  0  0  0  0  0  0  0  0  0
  -13.5158   -6.0852   -9.9225 N   0  0  0  0  0  0  0  0  0  0  0  0
  -13.2985   -5.0901  -10.8003 C   0  0  0  0  0  0  0  0  0  0  0  0
  -12.7944   -5.6062  -11.9817 C   0  0  0  0  0  0  0  0  0  0  0  0
  -12.7034   -6.9639  -11.8126 C   0  0  0  0  0  0  0  0  0  0  0  0
  -12.2711   -7.9610  -12.6581 C   0  0  0  0  0  0  0  0  0  0  0  0
  -12.2979   -9.2234  -12.2048 N   0  0  0  0  0  0  0  0  0  0  0  0
  -12.7296   -9.4890  -10.9788 C   0  0  0  0  0  0  0  0  0  0  0  0
  -13.1567   -8.5204  -10.1385 N   0  0  0  0  0  0  0  0  0  0  0  0
  -13.1559   -7.2281  -10.5318 C   0  0  0  0  0  0  0  0  0  0  0  0
  -11.8007   -7.7188  -13.9796 N   0  0  0  0  0  0  0  0  0  0  0  0
  -12.9710   -6.2079   -7.5519 C   0  0  2  0  0  0  0  0  0  0  0  0
  -13.4854   -7.0558   -6.5502 O   0  0  0  0  0  0  0  0  0  0  0  0
  -12.8406   -4.8367   -6.9090 C   0  0  2  0  0  0  0  0  0  0  0  0
  -12.4038   -4.9186   -5.5973 O   0  0  0  0  0  0  0  0  0  0  0  0
  -12.2543   -4.5792  -13.7259 I   0  0  0  0  0  0  0  0  0  0  0  0
  1  2  1  0
  3  2  1  6
  3  4  1  0
  3 18  1  0
  4  5  1  0
  5  6  1  6
  5 16  1  0
  6  7  1  0
  6 14  1  0
  7  8  2  0
  8  9  1  0
  8 20  1  0
  9 10  1  0
  9 14  2  0
 10 11  2  0
 10 15  1  0
 11 12  1  0
 12 13  2  0
 13 14  1  0
 16 17  1  1
 16 18  1  0
 18 19  1  1
M  END
$$$$
