
     RDKit          3D

 20 22  0  0  0  0  0  0  0  0999 V2000
  -13.9334   -2.1275   -7.9193 O   0  0  0  0  0  0  0  0  0  0  0  0
  -14.5490   -2.8238   -6.8693 C   0  0  0  0  0  0  0  0  0  0  0  0
  -14.3527   -4.2895   -7.1457 C   0  0  1  0  0  0  0  0  0  0  0  0
  -14.6278   -4.6096   -8.4815 O   0  0  0  0  0  0  0  0  0  0  0  0
  -14.0635   -5.8379   -8.7189 C   0  0  1  0  0  0  0  0  0  0  0  0
  -13.5408   -5.9640  -10.0637 N   0  0  0  0  0  0  0  0  0  0  0  0
  -13.3177   -4.9585  -10.9281 C   0  0  0  0  0  0  0  0  0  0  0  0
  -12.8154   -5.4616  -12.1159 C   0  0  0  0  0  0  0  0  0  0  0  0
  -12.7315   -6.8219  -11.9647 C   0  0  0  0  0  0  0  0  0  0  0  0
  -12.3037   -7.8099  -12.8230 C   0  0  0  0  0  0  0  0  0  0  0  0
  -12.3374   -9.0781  -12.3864 N   0  0  0  0  0  0  0  0  0  0  0  0
  -12.7715   -9.3576  -11.1643 C   0  0  0  0  0  0  0  0  0  0  0  0
  -13.1942   -8.3980  -10.3116 N   0  0  0  0  0  0  0  0  0  0  0  0
  -13.1864   -7.1006  -10.6878 C   0  0  0  0  0  0  0  0  0  0  0  0
  -11.8310   -7.5527  -14.1408 N   0  0  0  0  0  0  0  0  0  0  0  0
  -12.9861   -6.0687   -7.6946 C   0  0  2  0  0  0  0  0  0  0  0  0
  -13.4718   -6.9311   -6.6909 O   0  0  0  0  0  0  0  0  0  0  0  0
  -12.8956   -4.6937   -7.0528 C   0  0  2  0  0  0  0  0  0  0  0  0
  -12.4529   -4.7615   -5.7422 O   0  0  0  0  0  0  0  0  0  0  0  0
  -12.2686   -4.4145  -13.8459 I   0  0  0  0  0  0  0  0  0  0  0  0
  1  2  1  0
  3  2  1  6
  3  4  1  0
  3 18  1  0
  4  5  1  0
  5  6  1  6
  5 16  1  0
  6  7  1  0
  6 14  1  0
  7  8  2  0
  8  9  1  0
  8 20  1  0
  9 10  1  0
  9 14  2  0
 10 11  2  0
 10 15  1  0
 11 12  1  0
 12 13  2  0
 13 14  1  0
 16 17  1  1
 16 18  1  0
 18 19  1  1
M  END
$$$$
