
     RDKit          3D

 20 22  0  0  0  0  0  0  0  0999 V2000
  -13.6720   -2.1420   -7.8789 O   0  0  0  0  0  0  0  0  0  0  0  0
  -14.3467   -2.8029   -6.8424 C   0  0  0  0  0  0  0  0  0  0  0  0
  -14.2256   -4.2773   -7.1156 C   0  0  1  0  0  0  0  0  0  0  0  0
  -14.5474   -4.5898   -8.4428 O   0  0  0  0  0  0  0  0  0  0  0  0
  -14.0468   -5.8441   -8.6870 C   0  0  1  0  0  0  0  0  0  0  0  0
  -13.5631   -6.0001  -10.0432 N   0  0  0  0  0  0  0  0  0  0  0  0
  -13.3628   -5.0138  -10.9349 C   0  0  0  0  0  0  0  0  0  0  0  0
  -12.8956   -5.5434  -12.1256 C   0  0  0  0  0  0  0  0  0  0  0  0
  -12.8100   -6.9003  -11.9477 C   0  0  0  0  0  0  0  0  0  0  0  0
  -12.4088   -7.9074  -12.7966 C   0  0  0  0  0  0  0  0  0  0  0  0
  -12.4324   -9.1659  -12.3323 N   0  0  0  0  0  0  0  0  0  0  0  0
  -12.8318   -9.4183  -11.0926 C   0  0  0  0  0  0  0  0  0  0  0  0
  -13.2282   -8.4397  -10.2489 N   0  0  0  0  0  0  0  0  0  0  0  0
  -13.2287   -7.1506  -10.6527 C   0  0  0  0  0  0  0  0  0  0  0  0
  -11.9735   -7.6796  -14.1326 N   0  0  0  0  0  0  0  0  0  0  0  0
  -12.9570   -6.1207   -7.6874 C   0  0  2  0  0  0  0  0  0  0  0  0
  -13.4581   -6.9553   -6.6679 O   0  0  0  0  0  0  0  0  0  0  0  0
  -12.7871   -4.7488   -7.0553 C   0  0  2  0  0  0  0  0  0  0  0  0
  -12.3167   -4.8316   -5.7553 O   0  0  0  0  0  0  0  0  0  0  0  0
  -12.3966   -4.5346  -13.8924 I   0  0  0  0  0  0  0  0  0  0  0  0
  1  2  1  0
  3  2  1  6
  3  4  1  0
  3 18  1  0
  4  5  1  0
  5  6  1  6
  5 16  1  0
  6  7  1  0
  6 14  1  0
  7  8  2  0
  8  9  1  0
  8 20  1  0
  9 10  1  0
  9 14  2  0
 10 11  2  0
 10 15  1  0
 11 12  1  0
 12 13  2  0
 13 14  1  0
 16 17  1  1
 16 18  1  0
 18 19  1  1
M  END
$$$$
