
     RDKit          3D

 20 22  0  0  0  0  0  0  0  0999 V2000
  -13.4905   -1.6631   -8.0362 O   0  0  0  0  0  0  0  0  0  0  0  0
  -13.4658   -2.9946   -8.4245 C   0  0  0  0  0  0  0  0  0  0  0  0
  -14.3944   -3.8024   -7.5647 C   0  0  1  0  0  0  0  0  0  0  0  0
  -14.9634   -4.8685   -8.2060 O   0  0  0  0  0  0  0  0  0  0  0  0
  -14.0255   -5.8947   -8.2716 C   0  0  1  0  0  0  0  0  0  0  0  0
  -13.6042   -6.0389   -9.6347 N   0  0  0  0  0  0  0  0  0  0  0  0
  -13.4942   -4.9823  -10.4677 C   0  0  0  0  0  0  0  0  0  0  0  0
  -13.0727   -5.4141  -11.7051 C   0  0  0  0  0  0  0  0  0  0  0  0
  -12.9203   -6.7686  -11.6297 C   0  0  0  0  0  0  0  0  0  0  0  0
  -12.5199   -7.7043  -12.5763 C   0  0  0  0  0  0  0  0  0  0  0  0
  -12.4720   -8.9894  -12.1779 N   0  0  0  0  0  0  0  0  0  0  0  0
  -12.8021   -9.3143  -10.9192 C   0  0  0  0  0  0  0  0  0  0  0  0
  -13.1912   -8.4039  -10.0000 N   0  0  0  0  0  0  0  0  0  0  0  0
  -13.2566   -7.1163  -10.3404 C   0  0  0  0  0  0  0  0  0  0  0  0
  -12.1874   -7.2880  -13.8826 N   0  0  0  0  0  0  0  0  0  0  0  0
  -12.9394   -5.6043   -7.3035 C   0  0  2  0  0  0  0  0  0  0  0  0
  -12.7541   -6.6886   -6.4607 O   0  0  0  0  0  0  0  0  0  0  0  0
  -13.5821   -4.4978   -6.4672 C   0  0  2  0  0  0  0  0  0  0  0  0
  -14.4803   -5.0711   -5.5989 O   0  0  0  0  0  0  0  0  0  0  0  0
  -12.7079   -4.2742  -13.4364 I   0  0  0  0  0  0  0  0  0  0  0  0
  2  1  1  1
  2  3  1  0
  3  4  1  6
  3 18  1  0
  4  5  1  0
  5  6  1  6
  5 16  1  0
  6  7  1  0
  6 14  1  0
  7  8  2  0
  8  9  1  0
  8 20  1  0
  9 10  1  0
  9 14  2  0
 10 11  2  0
 10 15  1  0
 11 12  1  0
 12 13  2  0
 13 14  1  0
 16 17  1  1
 16 18  1  0
 18 19  1  1
M  END
$$$$
