
     RDKit          3D

 20 22  0  0  0  0  0  0  0  0999 V2000
  -13.9904   -2.2087   -8.0477 O   0  0  0  0  0  0  0  0  0  0  0  0
  -14.3880   -2.9145   -6.9032 C   0  0  0  0  0  0  0  0  0  0  0  0
  -14.2432   -4.3775   -7.2224 C   0  0  1  0  0  0  0  0  0  0  0  0
  -14.5358   -4.6496   -8.5651 O   0  0  0  0  0  0  0  0  0  0  0  0
  -14.0149   -5.8890   -8.8407 C   0  0  1  0  0  0  0  0  0  0  0  0
  -13.5036   -5.9941  -10.1917 N   0  0  0  0  0  0  0  0  0  0  0  0
  -13.2978   -4.9763  -11.0460 C   0  0  0  0  0  0  0  0  0  0  0  0
  -12.8020   -5.4605  -12.2444 C   0  0  0  0  0  0  0  0  0  0  0  0
  -12.7041   -6.8216  -12.1103 C   0  0  0  0  0  0  0  0  0  0  0  0
  -12.2753   -7.7953  -12.9843 C   0  0  0  0  0  0  0  0  0  0  0  0
  -12.2933   -9.0688  -12.5628 N   0  0  0  0  0  0  0  0  0  0  0  0
  -12.7133   -9.3670  -11.3402 C   0  0  0  0  0  0  0  0  0  0  0  0
  -13.1369   -8.4216  -10.4722 N   0  0  0  0  0  0  0  0  0  0  0  0
  -13.1445   -7.1198  -10.8327 C   0  0  0  0  0  0  0  0  0  0  0  0
  -11.8173   -7.5180  -14.3033 N   0  0  0  0  0  0  0  0  0  0  0  0
  -12.9407   -6.1854   -7.8300 C   0  0  2  0  0  0  0  0  0  0  0  0
  -13.4504   -7.0594   -6.8484 O   0  0  0  0  0  0  0  0  0  0  0  0
  -12.8002   -4.8333   -7.1498 C   0  0  2  0  0  0  0  0  0  0  0  0
  -12.3535   -4.9536   -5.8444 O   0  0  0  0  0  0  0  0  0  0  0  0
  -12.2810   -4.3876  -13.9666 I   0  0  0  0  0  0  0  0  0  0  0  0
  1  2  1  0
  3  2  1  6
  3  4  1  0
  3 18  1  0
  4  5  1  0
  5  6  1  6
  5 16  1  0
  6  7  1  0
  6 14  1  0
  7  8  2  0
  8  9  1  0
  8 20  1  0
  9 10  1  0
  9 14  2  0
 10 11  2  0
 10 15  1  0
 11 12  1  0
 12 13  2  0
 13 14  1  0
 16 17  1  1
 16 18  1  0
 18 19  1  1
M  END
$$$$
