
     RDKit          3D

 20 22  0  0  0  0  0  0  0  0999 V2000
  -13.5994   -2.1547   -7.7651 O   0  0  0  0  0  0  0  0  0  0  0  0
  -14.2804   -2.8555   -6.7595 C   0  0  0  0  0  0  0  0  0  0  0  0
  -14.0918   -4.3202   -7.0464 C   0  0  1  0  0  0  0  0  0  0  0  0
  -14.4165   -4.6379   -8.3716 O   0  0  0  0  0  0  0  0  0  0  0  0
  -13.8593   -5.8645   -8.6328 C   0  0  1  0  0  0  0  0  0  0  0  0
  -13.3874   -5.9866   -9.9967 N   0  0  0  0  0  0  0  0  0  0  0  0
  -13.2363   -4.9834  -10.8791 C   0  0  0  0  0  0  0  0  0  0  0  0
  -12.7648   -5.4813  -12.0817 C   0  0  0  0  0  0  0  0  0  0  0  0
  -12.6254   -6.8359  -11.9210 C   0  0  0  0  0  0  0  0  0  0  0  0
  -12.1972   -7.8173  -12.7865 C   0  0  0  0  0  0  0  0  0  0  0  0
  -12.1671   -9.0810  -12.3369 N   0  0  0  0  0  0  0  0  0  0  0  0
  -12.5407   -9.3624  -11.0954 C   0  0  0  0  0  0  0  0  0  0  0  0
  -12.9630   -8.4092  -10.2353 N   0  0  0  0  0  0  0  0  0  0  0  0
  -13.0176   -7.1166  -10.6239 C   0  0  0  0  0  0  0  0  0  0  0  0
  -11.7882   -7.5579  -14.1251 N   0  0  0  0  0  0  0  0  0  0  0  0
  -12.7435   -6.0954   -7.6504 C   0  0  2  0  0  0  0  0  0  0  0  0
  -13.1894   -6.9610   -6.6311 O   0  0  0  0  0  0  0  0  0  0  0  0
  -12.6315   -4.7217   -7.0094 C   0  0  2  0  0  0  0  0  0  0  0  0
  -12.1395   -4.7914   -5.7166 O   0  0  0  0  0  0  0  0  0  0  0  0
  -12.3271   -4.4343  -13.8426 I   0  0  0  0  0  0  0  0  0  0  0  0
  1  2  1  0
  3  2  1  6
  3  4  1  0
  3 18  1  0
  4  5  1  0
  5  6  1  6
  5 16  1  0
  6  7  1  0
  6 14  1  0
  7  8  2  0
  8  9  1  0
  8 20  1  0
  9 10  1  0
  9 14  2  0
 10 11  2  0
 10 15  1  0
 11 12  1  0
 12 13  2  0
 13 14  1  0
 16 17  1  1
 16 18  1  0
 18 19  1  1
M  END
$$$$
