
     RDKit          3D

 20 22  0  0  0  0  0  0  0  0999 V2000
  -13.0300   -1.8559   -7.9117 O   0  0  0  0  0  0  0  0  0  0  0  0
  -13.2552   -3.1000   -8.4824 C   0  0  0  0  0  0  0  0  0  0  0  0
  -14.1567   -3.9177   -7.6035 C   0  0  1  0  0  0  0  0  0  0  0  0
  -14.7403   -4.9804   -8.2372 O   0  0  0  0  0  0  0  0  0  0  0  0
  -13.8015   -6.0030   -8.3376 C   0  0  1  0  0  0  0  0  0  0  0  0
  -13.4183   -6.1348   -9.7132 N   0  0  0  0  0  0  0  0  0  0  0  0
  -13.3219   -5.0696  -10.5367 C   0  0  0  0  0  0  0  0  0  0  0  0
  -12.9377   -5.4903  -11.7899 C   0  0  0  0  0  0  0  0  0  0  0  0
  -12.7948   -6.8468  -11.7342 C   0  0  0  0  0  0  0  0  0  0  0  0
  -12.4279   -7.7747  -12.7018 C   0  0  0  0  0  0  0  0  0  0  0  0
  -12.3801   -9.0647  -12.3196 N   0  0  0  0  0  0  0  0  0  0  0  0
  -12.6790   -9.4015  -11.0561 C   0  0  0  0  0  0  0  0  0  0  0  0
  -13.0354   -8.4987  -10.1164 N   0  0  0  0  0  0  0  0  0  0  0  0
  -13.0991   -7.2067  -10.4402 C   0  0  0  0  0  0  0  0  0  0  0  0
  -12.1273   -7.3459  -14.0119 N   0  0  0  0  0  0  0  0  0  0  0  0
  -12.6894   -5.7169   -7.3981 C   0  0  2  0  0  0  0  0  0  0  0  0
  -12.4771   -6.8074   -6.5697 O   0  0  0  0  0  0  0  0  0  0  0  0
  -13.3116   -4.6193   -6.5350 C   0  0  2  0  0  0  0  0  0  0  0  0
  -14.1832   -5.2026   -5.6465 O   0  0  0  0  0  0  0  0  0  0  0  0
  -12.6101   -4.3334  -13.5174 I   0  0  0  0  0  0  0  0  0  0  0  0
  2  1  1  1
  2  3  1  0
  3  4  1  6
  3 18  1  0
  4  5  1  0
  5  6  1  6
  5 16  1  0
  6  7  1  0
  6 14  1  0
  7  8  2  0
  8  9  1  0
  8 20  1  0
  9 10  1  0
  9 14  2  0
 10 11  2  0
 10 15  1  0
 11 12  1  0
 12 13  2  0
 13 14  1  0
 16 17  1  1
 16 18  1  0
 18 19  1  1
M  END
$$$$
