
     RDKit          3D

 44 49  0  0  0  0  0  0  0  0999 V2000
   -3.7724    5.6303  -11.3255 C   0  0  0  0  0  0  0  0  0  0  0  0
   -3.1150    5.4403  -10.1221 C   0  0  0  0  0  0  0  0  0  0  0  0
   -3.2549    4.2640   -9.4168 C   0  0  0  0  0  0  0  0  0  0  0  0
   -4.0667    3.2771   -9.9379 C   0  0  0  0  0  0  0  0  0  0  0  0
   -4.7140    3.4718  -11.1289 C   0  0  0  0  0  0  0  0  0  0  0  0
   -4.5733    4.6359  -11.8232 C   0  0  0  0  0  0  0  0  0  0  0  0
   -5.2728    4.8048  -13.0770 C   0  0  0  0  0  0  0  0  0  0  0  0
   -6.1648    5.8574  -13.2684 C   0  0  0  0  0  0  0  0  0  0  0  0
   -6.8020    5.9666  -14.4817 C   0  0  0  0  0  0  0  0  0  0  0  0
   -7.7420    7.0469  -14.7320 C   0  0  0  0  0  0  0  0  0  0  0  0
   -7.9941    7.9111  -13.8372 O   0  0  0  0  0  0  0  0  0  0  0  0
   -8.3642    7.1103  -15.9890 N   0  0  0  0  0  0  0  0  0  0  0  0
   -8.1605    6.2852  -16.9247 C   0  0  0  0  0  0  0  0  0  0  0  0
   -7.2410    5.1525  -16.8073 C   0  0  0  0  0  0  0  0  0  0  0  0
   -6.5789    5.0690  -15.4959 C   0  0  0  0  0  0  0  0  0  0  0  0
   -5.6915    4.0468  -15.2636 N   0  0  0  0  0  0  0  0  0  0  0  0
   -5.0490    3.9045  -14.0943 C   0  0  0  0  0  0  0  0  0  0  0  0
   -4.1046    2.8230  -13.8403 C   0  0  0  0  0  0  0  0  0  0  0  0
   -4.4337    1.4976  -13.9422 C   0  0  0  0  0  0  0  0  0  0  0  0
   -3.4663    0.5529  -13.6783 C   0  0  0  0  0  0  0  0  0  0  0  0
   -2.8178    3.1643  -13.4778 C   0  0  0  0  0  0  0  0  0  0  0  0
   -1.8387    2.1986  -13.2111 C   0  0  0  0  0  0  0  0  0  0  0  0
   -2.1641    0.8645  -13.3115 C   0  0  0  0  0  0  0  0  0  0  0  0
   -1.1588   -0.1913  -13.0429 C   0  0  0  0  0  0  0  0  0  0  0  0
   -0.4741   -0.6745  -14.2035 N   0  0  1  0  0  4  0  0  0  0  0  0
    0.9207   -0.2200  -14.0953 C   0  0  0  0  0  0  0  0  0  0  0  0
    1.6666   -1.3272  -13.3877 C   0  0  0  0  0  0  0  0  0  0  0  0
   -0.5518   -2.0796  -14.4388 C   0  0  0  0  0  0  0  0  0  0  0  0
    0.6491   -2.6181  -15.1891 C   0  0  0  0  0  0  0  0  0  0  0  0
    1.9284   -2.4177  -14.3920 C   0  0  1  0  0  0  0  0  0  0  0  0
    2.9442   -2.0209  -15.3866 N   0  0  0  0  0  0  0  0  0  0  0  0
    3.7539   -3.0523  -15.9143 C   0  0  0  0  0  0  0  0  0  0  0  0
    3.2117   -4.0601  -16.4340 O   0  0  0  0  0  0  0  0  0  0  0  0
    5.2152   -2.9354  -15.8498 C   0  0  0  0  0  0  0  0  0  0  0  0
    5.7986   -1.7843  -15.3239 C   0  0  0  0  0  0  0  0  0  0  0  0
    6.0636   -3.9212  -16.2888 C   0  0  0  0  0  0  0  0  0  0  0  0
    7.4503   -3.7460  -16.1977 C   0  0  0  0  0  0  0  0  0  0  0  0
    7.9759   -2.5885  -15.6693 C   0  0  0  0  0  0  0  0  0  0  0  0
    7.1533   -1.5819  -15.2207 C   0  0  0  0  0  0  0  0  0  0  0  0
    7.6814   -0.3813  -14.6715 N   0  0  0  0  0  0  0  0  0  0  0  0
    6.9671    0.8342  -14.7986 C   0  0  0  0  0  0  0  0  0  0  0  0
    5.7756    0.7784  -15.1968 O   0  0  0  0  0  0  0  0  0  0  0  0
    7.6697    2.0954  -14.4538 C   0  0  0  0  0  0  0  0  0  0  0  0
    6.8239    2.8239  -13.4297 C   0  0  0  0  0  0  0  0  0  0  0  0
  1  2  2  0
  1  6  1  0
  2  3  1  0
  3  4  2  0
  4  5  1  0
  5  6  2  0
  6  7  1  0
  7  8  2  0
  7 17  1  0
  8  9  1  0
  9 10  1  0
  9 15  2  0
 10 11  2  0
 10 12  1  0
 12 13  2  0
 13 14  1  0
 14 15  1  0
 15 16  1  0
 16 17  2  0
 17 18  1  0
 18 19  2  0
 18 21  1  0
 19 20  1  0
 20 23  2  0
 21 22  2  0
 22 23  1  0
 23 24  1  0
 25 24  1  1
 25 26  1  0
 25 28  1  0
 26 27  1  0
 27 30  1  0
 28 29  1  0
 29 30  1  0
 30 31  1  6
 31 32  1  0
 32 33  2  0
 32 34  1  0
 34 35  2  0
 34 36  1  0
 35 39  1  0
 36 37  2  0
 37 38  1  0
 38 39  2  0
 39 40  1  0
 40 41  1  0
 41 42  2  0
 41 43  1  0
 43 44  1  0
M  CHG  1  25   1
M  END
$$$$
