
     RDKit          3D

 44 49  0  0  0  0  0  0  0  0999 V2000
   -4.0962    3.8551  -11.7254 C   0  0  0  0  0  0  0  0  0  0  0  0
   -3.6541    4.2670  -10.4739 C   0  0  0  0  0  0  0  0  0  0  0  0
   -3.8446    3.4605   -9.3776 C   0  0  0  0  0  0  0  0  0  0  0  0
   -4.4763    2.2460   -9.5389 C   0  0  0  0  0  0  0  0  0  0  0  0
   -4.9165    1.8436  -10.8055 C   0  0  0  0  0  0  0  0  0  0  0  0
   -4.7294    2.6467  -11.9103 C   0  0  0  0  0  0  0  0  0  0  0  0
   -5.1861    2.2317  -13.2360 C   0  0  0  0  0  0  0  0  0  0  0  0
   -6.5196    2.0237  -13.5193 C   0  0  0  0  0  0  0  0  0  0  0  0
   -6.8836    1.6347  -14.7784 C   0  0  0  0  0  0  0  0  0  0  0  0
   -8.2844    1.4051  -15.1183 C   0  0  0  0  0  0  0  0  0  0  0  0
   -9.1228    1.5839  -14.1955 O   0  0  0  0  0  0  0  0  0  0  0  0
   -8.6356    1.0052  -16.4225 N   0  0  0  0  0  0  0  0  0  0  0  0
   -7.7551    0.8294  -17.3481 C   0  0  0  0  0  0  0  0  0  0  0  0
   -6.3114    1.0206  -17.1586 C   0  0  0  0  0  0  0  0  0  0  0  0
   -5.9600    1.4399  -15.7874 C   0  0  0  0  0  0  0  0  0  0  0  0
   -4.6753    1.6473  -15.4901 N   0  0  0  0  0  0  0  0  0  0  0  0
   -4.2932    2.0278  -14.2674 C   0  0  0  0  0  0  0  0  0  0  0  0
   -2.8629    2.2299  -14.0476 C   0  0  0  0  0  0  0  0  0  0  0  0
   -2.1929    1.5032  -13.0859 C   0  0  0  0  0  0  0  0  0  0  0  0
   -0.8229    1.6890  -12.8644 C   0  0  0  0  0  0  0  0  0  0  0  0
   -2.1373    3.1437  -14.7816 C   0  0  0  0  0  0  0  0  0  0  0  0
   -0.7890    3.3158  -14.5523 C   0  0  0  0  0  0  0  0  0  0  0  0
   -0.1019    2.6015  -13.5981 C   0  0  0  0  0  0  0  0  0  0  0  0
    1.3370    2.8359  -13.4001 C   0  0  0  0  0  0  0  0  0  0  0  0
    2.1893    1.9543  -14.1323 N   0  0  1  0  0  4  0  0  0  0  0  0
    3.2169    2.5761  -14.9059 C   0  0  0  0  0  0  0  0  0  0  0  0
    4.5172    2.7861  -14.1768 C   0  0  0  0  0  0  0  0  0  0  0  0
    2.6982    0.9556  -13.2147 C   0  0  0  0  0  0  0  0  0  0  0  0
    4.0235    0.3924  -13.6687 C   0  0  0  0  0  0  0  0  0  0  0  0
    5.0670    1.5161  -13.5711 C   0  0  1  0  0  0  0  0  0  0  0  0
    6.2416    1.0190  -14.2469 N   0  0  0  0  0  0  0  0  0  0  0  0
    6.7571   -0.2410  -13.9222 C   0  0  0  0  0  0  0  0  0  0  0  0
    6.5660   -0.6827  -12.7616 O   0  0  0  0  0  0  0  0  0  0  0  0
    7.5039   -1.0721  -14.8546 C   0  0  0  0  0  0  0  0  0  0  0  0
    7.6485   -0.7004  -16.1739 C   0  0  0  0  0  0  0  0  0  0  0  0
    8.1039   -2.2624  -14.4827 C   0  0  0  0  0  0  0  0  0  0  0  0
    8.8114   -3.0302  -15.4044 C   0  0  0  0  0  0  0  0  0  0  0  0
    8.9205   -2.5989  -16.7228 C   0  0  0  0  0  0  0  0  0  0  0  0
    8.3357   -1.4197  -17.1260 C   0  0  0  0  0  0  0  0  0  0  0  0
    8.4565   -0.9921  -18.4768 N   0  0  0  0  0  0  0  0  0  0  0  0
    7.3244   -0.6678  -19.2607 C   0  0  0  0  0  0  0  0  0  0  0  0
    6.1941   -0.9309  -18.7568 O   0  0  0  0  0  0  0  0  0  0  0  0
    7.4558   -0.0434  -20.6204 C   0  0  0  0  0  0  0  0  0  0  0  0
    6.5043   -0.6548  -21.5937 C   0  0  0  0  0  0  0  0  0  0  0  0
  1  2  2  0
  1  6  1  0
  2  3  1  0
  3  4  2  0
  4  5  1  0
  5  6  2  0
  6  7  1  0
  7  8  2  0
  7 17  1  0
  8  9  1  0
  9 10  1  0
  9 15  2  0
 10 11  2  0
 10 12  1  0
 12 13  2  0
 14 13  1  1
 14 15  1  0
 15 16  1  0
 16 17  2  0
 17 18  1  0
 18 19  2  0
 18 21  1  0
 19 20  1  0
 20 23  2  0
 21 22  2  0
 22 23  1  0
 24 23  1  1
 25 24  1  1
 25 26  1  0
 25 28  1  0
 26 27  1  6
 27 30  1  6
 28 29  1  6
 29 30  1  6
 30 31  1  6
 31 32  1  0
 32 33  2  0
 32 34  1  0
 34 35  2  0
 34 36  1  0
 35 39  1  0
 36 37  2  0
 37 38  1  0
 38 39  2  0
 39 40  1  0
 40 41  1  0
 41 42  2  0
 43 41  1  1
 44 43  1  6
M  CHG  1  25   1
M  END
$$$$
