
     RDKit          3D

 44 49  0  0  0  0  0  0  0  0999 V2000
   -6.0196    2.5885  -10.7738 C   0  0  0  0  0  0  0  0  0  0  0  0
   -5.5281    2.9406   -9.5283 C   0  0  0  0  0  0  0  0  0  0  0  0
   -4.2262    3.3676   -9.3757 C   0  0  0  0  0  0  0  0  0  0  0  0
   -3.4212    3.4367  -10.4945 C   0  0  0  0  0  0  0  0  0  0  0  0
   -3.9139    3.0870  -11.7234 C   0  0  0  0  0  0  0  0  0  0  0  0
   -5.2014    2.6653  -11.8703 C   0  0  0  0  0  0  0  0  0  0  0  0
   -5.6857    2.3044  -13.1837 C   0  0  0  0  0  0  0  0  0  0  0  0
   -7.0082    2.5381  -13.5534 C   0  0  0  0  0  0  0  0  0  0  0  0
   -7.4123    2.1723  -14.8156 C   0  0  0  0  0  0  0  0  0  0  0  0
   -8.7816    2.3947  -15.2502 C   0  0  0  0  0  0  0  0  0  0  0  0
   -9.6319    2.9304  -14.4751 O   0  0  0  0  0  0  0  0  0  0  0  0
   -9.1398    2.0017  -16.5497 N   0  0  0  0  0  0  0  0  0  0  0  0
   -8.3459    1.4637  -17.3732 C   0  0  0  0  0  0  0  0  0  0  0  0
   -6.9426    1.1833  -17.0662 C   0  0  0  0  0  0  0  0  0  0  0  0
   -6.5480    1.5882  -15.7077 C   0  0  0  0  0  0  0  0  0  0  0  0
   -5.2533    1.3763  -15.3010 N   0  0  0  0  0  0  0  0  0  0  0  0
   -4.8188    1.7184  -14.0786 C   0  0  0  0  0  0  0  0  0  0  0  0
   -3.4459    1.4981  -13.6397 C   0  0  0  0  0  0  0  0  0  0  0  0
   -3.1023    0.5958  -12.6686 C   0  0  0  0  0  0  0  0  0  0  0  0
   -1.7744    0.4658  -12.3254 C   0  0  0  0  0  0  0  0  0  0  0  0
   -2.4513    2.2434  -14.2390 C   0  0  0  0  0  0  0  0  0  0  0  0
   -1.1028    2.1061  -13.8854 C   0  0  0  0  0  0  0  0  0  0  0  0
   -0.7516    1.2008  -12.9093 C   0  0  0  0  0  0  0  0  0  0  0  0
    0.6634    1.0191  -12.5067 C   0  0  0  0  0  0  0  0  0  0  0  0
    1.5841    0.8960  -13.5960 N   0  0  1  0  0  4  0  0  0  0  0  0
    2.9348    1.0342  -13.0300 C   0  0  0  0  0  0  0  0  0  0  0  0
    3.3910   -0.3660  -12.6921 C   0  0  0  0  0  0  0  0  0  0  0  0
    1.4652   -0.2847  -14.3883 C   0  0  0  0  0  0  0  0  0  0  0  0
    2.7745   -0.6988  -15.0279 C   0  0  0  0  0  0  0  0  0  0  0  0
    3.8190   -1.0300  -13.9736 C   0  0  1  0  0  0  0  0  0  0  0  0
    5.0816   -0.4684  -14.4921 N   0  0  0  0  0  0  0  0  0  0  0  0
    6.0952   -1.3925  -14.8337 C   0  0  0  0  0  0  0  0  0  0  0  0
    5.9253   -2.6144  -14.5931 O   0  0  0  0  0  0  0  0  0  0  0  0
    7.3317   -0.9163  -15.4641 C   0  0  0  0  0  0  0  0  0  0  0  0
    7.4288    0.4053  -15.8952 C   0  0  0  0  0  0  0  0  0  0  0  0
    8.4283   -1.7190  -15.6583 C   0  0  0  0  0  0  0  0  0  0  0  0
    9.5788   -1.2008  -16.2664 C   0  0  0  0  0  0  0  0  0  0  0  0
    9.6229    0.1133  -16.6743 C   0  0  0  0  0  0  0  0  0  0  0  0
    8.5415    0.9435  -16.4942 C   0  0  0  0  0  0  0  0  0  0  0  0
    8.5725    2.3032  -16.9093 N   0  0  0  0  0  0  0  0  0  0  0  0
    8.8415    2.6293  -18.2602 C   0  0  0  0  0  0  0  0  0  0  0  0
    9.1328    1.6916  -19.0457 O   0  0  0  0  0  0  0  0  0  0  0  0
    8.7621    4.0558  -18.6625 C   0  0  0  0  0  0  0  0  0  0  0  0
    7.3559    4.3109  -19.1650 C   0  0  0  0  0  0  0  0  0  0  0  0
  1  2  2  0
  1  6  1  0
  2  3  1  0
  3  4  2  0
  4  5  1  0
  5  6  2  0
  6  7  1  0
  7  8  2  0
  7 17  1  0
  8  9  1  0
  9 10  1  0
  9 15  2  0
 10 11  2  0
 10 12  1  0
 12 13  2  0
 13 14  1  0
 14 15  1  0
 15 16  1  0
 16 17  2  0
 17 18  1  0
 18 19  2  0
 18 21  1  0
 19 20  1  0
 20 23  2  0
 21 22  2  0
 22 23  1  0
 23 24  1  0
 25 24  1  1
 25 26  1  0
 25 28  1  0
 26 27  1  0
 27 30  1  0
 28 29  1  0
 29 30  1  0
 30 31  1  6
 31 32  1  0
 32 33  2  0
 32 34  1  0
 34 35  2  0
 34 36  1  0
 35 39  1  0
 36 37  2  0
 37 38  1  0
 38 39  2  0
 39 40  1  0
 40 41  1  0
 41 42  2  0
 41 43  1  0
 43 44  1  0
M  CHG  1  25   1
M  END
$$$$
