
     RDKit          3D

 44 49  0  0  0  0  0  0  0  0999 V2000
    2.5095   -0.1760  -18.8369 C   0  0  0  0  0  0  0  0  0  0  0  0
    1.3569    0.5049  -19.1898 C   0  0  0  0  0  0  0  0  0  0  0  0
    1.0351    1.7072  -18.5971 C   0  0  0  0  0  0  0  0  0  0  0  0
    1.8893    2.2190  -17.6415 C   0  0  0  0  0  0  0  0  0  0  0  0
    3.0277    1.5401  -17.2973 C   0  0  0  0  0  0  0  0  0  0  0  0
    3.3424    0.3518  -17.8854 C   0  0  0  0  0  0  0  0  0  0  0  0
    4.5529   -0.3357  -17.4957 C   0  0  0  0  0  0  0  0  0  0  0  0
    5.5968   -0.5246  -18.3984 C   0  0  0  0  0  0  0  0  0  0  0  0
    6.7233   -1.1870  -17.9713 C   0  0  0  0  0  0  0  0  0  0  0  0
    7.8406   -1.4098  -18.8743 C   0  0  0  0  0  0  0  0  0  0  0  0
    7.8001   -0.9982  -20.0742 O   0  0  0  0  0  0  0  0  0  0  0  0
    8.9660   -2.0921  -18.3852 N   0  0  0  0  0  0  0  0  0  0  0  0
    9.0740   -2.5288  -17.2040 C   0  0  0  0  0  0  0  0  0  0  0  0
    8.0263   -2.3732  -16.1939 C   0  0  0  0  0  0  0  0  0  0  0  0
    6.8377   -1.6602  -16.6879 C   0  0  0  0  0  0  0  0  0  0  0  0
    5.7843   -1.4518  -15.8316 N   0  0  0  0  0  0  0  0  0  0  0  0
    4.6677   -0.8103  -16.2084 C   0  0  0  0  0  0  0  0  0  0  0  0
    3.5457   -0.5839  -15.3051 C   0  0  0  0  0  0  0  0  0  0  0  0
    2.2689   -1.0008  -15.5723 C   0  0  0  0  0  0  0  0  0  0  0  0
    1.2790   -0.7342  -14.6520 C   0  0  0  0  0  0  0  0  0  0  0  0
    3.7946    0.0869  -14.1253 C   0  0  0  0  0  0  0  0  0  0  0  0
    2.7834    0.3545  -13.1937 C   0  0  0  0  0  0  0  0  0  0  0  0
    1.4977   -0.0619  -13.4573 C   0  0  0  0  0  0  0  0  0  0  0  0
    0.3974    0.1957  -12.4979 C   0  0  0  0  0  0  0  0  0  0  0  0
   -0.7474    0.8451  -13.0610 N   0  0  1  0  0  4  0  0  0  0  0  0
   -1.8131    0.7830  -12.0490 C   0  0  0  0  0  0  0  0  0  0  0  0
   -1.6903    2.0504  -11.2354 C   0  0  0  0  0  0  0  0  0  0  0  0
   -0.5460    2.1773  -13.5304 C   0  0  0  0  0  0  0  0  0  0  0  0
   -1.8041    3.0191  -13.4704 C   0  0  0  0  0  0  0  0  0  0  0  0
   -2.2945    3.1708  -12.0392 C   0  0  1  0  0  0  0  0  0  0  0  0
   -3.7641    3.0619  -12.1216 N   0  0  0  0  0  0  0  0  0  0  0  0
   -4.5103    3.8071  -11.1805 C   0  0  0  0  0  0  0  0  0  0  0  0
   -3.9506    4.2186  -10.1330 O   0  0  0  0  0  0  0  0  0  0  0  0
   -5.9269    4.0917  -11.4362 C   0  0  0  0  0  0  0  0  0  0  0  0
   -6.5090    3.7003  -12.6403 C   0  0  0  0  0  0  0  0  0  0  0  0
   -6.7339    4.7380  -10.5330 C   0  0  0  0  0  0  0  0  0  0  0  0
   -8.0794    4.9779  -10.8398 C   0  0  0  0  0  0  0  0  0  0  0  0
   -8.6055    4.5702  -12.0448 C   0  0  0  0  0  0  0  0  0  0  0  0
   -7.8239    3.9204  -12.9711 C   0  0  0  0  0  0  0  0  0  0  0  0
   -8.3534    3.4923  -14.2194 N   0  0  0  0  0  0  0  0  0  0  0  0
   -7.6055    3.6690  -15.4082 C   0  0  0  0  0  0  0  0  0  0  0  0
   -6.4365    4.1210  -15.3070 O   0  0  0  0  0  0  0  0  0  0  0  0
   -8.2487    3.3096  -16.6967 C   0  0  0  0  0  0  0  0  0  0  0  0
   -7.1538    3.1965  -17.7376 C   0  0  0  0  0  0  0  0  0  0  0  0
  1  2  2  0
  1  6  1  0
  2  3  1  0
  3  4  2  0
  4  5  1  0
  5  6  2  0
  6  7  1  0
  7  8  2  0
  7 17  1  0
  8  9  1  0
  9 10  1  0
  9 15  2  0
 10 11  2  0
 10 12  1  0
 12 13  2  0
 13 14  1  0
 14 15  1  0
 15 16  1  0
 16 17  2  0
 17 18  1  0
 18 19  2  0
 18 21  1  0
 19 20  1  0
 20 23  2  0
 21 22  2  0
 22 23  1  0
 23 24  1  0
 25 24  1  1
 25 26  1  0
 25 28  1  0
 26 27  1  0
 27 30  1  0
 28 29  1  0
 29 30  1  0
 30 31  1  6
 31 32  1  0
 32 33  2  0
 32 34  1  0
 34 35  2  0
 34 36  1  0
 35 39  1  0
 36 37  2  0
 37 38  1  0
 38 39  2  0
 39 40  1  0
 40 41  1  0
 41 42  2  0
 41 43  1  0
 43 44  1  0
M  CHG  1  25   1
M  END
$$$$
