
     RDKit          3D

 44 49  0  0  0  0  0  0  0  0999 V2000
   -6.2020    3.3622  -13.3859 C   0  0  0  0  0  0  0  0  0  0  0  0
   -6.4174    3.5224  -12.0278 C   0  0  0  0  0  0  0  0  0  0  0  0
   -7.3363    2.7416  -11.3596 C   0  0  0  0  0  0  0  0  0  0  0  0
   -8.0388    1.7940  -12.0759 C   0  0  0  0  0  0  0  0  0  0  0  0
   -7.8206    1.6409  -13.4192 C   0  0  0  0  0  0  0  0  0  0  0  0
   -6.9115    2.4146  -14.0762 C   0  0  0  0  0  0  0  0  0  0  0  0
   -6.7088    2.2239  -15.4948 C   0  0  0  0  0  0  0  0  0  0  0  0
   -7.7808    2.2378  -16.3841 C   0  0  0  0  0  0  0  0  0  0  0  0
   -7.5272    2.0495  -17.7222 C   0  0  0  0  0  0  0  0  0  0  0  0
   -8.6110    2.0553  -18.6911 C   0  0  0  0  0  0  0  0  0  0  0  0
   -9.8124    2.2341  -18.3231 O   0  0  0  0  0  0  0  0  0  0  0  0
   -8.2948    1.8581  -20.0448 N   0  0  0  0  0  0  0  0  0  0  0  0
   -7.1227    1.6746  -20.4810 C   0  0  0  0  0  0  0  0  0  0  0  0
   -5.9421    1.6456  -19.6165 C   0  0  0  0  0  0  0  0  0  0  0  0
   -6.2533    1.8504  -18.1930 C   0  0  0  0  0  0  0  0  0  0  0  0
   -5.2265    1.8442  -17.2808 N   0  0  0  0  0  0  0  0  0  0  0  0
   -5.4311    2.0242  -15.9670 C   0  0  0  0  0  0  0  0  0  0  0  0
   -4.3464    2.0203  -14.9925 C   0  0  0  0  0  0  0  0  0  0  0  0
   -4.2505    1.1060  -13.9775 C   0  0  0  0  0  0  0  0  0  0  0  0
   -3.1855    1.1916  -13.1077 C   0  0  0  0  0  0  0  0  0  0  0  0
   -3.3743    2.9926  -15.1079 C   0  0  0  0  0  0  0  0  0  0  0  0
   -2.2938    3.0738  -14.2201 C   0  0  0  0  0  0  0  0  0  0  0  0
   -2.1925    2.1575  -13.1973 C   0  0  0  0  0  0  0  0  0  0  0  0
   -1.0637    2.2028  -12.2376 C   0  0  0  0  0  0  0  0  0  0  0  0
    0.2340    2.1163  -12.8359 N   0  0  1  0  0  4  0  0  0  0  0  0
    1.1931    2.6389  -11.8506 C   0  0  0  0  0  0  0  0  0  0  0  0
    1.6570    1.4465  -11.0468 C   0  0  0  0  0  0  0  0  0  0  0  0
    0.6206    0.8285  -13.3131 C   0  0  0  0  0  0  0  0  0  0  0  0
    2.1210    0.6194  -13.2935 C   0  0  0  0  0  0  0  0  0  0  0  0
    2.6671    0.6998  -11.8766 C   0  0  1  0  0  0  0  0  0  0  0  0
    3.9395    1.4383  -11.9952 N   0  0  0  0  0  0  0  0  0  0  0  0
    5.1271    0.6790  -11.8906 C   0  0  0  0  0  0  0  0  0  0  0  0
    5.0544   -0.5570  -11.6740 O   0  0  0  0  0  0  0  0  0  0  0  0
    6.4289    1.3405  -12.0357 C   0  0  0  0  0  0  0  0  0  0  0  0
    7.4708    1.0246  -11.1660 C   0  0  0  0  0  0  0  0  0  0  0  0
    6.6867    2.2773  -13.0055 C   0  0  0  0  0  0  0  0  0  0  0  0
    7.9528    2.8706  -13.0895 C   0  0  0  0  0  0  0  0  0  0  0  0
    8.9484    2.5227  -12.2047 C   0  0  0  0  0  0  0  0  0  0  0  0
    8.7223    1.5878  -11.2218 C   0  0  0  0  0  0  0  0  0  0  0  0
    9.7411    1.2174  -10.3015 N   0  0  0  0  0  0  0  0  0  0  0  0
   10.3467    2.1965   -9.4778 C   0  0  0  0  0  0  0  0  0  0  0  0
    9.9824    3.3918   -9.6185 O   0  0  0  0  0  0  0  0  0  0  0  0
   11.3717    1.7496   -8.5017 C   0  0  0  0  0  0  0  0  0  0  0  0
   11.8778    2.9793   -7.7760 C   0  0  0  0  0  0  0  0  0  0  0  0
  1  2  2  0
  1  6  1  0
  2  3  1  0
  3  4  2  0
  4  5  1  0
  5  6  2  0
  6  7  1  0
  7  8  2  0
  7 17  1  0
  8  9  1  0
  9 10  1  0
  9 15  2  0
 10 11  2  0
 10 12  1  0
 12 13  2  0
 13 14  1  0
 14 15  1  0
 15 16  1  0
 16 17  2  0
 17 18  1  0
 18 19  2  0
 18 21  1  0
 19 20  1  0
 20 23  2  0
 21 22  2  0
 22 23  1  0
 23 24  1  0
 25 24  1  1
 25 26  1  0
 25 28  1  0
 26 27  1  0
 27 30  1  0
 28 29  1  0
 29 30  1  0
 30 31  1  6
 31 32  1  0
 32 33  2  0
 32 34  1  0
 34 35  2  0
 34 36  1  0
 35 39  1  0
 36 37  2  0
 37 38  1  0
 38 39  2  0
 39 40  1  0
 40 41  1  0
 41 42  2  0
 41 43  1  0
 43 44  1  0
M  CHG  1  25   1
M  END
$$$$
