
     RDKit          3D

 44 49  0  0  0  0  0  0  0  0999 V2000
   -5.4824    1.0208  -14.4327 C   0  0  0  0  0  0  0  0  0  0  0  0
   -6.5157    0.6666  -13.5821 C   0  0  0  0  0  0  0  0  0  0  0  0
   -6.7876   -0.6575  -13.3113 C   0  0  0  0  0  0  0  0  0  0  0  0
   -6.0053   -1.6251  -13.9083 C   0  0  0  0  0  0  0  0  0  0  0  0
   -4.9849   -1.2675  -14.7487 C   0  0  0  0  0  0  0  0  0  0  0  0
   -4.7191    0.0424  -15.0139 C   0  0  0  0  0  0  0  0  0  0  0  0
   -3.6336    0.3809  -15.9066 C   0  0  0  0  0  0  0  0  0  0  0  0
   -3.5991   -0.0993  -17.2137 C   0  0  0  0  0  0  0  0  0  0  0  0
   -2.5406    0.2551  -18.0163 C   0  0  0  0  0  0  0  0  0  0  0  0
   -2.4576   -0.2194  -19.3879 C   0  0  0  0  0  0  0  0  0  0  0  0
   -3.3591   -0.9697  -19.8730 O   0  0  0  0  0  0  0  0  0  0  0  0
   -1.3546    0.1734  -20.1628 N   0  0  0  0  0  0  0  0  0  0  0  0
   -0.4221    0.9175  -19.7450 C   0  0  0  0  0  0  0  0  0  0  0  0
   -0.3809    1.4642  -18.3880 C   0  0  0  0  0  0  0  0  0  0  0  0
   -1.5293    1.0632  -17.5599 C   0  0  0  0  0  0  0  0  0  0  0  0
   -1.6038    1.5137  -16.2645 N   0  0  0  0  0  0  0  0  0  0  0  0
   -2.6192    1.1915  -15.4487 C   0  0  0  0  0  0  0  0  0  0  0  0
   -2.7063    1.6666  -14.0730 C   0  0  0  0  0  0  0  0  0  0  0  0
   -2.6768    0.8337  -12.9863 C   0  0  0  0  0  0  0  0  0  0  0  0
   -2.7683    1.3849  -11.7270 C   0  0  0  0  0  0  0  0  0  0  0  0
   -2.8261    3.0258  -13.8680 C   0  0  0  0  0  0  0  0  0  0  0  0
   -2.9184    3.5797  -12.5847 C   0  0  0  0  0  0  0  0  0  0  0  0
   -2.8898    2.7470  -11.4884 C   0  0  0  0  0  0  0  0  0  0  0  0
   -2.9799    3.2898  -10.1120 C   0  0  0  0  0  0  0  0  0  0  0  0
   -3.0942    4.7149  -10.0373 N   0  0  1  0  0  4  0  0  0  0  0  0
   -4.4877    5.0119   -9.6717 C   0  0  0  0  0  0  0  0  0  0  0  0
   -4.5162    5.0880   -8.1629 C   0  0  0  0  0  0  0  0  0  0  0  0
   -2.1721    5.3741   -9.1707 C   0  0  0  0  0  0  0  0  0  0  0  0
   -2.7165    6.6717   -8.6094 C   0  0  0  0  0  0  0  0  0  0  0  0
   -3.9541    6.4256   -7.7611 C   0  0  1  0  0  0  0  0  0  0  0  0
   -4.8733    7.5326   -8.0898 N   0  0  0  0  0  0  0  0  0  0  0  0
   -4.9235    8.6096   -7.1757 C   0  0  0  0  0  0  0  0  0  0  0  0
   -4.2753    8.5399   -6.1010 O   0  0  0  0  0  0  0  0  0  0  0  0
   -5.7296    9.7945   -7.4907 C   0  0  0  0  0  0  0  0  0  0  0  0
   -5.9301   10.7771   -6.5232 C   0  0  0  0  0  0  0  0  0  0  0  0
   -6.3129    9.9967   -8.7169 C   0  0  0  0  0  0  0  0  0  0  0  0
   -7.0703   11.1512   -8.9522 C   0  0  0  0  0  0  0  0  0  0  0  0
   -7.2376   12.0920   -7.9612 C   0  0  0  0  0  0  0  0  0  0  0  0
   -6.6666   11.9194   -6.7222 C   0  0  0  0  0  0  0  0  0  0  0  0
   -6.8296   12.8828   -5.6891 N   0  0  0  0  0  0  0  0  0  0  0  0
   -7.2997   12.4868   -4.4140 C   0  0  0  0  0  0  0  0  0  0  0  0
   -7.4255   11.2561   -4.1887 O   0  0  0  0  0  0  0  0  0  0  0  0
   -7.6133   13.5488   -3.4256 C   0  0  0  0  0  0  0  0  0  0  0  0
   -7.8707   12.8722   -2.0948 C   0  0  0  0  0  0  0  0  0  0  0  0
  1  2  2  0
  1  6  1  0
  2  3  1  0
  3  4  2  0
  4  5  1  0
  5  6  2  0
  6  7  1  0
  7  8  2  0
  7 17  1  0
  8  9  1  0
  9 10  1  0
  9 15  2  0
 10 11  2  0
 10 12  1  0
 12 13  2  0
 13 14  1  0
 14 15  1  0
 15 16  1  0
 16 17  2  0
 17 18  1  0
 18 19  2  0
 18 21  1  0
 19 20  1  0
 20 23  2  0
 21 22  2  0
 22 23  1  0
 23 24  1  0
 25 24  1  1
 25 26  1  0
 25 28  1  0
 26 27  1  0
 27 30  1  0
 28 29  1  0
 29 30  1  0
 30 31  1  6
 31 32  1  0
 32 33  2  0
 32 34  1  0
 34 35  2  0
 34 36  1  0
 35 39  1  0
 36 37  2  0
 37 38  1  0
 38 39  2  0
 39 40  1  0
 40 41  1  0
 41 42  2  0
 41 43  1  0
 43 44  1  0
M  CHG  1  25   1
M  END
$$$$
