
     RDKit          3D

 44 49  0  0  0  0  0  0  0  0999 V2000
   -6.5142    2.5551  -14.5547 C   0  0  0  0  0  0  0  0  0  0  0  0
   -7.5842    2.3953  -13.6909 C   0  0  0  0  0  0  0  0  0  0  0  0
   -8.0383    1.1387  -13.3510 C   0  0  0  0  0  0  0  0  0  0  0  0
   -7.4012    0.0405  -13.8920 C   0  0  0  0  0  0  0  0  0  0  0  0
   -6.3433    0.2060  -14.7457 C   0  0  0  0  0  0  0  0  0  0  0  0
   -5.8973    1.4496  -15.0794 C   0  0  0  0  0  0  0  0  0  0  0  0
   -4.7778    1.5844  -15.9840 C   0  0  0  0  0  0  0  0  0  0  0  0
   -4.8451    1.1053  -17.2902 C   0  0  0  0  0  0  0  0  0  0  0  0
   -3.7484    1.2606  -18.1046 C   0  0  0  0  0  0  0  0  0  0  0  0
   -3.7677    0.7781  -19.4758 C   0  0  0  0  0  0  0  0  0  0  0  0
   -4.7958    0.2043  -19.9497 O   0  0  0  0  0  0  0  0  0  0  0  0
   -2.6199    0.9632  -20.2629 N   0  0  0  0  0  0  0  0  0  0  0  0
   -1.5631    1.5253  -19.8567 C   0  0  0  0  0  0  0  0  0  0  0  0
   -1.4088    2.0561  -18.5014 C   0  0  0  0  0  0  0  0  0  0  0  0
   -2.6021    1.8713  -17.6606 C   0  0  0  0  0  0  0  0  0  0  0  0
   -2.5796    2.3285  -16.3656 N   0  0  0  0  0  0  0  0  0  0  0  0
   -3.6280    2.1970  -15.5386 C   0  0  0  0  0  0  0  0  0  0  0  0
   -3.6126    2.6808  -14.1632 C   0  0  0  0  0  0  0  0  0  0  0  0
   -2.8999    2.0774  -13.1616 C   0  0  0  0  0  0  0  0  0  0  0  0
   -2.9550    2.6139  -11.8939 C   0  0  0  0  0  0  0  0  0  0  0  0
   -4.3590    3.8029  -13.8674 C   0  0  0  0  0  0  0  0  0  0  0  0
   -4.4105    4.3434  -12.5761 C   0  0  0  0  0  0  0  0  0  0  0  0
   -3.6963    3.7406  -11.5650 C   0  0  0  0  0  0  0  0  0  0  0  0
   -3.7180    4.2809  -10.1848 C   0  0  0  0  0  0  0  0  0  0  0  0
   -2.4288    4.5818   -9.6400 N   0  0  1  0  0  4  0  0  0  0  0  0
   -2.6565    5.3455   -8.4035 C   0  0  0  0  0  0  0  0  0  0  0  0
   -2.7158    4.3270   -7.2889 C   0  0  0  0  0  0  0  0  0  0  0  0
   -1.5655    3.4678   -9.4176 C   0  0  0  0  0  0  0  0  0  0  0  0
   -0.5817    3.7014   -8.2895 C   0  0  0  0  0  0  0  0  0  0  0  0
   -1.3033    3.9162   -6.9684 C   0  0  1  0  0  0  0  0  0  0  0  0
   -0.5548    4.9927   -6.2908 N   0  0  0  0  0  0  0  0  0  0  0  0
    0.8335    4.7903   -6.1185 C   0  0  0  0  0  0  0  0  0  0  0  0
    1.4554    4.0505   -6.9220 O   0  0  0  0  0  0  0  0  0  0  0  0
    1.5317    5.4446   -5.0061 C   0  0  0  0  0  0  0  0  0  0  0  0
    2.6347    4.8286   -4.4181 C   0  0  0  0  0  0  0  0  0  0  0  0
    1.1512    6.6618   -4.4979 C   0  0  0  0  0  0  0  0  0  0  0  0
    1.8624    7.2319   -3.4344 C   0  0  0  0  0  0  0  0  0  0  0  0
    2.9460    6.5812   -2.8890 C   0  0  0  0  0  0  0  0  0  0  0  0
    3.3528    5.3608   -3.3750 C   0  0  0  0  0  0  0  0  0  0  0  0
    4.4707    4.6772   -2.8228 N   0  0  0  0  0  0  0  0  0  0  0  0
    5.5101    5.4039   -2.1942 C   0  0  0  0  0  0  0  0  0  0  0  0
    5.3148    6.6226   -1.9536 O   0  0  0  0  0  0  0  0  0  0  0  0
    6.7627    4.6813   -1.8594 C   0  0  0  0  0  0  0  0  0  0  0  0
    7.4775    5.4790   -0.7881 C   0  0  0  0  0  0  0  0  0  0  0  0
  1  2  2  0
  1  6  1  0
  2  3  1  0
  3  4  2  0
  4  5  1  0
  5  6  2  0
  6  7  1  0
  7  8  2  0
  7 17  1  0
  8  9  1  0
  9 10  1  0
  9 15  2  0
 10 11  2  0
 10 12  1  0
 12 13  2  0
 13 14  1  0
 14 15  1  0
 15 16  1  0
 16 17  2  0
 17 18  1  0
 18 19  2  0
 18 21  1  0
 19 20  1  0
 20 23  2  0
 21 22  2  0
 22 23  1  0
 23 24  1  0
 25 24  1  1
 25 26  1  0
 25 28  1  0
 26 27  1  0
 27 30  1  0
 28 29  1  0
 29 30  1  0
 30 31  1  6
 31 32  1  0
 32 33  2  0
 32 34  1  0
 34 35  2  0
 34 36  1  0
 35 39  1  0
 36 37  2  0
 37 38  1  0
 38 39  2  0
 39 40  1  0
 40 41  1  0
 41 42  2  0
 41 43  1  0
 43 44  1  0
M  CHG  1  25   1
M  END
$$$$
