
     RDKit          3D

 44 49  0  0  0  0  0  0  0  0999 V2000
   -5.9981    2.3818  -16.3908 C   0  0  0  0  0  0  0  0  0  0  0  0
   -7.3029    2.4737  -15.9372 C   0  0  0  0  0  0  0  0  0  0  0  0
   -7.7214    1.7594  -14.8349 C   0  0  0  0  0  0  0  0  0  0  0  0
   -6.8089    0.9484  -14.1913 C   0  0  0  0  0  0  0  0  0  0  0  0
   -5.5198    0.8622  -14.6454 C   0  0  0  0  0  0  0  0  0  0  0  0
   -5.1098    1.5698  -15.7355 C   0  0  0  0  0  0  0  0  0  0  0  0
   -3.7409    1.4529  -16.1853 C   0  0  0  0  0  0  0  0  0  0  0  0
   -3.4399    0.9956  -17.4661 C   0  0  0  0  0  0  0  0  0  0  0  0
   -2.1194    0.9040  -17.8378 C   0  0  0  0  0  0  0  0  0  0  0  0
   -1.7523    0.4327  -19.1632 C   0  0  0  0  0  0  0  0  0  0  0  0
   -2.6415    0.0963  -20.0040 O   0  0  0  0  0  0  0  0  0  0  0  0
   -0.3887    0.3590  -19.4895 N   0  0  0  0  0  0  0  0  0  0  0  0
    0.5481    0.6773  -18.7029 C   0  0  0  0  0  0  0  0  0  0  0  0
    0.3198    1.1662  -17.3423 C   0  0  0  0  0  0  0  0  0  0  0  0
   -1.1042    1.2502  -16.9814 C   0  0  0  0  0  0  0  0  0  0  0  0
   -1.4468    1.6960  -15.7282 N   0  0  0  0  0  0  0  0  0  0  0  0
   -2.7226    1.8002  -15.3262 C   0  0  0  0  0  0  0  0  0  0  0  0
   -3.0945    2.2737  -13.9982 C   0  0  0  0  0  0  0  0  0  0  0  0
   -3.9639    3.3102  -13.7854 C   0  0  0  0  0  0  0  0  0  0  0  0
   -4.2471    3.6813  -12.4892 C   0  0  0  0  0  0  0  0  0  0  0  0
   -2.5347    1.6389  -12.9086 C   0  0  0  0  0  0  0  0  0  0  0  0
   -2.8272    2.0212  -11.5931 C   0  0  0  0  0  0  0  0  0  0  0  0
   -3.7002    3.0630  -11.3731 C   0  0  0  0  0  0  0  0  0  0  0  0
   -4.0421    3.4982   -9.9979 C   0  0  0  0  0  0  0  0  0  0  0  0
   -2.9189    3.8674   -9.1907 N   0  0  1  0  0  4  0  0  0  0  0  0
   -2.7628    5.3244   -9.3187 C   0  0  0  0  0  0  0  0  0  0  0  0
   -3.5702    5.9309   -8.1947 C   0  0  0  0  0  0  0  0  0  0  0  0
   -2.9683    3.4627   -7.8235 C   0  0  0  0  0  0  0  0  0  0  0  0
   -2.1907    4.3857   -6.9078 C   0  0  0  0  0  0  0  0  0  0  0  0
   -2.7682    5.7922   -6.9282 C   0  0  1  0  0  0  0  0  0  0  0  0
   -1.5970    6.6901   -6.9144 N   0  0  0  0  0  0  0  0  0  0  0  0
   -0.6084    6.4303   -5.9381 C   0  0  0  0  0  0  0  0  0  0  0  0
   -0.1021    5.2825   -5.8604 O   0  0  0  0  0  0  0  0  0  0  0  0
   -0.1850    7.5009   -5.0284 C   0  0  0  0  0  0  0  0  0  0  0  0
   -0.9286    8.6763   -4.9431 C   0  0  0  0  0  0  0  0  0  0  0  0
    0.9311    7.4087   -4.2345 C   0  0  0  0  0  0  0  0  0  0  0  0
    1.2792    8.4681   -3.3868 C   0  0  0  0  0  0  0  0  0  0  0  0
    0.5097    9.6086   -3.3404 C   0  0  0  0  0  0  0  0  0  0  0  0
   -0.6143    9.7324   -4.1229 C   0  0  0  0  0  0  0  0  0  0  0  0
   -1.4197   10.9037   -4.0850 N   0  0  0  0  0  0  0  0  0  0  0  0
   -1.8148   11.5353   -5.2887 C   0  0  0  0  0  0  0  0  0  0  0  0
   -1.4863   10.9922   -6.3742 O   0  0  0  0  0  0  0  0  0  0  0  0
   -2.5910   12.7968   -5.1922 C   0  0  0  0  0  0  0  0  0  0  0  0
   -3.2883   13.0065   -6.5206 C   0  0  0  0  0  0  0  0  0  0  0  0
  1  2  2  0
  1  6  1  0
  2  3  1  0
  3  4  2  0
  4  5  1  0
  5  6  2  0
  6  7  1  0
  7  8  2  0
  7 17  1  0
  8  9  1  0
  9 10  1  0
  9 15  2  0
 10 11  2  0
 10 12  1  0
 12 13  2  0
 13 14  1  0
 14 15  1  0
 15 16  1  0
 16 17  2  0
 17 18  1  0
 18 19  2  0
 18 21  1  0
 19 20  1  0
 20 23  2  0
 21 22  2  0
 22 23  1  0
 23 24  1  0
 25 24  1  6
 25 26  1  0
 25 28  1  0
 26 27  1  0
 27 30  1  0
 28 29  1  0
 29 30  1  0
 30 31  1  6
 31 32  1  0
 32 33  2  0
 32 34  1  0
 34 35  2  0
 34 36  1  0
 35 39  1  0
 36 37  2  0
 37 38  1  0
 38 39  2  0
 39 40  1  0
 40 41  1  0
 41 42  2  0
 41 43  1  0
 43 44  1  0
M  CHG  1  25   1
M  END
$$$$
