
     RDKit          3D

 44 49  0  0  0  0  0  0  0  0999 V2000
   -3.4629    3.4275  -14.1734 C   0  0  0  0  0  0  0  0  0  0  0  0
   -2.4484    3.7693  -13.2872 C   0  0  0  0  0  0  0  0  0  0  0  0
   -2.5463    3.4191  -11.9619 C   0  0  0  0  0  0  0  0  0  0  0  0
   -3.6583    2.7287  -11.5299 C   0  0  0  0  0  0  0  0  0  0  0  0
   -4.6728    2.3908  -12.4338 C   0  0  0  0  0  0  0  0  0  0  0  0
   -4.5824    2.7383  -13.7647 C   0  0  0  0  0  0  0  0  0  0  0  0
   -5.6381    2.3876  -14.7138 C   0  0  0  0  0  0  0  0  0  0  0  0
   -6.9179    2.8894  -14.6040 C   0  0  0  0  0  0  0  0  0  0  0  0
   -7.8618    2.5224  -15.5225 C   0  0  0  0  0  0  0  0  0  0  0  0
   -9.2271    3.0321  -15.4414 C   0  0  0  0  0  0  0  0  0  0  0  0
   -9.4778    3.8171  -14.4889 O   0  0  0  0  0  0  0  0  0  0  0  0
  -10.1825    2.6403  -16.3995 N   0  0  0  0  0  0  0  0  0  0  0  0
   -9.8974    1.8342  -17.3648 C   0  0  0  0  0  0  0  0  0  0  0  0
   -8.5713    1.2401  -17.5773 C   0  0  0  0  0  0  0  0  0  0  0  0
   -7.5817    1.6608  -16.5658 C   0  0  0  0  0  0  0  0  0  0  0  0
   -6.3365    1.1879  -16.6519 N   0  0  0  0  0  0  0  0  0  0  0  0
   -5.3955    1.5309  -15.7673 C   0  0  0  0  0  0  0  0  0  0  0  0
   -4.0639    0.9589  -15.9534 C   0  0  0  0  0  0  0  0  0  0  0  0
   -3.4866    0.9221  -17.2053 C   0  0  0  0  0  0  0  0  0  0  0  0
   -2.2121    0.3749  -17.3970 C   0  0  0  0  0  0  0  0  0  0  0  0
   -3.3429    0.4391  -14.8997 C   0  0  0  0  0  0  0  0  0  0  0  0
   -2.0893   -0.0963  -15.1036 C   0  0  0  0  0  0  0  0  0  0  0  0
   -1.4955   -0.1430  -16.3438 C   0  0  0  0  0  0  0  0  0  0  0  0
   -0.1558   -0.7321  -16.4948 C   0  0  0  0  0  0  0  0  0  0  0  0
    0.7387   -0.4592  -15.4155 N   0  0  1  0  0  4  0  0  0  0  0  0
    1.0702   -1.5703  -14.5808 C   0  0  0  0  0  0  0  0  0  0  0  0
    2.2771   -2.3544  -15.0222 C   0  0  0  0  0  0  0  0  0  0  0  0
    1.9046    0.2098  -15.9557 C   0  0  0  0  0  0  0  0  0  0  0  0
    3.1300   -0.0096  -15.1013 C   0  0  0  0  0  0  0  0  0  0  0  0
    3.5076   -1.4959  -15.1985 C   0  0  1  0  0  0  0  0  0  0  0  0
    4.5094   -1.7123  -14.1821 N   0  0  0  0  0  0  0  0  0  0  0  0
    5.8375   -1.3374  -14.4154 C   0  0  0  0  0  0  0  0  0  0  0  0
    6.3371   -1.5813  -15.5420 O   0  0  0  0  0  0  0  0  0  0  0  0
    6.6759   -0.6786  -13.4249 C   0  0  0  0  0  0  0  0  0  0  0  0
    8.0497   -0.7692  -13.4883 C   0  0  0  0  0  0  0  0  0  0  0  0
    6.1571    0.0653  -12.3796 C   0  0  0  0  0  0  0  0  0  0  0  0
    6.9925    0.6819  -11.4515 C   0  0  0  0  0  0  0  0  0  0  0  0
    8.3727    0.5518  -11.5715 C   0  0  0  0  0  0  0  0  0  0  0  0
    8.9215   -0.1811  -12.5994 C   0  0  0  0  0  0  0  0  0  0  0  0
   10.3339   -0.3045  -12.7089 N   0  0  0  0  0  0  0  0  0  0  0  0
   10.9379   -1.3951  -13.3775 C   0  0  0  0  0  0  0  0  0  0  0  0
   10.1957   -2.3908  -13.6193 O   0  0  0  0  0  0  0  0  0  0  0  0
   12.3847   -1.3735  -13.7804 C   0  0  0  0  0  0  0  0  0  0  0  0
   13.0339   -2.6965  -13.5465 C   0  0  0  0  0  0  0  0  0  0  0  0
  1  2  2  0
  1  6  1  0
  2  3  1  0
  3  4  2  0
  4  5  1  0
  5  6  2  0
  6  7  1  0
  7  8  2  0
  7 17  1  0
  8  9  1  0
  9 10  1  0
  9 15  2  0
 10 11  2  0
 10 12  1  0
 12 13  2  0
 14 13  1  1
 14 15  1  0
 15 16  1  0
 16 17  2  0
 17 18  1  0
 18 19  2  0
 18 21  1  0
 19 20  1  0
 20 23  2  0
 21 22  2  0
 22 23  1  0
 24 23  1  1
 25 24  1  6
 25 26  1  0
 25 28  1  0
 26 27  1  6
 27 30  1  6
 28 29  1  6
 29 30  1  6
 30 31  1  1
 31 32  1  0
 32 33  2  0
 32 34  1  0
 34 35  2  0
 34 36  1  0
 35 39  1  0
 36 37  2  0
 37 38  1  0
 38 39  2  0
 39 40  1  0
 40 41  1  0
 41 42  2  0
 43 41  1  1
 44 43  1  6
M  CHG  1  25   1
M  END
$$$$
