
     RDKit          3D

 44 49  0  0  0  0  0  0  0  0999 V2000
   -3.9880   -0.6658  -13.7890 C   0  0  0  0  0  0  0  0  0  0  0  0
   -4.6215   -1.4282  -12.8226 C   0  0  0  0  0  0  0  0  0  0  0  0
   -5.9260   -1.1697  -12.4594 C   0  0  0  0  0  0  0  0  0  0  0  0
   -6.5887   -0.1314  -13.0819 C   0  0  0  0  0  0  0  0  0  0  0  0
   -5.9559    0.6186  -14.0371 C   0  0  0  0  0  0  0  0  0  0  0  0
   -4.6663    0.3600  -14.3934 C   0  0  0  0  0  0  0  0  0  0  0  0
   -4.0318    1.1737  -15.4059 C   0  0  0  0  0  0  0  0  0  0  0  0
   -3.8233    0.6879  -16.6946 C   0  0  0  0  0  0  0  0  0  0  0  0
   -3.2135    1.5070  -17.6152 C   0  0  0  0  0  0  0  0  0  0  0  0
   -2.9731    1.0475  -18.9733 C   0  0  0  0  0  0  0  0  0  0  0  0
   -3.3205   -0.1176  -19.3376 O   0  0  0  0  0  0  0  0  0  0  0  0
   -2.3467    1.9257  -19.8721 N   0  0  0  0  0  0  0  0  0  0  0  0
   -1.9751    3.0975  -19.5778 C   0  0  0  0  0  0  0  0  0  0  0  0
   -2.1558    3.6848  -18.2494 C   0  0  0  0  0  0  0  0  0  0  0  0
   -2.8109    2.7789  -17.2926 C   0  0  0  0  0  0  0  0  0  0  0  0
   -3.0362    3.2169  -16.0105 N   0  0  0  0  0  0  0  0  0  0  0  0
   -3.6280    2.4496  -15.0824 C   0  0  0  0  0  0  0  0  0  0  0  0
   -3.8719    2.9075  -13.7197 C   0  0  0  0  0  0  0  0  0  0  0  0
   -4.9601    3.6579  -13.3618 C   0  0  0  0  0  0  0  0  0  0  0  0
   -5.0959    4.0416  -12.0456 C   0  0  0  0  0  0  0  0  0  0  0  0
   -2.9521    2.5628  -12.7507 C   0  0  0  0  0  0  0  0  0  0  0  0
   -3.0964    2.9560  -11.4140 C   0  0  0  0  0  0  0  0  0  0  0  0
   -4.1883    3.7110  -11.0486 C   0  0  0  0  0  0  0  0  0  0  0  0
   -4.3837    4.1455   -9.6448 C   0  0  0  0  0  0  0  0  0  0  0  0
   -3.3915    5.0545   -9.1564 N   0  0  1  0  0  4  0  0  0  0  0  0
   -4.0441    6.3660   -9.0229 C   0  0  0  0  0  0  0  0  0  0  0  0
   -4.5711    6.4278   -7.6081 C   0  0  0  0  0  0  0  0  0  0  0  0
   -2.7288    4.6728   -7.9519 C   0  0  0  0  0  0  0  0  0  0  0  0
   -2.2454    5.8599   -7.1443 C   0  0  0  0  0  0  0  0  0  0  0  0
   -3.4096    6.7311   -6.6996 C   0  0  1  0  0  0  0  0  0  0  0  0
   -2.9337    8.1195   -6.8556 N   0  0  0  0  0  0  0  0  0  0  0  0
   -2.0358    8.5975   -5.8741 C   0  0  0  0  0  0  0  0  0  0  0  0
   -1.0526    7.8904   -5.5380 O   0  0  0  0  0  0  0  0  0  0  0  0
   -2.2608    9.9111   -5.2601 C   0  0  0  0  0  0  0  0  0  0  0  0
   -3.3516   10.6847   -5.6518 C   0  0  0  0  0  0  0  0  0  0  0  0
   -1.4370   10.4357   -4.2954 C   0  0  0  0  0  0  0  0  0  0  0  0
   -1.7094   11.6965   -3.7493 C   0  0  0  0  0  0  0  0  0  0  0  0
   -2.8013   12.4206   -4.1718 C   0  0  0  0  0  0  0  0  0  0  0  0
   -3.6460   11.9234   -5.1364 C   0  0  0  0  0  0  0  0  0  0  0  0
   -4.7783   12.6592   -5.5820 N   0  0  0  0  0  0  0  0  0  0  0  0
   -4.8630   13.0897   -6.9279 C   0  0  0  0  0  0  0  0  0  0  0  0
   -4.0906   12.5584   -7.7660 O   0  0  0  0  0  0  0  0  0  0  0  0
   -5.8573   14.1395   -7.2631 C   0  0  0  0  0  0  0  0  0  0  0  0
   -6.6681   13.6407   -8.4416 C   0  0  0  0  0  0  0  0  0  0  0  0
  1  2  2  0
  1  6  1  0
  2  3  1  0
  3  4  2  0
  4  5  1  0
  5  6  2  0
  6  7  1  0
  7  8  2  0
  7 17  1  0
  8  9  1  0
  9 10  1  0
  9 15  2  0
 10 11  2  0
 10 12  1  0
 12 13  2  0
 13 14  1  0
 14 15  1  0
 15 16  1  0
 16 17  2  0
 17 18  1  0
 18 19  2  0
 18 21  1  0
 19 20  1  0
 20 23  2  0
 21 22  2  0
 22 23  1  0
 23 24  1  0
 25 24  1  1
 25 26  1  0
 25 28  1  0
 26 27  1  0
 27 30  1  0
 28 29  1  0
 29 30  1  0
 30 31  1  6
 31 32  1  0
 32 33  2  0
 32 34  1  0
 34 35  2  0
 34 36  1  0
 35 39  1  0
 36 37  2  0
 37 38  1  0
 38 39  2  0
 39 40  1  0
 40 41  1  0
 41 42  2  0
 41 43  1  0
 43 44  1  0
M  CHG  1  25   1
M  END
$$$$
