
     RDKit          3D

 44 49  0  0  0  0  0  0  0  0999 V2000
   -5.8936    0.6901  -14.0651 C   0  0  0  0  0  0  0  0  0  0  0  0
   -7.0474    1.1029  -13.4210 C   0  0  0  0  0  0  0  0  0  0  0  0
   -7.9815    1.8811  -14.0709 C   0  0  0  0  0  0  0  0  0  0  0  0
   -7.7409    2.2407  -15.3815 C   0  0  0  0  0  0  0  0  0  0  0  0
   -6.5975    1.8287  -16.0125 C   0  0  0  0  0  0  0  0  0  0  0  0
   -5.6764    1.0596  -15.3667 C   0  0  0  0  0  0  0  0  0  0  0  0
   -4.4813    0.6442  -16.0659 C   0  0  0  0  0  0  0  0  0  0  0  0
   -4.5547    0.0023  -17.2999 C   0  0  0  0  0  0  0  0  0  0  0  0
   -3.3843   -0.3709  -17.9174 C   0  0  0  0  0  0  0  0  0  0  0  0
   -3.4066   -1.0435  -19.2060 C   0  0  0  0  0  0  0  0  0  0  0  0
   -4.5051   -1.3002  -19.7876 O   0  0  0  0  0  0  0  0  0  0  0  0
   -2.1817   -1.4021  -19.7910 N   0  0  0  0  0  0  0  0  0  0  0  0
   -1.0525   -1.1778  -19.2690 C   0  0  0  0  0  0  0  0  0  0  0  0
   -0.8861   -0.5097  -17.9774 C   0  0  0  0  0  0  0  0  0  0  0  0
   -2.1596   -0.1260  -17.3480 C   0  0  0  0  0  0  0  0  0  0  0  0
   -2.1342    0.5093  -16.1305 N   0  0  0  0  0  0  0  0  0  0  0  0
   -3.2528    0.8899  -15.4948 C   0  0  0  0  0  0  0  0  0  0  0  0
   -3.2342    1.5658  -14.2030 C   0  0  0  0  0  0  0  0  0  0  0  0
   -3.7810    2.8039  -13.9940 C   0  0  0  0  0  0  0  0  0  0  0  0
   -3.7079    3.3558  -12.7339 C   0  0  0  0  0  0  0  0  0  0  0  0
   -2.6310    0.9164  -13.1456 C   0  0  0  0  0  0  0  0  0  0  0  0
   -2.5603    1.4833  -11.8666 C   0  0  0  0  0  0  0  0  0  0  0  0
   -3.1079    2.7281  -11.6508 C   0  0  0  0  0  0  0  0  0  0  0  0
   -3.0602    3.3641  -10.3126 C   0  0  0  0  0  0  0  0  0  0  0  0
   -1.9347    2.9885   -9.5116 N   0  0  1  0  0  4  0  0  0  0  0  0
   -0.8208    3.8654   -9.9043 C   0  0  0  0  0  0  0  0  0  0  0  0
   -0.8823    5.0581   -8.9786 C   0  0  0  0  0  0  0  0  0  0  0  0
   -2.1379    2.9982   -8.0994 C   0  0  0  0  0  0  0  0  0  0  0  0
   -0.8649    3.2674   -7.3233 C   0  0  0  0  0  0  0  0  0  0  0  0
   -0.3012    4.6403   -7.6542 C   0  0  1  0  0  0  0  0  0  0  0  0
    1.1606    4.4493   -7.7275 N   0  0  0  0  0  0  0  0  0  0  0  0
    1.8764    4.5506   -6.5130 C   0  0  0  0  0  0  0  0  0  0  0  0
    1.2579    4.8089   -5.4497 O   0  0  0  0  0  0  0  0  0  0  0  0
    3.3305    4.3535   -6.5067 C   0  0  0  0  0  0  0  0  0  0  0  0
    3.9538    3.7369   -7.5898 C   0  0  0  0  0  0  0  0  0  0  0  0
    4.1340    4.7530   -5.4678 C   0  0  0  0  0  0  0  0  0  0  0  0
    5.5165    4.5352   -5.5256 C   0  0  0  0  0  0  0  0  0  0  0  0
    6.0826    3.9209   -6.6199 C   0  0  0  0  0  0  0  0  0  0  0  0
    5.3055    3.5089   -7.6770 C   0  0  0  0  0  0  0  0  0  0  0  0
    5.8760    2.8741   -8.8143 N   0  0  0  0  0  0  0  0  0  0  0  0
    5.2758    3.0216  -10.0878 C   0  0  0  0  0  0  0  0  0  0  0  0
    4.1607    3.5994  -10.1501 O   0  0  0  0  0  0  0  0  0  0  0  0
    6.0007    2.4854  -11.2669 C   0  0  0  0  0  0  0  0  0  0  0  0
    5.9650    0.9736  -11.1760 C   0  0  0  0  0  0  0  0  0  0  0  0
  1  2  2  0
  1  6  1  0
  2  3  1  0
  3  4  2  0
  4  5  1  0
  5  6  2  0
  6  7  1  0
  7  8  2  0
  7 17  1  0
  8  9  1  0
  9 10  1  0
  9 15  2  0
 10 11  2  0
 10 12  1  0
 12 13  2  0
 13 14  1  0
 14 15  1  0
 15 16  1  0
 16 17  2  0
 17 18  1  0
 18 19  2  0
 18 21  1  0
 19 20  1  0
 20 23  2  0
 21 22  2  0
 22 23  1  0
 23 24  1  0
 25 24  1  6
 25 26  1  0
 25 28  1  0
 26 27  1  0
 27 30  1  0
 28 29  1  0
 29 30  1  0
 30 31  1  6
 31 32  1  0
 32 33  2  0
 32 34  1  0
 34 35  2  0
 34 36  1  0
 35 39  1  0
 36 37  2  0
 37 38  1  0
 38 39  2  0
 39 40  1  0
 40 41  1  0
 41 42  2  0
 41 43  1  0
 43 44  1  0
M  CHG  1  25   1
M  END
$$$$
