
     RDKit          3D

 44 49  0  0  0  0  0  0  0  0999 V2000
    0.1175    1.9386  -17.6067 C   0  0  0  0  0  0  0  0  0  0  0  0
    0.4810    3.2727  -17.4677 C   0  0  0  0  0  0  0  0  0  0  0  0
    1.7353    3.6867  -17.8471 C   0  0  0  0  0  0  0  0  0  0  0  0
    2.6195    2.7641  -18.3636 C   0  0  0  0  0  0  0  0  0  0  0  0
    2.2400    1.4232  -18.4980 C   0  0  0  0  0  0  0  0  0  0  0  0
    0.9837    0.9996  -18.1199 C   0  0  0  0  0  0  0  0  0  0  0  0
    0.5811   -0.3992  -18.2586 C   0  0  0  0  0  0  0  0  0  0  0  0
    1.2838   -1.2892  -19.0433 C   0  0  0  0  0  0  0  0  0  0  0  0
    0.8558   -2.5845  -19.1337 C   0  0  0  0  0  0  0  0  0  0  0  0
    1.5723   -3.5571  -19.9530 C   0  0  0  0  0  0  0  0  0  0  0  0
    2.5915   -3.1364  -20.5616 O   0  0  0  0  0  0  0  0  0  0  0  0
    1.1127   -4.8864  -20.0304 N   0  0  0  0  0  0  0  0  0  0  0  0
    0.0650   -5.2895  -19.3959 C   0  0  0  0  0  0  0  0  0  0  0  0
   -0.7579   -4.4304  -18.5349 C   0  0  0  0  0  0  0  0  0  0  0  0
   -0.2631   -3.0413  -18.4639 C   0  0  0  0  0  0  0  0  0  0  0  0
   -0.9272   -2.1622  -17.7104 N   0  0  0  0  0  0  0  0  0  0  0  0
   -0.5299   -0.8906  -17.6052 C   0  0  0  0  0  0  0  0  0  0  0  0
   -1.3261   -0.0107  -16.7527 C   0  0  0  0  0  0  0  0  0  0  0  0
   -2.6862    0.1089  -16.9466 C   0  0  0  0  0  0  0  0  0  0  0  0
   -3.4598    0.9501  -16.1377 C   0  0  0  0  0  0  0  0  0  0  0  0
   -0.7564    0.7258  -15.7360 C   0  0  0  0  0  0  0  0  0  0  0  0
   -1.5307    1.5498  -14.9477 C   0  0  0  0  0  0  0  0  0  0  0  0
   -2.8885    1.6836  -15.1244 C   0  0  0  0  0  0  0  0  0  0  0  0
   -3.6575    2.5839  -14.2510 C   0  0  0  0  0  0  0  0  0  0  0  0
   -3.4737    2.3562  -12.8531 N   0  0  1  0  0  4  0  0  0  0  0  0
   -2.9419    3.4510  -12.1050 C   0  0  0  0  0  0  0  0  0  0  0  0
   -3.9736    4.3894  -11.5381 C   0  0  0  0  0  0  0  0  0  0  0  0
   -4.7199    1.8537  -12.3116 C   0  0  0  0  0  0  0  0  0  0  0  0
   -4.8643    2.1639  -10.8410 C   0  0  0  0  0  0  0  0  0  0  0  0
   -5.0132    3.6865  -10.6971 C   0  0  1  0  0  0  0  0  0  0  0  0
   -4.8903    3.9598   -9.2850 N   0  0  0  0  0  0  0  0  0  0  0  0
   -4.2636    5.1332   -8.8499 C   0  0  0  0  0  0  0  0  0  0  0  0
   -4.5318    6.2079   -9.4427 O   0  0  0  0  0  0  0  0  0  0  0  0
   -3.3160    5.1803   -7.7463 C   0  0  0  0  0  0  0  0  0  0  0  0
   -2.1869    4.3898   -7.7494 C   0  0  0  0  0  0  0  0  0  0  0  0
   -3.4852    6.0050   -6.6480 C   0  0  0  0  0  0  0  0  0  0  0  0
   -2.5553    6.0226   -5.6115 C   0  0  0  0  0  0  0  0  0  0  0  0
   -1.4352    5.1994   -5.6750 C   0  0  0  0  0  0  0  0  0  0  0  0
   -1.2365    4.3670   -6.7532 C   0  0  0  0  0  0  0  0  0  0  0  0
   -0.0867    3.5320   -6.8039 N   0  0  0  0  0  0  0  0  0  0  0  0
    0.8735    3.6463   -7.8365 C   0  0  0  0  0  0  0  0  0  0  0  0
    0.5370    4.3278   -8.8480 O   0  0  0  0  0  0  0  0  0  0  0  0
    2.2228    2.9938   -7.7384 C   0  0  0  0  0  0  0  0  0  0  0  0
    2.5531    2.2388   -8.9823 C   0  0  0  0  0  0  0  0  0  0  0  0
  1  2  2  0
  1  6  1  0
  2  3  1  0
  3  4  2  0
  4  5  1  0
  5  6  2  0
  6  7  1  0
  7  8  2  0
  7 17  1  0
  8  9  1  0
  9 10  1  0
  9 15  2  0
 10 11  2  0
 10 12  1  0
 12 13  2  0
 14 13  1  1
 14 15  1  0
 15 16  1  0
 16 17  2  0
 17 18  1  0
 18 19  2  0
 18 21  1  0
 19 20  1  0
 20 23  2  0
 21 22  2  0
 22 23  1  0
 24 23  1  1
 25 24  1  6
 25 26  1  0
 25 28  1  0
 26 27  1  6
 27 30  1  6
 28 29  1  6
 29 30  1  6
 30 31  1  1
 31 32  1  0
 32 33  2  0
 32 34  1  0
 34 35  2  0
 34 36  1  0
 35 39  1  0
 36 37  2  0
 37 38  1  0
 38 39  2  0
 39 40  1  0
 40 41  1  0
 41 42  2  0
 43 41  1  1
 44 43  1  6
M  CHG  1  25   1
M  END
$$$$
