
     RDKit          3D

 44 49  0  0  0  0  0  0  0  0999 V2000
   -5.2151    1.2511  -12.8622 C   0  0  0  0  0  0  0  0  0  0  0  0
   -5.1766    1.6718  -11.5438 C   0  0  0  0  0  0  0  0  0  0  0  0
   -5.8068    2.8339  -11.1526 C   0  0  0  0  0  0  0  0  0  0  0  0
   -6.4789    3.5708  -12.1065 C   0  0  0  0  0  0  0  0  0  0  0  0
   -6.5129    3.1487  -13.4088 C   0  0  0  0  0  0  0  0  0  0  0  0
   -5.8887    1.9995  -13.7917 C   0  0  0  0  0  0  0  0  0  0  0  0
   -5.9465    1.5862  -15.1758 C   0  0  0  0  0  0  0  0  0  0  0  0
   -7.1601    1.5114  -15.8554 C   0  0  0  0  0  0  0  0  0  0  0  0
   -7.1533    1.1106  -17.1705 C   0  0  0  0  0  0  0  0  0  0  0  0
   -8.3929    1.0162  -17.9241 C   0  0  0  0  0  0  0  0  0  0  0  0
   -9.5060    1.3013  -17.3850 O   0  0  0  0  0  0  0  0  0  0  0  0
   -8.3275    0.6015  -19.2639 N   0  0  0  0  0  0  0  0  0  0  0  0
   -7.2556    0.3026  -19.8634 C   0  0  0  0  0  0  0  0  0  0  0  0
   -5.9398    0.3540  -19.2245 C   0  0  0  0  0  0  0  0  0  0  0  0
   -5.9877    0.7866  -17.8189 C   0  0  0  0  0  0  0  0  0  0  0  0
   -4.8143    0.8745  -17.1104 N   0  0  0  0  0  0  0  0  0  0  0  0
   -4.7773    1.2612  -15.8262 C   0  0  0  0  0  0  0  0  0  0  0  0
   -3.5358    1.3583  -15.0676 C   0  0  0  0  0  0  0  0  0  0  0  0
   -2.7229    0.2856  -14.8150 C   0  0  0  0  0  0  0  0  0  0  0  0
   -1.5714    0.4848  -14.0853 C   0  0  0  0  0  0  0  0  0  0  0  0
   -3.1730    2.5983  -14.5833 C   0  0  0  0  0  0  0  0  0  0  0  0
   -2.0005    2.7939  -13.8422 C   0  0  0  0  0  0  0  0  0  0  0  0
   -1.1796    1.7189  -13.5847 C   0  0  0  0  0  0  0  0  0  0  0  0
    0.0730    1.8805  -12.8086 C   0  0  0  0  0  0  0  0  0  0  0  0
    1.1933    1.1525  -13.3228 N   0  0  1  0  0  4  0  0  0  0  0  0
    2.3066    2.1073  -13.4352 C   0  0  0  0  0  0  0  0  0  0  0  0
    3.0570    2.0294  -12.1260 C   0  0  0  0  0  0  0  0  0  0  0  0
    1.5731   -0.0132  -12.5929 C   0  0  0  0  0  0  0  0  0  0  0  0
    3.0477   -0.3349  -12.7231 C   0  0  0  0  0  0  0  0  0  0  0  0
    3.9054    0.7862  -12.1578 C   0  0  1  0  0  0  0  0  0  0  0  0
    5.0389    0.9142  -13.0944 N   0  0  0  0  0  0  0  0  0  0  0  0
    6.2422    1.4366  -12.5681 C   0  0  0  0  0  0  0  0  0  0  0  0
    6.2349    2.5600  -12.0044 O   0  0  0  0  0  0  0  0  0  0  0  0
    7.4838    0.6634  -12.6851 C   0  0  0  0  0  0  0  0  0  0  0  0
    7.7802   -0.0015  -13.8733 C   0  0  0  0  0  0  0  0  0  0  0  0
    8.3952    0.5548  -11.6642 C   0  0  0  0  0  0  0  0  0  0  0  0
    9.5622   -0.1992  -11.8421 C   0  0  0  0  0  0  0  0  0  0  0  0
    9.8074   -0.8370  -13.0372 C   0  0  0  0  0  0  0  0  0  0  0  0
    8.9146   -0.7481  -14.0794 C   0  0  0  0  0  0  0  0  0  0  0  0
    9.1547   -1.4003  -15.3200 N   0  0  0  0  0  0  0  0  0  0  0  0
    8.3568   -2.5022  -15.7112 C   0  0  0  0  0  0  0  0  0  0  0  0
    7.9042   -3.2516  -14.8085 O   0  0  0  0  0  0  0  0  0  0  0  0
    8.1058   -2.7019  -17.1604 C   0  0  0  0  0  0  0  0  0  0  0  0
    8.2487   -4.1823  -17.4487 C   0  0  0  0  0  0  0  0  0  0  0  0
  1  2  2  0
  1  6  1  0
  2  3  1  0
  3  4  2  0
  4  5  1  0
  5  6  2  0
  6  7  1  0
  7  8  2  0
  7 17  1  0
  8  9  1  0
  9 10  1  0
  9 15  2  0
 10 11  2  0
 10 12  1  0
 12 13  2  0
 13 14  1  0
 14 15  1  0
 15 16  1  0
 16 17  2  0
 17 18  1  0
 18 19  2  0
 18 21  1  0
 19 20  1  0
 20 23  2  0
 21 22  2  0
 22 23  1  0
 23 24  1  0
 25 24  1  1
 25 26  1  0
 25 28  1  0
 26 27  1  0
 27 30  1  0
 28 29  1  0
 29 30  1  0
 30 31  1  6
 31 32  1  0
 32 33  2  0
 32 34  1  0
 34 35  2  0
 34 36  1  0
 35 39  1  0
 36 37  2  0
 37 38  1  0
 38 39  2  0
 39 40  1  0
 40 41  1  0
 41 42  2  0
 41 43  1  0
 43 44  1  0
M  CHG  1  25   1
M  END
$$$$
