
     RDKit          3D

 44 49  0  0  0  0  0  0  0  0999 V2000
   -2.8601    1.9112  -16.5516 C   0  0  0  0  0  0  0  0  0  0  0  0
   -3.8963    2.3914  -15.7690 C   0  0  0  0  0  0  0  0  0  0  0  0
   -5.2023    2.0319  -16.0250 C   0  0  0  0  0  0  0  0  0  0  0  0
   -5.4553    1.1805  -17.0813 C   0  0  0  0  0  0  0  0  0  0  0  0
   -4.4256    0.7093  -17.8512 C   0  0  0  0  0  0  0  0  0  0  0  0
   -3.1358    1.0669  -17.5952 C   0  0  0  0  0  0  0  0  0  0  0  0
   -2.0754    0.5491  -18.4302 C   0  0  0  0  0  0  0  0  0  0  0  0
   -2.1601    0.6042  -19.8195 C   0  0  0  0  0  0  0  0  0  0  0  0
   -1.1213    0.0948  -20.5621 C   0  0  0  0  0  0  0  0  0  0  0  0
   -1.1610    0.1282  -22.0149 C   0  0  0  0  0  0  0  0  0  0  0  0
   -2.1539    0.6276  -22.6278 O   0  0  0  0  0  0  0  0  0  0  0  0
   -0.0728   -0.4062  -22.7231 N   0  0  0  0  0  0  0  0  0  0  0  0
    0.9467   -0.9181  -22.1785 C   0  0  0  0  0  0  0  0  0  0  0  0
    1.1156   -1.0156  -20.7280 C   0  0  0  0  0  0  0  0  0  0  0  0
   -0.0155   -0.4606  -19.9679 C   0  0  0  0  0  0  0  0  0  0  0  0
    0.0260   -0.4941  -18.5955 N   0  0  0  0  0  0  0  0  0  0  0  0
   -0.9662   -0.0079  -17.8343 C   0  0  0  0  0  0  0  0  0  0  0  0
   -0.9292   -0.0385  -16.3770 C   0  0  0  0  0  0  0  0  0  0  0  0
   -1.8416   -0.7191  -15.6155 C   0  0  0  0  0  0  0  0  0  0  0  0
   -1.7183   -0.6820  -14.2439 C   0  0  0  0  0  0  0  0  0  0  0  0
    0.0794    0.6586  -15.7441 C   0  0  0  0  0  0  0  0  0  0  0  0
    0.1991    0.6919  -14.3489 C   0  0  0  0  0  0  0  0  0  0  0  0
   -0.7157    0.0098  -13.5782 C   0  0  0  0  0  0  0  0  0  0  0  0
   -0.6248    0.0137  -12.0986 C   0  0  0  0  0  0  0  0  0  0  0  0
   -0.7472    1.3062  -11.4953 N   0  0  1  0  0  4  0  0  0  0  0  0
   -2.1412    1.4351  -11.0437 C   0  0  0  0  0  0  0  0  0  0  0  0
   -2.1650    0.9401   -9.6163 C   0  0  0  0  0  0  0  0  0  0  0  0
    0.1739    1.5989  -10.4457 C   0  0  0  0  0  0  0  0  0  0  0  0
   -0.3762    2.5879   -9.4385 C   0  0  0  0  0  0  0  0  0  0  0  0
   -1.6094    2.0334   -8.7431 C   0  0  1  0  0  0  0  0  0  0  0  0
   -2.5362    3.1767   -8.6321 N   0  0  0  0  0  0  0  0  0  0  0  0
   -3.0440    3.4605   -7.3438 C   0  0  0  0  0  0  0  0  0  0  0  0
   -2.9638    2.5893   -6.4414 O   0  0  0  0  0  0  0  0  0  0  0  0
   -3.6575    4.7660   -7.0747 C   0  0  0  0  0  0  0  0  0  0  0  0
   -3.6622    5.7494   -8.0620 C   0  0  0  0  0  0  0  0  0  0  0  0
   -4.2435    5.0828   -5.8744 C   0  0  0  0  0  0  0  0  0  0  0  0
   -4.8124    6.3484   -5.6833 C   0  0  0  0  0  0  0  0  0  0  0  0
   -4.7903    7.2848   -6.6922 C   0  0  0  0  0  0  0  0  0  0  0  0
   -4.2111    6.9989   -7.9062 C   0  0  0  0  0  0  0  0  0  0  0  0
   -4.1817    7.9553   -8.9580 N   0  0  0  0  0  0  0  0  0  0  0  0
   -2.9884    8.1754   -9.6871 C   0  0  0  0  0  0  0  0  0  0  0  0
   -2.1415    7.2467   -9.7249 O   0  0  0  0  0  0  0  0  0  0  0  0
   -2.8138    9.4870  -10.3596 C   0  0  0  0  0  0  0  0  0  0  0  0
   -1.4892    9.4509  -11.0937 C   0  0  0  0  0  0  0  0  0  0  0  0
  1  2  2  0
  1  6  1  0
  2  3  1  0
  3  4  2  0
  4  5  1  0
  5  6  2  0
  6  7  1  0
  7  8  2  0
  7 17  1  0
  8  9  1  0
  9 10  1  0
  9 15  2  0
 10 11  2  0
 10 12  1  0
 12 13  2  0
 13 14  1  0
 14 15  1  0
 15 16  1  0
 16 17  2  0
 17 18  1  0
 18 19  2  0
 18 21  1  0
 19 20  1  0
 20 23  2  0
 21 22  2  0
 22 23  1  0
 23 24  1  0
 25 24  1  1
 25 26  1  0
 25 28  1  0
 26 27  1  0
 27 30  1  0
 28 29  1  0
 29 30  1  0
 30 31  1  6
 31 32  1  0
 32 33  2  0
 32 34  1  0
 34 35  2  0
 34 36  1  0
 35 39  1  0
 36 37  2  0
 37 38  1  0
 38 39  2  0
 39 40  1  0
 40 41  1  0
 41 42  2  0
 41 43  1  0
 43 44  1  0
M  CHG  1  25   1
M  END
$$$$
