
     RDKit          3D

 44 49  0  0  0  0  0  0  0  0999 V2000
   -5.9023    0.7792  -14.5946 C   0  0  0  0  0  0  0  0  0  0  0  0
   -7.1665    1.1802  -14.1795 C   0  0  0  0  0  0  0  0  0  0  0  0
   -7.8112    2.2045  -14.8304 C   0  0  0  0  0  0  0  0  0  0  0  0
   -7.1880    2.8225  -15.8932 C   0  0  0  0  0  0  0  0  0  0  0  0
   -5.9142    2.4083  -16.3008 C   0  0  0  0  0  0  0  0  0  0  0  0
   -5.2606    1.3816  -15.6533 C   0  0  0  0  0  0  0  0  0  0  0  0
   -3.9306    0.9438  -16.0747 C   0  0  0  0  0  0  0  0  0  0  0  0
   -3.6960    0.4160  -17.3269 C   0  0  0  0  0  0  0  0  0  0  0  0
   -2.4298    0.0232  -17.6612 C   0  0  0  0  0  0  0  0  0  0  0  0
   -2.1403   -0.5394  -18.9766 C   0  0  0  0  0  0  0  0  0  0  0  0
   -3.1126   -0.6394  -19.7709 O   0  0  0  0  0  0  0  0  0  0  0  0
   -0.8278   -0.9367  -19.2986 N   0  0  0  0  0  0  0  0  0  0  0  0
    0.1490   -0.8228  -18.4645 C   0  0  0  0  0  0  0  0  0  0  0  0
    0.0142   -0.2771  -17.1078 C   0  0  0  0  0  0  0  0  0  0  0  0
   -1.3664    0.1350  -16.7861 C   0  0  0  0  0  0  0  0  0  0  0  0
   -1.6173    0.6487  -15.5799 N   0  0  0  0  0  0  0  0  0  0  0  0
   -2.8457    1.0402  -15.2284 C   0  0  0  0  0  0  0  0  0  0  0  0
   -3.0121    1.5911  -13.8854 C   0  0  0  0  0  0  0  0  0  0  0  0
   -3.0257    0.7604  -12.7847 C   0  0  0  0  0  0  0  0  0  0  0  0
   -3.1863    1.2759  -11.4928 C   0  0  0  0  0  0  0  0  0  0  0  0
   -3.1618    2.9444  -13.6689 C   0  0  0  0  0  0  0  0  0  0  0  0
   -3.3190    3.4373  -12.3913 C   0  0  0  0  0  0  0  0  0  0  0  0
   -3.3356    2.6262  -11.2802 C   0  0  0  0  0  0  0  0  0  0  0  0
   -3.5116    3.2154   -9.9435 C   0  0  0  0  0  0  0  0  0  0  0  0
   -2.3134    3.3068   -9.1717 N   0  0  1  0  0  4  0  0  0  0  0  0
   -1.3499    4.2607   -9.6221 C   0  0  0  0  0  0  0  0  0  0  0  0
   -1.5059    5.6399   -9.0390 C   0  0  0  0  0  0  0  0  0  0  0  0
   -2.6854    3.4909   -7.7838 C   0  0  0  0  0  0  0  0  0  0  0  0
   -1.6106    4.2045   -6.9993 C   0  0  0  0  0  0  0  0  0  0  0  0
   -1.5239    5.6444   -7.5284 C   0  0  1  0  0  0  0  0  0  0  0  0
   -0.3305    6.2057   -6.9415 N   0  0  0  0  0  0  0  0  0  0  0  0
   -0.2928    6.4983   -5.5733 C   0  0  0  0  0  0  0  0  0  0  0  0
   -1.3317    6.9513   -5.0313 O   0  0  0  0  0  0  0  0  0  0  0  0
    0.8844    6.3069   -4.7394 C   0  0  0  0  0  0  0  0  0  0  0  0
    1.9938    5.6472   -5.2227 C   0  0  0  0  0  0  0  0  0  0  0  0
    0.9625    6.7665   -3.4364 C   0  0  0  0  0  0  0  0  0  0  0  0
    2.1074    6.5646   -2.6698 C   0  0  0  0  0  0  0  0  0  0  0  0
    3.1946    5.8902   -3.2171 C   0  0  0  0  0  0  0  0  0  0  0  0
    3.1500    5.4200   -4.5101 C   0  0  0  0  0  0  0  0  0  0  0  0
    4.2692    4.7331   -5.0555 N   0  0  0  0  0  0  0  0  0  0  0  0
    4.3178    4.3479   -6.4158 C   0  0  0  0  0  0  0  0  0  0  0  0
    3.3055    4.6315   -7.1198 O   0  0  0  0  0  0  0  0  0  0  0  0
    5.5086    3.6395   -6.9958 C   0  0  0  0  0  0  0  0  0  0  0  0
    5.8068    4.1191   -8.3769 C   0  0  0  0  0  0  0  0  0  0  0  0
  1  2  2  0
  1  6  1  0
  2  3  1  0
  3  4  2  0
  4  5  1  0
  5  6  2  0
  6  7  1  0
  7  8  2  0
  7 17  1  0
  8  9  1  0
  9 10  1  0
  9 15  2  0
 10 11  2  0
 10 12  1  0
 12 13  2  0
 14 13  1  1
 14 15  1  0
 15 16  1  0
 16 17  2  0
 17 18  1  0
 18 19  2  0
 18 21  1  0
 19 20  1  0
 20 23  2  0
 21 22  2  0
 22 23  1  0
 24 23  1  1
 25 24  1  6
 25 26  1  0
 25 28  1  0
 26 27  1  6
 27 30  1  6
 28 29  1  6
 29 30  1  6
 30 31  1  1
 31 32  1  0
 32 33  2  0
 32 34  1  0
 34 35  2  0
 34 36  1  0
 35 39  1  0
 36 37  2  0
 37 38  1  0
 38 39  2  0
 39 40  1  0
 40 41  1  0
 41 42  2  0
 43 41  1  1
 44 43  1  6
M  CHG  1  25   1
M  END
$$$$
