
     RDKit          3D

 44 49  0  0  0  0  0  0  0  0999 V2000
   -5.2012    1.7930  -15.9809 C   0  0  0  0  0  0  0  0  0  0  0  0
   -6.5430    2.1094  -15.8054 C   0  0  0  0  0  0  0  0  0  0  0  0
   -7.2482    1.5596  -14.7619 C   0  0  0  0  0  0  0  0  0  0  0  0
   -6.6076    0.6961  -13.8993 C   0  0  0  0  0  0  0  0  0  0  0  0
   -5.2554    0.3862  -14.0881 C   0  0  0  0  0  0  0  0  0  0  0  0
   -4.5407    0.9334  -15.1322 C   0  0  0  0  0  0  0  0  0  0  0  0
   -3.1281    0.6144  -15.3342 C   0  0  0  0  0  0  0  0  0  0  0  0
   -2.6604    0.0755  -16.5142 C   0  0  0  0  0  0  0  0  0  0  0  0
   -1.3278   -0.2024  -16.6414 C   0  0  0  0  0  0  0  0  0  0  0  0
   -0.7935   -0.7725  -17.8743 C   0  0  0  0  0  0  0  0  0  0  0  0
   -1.6219   -0.9893  -18.7979 O   0  0  0  0  0  0  0  0  0  0  0  0
    0.5833   -1.0500  -17.9823 N   0  0  0  0  0  0  0  0  0  0  0  0
    1.4089   -0.8177  -17.0194 C   0  0  0  0  0  0  0  0  0  0  0  0
    1.0222   -0.2483  -15.7222 C   0  0  0  0  0  0  0  0  0  0  0  0
   -0.4229    0.0374  -15.6251 C   0  0  0  0  0  0  0  0  0  0  0  0
   -0.8983    0.5593  -14.4923 N   0  0  0  0  0  0  0  0  0  0  0  0
   -2.1962    0.8401  -14.3425 C   0  0  0  0  0  0  0  0  0  0  0  0
   -2.6124    1.4113  -13.0637 C   0  0  0  0  0  0  0  0  0  0  0  0
   -2.1315    0.8973  -11.8778 C   0  0  0  0  0  0  0  0  0  0  0  0
   -2.5242    1.4346  -10.6459 C   0  0  0  0  0  0  0  0  0  0  0  0
   -3.4918    2.4707  -12.9933 C   0  0  0  0  0  0  0  0  0  0  0  0
   -3.8694    2.9892  -11.7732 C   0  0  0  0  0  0  0  0  0  0  0  0
   -3.4016    2.4913  -10.5790 C   0  0  0  0  0  0  0  0  0  0  0  0
   -3.8475    3.0875   -9.3099 C   0  0  0  0  0  0  0  0  0  0  0  0
   -4.1906    4.4714   -9.3914 N   0  0  1  0  0  4  0  0  0  0  0  0
   -5.0223    4.9730   -8.3436 C   0  0  0  0  0  0  0  0  0  0  0  0
   -4.2794    5.5088   -7.1488 C   0  0  0  0  0  0  0  0  0  0  0  0
   -2.9669    5.2295   -9.5539 C   0  0  0  0  0  0  0  0  0  0  0  0
   -3.1024    6.6415   -9.0366 C   0  0  0  0  0  0  0  0  0  0  0  0
   -3.2633    6.5666   -7.5103 C   0  0  1  0  0  0  0  0  0  0  0  0
   -3.6429    7.8947   -7.0912 N   0  0  0  0  0  0  0  0  0  0  0  0
   -2.6655    8.8810   -6.9161 C   0  0  0  0  0  0  0  0  0  0  0  0
   -1.4742    8.5177   -6.7508 O   0  0  0  0  0  0  0  0  0  0  0  0
   -2.9504   10.3082   -6.9148 C   0  0  0  0  0  0  0  0  0  0  0  0
   -4.2210   10.7759   -7.1724 C   0  0  0  0  0  0  0  0  0  0  0  0
   -1.9838   11.2651   -6.6592 C   0  0  0  0  0  0  0  0  0  0  0  0
   -2.2957   12.6223   -6.6661 C   0  0  0  0  0  0  0  0  0  0  0  0
   -3.5990   13.0298   -6.9336 C   0  0  0  0  0  0  0  0  0  0  0  0
   -4.5845   12.1040   -7.1919 C   0  0  0  0  0  0  0  0  0  0  0  0
   -5.9118   12.5359   -7.4632 N   0  0  0  0  0  0  0  0  0  0  0  0
   -6.6998   11.9361   -8.4735 C   0  0  0  0  0  0  0  0  0  0  0  0
   -6.2126   10.9138   -9.0377 O   0  0  0  0  0  0  0  0  0  0  0  0
   -8.0451   12.4829   -8.8571 C   0  0  0  0  0  0  0  0  0  0  0  0
   -9.1262   11.4819   -8.6211 C   0  0  0  0  0  0  0  0  0  0  0  0
  1  2  2  0
  1  6  1  0
  2  3  1  0
  3  4  2  0
  4  5  1  0
  5  6  2  0
  6  7  1  0
  7  8  2  0
  7 17  1  0
  8  9  1  0
  9 10  1  0
  9 15  2  0
 10 11  2  0
 10 12  1  0
 12 13  2  0
 14 13  1  1
 14 15  1  0
 15 16  1  0
 16 17  2  0
 17 18  1  0
 18 19  2  0
 18 21  1  0
 19 20  1  0
 20 23  2  0
 21 22  2  0
 22 23  1  0
 24 23  1  1
 25 24  1  1
 25 26  1  0
 25 28  1  0
 26 27  1  6
 27 30  1  6
 28 29  1  6
 29 30  1  6
 30 31  1  6
 31 32  1  0
 32 33  2  0
 32 34  1  0
 34 35  2  0
 34 36  1  0
 35 39  1  0
 36 37  2  0
 37 38  1  0
 38 39  2  0
 39 40  1  0
 40 41  1  0
 41 42  2  0
 43 41  1  1
 44 43  1  6
M  CHG  1  25   1
M  END
$$$$
