
     RDKit          3D

 44 49  0  0  0  0  0  0  0  0999 V2000
    3.1609   -1.1177  -19.2354 C   0  0  0  0  0  0  0  0  0  0  0  0
    2.4615   -1.0722  -20.4355 C   0  0  0  0  0  0  0  0  0  0  0  0
    2.5917    0.0147  -21.2663 C   0  0  0  0  0  0  0  0  0  0  0  0
    3.4209    1.0504  -20.8925 C   0  0  0  0  0  0  0  0  0  0  0  0
    4.1196    0.9912  -19.6807 C   0  0  0  0  0  0  0  0  0  0  0  0
    3.9945   -0.0954  -18.8415 C   0  0  0  0  0  0  0  0  0  0  0  0
    4.7222   -0.1635  -17.5750 C   0  0  0  0  0  0  0  0  0  0  0  0
    6.0794    0.0677  -17.4968 C   0  0  0  0  0  0  0  0  0  0  0  0
    6.7033   -0.0124  -16.2829 C   0  0  0  0  0  0  0  0  0  0  0  0
    8.1378    0.2261  -16.1582 C   0  0  0  0  0  0  0  0  0  0  0  0
    8.7551    0.5050  -17.2200 O   0  0  0  0  0  0  0  0  0  0  0  0
    8.7586    0.1385  -14.8967 N   0  0  0  0  0  0  0  0  0  0  0  0
    8.1010   -0.1494  -13.8255 C   0  0  0  0  0  0  0  0  0  0  0  0
    6.6571   -0.4149  -13.7918 C   0  0  0  0  0  0  0  0  0  0  0  0
    6.0215   -0.3186  -15.1208 C   0  0  0  0  0  0  0  0  0  0  0  0
    4.7087   -0.5384  -15.2207 N   0  0  0  0  0  0  0  0  0  0  0  0
    4.0751   -0.4663  -16.3951 C   0  0  0  0  0  0  0  0  0  0  0  0
    2.6365   -0.7220  -16.3944 C   0  0  0  0  0  0  0  0  0  0  0  0
    1.7644    0.1826  -16.9626 C   0  0  0  0  0  0  0  0  0  0  0  0
    0.3837   -0.0500  -16.9666 C   0  0  0  0  0  0  0  0  0  0  0  0
    2.1016   -1.8612  -15.8317 C   0  0  0  0  0  0  0  0  0  0  0  0
    0.7402   -2.0767  -15.8432 C   0  0  0  0  0  0  0  0  0  0  0  0
   -0.1468   -1.1873  -16.4044 C   0  0  0  0  0  0  0  0  0  0  0  0
   -1.5895   -1.4748  -16.3798 C   0  0  0  0  0  0  0  0  0  0  0  0
   -2.2396   -1.1491  -15.1506 N   0  0  1  0  0  4  0  0  0  0  0  0
   -1.8262    0.0681  -14.5270 C   0  0  0  0  0  0  0  0  0  0  0  0
   -2.6036    1.2878  -14.9447 C   0  0  0  0  0  0  0  0  0  0  0  0
   -3.6704   -1.2159  -15.3670 C   0  0  0  0  0  0  0  0  0  0  0  0
   -4.4299   -0.3280  -14.4107 C   0  0  0  0  0  0  0  0  0  0  0  0
   -4.0946    1.1302  -14.7603 C   0  0  1  0  0  0  0  0  0  0  0  0
   -4.6267    1.9242  -13.6786 N   0  0  0  0  0  0  0  0  0  0  0  0
   -5.7548    2.7261  -13.8864 C   0  0  0  0  0  0  0  0  0  0  0  0
   -6.2628    2.7551  -15.0351 O   0  0  0  0  0  0  0  0  0  0  0  0
   -6.3757    3.5309  -12.8448 C   0  0  0  0  0  0  0  0  0  0  0  0
   -5.8676    3.5436  -11.5636 C   0  0  0  0  0  0  0  0  0  0  0  0
   -7.4913    4.3179  -13.0708 C   0  0  0  0  0  0  0  0  0  0  0  0
   -8.0566    5.0752  -12.0480 C   0  0  0  0  0  0  0  0  0  0  0  0
   -7.4953    5.0444  -10.7751 C   0  0  0  0  0  0  0  0  0  0  0  0
   -6.3855    4.2722  -10.5162 C   0  0  0  0  0  0  0  0  0  0  0  0
   -5.8231    4.2515   -9.2104 N   0  0  0  0  0  0  0  0  0  0  0  0
   -4.6793    3.4778   -8.9028 C   0  0  0  0  0  0  0  0  0  0  0  0
   -4.0379    3.0027   -9.8845 O   0  0  0  0  0  0  0  0  0  0  0  0
   -4.2474    3.2326   -7.4853 C   0  0  0  0  0  0  0  0  0  0  0  0
   -2.8157    3.6004   -7.2820 C   0  0  0  0  0  0  0  0  0  0  0  0
  1  2  2  0
  1  6  1  0
  2  3  1  0
  3  4  2  0
  4  5  1  0
  5  6  2  0
  6  7  1  0
  7  8  2  0
  7 17  1  0
  8  9  1  0
  9 10  1  0
  9 15  2  0
 10 11  2  0
 10 12  1  0
 12 13  2  0
 14 13  1  1
 14 15  1  0
 15 16  1  0
 16 17  2  0
 17 18  1  0
 18 19  2  0
 18 21  1  0
 19 20  1  0
 20 23  2  0
 21 22  2  0
 22 23  1  0
 24 23  1  1
 25 24  1  6
 25 26  1  0
 25 28  1  0
 26 27  1  6
 27 30  1  6
 28 29  1  6
 29 30  1  6
 30 31  1  1
 31 32  1  0
 32 33  2  0
 32 34  1  0
 34 35  2  0
 34 36  1  0
 35 39  1  0
 36 37  2  0
 37 38  1  0
 38 39  2  0
 39 40  1  0
 40 41  1  0
 41 42  2  0
 43 41  1  1
 44 43  1  6
M  CHG  1  25   1
M  END
$$$$
