
     RDKit          3D

 44 49  0  0  0  0  0  0  0  0999 V2000
   -5.5324    3.1616  -12.4263 C   0  0  0  0  0  0  0  0  0  0  0  0
   -5.1882    3.3666  -11.1011 C   0  0  0  0  0  0  0  0  0  0  0  0
   -4.5184    2.3973  -10.3853 C   0  0  0  0  0  0  0  0  0  0  0  0
   -4.1974    1.2148  -11.0202 C   0  0  0  0  0  0  0  0  0  0  0  0
   -4.5409    1.0187  -12.3313 C   0  0  0  0  0  0  0  0  0  0  0  0
   -5.2030    1.9792  -13.0355 C   0  0  0  0  0  0  0  0  0  0  0  0
   -5.5490    1.7357  -14.4179 C   0  0  0  0  0  0  0  0  0  0  0  0
   -6.8397    1.9650  -14.8889 C   0  0  0  0  0  0  0  0  0  0  0  0
   -7.1103    1.7141  -16.2133 C   0  0  0  0  0  0  0  0  0  0  0  0
   -8.4411    1.9370  -16.7541 C   0  0  0  0  0  0  0  0  0  0  0  0
   -9.3800    2.3675  -16.0165 O   0  0  0  0  0  0  0  0  0  0  0  0
   -8.6616    1.6641  -18.1136 N   0  0  0  0  0  0  0  0  0  0  0  0
   -7.7743    1.2345  -18.9048 C   0  0  0  0  0  0  0  0  0  0  0  0
   -6.3955    0.9674  -18.4926 C   0  0  0  0  0  0  0  0  0  0  0  0
   -6.1448    1.2474  -17.0700 C   0  0  0  0  0  0  0  0  0  0  0  0
   -4.8860    1.0354  -16.5630 N   0  0  0  0  0  0  0  0  0  0  0  0
   -4.5805    1.2677  -15.2773 C   0  0  0  0  0  0  0  0  0  0  0  0
   -3.2465    1.0464  -14.7317 C   0  0  0  0  0  0  0  0  0  0  0  0
   -2.5440    2.0045  -14.0506 C   0  0  0  0  0  0  0  0  0  0  0  0
   -1.2881    1.6936  -13.5772 C   0  0  0  0  0  0  0  0  0  0  0  0
   -2.6724   -0.1942  -14.9188 C   0  0  0  0  0  0  0  0  0  0  0  0
   -1.3950   -0.5039  -14.4345 C   0  0  0  0  0  0  0  0  0  0  0  0
   -0.6839    0.4557  -13.7494 C   0  0  0  0  0  0  0  0  0  0  0  0
    0.6692    0.1705  -13.2154 C   0  0  0  0  0  0  0  0  0  0  0  0
    1.7463    0.5911  -14.0594 N   0  0  1  0  0  4  0  0  0  0  0  0
    2.9942    0.2657  -13.3518 C   0  0  0  0  0  0  0  0  0  0  0  0
    3.3845   -1.1202  -13.8101 C   0  0  0  0  0  0  0  0  0  0  0  0
    1.7442    0.0689  -15.3872 C   0  0  0  0  0  0  0  0  0  0  0  0
    3.1341   -0.0369  -15.9805 C   0  0  0  0  0  0  0  0  0  0  0  0
    4.0014   -0.9936  -15.1775 C   0  0  1  0  0  0  0  0  0  0  0  0
    5.3322   -0.3573  -15.1268 N   0  0  0  0  0  0  0  0  0  0  0  0
    6.4412   -1.1782  -15.4339 C   0  0  0  0  0  0  0  0  0  0  0  0
    6.3749   -2.4144  -15.2169 O   0  0  0  0  0  0  0  0  0  0  0  0
    7.6546   -0.5794  -16.0016 C   0  0  0  0  0  0  0  0  0  0  0  0
    7.5905    0.1085  -17.2117 C   0  0  0  0  0  0  0  0  0  0  0  0
    8.8823   -0.6594  -15.3926 C   0  0  0  0  0  0  0  0  0  0  0  0
   10.0016   -0.0644  -15.9883 C   0  0  0  0  0  0  0  0  0  0  0  0
    9.8840    0.6044  -17.1859 C   0  0  0  0  0  0  0  0  0  0  0  0
    8.6685    0.7025  -17.8215 C   0  0  0  0  0  0  0  0  0  0  0  0
    8.5312    1.3909  -19.0582 N   0  0  0  0  0  0  0  0  0  0  0  0
    8.6507    2.8006  -19.1054 C   0  0  0  0  0  0  0  0  0  0  0  0
    9.2399    3.3740  -18.1539 O   0  0  0  0  0  0  0  0  0  0  0  0
    8.0737    3.5107  -20.2741 C   0  0  0  0  0  0  0  0  0  0  0  0
    8.7229    4.8777  -20.3439 C   0  0  0  0  0  0  0  0  0  0  0  0
  1  2  2  0
  1  6  1  0
  2  3  1  0
  3  4  2  0
  4  5  1  0
  5  6  2  0
  6  7  1  0
  7  8  2  0
  7 17  1  0
  8  9  1  0
  9 10  1  0
  9 15  2  0
 10 11  2  0
 10 12  1  0
 12 13  2  0
 13 14  1  0
 14 15  1  0
 15 16  1  0
 16 17  2  0
 17 18  1  0
 18 19  2  0
 18 21  1  0
 19 20  1  0
 20 23  2  0
 21 22  2  0
 22 23  1  0
 23 24  1  0
 25 24  1  1
 25 26  1  0
 25 28  1  0
 26 27  1  0
 27 30  1  0
 28 29  1  0
 29 30  1  0
 30 31  1  1
 31 32  1  0
 32 33  2  0
 32 34  1  0
 34 35  2  0
 34 36  1  0
 35 39  1  0
 36 37  2  0
 37 38  1  0
 38 39  2  0
 39 40  1  0
 40 41  1  0
 41 42  2  0
 41 43  1  0
 43 44  1  0
M  CHG  1  25   1
M  END
$$$$
