
     RDKit          3D

 44 49  0  0  0  0  0  0  0  0999 V2000
   -4.6580    2.0466  -12.0440 C   0  0  0  0  0  0  0  0  0  0  0  0
   -3.7920    2.3409  -10.9977 C   0  0  0  0  0  0  0  0  0  0  0  0
   -2.4532    2.5280  -11.2453 C   0  0  0  0  0  0  0  0  0  0  0  0
   -1.9876    2.4199  -12.5381 C   0  0  0  0  0  0  0  0  0  0  0  0
   -2.8714    2.1229  -13.5826 C   0  0  0  0  0  0  0  0  0  0  0  0
   -4.2157    1.9337  -13.3429 C   0  0  0  0  0  0  0  0  0  0  0  0
   -5.1439    1.6242  -14.4295 C   0  0  0  0  0  0  0  0  0  0  0  0
   -6.3847    2.2184  -14.5244 C   0  0  0  0  0  0  0  0  0  0  0  0
   -7.2084    1.8860  -15.5637 C   0  0  0  0  0  0  0  0  0  0  0  0
   -8.5288    2.4931  -15.6999 C   0  0  0  0  0  0  0  0  0  0  0  0
   -8.8571    3.3275  -14.8154 O   0  0  0  0  0  0  0  0  0  0  0  0
   -9.3598    2.1353  -16.7795 N   0  0  0  0  0  0  0  0  0  0  0  0
   -8.9972    1.2770  -17.6710 C   0  0  0  0  0  0  0  0  0  0  0  0
   -7.7025    0.5838  -17.6685 C   0  0  0  0  0  0  0  0  0  0  0  0
   -6.8435    0.9699  -16.5317 C   0  0  0  0  0  0  0  0  0  0  0  0
   -5.6380    0.4078  -16.4194 N   0  0  0  0  0  0  0  0  0  0  0  0
   -4.8141    0.7153  -15.4133 C   0  0  0  0  0  0  0  0  0  0  0  0
   -3.5162    0.0448  -15.3845 C   0  0  0  0  0  0  0  0  0  0  0  0
   -3.1432   -0.7118  -14.2935 C   0  0  0  0  0  0  0  0  0  0  0  0
   -1.9016   -1.3576  -14.2530 C   0  0  0  0  0  0  0  0  0  0  0  0
   -2.6249    0.1424  -16.4317 C   0  0  0  0  0  0  0  0  0  0  0  0
   -1.4060   -0.4990  -16.3777 C   0  0  0  0  0  0  0  0  0  0  0  0
   -1.0146   -1.2582  -15.2992 C   0  0  0  0  0  0  0  0  0  0  0  0
    0.3025   -1.9140  -15.3021 C   0  0  0  0  0  0  0  0  0  0  0  0
    1.2679   -1.3126  -14.4384 N   0  0  1  0  0  4  0  0  0  0  0  0
    2.4231   -2.1006  -14.1457 C   0  0  0  0  0  0  0  0  0  0  0  0
    3.5705   -1.9199  -15.1034 C   0  0  0  0  0  0  0  0  0  0  0  0
    1.5950   -0.0055  -14.9704 C   0  0  0  0  0  0  0  0  0  0  0  0
    2.9771    0.4433  -14.5601 C   0  0  0  0  0  0  0  0  0  0  0  0
    3.9927   -0.4773  -15.2545 C   0  0  1  0  0  0  0  0  0  0  0  0
    5.2674   -0.1849  -14.6434 N   0  0  0  0  0  0  0  0  0  0  0  0
    6.4546   -0.5470  -15.2902 C   0  0  0  0  0  0  0  0  0  0  0  0
    6.4018   -1.4269  -16.1854 O   0  0  0  0  0  0  0  0  0  0  0  0
    7.7511    0.0392  -14.9847 C   0  0  0  0  0  0  0  0  0  0  0  0
    7.9296    0.8130  -13.8582 C   0  0  0  0  0  0  0  0  0  0  0  0
    8.8630   -0.1405  -15.7888 C   0  0  0  0  0  0  0  0  0  0  0  0
   10.0877    0.4364  -15.4623 C   0  0  0  0  0  0  0  0  0  0  0  0
   10.2021    1.2077  -14.3098 C   0  0  0  0  0  0  0  0  0  0  0  0
    9.1158    1.4064  -13.4879 C   0  0  0  0  0  0  0  0  0  0  0  0
    9.2485    2.1968  -12.3133 N   0  0  0  0  0  0  0  0  0  0  0  0
    8.5222    1.9085  -11.1340 C   0  0  0  0  0  0  0  0  0  0  0  0
    7.6870    0.9605  -11.2025 O   0  0  0  0  0  0  0  0  0  0  0  0
    8.7308    2.6860   -9.8660 C   0  0  0  0  0  0  0  0  0  0  0  0
    7.4358    2.9609   -9.1777 C   0  0  0  0  0  0  0  0  0  0  0  0
  1  2  2  0
  1  6  1  0
  2  3  1  0
  3  4  2  0
  4  5  1  0
  5  6  2  0
  6  7  1  0
  7  8  2  0
  7 17  1  0
  8  9  1  0
  9 10  1  0
  9 15  2  0
 10 11  2  0
 10 12  1  0
 12 13  2  0
 14 13  1  1
 14 15  1  0
 15 16  1  0
 16 17  2  0
 17 18  1  0
 18 19  2  0
 18 21  1  0
 19 20  1  0
 20 23  2  0
 21 22  2  0
 22 23  1  0
 24 23  1  1
 25 24  1  6
 25 26  1  0
 25 28  1  0
 26 27  1  6
 27 30  1  6
 28 29  1  6
 29 30  1  6
 30 31  1  1
 31 32  1  0
 32 33  2  0
 32 34  1  0
 34 35  2  0
 34 36  1  0
 35 39  1  0
 36 37  2  0
 37 38  1  0
 38 39  2  0
 39 40  1  0
 40 41  1  0
 41 42  2  0
 43 41  1  1
 44 43  1  6
M  CHG  1  25   1
M  END
$$$$
