
     RDKit          3D

 44 49  0  0  0  0  0  0  0  0999 V2000
   -3.7463    0.4378  -17.2169 C   0  0  0  0  0  0  0  0  0  0  0  0
   -2.5254    0.4423  -17.8696 C   0  0  0  0  0  0  0  0  0  0  0  0
   -1.5681    1.3893  -17.5742 C   0  0  0  0  0  0  0  0  0  0  0  0
   -1.8539    2.3354  -16.6110 C   0  0  0  0  0  0  0  0  0  0  0  0
   -3.0636    2.3249  -15.9693 C   0  0  0  0  0  0  0  0  0  0  0  0
   -4.0075    1.3873  -16.2640 C   0  0  0  0  0  0  0  0  0  0  0  0
   -5.2730    1.4085  -15.5656 C   0  0  0  0  0  0  0  0  0  0  0  0
   -6.4715    1.5921  -16.2513 C   0  0  0  0  0  0  0  0  0  0  0  0
   -7.6441    1.6046  -15.5336 C   0  0  0  0  0  0  0  0  0  0  0  0
   -8.9214    1.7927  -16.2018 C   0  0  0  0  0  0  0  0  0  0  0  0
   -8.9813    1.9491  -17.4599 O   0  0  0  0  0  0  0  0  0  0  0  0
  -10.0875    1.7970  -15.4198 N   0  0  0  0  0  0  0  0  0  0  0  0
  -10.1017    1.6471  -14.1648 C   0  0  0  0  0  0  0  0  0  0  0  0
   -8.8898    1.4489  -13.3684 C   0  0  0  0  0  0  0  0  0  0  0  0
   -7.6564    1.4417  -14.1707 C   0  0  0  0  0  0  0  0  0  0  0  0
   -6.4516    1.2637  -13.5355 N   0  0  0  0  0  0  0  0  0  0  0  0
   -5.2853    1.2450  -14.1986 C   0  0  0  0  0  0  0  0  0  0  0  0
   -4.0025    1.0553  -13.5319 C   0  0  0  0  0  0  0  0  0  0  0  0
   -3.4693    1.9620  -12.6550 C   0  0  0  0  0  0  0  0  0  0  0  0
   -2.2476    1.6876  -12.0801 C   0  0  0  0  0  0  0  0  0  0  0  0
   -3.2985   -0.0989  -13.8076 C   0  0  0  0  0  0  0  0  0  0  0  0
   -2.0569   -0.3718  -13.2193 C   0  0  0  0  0  0  0  0  0  0  0  0
   -1.5156    0.5365  -12.3373 C   0  0  0  0  0  0  0  0  0  0  0  0
   -0.2066    0.2867  -11.6879 C   0  0  0  0  0  0  0  0  0  0  0  0
    0.9096    0.9084  -12.3336 N   0  0  1  0  0  4  0  0  0  0  0  0
    2.1221    0.3857  -11.6852 C   0  0  0  0  0  0  0  0  0  0  0  0
    2.5346   -0.8268  -12.4869 C   0  0  0  0  0  0  0  0  0  0  0  0
    0.9716    0.7695  -13.7523 C   0  0  0  0  0  0  0  0  0  0  0  0
    2.3885    0.8121  -14.2867 C   0  0  0  0  0  0  0  0  0  0  0  0
    3.2164   -0.3388  -13.7372 C   0  0  1  0  0  0  0  0  0  0  0  0
    4.5430    0.2422  -13.4525 N   0  0  0  0  0  0  0  0  0  0  0  0
    5.6473   -0.6385  -13.5064 C   0  0  0  0  0  0  0  0  0  0  0  0
    5.5050   -1.8326  -13.1407 O   0  0  0  0  0  0  0  0  0  0  0  0
    6.9447   -0.1502  -13.9877 C   0  0  0  0  0  0  0  0  0  0  0  0
    7.0382    1.1067  -14.5820 C   0  0  0  0  0  0  0  0  0  0  0  0
    8.1030   -0.8795  -13.8828 C   0  0  0  0  0  0  0  0  0  0  0  0
    9.3095   -0.3538  -14.3623 C   0  0  0  0  0  0  0  0  0  0  0  0
    9.3473    0.8944  -14.9417 C   0  0  0  0  0  0  0  0  0  0  0  0
    8.2048    1.6503  -15.0619 C   0  0  0  0  0  0  0  0  0  0  0  0
    8.2285    2.9416  -15.6568 N   0  0  0  0  0  0  0  0  0  0  0  0
    8.4499    3.0805  -17.0481 C   0  0  0  0  0  0  0  0  0  0  0  0
    8.1698    2.1042  -17.7895 O   0  0  0  0  0  0  0  0  0  0  0  0
    8.9977    4.3686  -17.5419 C   0  0  0  0  0  0  0  0  0  0  0  0
    8.0280    4.9126  -18.5708 C   0  0  0  0  0  0  0  0  0  0  0  0
  1  2  2  0
  1  6  1  0
  2  3  1  0
  3  4  2  0
  4  5  1  0
  5  6  2  0
  6  7  1  0
  7  8  2  0
  7 17  1  0
  8  9  1  0
  9 10  1  0
  9 15  2  0
 10 11  2  0
 10 12  1  0
 12 13  2  0
 13 14  1  0
 14 15  1  0
 15 16  1  0
 16 17  2  0
 17 18  1  0
 18 19  2  0
 18 21  1  0
 19 20  1  0
 20 23  2  0
 21 22  2  0
 22 23  1  0
 23 24  1  0
 25 24  1  1
 25 26  1  0
 25 28  1  0
 26 27  1  0
 27 30  1  0
 28 29  1  0
 29 30  1  0
 30 31  1  1
 31 32  1  0
 32 33  2  0
 32 34  1  0
 34 35  2  0
 34 36  1  0
 35 39  1  0
 36 37  2  0
 37 38  1  0
 38 39  2  0
 39 40  1  0
 40 41  1  0
 41 42  2  0
 41 43  1  0
 43 44  1  0
M  CHG  1  25   1
M  END
$$$$
