
     RDKit          3D

 44 49  0  0  0  0  0  0  0  0999 V2000
   -2.8920    0.9834  -12.9687 C   0  0  0  0  0  0  0  0  0  0  0  0
   -1.9604    1.2852  -11.9827 C   0  0  0  0  0  0  0  0  0  0  0  0
   -1.9770    2.5179  -11.3753 C   0  0  0  0  0  0  0  0  0  0  0  0
   -2.9254    3.4422  -11.7574 C   0  0  0  0  0  0  0  0  0  0  0  0
   -3.8579    3.1247  -12.7522 C   0  0  0  0  0  0  0  0  0  0  0  0
   -3.8482    1.8905  -13.3665 C   0  0  0  0  0  0  0  0  0  0  0  0
   -4.8200    1.5525  -14.4055 C   0  0  0  0  0  0  0  0  0  0  0  0
   -6.1506    1.9005  -14.3048 C   0  0  0  0  0  0  0  0  0  0  0  0
   -7.0108    1.5543  -15.3095 C   0  0  0  0  0  0  0  0  0  0  0  0
   -8.4261    1.9047  -15.2409 C   0  0  0  0  0  0  0  0  0  0  0  0
   -8.7996    2.5345  -14.2162 O   0  0  0  0  0  0  0  0  0  0  0  0
   -9.2934    1.5378  -16.2885 N   0  0  0  0  0  0  0  0  0  0  0  0
   -8.8828    0.8924  -17.3266 C   0  0  0  0  0  0  0  0  0  0  0  0
   -7.4919    0.4710  -17.5377 C   0  0  0  0  0  0  0  0  0  0  0  0
   -6.5960    0.8633  -16.4319 C   0  0  0  0  0  0  0  0  0  0  0  0
   -5.3038    0.5373  -16.5075 N   0  0  0  0  0  0  0  0  0  0  0  0
   -4.4425    0.8637  -15.5394 C   0  0  0  0  0  0  0  0  0  0  0  0
   -3.0497    0.4615  -15.7214 C   0  0  0  0  0  0  0  0  0  0  0  0
   -2.0553    1.4108  -15.8293 C   0  0  0  0  0  0  0  0  0  0  0  0
   -0.7172    1.0382  -16.0059 C   0  0  0  0  0  0  0  0  0  0  0  0
   -2.6802   -0.8647  -15.7932 C   0  0  0  0  0  0  0  0  0  0  0  0
   -1.3588   -1.2165  -15.9672 C   0  0  0  0  0  0  0  0  0  0  0  0
   -0.3518   -0.2856  -16.0773 C   0  0  0  0  0  0  0  0  0  0  0  0
    1.0389   -0.7271  -16.2662 C   0  0  0  0  0  0  0  0  0  0  0  0
    1.9897   -0.0733  -15.4246 N   0  0  1  0  0  4  0  0  0  0  0  0
    2.3985   -0.7965  -14.2622 C   0  0  0  0  0  0  0  0  0  0  0  0
    3.5960   -1.6871  -14.4608 C   0  0  0  0  0  0  0  0  0  0  0  0
    3.1038    0.3495  -16.2483 C   0  0  0  0  0  0  0  0  0  0  0  0
    4.3835    0.4630  -15.4552 C   0  0  0  0  0  0  0  0  0  0  0  0
    4.7917   -0.9534  -15.0214 C   0  0  1  0  0  0  0  0  0  0  0  0
    5.8580   -0.7775  -14.0644 N   0  0  0  0  0  0  0  0  0  0  0  0
    7.1340   -0.3996  -14.4980 C   0  0  0  0  0  0  0  0  0  0  0  0
    7.5778   -0.9057  -15.5587 O   0  0  0  0  0  0  0  0  0  0  0  0
    7.9790    0.5494  -13.7885 C   0  0  0  0  0  0  0  0  0  0  0  0
    7.5807    1.0883  -12.5842 C   0  0  0  0  0  0  0  0  0  0  0  0
    9.2101    0.9609  -14.2682 C   0  0  0  0  0  0  0  0  0  0  0  0
    9.9909    1.8706  -13.5595 C   0  0  0  0  0  0  0  0  0  0  0  0
    9.5311    2.3782  -12.3482 C   0  0  0  0  0  0  0  0  0  0  0  0
    8.3111    1.9898  -11.8426 C   0  0  0  0  0  0  0  0  0  0  0  0
    7.8551    2.5171  -10.6032 N   0  0  0  0  0  0  0  0  0  0  0  0
    7.6594    1.6942   -9.4692 C   0  0  0  0  0  0  0  0  0  0  0  0
    7.4526    0.4660   -9.6913 O   0  0  0  0  0  0  0  0  0  0  0  0
    7.6955    2.2483   -8.0736 C   0  0  0  0  0  0  0  0  0  0  0  0
    6.6543    1.6171   -7.2111 C   0  0  0  0  0  0  0  0  0  0  0  0
  1  2  2  0
  1  6  1  0
  2  3  1  0
  3  4  2  0
  4  5  1  0
  5  6  2  0
  6  7  1  0
  7  8  2  0
  7 17  1  0
  8  9  1  0
  9 10  1  0
  9 15  2  0
 10 11  2  0
 10 12  1  0
 12 13  2  0
 14 13  1  1
 14 15  1  0
 15 16  1  0
 16 17  2  0
 17 18  1  0
 18 19  2  0
 18 21  1  0
 19 20  1  0
 20 23  2  0
 21 22  2  0
 22 23  1  0
 24 23  1  1
 25 24  1  6
 25 26  1  0
 25 28  1  0
 26 27  1  6
 27 30  1  6
 28 29  1  6
 29 30  1  6
 30 31  1  1
 31 32  1  0
 32 33  2  0
 32 34  1  0
 34 35  2  0
 34 36  1  0
 35 39  1  0
 36 37  2  0
 37 38  1  0
 38 39  2  0
 39 40  1  0
 40 41  1  0
 41 42  2  0
 43 41  1  1
 44 43  1  6
M  CHG  1  25   1
M  END
$$$$
