
     RDKit          3D

 44 49  0  0  0  0  0  0  0  0999 V2000
    2.9734    0.7732  -14.0991 C   0  0  0  0  0  0  0  0  0  0  0  0
    3.5079    0.9064  -12.8290 C   0  0  0  0  0  0  0  0  0  0  0  0
    3.0433    0.1403  -11.7813 C   0  0  0  0  0  0  0  0  0  0  0  0
    2.0309   -0.7650  -12.0267 C   0  0  0  0  0  0  0  0  0  0  0  0
    1.5068   -0.8914  -13.2855 C   0  0  0  0  0  0  0  0  0  0  0  0
    1.9687   -0.1324  -14.3187 C   0  0  0  0  0  0  0  0  0  0  0  0
    1.3904   -0.2941  -15.6337 C   0  0  0  0  0  0  0  0  0  0  0  0
    2.1569   -0.7389  -16.7083 C   0  0  0  0  0  0  0  0  0  0  0  0
    1.5528   -0.8722  -17.9361 C   0  0  0  0  0  0  0  0  0  0  0  0
    2.3087   -1.3328  -19.0892 C   0  0  0  0  0  0  0  0  0  0  0  0
    3.5405   -1.6212  -18.9874 O   0  0  0  0  0  0  0  0  0  0  0  0
    1.6414   -1.4505  -20.3189 N   0  0  0  0  0  0  0  0  0  0  0  0
    0.4186   -1.1810  -20.4921 C   0  0  0  0  0  0  0  0  0  0  0  0
   -0.4570   -0.7088  -19.4186 C   0  0  0  0  0  0  0  0  0  0  0  0
    0.2248   -0.5788  -18.1211 C   0  0  0  0  0  0  0  0  0  0  0  0
   -0.4931   -0.1433  -17.0341 N   0  0  0  0  0  0  0  0  0  0  0  0
    0.0582    0.0002  -15.8193 C   0  0  0  0  0  0  0  0  0  0  0  0
   -0.6972    0.4607  -14.6602 C   0  0  0  0  0  0  0  0  0  0  0  0
   -1.9481    0.0002  -14.3464 C   0  0  0  0  0  0  0  0  0  0  0  0
   -2.5775    0.5027  -13.2287 C   0  0  0  0  0  0  0  0  0  0  0  0
   -0.1127    1.4096  -13.8468 C   0  0  0  0  0  0  0  0  0  0  0  0
   -0.7582    1.9162  -12.7115 C   0  0  0  0  0  0  0  0  0  0  0  0
   -2.0163    1.4573  -12.3914 C   0  0  0  0  0  0  0  0  0  0  0  0
   -2.7346    1.9620  -11.1970 C   0  0  0  0  0  0  0  0  0  0  0  0
   -3.2544    3.2894  -11.3282 N   0  0  1  0  0  4  0  0  0  0  0  0
   -4.1385    3.5166  -10.1747 C   0  0  0  0  0  0  0  0  0  0  0  0
   -3.2725    4.1310   -9.0997 C   0  0  0  0  0  0  0  0  0  0  0  0
   -2.2890    4.3312  -11.4630 C   0  0  0  0  0  0  0  0  0  0  0  0
   -2.7814    5.6623  -10.9329 C   0  0  0  0  0  0  0  0  0  0  0  0
   -3.0773    5.5836   -9.4435 C   0  0  1  0  0  0  0  0  0  0  0  0
   -4.3135    6.3674   -9.2542 N   0  0  0  0  0  0  0  0  0  0  0  0
   -4.3421    7.2528   -8.1527 C   0  0  0  0  0  0  0  0  0  0  0  0
   -3.6283    7.0122   -7.1466 O   0  0  0  0  0  0  0  0  0  0  0  0
   -5.2028    8.4405   -8.1960 C   0  0  0  0  0  0  0  0  0  0  0  0
   -6.5132    8.3338   -8.6580 C   0  0  0  0  0  0  0  0  0  0  0  0
   -4.7805    9.6840   -7.7962 C   0  0  0  0  0  0  0  0  0  0  0  0
   -5.6540   10.7770   -7.8625 C   0  0  0  0  0  0  0  0  0  0  0  0
   -6.9400   10.6174   -8.3273 C   0  0  0  0  0  0  0  0  0  0  0  0
   -7.3938    9.3851   -8.7353 C   0  0  0  0  0  0  0  0  0  0  0  0
   -8.7196    9.2046   -9.2166 N   0  0  0  0  0  0  0  0  0  0  0  0
   -8.9452    8.5642  -10.4587 C   0  0  0  0  0  0  0  0  0  0  0  0
   -7.9484    8.1122  -11.0780 O   0  0  0  0  0  0  0  0  0  0  0  0
  -10.3425    8.4674  -10.9499 C   0  0  0  0  0  0  0  0  0  0  0  0
  -10.5943    7.0223  -11.3283 C   0  0  0  0  0  0  0  0  0  0  0  0
  1  2  2  0
  1  6  1  0
  2  3  1  0
  3  4  2  0
  4  5  1  0
  5  6  2  0
  6  7  1  0
  7  8  2  0
  7 17  1  0
  8  9  1  0
  9 10  1  0
  9 15  2  0
 10 11  2  0
 10 12  1  0
 12 13  2  0
 13 14  1  0
 14 15  1  0
 15 16  1  0
 16 17  2  0
 17 18  1  0
 18 19  2  0
 18 21  1  0
 19 20  1  0
 20 23  2  0
 21 22  2  0
 22 23  1  0
 23 24  1  0
 25 24  1  1
 25 26  1  0
 25 28  1  0
 26 27  1  0
 27 30  1  0
 28 29  1  0
 29 30  1  0
 30 31  1  6
 31 32  1  0
 32 33  2  0
 32 34  1  0
 34 35  2  0
 34 36  1  0
 35 39  1  0
 36 37  2  0
 37 38  1  0
 38 39  2  0
 39 40  1  0
 40 41  1  0
 41 42  2  0
 41 43  1  0
 43 44  1  0
M  CHG  1  25   1
M  END
$$$$
