
     RDKit          3D

 44 49  0  0  0  0  0  0  0  0999 V2000
   -7.0066    2.9400  -17.1674 C   0  0  0  0  0  0  0  0  0  0  0  0
   -6.4973    4.2269  -17.1302 C   0  0  0  0  0  0  0  0  0  0  0  0
   -5.1915    4.4823  -17.4910 C   0  0  0  0  0  0  0  0  0  0  0  0
   -4.4007    3.4245  -17.8913 C   0  0  0  0  0  0  0  0  0  0  0  0
   -4.9110    2.1542  -17.9258 C   0  0  0  0  0  0  0  0  0  0  0  0
   -6.2023    1.9056  -17.5683 C   0  0  0  0  0  0  0  0  0  0  0  0
   -6.7053    0.5512  -17.6174 C   0  0  0  0  0  0  0  0  0  0  0  0
   -7.7066    0.1864  -18.5144 C   0  0  0  0  0  0  0  0  0  0  0  0
   -8.1463   -1.1162  -18.5146 C   0  0  0  0  0  0  0  0  0  0  0  0
   -9.1891   -1.5476  -19.4310 C   0  0  0  0  0  0  0  0  0  0  0  0
   -9.7149   -0.7322  -20.2493 O   0  0  0  0  0  0  0  0  0  0  0  0
   -9.5999   -2.8895  -19.3880 N   0  0  0  0  0  0  0  0  0  0  0  0
   -9.1206   -3.7542  -18.6004 C   0  0  0  0  0  0  0  0  0  0  0  0
   -8.0680   -3.4555  -17.6282 C   0  0  0  0  0  0  0  0  0  0  0  0
   -7.6240   -2.0530  -17.6580 C   0  0  0  0  0  0  0  0  0  0  0  0
   -6.6386   -1.6495  -16.7904 N   0  0  0  0  0  0  0  0  0  0  0  0
   -6.1814   -0.3885  -16.7582 C   0  0  0  0  0  0  0  0  0  0  0  0
   -5.1348    0.0474  -15.8413 C   0  0  0  0  0  0  0  0  0  0  0  0
   -5.3042    1.0572  -14.9319 C   0  0  0  0  0  0  0  0  0  0  0  0
   -4.2495    1.3936  -14.1119 C   0  0  0  0  0  0  0  0  0  0  0  0
   -3.9159   -0.5961  -15.9034 C   0  0  0  0  0  0  0  0  0  0  0  0
   -2.8476   -0.2492  -15.0664 C   0  0  0  0  0  0  0  0  0  0  0  0
   -3.0120    0.7656  -14.1505 C   0  0  0  0  0  0  0  0  0  0  0  0
   -1.9103    1.1630  -13.2418 C   0  0  0  0  0  0  0  0  0  0  0  0
   -0.5965    0.8799  -13.7351 N   0  0  1  0  0  4  0  0  0  0  0  0
    0.2334    2.0572  -13.4365 C   0  0  0  0  0  0  0  0  0  0  0  0
    0.8558    1.7970  -12.0845 C   0  0  0  0  0  0  0  0  0  0  0  0
    0.0071   -0.3222  -13.2596 C   0  0  0  0  0  0  0  0  0  0  0  0
    1.5201   -0.2501  -13.2312 C   0  0  0  0  0  0  0  0  0  0  0  0
    1.9992    0.8382  -12.2835 C   0  0  1  0  0  0  0  0  0  0  0  0
    3.1400    1.4736  -12.9715 N   0  0  0  0  0  0  0  0  0  0  0  0
    4.2729    1.7722  -12.1807 C   0  0  0  0  0  0  0  0  0  0  0  0
    4.1348    1.9505  -10.9442 O   0  0  0  0  0  0  0  0  0  0  0  0
    5.5946    1.8703  -12.8104 C   0  0  0  0  0  0  0  0  0  0  0  0
    6.7259    2.0812  -12.0247 C   0  0  0  0  0  0  0  0  0  0  0  0
    5.7862    1.7625  -14.1655 C   0  0  0  0  0  0  0  0  0  0  0  0
    7.0759    1.8649  -14.7025 C   0  0  0  0  0  0  0  0  0  0  0  0
    8.1609    2.0737  -13.8813 C   0  0  0  0  0  0  0  0  0  0  0  0
    8.0028    2.1861  -12.5199 C   0  0  0  0  0  0  0  0  0  0  0  0
    9.1140    2.4007  -11.6590 N   0  0  0  0  0  0  0  0  0  0  0  0
    9.2110    1.6992  -10.4333 C   0  0  0  0  0  0  0  0  0  0  0  0
    8.3147    0.8598  -10.1625 O   0  0  0  0  0  0  0  0  0  0  0  0
   10.3635    1.9990   -9.5473 C   0  0  0  0  0  0  0  0  0  0  0  0
   11.0321    0.6830   -9.2068 C   0  0  0  0  0  0  0  0  0  0  0  0
  1  2  2  0
  1  6  1  0
  2  3  1  0
  3  4  2  0
  4  5  1  0
  5  6  2  0
  6  7  1  0
  7  8  2  0
  7 17  1  0
  8  9  1  0
  9 10  1  0
  9 15  2  0
 10 11  2  0
 10 12  1  0
 12 13  2  0
 13 14  1  0
 14 15  1  0
 15 16  1  0
 16 17  2  0
 17 18  1  0
 18 19  2  0
 18 21  1  0
 19 20  1  0
 20 23  2  0
 21 22  2  0
 22 23  1  0
 23 24  1  0
 25 24  1  1
 25 26  1  0
 25 28  1  0
 26 27  1  0
 27 30  1  0
 28 29  1  0
 29 30  1  0
 30 31  1  6
 31 32  1  0
 32 33  2  0
 32 34  1  0
 34 35  2  0
 34 36  1  0
 35 39  1  0
 36 37  2  0
 37 38  1  0
 38 39  2  0
 39 40  1  0
 40 41  1  0
 41 42  2  0
 41 43  1  0
 43 44  1  0
M  CHG  1  25   1
M  END
$$$$
