
     RDKit          3D

 44 49  0  0  0  0  0  0  0  0999 V2000
   -1.5339    2.0274  -15.4383 C   0  0  0  0  0  0  0  0  0  0  0  0
   -0.1793    1.7644  -15.2740 C   0  0  0  0  0  0  0  0  0  0  0  0
    0.2351    0.5176  -14.8708 C   0  0  0  0  0  0  0  0  0  0  0  0
   -0.7077   -0.4596  -14.6341 C   0  0  0  0  0  0  0  0  0  0  0  0
   -2.0692   -0.1807  -14.8037 C   0  0  0  0  0  0  0  0  0  0  0  0
   -2.4933    1.0672  -15.2078 C   0  0  0  0  0  0  0  0  0  0  0  0
   -3.9136    1.3644  -15.3876 C   0  0  0  0  0  0  0  0  0  0  0  0
   -4.6201    0.9261  -16.4878 C   0  0  0  0  0  0  0  0  0  0  0  0
   -5.9465    1.2380  -16.5994 C   0  0  0  0  0  0  0  0  0  0  0  0
   -6.7292    0.7924  -17.7480 C   0  0  0  0  0  0  0  0  0  0  0  0
   -6.1173    0.1146  -18.6155 O   0  0  0  0  0  0  0  0  0  0  0  0
   -8.0946    1.1256  -17.8410 N   0  0  0  0  0  0  0  0  0  0  0  0
   -8.6954    1.8218  -16.9370 C   0  0  0  0  0  0  0  0  0  0  0  0
   -8.0431    2.3400  -15.7277 C   0  0  0  0  0  0  0  0  0  0  0  0
   -6.6133    1.9819  -15.6448 C   0  0  0  0  0  0  0  0  0  0  0  0
   -5.9093    2.3952  -14.5887 N   0  0  0  0  0  0  0  0  0  0  0  0
   -4.6119    2.1039  -14.4557 C   0  0  0  0  0  0  0  0  0  0  0  0
   -3.9347    2.6025  -13.2609 C   0  0  0  0  0  0  0  0  0  0  0  0
   -3.1239    3.7159  -13.3291 C   0  0  0  0  0  0  0  0  0  0  0  0
   -2.4679    4.2024  -12.1917 C   0  0  0  0  0  0  0  0  0  0  0  0
   -4.0763    1.9868  -12.0356 C   0  0  0  0  0  0  0  0  0  0  0  0
   -3.4243    2.4772  -10.9245 C   0  0  0  0  0  0  0  0  0  0  0  0
   -2.6111    3.5859  -10.9709 C   0  0  0  0  0  0  0  0  0  0  0  0
   -1.9400    4.0559   -9.7488 C   0  0  0  0  0  0  0  0  0  0  0  0
   -0.9262    3.1806   -9.2532 N   0  0  1  0  0  4  0  0  0  0  0  0
    0.4203    3.5416   -9.5658 C   0  0  0  0  0  0  0  0  0  0  0  0
    1.0848    4.4385   -8.5556 C   0  0  0  0  0  0  0  0  0  0  0  0
   -1.1468    2.9950   -7.8335 C   0  0  0  0  0  0  0  0  0  0  0  0
    0.1281    2.6479   -7.1029 C   0  0  0  0  0  0  0  0  0  0  0  0
    1.0454    3.8796   -7.1526 C   0  0  1  0  0  0  0  0  0  0  0  0
    2.3319    3.4288   -6.6777 N   0  0  0  0  0  0  0  0  0  0  0  0
    3.4680    3.5793   -7.4810 C   0  0  0  0  0  0  0  0  0  0  0  0
    3.3365    4.1279   -8.6036 O   0  0  0  0  0  0  0  0  0  0  0  0
    4.7977    3.1358   -7.0894 C   0  0  0  0  0  0  0  0  0  0  0  0
    5.6793    2.6344   -8.0227 C   0  0  0  0  0  0  0  0  0  0  0  0
    5.2510    3.1895   -5.7830 C   0  0  0  0  0  0  0  0  0  0  0  0
    6.5312    2.7561   -5.4474 C   0  0  0  0  0  0  0  0  0  0  0  0
    7.3737    2.2598   -6.4375 C   0  0  0  0  0  0  0  0  0  0  0  0
    6.9541    2.1927   -7.7469 C   0  0  0  0  0  0  0  0  0  0  0  0
    7.8267    1.6834   -8.7475 N   0  0  0  0  0  0  0  0  0  0  0  0
    7.5718    1.8722  -10.1262 C   0  0  0  0  0  0  0  0  0  0  0  0
    6.7456    2.7814  -10.4287 O   0  0  0  0  0  0  0  0  0  0  0  0
    8.2463    1.0378  -11.1773 C   0  0  0  0  0  0  0  0  0  0  0  0
    9.0759    1.8785  -12.0890 C   0  0  0  0  0  0  0  0  0  0  0  0
  1  2  2  0
  1  6  1  0
  2  3  1  0
  3  4  2  0
  4  5  1  0
  5  6  2  0
  6  7  1  0
  7  8  2  0
  7 17  1  0
  8  9  1  0
  9 10  1  0
  9 15  2  0
 10 11  2  0
 10 12  1  0
 12 13  2  0
 14 13  1  1
 14 15  1  0
 15 16  1  0
 16 17  2  0
 17 18  1  0
 18 19  2  0
 18 21  1  0
 19 20  1  0
 20 23  2  0
 21 22  2  0
 22 23  1  0
 24 23  1  1
 25 24  1  1
 25 26  1  0
 25 28  1  0
 26 27  1  6
 27 30  1  6
 28 29  1  6
 29 30  1  6
 30 31  1  6
 31 32  1  0
 32 33  2  0
 32 34  1  0
 34 35  2  0
 34 36  1  0
 35 39  1  0
 36 37  2  0
 37 38  1  0
 38 39  2  0
 39 40  1  0
 40 41  1  0
 41 42  2  0
 43 41  1  1
 44 43  1  6
M  CHG  1  25   1
M  END
$$$$
