
     RDKit          3D

 44 49  0  0  0  0  0  0  0  0999 V2000
   -5.9290    2.4926  -16.0506 C   0  0  0  0  0  0  0  0  0  0  0  0
   -7.2711    2.5948  -15.7046 C   0  0  0  0  0  0  0  0  0  0  0  0
   -8.0299    1.4593  -15.5506 C   0  0  0  0  0  0  0  0  0  0  0  0
   -7.4422    0.2275  -15.7434 C   0  0  0  0  0  0  0  0  0  0  0  0
   -6.0890    0.1393  -16.0918 C   0  0  0  0  0  0  0  0  0  0  0  0
   -5.3209    1.2733  -16.2482 C   0  0  0  0  0  0  0  0  0  0  0  0
   -3.9069    1.1878  -16.6110 C   0  0  0  0  0  0  0  0  0  0  0  0
   -3.4898    0.6493  -17.8100 C   0  0  0  0  0  0  0  0  0  0  0  0
   -2.1528    0.5960  -18.0907 C   0  0  0  0  0  0  0  0  0  0  0  0
   -1.6710    0.0343  -19.3488 C   0  0  0  0  0  0  0  0  0  0  0  0
   -2.5482   -0.3916  -20.1460 O   0  0  0  0  0  0  0  0  0  0  0  0
   -0.2887   -0.0095  -19.6163 N   0  0  0  0  0  0  0  0  0  0  0  0
    0.5875    0.4342  -18.7807 C   0  0  0  0  0  0  0  0  0  0  0  0
    0.2575    1.0256  -17.4776 C   0  0  0  0  0  0  0  0  0  0  0  0
   -1.1943    1.0647  -17.2127 C   0  0  0  0  0  0  0  0  0  0  0  0
   -1.6215    1.5817  -16.0586 N   0  0  0  0  0  0  0  0  0  0  0  0
   -2.9225    1.6455  -15.7600 C   0  0  0  0  0  0  0  0  0  0  0  0
   -3.2838    2.2321  -14.4716 C   0  0  0  0  0  0  0  0  0  0  0  0
   -4.1226    1.5605  -13.6071 C   0  0  0  0  0  0  0  0  0  0  0  0
   -4.4778    2.1128  -12.3705 C   0  0  0  0  0  0  0  0  0  0  0  0
   -2.8084    3.4641  -14.0756 C   0  0  0  0  0  0  0  0  0  0  0  0
   -3.1668    3.9952  -12.8551 C   0  0  0  0  0  0  0  0  0  0  0  0
   -4.0020    3.3420  -11.9785 C   0  0  0  0  0  0  0  0  0  0  0  0
   -4.3494    3.9660  -10.6921 C   0  0  0  0  0  0  0  0  0  0  0  0
   -3.2358    4.2206   -9.8350 N   0  0  1  0  0  4  0  0  0  0  0  0
   -3.3410    5.3734   -8.9975 C   0  0  0  0  0  0  0  0  0  0  0  0
   -3.9692    5.1222   -7.6527 C   0  0  0  0  0  0  0  0  0  0  0  0
   -2.9514    3.0082   -9.0949 C   0  0  0  0  0  0  0  0  0  0  0  0
   -2.2726    3.2952   -7.7770 C   0  0  0  0  0  0  0  0  0  0  0  0
   -3.2859    4.0201   -6.8777 C   0  0  1  0  0  0  0  0  0  0  0  0
   -2.5309    4.4982   -5.7440 N   0  0  0  0  0  0  0  0  0  0  0  0
   -2.2492    5.8630   -5.6143 C   0  0  0  0  0  0  0  0  0  0  0  0
   -3.1729    6.6861   -5.8322 O   0  0  0  0  0  0  0  0  0  0  0  0
   -0.9435    6.3853   -5.2398 C   0  0  0  0  0  0  0  0  0  0  0  0
    0.1950    5.6253   -5.4008 C   0  0  0  0  0  0  0  0  0  0  0  0
   -0.7667    7.6517   -4.7105 C   0  0  0  0  0  0  0  0  0  0  0  0
    0.4998    8.1166   -4.3650 C   0  0  0  0  0  0  0  0  0  0  0  0
    1.6101    7.2991   -4.5525 C   0  0  0  0  0  0  0  0  0  0  0  0
    1.4694    6.0341   -5.0767 C   0  0  0  0  0  0  0  0  0  0  0  0
    2.6137    5.2106   -5.2628 N   0  0  0  0  0  0  0  0  0  0  0  0
    2.8192    4.4773   -6.4549 C   0  0  0  0  0  0  0  0  0  0  0  0
    1.9525    4.6237   -7.3649 O   0  0  0  0  0  0  0  0  0  0  0  0
    4.0045    3.5720   -6.6329 C   0  0  0  0  0  0  0  0  0  0  0  0
    3.9974    2.9252   -7.9775 C   0  0  0  0  0  0  0  0  0  0  0  0
  1  2  2  0
  1  6  1  0
  2  3  1  0
  3  4  2  0
  4  5  1  0
  5  6  2  0
  6  7  1  0
  7  8  2  0
  7 17  1  0
  8  9  1  0
  9 10  1  0
  9 15  2  0
 10 11  2  0
 10 12  1  0
 12 13  2  0
 14 13  1  1
 14 15  1  0
 15 16  1  0
 16 17  2  0
 17 18  1  0
 18 19  2  0
 18 21  1  0
 19 20  1  0
 20 23  2  0
 21 22  2  0
 22 23  1  0
 24 23  1  1
 25 24  1  1
 25 26  1  0
 25 28  1  0
 26 27  1  6
 27 30  1  6
 28 29  1  6
 29 30  1  6
 30 31  1  1
 31 32  1  0
 32 33  2  0
 32 34  1  0
 34 35  2  0
 34 36  1  0
 35 39  1  0
 36 37  2  0
 37 38  1  0
 38 39  2  0
 39 40  1  0
 40 41  1  0
 41 42  2  0
 43 41  1  1
 44 43  1  6
M  CHG  1  25   1
M  END
$$$$
