
     RDKit          3D

 44 49  0  0  0  0  0  0  0  0999 V2000
   -4.0703    2.9876  -12.3782 C   0  0  0  0  0  0  0  0  0  0  0  0
   -3.7079    3.1116  -11.0478 C   0  0  0  0  0  0  0  0  0  0  0  0
   -4.3422    2.3757  -10.0696 C   0  0  0  0  0  0  0  0  0  0  0  0
   -5.3489    1.5102  -10.4464 C   0  0  0  0  0  0  0  0  0  0  0  0
   -5.7021    1.3926  -11.7642 C   0  0  0  0  0  0  0  0  0  0  0  0
   -5.0729    2.1217  -12.7283 C   0  0  0  0  0  0  0  0  0  0  0  0
   -5.4737    1.9705  -14.1090 C   0  0  0  0  0  0  0  0  0  0  0  0
   -6.7914    2.1879  -14.5048 C   0  0  0  0  0  0  0  0  0  0  0  0
   -7.1141    2.0277  -15.8316 C   0  0  0  0  0  0  0  0  0  0  0  0
   -8.4749    2.2426  -16.2958 C   0  0  0  0  0  0  0  0  0  0  0  0
   -9.3926    2.5823  -15.4875 O   0  0  0  0  0  0  0  0  0  0  0  0
   -8.7484    2.0649  -17.6615 N   0  0  0  0  0  0  0  0  0  0  0  0
   -7.8847    1.7282  -18.5208 C   0  0  0  0  0  0  0  0  0  0  0  0
   -6.4805    1.4808  -18.1903 C   0  0  0  0  0  0  0  0  0  0  0  0
   -6.1741    1.6619  -16.7626 C   0  0  0  0  0  0  0  0  0  0  0  0
   -4.8872    1.4578  -16.3282 N   0  0  0  0  0  0  0  0  0  0  0  0
   -4.5308    1.6037  -15.0428 C   0  0  0  0  0  0  0  0  0  0  0  0
   -3.1668    1.3902  -14.5739 C   0  0  0  0  0  0  0  0  0  0  0  0
   -2.1149    2.1914  -14.9303 C   0  0  0  0  0  0  0  0  0  0  0  0
   -0.8633    1.9013  -14.4329 C   0  0  0  0  0  0  0  0  0  0  0  0
   -2.9359    0.3230  -13.7305 C   0  0  0  0  0  0  0  0  0  0  0  0
   -1.6607    0.0337  -13.2281 C   0  0  0  0  0  0  0  0  0  0  0  0
   -0.5993    0.8355  -13.5834 C   0  0  0  0  0  0  0  0  0  0  0  0
    0.7664    0.5694  -13.0719 C   0  0  0  0  0  0  0  0  0  0  0  0
    1.7104    0.1653  -14.0693 N   0  0  1  0  0  4  0  0  0  0  0  0
    2.9871    0.8154  -13.7358 C   0  0  0  0  0  0  0  0  0  0  0  0
    3.7352   -0.1602  -12.8573 C   0  0  0  0  0  0  0  0  0  0  0  0
    1.8690   -1.2410  -14.2506 C   0  0  0  0  0  0  0  0  0  0  0  0
    3.2485   -1.6184  -14.7503 C   0  0  0  0  0  0  0  0  0  0  0  0
    4.3216   -1.2224  -13.7486 C   0  0  1  0  0  0  0  0  0  0  0  0
    5.4380   -0.7053  -14.5639 N   0  0  0  0  0  0  0  0  0  0  0  0
    6.5764   -1.5348  -14.6818 C   0  0  0  0  0  0  0  0  0  0  0  0
    6.6139   -2.6262  -14.0594 O   0  0  0  0  0  0  0  0  0  0  0  0
    7.6991   -1.1139  -15.5277 C   0  0  0  0  0  0  0  0  0  0  0  0
    7.4638   -0.3379  -16.6609 C   0  0  0  0  0  0  0  0  0  0  0  0
    9.0031   -1.4489  -15.2595 C   0  0  0  0  0  0  0  0  0  0  0  0
   10.0286   -1.0133  -16.1082 C   0  0  0  0  0  0  0  0  0  0  0  0
    9.7420   -0.2478  -17.2160 C   0  0  0  0  0  0  0  0  0  0  0  0
    8.4463    0.1048  -17.5126 C   0  0  0  0  0  0  0  0  0  0  0  0
    8.1349    0.8958  -18.6525 N   0  0  0  0  0  0  0  0  0  0  0  0
    7.4793    2.1408  -18.4976 C   0  0  0  0  0  0  0  0  0  0  0  0
    7.3845    2.6163  -17.3373 O   0  0  0  0  0  0  0  0  0  0  0  0
    6.9466    2.8045  -19.7136 C   0  0  0  0  0  0  0  0  0  0  0  0
    5.7315    3.6089  -19.2995 C   0  0  0  0  0  0  0  0  0  0  0  0
  1  2  2  0
  1  6  1  0
  2  3  1  0
  3  4  2  0
  4  5  1  0
  5  6  2  0
  6  7  1  0
  7  8  2  0
  7 17  1  0
  8  9  1  0
  9 10  1  0
  9 15  2  0
 10 11  2  0
 10 12  1  0
 12 13  2  0
 13 14  1  0
 14 15  1  0
 15 16  1  0
 16 17  2  0
 17 18  1  0
 18 19  2  0
 18 21  1  0
 19 20  1  0
 20 23  2  0
 21 22  2  0
 22 23  1  0
 23 24  1  0
 25 24  1  1
 25 26  1  0
 25 28  1  0
 26 27  1  0
 27 30  1  0
 28 29  1  0
 29 30  1  0
 30 31  1  6
 31 32  1  0
 32 33  2  0
 32 34  1  0
 34 35  2  0
 34 36  1  0
 35 39  1  0
 36 37  2  0
 37 38  1  0
 38 39  2  0
 39 40  1  0
 40 41  1  0
 41 42  2  0
 41 43  1  0
 43 44  1  0
M  CHG  1  25   1
M  END
$$$$
