
     RDKit          3D

 44 49  0  0  0  0  0  0  0  0999 V2000
   -0.3529   -2.4505  -14.7159 C   0  0  0  0  0  0  0  0  0  0  0  0
   -1.5505   -2.5890  -14.0355 C   0  0  0  0  0  0  0  0  0  0  0  0
   -2.6482   -1.8255  -14.3713 C   0  0  0  0  0  0  0  0  0  0  0  0
   -2.5269   -0.9174  -15.4035 C   0  0  0  0  0  0  0  0  0  0  0  0
   -1.3392   -0.7857  -16.0723 C   0  0  0  0  0  0  0  0  0  0  0  0
   -0.2564   -1.5422  -15.7374 C   0  0  0  0  0  0  0  0  0  0  0  0
    0.9807   -1.3747  -16.4664 C   0  0  0  0  0  0  0  0  0  0  0  0
    1.5837   -2.4477  -17.1186 C   0  0  0  0  0  0  0  0  0  0  0  0
    2.7605   -2.2285  -17.7950 C   0  0  0  0  0  0  0  0  0  0  0  0
    3.4295   -3.3148  -18.4919 C   0  0  0  0  0  0  0  0  0  0  0  0
    2.9424   -4.4868  -18.4910 O   0  0  0  0  0  0  0  0  0  0  0  0
    4.6286   -3.0345  -19.1663 N   0  0  0  0  0  0  0  0  0  0  0  0
    5.1696   -1.8929  -19.2087 C   0  0  0  0  0  0  0  0  0  0  0  0
    4.6034   -0.7137  -18.5520 C   0  0  0  0  0  0  0  0  0  0  0  0
    3.3456   -0.9876  -17.8392 C   0  0  0  0  0  0  0  0  0  0  0  0
    2.7167    0.0415  -17.1820 N   0  0  0  0  0  0  0  0  0  0  0  0
    1.5677   -0.1301  -16.5108 C   0  0  0  0  0  0  0  0  0  0  0  0
    0.8932    0.9574  -15.8117 C   0  0  0  0  0  0  0  0  0  0  0  0
    0.3539    2.0420  -16.4505 C   0  0  0  0  0  0  0  0  0  0  0  0
   -0.2609    3.0169  -15.6957 C   0  0  0  0  0  0  0  0  0  0  0  0
    0.8013    0.8796  -14.4373 C   0  0  0  0  0  0  0  0  0  0  0  0
    0.1745    1.8743  -13.6757 C   0  0  0  0  0  0  0  0  0  0  0  0
   -0.3690    2.9674  -14.3126 C   0  0  0  0  0  0  0  0  0  0  0  0
   -1.0456    4.0416  -13.5472 C   0  0  0  0  0  0  0  0  0  0  0  0
   -2.0166    3.5814  -12.6013 N   0  0  1  0  0  4  0  0  0  0  0  0
   -2.2705    4.6957  -11.6751 C   0  0  0  0  0  0  0  0  0  0  0  0
   -3.4333    5.4653  -12.2571 C   0  0  0  0  0  0  0  0  0  0  0  0
   -3.2297    3.0656  -13.1472 C   0  0  0  0  0  0  0  0  0  0  0  0
   -4.4124    3.2323  -12.2153 C   0  0  0  0  0  0  0  0  0  0  0  0
   -4.6918    4.7017  -11.9416 C   0  0  1  0  0  0  0  0  0  0  0  0
   -5.0338    4.7684  -10.5074 N   0  0  0  0  0  0  0  0  0  0  0  0
   -6.3394    4.3648  -10.1460 C   0  0  0  0  0  0  0  0  0  0  0  0
   -6.9197    3.4742  -10.8167 O   0  0  0  0  0  0  0  0  0  0  0  0
   -7.0013    4.9885   -8.9944 C   0  0  0  0  0  0  0  0  0  0  0  0
   -6.2646    5.7730   -8.1092 C   0  0  0  0  0  0  0  0  0  0  0  0
   -8.3406    4.8403   -8.7321 C   0  0  0  0  0  0  0  0  0  0  0  0
   -8.9103    5.4640   -7.6148 C   0  0  0  0  0  0  0  0  0  0  0  0
   -8.1374    6.2292   -6.7709 C   0  0  0  0  0  0  0  0  0  0  0  0
   -6.7929    6.3974   -7.0057 C   0  0  0  0  0  0  0  0  0  0  0  0
   -5.9819    7.1856   -6.1436 N   0  0  0  0  0  0  0  0  0  0  0  0
   -5.2330    8.2684   -6.6638 C   0  0  0  0  0  0  0  0  0  0  0  0
   -5.4661    8.6325   -7.8446 O   0  0  0  0  0  0  0  0  0  0  0  0
   -4.2217    8.9040   -5.7827 C   0  0  0  0  0  0  0  0  0  0  0  0
   -4.1413   10.3684   -6.1623 C   0  0  0  0  0  0  0  0  0  0  0  0
  1  2  2  0
  1  6  1  0
  2  3  1  0
  3  4  2  0
  4  5  1  0
  5  6  2  0
  6  7  1  0
  7  8  2  0
  7 17  1  0
  8  9  1  0
  9 10  1  0
  9 15  2  0
 10 11  2  0
 10 12  1  0
 12 13  2  0
 13 14  1  0
 14 15  1  0
 15 16  1  0
 16 17  2  0
 17 18  1  0
 18 19  2  0
 18 21  1  0
 19 20  1  0
 20 23  2  0
 21 22  2  0
 22 23  1  0
 23 24  1  0
 25 24  1  6
 25 26  1  0
 25 28  1  0
 26 27  1  0
 27 30  1  0
 28 29  1  0
 29 30  1  0
 30 31  1  1
 31 32  1  0
 32 33  2  0
 32 34  1  0
 34 35  2  0
 34 36  1  0
 35 39  1  0
 36 37  2  0
 37 38  1  0
 38 39  2  0
 39 40  1  0
 40 41  1  0
 41 42  2  0
 41 43  1  0
 43 44  1  0
M  CHG  1  25   1
M  END
$$$$
