
     RDKit          3D

 44 49  0  0  0  0  0  0  0  0999 V2000
    0.8913   -0.1575  -12.9552 C   0  0  0  0  0  0  0  0  0  0  0  0
    1.6213    0.3459  -11.8851 C   0  0  0  0  0  0  0  0  0  0  0  0
    1.8826    1.6927  -11.8039 C   0  0  0  0  0  0  0  0  0  0  0  0
    1.4123    2.5289  -12.7935 C   0  0  0  0  0  0  0  0  0  0  0  0
    0.6782    2.0082  -13.8659 C   0  0  0  0  0  0  0  0  0  0  0  0
    0.4117    0.6585  -13.9549 C   0  0  0  0  0  0  0  0  0  0  0  0
   -0.3552    0.1086  -15.0719 C   0  0  0  0  0  0  0  0  0  0  0  0
    0.2299   -0.6672  -16.0504 C   0  0  0  0  0  0  0  0  0  0  0  0
   -0.5407   -1.1513  -17.0707 C   0  0  0  0  0  0  0  0  0  0  0  0
    0.0406   -1.9765  -18.1250 C   0  0  0  0  0  0  0  0  0  0  0  0
    1.2751   -2.2107  -18.0384 O   0  0  0  0  0  0  0  0  0  0  0  0
   -0.7734   -2.4645  -19.1659 N   0  0  0  0  0  0  0  0  0  0  0  0
   -2.0356   -2.2083  -19.2292 C   0  0  0  0  0  0  0  0  0  0  0  0
   -2.7612   -1.3947  -18.2453 C   0  0  0  0  0  0  0  0  0  0  0  0
   -1.8948   -0.8916  -17.1611 C   0  0  0  0  0  0  0  0  0  0  0  0
   -2.4393   -0.1386  -16.2028 N   0  0  0  0  0  0  0  0  0  0  0  0
   -1.7083    0.3467  -15.1949 C   0  0  0  0  0  0  0  0  0  0  0  0
   -2.4021    1.1577  -14.1970 C   0  0  0  0  0  0  0  0  0  0  0  0
   -2.7629    0.6149  -12.9817 C   0  0  0  0  0  0  0  0  0  0  0  0
   -3.4298    1.3811  -12.0180 C   0  0  0  0  0  0  0  0  0  0  0  0
   -2.7207    2.4789  -14.4288 C   0  0  0  0  0  0  0  0  0  0  0  0
   -3.3774    3.2208  -13.4705 C   0  0  0  0  0  0  0  0  0  0  0  0
   -3.7463    2.6986  -12.2523 C   0  0  0  0  0  0  0  0  0  0  0  0
   -4.4494    3.5432  -11.2740 C   0  0  0  0  0  0  0  0  0  0  0  0
   -3.7447    3.7460  -10.0485 N   0  0  1  0  0  4  0  0  0  0  0  0
   -2.6175    4.6216  -10.1120 C   0  0  0  0  0  0  0  0  0  0  0  0
   -2.9288    6.0720   -9.8554 C   0  0  0  0  0  0  0  0  0  0  0  0
   -4.7054    4.1337   -9.0360 C   0  0  0  0  0  0  0  0  0  0  0  0
   -4.0714    4.9539   -7.9382 C   0  0  0  0  0  0  0  0  0  0  0  0
   -3.6470    6.2997   -8.5461 C   0  0  1  0  0  0  0  0  0  0  0  0
   -2.8273    6.9400   -7.5452 N   0  0  0  0  0  0  0  0  0  0  0  0
   -3.3884    7.3301   -6.3237 C   0  0  0  0  0  0  0  0  0  0  0  0
   -4.5674    7.7641   -6.3205 O   0  0  0  0  0  0  0  0  0  0  0  0
   -2.6827    7.2612   -5.0529 C   0  0  0  0  0  0  0  0  0  0  0  0
   -1.9073    6.1676   -4.7329 C   0  0  0  0  0  0  0  0  0  0  0  0
   -2.7438    8.2688   -4.1062 C   0  0  0  0  0  0  0  0  0  0  0  0
   -2.0531    8.1667   -2.9013 C   0  0  0  0  0  0  0  0  0  0  0  0
   -1.2869    7.0353   -2.6386 C   0  0  0  0  0  0  0  0  0  0  0  0
   -1.2045    6.0146   -3.5586 C   0  0  0  0  0  0  0  0  0  0  0  0
   -0.4171    4.8649   -3.2758 N   0  0  0  0  0  0  0  0  0  0  0  0
    0.6582    4.9044   -2.3573 C   0  0  0  0  0  0  0  0  0  0  0  0
    0.6530    5.8548   -1.5221 O   0  0  0  0  0  0  0  0  0  0  0  0
    1.7494    3.8725   -2.3713 C   0  0  0  0  0  0  0  0  0  0  0  0
    2.7028    4.0742   -1.2414 C   0  0  0  0  0  0  0  0  0  0  0  0
  1  2  2  0
  1  6  1  0
  2  3  1  0
  3  4  2  0
  4  5  1  0
  5  6  2  0
  6  7  1  0
  7  8  2  0
  7 17  1  0
  8  9  1  0
  9 10  1  0
  9 15  2  0
 10 11  2  0
 10 12  1  0
 12 13  2  0
 14 13  1  1
 14 15  1  0
 15 16  1  0
 16 17  2  0
 17 18  1  0
 18 19  2  0
 18 21  1  0
 19 20  1  0
 20 23  2  0
 21 22  2  0
 22 23  1  0
 24 23  1  1
 25 24  1  6
 25 26  1  0
 25 28  1  0
 26 27  1  6
 27 30  1  6
 28 29  1  6
 29 30  1  6
 30 31  1  1
 31 32  1  0
 32 33  2  0
 32 34  1  0
 34 35  2  0
 34 36  1  0
 35 39  1  0
 36 37  2  0
 37 38  1  0
 38 39  2  0
 39 40  1  0
 40 41  1  0
 41 42  2  0
 43 41  1  1
 44 43  1  6
M  CHG  1  25   1
M  END
$$$$
