
     RDKit          3D

 44 49  0  0  0  0  0  0  0  0999 V2000
   -5.4950    1.7040  -16.0060 C   0  0  0  0  0  0  0  0  0  0  0  0
   -6.8089    2.0808  -15.7860 C   0  0  0  0  0  0  0  0  0  0  0  0
   -7.4223    1.8371  -14.5757 C   0  0  0  0  0  0  0  0  0  0  0  0
   -6.6961    1.2076  -13.5852 C   0  0  0  0  0  0  0  0  0  0  0  0
   -5.3968    0.8378  -13.8096 C   0  0  0  0  0  0  0  0  0  0  0  0
   -4.7939    1.0803  -15.0074 C   0  0  0  0  0  0  0  0  0  0  0  0
   -3.4207    0.6750  -15.2071 C   0  0  0  0  0  0  0  0  0  0  0  0
   -3.0684   -0.1941  -16.2371 C   0  0  0  0  0  0  0  0  0  0  0  0
   -1.7466   -0.5455  -16.3774 C   0  0  0  0  0  0  0  0  0  0  0  0
   -1.3271   -1.4491  -17.4360 C   0  0  0  0  0  0  0  0  0  0  0  0
   -2.1707   -1.9322  -18.2521 O   0  0  0  0  0  0  0  0  0  0  0  0
    0.0353   -1.7741  -17.5329 N   0  0  0  0  0  0  0  0  0  0  0  0
    0.9283   -1.3306  -16.7560 C   0  0  0  0  0  0  0  0  0  0  0  0
    0.6446   -0.4148  -15.6501 C   0  0  0  0  0  0  0  0  0  0  0  0
   -0.7791   -0.0623  -15.5321 C   0  0  0  0  0  0  0  0  0  0  0  0
   -1.1713    0.7918  -14.5304 N   0  0  0  0  0  0  0  0  0  0  0  0
   -2.4502    1.1596  -14.3592 C   0  0  0  0  0  0  0  0  0  0  0  0
   -2.8744    2.0668  -13.2993 C   0  0  0  0  0  0  0  0  0  0  0  0
   -2.5663    1.8767  -11.9786 C   0  0  0  0  0  0  0  0  0  0  0  0
   -3.0185    2.7932  -11.0547 C   0  0  0  0  0  0  0  0  0  0  0  0
   -3.6251    3.1678  -13.6569 C   0  0  0  0  0  0  0  0  0  0  0  0
   -4.0815    4.0961  -12.7123 C   0  0  0  0  0  0  0  0  0  0  0  0
   -3.7752    3.9097  -11.3829 C   0  0  0  0  0  0  0  0  0  0  0  0
   -4.2333    4.8691  -10.3498 C   0  0  0  0  0  0  0  0  0  0  0  0
   -3.4475    4.8799   -9.1532 N   0  0  1  0  0  4  0  0  0  0  0  0
   -2.8389    6.2154   -9.0553 C   0  0  0  0  0  0  0  0  0  0  0  0
   -3.7997    7.0535   -8.2444 C   0  0  0  0  0  0  0  0  0  0  0  0
   -4.1291    4.5241   -7.9513 C   0  0  0  0  0  0  0  0  0  0  0  0
   -3.5272    5.1697   -6.7200 C   0  0  0  0  0  0  0  0  0  0  0  0
   -3.6183    6.6856   -6.7959 C   0  0  1  0  0  0  0  0  0  0  0  0
   -2.3347    7.1764   -6.2575 N   0  0  0  0  0  0  0  0  0  0  0  0
   -2.0007    6.7737   -4.9445 C   0  0  0  0  0  0  0  0  0  0  0  0
   -2.1209    5.5658   -4.6182 O   0  0  0  0  0  0  0  0  0  0  0  0
   -1.5181    7.7678   -3.9790 C   0  0  0  0  0  0  0  0  0  0  0  0
   -1.9175    9.0980   -4.0915 C   0  0  0  0  0  0  0  0  0  0  0  0
   -0.6738    7.4543   -2.9429 C   0  0  0  0  0  0  0  0  0  0  0  0
   -0.2510    8.4521   -2.0554 C   0  0  0  0  0  0  0  0  0  0  0  0
   -0.6754    9.7524   -2.2112 C   0  0  0  0  0  0  0  0  0  0  0  0
   -1.5212   10.0991   -3.2385 C   0  0  0  0  0  0  0  0  0  0  0  0
   -1.9689   11.4377   -3.4115 N   0  0  0  0  0  0  0  0  0  0  0  0
   -2.0242   12.0083   -4.7058 C   0  0  0  0  0  0  0  0  0  0  0  0
   -1.7681   11.2662   -5.6881 O   0  0  0  0  0  0  0  0  0  0  0  0
   -2.3808   13.4445   -4.8201 C   0  0  0  0  0  0  0  0  0  0  0  0
   -3.6722   13.5330   -5.6071 C   0  0  0  0  0  0  0  0  0  0  0  0
  1  2  2  0
  1  6  1  0
  2  3  1  0
  3  4  2  0
  4  5  1  0
  5  6  2  0
  6  7  1  0
  7  8  2  0
  7 17  1  0
  8  9  1  0
  9 10  1  0
  9 15  2  0
 10 11  2  0
 10 12  1  0
 12 13  2  0
 13 14  1  0
 14 15  1  0
 15 16  1  0
 16 17  2  0
 17 18  1  0
 18 19  2  0
 18 21  1  0
 19 20  1  0
 20 23  2  0
 21 22  2  0
 22 23  1  0
 23 24  1  0
 25 24  1  6
 25 26  1  0
 25 28  1  0
 26 27  1  0
 27 30  1  0
 28 29  1  0
 29 30  1  0
 30 31  1  6
 31 32  1  0
 32 33  2  0
 32 34  1  0
 34 35  2  0
 34 36  1  0
 35 39  1  0
 36 37  2  0
 37 38  1  0
 38 39  2  0
 39 40  1  0
 40 41  1  0
 41 42  2  0
 41 43  1  0
 43 44  1  0
M  CHG  1  25   1
M  END
$$$$
