
     RDKit          3D

 44 49  0  0  0  0  0  0  0  0999 V2000
   -5.0231    0.8882  -18.0842 C   0  0  0  0  0  0  0  0  0  0  0  0
   -6.1939    1.3563  -17.4998 C   0  0  0  0  0  0  0  0  0  0  0  0
   -6.1587    1.9233  -16.2485 C   0  0  0  0  0  0  0  0  0  0  0  0
   -4.9527    2.0191  -15.5881 C   0  0  0  0  0  0  0  0  0  0  0  0
   -3.7809    1.5434  -16.1887 C   0  0  0  0  0  0  0  0  0  0  0  0
   -3.8074    0.9733  -17.4436 C   0  0  0  0  0  0  0  0  0  0  0  0
   -2.5869    0.4754  -18.0767 C   0  0  0  0  0  0  0  0  0  0  0  0
   -2.4556    0.3883  -19.4466 C   0  0  0  0  0  0  0  0  0  0  0  0
   -1.2893   -0.0872  -19.9784 C   0  0  0  0  0  0  0  0  0  0  0  0
   -1.1108   -0.1942  -21.4231 C   0  0  0  0  0  0  0  0  0  0  0  0
   -2.0814    0.1720  -22.1374 O   0  0  0  0  0  0  0  0  0  0  0  0
    0.1001   -0.6866  -21.9479 N   0  0  0  0  0  0  0  0  0  0  0  0
    1.0777   -1.0548  -21.1918 C   0  0  0  0  0  0  0  0  0  0  0  0
    1.0475   -1.0063  -19.7244 C   0  0  0  0  0  0  0  0  0  0  0  0
   -0.2273   -0.4876  -19.1903 C   0  0  0  0  0  0  0  0  0  0  0  0
   -0.3771   -0.3943  -17.8672 N   0  0  0  0  0  0  0  0  0  0  0  0
   -1.5067    0.0671  -17.3223 C   0  0  0  0  0  0  0  0  0  0  0  0
   -1.5668    0.1310  -15.8638 C   0  0  0  0  0  0  0  0  0  0  0  0
   -2.3885   -0.7233  -15.1589 C   0  0  0  0  0  0  0  0  0  0  0  0
   -2.4565   -0.6707  -13.7614 C   0  0  0  0  0  0  0  0  0  0  0  0
   -0.8162    1.0366  -15.1449 C   0  0  0  0  0  0  0  0  0  0  0  0
   -0.8934    1.0768  -13.7693 C   0  0  0  0  0  0  0  0  0  0  0  0
   -1.7065    0.2340  -13.0472 C   0  0  0  0  0  0  0  0  0  0  0  0
   -1.7463    0.3311  -11.5796 C   0  0  0  0  0  0  0  0  0  0  0  0
   -2.0009    1.6435  -11.0774 N   0  0  1  0  0  4  0  0  0  0  0  0
   -2.9095    1.7279   -9.9781 C   0  0  0  0  0  0  0  0  0  0  0  0
   -2.2686    1.6288   -8.6195 C   0  0  0  0  0  0  0  0  0  0  0  0
   -0.7264    2.2769  -10.8074 C   0  0  0  0  0  0  0  0  0  0  0  0
   -0.8368    3.3393   -9.7402 C   0  0  0  0  0  0  0  0  0  0  0  0
   -1.1623    2.6366   -8.4131 C   0  0  1  0  0  0  0  0  0  0  0  0
   -1.5093    3.6890   -7.4880 N   0  0  0  0  0  0  0  0  0  0  0  0
   -1.2655    5.0258   -7.8231 C   0  0  0  0  0  0  0  0  0  0  0  0
   -0.1444    5.3252   -8.3046 O   0  0  0  0  0  0  0  0  0  0  0  0
   -2.2393    6.0927   -7.6457 C   0  0  0  0  0  0  0  0  0  0  0  0
   -2.0143    7.1133   -6.7472 C   0  0  0  0  0  0  0  0  0  0  0  0
   -3.4270    6.1486   -8.3537 C   0  0  0  0  0  0  0  0  0  0  0  0
   -4.3339    7.1868   -8.1566 C   0  0  0  0  0  0  0  0  0  0  0  0
   -4.0472    8.1879   -7.2336 C   0  0  0  0  0  0  0  0  0  0  0  0
   -2.8748    8.1625   -6.5125 C   0  0  0  0  0  0  0  0  0  0  0  0
   -2.5958    9.1930   -5.5732 N   0  0  0  0  0  0  0  0  0  0  0  0
   -1.4200    9.9758   -5.6518 C   0  0  0  0  0  0  0  0  0  0  0  0
   -0.5259    9.5736   -6.4515 O   0  0  0  0  0  0  0  0  0  0  0  0
   -1.2412   11.2200   -4.8297 C   0  0  0  0  0  0  0  0  0  0  0  0
    0.0274   11.1756   -4.0454 C   0  0  0  0  0  0  0  0  0  0  0  0
  1  2  2  0
  1  6  1  0
  2  3  1  0
  3  4  2  0
  4  5  1  0
  5  6  2  0
  6  7  1  0
  7  8  2  0
  7 17  1  0
  8  9  1  0
  9 10  1  0
  9 15  2  0
 10 11  2  0
 10 12  1  0
 12 13  2  0
 14 13  1  1
 14 15  1  0
 15 16  1  0
 16 17  2  0
 17 18  1  0
 18 19  2  0
 18 21  1  0
 19 20  1  0
 20 23  2  0
 21 22  2  0
 22 23  1  0
 24 23  1  1
 25 24  1  1
 25 26  1  0
 25 28  1  0
 26 27  1  6
 27 30  1  6
 28 29  1  6
 29 30  1  6
 30 31  1  1
 31 32  1  0
 32 33  2  0
 32 34  1  0
 34 35  2  0
 34 36  1  0
 35 39  1  0
 36 37  2  0
 37 38  1  0
 38 39  2  0
 39 40  1  0
 40 41  1  0
 41 42  2  0
 43 41  1  1
 44 43  1  6
M  CHG  1  25   1
M  END
$$$$
