
     RDKit          3D

 44 49  0  0  0  0  0  0  0  0999 V2000
   -6.2497    0.6687  -13.3415 C   0  0  0  0  0  0  0  0  0  0  0  0
   -5.7780   -0.5143  -12.7987 C   0  0  0  0  0  0  0  0  0  0  0  0
   -4.9769   -1.3612  -13.5346 C   0  0  0  0  0  0  0  0  0  0  0  0
   -4.6543   -1.0032  -14.8278 C   0  0  0  0  0  0  0  0  0  0  0  0
   -5.1244    0.1685  -15.3583 C   0  0  0  0  0  0  0  0  0  0  0  0
   -5.9161    1.0031  -14.6279 C   0  0  0  0  0  0  0  0  0  0  0  0
   -6.3933    2.2314  -15.2223 C   0  0  0  0  0  0  0  0  0  0  0  0
   -7.6712    2.3179  -15.7699 C   0  0  0  0  0  0  0  0  0  0  0  0
   -8.0699    3.5119  -16.3228 C   0  0  0  0  0  0  0  0  0  0  0  0
   -9.3934    3.6542  -16.9071 C   0  0  0  0  0  0  0  0  0  0  0  0
  -10.2079    2.6809  -16.9192 O   0  0  0  0  0  0  0  0  0  0  0  0
   -9.7480    4.8961  -17.4578 N   0  0  0  0  0  0  0  0  0  0  0  0
   -8.9885    5.9062  -17.4799 C   0  0  0  0  0  0  0  0  0  0  0  0
   -7.6331    5.9010  -16.9275 C   0  0  0  0  0  0  0  0  0  0  0  0
   -7.2428    4.6071  -16.3454 C   0  0  0  0  0  0  0  0  0  0  0  0
   -5.9914    4.4769  -15.7944 N   0  0  0  0  0  0  0  0  0  0  0  0
   -5.5637    3.3299  -15.2450 C   0  0  0  0  0  0  0  0  0  0  0  0
   -4.2375    3.1840  -14.6570 C   0  0  0  0  0  0  0  0  0  0  0  0
   -4.0242    3.0169  -13.3146 C   0  0  0  0  0  0  0  0  0  0  0  0
   -2.7296    2.8906  -12.8605 C   0  0  0  0  0  0  0  0  0  0  0  0
   -3.1500    3.2194  -15.5054 C   0  0  0  0  0  0  0  0  0  0  0  0
   -1.8361    3.0900  -15.0371 C   0  0  0  0  0  0  0  0  0  0  0  0
   -1.6156    2.9224  -13.6883 C   0  0  0  0  0  0  0  0  0  0  0  0
   -0.2425    2.7768  -13.1491 C   0  0  0  0  0  0  0  0  0  0  0  0
    0.3120    1.4627  -13.2717 N   0  0  1  0  0  4  0  0  0  0  0  0
    1.3842    1.5447  -14.2755 C   0  0  0  0  0  0  0  0  0  0  0  0
    2.6526    1.8376  -13.5084 C   0  0  0  0  0  0  0  0  0  0  0  0
    0.7698    0.8591  -12.0627 C   0  0  0  0  0  0  0  0  0  0  0  0
    1.8929   -0.1323  -12.2881 C   0  0  0  0  0  0  0  0  0  0  0  0
    3.1158    0.5501  -12.8806 C   0  0  1  0  0  0  0  0  0  0  0  0
    3.6378   -0.3978  -13.8843 N   0  0  0  0  0  0  0  0  0  0  0  0
    5.0221   -0.3307  -14.1622 C   0  0  0  0  0  0  0  0  0  0  0  0
    5.6114    0.7781  -14.1067 O   0  0  0  0  0  0  0  0  0  0  0  0
    5.7543   -1.5534  -14.5113 C   0  0  0  0  0  0  0  0  0  0  0  0
    7.1456   -1.5767  -14.4368 C   0  0  0  0  0  0  0  0  0  0  0  0
    5.1310   -2.7072  -14.9175 C   0  0  0  0  0  0  0  0  0  0  0  0
    5.8900   -3.8406  -15.2356 C   0  0  0  0  0  0  0  0  0  0  0  0
    7.2633   -3.8108  -15.1451 C   0  0  0  0  0  0  0  0  0  0  0  0
    7.9181   -2.6708  -14.7415 C   0  0  0  0  0  0  0  0  0  0  0  0
    9.3359   -2.6252  -14.6421 N   0  0  0  0  0  0  0  0  0  0  0  0
    9.9534   -2.3213  -13.4051 C   0  0  0  0  0  0  0  0  0  0  0  0
    9.2189   -2.2178  -12.3897 O   0  0  0  0  0  0  0  0  0  0  0  0
   11.4270   -2.1446  -13.3861 C   0  0  0  0  0  0  0  0  0  0  0  0
   12.0221   -3.3482  -12.6845 C   0  0  0  0  0  0  0  0  0  0  0  0
  1  2  2  0
  1  6  1  0
  2  3  1  0
  3  4  2  0
  4  5  1  0
  5  6  2  0
  6  7  1  0
  7  8  2  0
  7 17  1  0
  8  9  1  0
  9 10  1  0
  9 15  2  0
 10 11  2  0
 10 12  1  0
 12 13  2  0
 13 14  1  0
 14 15  1  0
 15 16  1  0
 16 17  2  0
 17 18  1  0
 18 19  2  0
 18 21  1  0
 19 20  1  0
 20 23  2  0
 21 22  2  0
 22 23  1  0
 23 24  1  0
 25 24  1  1
 25 26  1  0
 25 28  1  0
 26 27  1  0
 27 30  1  0
 28 29  1  0
 29 30  1  0
 30 31  1  6
 31 32  1  0
 32 33  2  0
 32 34  1  0
 34 35  2  0
 34 36  1  0
 35 39  1  0
 36 37  2  0
 37 38  1  0
 38 39  2  0
 39 40  1  0
 40 41  1  0
 41 42  2  0
 41 43  1  0
 43 44  1  0
M  CHG  1  25   1
M  END
$$$$
