
     RDKit          3D

 44 49  0  0  0  0  0  0  0  0999 V2000
   -7.1362    1.4392  -13.1400 C   0  0  0  0  0  0  0  0  0  0  0  0
   -7.0108    1.4270  -11.7613 C   0  0  0  0  0  0  0  0  0  0  0  0
   -5.9239    2.0085  -11.1439 C   0  0  0  0  0  0  0  0  0  0  0  0
   -4.9608    2.6048  -11.9323 C   0  0  0  0  0  0  0  0  0  0  0  0
   -5.0913    2.6133  -13.2955 C   0  0  0  0  0  0  0  0  0  0  0  0
   -6.1671    2.0374  -13.9021 C   0  0  0  0  0  0  0  0  0  0  0  0
   -6.2700    2.0660  -15.3438 C   0  0  0  0  0  0  0  0  0  0  0  0
   -7.4485    2.4581  -15.9744 C   0  0  0  0  0  0  0  0  0  0  0  0
   -7.4879    2.4643  -17.3487 C   0  0  0  0  0  0  0  0  0  0  0  0
   -8.6937    2.8651  -18.0550 C   0  0  0  0  0  0  0  0  0  0  0  0
   -9.7340    3.2174  -17.4190 O   0  0  0  0  0  0  0  0  0  0  0  0
   -8.6782    2.8527  -19.4588 N   0  0  0  0  0  0  0  0  0  0  0  0
   -7.6790    2.5141  -20.1552 C   0  0  0  0  0  0  0  0  0  0  0  0
   -6.4047    2.0897  -19.5736 C   0  0  0  0  0  0  0  0  0  0  0  0
   -6.4013    2.0959  -18.1022 C   0  0  0  0  0  0  0  0  0  0  0  0
   -5.2601    1.7165  -17.4388 N   0  0  0  0  0  0  0  0  0  0  0  0
   -5.1801    1.6966  -16.0996 C   0  0  0  0  0  0  0  0  0  0  0  0
   -3.9720    1.2964  -15.3879 C   0  0  0  0  0  0  0  0  0  0  0  0
   -2.7927    1.9887  -15.4595 C   0  0  0  0  0  0  0  0  0  0  0  0
   -1.7078    1.5240  -14.7488 C   0  0  0  0  0  0  0  0  0  0  0  0
   -4.0316    0.1602  -14.6074 C   0  0  0  0  0  0  0  0  0  0  0  0
   -2.9247   -0.3068  -13.8870 C   0  0  0  0  0  0  0  0  0  0  0  0
   -1.7362    0.3850  -13.9557 C   0  0  0  0  0  0  0  0  0  0  0  0
   -0.5408   -0.0702  -13.2065 C   0  0  0  0  0  0  0  0  0  0  0  0
    0.6955    0.4999  -13.6493 N   0  0  1  0  0  4  0  0  0  0  0  0
    1.4889    0.7852  -12.4439 C   0  0  0  0  0  0  0  0  0  0  0  0
    2.3276   -0.4468  -12.1952 C   0  0  0  0  0  0  0  0  0  0  0  0
    1.4370   -0.2672  -14.5966 C   0  0  0  0  0  0  0  0  0  0  0  0
    2.9289   -0.0160  -14.5189 C   0  0  0  0  0  0  0  0  0  0  0  0
    3.4823   -0.4173  -13.1607 C   0  0  1  0  0  0  0  0  0  0  0  0
    4.4624    0.6319  -12.8184 N   0  0  0  0  0  0  0  0  0  0  0  0
    5.6342    0.6884  -13.6067 C   0  0  0  0  0  0  0  0  0  0  0  0
    5.5408    0.9201  -14.8385 O   0  0  0  0  0  0  0  0  0  0  0  0
    6.9439    0.4768  -12.9797 C   0  0  0  0  0  0  0  0  0  0  0  0
    7.1893    0.9665  -11.6983 C   0  0  0  0  0  0  0  0  0  0  0  0
    7.9689   -0.1944  -13.5989 C   0  0  0  0  0  0  0  0  0  0  0  0
    9.1953   -0.3623  -12.9434 C   0  0  0  0  0  0  0  0  0  0  0  0
    9.3860    0.1415  -11.6765 C   0  0  0  0  0  0  0  0  0  0  0  0
    8.3795    0.8187  -11.0288 C   0  0  0  0  0  0  0  0  0  0  0  0
    8.5612    1.3438   -9.7199 N   0  0  0  0  0  0  0  0  0  0  0  0
    7.7685    2.4273   -9.2710 C   0  0  0  0  0  0  0  0  0  0  0  0
    6.8871    2.8742  -10.0487 O   0  0  0  0  0  0  0  0  0  0  0  0
    8.0281    2.9656   -7.9124 C   0  0  0  0  0  0  0  0  0  0  0  0
    7.0793    4.1259   -7.6920 C   0  0  0  0  0  0  0  0  0  0  0  0
  1  2  2  0
  1  6  1  0
  2  3  1  0
  3  4  2  0
  4  5  1  0
  5  6  2  0
  6  7  1  0
  7  8  2  0
  7 17  1  0
  8  9  1  0
  9 10  1  0
  9 15  2  0
 10 11  2  0
 10 12  1  0
 12 13  2  0
 13 14  1  0
 14 15  1  0
 15 16  1  0
 16 17  2  0
 17 18  1  0
 18 19  2  0
 18 21  1  0
 19 20  1  0
 20 23  2  0
 21 22  2  0
 22 23  1  0
 23 24  1  0
 25 24  1  1
 25 26  1  0
 25 28  1  0
 26 27  1  0
 27 30  1  0
 28 29  1  0
 29 30  1  0
 30 31  1  1
 31 32  1  0
 32 33  2  0
 32 34  1  0
 34 35  2  0
 34 36  1  0
 35 39  1  0
 36 37  2  0
 37 38  1  0
 38 39  2  0
 39 40  1  0
 40 41  1  0
 41 42  2  0
 41 43  1  0
 43 44  1  0
M  CHG  1  25   1
M  END
$$$$
