
     RDKit          3D

 44 49  0  0  0  0  0  0  0  0999 V2000
   -3.7925    3.1544  -13.4680 C   0  0  0  0  0  0  0  0  0  0  0  0
   -2.9011    3.3671  -12.4233 C   0  0  0  0  0  0  0  0  0  0  0  0
   -2.3366    2.2965  -11.7723 C   0  0  0  0  0  0  0  0  0  0  0  0
   -2.6668    1.0186  -12.1697 C   0  0  0  0  0  0  0  0  0  0  0  0
   -3.5664    0.8190  -13.2238 C   0  0  0  0  0  0  0  0  0  0  0  0
   -4.1370    1.8874  -13.8820 C   0  0  0  0  0  0  0  0  0  0  0  0
   -5.0765    1.6855  -14.9842 C   0  0  0  0  0  0  0  0  0  0  0  0
   -6.3016    2.3170  -15.0272 C   0  0  0  0  0  0  0  0  0  0  0  0
   -7.1370    2.0859  -16.0845 C   0  0  0  0  0  0  0  0  0  0  0  0
   -8.4415    2.7355  -16.1673 C   0  0  0  0  0  0  0  0  0  0  0  0
   -8.7450    3.5085  -15.2204 O   0  0  0  0  0  0  0  0  0  0  0  0
   -9.2851    2.4824  -17.2667 N   0  0  0  0  0  0  0  0  0  0  0  0
   -8.9479    1.6852  -18.2226 C   0  0  0  0  0  0  0  0  0  0  0  0
   -7.6718    0.9607  -18.2794 C   0  0  0  0  0  0  0  0  0  0  0  0
   -6.7993    1.2370  -17.1211 C   0  0  0  0  0  0  0  0  0  0  0  0
   -5.6086    0.6369  -17.0581 N   0  0  0  0  0  0  0  0  0  0  0  0
   -4.7737    0.8457  -16.0358 C   0  0  0  0  0  0  0  0  0  0  0  0
   -3.4937    0.1417  -16.0647 C   0  0  0  0  0  0  0  0  0  0  0  0
   -3.1008   -0.6405  -14.9990 C   0  0  0  0  0  0  0  0  0  0  0  0
   -1.8759   -1.3186  -15.0138 C   0  0  0  0  0  0  0  0  0  0  0  0
   -2.6394    0.2319  -17.1429 C   0  0  0  0  0  0  0  0  0  0  0  0
   -1.4366   -0.4415  -17.1433 C   0  0  0  0  0  0  0  0  0  0  0  0
   -1.0258   -1.2265  -16.0908 C   0  0  0  0  0  0  0  0  0  0  0  0
    0.2726   -1.9158  -16.1519 C   0  0  0  0  0  0  0  0  0  0  0  0
    1.3601   -1.1869  -15.5812 N   0  0  1  0  0  4  0  0  0  0  0  0
    2.1892   -1.9106  -14.6701 C   0  0  0  0  0  0  0  0  0  0  0  0
    3.3556   -2.6202  -15.3044 C   0  0  0  0  0  0  0  0  0  0  0  0
    2.1068   -0.5743  -16.6609 C   0  0  0  0  0  0  0  0  0  0  0  0
    3.5495   -0.3332  -16.2861 C   0  0  0  0  0  0  0  0  0  0  0  0
    4.2272   -1.7034  -16.1303 C   0  0  1  0  0  0  0  0  0  0  0  0
    5.5127   -1.4381  -15.5297 N   0  0  0  0  0  0  0  0  0  0  0  0
    6.4947   -0.7491  -16.2507 C   0  0  0  0  0  0  0  0  0  0  0  0
    6.2402   -0.4129  -17.4341 O   0  0  0  0  0  0  0  0  0  0  0  0
    7.7980   -0.3981  -15.7064 C   0  0  0  0  0  0  0  0  0  0  0  0
    7.9546   -0.1288  -14.3638 C   0  0  0  0  0  0  0  0  0  0  0  0
    8.9382   -0.3153  -16.4864 C   0  0  0  0  0  0  0  0  0  0  0  0
   10.1685    0.0230  -15.9285 C   0  0  0  0  0  0  0  0  0  0  0  0
   10.2597    0.2834  -14.5646 C   0  0  0  0  0  0  0  0  0  0  0  0
    9.1450    0.2099  -13.7602 C   0  0  0  0  0  0  0  0  0  0  0  0
    9.2543    0.4784  -12.3681 N   0  0  0  0  0  0  0  0  0  0  0  0
    9.6294    1.7526  -11.8811 C   0  0  0  0  0  0  0  0  0  0  0  0
    9.8101    2.6574  -12.7468 O   0  0  0  0  0  0  0  0  0  0  0  0
    9.8038    2.0190  -10.4133 C   0  0  0  0  0  0  0  0  0  0  0  0
    8.7597    2.9548   -9.9029 C   0  0  0  0  0  0  0  0  0  0  0  0
  1  2  2  0
  1  6  1  0
  2  3  1  0
  3  4  2  0
  4  5  1  0
  5  6  2  0
  6  7  1  0
  7  8  2  0
  7 17  1  0
  8  9  1  0
  9 10  1  0
  9 15  2  0
 10 11  2  0
 10 12  1  0
 12 13  2  0
 14 13  1  1
 14 15  1  0
 15 16  1  0
 16 17  2  0
 17 18  1  0
 18 19  2  0
 18 21  1  0
 19 20  1  0
 20 23  2  0
 21 22  2  0
 22 23  1  0
 24 23  1  1
 25 24  1  6
 25 26  1  0
 25 28  1  0
 26 27  1  6
 27 30  1  6
 28 29  1  6
 29 30  1  6
 30 31  1  1
 31 32  1  0
 32 33  2  0
 32 34  1  0
 34 35  2  0
 34 36  1  0
 35 39  1  0
 36 37  2  0
 37 38  1  0
 38 39  2  0
 39 40  1  0
 40 41  1  0
 41 42  2  0
 43 41  1  1
 44 43  1  6
M  CHG  1  25   1
M  END
$$$$
