
     RDKit          3D

 44 49  0  0  0  0  0  0  0  0999 V2000
   -5.1549   -0.0758  -14.2988 C   0  0  0  0  0  0  0  0  0  0  0  0
   -6.4813    0.1046  -13.9458 C   0  0  0  0  0  0  0  0  0  0  0  0
   -7.2057    1.1705  -14.4354 C   0  0  0  0  0  0  0  0  0  0  0  0
   -6.5782    2.0563  -15.2875 C   0  0  0  0  0  0  0  0  0  0  0  0
   -5.2658    1.8717  -15.6325 C   0  0  0  0  0  0  0  0  0  0  0  0
   -4.5530    0.8169  -15.1465 C   0  0  0  0  0  0  0  0  0  0  0  0
   -3.1695    0.6553  -15.5332 C   0  0  0  0  0  0  0  0  0  0  0  0
   -2.8217   -0.0235  -16.6988 C   0  0  0  0  0  0  0  0  0  0  0  0
   -1.4893   -0.1471  -17.0147 C   0  0  0  0  0  0  0  0  0  0  0  0
   -1.0739   -0.8461  -18.2198 C   0  0  0  0  0  0  0  0  0  0  0  0
   -1.9309   -1.3563  -19.0047 O   0  0  0  0  0  0  0  0  0  0  0  0
    0.2998   -0.9424  -18.4935 N   0  0  0  0  0  0  0  0  0  0  0  0
    1.2064   -0.4587  -17.7573 C   0  0  0  0  0  0  0  0  0  0  0  0
    0.9282    0.2678  -16.5175 C   0  0  0  0  0  0  0  0  0  0  0  0
   -0.5071    0.3792  -16.2133 C   0  0  0  0  0  0  0  0  0  0  0  0
   -0.8953    1.0404  -15.0737 N   0  0  0  0  0  0  0  0  0  0  0  0
   -2.1843    1.1831  -14.7293 C   0  0  0  0  0  0  0  0  0  0  0  0
   -2.6046    1.8847  -13.5222 C   0  0  0  0  0  0  0  0  0  0  0  0
   -3.2033    3.1162  -13.5379 C   0  0  0  0  0  0  0  0  0  0  0  0
   -3.5603    3.6942  -12.3393 C   0  0  0  0  0  0  0  0  0  0  0  0
   -2.3811    1.2676  -12.3085 C   0  0  0  0  0  0  0  0  0  0  0  0
   -2.7469    1.8608  -11.0934 C   0  0  0  0  0  0  0  0  0  0  0  0
   -3.3488    3.0991  -11.1031 C   0  0  0  0  0  0  0  0  0  0  0  0
   -3.7567    3.7622   -9.8416 C   0  0  0  0  0  0  0  0  0  0  0  0
   -2.8075    4.7014   -9.3255 N   0  0  1  0  0  4  0  0  0  0  0  0
   -3.5591    5.6525   -8.4923 C   0  0  0  0  0  0  0  0  0  0  0  0
   -3.5305    5.0917   -7.0895 C   0  0  0  0  0  0  0  0  0  0  0  0
   -1.6973    4.1487   -8.6200 C   0  0  0  0  0  0  0  0  0  0  0  0
   -1.1398    5.0884   -7.5705 C   0  0  0  0  0  0  0  0  0  0  0  0
   -2.1778    5.3951   -6.5025 C   0  0  1  0  0  0  0  0  0  0  0  0
   -2.0134    6.8316   -6.2063 N   0  0  0  0  0  0  0  0  0  0  0  0
   -0.8883    7.1962   -5.4323 C   0  0  0  0  0  0  0  0  0  0  0  0
    0.0819    6.4026   -5.3387 O   0  0  0  0  0  0  0  0  0  0  0  0
   -0.8652    8.4942   -4.7483 C   0  0  0  0  0  0  0  0  0  0  0  0
   -1.5206    9.5883   -5.3097 C   0  0  0  0  0  0  0  0  0  0  0  0
   -0.2184    8.6982   -3.5548 C   0  0  0  0  0  0  0  0  0  0  0  0
   -0.2359    9.9635   -2.9541 C   0  0  0  0  0  0  0  0  0  0  0  0
   -0.8989   11.0120   -3.5510 C   0  0  0  0  0  0  0  0  0  0  0  0
   -1.5566   10.8406   -4.7465 C   0  0  0  0  0  0  0  0  0  0  0  0
   -2.2466   11.9137   -5.3744 N   0  0  0  0  0  0  0  0  0  0  0  0
   -3.1079   12.7452   -4.6190 C   0  0  0  0  0  0  0  0  0  0  0  0
   -3.1362   12.5859   -3.3720 O   0  0  0  0  0  0  0  0  0  0  0  0
   -3.9214   13.7510   -5.3468 C   0  0  0  0  0  0  0  0  0  0  0  0
   -4.3672   14.7922   -4.3407 C   0  0  0  0  0  0  0  0  0  0  0  0
  1  2  2  0
  1  6  1  0
  2  3  1  0
  3  4  2  0
  4  5  1  0
  5  6  2  0
  6  7  1  0
  7  8  2  0
  7 17  1  0
  8  9  1  0
  9 10  1  0
  9 15  2  0
 10 11  2  0
 10 12  1  0
 12 13  2  0
 13 14  1  0
 14 15  1  0
 15 16  1  0
 16 17  2  0
 17 18  1  0
 18 19  2  0
 18 21  1  0
 19 20  1  0
 20 23  2  0
 21 22  2  0
 22 23  1  0
 23 24  1  0
 25 24  1  1
 25 26  1  0
 25 28  1  0
 26 27  1  0
 27 30  1  0
 28 29  1  0
 29 30  1  0
 30 31  1  6
 31 32  1  0
 32 33  2  0
 32 34  1  0
 34 35  2  0
 34 36  1  0
 35 39  1  0
 36 37  2  0
 37 38  1  0
 38 39  2  0
 39 40  1  0
 40 41  1  0
 41 42  2  0
 41 43  1  0
 43 44  1  0
M  CHG  1  25   1
M  END
$$$$
