
     RDKit          3D

 44 49  0  0  0  0  0  0  0  0999 V2000
   -3.0774    2.7543  -16.5549 C   0  0  0  0  0  0  0  0  0  0  0  0
   -4.1178    3.6657  -16.6898 C   0  0  0  0  0  0  0  0  0  0  0  0
   -5.3846    3.2239  -16.9876 C   0  0  0  0  0  0  0  0  0  0  0  0
   -5.6042    1.8727  -17.1489 C   0  0  0  0  0  0  0  0  0  0  0  0
   -4.5467    0.9657  -17.0101 C   0  0  0  0  0  0  0  0  0  0  0  0
   -3.2731    1.4005  -16.7115 C   0  0  0  0  0  0  0  0  0  0  0  0
   -2.1647    0.4582  -16.5644 C   0  0  0  0  0  0  0  0  0  0  0  0
   -1.6243   -0.2109  -17.6424 C   0  0  0  0  0  0  0  0  0  0  0  0
   -0.5893   -1.0809  -17.4398 C   0  0  0  0  0  0  0  0  0  0  0  0
    0.0105   -1.8077  -18.5545 C   0  0  0  0  0  0  0  0  0  0  0  0
   -0.4765   -1.5879  -19.6951 O   0  0  0  0  0  0  0  0  0  0  0  0
    1.0764   -2.6986  -18.3215 N   0  0  0  0  0  0  0  0  0  0  0  0
    1.5549   -2.9043  -17.1419 C   0  0  0  0  0  0  0  0  0  0  0  0
    1.0575   -2.2491  -15.9254 C   0  0  0  0  0  0  0  0  0  0  0  0
   -0.0585   -1.3186  -16.1864 C   0  0  0  0  0  0  0  0  0  0  0  0
   -0.5974   -0.6597  -15.1582 N   0  0  0  0  0  0  0  0  0  0  0  0
   -1.6095    0.1960  -15.3292 C   0  0  0  0  0  0  0  0  0  0  0  0
   -2.1249    0.8671  -14.1380 C   0  0  0  0  0  0  0  0  0  0  0  0
   -3.4804    1.0628  -13.9762 C   0  0  0  0  0  0  0  0  0  0  0  0
   -3.9866    1.7062  -12.8403 C   0  0  0  0  0  0  0  0  0  0  0  0
   -1.2878    1.3263  -13.1437 C   0  0  0  0  0  0  0  0  0  0  0  0
   -1.8006    1.9579  -12.0309 C   0  0  0  0  0  0  0  0  0  0  0  0
   -3.1489    2.1633  -11.8501 C   0  0  0  0  0  0  0  0  0  0  0  0
   -3.6316    2.8485  -10.6409 C   0  0  0  0  0  0  0  0  0  0  0  0
   -3.8870    4.2435  -10.8101 N   0  0  1  0  0  4  0  0  0  0  0  0
   -4.8115    4.8267   -9.8902 C   0  0  0  0  0  0  0  0  0  0  0  0
   -4.1914    5.3719   -8.6313 C   0  0  0  0  0  0  0  0  0  0  0  0
   -2.6134    4.9328  -10.8454 C   0  0  0  0  0  0  0  0  0  0  0  0
   -2.7343    6.3692  -10.3960 C   0  0  0  0  0  0  0  0  0  0  0  0
   -3.0832    6.3629   -8.8996 C   0  0  1  0  0  0  0  0  0  0  0  0
   -3.4385    7.7237   -8.5749 N   0  0  0  0  0  0  0  0  0  0  0  0
   -4.1630    8.0004   -7.4098 C   0  0  0  0  0  0  0  0  0  0  0  0
   -3.9798    7.2683   -6.4054 O   0  0  0  0  0  0  0  0  0  0  0  0
   -5.1194    9.0912   -7.2942 C   0  0  0  0  0  0  0  0  0  0  0  0
   -4.8376   10.2005   -6.5262 C   0  0  0  0  0  0  0  0  0  0  0  0
   -6.3458    9.0837   -7.9353 C   0  0  0  0  0  0  0  0  0  0  0  0
   -7.2344   10.1475   -7.8009 C   0  0  0  0  0  0  0  0  0  0  0  0
   -6.8896   11.2392   -7.0100 C   0  0  0  0  0  0  0  0  0  0  0  0
   -5.6776   11.2786   -6.3584 C   0  0  0  0  0  0  0  0  0  0  0  0
   -5.3394   12.4014   -5.5541 N   0  0  0  0  0  0  0  0  0  0  0  0
   -4.0741   12.5200   -4.9326 C   0  0  0  0  0  0  0  0  0  0  0  0
   -3.3887   11.4605   -4.8400 O   0  0  0  0  0  0  0  0  0  0  0  0
   -3.5691   13.8344   -4.4100 C   0  0  0  0  0  0  0  0  0  0  0  0
   -3.5163   13.8423   -2.9188 C   0  0  0  0  0  0  0  0  0  0  0  0
  1  2  2  0
  1  6  1  0
  2  3  1  0
  3  4  2  0
  4  5  1  0
  5  6  2  0
  6  7  1  0
  7  8  2  0
  7 17  1  0
  8  9  1  0
  9 10  1  0
  9 15  2  0
 10 11  2  0
 10 12  1  0
 12 13  2  0
 14 13  1  1
 14 15  1  0
 15 16  1  0
 16 17  2  0
 17 18  1  0
 18 19  2  0
 18 21  1  0
 19 20  1  0
 20 23  2  0
 21 22  2  0
 22 23  1  0
 24 23  1  1
 25 24  1  1
 25 26  1  0
 25 28  1  0
 26 27  1  6
 27 30  1  6
 28 29  1  6
 29 30  1  6
 30 31  1  6
 31 32  1  0
 32 33  2  0
 32 34  1  0
 34 35  2  0
 34 36  1  0
 35 39  1  0
 36 37  2  0
 37 38  1  0
 38 39  2  0
 39 40  1  0
 40 41  1  0
 41 42  2  0
 43 41  1  1
 44 43  1  6
M  CHG  1  25   1
M  END
$$$$
