
     RDKit          3D

 44 49  0  0  0  0  0  0  0  0999 V2000
   -4.1509    1.8614  -12.4472 C   0  0  0  0  0  0  0  0  0  0  0  0
   -3.2087    2.1159  -11.4579 C   0  0  0  0  0  0  0  0  0  0  0  0
   -1.9180    2.4367  -11.8039 C   0  0  0  0  0  0  0  0  0  0  0  0
   -1.5765    2.5014  -13.1377 C   0  0  0  0  0  0  0  0  0  0  0  0
   -2.5359    2.2426  -14.1239 C   0  0  0  0  0  0  0  0  0  0  0  0
   -3.8328    1.9201  -13.7853 C   0  0  0  0  0  0  0  0  0  0  0  0
   -4.8397    1.6496  -14.8106 C   0  0  0  0  0  0  0  0  0  0  0  0
   -6.0746    2.2633  -14.8043 C   0  0  0  0  0  0  0  0  0  0  0  0
   -6.9742    1.9673  -15.7903 C   0  0  0  0  0  0  0  0  0  0  0  0
   -8.2912    2.5959  -15.8192 C   0  0  0  0  0  0  0  0  0  0  0  0
   -8.5435    3.4136  -14.8950 O   0  0  0  0  0  0  0  0  0  0  0  0
   -9.2014    2.2756  -16.8454 N   0  0  0  0  0  0  0  0  0  0  0  0
   -8.9157    1.4337  -17.7795 C   0  0  0  0  0  0  0  0  0  0  0  0
   -7.6351    0.7226  -17.8840 C   0  0  0  0  0  0  0  0  0  0  0  0
   -6.6925    1.0694  -16.8021 C   0  0  0  0  0  0  0  0  0  0  0  0
   -5.4911    0.4879  -16.7879 N   0  0  0  0  0  0  0  0  0  0  0  0
   -4.5939    0.7598  -15.8356 C   0  0  0  0  0  0  0  0  0  0  0  0
   -3.3079    0.0706  -15.9136 C   0  0  0  0  0  0  0  0  0  0  0  0
   -2.8319   -0.6471  -14.8365 C   0  0  0  0  0  0  0  0  0  0  0  0
   -1.6002   -1.3102  -14.8981 C   0  0  0  0  0  0  0  0  0  0  0  0
   -2.5297    0.1117  -17.0508 C   0  0  0  0  0  0  0  0  0  0  0  0
   -1.3192   -0.5461  -17.0967 C   0  0  0  0  0  0  0  0  0  0  0  0
   -0.8262   -1.2672  -16.0338 C   0  0  0  0  0  0  0  0  0  0  0  0
    0.4758   -1.9432  -16.1460 C   0  0  0  0  0  0  0  0  0  0  0  0
    1.6018   -1.1190  -15.8417 N   0  0  1  0  0  4  0  0  0  0  0  0
    1.8687   -0.9112  -14.4537 C   0  0  0  0  0  0  0  0  0  0  0  0
    2.7882   -1.9260  -13.8282 C   0  0  0  0  0  0  0  0  0  0  0  0
    2.7453   -1.6342  -16.5665 C   0  0  0  0  0  0  0  0  0  0  0  0
    4.0488   -1.2895  -15.8868 C   0  0  0  0  0  0  0  0  0  0  0  0
    4.1027   -2.0627  -14.5600 C   0  0  1  0  0  0  0  0  0  0  0  0
    5.2239   -1.5158  -13.8338 N   0  0  0  0  0  0  0  0  0  0  0  0
    6.5280   -1.7203  -14.2991 C   0  0  0  0  0  0  0  0  0  0  0  0
    6.8535   -2.8745  -14.6739 O   0  0  0  0  0  0  0  0  0  0  0  0
    7.5320   -0.6695  -14.3746 C   0  0  0  0  0  0  0  0  0  0  0  0
    7.2736    0.5089  -15.0412 C   0  0  0  0  0  0  0  0  0  0  0  0
    8.7825   -0.7847  -13.7932 C   0  0  0  0  0  0  0  0  0  0  0  0
    9.7167    0.2439  -13.8864 C   0  0  0  0  0  0  0  0  0  0  0  0
    9.3936    1.4095  -14.5743 C   0  0  0  0  0  0  0  0  0  0  0  0
    8.1586    1.5566  -15.1643 C   0  0  0  0  0  0  0  0  0  0  0  0
    7.8432    2.7540  -15.8635 N   0  0  0  0  0  0  0  0  0  0  0  0
    7.4919    2.7473  -17.2339 C   0  0  0  0  0  0  0  0  0  0  0  0
    7.3582    1.6126  -17.7773 O   0  0  0  0  0  0  0  0  0  0  0  0
    7.2876    4.0200  -18.0048 C   0  0  0  0  0  0  0  0  0  0  0  0
    6.3068    3.8325  -19.1135 C   0  0  0  0  0  0  0  0  0  0  0  0
  1  2  2  0
  1  6  1  0
  2  3  1  0
  3  4  2  0
  4  5  1  0
  5  6  2  0
  6  7  1  0
  7  8  2  0
  7 17  1  0
  8  9  1  0
  9 10  1  0
  9 15  2  0
 10 11  2  0
 10 12  1  0
 12 13  2  0
 14 13  1  1
 14 15  1  0
 15 16  1  0
 16 17  2  0
 17 18  1  0
 18 19  2  0
 18 21  1  0
 19 20  1  0
 20 23  2  0
 21 22  2  0
 22 23  1  0
 24 23  1  1
 25 24  1  1
 25 26  1  0
 25 28  1  0
 26 27  1  6
 27 30  1  6
 28 29  1  6
 29 30  1  6
 30 31  1  1
 31 32  1  0
 32 33  2  0
 32 34  1  0
 34 35  2  0
 34 36  1  0
 35 39  1  0
 36 37  2  0
 37 38  1  0
 38 39  2  0
 39 40  1  0
 40 41  1  0
 41 42  2  0
 43 41  1  1
 44 43  1  6
M  CHG  1  25   1
M  END
$$$$
