
     RDKit          3D

 48 48  0  0  0  0  0  0  0  0999 V2000
    7.0076    7.5267   23.3150 N   0  0  0  0  0  4  0  0  0  0  0  0
    7.6892    6.6606   24.2204 C   0  0  2  0  0  0  0  0  0  0  0  0
    7.3723    5.2531   23.9039 C   0  0  0  0  0  0  0  0  0  0  0  0
    6.6681    4.5354   24.6683 O   0  0  0  0  0  0  0  0  0  0  0  0
    7.3438    6.8862   25.6762 C   0  0  0  0  0  0  0  0  0  0  0  0
    7.8637    5.8064   26.5820 C   0  0  0  0  0  0  0  0  0  0  0  0
    7.8691    4.6792   22.7075 N   0  0  0  0  0  0  0  0  0  0  0  0
    7.4803    3.3327   22.2925 C   0  0  2  0  0  0  0  0  0  0  0  0
    8.4905    2.8607   21.3023 C   0  0  0  0  0  0  0  0  0  0  0  0
    8.2974    1.7835   20.6903 O   0  0  0  0  0  0  0  0  0  0  0  0
    6.1549    3.4429   21.5841 C   0  0  0  0  0  0  0  0  0  0  0  0
    9.6544    3.6172   21.0512 N   0  0  0  0  0  0  0  0  0  0  0  0
   10.9127    3.2954   21.8117 C   0  0  2  0  0  0  0  0  0  0  0  0
   11.9760    3.5666   20.8295 C   0  0  0  0  0  0  0  0  0  0  0  0
   11.8555    4.6222   20.1033 O   0  0  0  0  0  0  0  0  0  0  0  0
   10.7844    1.8633   22.2359 C   0  0  0  0  0  0  0  0  0  0  0  0
   11.9158    1.2257   22.8770 C   0  0  0  0  0  0  0  0  0  0  0  0
   11.9431    0.0415   23.2549 O   0  0  0  0  0  0  0  0  0  0  0  0
   13.1184    1.9390   23.1256 O   0  0  0  0  0  0  0  0  0  0  0  0
   13.1295    2.8220   20.5696 N   0  0  0  0  0  0  0  0  0  0  0  0
   14.1337    3.2552   19.5940 C   0  0  2  0  0  0  0  0  0  0  0  0
   15.2472    2.2439   19.5879 C   0  0  0  0  0  0  0  0  0  0  0  0
   15.6129    1.7955   20.7107 O   0  0  0  0  0  0  0  0  0  0  0  0
   14.6496    4.6224   19.9138 C   0  0  2  0  0  0  0  0  0  0  0  0
   15.3599    4.5117   21.1309 O   0  0  0  0  0  0  0  0  0  0  0  0
   13.5225    5.5826   20.1814 C   0  0  0  0  0  0  0  0  0  0  0  0
   15.8778    1.7918   18.4057 N   0  0  0  0  0  0  0  0  0  0  0  0
   16.9703    0.8299   18.4946 C   0  0  2  0  0  0  0  0  0  0  0  0
   18.2521    1.5326   18.5895 C   0  0  0  0  0  0  0  0  0  0  0  0
   18.2799    2.7677   18.2735 O   0  0  0  0  0  0  0  0  0  0  0  0
   16.8324   -0.1507   17.3827 C   0  0  2  0  0  0  0  0  0  0  0  0
   17.7964   -1.1321   17.3298 O   0  0  0  0  0  0  0  0  0  0  0  0
   16.7236    0.6509   16.0860 C   0  0  0  0  0  0  0  0  0  0  0  0
   19.4697    0.8907   19.0258 N   0  0  0  0  0  0  0  0  0  0  0  0
   20.6964    1.5630   19.1303 C   0  0  2  0  0  0  0  0  0  0  0  0
   21.6840    1.3026   18.0897 C   0  0  0  0  0  0  0  0  0  0  0  0
   21.8396    0.0297   17.8129 O   0  0  0  0  0  0  0  0  0  0  0  0
   21.3492    1.3767   20.5065 C   0  0  2  0  0  0  0  0  0  0  0  0
   21.9057    0.1130   20.6440 O   0  0  0  0  0  0  0  0  0  0  0  0
   20.3598    1.6898   21.5997 C   0  0  0  0  0  0  0  0  0  0  0  0
   22.4799    2.1474   17.3445 N   0  0  0  0  0  0  0  0  0  0  0  0
   23.5917    1.9285   16.4962 C   0  0  2  0  0  0  0  0  0  0  0  0
   24.0137    0.6383   16.0640 C   0  0  0  0  0  0  0  0  0  0  0  0
   24.3583   -0.4215   16.8299 O   0  0  0  0  0  0  0  0  0  0  0  0
   24.6581    2.7182   17.3060 C   0  0  0  0  0  0  0  0  0  0  0  0
   23.8600    4.0020   17.5652 C   0  0  0  0  0  0  0  0  0  0  0  0
   22.3807    3.6220   17.3657 C   0  0  0  0  0  0  0  0  0  0  0  0
   24.0738    0.4442   14.7833 O   0  0  0  0  0  0  0  0  0  0  0  0
  2  1  1  6
  2  3  1  0
  2  5  1  0
  3  4  2  0
  3  7  1  0
  5  6  1  0
  7  8  1  0
  8  9  1  0
  8 11  1  6
  9 10  2  0
  9 12  1  0
 12 13  1  0
 13 14  1  0
 13 16  1  6
 14 15  2  0
 14 20  1  0
 16 17  1  0
 17 18  2  0
 17 19  1  0
 21 20  1  1
 21 22  1  0
 21 24  1  0
 22 23  2  0
 22 27  1  0
 24 25  1  0
 24 26  1  1
 28 27  1  6
 28 29  1  0
 28 31  1  0
 29 30  2  0
 29 34  1  0
 31 32  1  0
 31 33  1  6
 35 34  1  6
 35 36  1  0
 35 38  1  0
 36 37  2  0
 36 41  1  0
 38 39  1  0
 38 40  1  1
 41 42  1  0
 41 47  1  0
 42 43  1  1
 42 45  1  0
 43 44  1  0
 43 48  2  0
 45 46  1  0
 46 47  1  0
M  CHG  1   1   1
M  END
$$$$
