
     RDKit          3D

 48 48  0  0  0  0  0  0  0  0999 V2000
    6.0549    6.6491   22.6879 N   0  0  0  0  0  4  0  0  0  0  0  0
    7.4762    6.7660   22.6596 C   0  0  2  0  0  0  0  0  0  0  0  0
    8.0757    5.4957   22.2030 C   0  0  0  0  0  0  0  0  0  0  0  0
    7.9145    4.4129   22.8330 O   0  0  0  0  0  0  0  0  0  0  0  0
    8.0991    7.1063   23.9959 C   0  0  0  0  0  0  0  0  0  0  0  0
    9.5961    7.2179   23.9397 C   0  0  0  0  0  0  0  0  0  0  0  0
    8.8588    5.4796   21.0224 N   0  0  0  0  0  0  0  0  0  0  0  0
    9.3544    4.2262   20.4568 C   0  0  2  0  0  0  0  0  0  0  0  0
   10.5429    3.8134   21.2574 C   0  0  0  0  0  0  0  0  0  0  0  0
   11.1757    4.6761   21.9112 O   0  0  0  0  0  0  0  0  0  0  0  0
    9.8205    4.5164   19.0535 C   0  0  0  0  0  0  0  0  0  0  0  0
   10.9547    2.4644   21.2836 N   0  0  0  0  0  0  0  0  0  0  0  0
   11.9729    2.0314   22.3038 C   0  0  2  0  0  0  0  0  0  0  0  0
   13.0084    1.3768   21.4864 C   0  0  0  0  0  0  0  0  0  0  0  0
   13.4543    0.2408   21.8950 O   0  0  0  0  0  0  0  0  0  0  0  0
   11.2461    1.1305   23.2564 C   0  0  0  0  0  0  0  0  0  0  0  0
   11.9760    0.5697   24.3747 C   0  0  0  0  0  0  0  0  0  0  0  0
   12.2248   -0.6391   24.5256 O   0  0  0  0  0  0  0  0  0  0  0  0
   12.4775    1.3967   25.4146 O   0  0  0  0  0  0  0  0  0  0  0  0
   13.5885    1.8247   20.2968 N   0  0  0  0  0  0  0  0  0  0  0  0
   14.6529    1.0791   19.6193 C   0  0  2  0  0  0  0  0  0  0  0  0
   15.9747    1.6480   20.0572 C   0  0  0  0  0  0  0  0  0  0  0  0
   15.9424    2.5227   20.9678 O   0  0  0  0  0  0  0  0  0  0  0  0
   14.5035    1.1463   18.1325 C   0  0  2  0  0  0  0  0  0  0  0  0
   14.4283    2.5170   17.7955 O   0  0  0  0  0  0  0  0  0  0  0  0
   13.2000    0.5412   17.6866 C   0  0  0  0  0  0  0  0  0  0  0  0
   17.2127    1.2491   19.5023 N   0  0  0  0  0  0  0  0  0  0  0  0
   18.4494    1.8387   20.0020 C   0  0  2  0  0  0  0  0  0  0  0  0
   19.3057    2.2351   18.8816 C   0  0  0  0  0  0  0  0  0  0  0  0
   18.8714    2.0357   17.6994 O   0  0  0  0  0  0  0  0  0  0  0  0
   19.0499    0.9105   20.9994 C   0  0  2  0  0  0  0  0  0  0  0  0
   19.2693   -0.3758   20.5608 O   0  0  0  0  0  0  0  0  0  0  0  0
   18.1802    0.9740   22.2546 C   0  0  0  0  0  0  0  0  0  0  0  0
   20.6046    2.8398   19.0609 N   0  0  0  0  0  0  0  0  0  0  0  0
   21.4505    3.1716   17.9922 C   0  0  2  0  0  0  0  0  0  0  0  0
   22.7642    2.5394   17.9677 C   0  0  0  0  0  0  0  0  0  0  0  0
   23.6177    3.0566   18.8193 O   0  0  0  0  0  0  0  0  0  0  0  0
   21.6150    4.6882   17.8266 C   0  0  2  0  0  0  0  0  0  0  0  0
   21.9458    5.3029   19.0258 O   0  0  0  0  0  0  0  0  0  0  0  0
   20.3791    5.2815   17.1998 C   0  0  0  0  0  0  0  0  0  0  0  0
   23.2707    1.4991   17.2167 N   0  0  0  0  0  0  0  0  0  0  0  0
   24.5857    1.0372   16.9696 C   0  0  2  0  0  0  0  0  0  0  0  0
   25.7312    1.4967   17.6812 C   0  0  0  0  0  0  0  0  0  0  0  0
   27.0063    1.0601   17.5712 O   0  0  0  0  0  0  0  0  0  0  0  0
   24.6343    1.2905   15.4367 C   0  0  0  0  0  0  0  0  0  0  0  0
   23.2872    0.6685   15.0482 C   0  0  0  0  0  0  0  0  0  0  0  0
   22.4571    0.6257   16.3450 C   0  0  0  0  0  0  0  0  0  0  0  0
   25.5404    2.4520   18.5370 O   0  0  0  0  0  0  0  0  0  0  0  0
  2  1  1  1
  2  3  1  0
  2  5  1  0
  3  4  2  0
  3  7  1  0
  5  6  1  0
  7  8  1  0
  8  9  1  0
  8 11  1  6
  9 10  2  0
  9 12  1  0
 12 13  1  0
 13 14  1  0
 13 16  1  1
 14 15  2  0
 14 20  1  0
 16 17  1  0
 17 18  2  0
 17 19  1  0
 21 20  1  1
 21 22  1  0
 21 24  1  0
 22 23  2  0
 22 27  1  0
 24 25  1  0
 24 26  1  1
 28 27  1  6
 28 29  1  0
 28 31  1  0
 29 30  2  0
 29 34  1  0
 31 32  1  0
 31 33  1  1
 35 34  1  1
 35 36  1  0
 35 38  1  0
 36 37  2  0
 36 41  1  0
 38 39  1  0
 38 40  1  1
 41 42  1  0
 41 47  1  0
 42 43  1  1
 42 45  1  0
 43 44  1  0
 43 48  2  0
 45 46  1  0
 46 47  1  0
M  CHG  1   1   1
M  END
$$$$
