
     RDKit          3D

 48 48  0  0  0  0  0  0  0  0999 V2000
    6.6003    5.8093   21.9901 N   0  0  0  0  0  4  0  0  0  0  0  0
    6.8048    4.7237   21.0877 C   0  0  2  0  0  0  0  0  0  0  0  0
    7.7760    3.7699   21.6612 C   0  0  0  0  0  0  0  0  0  0  0  0
    8.0204    2.6547   21.1210 O   0  0  0  0  0  0  0  0  0  0  0  0
    7.3233    5.1349   19.7270 C   0  0  0  0  0  0  0  0  0  0  0  0
    6.4985    6.2107   19.0797 C   0  0  0  0  0  0  0  0  0  0  0  0
    8.4607    4.1062   22.8551 N   0  0  0  0  0  0  0  0  0  0  0  0
    9.3629    3.1581   23.5060 C   0  0  2  0  0  0  0  0  0  0  0  0
   10.7491    3.6884   23.3615 C   0  0  0  0  0  0  0  0  0  0  0  0
   11.0682    4.7484   23.9505 O   0  0  0  0  0  0  0  0  0  0  0  0
    9.2824    1.8609   22.7434 C   0  0  0  0  0  0  0  0  0  0  0  0
   11.6978    3.0061   22.5713 N   0  0  0  0  0  0  0  0  0  0  0  0
   13.1517    3.3749   22.6947 C   0  0  2  0  0  0  0  0  0  0  0  0
   13.8079    2.4769   21.7293 C   0  0  0  0  0  0  0  0  0  0  0  0
   14.1189    1.2963   22.1362 O   0  0  0  0  0  0  0  0  0  0  0  0
   13.5159    3.1457   24.1307 C   0  0  0  0  0  0  0  0  0  0  0  0
   14.8728    3.4224   24.5549 C   0  0  0  0  0  0  0  0  0  0  0  0
   15.3717    3.0446   25.6293 O   0  0  0  0  0  0  0  0  0  0  0  0
   15.7600    4.1730   23.7387 O   0  0  0  0  0  0  0  0  0  0  0  0
   14.1469    2.7308   20.3977 N   0  0  0  0  0  0  0  0  0  0  0  0
   14.8638    1.7522   19.5755 C   0  0  2  0  0  0  0  0  0  0  0  0
   16.2997    2.1887   19.4734 C   0  0  0  0  0  0  0  0  0  0  0  0
   16.5058    3.3835   19.1190 O   0  0  0  0  0  0  0  0  0  0  0  0
   14.2434    1.6202   18.2208 C   0  0  2  0  0  0  0  0  0  0  0  0
   12.9187    1.1713   18.4251 O   0  0  0  0  0  0  0  0  0  0  0  0
   14.9209    0.5475   17.4119 C   0  0  0  0  0  0  0  0  0  0  0  0
   17.3916    1.3347   19.7526 N   0  0  0  0  0  0  0  0  0  0  0  0
   18.7528    1.8467   19.6436 C   0  0  2  0  0  0  0  0  0  0  0  0
   19.3879    1.3308   18.4286 C   0  0  0  0  0  0  0  0  0  0  0  0
   18.8489    0.3285   17.8534 O   0  0  0  0  0  0  0  0  0  0  0  0
   19.4635    1.5852   20.9256 C   0  0  2  0  0  0  0  0  0  0  0  0
   19.6008    0.2600   21.2719 O   0  0  0  0  0  0  0  0  0  0  0  0
   18.7683    2.4160   22.0036 C   0  0  0  0  0  0  0  0  0  0  0  0
   20.5833    1.9085   17.8609 N   0  0  0  0  0  0  0  0  0  0  0  0
   21.2754    1.3353   16.7837 C   0  0  2  0  0  0  0  0  0  0  0  0
   22.6790    1.0052   17.0000 C   0  0  0  0  0  0  0  0  0  0  0  0
   23.3753    1.9773   17.5399 O   0  0  0  0  0  0  0  0  0  0  0  0
   21.1414    2.1613   15.4974 C   0  0  2  0  0  0  0  0  0  0  0  0
   21.8077    3.3745   15.5945 O   0  0  0  0  0  0  0  0  0  0  0  0
   19.6880    2.3323   15.1364 C   0  0  0  0  0  0  0  0  0  0  0  0
   23.4052   -0.1391   16.7435 N   0  0  0  0  0  0  0  0  0  0  0  0
   24.7933   -0.4124   16.6989 C   0  0  2  0  0  0  0  0  0  0  0  0
   25.7927    0.4991   17.1462 C   0  0  0  0  0  0  0  0  0  0  0  0
   26.6337    0.3584   18.1958 O   0  0  0  0  0  0  0  0  0  0  0  0
   24.9027   -0.8040   15.1986 C   0  0  0  0  0  0  0  0  0  0  0  0
   23.7107   -1.7655   15.1143 C   0  0  0  0  0  0  0  0  0  0  0  0
   22.8134   -1.4254   16.3192 C   0  0  0  0  0  0  0  0  0  0  0  0
   25.9235    1.5976   16.4698 O   0  0  0  0  0  0  0  0  0  0  0  0
  2  1  1  1
  2  3  1  0
  2  5  1  0
  3  4  2  0
  3  7  1  0
  5  6  1  0
  7  8  1  0
  8  9  1  0
  8 11  1  6
  9 10  2  0
  9 12  1  0
 12 13  1  0
 13 14  1  0
 13 16  1  1
 14 15  2  0
 14 20  1  0
 16 17  1  0
 17 18  2  0
 17 19  1  0
 21 20  1  1
 21 22  1  0
 21 24  1  0
 22 23  2  0
 22 27  1  0
 24 25  1  0
 24 26  1  6
 28 27  1  1
 28 29  1  0
 28 31  1  0
 29 30  2  0
 29 34  1  0
 31 32  1  0
 31 33  1  1
 35 34  1  1
 35 36  1  0
 35 38  1  0
 36 37  2  0
 36 41  1  0
 38 39  1  0
 38 40  1  1
 41 42  1  0
 41 47  1  0
 42 43  1  6
 42 45  1  0
 43 44  1  0
 43 48  2  0
 45 46  1  0
 46 47  1  0
M  CHG  1   1   1
M  END
$$$$
