
     RDKit          3D

 48 48  0  0  0  0  0  0  0  0999 V2000
    7.2995    2.8130   21.3970 N   0  0  0  0  0  4  0  0  0  0  0  0
    7.0191    4.0790   20.8027 C   0  0  2  0  0  0  0  0  0  0  0  0
    7.1166    5.1446   21.8209 C   0  0  0  0  0  0  0  0  0  0  0  0
    6.1308    5.8724   22.1271 O   0  0  0  0  0  0  0  0  0  0  0  0
    5.6477    4.1798   20.1715 C   0  0  0  0  0  0  0  0  0  0  0  0
    5.4376    5.4598   19.4138 C   0  0  0  0  0  0  0  0  0  0  0  0
    8.3505    5.3665   22.4811 N   0  0  0  0  0  0  0  0  0  0  0  0
    8.5838    4.8784   23.8390 C   0  0  2  0  0  0  0  0  0  0  0  0
   10.0364    4.5629   23.9574 C   0  0  0  0  0  0  0  0  0  0  0  0
   10.7686    5.2882   24.6716 O   0  0  0  0  0  0  0  0  0  0  0  0
    7.8169    3.5906   23.9945 C   0  0  0  0  0  0  0  0  0  0  0  0
   10.5869    3.4578   23.2749 N   0  0  0  0  0  0  0  0  0  0  0  0
   12.0187    3.0763   23.5380 C   0  0  2  0  0  0  0  0  0  0  0  0
   12.6231    3.0982   22.1951 C   0  0  0  0  0  0  0  0  0  0  0  0
   12.3103    2.1442   21.3899 O   0  0  0  0  0  0  0  0  0  0  0  0
   11.9736    1.7306   24.1969 C   0  0  0  0  0  0  0  0  0  0  0  0
   13.2106    1.1534   24.6811 C   0  0  0  0  0  0  0  0  0  0  0  0
   13.9884    1.7072   25.4775 O   0  0  0  0  0  0  0  0  0  0  0  0
   13.6340   -0.1359   24.2626 O   0  0  0  0  0  0  0  0  0  0  0  0
   13.5091    4.0345   21.6560 N   0  0  0  0  0  0  0  0  0  0  0  0
   14.1038    3.8698   20.3267 C   0  0  2  0  0  0  0  0  0  0  0  0
   15.0633    2.7127   20.3832 C   0  0  0  0  0  0  0  0  0  0  0  0
   15.3480    2.2669   21.5302 O   0  0  0  0  0  0  0  0  0  0  0  0
   14.7932    5.1198   19.8797 C   0  0  2  0  0  0  0  0  0  0  0  0
   15.7813    5.4051   20.8495 O   0  0  0  0  0  0  0  0  0  0  0  0
   13.8541    6.2955   19.8915 C   0  0  0  0  0  0  0  0  0  0  0  0
   15.6384    2.1253   19.2326 N   0  0  0  0  0  0  0  0  0  0  0  0
   16.8513    1.3259   19.3617 C   0  0  2  0  0  0  0  0  0  0  0  0
   18.0180    2.1140   18.9580 C   0  0  0  0  0  0  0  0  0  0  0  0
   17.8122    3.2150   18.3484 O   0  0  0  0  0  0  0  0  0  0  0  0
   16.6466    0.0330   18.6520 C   0  0  2  0  0  0  0  0  0  0  0  0
   16.4377    0.1243   17.2944 O   0  0  0  0  0  0  0  0  0  0  0  0
   15.5264   -0.7085   19.3808 C   0  0  0  0  0  0  0  0  0  0  0  0
   19.3758    1.7007   19.2239 N   0  0  0  0  0  0  0  0  0  0  0  0
   20.4968    2.3967   18.7477 C   0  0  2  0  0  0  0  0  0  0  0  0
   21.5988    1.5973   18.2256 C   0  0  0  0  0  0  0  0  0  0  0  0
   22.2295    0.9011   19.1415 O   0  0  0  0  0  0  0  0  0  0  0  0
   21.0404    3.4002   19.7734 C   0  0  2  0  0  0  0  0  0  0  0  0
   20.8368    2.9652   21.0752 O   0  0  0  0  0  0  0  0  0  0  0  0
   20.4542    4.7669   19.5271 C   0  0  0  0  0  0  0  0  0  0  0  0
   22.0959    1.4383   16.9488 N   0  0  0  0  0  0  0  0  0  0  0  0
   23.3000    0.8933   16.4421 C   0  0  2  0  0  0  0  0  0  0  0  0
   24.2298    0.1598   17.2338 C   0  0  0  0  0  0  0  0  0  0  0  0
   25.2487   -0.6203   16.8071 O   0  0  0  0  0  0  0  0  0  0  0  0
   23.8803    2.1811   15.7932 C   0  0  0  0  0  0  0  0  0  0  0  0
   22.6287    2.6579   15.0458 C   0  0  0  0  0  0  0  0  0  0  0  0
   21.4409    1.9537   15.7281 C   0  0  0  0  0  0  0  0  0  0  0  0
   24.0951    0.2471   18.5205 O   0  0  0  0  0  0  0  0  0  0  0  0
  2  1  1  1
  2  3  1  0
  2  5  1  0
  3  4  2  0
  3  7  1  0
  5  6  1  0
  7  8  1  0
  8  9  1  0
  8 11  1  6
  9 10  2  0
  9 12  1  0
 12 13  1  0
 13 14  1  0
 13 16  1  6
 14 15  2  0
 14 20  1  0
 16 17  1  0
 17 18  2  0
 17 19  1  0
 21 20  1  1
 21 22  1  0
 21 24  1  0
 22 23  2  0
 22 27  1  0
 24 25  1  0
 24 26  1  1
 28 27  1  6
 28 29  1  0
 28 31  1  0
 29 30  2  0
 29 34  1  0
 31 32  1  0
 31 33  1  1
 35 34  1  1
 35 36  1  0
 35 38  1  0
 36 37  2  0
 36 41  1  0
 38 39  1  0
 38 40  1  1
 41 42  1  0
 41 47  1  0
 42 43  1  1
 42 45  1  0
 43 44  1  0
 43 48  2  0
 45 46  1  0
 46 47  1  0
M  CHG  1   1   1
M  END
$$$$
