
     RDKit          3D

 48 48  0  0  0  0  0  0  0  0999 V2000
    5.6025    3.2016   26.0768 N   0  0  0  0  0  4  0  0  0  0  0  0
    6.1655    3.5784   24.8215 C   0  0  2  0  0  0  0  0  0  0  0  0
    7.4893    2.9448   24.6542 C   0  0  0  0  0  0  0  0  0  0  0  0
    7.9440    2.1105   25.4863 O   0  0  0  0  0  0  0  0  0  0  0  0
    6.3518    5.0697   24.6458 C   0  0  0  0  0  0  0  0  0  0  0  0
    5.6206    5.8829   25.6757 C   0  0  0  0  0  0  0  0  0  0  0  0
    8.2830    3.2765   23.5284 N   0  0  0  0  0  0  0  0  0  0  0  0
    9.5718    2.6291   23.2906 C   0  0  2  0  0  0  0  0  0  0  0  0
    9.6982    2.4110   21.8208 C   0  0  0  0  0  0  0  0  0  0  0  0
    8.6989    2.5845   21.0836 O   0  0  0  0  0  0  0  0  0  0  0  0
    9.5288    1.2779   23.9564 C   0  0  0  0  0  0  0  0  0  0  0  0
   10.9302    2.0145   21.2594 N   0  0  0  0  0  0  0  0  0  0  0  0
   11.6076    2.9232   20.2692 C   0  0  2  0  0  0  0  0  0  0  0  0
   12.7956    2.1520   19.8655 C   0  0  0  0  0  0  0  0  0  0  0  0
   12.6576    1.3169   18.8962 O   0  0  0  0  0  0  0  0  0  0  0  0
   11.8924    4.1976   21.0053 C   0  0  0  0  0  0  0  0  0  0  0  0
   11.8457    5.4467   20.2736 C   0  0  0  0  0  0  0  0  0  0  0  0
   10.8684    5.8500   19.6193 O   0  0  0  0  0  0  0  0  0  0  0  0
   12.9574    6.3302   20.2550 O   0  0  0  0  0  0  0  0  0  0  0  0
   14.0864    2.2022   20.3980 N   0  0  0  0  0  0  0  0  0  0  0  0
   15.0926    1.1788   20.1013 C   0  0  2  0  0  0  0  0  0  0  0  0
   16.3822    1.5851   20.7604 C   0  0  0  0  0  0  0  0  0  0  0  0
   16.4395    1.4663   22.0166 O   0  0  0  0  0  0  0  0  0  0  0  0
   15.2731    1.0039   18.6267 C   0  0  2  0  0  0  0  0  0  0  0  0
   15.6471    2.2666   18.1129 O   0  0  0  0  0  0  0  0  0  0  0  0
   13.9727    0.6553   17.9548 C   0  0  0  0  0  0  0  0  0  0  0  0
   17.4971    2.0789   20.0444 N   0  0  0  0  0  0  0  0  0  0  0  0
   18.7544    2.3171   20.7439 C   0  0  2  0  0  0  0  0  0  0  0  0
   19.7327    2.9124   19.8306 C   0  0  0  0  0  0  0  0  0  0  0  0
   19.6846    2.5740   18.6021 O   0  0  0  0  0  0  0  0  0  0  0  0
   19.1646    1.0591   21.4268 C   0  0  2  0  0  0  0  0  0  0  0  0
   18.3924   -0.0472   21.1532 O   0  0  0  0  0  0  0  0  0  0  0  0
   19.2590    1.3677   22.9207 C   0  0  0  0  0  0  0  0  0  0  0  0
   20.7344    3.8593   20.2605 N   0  0  0  0  0  0  0  0  0  0  0  0
   21.3294    4.7915   19.3974 C   0  0  2  0  0  0  0  0  0  0  0  0
   22.7421    5.0826   19.6109 C   0  0  0  0  0  0  0  0  0  0  0  0
   23.0041    5.6064   20.7849 O   0  0  0  0  0  0  0  0  0  0  0  0
   20.5452    6.1087   19.3301 C   0  0  2  0  0  0  0  0  0  0  0  0
   20.9857    6.9161   18.2911 O   0  0  0  0  0  0  0  0  0  0  0  0
   20.5917    6.8121   20.6624 C   0  0  0  0  0  0  0  0  0  0  0  0
   23.8494    4.9064   18.8076 N   0  0  0  0  0  0  0  0  0  0  0  0
   25.2142    5.2519   18.9548 C   0  0  2  0  0  0  0  0  0  0  0  0
   25.7828    5.7239   20.1728 C   0  0  0  0  0  0  0  0  0  0  0  0
   25.1382    6.2377   21.2448 O   0  0  0  0  0  0  0  0  0  0  0  0
   25.3307    6.2423   17.7623 C   0  0  0  0  0  0  0  0  0  0  0  0
   24.6438    5.3981   16.6817 C   0  0  0  0  0  0  0  0  0  0  0  0
   23.8075    4.3496   17.4391 C   0  0  0  0  0  0  0  0  0  0  0  0
   27.0732    5.6525   20.2790 O   0  0  0  0  0  0  0  0  0  0  0  0
  2  1  1  1
  2  3  1  0
  2  5  1  0
  3  4  2  0
  3  7  1  0
  5  6  1  0
  7  8  1  0
  8  9  1  0
  8 11  1  1
  9 10  2  0
  9 12  1  0
 12 13  1  0
 13 14  1  0
 13 16  1  1
 14 15  2  0
 14 20  1  0
 16 17  1  0
 17 18  2  0
 17 19  1  0
 21 20  1  6
 21 22  1  0
 21 24  1  0
 22 23  2  0
 22 27  1  0
 24 25  1  0
 24 26  1  6
 28 27  1  6
 28 29  1  0
 28 31  1  0
 29 30  2  0
 29 34  1  0
 31 32  1  0
 31 33  1  1
 35 34  1  1
 35 36  1  0
 35 38  1  0
 36 37  2  0
 36 41  1  0
 38 39  1  0
 38 40  1  1
 41 42  1  0
 41 47  1  0
 42 43  1  1
 42 45  1  0
 43 44  1  0
 43 48  2  0
 45 46  1  0
 46 47  1  0
M  CHG  1   1   1
M  END
$$$$
