
     RDKit          3D

 48 48  0  0  0  0  0  0  0  0999 V2000
   21.5648   -1.5487   23.8698 N   0  0  0  0  0  4  0  0  0  0  0  0
   20.3427   -1.3800   24.5857 C   0  0  2  0  0  0  0  0  0  0  0  0
   19.2088   -1.3341   23.6402 C   0  0  0  0  0  0  0  0  0  0  0  0
   18.0252   -1.1135   24.0219 O   0  0  0  0  0  0  0  0  0  0  0  0
   20.2825   -0.1234   25.4264 C   0  0  0  0  0  0  0  0  0  0  0  0
   21.5857    0.2017   26.0991 C   0  0  0  0  0  0  0  0  0  0  0  0
   19.4448   -1.5431   22.2589 N   0  0  0  0  0  0  0  0  0  0  0  0
   18.3431   -1.5947   21.2996 C   0  0  2  0  0  0  0  0  0  0  0  0
   18.2251   -0.2429   20.6810 C   0  0  0  0  0  0  0  0  0  0  0  0
   17.5152    0.6291   21.2358 O   0  0  0  0  0  0  0  0  0  0  0  0
   17.0793   -1.8596   22.0762 C   0  0  0  0  0  0  0  0  0  0  0  0
   18.9060    0.0578   19.4826 N   0  0  0  0  0  0  0  0  0  0  0  0
   18.7587    1.4306   18.8838 C   0  0  2  0  0  0  0  0  0  0  0  0
   17.4240    1.3836   18.2630 C   0  0  0  0  0  0  0  0  0  0  0  0
   17.3689    1.1828   16.9931 O   0  0  0  0  0  0  0  0  0  0  0  0
   19.9028    1.5897   17.9284 C   0  0  0  0  0  0  0  0  0  0  0  0
   20.0276    2.8333   17.1965 C   0  0  0  0  0  0  0  0  0  0  0  0
   20.7907    3.0159   16.2320 O   0  0  0  0  0  0  0  0  0  0  0  0
   19.2546    3.9726   17.5449 O   0  0  0  0  0  0  0  0  0  0  0  0
   16.1757    1.5268   18.8743 N   0  0  0  0  0  0  0  0  0  0  0  0
   14.9218    1.3840   18.1292 C   0  0  2  0  0  0  0  0  0  0  0  0
   13.7814    1.5985   19.0864 C   0  0  0  0  0  0  0  0  0  0  0  0
   12.6179    1.5848   18.5952 O   0  0  0  0  0  0  0  0  0  0  0  0
   14.8284    0.0436   17.4718 C   0  0  2  0  0  0  0  0  0  0  0  0
   14.9287   -0.9193   18.5017 O   0  0  0  0  0  0  0  0  0  0  0  0
   16.0024   -0.2021   16.5634 C   0  0  0  0  0  0  0  0  0  0  0  0
   13.9619    1.8073   20.4733 N   0  0  0  0  0  0  0  0  0  0  0  0
   12.8487    2.2952   21.2792 C   0  0  2  0  0  0  0  0  0  0  0  0
   12.8742    3.7586   21.3379 C   0  0  0  0  0  0  0  0  0  0  0  0
   14.0035    4.3296   21.4944 O   0  0  0  0  0  0  0  0  0  0  0  0
   12.8565    1.5790   22.5846 C   0  0  2  0  0  0  0  0  0  0  0  0
   13.9755    1.7704   23.3632 O   0  0  0  0  0  0  0  0  0  0  0  0
   12.5770    0.1053   22.2915 C   0  0  0  0  0  0  0  0  0  0  0  0
   11.6857    4.5705   21.2223 N   0  0  0  0  0  0  0  0  0  0  0  0
   11.6386    5.9201   21.6021 C   0  0  2  0  0  0  0  0  0  0  0  0
   12.3206    6.2832   22.8386 C   0  0  0  0  0  0  0  0  0  0  0  0
   11.6492    5.9785   23.9238 O   0  0  0  0  0  0  0  0  0  0  0  0
   10.2058    6.4682   21.6339 C   0  0  2  0  0  0  0  0  0  0  0  0
    9.4216    5.8020   22.5648 O   0  0  0  0  0  0  0  0  0  0  0  0
    9.6052    6.4385   20.2517 C   0  0  0  0  0  0  0  0  0  0  0  0
   13.5393    6.8844   23.0748 N   0  0  0  0  0  0  0  0  0  0  0  0
   14.0099    7.7457   24.0948 C   0  0  2  0  0  0  0  0  0  0  0  0
   13.2872    8.0223   25.2909 C   0  0  0  0  0  0  0  0  0  0  0  0
   13.5200    9.0025   26.1929 O   0  0  0  0  0  0  0  0  0  0  0  0
   14.3117    8.9948   23.2202 C   0  0  0  0  0  0  0  0  0  0  0  0
   15.0799    8.3109   22.0825 C   0  0  0  0  0  0  0  0  0  0  0  0
   14.6933    6.8215   22.1534 C   0  0  0  0  0  0  0  0  0  0  0  0
   12.2794    7.2498   25.5541 O   0  0  0  0  0  0  0  0  0  0  0  0
  2  1  1  6
  2  3  1  0
  2  5  1  0
  3  4  2  0
  3  7  1  0
  5  6  1  0
  7  8  1  0
  8  9  1  0
  8 11  1  1
  9 10  2  0
  9 12  1  0
 12 13  1  0
 13 14  1  0
 13 16  1  6
 14 15  2  0
 14 20  1  0
 16 17  1  0
 17 18  2  0
 17 19  1  0
 21 20  1  1
 21 22  1  0
 21 24  1  0
 22 23  2  0
 22 27  1  0
 24 25  1  0
 24 26  1  6
 28 27  1  6
 28 29  1  0
 28 31  1  0
 29 30  2  0
 29 34  1  0
 31 32  1  0
 31 33  1  6
 35 34  1  1
 35 36  1  0
 35 38  1  0
 36 37  2  0
 36 41  1  0
 38 39  1  0
 38 40  1  6
 41 42  1  0
 41 47  1  0
 42 43  1  1
 42 45  1  0
 43 44  1  0
 43 48  2  0
 45 46  1  0
 46 47  1  0
M  CHG  1   1   1
M  END
$$$$
