
     RDKit          3D

 48 48  0  0  0  0  0  0  0  0999 V2000
    9.2641    3.3599   26.8891 N   0  0  0  0  0  4  0  0  0  0  0  0
    7.9083    3.7819   27.0237 C   0  0  2  0  0  0  0  0  0  0  0  0
    7.4544    4.4208   25.7717 C   0  0  0  0  0  0  0  0  0  0  0  0
    6.2465    4.7350   25.5782 O   0  0  0  0  0  0  0  0  0  0  0  0
    7.6723    4.7682   28.1467 C   0  0  0  0  0  0  0  0  0  0  0  0
    6.2507    4.7836   28.6319 C   0  0  0  0  0  0  0  0  0  0  0  0
    8.3953    4.6940   24.7482 N   0  0  0  0  0  0  0  0  0  0  0  0
    9.3434    5.8004   24.8638 C   0  0  2  0  0  0  0  0  0  0  0  0
   10.2170    5.7689   23.6556 C   0  0  0  0  0  0  0  0  0  0  0  0
   11.3145    6.3752   23.6724 O   0  0  0  0  0  0  0  0  0  0  0  0
   10.2090    5.5302   26.0673 C   0  0  0  0  0  0  0  0  0  0  0  0
    9.8173    5.0628   22.5016 N   0  0  0  0  0  0  0  0  0  0  0  0
   10.4098    3.7054   22.2343 C   0  0  2  0  0  0  0  0  0  0  0  0
   11.5516    4.0060   21.3541 C   0  0  0  0  0  0  0  0  0  0  0  0
   11.6115    5.1864   20.8449 O   0  0  0  0  0  0  0  0  0  0  0  0
    9.3164    2.8932   21.6082 C   0  0  0  0  0  0  0  0  0  0  0  0
    8.1714    2.5303   22.4176 C   0  0  0  0  0  0  0  0  0  0  0  0
    8.1330    2.5870   23.6590 O   0  0  0  0  0  0  0  0  0  0  0  0
    6.9674    2.0680   21.8231 O   0  0  0  0  0  0  0  0  0  0  0  0
   12.6090    3.1700   20.9861 N   0  0  0  0  0  0  0  0  0  0  0  0
   13.6570    3.6013   20.0570 C   0  0  2  0  0  0  0  0  0  0  0  0
   14.6238    2.4625   19.8804 C   0  0  0  0  0  0  0  0  0  0  0  0
   14.3280    1.3737   20.4481 O   0  0  0  0  0  0  0  0  0  0  0  0
   14.3544    4.8278   20.5539 C   0  0  2  0  0  0  0  0  0  0  0  0
   14.9375    4.4861   21.7953 O   0  0  0  0  0  0  0  0  0  0  0  0
   13.3749    5.9311   20.8495 C   0  0  0  0  0  0  0  0  0  0  0  0
   15.8142    2.5660   19.1241 N   0  0  0  0  0  0  0  0  0  0  0  0
   16.6081    1.3708   18.8633 C   0  0  2  0  0  0  0  0  0  0  0  0
   17.8609    1.7351   18.1975 C   0  0  0  0  0  0  0  0  0  0  0  0
   18.1451    2.9742   18.0982 O   0  0  0  0  0  0  0  0  0  0  0  0
   15.7512    0.3737   18.1643 C   0  0  2  0  0  0  0  0  0  0  0  0
   15.3864    0.6987   16.8773 O   0  0  0  0  0  0  0  0  0  0  0  0
   14.5543    0.0931   19.0722 C   0  0  0  0  0  0  0  0  0  0  0  0
   18.7780    0.7580   17.6598 N   0  0  0  0  0  0  0  0  0  0  0  0
   19.9906    1.1014   17.0437 C   0  0  2  0  0  0  0  0  0  0  0  0
   20.8017    0.0068   16.5243 C   0  0  0  0  0  0  0  0  0  0  0  0
   21.3049   -0.7687   17.4553 O   0  0  0  0  0  0  0  0  0  0  0  0
   20.8618    2.0012   17.9303 C   0  0  2  0  0  0  0  0  0  0  0  0
   21.2416    1.3574   19.0993 O   0  0  0  0  0  0  0  0  0  0  0  0
   20.1593    3.3078   18.1972 C   0  0  0  0  0  0  0  0  0  0  0  0
   21.1335   -0.3622   15.2373 N   0  0  0  0  0  0  0  0  0  0  0  0
   21.9790   -1.3665   14.7081 C   0  0  2  0  0  0  0  0  0  0  0  0
   22.5516   -2.4102   15.4905 C   0  0  0  0  0  0  0  0  0  0  0  0
   22.5550   -3.7369   15.2287 O   0  0  0  0  0  0  0  0  0  0  0  0
   23.0149   -0.4468   14.0026 C   0  0  0  0  0  0  0  0  0  0  0  0
   22.0451    0.4983   13.2825 C   0  0  0  0  0  0  0  0  0  0  0  0
   20.7017    0.3629   14.0238 C   0  0  0  0  0  0  0  0  0  0  0  0
   23.1483   -2.0562   16.5861 O   0  0  0  0  0  0  0  0  0  0  0  0
  2  1  1  6
  2  3  1  0
  2  5  1  0
  3  4  2  0
  3  7  1  0
  5  6  1  0
  7  8  1  0
  8  9  1  0
  8 11  1  1
  9 10  2  0
  9 12  1  0
 12 13  1  0
 13 14  1  0
 13 16  1  6
 14 15  2  0
 14 20  1  0
 16 17  1  0
 17 18  2  0
 17 19  1  0
 21 20  1  1
 21 22  1  0
 21 24  1  0
 22 23  2  0
 22 27  1  0
 24 25  1  0
 24 26  1  1
 28 27  1  6
 28 29  1  0
 28 31  1  0
 29 30  2  0
 29 34  1  0
 31 32  1  0
 31 33  1  1
 35 34  1  1
 35 36  1  0
 35 38  1  0
 36 37  2  0
 36 41  1  0
 38 39  1  0
 38 40  1  1
 41 42  1  0
 41 47  1  0
 42 43  1  1
 42 45  1  0
 43 44  1  0
 43 48  2  0
 45 46  1  0
 46 47  1  0
M  CHG  1   1   1
M  END
$$$$
