
     RDKit          3D

 48 48  0  0  0  0  0  0  0  0999 V2000
    7.7069   -0.2192   25.9384 N   0  0  0  0  0  4  0  0  0  0  0  0
    8.8460    0.4774   25.4367 C   0  0  2  0  0  0  0  0  0  0  0  0
    8.4485    1.3432   24.3079 C   0  0  0  0  0  0  0  0  0  0  0  0
    7.6055    0.9735   23.4430 O   0  0  0  0  0  0  0  0  0  0  0  0
    9.9596   -0.4224   24.9469 C   0  0  0  0  0  0  0  0  0  0  0  0
   10.4880   -1.3425   26.0103 C   0  0  0  0  0  0  0  0  0  0  0  0
    9.0249    2.6312   24.1812 N   0  0  0  0  0  0  0  0  0  0  0  0
    8.6509    3.5265   23.0879 C   0  0  2  0  0  0  0  0  0  0  0  0
    9.9113    4.0606   22.4963 C   0  0  0  0  0  0  0  0  0  0  0  0
   10.9038    4.2595   23.2362 O   0  0  0  0  0  0  0  0  0  0  0  0
    7.8959    4.6837   23.6893 C   0  0  0  0  0  0  0  0  0  0  0  0
    9.9918    4.3397   21.1158 N   0  0  0  0  0  0  0  0  0  0  0  0
   11.2057    5.0534   20.5847 C   0  0  2  0  0  0  0  0  0  0  0  0
   12.2991    4.1070   20.8635 C   0  0  0  0  0  0  0  0  0  0  0  0
   13.0455    4.3492   21.8835 O   0  0  0  0  0  0  0  0  0  0  0  0
   11.2796    6.3528   21.3285 C   0  0  0  0  0  0  0  0  0  0  0  0
   10.9242    7.5720   20.6321 C   0  0  0  0  0  0  0  0  0  0  0  0
   10.7804    8.6823   21.1729 O   0  0  0  0  0  0  0  0  0  0  0  0
   10.7087    7.5812   19.2285 O   0  0  0  0  0  0  0  0  0  0  0  0
   12.6483    2.9510   20.1606 N   0  0  0  0  0  0  0  0  0  0  0  0
   13.8257    2.1515   20.5104 C   0  0  2  0  0  0  0  0  0  0  0  0
   14.9597    2.5719   19.6160 C   0  0  0  0  0  0  0  0  0  0  0  0
   14.9193    3.7508   19.1644 O   0  0  0  0  0  0  0  0  0  0  0  0
   13.5491    0.6875   20.3775 C   0  0  2  0  0  0  0  0  0  0  0  0
   13.2246    0.4592   19.0208 O   0  0  0  0  0  0  0  0  0  0  0  0
   12.3304    0.2883   21.1645 C   0  0  0  0  0  0  0  0  0  0  0  0
   16.0354    1.7197   19.2750 N   0  0  0  0  0  0  0  0  0  0  0  0
   17.1214    2.2275   18.4447 C   0  0  2  0  0  0  0  0  0  0  0  0
   18.0378    1.1396   18.0954 C   0  0  0  0  0  0  0  0  0  0  0  0
   18.6867    0.5799   19.0397 O   0  0  0  0  0  0  0  0  0  0  0  0
   17.7232    3.4104   19.1198 C   0  0  2  0  0  0  0  0  0  0  0  0
   18.3037    3.1673   20.3441 O   0  0  0  0  0  0  0  0  0  0  0  0
   16.6472    4.4945   19.1730 C   0  0  0  0  0  0  0  0  0  0  0  0
   18.2298    0.6783   16.7406 N   0  0  0  0  0  0  0  0  0  0  0  0
   19.1811   -0.2904   16.3875 C   0  0  2  0  0  0  0  0  0  0  0  0
   20.5456   -0.0786   16.8556 C   0  0  0  0  0  0  0  0  0  0  0  0
   20.9508    1.1658   16.7634 O   0  0  0  0  0  0  0  0  0  0  0  0
   19.2003   -0.5671   14.8783 C   0  0  2  0  0  0  0  0  0  0  0  0
   19.6640    0.5267   14.1615 O   0  0  0  0  0  0  0  0  0  0  0  0
   17.8405   -1.0225   14.4141 C   0  0  0  0  0  0  0  0  0  0  0  0
   21.4839   -0.9443   17.3778 N   0  0  0  0  0  0  0  0  0  0  0  0
   22.8186   -1.2519   17.0206 C   0  0  2  0  0  0  0  0  0  0  0  0
   23.5756   -0.5034   16.0739 C   0  0  0  0  0  0  0  0  0  0  0  0
   24.2679   -0.9701   15.0102 O   0  0  0  0  0  0  0  0  0  0  0  0
   22.6181   -2.7478   16.6481 C   0  0  0  0  0  0  0  0  0  0  0  0
   21.8025   -3.1915   17.8688 C   0  0  0  0  0  0  0  0  0  0  0  0
   21.2187   -1.9006   18.4731 C   0  0  0  0  0  0  0  0  0  0  0  0
   23.6077    0.7822   16.2401 O   0  0  0  0  0  0  0  0  0  0  0  0
  2  1  1  6
  2  3  1  0
  2  5  1  0
  3  4  2  0
  3  7  1  0
  5  6  1  0
  7  8  1  0
  8  9  1  0
  8 11  1  1
  9 10  2  0
  9 12  1  0
 12 13  1  0
 13 14  1  0
 13 16  1  1
 14 15  2  0
 14 20  1  0
 16 17  1  0
 17 18  2  0
 17 19  1  0
 21 20  1  6
 21 22  1  0
 21 24  1  0
 22 23  2  0
 22 27  1  0
 24 25  1  0
 24 26  1  1
 28 27  1  1
 28 29  1  0
 28 31  1  0
 29 30  2  0
 29 34  1  0
 31 32  1  0
 31 33  1  1
 35 34  1  6
 35 36  1  0
 35 38  1  0
 36 37  2  0
 36 41  1  0
 38 39  1  0
 38 40  1  6
 41 42  1  0
 41 47  1  0
 42 43  1  6
 42 45  1  0
 43 44  1  0
 43 48  2  0
 45 46  1  0
 46 47  1  0
M  CHG  1   1   1
M  END
$$$$
