
     RDKit          3D

 48 48  0  0  0  0  0  0  0  0999 V2000
    5.9534    6.2559   24.3074 N   0  0  0  0  0  4  0  0  0  0  0  0
    6.9379    6.1219   25.3308 C   0  0  2  0  0  0  0  0  0  0  0  0
    7.7525    4.9137   25.0890 C   0  0  0  0  0  0  0  0  0  0  0  0
    8.6704    4.5541   25.8786 O   0  0  0  0  0  0  0  0  0  0  0  0
    6.3707    6.0132   26.7293 C   0  0  0  0  0  0  0  0  0  0  0  0
    7.4285    5.8995   27.7899 C   0  0  0  0  0  0  0  0  0  0  0  0
    7.5054    4.1259   23.9377 N   0  0  0  0  0  0  0  0  0  0  0  0
    7.9940    2.7518   23.8385 C   0  0  2  0  0  0  0  0  0  0  0  0
    8.9808    2.7077   22.7213 C   0  0  0  0  0  0  0  0  0  0  0  0
    9.3291    1.5992   22.2498 O   0  0  0  0  0  0  0  0  0  0  0  0
    6.8241    1.8823   23.4565 C   0  0  0  0  0  0  0  0  0  0  0  0
    9.5196    3.9003   22.1947 N   0  0  0  0  0  0  0  0  0  0  0  0
   10.1879    3.8669   20.8466 C   0  0  2  0  0  0  0  0  0  0  0  0
   11.4798    3.2189   21.1294 C   0  0  0  0  0  0  0  0  0  0  0  0
   11.8851    3.2152   22.3509 O   0  0  0  0  0  0  0  0  0  0  0  0
   10.2738    5.2929   20.3924 C   0  0  0  0  0  0  0  0  0  0  0  0
    9.0733    5.9384   19.9026 C   0  0  0  0  0  0  0  0  0  0  0  0
    8.6032    6.9979   20.3523 O   0  0  0  0  0  0  0  0  0  0  0  0
    8.3237    5.3825   18.8322 O   0  0  0  0  0  0  0  0  0  0  0  0
   12.3497    2.5880   20.2362 N   0  0  0  0  0  0  0  0  0  0  0  0
   13.6569    2.0731   20.6532 C   0  0  2  0  0  0  0  0  0  0  0  0
   14.7064    2.6892   19.7692 C   0  0  0  0  0  0  0  0  0  0  0  0
   14.3017    3.2411   18.7076 O   0  0  0  0  0  0  0  0  0  0  0  0
   13.7019    0.5796   20.5823 C   0  0  2  0  0  0  0  0  0  0  0  0
   14.0290    0.2482   19.2477 O   0  0  0  0  0  0  0  0  0  0  0  0
   12.3451   -0.0202   20.8341 C   0  0  0  0  0  0  0  0  0  0  0  0
   16.0866    2.6726   20.0767 N   0  0  0  0  0  0  0  0  0  0  0  0
   17.0377    3.2797   19.1528 C   0  0  2  0  0  0  0  0  0  0  0  0
   18.1382    2.3516   18.8827 C   0  0  0  0  0  0  0  0  0  0  0  0
   18.7408    1.8344   19.8804 O   0  0  0  0  0  0  0  0  0  0  0  0
   17.4155    4.6227   19.6732 C   0  0  2  0  0  0  0  0  0  0  0  0
   16.3696    5.4843   19.9155 O   0  0  0  0  0  0  0  0  0  0  0  0
   18.4565    5.2005   18.7150 C   0  0  0  0  0  0  0  0  0  0  0  0
   18.5597    1.9998   17.5471 N   0  0  0  0  0  0  0  0  0  0  0  0
   19.6429    1.1482   17.2838 C   0  0  2  0  0  0  0  0  0  0  0  0
   20.9743    1.7415   17.3192 C   0  0  0  0  0  0  0  0  0  0  0  0
   21.0986    2.8107   16.5691 O   0  0  0  0  0  0  0  0  0  0  0  0
   19.4692    0.3708   15.9723 C   0  0  2  0  0  0  0  0  0  0  0  0
   19.3868    1.2207   14.8786 O   0  0  0  0  0  0  0  0  0  0  0  0
   18.2849   -0.5566   16.0686 C   0  0  0  0  0  0  0  0  0  0  0  0
   22.1221    1.3862   17.9966 N   0  0  0  0  0  0  0  0  0  0  0  0
   23.4984    1.4759   17.6780 C   0  0  2  0  0  0  0  0  0  0  0  0
   24.0054    2.2015   16.5618 C   0  0  0  0  0  0  0  0  0  0  0  0
   24.9866    3.1319   16.5536 O   0  0  0  0  0  0  0  0  0  0  0  0
   23.8310   -0.0426   17.6650 C   0  0  0  0  0  0  0  0  0  0  0  0
   23.1530   -0.4477   18.9798 C   0  0  0  0  0  0  0  0  0  0  0  0
   22.1403    0.6708   19.2898 C   0  0  0  0  0  0  0  0  0  0  0  0
   23.4717    1.9432   15.4085 O   0  0  0  0  0  0  0  0  0  0  0  0
  2  1  1  6
  2  3  1  0
  2  5  1  0
  3  4  2  0
  3  7  1  0
  5  6  1  0
  7  8  1  0
  8  9  1  0
  8 11  1  6
  9 10  2  0
  9 12  1  0
 12 13  1  0
 13 14  1  0
 13 16  1  1
 14 15  2  0
 14 20  1  0
 16 17  1  0
 17 18  2  0
 17 19  1  0
 21 20  1  6
 21 22  1  0
 21 24  1  0
 22 23  2  0
 22 27  1  0
 24 25  1  0
 24 26  1  6
 28 27  1  1
 28 29  1  0
 28 31  1  0
 29 30  2  0
 29 34  1  0
 31 32  1  0
 31 33  1  6
 35 34  1  6
 35 36  1  0
 35 38  1  0
 36 37  2  0
 36 41  1  0
 38 39  1  0
 38 40  1  1
 41 42  1  0
 41 47  1  0
 42 43  1  6
 42 45  1  0
 43 44  1  0
 43 48  2  0
 45 46  1  0
 46 47  1  0
M  CHG  1   1   1
M  END
$$$$
