
     RDKit          3D

 48 48  0  0  0  0  0  0  0  0999 V2000
    7.5687    7.0570   25.0230 N   0  0  0  0  0  4  0  0  0  0  0  0
    6.5383    6.1587   24.6161 C   0  0  2  0  0  0  0  0  0  0  0  0
    7.1247    5.0254   23.8721 C   0  0  0  0  0  0  0  0  0  0  0  0
    7.1192    3.8479   24.3290 O   0  0  0  0  0  0  0  0  0  0  0  0
    5.4821    6.7834   23.7309 C   0  0  0  0  0  0  0  0  0  0  0  0
    5.1697    8.2066   24.0964 C   0  0  0  0  0  0  0  0  0  0  0  0
    7.7153    5.2550   22.6048 N   0  0  0  0  0  0  0  0  0  0  0  0
    8.2238    4.1511   21.7928 C   0  0  2  0  0  0  0  0  0  0  0  0
    9.7012    4.0956   21.9885 C   0  0  0  0  0  0  0  0  0  0  0  0
   10.3483    5.1634   22.1040 O   0  0  0  0  0  0  0  0  0  0  0  0
    7.9614    4.4936   20.3490 C   0  0  0  0  0  0  0  0  0  0  0  0
   10.3694    2.8546   22.0458 N   0  0  0  0  0  0  0  0  0  0  0  0
   11.8403    2.8312   22.3635 C   0  0  2  0  0  0  0  0  0  0  0  0
   12.4639    2.6177   21.0465 C   0  0  0  0  0  0  0  0  0  0  0  0
   11.7944    1.9457   20.1769 O   0  0  0  0  0  0  0  0  0  0  0  0
   12.0325    1.7188   23.3498 C   0  0  0  0  0  0  0  0  0  0  0  0
   13.3029    1.6131   24.0373 C   0  0  0  0  0  0  0  0  0  0  0  0
   13.6033    0.7115   24.8391 O   0  0  0  0  0  0  0  0  0  0  0  0
   14.3321    2.5699   23.8323 O   0  0  0  0  0  0  0  0  0  0  0  0
   13.7114    3.0556   20.5943 N   0  0  0  0  0  0  0  0  0  0  0  0
   14.3161    2.5464   19.3603 C   0  0  2  0  0  0  0  0  0  0  0  0
   15.6745    1.9953   19.6974 C   0  0  0  0  0  0  0  0  0  0  0  0
   15.8739    1.6751   20.9028 O   0  0  0  0  0  0  0  0  0  0  0  0
   14.4120    3.6160   18.3190 C   0  0  2  0  0  0  0  0  0  0  0  0
   15.2819    4.6041   18.8337 O   0  0  0  0  0  0  0  0  0  0  0  0
   13.0874    4.3002   18.1153 C   0  0  0  0  0  0  0  0  0  0  0  0
   16.7028    1.8282   18.7411 N   0  0  0  0  0  0  0  0  0  0  0  0
   17.6631    0.7420   18.8983 C   0  0  2  0  0  0  0  0  0  0  0  0
   18.6664    0.8001   17.8327 C   0  0  0  0  0  0  0  0  0  0  0  0
   19.3556   -0.2482   17.6046 O   0  0  0  0  0  0  0  0  0  0  0  0
   16.9150   -0.5381   19.0357 C   0  0  2  0  0  0  0  0  0  0  0  0
   16.1832   -0.9224   17.9348 O   0  0  0  0  0  0  0  0  0  0  0  0
   16.0729   -0.4336   20.3067 C   0  0  0  0  0  0  0  0  0  0  0  0
   18.8999    1.9821   17.0369 N   0  0  0  0  0  0  0  0  0  0  0  0
   20.1824    2.4313   16.6883 C   0  0  2  0  0  0  0  0  0  0  0  0
   21.3062    1.5851   17.0715 C   0  0  0  0  0  0  0  0  0  0  0  0
   21.4169    1.4045   18.3663 O   0  0  0  0  0  0  0  0  0  0  0  0
   20.4460    3.8678   17.1589 C   0  0  2  0  0  0  0  0  0  0  0  0
   21.6165    4.3791   16.6167 O   0  0  0  0  0  0  0  0  0  0  0  0
   20.4349    3.9336   18.6648 C   0  0  0  0  0  0  0  0  0  0  0  0
   22.2694    0.9405   16.3237 N   0  0  0  0  0  0  0  0  0  0  0  0
   23.6794    0.8653   16.4233 C   0  0  2  0  0  0  0  0  0  0  0  0
   24.4184    1.3371   17.5461 C   0  0  0  0  0  0  0  0  0  0  0  0
   24.6423    0.7013   18.7184 O   0  0  0  0  0  0  0  0  0  0  0  0
   24.0421    1.5533   15.0773 C   0  0  0  0  0  0  0  0  0  0  0  0
   23.0823    0.7932   14.1534 C   0  0  0  0  0  0  0  0  0  0  0  0
   21.9984    0.2004   15.0733 C   0  0  0  0  0  0  0  0  0  0  0  0
   24.9487    2.5157   17.4405 O   0  0  0  0  0  0  0  0  0  0  0  0
  2  1  1  6
  2  3  1  0
  2  5  1  0
  3  4  2  0
  3  7  1  0
  5  6  1  0
  7  8  1  0
  8  9  1  0
  8 11  1  6
  9 10  2  0
  9 12  1  0
 12 13  1  0
 13 14  1  0
 13 16  1  1
 14 15  2  0
 14 20  1  0
 16 17  1  0
 17 18  2  0
 17 19  1  0
 21 20  1  1
 21 22  1  0
 21 24  1  0
 22 23  2  0
 22 27  1  0
 24 25  1  0
 24 26  1  1
 28 27  1  6
 28 29  1  0
 28 31  1  0
 29 30  2  0
 29 34  1  0
 31 32  1  0
 31 33  1  1
 35 34  1  1
 35 36  1  0
 35 38  1  0
 36 37  2  0
 36 41  1  0
 38 39  1  0
 38 40  1  1
 41 42  1  0
 41 47  1  0
 42 43  1  1
 42 45  1  0
 43 44  1  0
 43 48  2  0
 45 46  1  0
 46 47  1  0
M  CHG  1   1   1
M  END
$$$$
