
     RDKit          3D

 48 48  0  0  0  0  0  0  0  0999 V2000
    9.0714    2.5296   22.5804 N   0  0  0  0  0  4  0  0  0  0  0  0
    8.7340    3.7811   21.9848 C   0  0  2  0  0  0  0  0  0  0  0  0
    9.7042    4.1087   20.9204 C   0  0  0  0  0  0  0  0  0  0  0  0
    9.6184    5.1672   20.2367 O   0  0  0  0  0  0  0  0  0  0  0  0
    8.7126    4.9446   22.9519 C   0  0  0  0  0  0  0  0  0  0  0  0
    8.3308    6.2453   22.3045 C   0  0  0  0  0  0  0  0  0  0  0  0
   10.7688    3.2141   20.6488 N   0  0  0  0  0  0  0  0  0  0  0  0
   11.8315    3.5618   19.7073 C   0  0  2  0  0  0  0  0  0  0  0  0
   12.7486    2.3895   19.6151 C   0  0  0  0  0  0  0  0  0  0  0  0
   12.9399    1.6753   20.6278 O   0  0  0  0  0  0  0  0  0  0  0  0
   12.6060    4.7089   20.3032 C   0  0  0  0  0  0  0  0  0  0  0  0
   13.3964    2.0813   18.4005 N   0  0  0  0  0  0  0  0  0  0  0  0
   14.2552    0.8477   18.3234 C   0  0  2  0  0  0  0  0  0  0  0  0
   15.5772    1.3328   18.7546 C   0  0  0  0  0  0  0  0  0  0  0  0
   16.3811    0.4741   19.2766 O   0  0  0  0  0  0  0  0  0  0  0  0
   14.1788    0.3791   16.9015 C   0  0  0  0  0  0  0  0  0  0  0  0
   14.9903   -0.7510   16.4990 C   0  0  0  0  0  0  0  0  0  0  0  0
   15.6756   -0.7996   15.4627 O   0  0  0  0  0  0  0  0  0  0  0  0
   15.0612   -1.9258   17.2938 O   0  0  0  0  0  0  0  0  0  0  0  0
   16.0974    2.6271   18.6723 N   0  0  0  0  0  0  0  0  0  0  0  0
   17.4465    2.9564   19.1405 C   0  0  2  0  0  0  0  0  0  0  0  0
   17.3683    3.2722   20.6091 C   0  0  0  0  0  0  0  0  0  0  0  0
   16.2262    3.5542   21.0689 O   0  0  0  0  0  0  0  0  0  0  0  0
   18.0246    4.1029   18.3730 C   0  0  2  0  0  0  0  0  0  0  0  0
   17.1434    5.1937   18.5513 O   0  0  0  0  0  0  0  0  0  0  0  0
   18.0357    3.8206   16.8951 C   0  0  0  0  0  0  0  0  0  0  0  0
   18.4938    3.2635   21.4652 N   0  0  0  0  0  0  0  0  0  0  0  0
   18.3284    3.5947   22.8757 C   0  0  2  0  0  0  0  0  0  0  0  0
   18.9131    4.9082   23.1554 C   0  0  0  0  0  0  0  0  0  0  0  0
   18.9906    5.7434   22.1949 O   0  0  0  0  0  0  0  0  0  0  0  0
   18.8319    2.4569   23.6937 C   0  0  2  0  0  0  0  0  0  0  0  0
   20.1334    2.0789   23.4526 O   0  0  0  0  0  0  0  0  0  0  0  0
   17.8360    1.3092   23.5304 C   0  0  0  0  0  0  0  0  0  0  0  0
   19.3954    5.2917   24.4613 N   0  0  0  0  0  0  0  0  0  0  0  0
   19.9346    6.5566   24.7390 C   0  0  2  0  0  0  0  0  0  0  0  0
   20.4262    6.7832   26.0929 C   0  0  0  0  0  0  0  0  0  0  0  0
   19.4770    6.8681   26.9945 O   0  0  0  0  0  0  0  0  0  0  0  0
   18.9837    7.6957   24.3480 C   0  0  2  0  0  0  0  0  0  0  0  0
   18.5626    7.5837   23.0306 O   0  0  0  0  0  0  0  0  0  0  0  0
   19.6231    9.0303   24.6343 C   0  0  0  0  0  0  0  0  0  0  0  0
   21.7026    6.9218   26.5971 N   0  0  0  0  0  0  0  0  0  0  0  0
   22.2047    7.2117   27.8884 C   0  0  2  0  0  0  0  0  0  0  0  0
   21.4004    7.2253   29.0641 C   0  0  0  0  0  0  0  0  0  0  0  0
   21.3358    8.1857   30.0139 O   0  0  0  0  0  0  0  0  0  0  0  0
   22.8997    8.5645   27.5667 C   0  0  0  0  0  0  0  0  0  0  0  0
   23.6484    8.1524   26.2931 C   0  0  0  0  0  0  0  0  0  0  0  0
   22.9318    6.8904   25.7769 C   0  0  0  0  0  0  0  0  0  0  0  0
   20.6296    6.2000   29.2541 O   0  0  0  0  0  0  0  0  0  0  0  0
  2  1  1  1
  2  3  1  0
  2  5  1  0
  3  4  2  0
  3  7  1  0
  5  6  1  0
  7  8  1  0
  8  9  1  0
  8 11  1  1
  9 10  2  0
  9 12  1  0
 12 13  1  0
 13 14  1  0
 13 16  1  6
 14 15  2  0
 14 20  1  0
 16 17  1  0
 17 18  2  0
 17 19  1  0
 21 20  1  6
 21 22  1  0
 21 24  1  0
 22 23  2  0
 22 27  1  0
 24 25  1  0
 24 26  1  6
 28 27  1  6
 28 29  1  0
 28 31  1  0
 29 30  2  0
 29 34  1  0
 31 32  1  0
 31 33  1  6
 35 34  1  1
 35 36  1  0
 35 38  1  0
 36 37  2  0
 36 41  1  0
 38 39  1  0
 38 40  1  6
 41 42  1  0
 41 47  1  0
 42 43  1  1
 42 45  1  0
 43 44  1  0
 43 48  2  0
 45 46  1  0
 46 47  1  0
M  CHG  1   1   1
M  END
$$$$
