
     RDKit          3D

 48 48  0  0  0  0  0  0  0  0999 V2000
    8.0438    6.1229   25.3924 N   0  0  0  0  0  4  0  0  0  0  0  0
    7.6300    4.8127   25.7751 C   0  0  2  0  0  0  0  0  0  0  0  0
    7.6856    3.9077   24.6091 C   0  0  0  0  0  0  0  0  0  0  0  0
    7.4460    2.6715   24.7069 O   0  0  0  0  0  0  0  0  0  0  0  0
    6.2265    4.7425   26.3362 C   0  0  0  0  0  0  0  0  0  0  0  0
    5.7930    3.3442   26.6732 C   0  0  0  0  0  0  0  0  0  0  0  0
    8.0178    4.4321   23.3355 N   0  0  0  0  0  0  0  0  0  0  0  0
    8.0152    3.5878   22.1423 C   0  0  2  0  0  0  0  0  0  0  0  0
    9.3553    3.7162   21.5007 C   0  0  0  0  0  0  0  0  0  0  0  0
    9.7157    2.8677   20.6508 O   0  0  0  0  0  0  0  0  0  0  0  0
    6.9915    4.1521   21.1913 C   0  0  0  0  0  0  0  0  0  0  0  0
   10.2132    4.7826   21.8424 N   0  0  0  0  0  0  0  0  0  0  0  0
   11.3125    5.1693   20.8900 C   0  0  2  0  0  0  0  0  0  0  0  0
   12.2141    4.0054   20.9292 C   0  0  0  0  0  0  0  0  0  0  0  0
   12.4601    3.4860   22.0806 O   0  0  0  0  0  0  0  0  0  0  0  0
   11.8918    6.4449   21.4235 C   0  0  0  0  0  0  0  0  0  0  0  0
   13.0095    7.0449   20.7245 C   0  0  0  0  0  0  0  0  0  0  0  0
   13.6113    8.0681   21.0942 O   0  0  0  0  0  0  0  0  0  0  0  0
   13.5136    6.4811   19.5225 O   0  0  0  0  0  0  0  0  0  0  0  0
   12.8548    3.3662   19.8645 N   0  0  0  0  0  0  0  0  0  0  0  0
   13.9274    2.3897   20.0731 C   0  0  2  0  0  0  0  0  0  0  0  0
   15.0471    2.7141   19.1225 C   0  0  0  0  0  0  0  0  0  0  0  0
   14.7162    3.0962   17.9649 O   0  0  0  0  0  0  0  0  0  0  0  0
   13.4375    0.9909   19.8709 C   0  0  2  0  0  0  0  0  0  0  0  0
   12.8142    0.9605   18.6026 O   0  0  0  0  0  0  0  0  0  0  0  0
   12.3641    0.6391   20.8650 C   0  0  0  0  0  0  0  0  0  0  0  0
   16.4140    2.6099   19.4698 N   0  0  0  0  0  0  0  0  0  0  0  0
   17.4352    2.9439   18.4837 C   0  0  2  0  0  0  0  0  0  0  0  0
   18.3177    1.7954   18.2654 C   0  0  0  0  0  0  0  0  0  0  0  0
   18.9294    1.3129   19.2749 O   0  0  0  0  0  0  0  0  0  0  0  0
   18.0918    4.2166   18.8913 C   0  0  2  0  0  0  0  0  0  0  0  0
   18.8170    4.1660   20.0603 O   0  0  0  0  0  0  0  0  0  0  0  0
   17.0110    5.2971   18.9045 C   0  0  0  0  0  0  0  0  0  0  0  0
   18.5162    1.1922   16.9686 N   0  0  0  0  0  0  0  0  0  0  0  0
   19.7784    0.8267   16.4776 C   0  0  2  0  0  0  0  0  0  0  0  0
   20.8829    0.8243   17.4295 C   0  0  0  0  0  0  0  0  0  0  0  0
   21.3053    2.0231   17.7548 O   0  0  0  0  0  0  0  0  0  0  0  0
   20.1798    1.6366   15.2376 C   0  0  2  0  0  0  0  0  0  0  0  0
   21.1701    2.5640   15.5285 O   0  0  0  0  0  0  0  0  0  0  0  0
   18.9638    2.2724   14.6139 C   0  0  0  0  0  0  0  0  0  0  0  0
   21.5607   -0.2045   18.0497 N   0  0  0  0  0  0  0  0  0  0  0  0
   22.9312   -0.5502   18.1263 C   0  0  2  0  0  0  0  0  0  0  0  0
   23.9864    0.3010   17.6885 C   0  0  0  0  0  0  0  0  0  0  0  0
   25.1242   -0.0506   17.0479 O   0  0  0  0  0  0  0  0  0  0  0  0
   22.8638   -1.9213   17.3969 C   0  0  0  0  0  0  0  0  0  0  0  0
   21.6581   -2.5233   18.1292 C   0  0  0  0  0  0  0  0  0  0  0  0
   20.9085   -1.3301   18.7512 C   0  0  0  0  0  0  0  0  0  0  0  0
   23.8472    1.5686   17.9233 O   0  0  0  0  0  0  0  0  0  0  0  0
  2  1  1  6
  2  3  1  0
  2  5  1  0
  3  4  2  0
  3  7  1  0
  5  6  1  0
  7  8  1  0
  8  9  1  0
  8 11  1  6
  9 10  2  0
  9 12  1  0
 12 13  1  0
 13 14  1  0
 13 16  1  1
 14 15  2  0
 14 20  1  0
 16 17  1  0
 17 18  2  0
 17 19  1  0
 21 20  1  6
 21 22  1  0
 21 24  1  0
 22 23  2  0
 22 27  1  0
 24 25  1  0
 24 26  1  1
 28 27  1  1
 28 29  1  0
 28 31  1  0
 29 30  2  0
 29 34  1  0
 31 32  1  0
 31 33  1  1
 35 34  1  1
 35 36  1  0
 35 38  1  0
 36 37  2  0
 36 41  1  0
 38 39  1  0
 38 40  1  1
 41 42  1  0
 41 47  1  0
 42 43  1  6
 42 45  1  0
 43 44  1  0
 43 48  2  0
 45 46  1  0
 46 47  1  0
M  CHG  1   1   1
M  END
$$$$
