
     RDKit          3D

 48 48  0  0  0  0  0  0  0  0999 V2000
    7.8775    6.9835   24.8522 N   0  0  0  0  0  4  0  0  0  0  0  0
    7.4157    6.3968   26.0676 C   0  0  2  0  0  0  0  0  0  0  0  0
    8.1237    5.1236   26.3115 C   0  0  0  0  0  0  0  0  0  0  0  0
    7.9598    4.4571   27.3718 O   0  0  0  0  0  0  0  0  0  0  0  0
    5.9319    6.1017   26.0914 C   0  0  0  0  0  0  0  0  0  0  0  0
    5.2944    6.3800   27.4229 C   0  0  0  0  0  0  0  0  0  0  0  0
    9.0177    4.6248   25.3320 N   0  0  0  0  0  0  0  0  0  0  0  0
    9.4553    3.2302   25.3431 C   0  0  2  0  0  0  0  0  0  0  0  0
    9.8671    2.8797   23.9533 C   0  0  0  0  0  0  0  0  0  0  0  0
   10.2692    1.7185   23.7038 O   0  0  0  0  0  0  0  0  0  0  0  0
    8.2601    2.3841   25.6984 C   0  0  0  0  0  0  0  0  0  0  0  0
    9.8047    3.8423   22.9240 N   0  0  0  0  0  0  0  0  0  0  0  0
   10.1724    3.4371   21.5220 C   0  0  2  0  0  0  0  0  0  0  0  0
   11.6073    3.7599   21.4458 C   0  0  0  0  0  0  0  0  0  0  0  0
   12.0414    4.7081   22.1999 O   0  0  0  0  0  0  0  0  0  0  0  0
    9.2879    4.2382   20.6148 C   0  0  0  0  0  0  0  0  0  0  0  0
    9.5490    4.2116   19.1904 C   0  0  0  0  0  0  0  0  0  0  0  0
    9.1869    5.0876   18.3859 O   0  0  0  0  0  0  0  0  0  0  0  0
   10.2660    3.1407   18.5940 O   0  0  0  0  0  0  0  0  0  0  0  0
   12.5911    3.1646   20.6518 N   0  0  0  0  0  0  0  0  0  0  0  0
   14.0065    3.5287   20.7605 C   0  0  2  0  0  0  0  0  0  0  0  0
   14.7913    2.6374   19.8373 C   0  0  0  0  0  0  0  0  0  0  0  0
   14.1347    2.0130   18.9573 O   0  0  0  0  0  0  0  0  0  0  0  0
   14.4936    3.4070   22.1696 C   0  0  2  0  0  0  0  0  0  0  0  0
   14.2622    2.0692   22.5630 O   0  0  0  0  0  0  0  0  0  0  0  0
   13.6776    4.2576   23.1048 C   0  0  0  0  0  0  0  0  0  0  0  0
   16.1944    2.4805   19.9179 N   0  0  0  0  0  0  0  0  0  0  0  0
   16.9503    2.1336   18.7200 C   0  0  2  0  0  0  0  0  0  0  0  0
   18.3873    2.2302   18.9872 C   0  0  0  0  0  0  0  0  0  0  0  0
   18.8221    3.2974   19.5331 O   0  0  0  0  0  0  0  0  0  0  0  0
   16.4322    2.9397   17.5804 C   0  0  2  0  0  0  0  0  0  0  0  0
   17.1114    2.7974   16.3915 O   0  0  0  0  0  0  0  0  0  0  0  0
   16.3534    4.3906   18.0539 C   0  0  0  0  0  0  0  0  0  0  0  0
   19.3191    1.1753   18.6647 N   0  0  0  0  0  0  0  0  0  0  0  0
   20.6614    1.1862   19.0723 C   0  0  2  0  0  0  0  0  0  0  0  0
   21.6637    1.4257   18.0408 C   0  0  0  0  0  0  0  0  0  0  0  0
   21.5361    0.6536   16.9878 O   0  0  0  0  0  0  0  0  0  0  0  0
   21.0412   -0.0711   19.8657 C   0  0  2  0  0  0  0  0  0  0  0  0
   21.2956   -1.1487   19.0295 O   0  0  0  0  0  0  0  0  0  0  0  0
   19.9818   -0.3795   20.8927 C   0  0  0  0  0  0  0  0  0  0  0  0
   22.7165    2.3141   17.9695 N   0  0  0  0  0  0  0  0  0  0  0  0
   23.8146    2.4414   17.0854 C   0  0  2  0  0  0  0  0  0  0  0  0
   23.9373    1.7120   15.8679 C   0  0  0  0  0  0  0  0  0  0  0  0
   24.5666    2.0921   14.7330 O   0  0  0  0  0  0  0  0  0  0  0  0
   24.9610    2.1917   18.1051 C   0  0  0  0  0  0  0  0  0  0  0  0
   24.4917    3.1264   19.2269 C   0  0  0  0  0  0  0  0  0  0  0  0
   22.9914    3.3644   18.9724 C   0  0  0  0  0  0  0  0  0  0  0  0
   23.3866    0.5385   15.8342 O   0  0  0  0  0  0  0  0  0  0  0  0
  2  1  1  6
  2  3  1  0
  2  5  1  0
  3  4  2  0
  3  7  1  0
  5  6  1  0
  7  8  1  0
  8  9  1  0
  8 11  1  6
  9 10  2  0
  9 12  1  0
 12 13  1  0
 13 14  1  0
 13 16  1  6
 14 15  2  0
 14 20  1  0
 16 17  1  0
 17 18  2  0
 17 19  1  0
 21 20  1  1
 21 22  1  0
 21 24  1  0
 22 23  2  0
 22 27  1  0
 24 25  1  0
 24 26  1  1
 28 27  1  1
 28 29  1  0
 28 31  1  0
 29 30  2  0
 29 34  1  0
 31 32  1  0
 31 33  1  1
 35 34  1  6
 35 36  1  0
 35 38  1  0
 36 37  2  0
 36 41  1  0
 38 39  1  0
 38 40  1  1
 41 42  1  0
 41 47  1  0
 42 43  1  6
 42 45  1  0
 43 44  1  0
 43 48  2  0
 45 46  1  0
 46 47  1  0
M  CHG  1   1   1
M  END
$$$$
