
     RDKit          3D

 48 48  0  0  0  0  0  0  0  0999 V2000
    7.4743    1.9832   25.2901 N   0  0  0  0  0  4  0  0  0  0  0  0
    8.0820    3.1782   24.8031 C   0  0  2  0  0  0  0  0  0  0  0  0
    8.4067    3.0286   23.3700 C   0  0  0  0  0  0  0  0  0  0  0  0
    8.7606    1.9223   22.8740 O   0  0  0  0  0  0  0  0  0  0  0  0
    9.3582    3.5634   25.5188 C   0  0  0  0  0  0  0  0  0  0  0  0
    9.9897    4.8120   24.9720 C   0  0  0  0  0  0  0  0  0  0  0  0
    8.3225    4.1555   22.5153 N   0  0  0  0  0  0  0  0  0  0  0  0
    8.5653    4.0388   21.0786 C   0  0  2  0  0  0  0  0  0  0  0  0
   10.0010    4.3638   20.8399 C   0  0  0  0  0  0  0  0  0  0  0  0
   10.3052    5.1988   19.9553 O   0  0  0  0  0  0  0  0  0  0  0  0
    7.7328    5.0909   20.3924 C   0  0  0  0  0  0  0  0  0  0  0  0
   11.0120    3.7411   21.6014 N   0  0  0  0  0  0  0  0  0  0  0  0
   12.4467    4.1321   21.3692 C   0  0  2  0  0  0  0  0  0  0  0  0
   13.0174    2.9401   20.7193 C   0  0  0  0  0  0  0  0  0  0  0  0
   12.6886    1.7912   21.1969 O   0  0  0  0  0  0  0  0  0  0  0  0
   13.0107    4.4556   22.7198 C   0  0  0  0  0  0  0  0  0  0  0  0
   13.9734    5.5322   22.8298 C   0  0  0  0  0  0  0  0  0  0  0  0
   14.4830    5.9229   23.8945 O   0  0  0  0  0  0  0  0  0  0  0  0
   14.4183    6.2411   21.6825 O   0  0  0  0  0  0  0  0  0  0  0  0
   13.8861    2.8780   19.6266 N   0  0  0  0  0  0  0  0  0  0  0  0
   14.5197    1.6258   19.2044 C   0  0  2  0  0  0  0  0  0  0  0  0
   15.8310    1.4967   19.9299 C   0  0  0  0  0  0  0  0  0  0  0  0
   15.8461    0.7460   20.9456 O   0  0  0  0  0  0  0  0  0  0  0  0
   14.7182    1.5885   17.7222 C   0  0  2  0  0  0  0  0  0  0  0  0
   14.7675    2.9325   17.2873 O   0  0  0  0  0  0  0  0  0  0  0  0
   13.5329    0.9748   17.0277 C   0  0  0  0  0  0  0  0  0  0  0  0
   17.0098    2.1652   19.5260 N   0  0  0  0  0  0  0  0  0  0  0  0
   18.1581    1.3894   19.0717 C   0  0  2  0  0  0  0  0  0  0  0  0
   19.1298    2.2673   18.4154 C   0  0  0  0  0  0  0  0  0  0  0  0
   18.8498    2.7004   17.2492 O   0  0  0  0  0  0  0  0  0  0  0  0
   17.6652    0.2325   18.2744 C   0  0  2  0  0  0  0  0  0  0  0  0
   16.9426   -0.7086   18.9725 O   0  0  0  0  0  0  0  0  0  0  0  0
   18.8716   -0.3594   17.5463 C   0  0  0  0  0  0  0  0  0  0  0  0
   20.3751    2.6605   19.0315 N   0  0  0  0  0  0  0  0  0  0  0  0
   20.7532    3.9995   19.2107 C   0  0  2  0  0  0  0  0  0  0  0  0
   22.0789    4.2435   19.7663 C   0  0  0  0  0  0  0  0  0  0  0  0
   22.1398    4.1126   21.0703 O   0  0  0  0  0  0  0  0  0  0  0  0
   19.7142    4.7979   20.0093 C   0  0  2  0  0  0  0  0  0  0  0  0
   18.4457    4.6851   19.4583 O   0  0  0  0  0  0  0  0  0  0  0  0
   20.1537    6.2330   20.1483 C   0  0  0  0  0  0  0  0  0  0  0  0
   23.2769    4.5836   19.1731 N   0  0  0  0  0  0  0  0  0  0  0  0
   24.5608    4.8799   19.6900 C   0  0  2  0  0  0  0  0  0  0  0  0
   24.9326    4.6714   21.0494 C   0  0  0  0  0  0  0  0  0  0  0  0
   24.1274    4.3668   22.0922 O   0  0  0  0  0  0  0  0  0  0  0  0
   24.6667    6.3551   19.2115 C   0  0  0  0  0  0  0  0  0  0  0  0
   24.2137    6.1687   17.7580 C   0  0  0  0  0  0  0  0  0  0  0  0
   23.4510    4.8309   17.7263 C   0  0  0  0  0  0  0  0  0  0  0  0
   26.1937    4.7798   21.3312 O   0  0  0  0  0  0  0  0  0  0  0  0
  2  1  1  1
  2  3  1  0
  2  5  1  0
  3  4  2  0
  3  7  1  0
  5  6  1  0
  7  8  1  0
  8  9  1  0
  8 11  1  6
  9 10  2  0
  9 12  1  0
 12 13  1  0
 13 14  1  0
 13 16  1  1
 14 15  2  0
 14 20  1  0
 16 17  1  0
 17 18  2  0
 17 19  1  0
 21 20  1  6
 21 22  1  0
 21 24  1  0
 22 23  2  0
 22 27  1  0
 24 25  1  0
 24 26  1  6
 28 27  1  6
 28 29  1  0
 28 31  1  0
 29 30  2  0
 29 34  1  0
 31 32  1  0
 31 33  1  1
 35 34  1  1
 35 36  1  0
 35 38  1  0
 36 37  2  0
 36 41  1  0
 38 39  1  0
 38 40  1  6
 41 42  1  0
 41 47  1  0
 42 43  1  1
 42 45  1  0
 43 44  1  0
 43 48  2  0
 45 46  1  0
 46 47  1  0
M  CHG  1   1   1
M  END
$$$$
