
     RDKit          3D

 48 48  0  0  0  0  0  0  0  0999 V2000
    8.4663    4.6894   23.6843 N   0  0  0  0  0  4  0  0  0  0  0  0
    9.0355    3.4218   23.3623 C   0  0  2  0  0  0  0  0  0  0  0  0
    9.4542    3.4043   21.9459 C   0  0  0  0  0  0  0  0  0  0  0  0
    8.6585    3.6892   21.0073 O   0  0  0  0  0  0  0  0  0  0  0  0
    8.1027    2.2493   23.5733 C   0  0  0  0  0  0  0  0  0  0  0  0
    8.1070    1.7362   24.9852 C   0  0  0  0  0  0  0  0  0  0  0  0
   10.7884    3.0580   21.6181 N   0  0  0  0  0  0  0  0  0  0  0  0
   11.2878    3.1712   20.2490 C   0  0  2  0  0  0  0  0  0  0  0  0
   12.6833    2.6454   20.2372 C   0  0  0  0  0  0  0  0  0  0  0  0
   13.3553    2.6567   21.2957 O   0  0  0  0  0  0  0  0  0  0  0  0
   11.3435    4.6378   19.9078 C   0  0  0  0  0  0  0  0  0  0  0  0
   13.2465    2.1369   19.0480 N   0  0  0  0  0  0  0  0  0  0  0  0
   14.6516    1.5985   19.0775 C   0  0  2  0  0  0  0  0  0  0  0  0
   15.4195    2.6274   18.3560 C   0  0  0  0  0  0  0  0  0  0  0  0
   14.9092    3.0943   17.2708 O   0  0  0  0  0  0  0  0  0  0  0  0
   14.5945    0.2577   18.4094 C   0  0  0  0  0  0  0  0  0  0  0  0
   15.7624   -0.5969   18.4682 C   0  0  0  0  0  0  0  0  0  0  0  0
   15.8687   -1.6942   17.8934 O   0  0  0  0  0  0  0  0  0  0  0  0
   16.9107   -0.2228   19.2155 O   0  0  0  0  0  0  0  0  0  0  0  0
   16.6552    3.1858   18.6935 N   0  0  0  0  0  0  0  0  0  0  0  0
   16.8314    4.6270   18.8921 C   0  0  2  0  0  0  0  0  0  0  0  0
   17.5785    4.8341   20.1812 C   0  0  0  0  0  0  0  0  0  0  0  0
   17.9251    6.0180   20.4524 O   0  0  0  0  0  0  0  0  0  0  0  0
   15.5160    5.3390   18.9116 C   0  0  2  0  0  0  0  0  0  0  0  0
   14.8454    4.9168   20.0821 O   0  0  0  0  0  0  0  0  0  0  0  0
   14.6456    4.9099   17.7617 C   0  0  0  0  0  0  0  0  0  0  0  0
   17.8950    3.7822   21.0716 N   0  0  0  0  0  0  0  0  0  0  0  0
   18.5449    4.0845   22.3416 C   0  0  2  0  0  0  0  0  0  0  0  0
   19.9573    4.4034   22.1200 C   0  0  0  0  0  0  0  0  0  0  0  0
   20.2385    5.5272   21.5872 O   0  0  0  0  0  0  0  0  0  0  0  0
   18.2566    2.9806   23.2983 C   0  0  2  0  0  0  0  0  0  0  0  0
   18.6112    1.7187   22.8775 O   0  0  0  0  0  0  0  0  0  0  0  0
   16.7812    3.0904   23.6814 C   0  0  0  0  0  0  0  0  0  0  0  0
   21.0310    3.5079   22.4809 N   0  0  0  0  0  0  0  0  0  0  0  0
   22.3841    3.8028   22.2568 C   0  0  2  0  0  0  0  0  0  0  0  0
   23.3438    2.7337   22.5051 C   0  0  0  0  0  0  0  0  0  0  0  0
   23.4553    2.4043   23.7702 O   0  0  0  0  0  0  0  0  0  0  0  0
   22.8355    5.0704   22.9943 C   0  0  2  0  0  0  0  0  0  0  0  0
   24.0779    5.5051   22.5552 O   0  0  0  0  0  0  0  0  0  0  0  0
   22.7997    4.8474   24.4846 C   0  0  0  0  0  0  0  0  0  0  0  0
   24.1514    2.0066   21.6555 N   0  0  0  0  0  0  0  0  0  0  0  0
   25.3912    1.3465   21.8309 C   0  0  2  0  0  0  0  0  0  0  0  0
   25.9987    1.1309   23.1014 C   0  0  0  0  0  0  0  0  0  0  0  0
   25.4600    1.3381   24.3243 O   0  0  0  0  0  0  0  0  0  0  0  0
   26.2437    2.1921   20.8437 C   0  0  0  0  0  0  0  0  0  0  0  0
   25.2920    2.1879   19.6409 C   0  0  0  0  0  0  0  0  0  0  0  0
   23.9031    1.8390   20.2081 C   0  0  0  0  0  0  0  0  0  0  0  0
   27.2132    0.6766   23.0964 O   0  0  0  0  0  0  0  0  0  0  0  0
  2  1  1  6
  2  3  1  0
  2  5  1  0
  3  4  2  0
  3  7  1  0
  5  6  1  0
  7  8  1  0
  8  9  1  0
  8 11  1  1
  9 10  2  0
  9 12  1  0
 12 13  1  0
 13 14  1  0
 13 16  1  6
 14 15  2  0
 14 20  1  0
 16 17  1  0
 17 18  2  0
 17 19  1  0
 21 20  1  1
 21 22  1  0
 21 24  1  0
 22 23  2  0
 22 27  1  0
 24 25  1  0
 24 26  1  6
 28 27  1  6
 28 29  1  0
 28 31  1  0
 29 30  2  0
 29 34  1  0
 31 32  1  0
 31 33  1  6
 35 34  1  1
 35 36  1  0
 35 38  1  0
 36 37  2  0
 36 41  1  0
 38 39  1  0
 38 40  1  1
 41 42  1  0
 41 47  1  0
 42 43  1  1
 42 45  1  0
 43 44  1  0
 43 48  2  0
 45 46  1  0
 46 47  1  0
M  CHG  1   1   1
M  END
$$$$
