
     RDKit          3D

 33 36  0  0  0  0  0  0  0  0999 V2000
    3.6359   70.0984  -26.9614 C   0  0  0  0  0  0  0  0  0  0  0  0
    2.5579   71.1165  -26.6628 C   0  0  0  0  0  0  0  0  0  0  0  0
    1.3976   70.9304  -27.5687 C   0  0  0  0  0  0  0  0  0  0  0  0
    0.9685   69.7652  -27.7581 O   0  0  0  0  0  0  0  0  0  0  0  0
    0.8037   72.0443  -28.1930 N   0  0  0  0  0  0  0  0  0  0  0  0
    1.0660   73.4624  -28.2458 C   0  0  0  0  0  0  0  0  0  0  0  0
    0.4198   73.4604  -29.6220 C   0  0  1  0  0  0  0  0  0  0  0  0
   -0.3297   72.2710  -29.0566 C   0  0  0  0  0  0  0  0  0  0  0  0
   -0.4659   74.5876  -29.8605 N   0  0  0  0  0  0  0  0  0  0  0  0
   -0.0874   75.5230  -30.8534 C   0  0  0  0  0  0  0  0  0  0  0  0
    1.0434   75.3199  -31.4305 O   0  0  0  0  0  0  0  0  0  0  0  0
   -0.8936   76.7008  -31.2589 C   0  0  0  0  0  0  0  0  0  0  0  0
   -0.7435   77.0866  -32.5950 O   0  0  0  0  0  0  0  0  0  0  0  0
   -1.4918   78.1428  -33.1297 C   0  0  0  0  0  0  0  0  0  0  0  0
   -2.5027   78.7745  -32.4398 C   0  0  0  0  0  0  0  0  0  0  0  0
   -3.1732   79.7986  -33.0692 C   0  0  0  0  0  0  0  0  0  0  0  0
   -2.8519   80.1911  -34.3546 C   0  0  0  0  0  0  0  0  0  0  0  0
   -3.8186   81.6115  -35.1630 Br  0  0  0  0  0  0  0  0  0  0  0  0
   -1.8392   79.5502  -35.0311 C   0  0  0  0  0  0  0  0  0  0  0  0
   -1.1528   78.5222  -34.4237 C   0  0  0  0  0  0  0  0  0  0  0  0
   -0.0735   77.8305  -35.1277 C   0  0  0  0  0  0  0  0  0  0  0  0
    1.1077   78.1143  -34.9187 O   0  0  0  0  0  0  0  0  0  0  0  0
   -0.4297   76.8226  -36.0578 N   0  0  0  0  0  0  0  0  0  0  0  0
    0.4310   75.8820  -36.7132 C   0  0  0  0  0  0  0  0  0  0  0  0
   -0.4907   74.8190  -37.1682 C   0  0  0  0  0  0  0  0  0  0  0  0
   -1.7540   75.1806  -37.0709 C   0  0  0  0  0  0  0  0  0  0  0  0
   -1.7636   76.5596  -36.5240 C   0  0  0  0  0  0  0  0  0  0  0  0
   -2.9506   74.4151  -37.4203 C   0  0  0  0  0  0  0  0  0  0  0  0
   -2.8316   73.1718  -38.0011 C   0  0  0  0  0  0  0  0  0  0  0  0
   -3.9691   72.4314  -38.3389 C   0  0  0  0  0  0  0  0  0  0  0  0
   -5.2215   72.9260  -38.0995 C   0  0  0  0  0  0  0  0  0  0  0  0
   -5.3543   74.1786  -37.5145 C   0  0  0  0  0  0  0  0  0  0  0  0
   -4.2053   74.9072  -37.1824 C   0  0  0  0  0  0  0  0  0  0  0  0
  1  2  1  6
  2  3  1  6
  3  4  2  0
  3  5  1  0
  6  5  1  1
  8  5  1  1
  6  7  1  0
  7  8  1  0
  7  9  1  1
  9 10  1  0
 10 11  2  0
 10 12  1  0
 12 13  1  6
 13 14  1  0
 14 15  2  0
 14 20  1  0
 15 16  1  0
 16 17  2  0
 17 18  1  0
 17 19  1  0
 19 20  2  0
 20 21  1  0
 21 22  2  0
 21 23  1  0
 24 23  1  1
 27 23  1  1
 24 25  1  0
 25 26  2  0
 26 27  1  0
 26 28  1  0
 28 29  2  0
 28 33  1  0
 29 30  1  0
 30 31  2  0
 31 32  1  0
 32 33  2  0
M  END
$$$$
