
     RDKit          3D

 33 36  0  0  0  0  0  0  0  0999 V2000
    1.2501   68.1942  -37.0253 C   0  0  0  0  0  0  0  0  0  0  0  0
    1.0042   69.5843  -36.4822 C   0  0  0  0  0  0  0  0  0  0  0  0
    0.9122   69.5585  -35.0015 C   0  0  0  0  0  0  0  0  0  0  0  0
    1.0716   68.4608  -34.4122 O   0  0  0  0  0  0  0  0  0  0  0  0
    0.6517   70.7455  -34.2897 N   0  0  0  0  0  0  0  0  0  0  0  0
    0.4962   71.1058  -32.9010 C   0  0  0  0  0  0  0  0  0  0  0  0
    1.0097   72.4874  -33.2738 C   0  0  1  0  0  0  0  0  0  0  0  0
    0.4230   72.1301  -34.6245 C   0  0  0  0  0  0  0  0  0  0  0  0
    0.2826   73.5775  -32.6453 N   0  0  0  0  0  0  0  0  0  0  0  0
    1.0356   74.5636  -31.9636 C   0  0  0  0  0  0  0  0  0  0  0  0
    2.2923   74.6110  -32.2304 O   0  0  0  0  0  0  0  0  0  0  0  0
    0.4792   75.5230  -30.9780 C   0  0  0  0  0  0  0  0  0  0  0  0
   -0.0720   76.6836  -31.5309 O   0  0  0  0  0  0  0  0  0  0  0  0
   -0.7339   77.6214  -30.7284 C   0  0  0  0  0  0  0  0  0  0  0  0
   -0.7967   77.5274  -29.3558 C   0  0  0  0  0  0  0  0  0  0  0  0
   -1.4797   78.5068  -28.6712 C   0  0  0  0  0  0  0  0  0  0  0  0
   -2.0890   79.5582  -29.3290 C   0  0  0  0  0  0  0  0  0  0  0  0
   -3.0156   80.8746  -28.3219 Br  0  0  0  0  0  0  0  0  0  0  0  0
   -2.0176   79.6385  -30.7011 C   0  0  0  0  0  0  0  0  0  0  0  0
   -1.3401   78.6711  -31.4097 C   0  0  0  0  0  0  0  0  0  0  0  0
   -1.2537   78.7409  -32.8679 C   0  0  0  0  0  0  0  0  0  0  0  0
   -0.4776   79.5209  -33.4233 O   0  0  0  0  0  0  0  0  0  0  0  0
   -2.0912   77.8820  -33.6222 N   0  0  0  0  0  0  0  0  0  0  0  0
   -2.9577   76.8467  -33.1400 C   0  0  0  0  0  0  0  0  0  0  0  0
   -3.8971   76.6238  -34.2599 C   0  0  0  0  0  0  0  0  0  0  0  0
   -3.4993   77.2151  -35.3683 C   0  0  0  0  0  0  0  0  0  0  0  0
   -2.2209   77.8989  -35.0536 C   0  0  0  0  0  0  0  0  0  0  0  0
   -4.1490   77.2267  -36.6789 C   0  0  0  0  0  0  0  0  0  0  0  0
   -5.1968   76.3713  -36.9394 C   0  0  0  0  0  0  0  0  0  0  0  0
   -5.8252   76.3743  -38.1888 C   0  0  0  0  0  0  0  0  0  0  0  0
   -5.4130   77.2258  -39.1765 C   0  0  0  0  0  0  0  0  0  0  0  0
   -4.3574   78.0928  -38.9258 C   0  0  0  0  0  0  0  0  0  0  0  0
   -3.7389   78.0773  -37.6694 C   0  0  0  0  0  0  0  0  0  0  0  0
  1  2  1  6
  2  3  1  6
  3  4  2  0
  3  5  1  0
  6  5  1  1
  8  5  1  1
  6  7  1  0
  7  8  1  0
  7  9  1  1
  9 10  1  0
 10 11  2  0
 10 12  1  0
 12 13  1  6
 13 14  1  0
 14 15  2  0
 14 20  1  0
 15 16  1  0
 16 17  2  0
 17 18  1  0
 17 19  1  0
 19 20  2  0
 20 21  1  0
 21 22  2  0
 21 23  1  0
 24 23  1  1
 27 23  1  1
 24 25  1  0
 25 26  2  0
 26 27  1  0
 26 28  1  0
 28 29  2  0
 28 33  1  0
 29 30  1  0
 30 31  2  0
 31 32  1  0
 32 33  2  0
M  END
$$$$
