
     RDKit          3D

 33 36  0  0  0  0  0  0  0  0999 V2000
    2.3532   72.3402  -28.0544 C   0  0  0  0  0  0  0  0  0  0  0  0
    2.0017   73.0676  -29.3182 C   0  0  0  0  0  0  0  0  0  0  0  0
    0.5383   73.2921  -29.3590 C   0  0  0  0  0  0  0  0  0  0  0  0
   -0.0659   73.4417  -28.2662 O   0  0  0  0  0  0  0  0  0  0  0  0
   -0.1077   73.3280  -30.6127 N   0  0  0  0  0  0  0  0  0  0  0  0
    0.2848   73.4176  -31.9937 C   0  0  0  0  0  0  0  0  0  0  0  0
   -1.0660   74.1086  -32.2410 C   0  0  1  0  0  0  0  0  0  0  0  0
   -1.4745   73.2894  -31.0662 C   0  0  0  0  0  0  0  0  0  0  0  0
   -0.8749   75.5207  -32.0122 N   0  0  0  0  0  0  0  0  0  0  0  0
   -1.3512   76.5408  -32.8466 C   0  0  0  0  0  0  0  0  0  0  0  0
   -1.8912   76.2550  -33.9156 O   0  0  0  0  0  0  0  0  0  0  0  0
   -1.1968   77.9514  -32.4275 C   0  0  0  0  0  0  0  0  0  0  0  0
   -1.7409   78.7853  -33.4164 O   0  0  0  0  0  0  0  0  0  0  0  0
   -1.3510   80.0993  -33.5845 C   0  0  0  0  0  0  0  0  0  0  0  0
   -0.2464   80.6666  -33.0054 C   0  0  0  0  0  0  0  0  0  0  0  0
    0.0860   81.9968  -33.2166 C   0  0  0  0  0  0  0  0  0  0  0  0
   -0.7118   82.7574  -34.0233 C   0  0  0  0  0  0  0  0  0  0  0  0
   -0.3265   84.5873  -34.3639 Br  0  0  0  0  0  0  0  0  0  0  0  0
   -1.8128   82.1774  -34.5949 C   0  0  0  0  0  0  0  0  0  0  0  0
   -2.1785   80.8635  -34.4125 C   0  0  0  0  0  0  0  0  0  0  0  0
   -3.3595   80.2831  -35.0395 C   0  0  0  0  0  0  0  0  0  0  0  0
   -4.4955   80.5089  -34.5535 O   0  0  0  0  0  0  0  0  0  0  0  0
   -3.2578   79.4722  -36.1816 N   0  0  0  0  0  0  0  0  0  0  0  0
   -2.0557   78.9126  -36.8060 C   0  0  0  0  0  0  0  0  0  0  0  0
   -2.5588   77.6096  -37.3061 C   0  0  0  0  0  0  0  0  0  0  0  0
   -3.8653   77.6652  -37.4232 C   0  0  0  0  0  0  0  0  0  0  0  0
   -4.3609   78.9990  -37.0166 C   0  0  0  0  0  0  0  0  0  0  0  0
   -4.7109   76.5700  -37.8878 C   0  0  0  0  0  0  0  0  0  0  0  0
   -4.1287   75.3686  -38.2223 C   0  0  0  0  0  0  0  0  0  0  0  0
   -4.8790   74.3091  -38.6637 C   0  0  0  0  0  0  0  0  0  0  0  0
   -6.2522   74.4412  -38.7786 C   0  0  0  0  0  0  0  0  0  0  0  0
   -6.8345   75.6548  -38.4401 C   0  0  0  0  0  0  0  0  0  0  0  0
   -6.0742   76.7058  -38.0003 C   0  0  0  0  0  0  0  0  0  0  0  0
  1  2  1  0
  2  3  1  0
  3  4  2  0
  3  5  1  0
  5  6  1  0
  5  8  1  0
  6  7  1  0
  7  8  1  0
  7  9  1  1
  9 10  1  0
 10 11  2  0
 10 12  1  0
 12 13  1  0
 13 14  1  0
 14 15  2  0
 14 20  1  0
 15 16  1  0
 16 17  2  0
 17 18  1  0
 17 19  1  0
 19 20  2  0
 20 21  1  0
 21 22  2  0
 21 23  1  0
 23 24  1  0
 23 27  1  0
 24 25  1  0
 25 26  2  0
 26 27  1  0
 26 28  1  0
 28 29  2  0
 28 33  1  0
 29 30  1  0
 30 31  2  0
 31 32  1  0
 32 33  2  0
M  END
$$$$
