
     RDKit          3D

 33 36  0  0  0  0  0  0  0  0999 V2000
   -3.2280   68.5435  -27.1699 C   0  0  0  0  0  0  0  0  0  0  0  0
   -2.6949   68.8592  -28.5497 C   0  0  0  0  0  0  0  0  0  0  0  0
   -1.3678   69.5168  -28.4597 C   0  0  0  0  0  0  0  0  0  0  0  0
   -0.3884   68.8345  -28.0688 O   0  0  0  0  0  0  0  0  0  0  0  0
   -1.2275   70.8742  -28.8080 N   0  0  0  0  0  0  0  0  0  0  0  0
   -0.1961   71.8747  -28.6756 C   0  0  0  0  0  0  0  0  0  0  0  0
   -0.7650   72.5269  -29.9257 C   0  0  1  0  0  0  0  0  0  0  0  0
   -2.0467   71.8732  -29.4503 C   0  0  0  0  0  0  0  0  0  0  0  0
   -0.8437   73.9761  -29.8524 N   0  0  0  0  0  0  0  0  0  0  0  0
   -0.6541   74.7066  -31.0503 C   0  0  0  0  0  0  0  0  0  0  0  0
   -0.2631   74.0355  -32.0747 O   0  0  0  0  0  0  0  0  0  0  0  0
   -0.8690   76.1676  -31.1945 C   0  0  0  0  0  0  0  0  0  0  0  0
   -0.3747   76.7223  -32.3795 O   0  0  0  0  0  0  0  0  0  0  0  0
   -0.7665   78.0007  -32.7964 C   0  0  0  0  0  0  0  0  0  0  0  0
   -1.2509   78.9587  -31.9335 C   0  0  0  0  0  0  0  0  0  0  0  0
   -1.6093   80.1797  -32.4584 C   0  0  0  0  0  0  0  0  0  0  0  0
   -1.4919   80.4492  -33.8086 C   0  0  0  0  0  0  0  0  0  0  0  0
   -2.0056   82.1553  -34.4651 Br  0  0  0  0  0  0  0  0  0  0  0  0
   -1.0061   79.4817  -34.6582 C   0  0  0  0  0  0  0  0  0  0  0  0
   -0.6405   78.2515  -34.1582 C   0  0  0  0  0  0  0  0  0  0  0  0
   -0.1219   77.2120  -35.0466 C   0  0  0  0  0  0  0  0  0  0  0  0
    1.0263   76.7816  -34.9211 O   0  0  0  0  0  0  0  0  0  0  0  0
   -0.9827   76.7148  -36.0564 N   0  0  0  0  0  0  0  0  0  0  0  0
   -0.7207   75.6729  -37.0057 C   0  0  0  0  0  0  0  0  0  0  0  0
   -2.0669   75.2672  -37.4635 C   0  0  0  0  0  0  0  0  0  0  0  0
   -2.9992   76.1167  -37.0821 C   0  0  0  0  0  0  0  0  0  0  0  0
   -2.3155   77.1867  -36.3150 C   0  0  0  0  0  0  0  0  0  0  0  0
   -4.4387   76.0655  -37.3378 C   0  0  0  0  0  0  0  0  0  0  0  0
   -4.9307   75.3028  -38.3739 C   0  0  0  0  0  0  0  0  0  0  0  0
   -6.3050   75.2466  -38.6270 C   0  0  0  0  0  0  0  0  0  0  0  0
   -7.1878   75.9468  -37.8517 C   0  0  0  0  0  0  0  0  0  0  0  0
   -6.7036   76.7195  -36.8042 C   0  0  0  0  0  0  0  0  0  0  0  0
   -5.3246   76.7651  -36.5641 C   0  0  0  0  0  0  0  0  0  0  0  0
  1  2  1  6
  2  3  1  6
  3  4  2  0
  3  5  1  0
  6  5  1  1
  8  5  1  1
  6  7  1  0
  7  8  1  0
  7  9  1  1
  9 10  1  0
 10 11  2  0
 10 12  1  0
 12 13  1  6
 13 14  1  0
 14 15  2  0
 14 20  1  0
 15 16  1  0
 16 17  2  0
 17 18  1  0
 17 19  1  0
 19 20  2  0
 20 21  1  0
 21 22  2  0
 21 23  1  0
 24 23  1  1
 27 23  1  1
 24 25  1  0
 25 26  2  0
 26 27  1  0
 26 28  1  0
 28 29  2  0
 28 33  1  0
 29 30  1  0
 30 31  2  0
 31 32  1  0
 32 33  2  0
M  END
$$$$
