
     RDKit          3D

 33 36  0  0  0  0  0  0  0  0999 V2000
   -0.4134   70.8979  -28.2691 C   0  0  0  0  0  0  0  0  0  0  0  0
    0.2523   71.4295  -29.5036 C   0  0  0  0  0  0  0  0  0  0  0  0
    0.6818   72.8262  -29.2614 C   0  0  0  0  0  0  0  0  0  0  0  0
    1.8060   73.0134  -28.7300 O   0  0  0  0  0  0  0  0  0  0  0  0
   -0.1833   73.8762  -29.6350 N   0  0  0  0  0  0  0  0  0  0  0  0
   -1.3951   74.0171  -30.3972 C   0  0  0  0  0  0  0  0  0  0  0  0
   -0.9201   75.4427  -30.7222 C   0  0  1  0  0  0  0  0  0  0  0  0
   -0.2305   75.2983  -29.4101 C   0  0  0  0  0  0  0  0  0  0  0  0
   -0.0930   75.3617  -31.9022 N   0  0  0  0  0  0  0  0  0  0  0  0
   -0.5390   75.5838  -33.2119 C   0  0  0  0  0  0  0  0  0  0  0  0
   -1.7171   75.3728  -33.5014 O   0  0  0  0  0  0  0  0  0  0  0  0
    0.4173   76.0705  -34.2306 C   0  0  0  0  0  0  0  0  0  0  0  0
    0.1031   75.4894  -35.4687 O   0  0  0  0  0  0  0  0  0  0  0  0
    0.4038   76.0904  -36.6750 C   0  0  0  0  0  0  0  0  0  0  0  0
    1.3288   77.0873  -36.8420 C   0  0  0  0  0  0  0  0  0  0  0  0
    1.5798   77.6485  -38.0856 C   0  0  0  0  0  0  0  0  0  0  0  0
    0.8840   77.1929  -39.1692 C   0  0  0  0  0  0  0  0  0  0  0  0
    1.1683   77.9084  -40.9071 Br  0  0  0  0  0  0  0  0  0  0  0  0
   -0.0377   76.1966  -38.9873 C   0  0  0  0  0  0  0  0  0  0  0  0
   -0.3174   75.6125  -37.7732 C   0  0  0  0  0  0  0  0  0  0  0  0
   -1.3071   74.5533  -37.6211 C   0  0  0  0  0  0  0  0  0  0  0  0
   -0.9287   73.3610  -37.5067 O   0  0  0  0  0  0  0  0  0  0  0  0
   -2.6827   74.8348  -37.5992 N   0  0  0  0  0  0  0  0  0  0  0  0
   -3.8078   73.9057  -37.4615 C   0  0  0  0  0  0  0  0  0  0  0  0
   -4.7747   74.7213  -36.6862 C   0  0  0  0  0  0  0  0  0  0  0  0
   -4.4844   75.9933  -36.8326 C   0  0  0  0  0  0  0  0  0  0  0  0
   -3.3054   76.1530  -37.7124 C   0  0  0  0  0  0  0  0  0  0  0  0
   -5.2180   77.0948  -36.2171 C   0  0  0  0  0  0  0  0  0  0  0  0
   -4.8543   78.3894  -36.5102 C   0  0  0  0  0  0  0  0  0  0  0  0
   -5.5117   79.4589  -35.9584 C   0  0  0  0  0  0  0  0  0  0  0  0
   -6.5649   79.2417  -35.0867 C   0  0  0  0  0  0  0  0  0  0  0  0
   -6.9278   77.9343  -34.7943 C   0  0  0  0  0  0  0  0  0  0  0  0
   -6.2633   76.8743  -35.3519 C   0  0  0  0  0  0  0  0  0  0  0  0
  1  2  1  0
  2  3  1  0
  3  4  2  0
  3  5  1  0
  5  6  1  0
  5  8  1  0
  6  7  1  0
  7  8  1  0
  7  9  1  6
  9 10  1  0
 10 11  2  0
 10 12  1  0
 12 13  1  0
 13 14  1  0
 14 15  2  0
 14 20  1  0
 15 16  1  0
 16 17  2  0
 17 18  1  0
 17 19  1  0
 19 20  2  0
 20 21  1  0
 21 22  2  0
 21 23  1  0
 23 24  1  0
 23 27  1  0
 24 25  1  0
 25 26  2  0
 26 27  1  0
 26 28  1  0
 28 29  2  0
 28 33  1  0
 29 30  1  0
 30 31  2  0
 31 32  1  0
 32 33  2  0
M  END
$$$$
