
     RDKit          3D

 33 36  0  0  0  0  0  0  0  0999 V2000
   -3.8299   70.6324  -29.6958 C   0  0  0  0  0  0  0  0  0  0  0  0
   -2.7951   71.0889  -30.7000 C   0  0  0  0  0  0  0  0  0  0  0  0
   -1.9078   72.1187  -30.1052 C   0  0  0  0  0  0  0  0  0  0  0  0
   -1.4164   71.9002  -28.9701 O   0  0  0  0  0  0  0  0  0  0  0  0
   -1.6336   73.3067  -30.8101 N   0  0  0  0  0  0  0  0  0  0  0  0
   -0.9804   74.5586  -30.5126 C   0  0  0  0  0  0  0  0  0  0  0  0
   -0.6277   74.6457  -31.9890 C   0  0  1  0  0  0  0  0  0  0  0  0
   -1.8809   73.8074  -32.1404 C   0  0  0  0  0  0  0  0  0  0  0  0
   -0.7977   75.9712  -32.5599 N   0  0  0  0  0  0  0  0  0  0  0  0
    0.3449   76.8029  -32.6435 C   0  0  0  0  0  0  0  0  0  0  0  0
    1.4670   76.2146  -32.8619 O   0  0  0  0  0  0  0  0  0  0  0  0
    0.3310   78.2790  -32.4937 C   0  0  0  0  0  0  0  0  0  0  0  0
   -0.4004   78.9640  -33.4696 O   0  0  0  0  0  0  0  0  0  0  0  0
   -0.9072   80.2463  -33.2242 C   0  0  0  0  0  0  0  0  0  0  0  0
   -0.7923   80.8815  -32.0075 C   0  0  0  0  0  0  0  0  0  0  0  0
   -1.3337   82.1407  -31.8818 C   0  0  0  0  0  0  0  0  0  0  0  0
   -1.9763   82.7604  -32.9367 C   0  0  0  0  0  0  0  0  0  0  0  0
   -2.7009   84.4986  -32.6934 Br  0  0  0  0  0  0  0  0  0  0  0  0
   -2.0831   82.1129  -34.1464 C   0  0  0  0  0  0  0  0  0  0  0  0
   -1.5498   80.8521  -34.2982 C   0  0  0  0  0  0  0  0  0  0  0  0
   -1.6537   80.1497  -35.5767 C   0  0  0  0  0  0  0  0  0  0  0  0
   -0.9982   80.5099  -36.5564 O   0  0  0  0  0  0  0  0  0  0  0  0
   -2.5324   79.0406  -35.6527 N   0  0  0  0  0  0  0  0  0  0  0  0
   -3.3841   78.5168  -34.6254 C   0  0  0  0  0  0  0  0  0  0  0  0
   -4.3764   77.7103  -35.3679 C   0  0  0  0  0  0  0  0  0  0  0  0
   -4.0257   77.5231  -36.6242 C   0  0  0  0  0  0  0  0  0  0  0  0
   -2.7284   78.2172  -36.8144 C   0  0  0  0  0  0  0  0  0  0  0  0
   -4.7355   76.7841  -37.6682 C   0  0  0  0  0  0  0  0  0  0  0  0
   -4.3588   76.9152  -38.9867 C   0  0  0  0  0  0  0  0  0  0  0  0
   -5.0303   76.2132  -39.9927 C   0  0  0  0  0  0  0  0  0  0  0  0
   -6.0736   75.3828  -39.6884 C   0  0  0  0  0  0  0  0  0  0  0  0
   -6.4629   75.2426  -38.3626 C   0  0  0  0  0  0  0  0  0  0  0  0
   -5.7800   75.9526  -37.3673 C   0  0  0  0  0  0  0  0  0  0  0  0
  1  2  1  6
  2  3  1  6
  3  4  2  0
  3  5  1  0
  6  5  1  1
  8  5  1  1
  6  7  1  0
  7  8  1  0
  7  9  1  6
  9 10  1  0
 10 11  2  0
 10 12  1  0
 12 13  1  6
 13 14  1  0
 14 15  2  0
 14 20  1  0
 15 16  1  0
 16 17  2  0
 17 18  1  0
 17 19  1  0
 19 20  2  0
 20 21  1  0
 21 22  2  0
 21 23  1  0
 24 23  1  1
 27 23  1  1
 24 25  1  0
 25 26  2  0
 26 27  1  0
 26 28  1  0
 28 29  2  0
 28 33  1  0
 29 30  1  0
 30 31  2  0
 31 32  1  0
 32 33  2  0
M  END
$$$$
