
     RDKit          3D

 33 36  0  0  0  0  0  0  0  0999 V2000
    1.5145   69.9744  -28.0737 C   0  0  0  0  0  0  0  0  0  0  0  0
    1.8630   71.3767  -28.5208 C   0  0  0  0  0  0  0  0  0  0  0  0
    0.6352   72.1938  -28.6840 C   0  0  0  0  0  0  0  0  0  0  0  0
   -0.0411   72.4665  -27.6613 O   0  0  0  0  0  0  0  0  0  0  0  0
    0.2519   72.6445  -29.9621 N   0  0  0  0  0  0  0  0  0  0  0  0
   -0.9596   73.1520  -30.5595 C   0  0  0  0  0  0  0  0  0  0  0  0
   -0.0767   73.9327  -31.5199 C   0  0  1  0  0  0  0  0  0  0  0  0
    0.8929   72.8011  -31.2451 C   0  0  0  0  0  0  0  0  0  0  0  0
   -0.5423   73.9169  -32.8964 N   0  0  0  0  0  0  0  0  0  0  0  0
   -0.0165   74.8901  -33.7799 C   0  0  0  0  0  0  0  0  0  0  0  0
    0.8844   75.6720  -33.3005 O   0  0  0  0  0  0  0  0  0  0  0  0
   -0.4334   75.0644  -35.1932 C   0  0  0  0  0  0  0  0  0  0  0  0
   -0.9267   76.3342  -35.5103 O   0  0  0  0  0  0  0  0  0  0  0  0
   -1.7797   76.5246  -36.6047 C   0  0  0  0  0  0  0  0  0  0  0  0
   -2.3159   75.4848  -37.3315 C   0  0  0  0  0  0  0  0  0  0  0  0
   -3.1390   75.7932  -38.3907 C   0  0  0  0  0  0  0  0  0  0  0  0
   -3.4268   77.1025  -38.7258 C   0  0  0  0  0  0  0  0  0  0  0  0
   -4.5700   77.4562  -40.2001 Br  0  0  0  0  0  0  0  0  0  0  0  0
   -2.8834   78.1308  -37.9899 C   0  0  0  0  0  0  0  0  0  0  0  0
   -2.0565   77.8490  -36.9251 C   0  0  0  0  0  0  0  0  0  0  0  0
   -1.4709   78.9292  -36.1321 C   0  0  0  0  0  0  0  0  0  0  0  0
   -0.6091   79.6722  -36.6059 O   0  0  0  0  0  0  0  0  0  0  0  0
   -1.9270   79.0947  -34.8007 N   0  0  0  0  0  0  0  0  0  0  0  0
   -1.4319   79.9979  -33.8036 C   0  0  0  0  0  0  0  0  0  0  0  0
   -2.5352   80.0782  -32.8224 C   0  0  0  0  0  0  0  0  0  0  0  0
   -3.4488   79.1504  -33.0238 C   0  0  0  0  0  0  0  0  0  0  0  0
   -3.0031   78.3580  -34.1962 C   0  0  0  0  0  0  0  0  0  0  0  0
   -4.6782   78.9030  -32.2706 C   0  0  0  0  0  0  0  0  0  0  0  0
   -5.5264   77.8846  -32.6456 C   0  0  0  0  0  0  0  0  0  0  0  0
   -6.7042   77.6392  -31.9324 C   0  0  0  0  0  0  0  0  0  0  0  0
   -7.0374   78.4045  -30.8489 C   0  0  0  0  0  0  0  0  0  0  0  0
   -6.1903   79.4344  -30.4613 C   0  0  0  0  0  0  0  0  0  0  0  0
   -5.0148   79.6669  -31.1861 C   0  0  0  0  0  0  0  0  0  0  0  0
  1  2  1  6
  2  3  1  6
  3  4  2  0
  3  5  1  0
  6  5  1  1
  8  5  1  1
  6  7  1  0
  7  8  1  0
  7  9  1  6
  9 10  1  0
 10 11  2  0
 10 12  1  0
 12 13  1  6
 13 14  1  0
 14 15  2  0
 14 20  1  0
 15 16  1  0
 16 17  2  0
 17 18  1  0
 17 19  1  0
 19 20  2  0
 20 21  1  0
 21 22  2  0
 21 23  1  0
 24 23  1  1
 27 23  1  1
 24 25  1  0
 25 26  2  0
 26 27  1  0
 26 28  1  0
 28 29  2  0
 28 33  1  0
 29 30  1  0
 30 31  2  0
 31 32  1  0
 32 33  2  0
M  END
$$$$
