
     RDKit          3D

 33 36  0  0  0  0  0  0  0  0999 V2000
    4.0249   69.1311  -25.8021 C   0  0  0  0  0  0  0  0  0  0  0  0
    3.0514   69.7784  -26.7618 C   0  0  0  0  0  0  0  0  0  0  0  0
    3.0121   71.2473  -26.5553 C   0  0  0  0  0  0  0  0  0  0  0  0
    3.5957   71.7250  -25.5509 O   0  0  0  0  0  0  0  0  0  0  0  0
    2.3322   72.0712  -27.4730 N   0  0  0  0  0  0  0  0  0  0  0  0
    2.0756   73.4856  -27.6004 C   0  0  0  0  0  0  0  0  0  0  0  0
    2.0184   73.2692  -29.1042 C   0  0  1  0  0  0  0  0  0  0  0  0
    1.5882   71.8755  -28.6936 C   0  0  0  0  0  0  0  0  0  0  0  0
    0.9424   73.9893  -29.7643 N   0  0  0  0  0  0  0  0  0  0  0  0
    1.1871   74.4895  -31.0659 C   0  0  0  0  0  0  0  0  0  0  0  0
    2.3652   74.9531  -31.2893 O   0  0  0  0  0  0  0  0  0  0  0  0
    0.1900   74.5164  -32.1643 C   0  0  0  0  0  0  0  0  0  0  0  0
   -0.3649   75.7733  -32.4265 O   0  0  0  0  0  0  0  0  0  0  0  0
   -1.4449   76.2561  -31.6769 C   0  0  0  0  0  0  0  0  0  0  0  0
   -1.3099   76.7699  -30.4061 C   0  0  0  0  0  0  0  0  0  0  0  0
   -2.4441   77.2113  -29.7633 C   0  0  0  0  0  0  0  0  0  0  0  0
   -3.6873   77.1463  -30.3633 C   0  0  0  0  0  0  0  0  0  0  0  0
   -5.2106   77.7726  -29.4184 Br  0  0  0  0  0  0  0  0  0  0  0  0
   -3.8061   76.6302  -31.6336 C   0  0  0  0  0  0  0  0  0  0  0  0
   -2.6865   76.1817  -32.2985 C   0  0  0  0  0  0  0  0  0  0  0  0
   -2.7943   75.6309  -33.6490 C   0  0  0  0  0  0  0  0  0  0  0  0
   -2.9964   74.4288  -33.8323 O   0  0  0  0  0  0  0  0  0  0  0  0
   -2.6596   76.5243  -34.7406 N   0  0  0  0  0  0  0  0  0  0  0  0
   -1.7411   77.6162  -34.8798 C   0  0  0  0  0  0  0  0  0  0  0  0
   -1.7193   77.8745  -36.3355 C   0  0  0  0  0  0  0  0  0  0  0  0
   -2.6876   77.2427  -36.9676 C   0  0  0  0  0  0  0  0  0  0  0  0
   -3.4501   76.4911  -35.9406 C   0  0  0  0  0  0  0  0  0  0  0  0
   -2.9975   77.2469  -38.3972 C   0  0  0  0  0  0  0  0  0  0  0  0
   -2.2238   77.9787  -39.2708 C   0  0  0  0  0  0  0  0  0  0  0  0
   -2.5111   77.9897  -40.6395 C   0  0  0  0  0  0  0  0  0  0  0  0
   -3.5649   77.2746  -41.1382 C   0  0  0  0  0  0  0  0  0  0  0  0
   -4.3526   76.5331  -40.2672 C   0  0  0  0  0  0  0  0  0  0  0  0
   -4.0514   76.5328  -38.8995 C   0  0  0  0  0  0  0  0  0  0  0  0
  1  2  1  6
  2  3  1  6
  3  4  2  0
  3  5  1  0
  6  5  1  1
  8  5  1  1
  6  7  1  0
  7  8  1  0
  7  9  1  6
  9 10  1  0
 10 11  2  0
 10 12  1  0
 12 13  1  6
 13 14  1  0
 14 15  2  0
 14 20  1  0
 15 16  1  0
 16 17  2  0
 17 18  1  0
 17 19  1  0
 19 20  2  0
 20 21  1  0
 21 22  2  0
 21 23  1  0
 24 23  1  1
 27 23  1  1
 24 25  1  0
 25 26  2  0
 26 27  1  0
 26 28  1  0
 28 29  2  0
 28 33  1  0
 29 30  1  0
 30 31  2  0
 31 32  1  0
 32 33  2  0
M  END
$$$$
