
     RDKit          3D

 33 36  0  0  0  0  0  0  0  0999 V2000
    4.0332   71.4464  -28.4496 C   0  0  0  0  0  0  0  0  0  0  0  0
    2.5337   71.3147  -28.3011 C   0  0  0  0  0  0  0  0  0  0  0  0
    1.9574   72.5447  -27.7038 C   0  0  0  0  0  0  0  0  0  0  0  0
    2.2740   72.8413  -26.5251 O   0  0  0  0  0  0  0  0  0  0  0  0
    1.0782   73.3489  -28.4547 N   0  0  0  0  0  0  0  0  0  0  0  0
    0.4299   74.6247  -28.2691 C   0  0  0  0  0  0  0  0  0  0  0  0
    0.4489   74.7762  -29.7818 C   0  0  1  0  0  0  0  0  0  0  0  0
    0.4309   73.2615  -29.7411 C   0  0  0  0  0  0  0  0  0  0  0  0
   -0.7823   75.3119  -30.3376 N   0  0  0  0  0  0  0  0  0  0  0  0
   -0.8583   75.4636  -31.7431 C   0  0  0  0  0  0  0  0  0  0  0  0
    0.1630   75.0705  -32.4178 O   0  0  0  0  0  0  0  0  0  0  0  0
   -2.0156   76.0395  -32.4715 C   0  0  0  0  0  0  0  0  0  0  0  0
   -1.8443   76.1532  -33.8551 O   0  0  0  0  0  0  0  0  0  0  0  0
   -2.8637   76.6628  -34.6691 C   0  0  0  0  0  0  0  0  0  0  0  0
   -4.2021   76.5292  -34.3725 C   0  0  0  0  0  0  0  0  0  0  0  0
   -5.1157   77.0677  -35.2500 C   0  0  0  0  0  0  0  0  0  0  0  0
   -4.7156   77.7249  -36.3978 C   0  0  0  0  0  0  0  0  0  0  0  0
   -6.0299   78.4433  -37.5650 Br  0  0  0  0  0  0  0  0  0  0  0  0
   -3.3746   77.8504  -36.6805 C   0  0  0  0  0  0  0  0  0  0  0  0
   -2.4401   77.3203  -35.8187 C   0  0  0  0  0  0  0  0  0  0  0  0
   -1.0110   77.4449  -36.1032 C   0  0  0  0  0  0  0  0  0  0  0  0
   -0.4310   78.5266  -35.9901 O   0  0  0  0  0  0  0  0  0  0  0  0
   -0.3140   76.2810  -36.5126 N   0  0  0  0  0  0  0  0  0  0  0  0
   -0.7439   74.9165  -36.4215 C   0  0  0  0  0  0  0  0  0  0  0  0
    0.1219   74.2092  -37.3892 C   0  0  0  0  0  0  0  0  0  0  0  0
    1.1248   74.9586  -37.8000 C   0  0  0  0  0  0  0  0  0  0  0  0
    0.9930   76.2656  -37.1105 C   0  0  0  0  0  0  0  0  0  0  0  0
    2.1881   74.6198  -38.7458 C   0  0  0  0  0  0  0  0  0  0  0  0
    2.7654   75.6027  -39.5191 C   0  0  0  0  0  0  0  0  0  0  0  0
    3.7829   75.2899  -40.4262 C   0  0  0  0  0  0  0  0  0  0  0  0
    4.2252   74.0030  -40.5639 C   0  0  0  0  0  0  0  0  0  0  0  0
    3.6507   73.0033  -39.7898 C   0  0  0  0  0  0  0  0  0  0  0  0
    2.6329   73.3332  -38.8862 C   0  0  0  0  0  0  0  0  0  0  0  0
  1  2  1  6
  2  3  1  6
  3  4  2  0
  3  5  1  0
  6  5  1  1
  8  5  1  1
  6  7  1  0
  7  8  1  0
  7  9  1  6
  9 10  1  0
 10 11  2  0
 10 12  1  0
 12 13  1  6
 13 14  1  0
 14 15  2  0
 14 20  1  0
 15 16  1  0
 16 17  2  0
 17 18  1  0
 17 19  1  0
 19 20  2  0
 20 21  1  0
 21 22  2  0
 21 23  1  0
 24 23  1  1
 27 23  1  1
 24 25  1  0
 25 26  2  0
 26 27  1  0
 26 28  1  0
 28 29  2  0
 28 33  1  0
 29 30  1  0
 30 31  2  0
 31 32  1  0
 32 33  2  0
M  END
$$$$
