
     RDKit          3D

 33 36  0  0  0  0  0  0  0  0999 V2000
    2.2394   70.6162  -26.1732 C   0  0  0  0  0  0  0  0  0  0  0  0
    2.0246   71.2967  -27.5068 C   0  0  0  0  0  0  0  0  0  0  0  0
    0.6288   71.7858  -27.6254 C   0  0  0  0  0  0  0  0  0  0  0  0
   -0.2596   71.2308  -26.9323 O   0  0  0  0  0  0  0  0  0  0  0  0
    0.3248   72.8479  -28.4990 N   0  0  0  0  0  0  0  0  0  0  0  0
    1.0137   73.5461  -29.5575 C   0  0  0  0  0  0  0  0  0  0  0  0
   -0.3504   73.8196  -30.1707 C   0  0  1  0  0  0  0  0  0  0  0  0
   -0.8059   73.7140  -28.7293 C   0  0  0  0  0  0  0  0  0  0  0  0
   -0.5072   75.1698  -30.6845 N   0  0  0  0  0  0  0  0  0  0  0  0
   -0.9415   75.3176  -32.0239 C   0  0  0  0  0  0  0  0  0  0  0  0
   -1.0471   74.2383  -32.7143 O   0  0  0  0  0  0  0  0  0  0  0  0
   -1.2712   76.6123  -32.6694 C   0  0  0  0  0  0  0  0  0  0  0  0
   -1.4676   76.5484  -34.0528 O   0  0  0  0  0  0  0  0  0  0  0  0
   -2.5118   77.2514  -34.6668 C   0  0  0  0  0  0  0  0  0  0  0  0
   -3.0406   78.4149  -34.1533 C   0  0  0  0  0  0  0  0  0  0  0  0
   -4.0692   79.0167  -34.8420 C   0  0  0  0  0  0  0  0  0  0  0  0
   -4.5660   78.4802  -36.0145 C   0  0  0  0  0  0  0  0  0  0  0  0
   -5.9871   79.3627  -36.9131 Br  0  0  0  0  0  0  0  0  0  0  0  0
   -4.0271   77.3170  -36.5152 C   0  0  0  0  0  0  0  0  0  0  0  0
   -2.9971   76.6949  -35.8450 C   0  0  0  0  0  0  0  0  0  0  0  0
   -2.4123   75.4586  -36.3629 C   0  0  0  0  0  0  0  0  0  0  0  0
   -2.9856   74.3762  -36.2249 O   0  0  0  0  0  0  0  0  0  0  0  0
   -1.1649   75.5454  -37.0296 N   0  0  0  0  0  0  0  0  0  0  0  0
   -0.3070   76.6873  -37.1525 C   0  0  0  0  0  0  0  0  0  0  0  0
    1.0052   76.1053  -37.5073 C   0  0  0  0  0  0  0  0  0  0  0  0
    0.9120   74.8336  -37.8397 C   0  0  0  0  0  0  0  0  0  0  0  0
   -0.5205   74.4651  -37.7250 C   0  0  0  0  0  0  0  0  0  0  0  0
    1.9767   73.9185  -38.2505 C   0  0  0  0  0  0  0  0  0  0  0  0
    1.7735   72.5568  -38.2081 C   0  0  0  0  0  0  0  0  0  0  0  0
    2.7845   71.6730  -38.5988 C   0  0  0  0  0  0  0  0  0  0  0  0
    3.9945   72.1421  -39.0307 C   0  0  0  0  0  0  0  0  0  0  0  0
    4.2114   73.5130  -39.0776 C   0  0  0  0  0  0  0  0  0  0  0  0
    3.1887   74.3845  -38.6829 C   0  0  0  0  0  0  0  0  0  0  0  0
  1  2  1  6
  2  3  1  6
  3  4  2  0
  3  5  1  0
  6  5  1  1
  8  5  1  1
  6  7  1  0
  7  8  1  0
  7  9  1  1
  9 10  1  0
 10 11  2  0
 10 12  1  0
 12 13  1  6
 13 14  1  0
 14 15  2  0
 14 20  1  0
 15 16  1  0
 16 17  2  0
 17 18  1  0
 17 19  1  0
 19 20  2  0
 20 21  1  0
 21 22  2  0
 21 23  1  0
 24 23  1  1
 27 23  1  1
 24 25  1  0
 25 26  2  0
 26 27  1  0
 26 28  1  0
 28 29  2  0
 28 33  1  0
 29 30  1  0
 30 31  2  0
 31 32  1  0
 32 33  2  0
M  END
$$$$
