
     RDKit          3D

 33 36  0  0  0  0  0  0  0  0999 V2000
   -0.2253   70.9860  -27.5088 C   0  0  0  0  0  0  0  0  0  0  0  0
   -0.7494   72.3495  -27.8495 C   0  0  0  0  0  0  0  0  0  0  0  0
   -0.8359   72.4832  -29.3221 C   0  0  0  0  0  0  0  0  0  0  0  0
   -1.7661   71.8794  -29.9151 O   0  0  0  0  0  0  0  0  0  0  0  0
    0.1220   73.2761  -29.9886 N   0  0  0  0  0  0  0  0  0  0  0  0
    0.9198   74.4343  -29.6862 C   0  0  0  0  0  0  0  0  0  0  0  0
    0.8727   74.7497  -31.1902 C   0  0  1  0  0  0  0  0  0  0  0  0
    0.7325   73.2706  -31.2934 C   0  0  0  0  0  0  0  0  0  0  0  0
   -0.3163   75.5323  -31.4283 N   0  0  0  0  0  0  0  0  0  0  0  0
   -0.4141   76.5840  -32.3492 C   0  0  0  0  0  0  0  0  0  0  0  0
    0.0465   76.4494  -33.4831 O   0  0  0  0  0  0  0  0  0  0  0  0
   -1.0723   77.8450  -31.9421 C   0  0  0  0  0  0  0  0  0  0  0  0
   -1.2426   78.6586  -33.0728 O   0  0  0  0  0  0  0  0  0  0  0  0
   -2.1286   79.7173  -33.1060 C   0  0  0  0  0  0  0  0  0  0  0  0
   -3.0705   79.9781  -32.1457 C   0  0  0  0  0  0  0  0  0  0  0  0
   -3.9318   81.0612  -32.2439 C   0  0  0  0  0  0  0  0  0  0  0  0
   -3.8353   81.8863  -33.3282 C   0  0  0  0  0  0  0  0  0  0  0  0
   -4.9772   83.3913  -33.5382 Br  0  0  0  0  0  0  0  0  0  0  0  0
   -2.8898   81.6132  -34.2804 C   0  0  0  0  0  0  0  0  0  0  0  0
   -2.0165   80.5513  -34.2223 C   0  0  0  0  0  0  0  0  0  0  0  0
   -1.0231   80.2945  -35.2576 C   0  0  0  0  0  0  0  0  0  0  0  0
    0.1316   80.7757  -35.1439 O   0  0  0  0  0  0  0  0  0  0  0  0
   -1.3272   79.5171  -36.3869 N   0  0  0  0  0  0  0  0  0  0  0  0
   -0.5327   79.3119  -37.6012 C   0  0  0  0  0  0  0  0  0  0  0  0
   -0.8642   77.9061  -37.9403 C   0  0  0  0  0  0  0  0  0  0  0  0
   -2.0005   77.5789  -37.3697 C   0  0  0  0  0  0  0  0  0  0  0  0
   -2.5366   78.7230  -36.5994 C   0  0  0  0  0  0  0  0  0  0  0  0
   -2.6455   76.2740  -37.4778 C   0  0  0  0  0  0  0  0  0  0  0  0
   -3.6757   75.9620  -36.6202 C   0  0  0  0  0  0  0  0  0  0  0  0
   -4.3142   74.7500  -36.6811 C   0  0  0  0  0  0  0  0  0  0  0  0
   -3.9213   73.8139  -37.6221 C   0  0  0  0  0  0  0  0  0  0  0  0
   -2.8819   74.1333  -38.4848 C   0  0  0  0  0  0  0  0  0  0  0  0
   -2.2518   75.3475  -38.4139 C   0  0  0  0  0  0  0  0  0  0  0  0
  1  2  1  0
  2  3  1  0
  3  4  2  0
  3  5  1  0
  5  6  1  0
  5  8  1  0
  6  7  1  0
  7  8  1  0
  7  9  1  1
  9 10  1  0
 10 11  2  0
 10 12  1  0
 12 13  1  0
 13 14  1  0
 14 15  2  0
 14 20  1  0
 15 16  1  0
 16 17  2  0
 17 18  1  0
 17 19  1  0
 19 20  2  0
 20 21  1  0
 21 22  2  0
 21 23  1  0
 23 24  1  0
 23 27  1  0
 24 25  1  0
 25 26  2  0
 26 27  1  0
 26 28  1  0
 28 29  2  0
 28 33  1  0
 29 30  1  0
 30 31  2  0
 31 32  1  0
 32 33  2  0
M  END
$$$$
