
     RDKit          3D

 33 36  0  0  0  0  0  0  0  0999 V2000
    4.8403   70.5109  -37.9978 C   0  0  0  0  0  0  0  0  0  0  0  0
    5.1728   69.1945  -38.6642 C   0  0  0  0  0  0  0  0  0  0  0  0
    3.9747   68.3210  -38.7233 C   0  0  0  0  0  0  0  0  0  0  0  0
    3.7489   67.5507  -37.7573 O   0  0  0  0  0  0  0  0  0  0  0  0
    3.1218   68.3674  -39.8431 N   0  0  0  0  0  0  0  0  0  0  0  0
    3.2352   68.8098  -41.2120 C   0  0  0  0  0  0  0  0  0  0  0  0
    2.1840   67.7688  -41.5626 C   0  0  1  0  0  0  0  0  0  0  0  0
    1.7567   67.9966  -40.1268 C   0  0  0  0  0  0  0  0  0  0  0  0
    1.1786   68.2373  -42.5015 N   0  0  0  0  0  0  0  0  0  0  0  0
    1.3024   67.8346  -43.8531 C   0  0  0  0  0  0  0  0  0  0  0  0
    2.2786   67.0447  -44.1284 O   0  0  0  0  0  0  0  0  0  0  0  0
    0.3989   68.2610  -44.9501 C   0  0  0  0  0  0  0  0  0  0  0  0
    0.9677   69.1454  -45.8725 O   0  0  0  0  0  0  0  0  0  0  0  0
    1.2746   68.7312  -47.1748 C   0  0  0  0  0  0  0  0  0  0  0  0
    2.5646   68.6014  -47.6395 C   0  0  0  0  0  0  0  0  0  0  0  0
    2.7448   68.1904  -48.9407 C   0  0  0  0  0  0  0  0  0  0  0  0
    1.6724   67.9134  -49.7669 C   0  0  0  0  0  0  0  0  0  0  0  0
    1.9936   67.3512  -51.5519 Br  0  0  0  0  0  0  0  0  0  0  0  0
    0.3891   68.0477  -49.2880 C   0  0  0  0  0  0  0  0  0  0  0  0
    0.1816   68.4576  -47.9896 C   0  0  0  0  0  0  0  0  0  0  0  0
   -1.1752   68.6052  -47.4642 C   0  0  0  0  0  0  0  0  0  0  0  0
   -1.7119   69.7122  -47.3884 O   0  0  0  0  0  0  0  0  0  0  0  0
   -1.8535   67.4336  -47.0454 N   0  0  0  0  0  0  0  0  0  0  0  0
   -1.3058   66.1273  -46.8250 C   0  0  0  0  0  0  0  0  0  0  0  0
   -2.3172   65.4598  -45.9776 C   0  0  0  0  0  0  0  0  0  0  0  0
   -3.4461   66.1373  -45.9232 C   0  0  0  0  0  0  0  0  0  0  0  0
   -3.2597   67.3479  -46.7601 C   0  0  0  0  0  0  0  0  0  0  0  0
   -4.6732   65.8071  -45.1984 C   0  0  0  0  0  0  0  0  0  0  0  0
   -5.5879   66.7932  -44.9012 C   0  0  0  0  0  0  0  0  0  0  0  0
   -6.7643   66.4885  -44.2090 C   0  0  0  0  0  0  0  0  0  0  0  0
   -7.0305   65.2066  -43.8135 C   0  0  0  0  0  0  0  0  0  0  0  0
   -6.1157   64.2038  -44.1071 C   0  0  0  0  0  0  0  0  0  0  0  0
   -4.9425   64.5256  -44.8010 C   0  0  0  0  0  0  0  0  0  0  0  0
  1  2  1  6
  2  3  1  6
  3  4  2  0
  3  5  1  0
  6  5  1  1
  8  5  1  1
  6  7  1  0
  7  8  1  0
  7  9  1  6
  9 10  1  0
 10 11  2  0
 10 12  1  0
 12 13  1  6
 13 14  1  0
 14 15  2  0
 14 20  1  0
 15 16  1  0
 16 17  2  0
 17 18  1  0
 17 19  1  0
 19 20  2  0
 20 21  1  0
 21 22  2  0
 21 23  1  0
 24 23  1  1
 27 23  1  1
 24 25  1  0
 25 26  2  0
 26 27  1  0
 26 28  1  0
 28 29  2  0
 28 33  1  0
 29 30  1  0
 30 31  2  0
 31 32  1  0
 32 33  2  0
M  END
$$$$
