
     RDKit          3D

 33 36  0  0  0  0  0  0  0  0999 V2000
   -3.0530   69.4188  -26.9879 C   0  0  0  0  0  0  0  0  0  0  0  0
   -2.9393   69.6968  -28.4703 C   0  0  0  0  0  0  0  0  0  0  0  0
   -1.5173   69.8470  -28.8665 C   0  0  0  0  0  0  0  0  0  0  0  0
   -0.7888   68.8238  -28.8769 O   0  0  0  0  0  0  0  0  0  0  0  0
   -1.0128   71.1137  -29.2194 N   0  0  0  0  0  0  0  0  0  0  0  0
    0.2972   71.6970  -29.3808 C   0  0  0  0  0  0  0  0  0  0  0  0
   -0.3246   72.6409  -30.3976 C   0  0  1  0  0  0  0  0  0  0  0  0
   -1.5739   72.3941  -29.5764 C   0  0  0  0  0  0  0  0  0  0  0  0
    0.1295   74.0165  -30.2818 N   0  0  0  0  0  0  0  0  0  0  0  0
   -0.0660   74.8697  -31.3946 C   0  0  0  0  0  0  0  0  0  0  0  0
   -0.6370   74.3492  -32.4222 O   0  0  0  0  0  0  0  0  0  0  0  0
    0.3418   76.2952  -31.4510 C   0  0  0  0  0  0  0  0  0  0  0  0
   -0.1490   77.0060  -32.5511 O   0  0  0  0  0  0  0  0  0  0  0  0
   -0.4629   78.3671  -32.4493 C   0  0  0  0  0  0  0  0  0  0  0  0
   -0.4718   79.0506  -31.2536 C   0  0  0  0  0  0  0  0  0  0  0  0
   -0.8004   80.3870  -31.2752 C   0  0  0  0  0  0  0  0  0  0  0  0
   -1.1143   81.0357  -32.4543 C   0  0  0  0  0  0  0  0  0  0  0  0
   -1.5591   82.8812  -32.4112 Br  0  0  0  0  0  0  0  0  0  0  0  0
   -1.1010   80.3392  -33.6412 C   0  0  0  0  0  0  0  0  0  0  0  0
   -0.7756   79.0009  -33.6467 C   0  0  0  0  0  0  0  0  0  0  0  0
   -0.7560   78.2455  -34.8988 C   0  0  0  0  0  0  0  0  0  0  0  0
    0.1761   78.3600  -35.6972 O   0  0  0  0  0  0  0  0  0  0  0  0
   -1.8436   77.3768  -35.1645 N   0  0  0  0  0  0  0  0  0  0  0  0
   -2.8651   76.9385  -34.2591 C   0  0  0  0  0  0  0  0  0  0  0  0
   -3.9464   76.4664  -35.1503 C   0  0  0  0  0  0  0  0  0  0  0  0
   -3.5474   76.3551  -36.4012 C   0  0  0  0  0  0  0  0  0  0  0  0
   -2.1206   76.7604  -36.4330 C   0  0  0  0  0  0  0  0  0  0  0  0
   -4.3158   75.9210  -37.5678 C   0  0  0  0  0  0  0  0  0  0  0  0
   -5.5598   75.3525  -37.4046 C   0  0  0  0  0  0  0  0  0  0  0  0
   -6.3030   74.9342  -38.5131 C   0  0  0  0  0  0  0  0  0  0  0  0
   -5.8104   75.0809  -39.7805 C   0  0  0  0  0  0  0  0  0  0  0  0
   -4.5571   75.6525  -39.9578 C   0  0  0  0  0  0  0  0  0  0  0  0
   -3.8258   76.0661  -38.8374 C   0  0  0  0  0  0  0  0  0  0  0  0
  1  2  1  6
  2  3  1  6
  3  4  2  0
  3  5  1  0
  6  5  1  1
  8  5  1  1
  6  7  1  0
  7  8  1  0
  7  9  1  1
  9 10  1  0
 10 11  2  0
 10 12  1  0
 12 13  1  6
 13 14  1  0
 14 15  2  0
 14 20  1  0
 15 16  1  0
 16 17  2  0
 17 18  1  0
 17 19  1  0
 19 20  2  0
 20 21  1  0
 21 22  2  0
 21 23  1  0
 24 23  1  1
 27 23  1  1
 24 25  1  0
 25 26  2  0
 26 27  1  0
 26 28  1  0
 28 29  2  0
 28 33  1  0
 29 30  1  0
 30 31  2  0
 31 32  1  0
 32 33  2  0
M  END
$$$$
