
     RDKit          3D

 33 36  0  0  0  0  0  0  0  0999 V2000
   -1.2629   68.9285  -29.6103 C   0  0  0  0  0  0  0  0  0  0  0  0
   -1.2455   70.2745  -30.2999 C   0  0  0  0  0  0  0  0  0  0  0  0
   -0.9623   71.3574  -29.3257 C   0  0  0  0  0  0  0  0  0  0  0  0
   -0.7758   71.0455  -28.1234 O   0  0  0  0  0  0  0  0  0  0  0  0
   -0.9077   72.6974  -29.7559 N   0  0  0  0  0  0  0  0  0  0  0  0
   -0.6243   73.9709  -29.1393 C   0  0  0  0  0  0  0  0  0  0  0  0
   -0.1301   74.4405  -30.4982 C   0  0  1  0  0  0  0  0  0  0  0  0
   -1.1100   73.3993  -31.0001 C   0  0  0  0  0  0  0  0  0  0  0  0
   -0.5525   75.7863  -30.8479 N   0  0  0  0  0  0  0  0  0  0  0  0
    0.2043   76.4812  -31.8218 C   0  0  0  0  0  0  0  0  0  0  0  0
    1.2720   75.8996  -32.2398 O   0  0  0  0  0  0  0  0  0  0  0  0
   -0.1464   77.8121  -32.3760 C   0  0  0  0  0  0  0  0  0  0  0  0
   -1.0096   77.7840  -33.4763 O   0  0  0  0  0  0  0  0  0  0  0  0
   -1.1242   78.8868  -34.3321 C   0  0  0  0  0  0  0  0  0  0  0  0
   -1.5398   80.1295  -33.9078 C   0  0  0  0  0  0  0  0  0  0  0  0
   -1.6184   81.1383  -34.8408 C   0  0  0  0  0  0  0  0  0  0  0  0
   -1.2934   80.9243  -36.1667 C   0  0  0  0  0  0  0  0  0  0  0  0
   -1.4253   82.3613  -37.4009 Br  0  0  0  0  0  0  0  0  0  0  0  0
   -0.8797   79.6770  -36.5755 C   0  0  0  0  0  0  0  0  0  0  0  0
   -0.7926   78.6503  -35.6615 C   0  0  0  0  0  0  0  0  0  0  0  0
   -0.3544   77.3188  -36.0784 C   0  0  0  0  0  0  0  0  0  0  0  0
    0.8215   76.9689  -35.9592 O   0  0  0  0  0  0  0  0  0  0  0  0
   -1.3259   76.4430  -36.6235 N   0  0  0  0  0  0  0  0  0  0  0  0
   -1.3982   75.0167  -36.4985 C   0  0  0  0  0  0  0  0  0  0  0  0
   -2.8036   74.7045  -36.8363 C   0  0  0  0  0  0  0  0  0  0  0  0
   -3.4278   75.7350  -37.3699 C   0  0  0  0  0  0  0  0  0  0  0  0
   -2.4473   76.8468  -37.4269 C   0  0  0  0  0  0  0  0  0  0  0  0
   -4.8123   75.8213  -37.8343 C   0  0  0  0  0  0  0  0  0  0  0  0
   -5.6229   74.7080  -37.8042 C   0  0  0  0  0  0  0  0  0  0  0  0
   -6.9481   74.7794  -38.2455 C   0  0  0  0  0  0  0  0  0  0  0  0
   -7.4659   75.9549  -38.7154 C   0  0  0  0  0  0  0  0  0  0  0  0
   -6.6582   77.0842  -38.7508 C   0  0  0  0  0  0  0  0  0  0  0  0
   -5.3335   76.9958  -38.3053 C   0  0  0  0  0  0  0  0  0  0  0  0
  1  2  1  6
  2  3  1  6
  3  4  2  0
  3  5  1  0
  6  5  1  1
  8  5  1  1
  6  7  1  0
  7  8  1  0
  7  9  1  6
  9 10  1  0
 10 11  2  0
 10 12  1  0
 12 13  1  6
 13 14  1  0
 14 15  2  0
 14 20  1  0
 15 16  1  0
 16 17  2  0
 17 18  1  0
 17 19  1  0
 19 20  2  0
 20 21  1  0
 21 22  2  0
 21 23  1  0
 24 23  1  1
 27 23  1  1
 24 25  1  0
 25 26  2  0
 26 27  1  0
 26 28  1  0
 28 29  2  0
 28 33  1  0
 29 30  1  0
 30 31  2  0
 31 32  1  0
 32 33  2  0
M  END
$$$$
