
     RDKit          3D

 33 36  0  0  0  0  0  0  0  0999 V2000
    0.1781   76.3894  -25.8469 C   0  0  0  0  0  0  0  0  0  0  0  0
    0.9611   75.8649  -27.0138 C   0  0  0  0  0  0  0  0  0  0  0  0
    0.2497   74.7024  -27.5936 C   0  0  0  0  0  0  0  0  0  0  0  0
   -0.6319   74.1418  -26.8936 O   0  0  0  0  0  0  0  0  0  0  0  0
    0.5902   74.2792  -28.8956 N   0  0  0  0  0  0  0  0  0  0  0  0
    1.5083   74.6867  -29.9254 C   0  0  0  0  0  0  0  0  0  0  0  0
    0.4966   74.1133  -30.9310 C   0  0  1  0  0  0  0  0  0  0  0  0
    0.1564   73.2294  -29.7816 C   0  0  0  0  0  0  0  0  0  0  0  0
   -0.4430   75.1637  -31.2419 N   0  0  0  0  0  0  0  0  0  0  0  0
   -0.7919   75.5714  -32.5364 C   0  0  0  0  0  0  0  0  0  0  0  0
   -0.1966   75.1026  -33.5070 O   0  0  0  0  0  0  0  0  0  0  0  0
   -1.8749   76.5632  -32.7168 C   0  0  0  0  0  0  0  0  0  0  0  0
   -1.3826   77.6497  -33.4562 O   0  0  0  0  0  0  0  0  0  0  0  0
   -2.1454   78.3292  -34.3853 C   0  0  0  0  0  0  0  0  0  0  0  0
   -3.1737   79.1813  -34.0789 C   0  0  0  0  0  0  0  0  0  0  0  0
   -3.9011   79.8311  -35.0655 C   0  0  0  0  0  0  0  0  0  0  0  0
   -3.5808   79.6124  -36.3752 C   0  0  0  0  0  0  0  0  0  0  0  0
   -4.5278   80.4634  -37.7867 Br  0  0  0  0  0  0  0  0  0  0  0  0
   -2.5513   78.7579  -36.6666 C   0  0  0  0  0  0  0  0  0  0  0  0
   -1.8046   78.0938  -35.7205 C   0  0  0  0  0  0  0  0  0  0  0  0
   -0.7153   77.1914  -36.0720 C   0  0  0  0  0  0  0  0  0  0  0  0
    0.4314   77.3874  -35.5985 O   0  0  0  0  0  0  0  0  0  0  0  0
   -0.9177   76.1005  -36.9329 N   0  0  0  0  0  0  0  0  0  0  0  0
    0.0559   75.1139  -37.4091 C   0  0  0  0  0  0  0  0  0  0  0  0
   -0.7774   73.8893  -37.4928 C   0  0  0  0  0  0  0  0  0  0  0  0
   -2.0425   74.2305  -37.5764 C   0  0  0  0  0  0  0  0  0  0  0  0
   -2.1793   75.7038  -37.5569 C   0  0  0  0  0  0  0  0  0  0  0  0
   -3.1570   73.2932  -37.6747 C   0  0  0  0  0  0  0  0  0  0  0  0
   -4.4184   73.7111  -37.3165 C   0  0  0  0  0  0  0  0  0  0  0  0
   -5.4983   72.8693  -37.3909 C   0  0  0  0  0  0  0  0  0  0  0  0
   -5.3259   71.5694  -37.8347 C   0  0  0  0  0  0  0  0  0  0  0  0
   -4.0517   71.1528  -38.1948 C   0  0  0  0  0  0  0  0  0  0  0  0
   -2.9809   72.0032  -38.1160 C   0  0  0  0  0  0  0  0  0  0  0  0
  1  2  1  0
  2  3  1  0
  3  4  2  0
  3  5  1  0
  5  6  1  0
  5  8  1  0
  6  7  1  0
  7  8  1  0
  7  9  1  1
  9 10  1  0
 10 11  2  0
 10 12  1  0
 12 13  1  0
 13 14  1  0
 14 15  2  0
 14 20  1  0
 15 16  1  0
 16 17  2  0
 17 18  1  0
 17 19  1  0
 19 20  2  0
 20 21  1  0
 21 22  2  0
 21 23  1  0
 23 24  1  0
 23 27  1  0
 24 25  1  0
 25 26  2  0
 26 27  1  0
 26 28  1  0
 28 29  2  0
 28 33  1  0
 29 30  1  0
 30 31  2  0
 31 32  1  0
 32 33  2  0
M  END
$$$$
