
     RDKit          3D

 33 36  0  0  0  0  0  0  0  0999 V2000
   -1.2615   73.4834  -53.2056 C   0  0  0  0  0  0  0  0  0  0  0  0
   -2.5325   72.6899  -52.9993 C   0  0  0  0  0  0  0  0  0  0  0  0
   -2.3434   71.2803  -53.4223 C   0  0  0  0  0  0  0  0  0  0  0  0
   -2.0500   71.0509  -54.6218 O   0  0  0  0  0  0  0  0  0  0  0  0
   -2.4930   70.2368  -52.4883 N   0  0  0  0  0  0  0  0  0  0  0  0
   -2.9850   70.1211  -51.1367 C   0  0  0  0  0  0  0  0  0  0  0  0
   -3.3633   68.6870  -51.4710 C   0  0  1  0  0  0  0  0  0  0  0  0
   -2.2229   68.8198  -52.4598 C   0  0  0  0  0  0  0  0  0  0  0  0
   -3.0523   67.7335  -50.4194 N   0  0  0  0  0  0  0  0  0  0  0  0
   -4.0685   67.4356  -49.4798 C   0  0  0  0  0  0  0  0  0  0  0  0
   -5.2810   67.5674  -49.8863 O   0  0  0  0  0  0  0  0  0  0  0  0
   -3.8284   66.9945  -48.0837 C   0  0  0  0  0  0  0  0  0  0  0  0
   -4.4891   67.7454  -47.1060 O   0  0  0  0  0  0  0  0  0  0  0  0
   -5.2330   67.1213  -46.0967 C   0  0  0  0  0  0  0  0  0  0  0  0
   -6.5567   66.7704  -46.2442 C   0  0  0  0  0  0  0  0  0  0  0  0
   -7.1874   66.1652  -45.1811 C   0  0  0  0  0  0  0  0  0  0  0  0
   -6.5244   65.9117  -43.9955 C   0  0  0  0  0  0  0  0  0  0  0  0
   -7.4561   65.0739  -42.5687 Br  0  0  0  0  0  0  0  0  0  0  0  0
   -5.2017   66.2682  -43.8633 C   0  0  0  0  0  0  0  0  0  0  0  0
   -4.5474   66.8753  -44.9123 C   0  0  0  0  0  0  0  0  0  0  0  0
   -3.1420   67.2602  -44.7893 C   0  0  0  0  0  0  0  0  0  0  0  0
   -2.8169   68.3231  -44.2565 O   0  0  0  0  0  0  0  0  0  0  0  0
   -2.1651   66.3709  -45.3023 N   0  0  0  0  0  0  0  0  0  0  0  0
   -2.3539   65.0331  -45.7816 C   0  0  0  0  0  0  0  0  0  0  0  0
   -1.1487   64.7790  -46.5998 C   0  0  0  0  0  0  0  0  0  0  0  0
   -0.2222   65.6986  -46.4200 C   0  0  0  0  0  0  0  0  0  0  0  0
   -0.7646   66.6656  -45.4343 C   0  0  0  0  0  0  0  0  0  0  0  0
    1.0985   65.7955  -47.0415 C   0  0  0  0  0  0  0  0  0  0  0  0
    2.0082   66.7269  -46.5917 C   0  0  0  0  0  0  0  0  0  0  0  0
    3.2737   66.8279  -47.1784 C   0  0  0  0  0  0  0  0  0  0  0  0
    3.6337   66.0047  -48.2097 C   0  0  0  0  0  0  0  0  0  0  0  0
    2.7249   65.0618  -48.6720 C   0  0  0  0  0  0  0  0  0  0  0  0
    1.4619   64.9736  -48.0736 C   0  0  0  0  0  0  0  0  0  0  0  0
  1  2  1  6
  2  3  1  6
  3  4  2  0
  3  5  1  0
  6  5  1  1
  8  5  1  1
  6  7  1  0
  7  8  1  0
  7  9  1  1
  9 10  1  0
 10 11  2  0
 10 12  1  0
 12 13  1  6
 13 14  1  0
 14 15  2  0
 14 20  1  0
 15 16  1  0
 16 17  2  0
 17 18  1  0
 17 19  1  0
 19 20  2  0
 20 21  1  0
 21 22  2  0
 21 23  1  0
 24 23  1  1
 27 23  1  1
 24 25  1  0
 25 26  2  0
 26 27  1  0
 26 28  1  0
 28 29  2  0
 28 33  1  0
 29 30  1  0
 30 31  2  0
 31 32  1  0
 32 33  2  0
M  END
$$$$
