
     RDKit          3D

 33 36  0  0  0  0  0  0  0  0999 V2000
    1.3861   68.8829  -29.3748 C   0  0  0  0  0  0  0  0  0  0  0  0
    1.0130   70.1474  -30.0901 C   0  0  0  0  0  0  0  0  0  0  0  0
    2.1330   71.1113  -29.9900 C   0  0  0  0  0  0  0  0  0  0  0  0
    3.1998   70.8407  -30.5986 O   0  0  0  0  0  0  0  0  0  0  0  0
    1.9545   72.2813  -29.2222 N   0  0  0  0  0  0  0  0  0  0  0  0
    0.8630   72.9489  -28.5645 C   0  0  0  0  0  0  0  0  0  0  0  0
    1.6340   74.2569  -28.8057 C   0  0  1  0  0  0  0  0  0  0  0  0
    2.8079   73.3420  -28.7513 C   0  0  0  0  0  0  0  0  0  0  0  0
    1.2529   74.7465  -30.1088 N   0  0  0  0  0  0  0  0  0  0  0  0
    0.2448   75.6897  -30.3487 C   0  0  0  0  0  0  0  0  0  0  0  0
   -0.6327   75.8757  -29.5052 O   0  0  0  0  0  0  0  0  0  0  0  0
    0.2511   76.4505  -31.6177 C   0  0  0  0  0  0  0  0  0  0  0  0
   -1.0310   76.9744  -31.8442 O   0  0  0  0  0  0  0  0  0  0  0  0
   -1.2676   78.3236  -32.0189 C   0  0  0  0  0  0  0  0  0  0  0  0
   -1.4137   79.2294  -31.0013 C   0  0  0  0  0  0  0  0  0  0  0  0
   -1.6521   80.5733  -31.2495 C   0  0  0  0  0  0  0  0  0  0  0  0
   -1.7434   81.0003  -32.5438 C   0  0  0  0  0  0  0  0  0  0  0  0
   -2.0681   82.8243  -32.9692 Br  0  0  0  0  0  0  0  0  0  0  0  0
   -1.5960   80.0840  -33.5506 C   0  0  0  0  0  0  0  0  0  0  0  0
   -1.3585   78.7436  -33.3492 C   0  0  0  0  0  0  0  0  0  0  0  0
   -1.2074   77.7993  -34.4492 C   0  0  0  0  0  0  0  0  0  0  0  0
   -0.0844   77.6528  -34.9926 O   0  0  0  0  0  0  0  0  0  0  0  0
   -2.2938   77.0440  -34.9197 N   0  0  0  0  0  0  0  0  0  0  0  0
   -3.5039   76.6314  -34.2032 C   0  0  0  0  0  0  0  0  0  0  0  0
   -4.5202   76.6786  -35.2830 C   0  0  0  0  0  0  0  0  0  0  0  0
   -3.9195   76.5988  -36.4477 C   0  0  0  0  0  0  0  0  0  0  0  0
   -2.4551   76.4913  -36.2639 C   0  0  0  0  0  0  0  0  0  0  0  0
   -4.5965   76.6135  -37.7407 C   0  0  0  0  0  0  0  0  0  0  0  0
   -5.9430   76.3343  -37.7959 C   0  0  0  0  0  0  0  0  0  0  0  0
   -6.6250   76.3355  -38.9856 C   0  0  0  0  0  0  0  0  0  0  0  0
   -5.9532   76.6224  -40.1615 C   0  0  0  0  0  0  0  0  0  0  0  0
   -4.5952   76.9032  -40.1004 C   0  0  0  0  0  0  0  0  0  0  0  0
   -3.9252   76.8989  -38.9058 C   0  0  0  0  0  0  0  0  0  0  0  0
  1  2  1  0
  2  3  1  0
  3  4  2  0
  3  5  1  0
  5  6  1  0
  5  8  1  0
  6  7  1  0
  7  8  1  0
  7  9  1  6
  9 10  1  0
 10 11  2  0
 10 12  1  0
 12 13  1  0
 13 14  1  0
 14 15  2  0
 14 20  1  0
 15 16  1  0
 16 17  2  0
 17 18  1  0
 17 19  1  0
 19 20  2  0
 20 21  1  0
 21 22  2  0
 21 23  1  0
 23 24  1  0
 23 27  1  0
 24 25  1  0
 25 26  2  0
 26 27  1  0
 26 28  1  0
 28 29  2  0
 28 33  1  0
 29 30  1  0
 30 31  2  0
 31 32  1  0
 32 33  2  0
M  END
$$$$
