
     RDKit          3D

 33 36  0  0  0  0  0  0  0  0999 V2000
    6.5717   72.6119  -30.2917 C   0  0  0  0  0  0  0  0  0  0  0  0
    5.1872   72.0385  -30.3567 C   0  0  0  0  0  0  0  0  0  0  0  0
    4.3264   72.7334  -29.3718 C   0  0  0  0  0  0  0  0  0  0  0  0
    4.8852   73.4502  -28.5027 O   0  0  0  0  0  0  0  0  0  0  0  0
    2.9285   72.5612  -29.4521 N   0  0  0  0  0  0  0  0  0  0  0  0
    1.9871   72.0513  -30.4129 C   0  0  0  0  0  0  0  0  0  0  0  0
    0.9681   73.0254  -29.7994 C   0  0  1  0  0  0  0  0  0  0  0  0
    1.8086   72.8275  -28.5859 C   0  0  0  0  0  0  0  0  0  0  0  0
    1.1098   74.2858  -30.4881 N   0  0  0  0  0  0  0  0  0  0  0  0
    0.1767   74.8183  -31.3877 C   0  0  0  0  0  0  0  0  0  0  0  0
   -0.7303   74.1072  -31.8212 O   0  0  0  0  0  0  0  0  0  0  0  0
    0.2970   76.2329  -31.8042 C   0  0  0  0  0  0  0  0  0  0  0  0
   -0.9878   76.7750  -31.9619 O   0  0  0  0  0  0  0  0  0  0  0  0
   -1.2059   78.0881  -32.3293 C   0  0  0  0  0  0  0  0  0  0  0  0
   -0.2572   79.0761  -32.2970 C   0  0  0  0  0  0  0  0  0  0  0  0
   -0.5464   80.3779  -32.6795 C   0  0  0  0  0  0  0  0  0  0  0  0
   -1.8115   80.6783  -33.0980 C   0  0  0  0  0  0  0  0  0  0  0  0
   -2.2895   82.4367  -33.6388 Br  0  0  0  0  0  0  0  0  0  0  0  0
   -2.7496   79.6810  -33.1245 C   0  0  0  0  0  0  0  0  0  0  0  0
   -2.5056   78.3783  -32.7545 C   0  0  0  0  0  0  0  0  0  0  0  0
   -3.5326   77.3448  -32.7971 C   0  0  0  0  0  0  0  0  0  0  0  0
   -4.3420   77.2334  -31.8431 O   0  0  0  0  0  0  0  0  0  0  0  0
   -3.6400   76.4644  -33.8859 N   0  0  0  0  0  0  0  0  0  0  0  0
   -4.2486   75.1319  -33.9325 C   0  0  0  0  0  0  0  0  0  0  0  0
   -4.8091   75.1082  -35.3059 C   0  0  0  0  0  0  0  0  0  0  0  0
   -4.1846   75.9959  -36.0446 C   0  0  0  0  0  0  0  0  0  0  0  0
   -3.1538   76.6950  -35.2456 C   0  0  0  0  0  0  0  0  0  0  0  0
   -4.4644   76.2580  -37.4529 C   0  0  0  0  0  0  0  0  0  0  0  0
   -3.6030   77.0562  -38.1706 C   0  0  0  0  0  0  0  0  0  0  0  0
   -3.8212   77.3325  -39.4959 C   0  0  0  0  0  0  0  0  0  0  0  0
   -4.9289   76.8017  -40.1343 C   0  0  0  0  0  0  0  0  0  0  0  0
   -5.7946   75.9973  -39.4061 C   0  0  0  0  0  0  0  0  0  0  0  0
   -5.5657   75.7287  -38.0827 C   0  0  0  0  0  0  0  0  0  0  0  0
  1  2  1  0
  2  3  1  0
  3  4  2  0
  3  5  1  0
  5  6  1  0
  5  8  1  0
  6  7  1  0
  7  8  1  0
  7  9  1  6
  9 10  1  0
 10 11  2  0
 10 12  1  0
 12 13  1  0
 13 14  1  0
 14 15  2  0
 14 20  1  0
 15 16  1  0
 16 17  2  0
 17 18  1  0
 17 19  1  0
 19 20  2  0
 20 21  1  0
 21 22  2  0
 21 23  1  0
 23 24  1  0
 23 27  1  0
 24 25  1  0
 25 26  2  0
 26 27  1  0
 26 28  1  0
 28 29  2  0
 28 33  1  0
 29 30  1  0
 30 31  2  0
 31 32  1  0
 32 33  2  0
M  END
$$$$
