
     RDKit          3D

 33 36  0  0  0  0  0  0  0  0999 V2000
    0.5143   70.5985  -26.9132 C   0  0  0  0  0  0  0  0  0  0  0  0
   -0.0280   71.6425  -27.8436 C   0  0  0  0  0  0  0  0  0  0  0  0
    0.5771   71.4615  -29.1833 C   0  0  0  0  0  0  0  0  0  0  0  0
    0.6297   70.2964  -29.6537 O   0  0  0  0  0  0  0  0  0  0  0  0
    1.0637   72.5957  -29.8667 N   0  0  0  0  0  0  0  0  0  0  0  0
    0.9530   74.0245  -29.7413 C   0  0  0  0  0  0  0  0  0  0  0  0
    1.1547   74.0850  -31.2642 C   0  0  1  0  0  0  0  0  0  0  0  0
    1.9036   72.8220  -31.0150 C   0  0  0  0  0  0  0  0  0  0  0  0
   -0.1465   73.9577  -31.8756 N   0  0  0  0  0  0  0  0  0  0  0  0
   -0.5609   74.6358  -33.0297 C   0  0  0  0  0  0  0  0  0  0  0  0
    0.1705   75.4880  -33.5348 O   0  0  0  0  0  0  0  0  0  0  0  0
   -1.8767   74.3154  -33.6255 C   0  0  0  0  0  0  0  0  0  0  0  0
   -2.1341   75.2098  -34.6759 O   0  0  0  0  0  0  0  0  0  0  0  0
   -3.3493   75.2665  -35.3293 C   0  0  0  0  0  0  0  0  0  0  0  0
   -3.9407   74.2109  -35.9720 C   0  0  0  0  0  0  0  0  0  0  0  0
   -5.1652   74.3393  -36.6113 C   0  0  0  0  0  0  0  0  0  0  0  0
   -5.7940   75.5519  -36.5976 C   0  0  0  0  0  0  0  0  0  0  0  0
   -7.4734   75.8116  -37.4494 Br  0  0  0  0  0  0  0  0  0  0  0  0
   -5.1910   76.5982  -35.9520 C   0  0  0  0  0  0  0  0  0  0  0  0
   -3.9789   76.5145  -35.3060 C   0  0  0  0  0  0  0  0  0  0  0  0
   -3.3698   77.6529  -34.6296 C   0  0  0  0  0  0  0  0  0  0  0  0
   -3.3786   77.7077  -33.3747 O   0  0  0  0  0  0  0  0  0  0  0  0
   -2.7691   78.6972  -35.3512 N   0  0  0  0  0  0  0  0  0  0  0  0
   -1.8013   79.6954  -34.8875 C   0  0  0  0  0  0  0  0  0  0  0  0
   -0.9680   79.8882  -36.0998 C   0  0  0  0  0  0  0  0  0  0  0  0
   -1.6455   79.5048  -37.1571 C   0  0  0  0  0  0  0  0  0  0  0  0
   -2.9868   79.0220  -36.7602 C   0  0  0  0  0  0  0  0  0  0  0  0
   -1.1495   79.5476  -38.5291 C   0  0  0  0  0  0  0  0  0  0  0  0
   -1.9834   79.1675  -39.5559 C   0  0  0  0  0  0  0  0  0  0  0  0
   -1.5655   79.1899  -40.8617 C   0  0  0  0  0  0  0  0  0  0  0  0
   -0.2790   79.6023  -41.1636 C   0  0  0  0  0  0  0  0  0  0  0  0
    0.5581   79.9846  -40.1245 C   0  0  0  0  0  0  0  0  0  0  0  0
    0.1289   79.9578  -38.8241 C   0  0  0  0  0  0  0  0  0  0  0  0
  1  2  1  0
  2  3  1  0
  3  4  2  0
  3  5  1  0
  5  6  1  0
  5  8  1  0
  6  7  1  0
  7  8  1  0
  7  9  1  6
  9 10  1  0
 10 11  2  0
 10 12  1  0
 12 13  1  0
 13 14  1  0
 14 15  2  0
 14 20  1  0
 15 16  1  0
 16 17  2  0
 17 18  1  0
 17 19  1  0
 19 20  2  0
 20 21  1  0
 21 22  2  0
 21 23  1  0
 23 24  1  0
 23 27  1  0
 24 25  1  0
 25 26  2  0
 26 27  1  0
 26 28  1  0
 28 29  2  0
 28 33  1  0
 29 30  1  0
 30 31  2  0
 31 32  1  0
 32 33  2  0
M  END
$$$$
