
     RDKit          3D

 33 36  0  0  0  0  0  0  0  0999 V2000
    6.3702   72.6052  -25.1129 C   0  0  0  0  0  0  0  0  0  0  0  0
    5.1136   73.1584  -25.7475 C   0  0  0  0  0  0  0  0  0  0  0  0
    4.4155   72.1072  -26.5280 C   0  0  0  0  0  0  0  0  0  0  0  0
    4.7657   70.9118  -26.3667 O   0  0  0  0  0  0  0  0  0  0  0  0
    3.3872   72.4587  -27.4238 N   0  0  0  0  0  0  0  0  0  0  0  0
    2.7823   73.6896  -27.8725 C   0  0  0  0  0  0  0  0  0  0  0  0
    2.4723   72.9794  -29.1806 C   0  0  1  0  0  0  0  0  0  0  0  0
    2.4778   71.7516  -28.2925 C   0  0  0  0  0  0  0  0  0  0  0  0
    1.1449   73.2565  -29.7033 N   0  0  0  0  0  0  0  0  0  0  0  0
    1.0544   73.9430  -30.9381 C   0  0  0  0  0  0  0  0  0  0  0  0
    2.1001   74.5910  -31.3114 O   0  0  0  0  0  0  0  0  0  0  0  0
   -0.1471   73.9656  -31.8085 C   0  0  0  0  0  0  0  0  0  0  0  0
   -0.5973   75.2426  -32.1594 O   0  0  0  0  0  0  0  0  0  0  0  0
   -1.5195   75.9281  -31.3587 C   0  0  0  0  0  0  0  0  0  0  0  0
   -1.2112   76.4254  -30.1119 C   0  0  0  0  0  0  0  0  0  0  0  0
   -2.2011   77.0787  -29.4135 C   0  0  0  0  0  0  0  0  0  0  0  0
   -3.4705   77.2376  -29.9358 C   0  0  0  0  0  0  0  0  0  0  0  0
   -4.7887   78.1492  -28.9173 Br  0  0  0  0  0  0  0  0  0  0  0  0
   -3.7634   76.7351  -31.1831 C   0  0  0  0  0  0  0  0  0  0  0  0
   -2.7905   76.0771  -31.9025 C   0  0  0  0  0  0  0  0  0  0  0  0
   -3.0841   75.5373  -33.2296 C   0  0  0  0  0  0  0  0  0  0  0  0
   -3.1643   74.3220  -33.4194 O   0  0  0  0  0  0  0  0  0  0  0  0
   -3.2742   76.4570  -34.2907 N   0  0  0  0  0  0  0  0  0  0  0  0
   -2.7932   77.8040  -34.3885 C   0  0  0  0  0  0  0  0  0  0  0  0
   -2.8704   78.1012  -35.8350 C   0  0  0  0  0  0  0  0  0  0  0  0
   -3.5621   77.1932  -36.4933 C   0  0  0  0  0  0  0  0  0  0  0  0
   -4.0103   76.1904  -35.4961 C   0  0  0  0  0  0  0  0  0  0  0  0
   -3.8619   77.1362  -37.9240 C   0  0  0  0  0  0  0  0  0  0  0  0
   -3.5335   78.1944  -38.7425 C   0  0  0  0  0  0  0  0  0  0  0  0
   -3.8154   78.1502  -40.1116 C   0  0  0  0  0  0  0  0  0  0  0  0
   -4.4221   77.0567  -40.6654 C   0  0  0  0  0  0  0  0  0  0  0  0
   -4.7582   75.9837  -39.8503 C   0  0  0  0  0  0  0  0  0  0  0  0
   -4.4691   76.0437  -38.4813 C   0  0  0  0  0  0  0  0  0  0  0  0
  1  2  1  6
  2  3  1  6
  3  4  2  0
  3  5  1  0
  6  5  1  1
  8  5  1  1
  6  7  1  0
  7  8  1  0
  7  9  1  1
  9 10  1  0
 10 11  2  0
 10 12  1  0
 12 13  1  6
 13 14  1  0
 14 15  2  0
 14 20  1  0
 15 16  1  0
 16 17  2  0
 17 18  1  0
 17 19  1  0
 19 20  2  0
 20 21  1  0
 21 22  2  0
 21 23  1  0
 24 23  1  1
 27 23  1  1
 24 25  1  0
 25 26  2  0
 26 27  1  0
 26 28  1  0
 28 29  2  0
 28 33  1  0
 29 30  1  0
 30 31  2  0
 31 32  1  0
 32 33  2  0
M  END
$$$$
