
     RDKit          3D

 33 36  0  0  0  0  0  0  0  0999 V2000
   -1.4396   71.5038  -27.7642 C   0  0  0  0  0  0  0  0  0  0  0  0
   -1.8143   72.5313  -28.7907 C   0  0  0  0  0  0  0  0  0  0  0  0
   -0.9902   72.3290  -30.0046 C   0  0  0  0  0  0  0  0  0  0  0  0
   -1.0102   71.1952  -30.5484 O   0  0  0  0  0  0  0  0  0  0  0  0
   -0.2254   73.4092  -30.4930 N   0  0  0  0  0  0  0  0  0  0  0  0
   -0.2470   74.8436  -30.3867 C   0  0  0  0  0  0  0  0  0  0  0  0
    0.4096   74.8681  -31.7765 C   0  0  1  0  0  0  0  0  0  0  0  0
    0.9382   73.5490  -31.3308 C   0  0  0  0  0  0  0  0  0  0  0  0
   -0.6519   74.8448  -32.7540 N   0  0  0  0  0  0  0  0  0  0  0  0
   -0.7539   75.7131  -33.8491 C   0  0  0  0  0  0  0  0  0  0  0  0
    0.2177   76.3905  -34.1857 O   0  0  0  0  0  0  0  0  0  0  0  0
   -2.0335   75.8023  -34.5867 C   0  0  0  0  0  0  0  0  0  0  0  0
   -1.7656   75.8661  -35.9628 O   0  0  0  0  0  0  0  0  0  0  0  0
   -2.7269   75.6238  -36.9240 C   0  0  0  0  0  0  0  0  0  0  0  0
   -3.3182   74.4084  -37.1485 C   0  0  0  0  0  0  0  0  0  0  0  0
   -4.2782   74.2353  -38.1350 C   0  0  0  0  0  0  0  0  0  0  0  0
   -4.6399   75.3071  -38.9006 C   0  0  0  0  0  0  0  0  0  0  0  0
   -5.9470   75.1543  -40.2723 Br  0  0  0  0  0  0  0  0  0  0  0  0
   -4.0403   76.5156  -38.6655 C   0  0  0  0  0  0  0  0  0  0  0  0
   -3.0851   76.7311  -37.6987 C   0  0  0  0  0  0  0  0  0  0  0  0
   -2.4701   78.0343  -37.4796 C   0  0  0  0  0  0  0  0  0  0  0  0
   -1.3246   78.2661  -37.9400 O   0  0  0  0  0  0  0  0  0  0  0  0
   -3.1312   79.0440  -36.7616 N   0  0  0  0  0  0  0  0  0  0  0  0
   -4.4736   79.0239  -36.1739 C   0  0  0  0  0  0  0  0  0  0  0  0
   -4.2777   79.8470  -34.9551 C   0  0  0  0  0  0  0  0  0  0  0  0
   -3.2187   80.6071  -35.1109 C   0  0  0  0  0  0  0  0  0  0  0  0
   -2.6069   80.3700  -36.4372 C   0  0  0  0  0  0  0  0  0  0  0  0
   -2.7143   81.5523  -34.1195 C   0  0  0  0  0  0  0  0  0  0  0  0
   -3.4892   81.8502  -33.0219 C   0  0  0  0  0  0  0  0  0  0  0  0
   -3.0608   82.7311  -32.0623 C   0  0  0  0  0  0  0  0  0  0  0  0
   -1.8238   83.3388  -32.1918 C   0  0  0  0  0  0  0  0  0  0  0  0
   -1.0461   83.0351  -33.3006 C   0  0  0  0  0  0  0  0  0  0  0  0
   -1.4852   82.1533  -34.2523 C   0  0  0  0  0  0  0  0  0  0  0  0
  1  2  1  0
  2  3  1  0
  3  4  2  0
  3  5  1  0
  5  6  1  0
  5  8  1  0
  6  7  1  0
  7  8  1  0
  7  9  1  6
  9 10  1  0
 10 11  2  0
 10 12  1  0
 12 13  1  0
 13 14  1  0
 14 15  2  0
 14 20  1  0
 15 16  1  0
 16 17  2  0
 17 18  1  0
 17 19  1  0
 19 20  2  0
 20 21  1  0
 21 22  2  0
 21 23  1  0
 23 24  1  0
 23 27  1  0
 24 25  1  0
 25 26  2  0
 26 27  1  0
 26 28  1  0
 28 29  2  0
 28 33  1  0
 29 30  1  0
 30 31  2  0
 31 32  1  0
 32 33  2  0
M  END
$$$$
