
     RDKit          3D

 33 36  0  0  0  0  0  0  0  0999 V2000
    6.1690   71.5304  -28.4456 C   0  0  0  0  0  0  0  0  0  0  0  0
    5.0161   71.7414  -29.3816 C   0  0  0  0  0  0  0  0  0  0  0  0
    4.2543   72.9371  -28.9529 C   0  0  0  0  0  0  0  0  0  0  0  0
    4.9009   73.9196  -28.5077 O   0  0  0  0  0  0  0  0  0  0  0  0
    2.8479   72.9204  -29.0623 N   0  0  0  0  0  0  0  0  0  0  0  0
    1.8616   72.1853  -29.8082 C   0  0  0  0  0  0  0  0  0  0  0  0
    0.9807   73.4416  -29.7113 C   0  0  1  0  0  0  0  0  0  0  0  0
    1.7613   73.6499  -28.4602 C   0  0  0  0  0  0  0  0  0  0  0  0
    1.3136   74.2876  -30.8322 N   0  0  0  0  0  0  0  0  0  0  0  0
    0.3921   74.7887  -31.7613 C   0  0  0  0  0  0  0  0  0  0  0  0
   -0.8149   74.6464  -31.5640 O   0  0  0  0  0  0  0  0  0  0  0  0
    0.8868   75.4840  -32.9701 C   0  0  0  0  0  0  0  0  0  0  0  0
   -0.2045   76.0288  -33.6641 O   0  0  0  0  0  0  0  0  0  0  0  0
   -0.1026   76.5220  -34.9498 C   0  0  0  0  0  0  0  0  0  0  0  0
    0.7870   77.4845  -35.3492 C   0  0  0  0  0  0  0  0  0  0  0  0
    0.8337   77.9359  -36.6601 C   0  0  0  0  0  0  0  0  0  0  0  0
   -0.0322   77.4046  -37.5733 C   0  0  0  0  0  0  0  0  0  0  0  0
   -0.0330   77.9681  -39.3887 Br  0  0  0  0  0  0  0  0  0  0  0  0
   -0.9162   76.4440  -37.1600 C   0  0  0  0  0  0  0  0  0  0  0  0
   -0.9960   75.9679  -35.8714 C   0  0  0  0  0  0  0  0  0  0  0  0
   -1.9522   74.9433  -35.4710 C   0  0  0  0  0  0  0  0  0  0  0  0
   -1.6277   73.7315  -35.5346 O   0  0  0  0  0  0  0  0  0  0  0  0
   -3.2363   75.2798  -35.0126 N   0  0  0  0  0  0  0  0  0  0  0  0
   -4.2423   74.4179  -34.3856 C   0  0  0  0  0  0  0  0  0  0  0  0
   -4.8837   75.3547  -33.4305 C   0  0  0  0  0  0  0  0  0  0  0  0
   -4.6650   76.5890  -33.8207 C   0  0  0  0  0  0  0  0  0  0  0  0
   -3.8629   76.6000  -35.0642 C   0  0  0  0  0  0  0  0  0  0  0  0
   -5.1434   77.7821  -33.1292 C   0  0  0  0  0  0  0  0  0  0  0  0
   -5.5584   78.8653  -33.8698 C   0  0  0  0  0  0  0  0  0  0  0  0
   -6.0165   80.0093  -33.2681 C   0  0  0  0  0  0  0  0  0  0  0  0
   -6.0662   80.0855  -31.8868 C   0  0  0  0  0  0  0  0  0  0  0  0
   -5.6465   78.9904  -31.1445 C   0  0  0  0  0  0  0  0  0  0  0  0
   -5.1910   77.8532  -31.7572 C   0  0  0  0  0  0  0  0  0  0  0  0
  1  2  1  0
  2  3  1  0
  3  4  2  0
  3  5  1  0
  5  6  1  0
  5  8  1  0
  6  7  1  0
  7  8  1  0
  7  9  1  6
  9 10  1  0
 10 11  2  0
 10 12  1  0
 12 13  1  0
 13 14  1  0
 14 15  2  0
 14 20  1  0
 15 16  1  0
 16 17  2  0
 17 18  1  0
 17 19  1  0
 19 20  2  0
 20 21  1  0
 21 22  2  0
 21 23  1  0
 23 24  1  0
 23 27  1  0
 24 25  1  0
 25 26  2  0
 26 27  1  0
 26 28  1  0
 28 29  2  0
 28 33  1  0
 29 30  1  0
 30 31  2  0
 31 32  1  0
 32 33  2  0
M  END
$$$$
