
     RDKit          3D

 33 36  0  0  0  0  0  0  0  0999 V2000
   -3.1342   78.0733  -27.3081 C   0  0  0  0  0  0  0  0  0  0  0  0
   -1.6550   78.1916  -27.0899 C   0  0  0  0  0  0  0  0  0  0  0  0
   -1.0514   76.8391  -27.1058 C   0  0  0  0  0  0  0  0  0  0  0  0
   -1.5081   75.9804  -26.3086 O   0  0  0  0  0  0  0  0  0  0  0  0
    0.0011   76.5766  -28.0078 N   0  0  0  0  0  0  0  0  0  0  0  0
    0.5858   77.2192  -29.1544 C   0  0  0  0  0  0  0  0  0  0  0  0
    0.9664   75.8107  -29.6390 C   0  0  1  0  0  0  0  0  0  0  0  0
    0.9716   75.5256  -28.1772 C   0  0  0  0  0  0  0  0  0  0  0  0
   -0.1513   75.2997  -30.3956 N   0  0  0  0  0  0  0  0  0  0  0  0
   -0.0873   74.8608  -31.7249 C   0  0  0  0  0  0  0  0  0  0  0  0
    1.0077   74.7042  -32.2657 O   0  0  0  0  0  0  0  0  0  0  0  0
   -1.3425   74.5915  -32.4605 C   0  0  0  0  0  0  0  0  0  0  0  0
   -1.0399   74.3463  -33.8087 O   0  0  0  0  0  0  0  0  0  0  0  0
   -1.9539   73.8126  -34.6955 C   0  0  0  0  0  0  0  0  0  0  0  0
   -2.9131   72.8905  -34.3683 C   0  0  0  0  0  0  0  0  0  0  0  0
   -3.8001   72.3942  -35.3125 C   0  0  0  0  0  0  0  0  0  0  0  0
   -3.7109   72.8387  -36.6010 C   0  0  0  0  0  0  0  0  0  0  0  0
   -4.8877   72.2090  -37.9545 Br  0  0  0  0  0  0  0  0  0  0  0  0
   -2.7471   73.7598  -36.9138 C   0  0  0  0  0  0  0  0  0  0  0  0
   -1.8486   74.2779  -36.0096 C   0  0  0  0  0  0  0  0  0  0  0  0
   -0.8363   75.2581  -36.3826 C   0  0  0  0  0  0  0  0  0  0  0  0
    0.3159   74.8715  -36.7000 O   0  0  0  0  0  0  0  0  0  0  0  0
   -1.1195   76.6335  -36.3961 N   0  0  0  0  0  0  0  0  0  0  0  0
   -0.2116   77.7551  -36.6526 C   0  0  0  0  0  0  0  0  0  0  0  0
   -1.1076   78.7102  -37.3500 C   0  0  0  0  0  0  0  0  0  0  0  0
   -2.3558   78.4238  -37.0610 C   0  0  0  0  0  0  0  0  0  0  0  0
   -2.4178   77.2594  -36.1499 C   0  0  0  0  0  0  0  0  0  0  0  0
   -3.5185   79.1485  -37.5645 C   0  0  0  0  0  0  0  0  0  0  0  0
   -4.7705   78.8106  -37.1038 C   0  0  0  0  0  0  0  0  0  0  0  0
   -5.8941   79.4609  -37.5453 C   0  0  0  0  0  0  0  0  0  0  0  0
   -5.7766   80.4806  -38.4741 C   0  0  0  0  0  0  0  0  0  0  0  0
   -4.5116   80.8176  -38.9356 C   0  0  0  0  0  0  0  0  0  0  0  0
   -3.3968   80.1604  -38.4869 C   0  0  0  0  0  0  0  0  0  0  0  0
  1  2  1  0
  2  3  1  0
  3  4  2  0
  3  5  1  0
  5  6  1  0
  5  8  1  0
  6  7  1  0
  7  8  1  0
  7  9  1  6
  9 10  1  0
 10 11  2  0
 10 12  1  0
 12 13  1  0
 13 14  1  0
 14 15  2  0
 14 20  1  0
 15 16  1  0
 16 17  2  0
 17 18  1  0
 17 19  1  0
 19 20  2  0
 20 21  1  0
 21 22  2  0
 21 23  1  0
 23 24  1  0
 23 27  1  0
 24 25  1  0
 25 26  2  0
 26 27  1  0
 26 28  1  0
 28 29  2  0
 28 33  1  0
 29 30  1  0
 30 31  2  0
 31 32  1  0
 32 33  2  0
M  END
$$$$
