
     RDKit          3D

 33 36  0  0  0  0  0  0  0  0999 V2000
    2.2349   75.6421  -26.9894 C   0  0  0  0  0  0  0  0  0  0  0  0
    1.3653   76.8022  -27.4201 C   0  0  0  0  0  0  0  0  0  0  0  0
    0.3567   76.3589  -28.4139 C   0  0  0  0  0  0  0  0  0  0  0  0
   -0.2794   75.2997  -28.1877 O   0  0  0  0  0  0  0  0  0  0  0  0
    0.1304   77.1195  -29.5775 N   0  0  0  0  0  0  0  0  0  0  0  0
   -0.6038   76.9365  -30.8063 C   0  0  0  0  0  0  0  0  0  0  0  0
   -0.7651   78.4476  -30.8537 C   0  0  1  0  0  0  0  0  0  0  0  0
    0.5286   78.4176  -30.0653 C   0  0  0  0  0  0  0  0  0  0  0  0
   -0.5740   79.0211  -32.1752 N   0  0  0  0  0  0  0  0  0  0  0  0
   -1.4861   80.0178  -32.5979 C   0  0  0  0  0  0  0  0  0  0  0  0
   -1.4062   81.1560  -32.0054 O   0  0  0  0  0  0  0  0  0  0  0  0
   -2.5101   79.8351  -33.6560 C   0  0  0  0  0  0  0  0  0  0  0  0
   -2.0533   79.2002  -34.8156 O   0  0  0  0  0  0  0  0  0  0  0  0
   -2.8629   79.1080  -35.9547 C   0  0  0  0  0  0  0  0  0  0  0  0
   -3.7865   80.0689  -36.3020 C   0  0  0  0  0  0  0  0  0  0  0  0
   -4.5300   79.8687  -37.4429 C   0  0  0  0  0  0  0  0  0  0  0  0
   -4.3648   78.7418  -38.2254 C   0  0  0  0  0  0  0  0  0  0  0  0
   -5.4247   78.5291  -39.7865 Br  0  0  0  0  0  0  0  0  0  0  0  0
   -3.4377   77.7905  -37.8654 C   0  0  0  0  0  0  0  0  0  0  0  0
   -2.6810   77.9669  -36.7281 C   0  0  0  0  0  0  0  0  0  0  0  0
   -1.6910   76.9665  -36.3310 C   0  0  0  0  0  0  0  0  0  0  0  0
   -0.6946   76.7470  -37.0225 O   0  0  0  0  0  0  0  0  0  0  0  0
   -1.9140   76.2577  -35.1243 N   0  0  0  0  0  0  0  0  0  0  0  0
   -2.9891   76.4211  -34.1901 C   0  0  0  0  0  0  0  0  0  0  0  0
   -2.9798   75.1597  -33.4186 C   0  0  0  0  0  0  0  0  0  0  0  0
   -1.8918   74.4498  -33.6387 C   0  0  0  0  0  0  0  0  0  0  0  0
   -1.0698   75.2154  -34.6078 C   0  0  0  0  0  0  0  0  0  0  0  0
   -1.5158   73.1570  -33.0667 C   0  0  0  0  0  0  0  0  0  0  0  0
   -0.4333   72.4675  -33.5669 C   0  0  0  0  0  0  0  0  0  0  0  0
   -0.0650   71.2309  -33.0273 C   0  0  0  0  0  0  0  0  0  0  0  0
   -0.7711   70.6815  -31.9928 C   0  0  0  0  0  0  0  0  0  0  0  0
   -1.8646   71.3672  -31.4801 C   0  0  0  0  0  0  0  0  0  0  0  0
   -2.2202   72.6043  -32.0317 C   0  0  0  0  0  0  0  0  0  0  0  0
  1  2  1  6
  2  3  1  6
  3  4  2  0
  3  5  1  0
  6  5  1  1
  8  5  1  1
  6  7  1  0
  7  8  1  0
  7  9  1  6
  9 10  1  0
 10 11  2  0
 10 12  1  0
 12 13  1  6
 13 14  1  0
 14 15  2  0
 14 20  1  0
 15 16  1  0
 16 17  2  0
 17 18  1  0
 17 19  1  0
 19 20  2  0
 20 21  1  0
 21 22  2  0
 21 23  1  0
 24 23  1  1
 27 23  1  1
 24 25  1  0
 25 26  2  0
 26 27  1  0
 26 28  1  0
 28 29  2  0
 28 33  1  0
 29 30  1  0
 30 31  2  0
 31 32  1  0
 32 33  2  0
M  END
$$$$
