
     RDKit          3D

 33 36  0  0  0  0  0  0  0  0999 V2000
   -0.3959   69.8637  -27.3187 C   0  0  0  0  0  0  0  0  0  0  0  0
    0.9917   70.3700  -27.6440 C   0  0  0  0  0  0  0  0  0  0  0  0
    1.0914   70.7372  -29.0782 C   0  0  0  0  0  0  0  0  0  0  0  0
    1.2295   69.8173  -29.9221 O   0  0  0  0  0  0  0  0  0  0  0  0
    1.0306   72.0896  -29.4664 N   0  0  0  0  0  0  0  0  0  0  0  0
    1.0368   72.8077  -30.7181 C   0  0  0  0  0  0  0  0  0  0  0  0
    0.2246   73.8884  -30.0225 C   0  0  1  0  0  0  0  0  0  0  0  0
    0.9362   73.3619  -28.7926 C   0  0  0  0  0  0  0  0  0  0  0  0
    0.6433   75.2421  -30.3452 N   0  0  0  0  0  0  0  0  0  0  0  0
   -0.3057   76.0958  -30.9576 C   0  0  0  0  0  0  0  0  0  0  0  0
   -1.5405   75.7582  -30.8392 O   0  0  0  0  0  0  0  0  0  0  0  0
    0.0275   77.3272  -31.7153 C   0  0  0  0  0  0  0  0  0  0  0  0
   -1.0195   77.8493  -32.4820 O   0  0  0  0  0  0  0  0  0  0  0  0
   -1.0352   79.1981  -32.8588 C   0  0  0  0  0  0  0  0  0  0  0  0
   -0.0502   80.0917  -32.5006 C   0  0  0  0  0  0  0  0  0  0  0  0
   -0.1740   81.3950  -32.9256 C   0  0  0  0  0  0  0  0  0  0  0  0
   -1.2493   81.8079  -33.6890 C   0  0  0  0  0  0  0  0  0  0  0  0
   -1.3572   83.6216  -34.2407 Br  0  0  0  0  0  0  0  0  0  0  0  0
   -2.2255   80.9032  -34.0390 C   0  0  0  0  0  0  0  0  0  0  0  0
   -2.1253   79.5930  -33.6263 C   0  0  0  0  0  0  0  0  0  0  0  0
   -3.1532   78.6182  -33.9895 C   0  0  0  0  0  0  0  0  0  0  0  0
   -3.8403   78.0661  -33.1279 O   0  0  0  0  0  0  0  0  0  0  0  0
   -3.3345   78.3293  -35.3649 N   0  0  0  0  0  0  0  0  0  0  0  0
   -2.4560   78.6374  -36.4551 C   0  0  0  0  0  0  0  0  0  0  0  0
   -2.8949   77.7222  -37.5304 C   0  0  0  0  0  0  0  0  0  0  0  0
   -4.0471   77.1458  -37.2538 C   0  0  0  0  0  0  0  0  0  0  0  0
   -4.4724   77.6542  -35.9265 C   0  0  0  0  0  0  0  0  0  0  0  0
   -4.8038   76.1880  -38.0599 C   0  0  0  0  0  0  0  0  0  0  0  0
   -5.5500   75.2053  -37.4476 C   0  0  0  0  0  0  0  0  0  0  0  0
   -6.2775   74.2847  -38.2088 C   0  0  0  0  0  0  0  0  0  0  0  0
   -6.2630   74.3412  -39.5752 C   0  0  0  0  0  0  0  0  0  0  0  0
   -5.5141   75.3274  -40.2041 C   0  0  0  0  0  0  0  0  0  0  0  0
   -4.7914   76.2416  -39.4274 C   0  0  0  0  0  0  0  0  0  0  0  0
  1  2  1  6
  2  3  1  6
  3  4  2  0
  3  5  1  0
  6  5  1  1
  8  5  1  1
  6  7  1  0
  7  8  1  0
  7  9  1  6
  9 10  1  0
 10 11  2  0
 10 12  1  0
 12 13  1  6
 13 14  1  0
 14 15  2  0
 14 20  1  0
 15 16  1  0
 16 17  2  0
 17 18  1  0
 17 19  1  0
 19 20  2  0
 20 21  1  0
 21 22  2  0
 21 23  1  0
 24 23  1  1
 27 23  1  1
 24 25  1  0
 25 26  2  0
 26 27  1  0
 26 28  1  0
 28 29  2  0
 28 33  1  0
 29 30  1  0
 30 31  2  0
 31 32  1  0
 32 33  2  0
M  END
$$$$
