
     RDKit          3D

 33 36  0  0  0  0  0  0  0  0999 V2000
    2.4731   70.4937  -24.8317 C   0  0  0  0  0  0  0  0  0  0  0  0
    1.6881   71.3166  -25.8097 C   0  0  0  0  0  0  0  0  0  0  0  0
    2.6159   72.1878  -26.5672 C   0  0  0  0  0  0  0  0  0  0  0  0
    3.3506   72.9738  -25.9159 O   0  0  0  0  0  0  0  0  0  0  0  0
    2.6340   72.0977  -27.9750 N   0  0  0  0  0  0  0  0  0  0  0  0
    3.4690   72.5709  -29.0465 C   0  0  0  0  0  0  0  0  0  0  0  0
    2.2036   72.5582  -29.9196 C   0  0  1  0  0  0  0  0  0  0  0  0
    1.8042   71.4775  -28.9760 C   0  0  0  0  0  0  0  0  0  0  0  0
    1.5544   73.8365  -29.7543 N   0  0  0  0  0  0  0  0  0  0  0  0
    0.8162   74.4962  -30.7461 C   0  0  0  0  0  0  0  0  0  0  0  0
    0.5256   73.9061  -31.7870 O   0  0  0  0  0  0  0  0  0  0  0  0
    0.3959   75.8975  -30.5253 C   0  0  0  0  0  0  0  0  0  0  0  0
   -0.1070   76.4197  -31.7269 O   0  0  0  0  0  0  0  0  0  0  0  0
   -0.9604   77.5043  -31.7721 C   0  0  0  0  0  0  0  0  0  0  0  0
   -0.6434   78.7663  -31.3427 C   0  0  0  0  0  0  0  0  0  0  0  0
   -1.5525   79.8116  -31.4160 C   0  0  0  0  0  0  0  0  0  0  0  0
   -2.7952   79.5721  -31.9299 C   0  0  0  0  0  0  0  0  0  0  0  0
   -4.0984   80.9491  -32.0653 Br  0  0  0  0  0  0  0  0  0  0  0  0
   -3.0984   78.3060  -32.3546 C   0  0  0  0  0  0  0  0  0  0  0  0
   -2.2278   77.2417  -32.3003 C   0  0  0  0  0  0  0  0  0  0  0  0
   -2.5892   75.9076  -32.7632 C   0  0  0  0  0  0  0  0  0  0  0  0
   -3.0696   75.0774  -31.9522 O   0  0  0  0  0  0  0  0  0  0  0  0
   -2.4124   75.5250  -34.1028 N   0  0  0  0  0  0  0  0  0  0  0  0
   -2.5376   74.1930  -34.7012 C   0  0  0  0  0  0  0  0  0  0  0  0
   -3.0804   74.5189  -36.0429 C   0  0  0  0  0  0  0  0  0  0  0  0
   -2.8036   75.7696  -36.3305 C   0  0  0  0  0  0  0  0  0  0  0  0
   -2.0550   76.3984  -35.2197 C   0  0  0  0  0  0  0  0  0  0  0  0
   -3.1790   76.4461  -37.5682 C   0  0  0  0  0  0  0  0  0  0  0  0
   -4.2294   75.9545  -38.3092 C   0  0  0  0  0  0  0  0  0  0  0  0
   -4.6214   76.5536  -39.4787 C   0  0  0  0  0  0  0  0  0  0  0  0
   -3.9522   77.6776  -39.9318 C   0  0  0  0  0  0  0  0  0  0  0  0
   -2.8935   78.1694  -39.1809 C   0  0  0  0  0  0  0  0  0  0  0  0
   -2.5115   77.5620  -38.0142 C   0  0  0  0  0  0  0  0  0  0  0  0
  1  2  1  0
  2  3  1  0
  3  4  2  0
  3  5  1  0
  5  6  1  0
  5  8  1  0
  6  7  1  0
  7  8  1  0
  7  9  1  1
  9 10  1  0
 10 11  2  0
 10 12  1  0
 12 13  1  0
 13 14  1  0
 14 15  2  0
 14 20  1  0
 15 16  1  0
 16 17  2  0
 17 18  1  0
 17 19  1  0
 19 20  2  0
 20 21  1  0
 21 22  2  0
 21 23  1  0
 23 24  1  0
 23 27  1  0
 24 25  1  0
 25 26  2  0
 26 27  1  0
 26 28  1  0
 28 29  2  0
 28 33  1  0
 29 30  1  0
 30 31  2  0
 31 32  1  0
 32 33  2  0
M  END
$$$$
