
     RDKit          3D

 33 36  0  0  0  0  0  0  0  0999 V2000
   -1.6881   70.2761  -26.7876 C   0  0  0  0  0  0  0  0  0  0  0  0
   -0.4778   71.0062  -27.2895 C   0  0  0  0  0  0  0  0  0  0  0  0
   -0.6110   71.2232  -28.7485 C   0  0  0  0  0  0  0  0  0  0  0  0
   -1.6437   70.7857  -29.3176 O   0  0  0  0  0  0  0  0  0  0  0  0
    0.4187   71.9059  -29.4296 N   0  0  0  0  0  0  0  0  0  0  0  0
    1.4972   72.7930  -29.0842 C   0  0  0  0  0  0  0  0  0  0  0  0
    1.3443   73.3851  -30.4947 C   0  0  1  0  0  0  0  0  0  0  0  0
    0.8485   72.0144  -30.8003 C   0  0  0  0  0  0  0  0  0  0  0  0
    0.3530   74.4312  -30.4167 N   0  0  0  0  0  0  0  0  0  0  0  0
   -0.4121   74.8941  -31.4955 C   0  0  0  0  0  0  0  0  0  0  0  0
   -0.2984   74.3614  -32.5997 O   0  0  0  0  0  0  0  0  0  0  0  0
   -1.3485   76.0209  -31.2893 C   0  0  0  0  0  0  0  0  0  0  0  0
   -1.3379   76.8399  -32.4288 O   0  0  0  0  0  0  0  0  0  0  0  0
   -1.9235   78.0901  -32.4570 C   0  0  0  0  0  0  0  0  0  0  0  0
   -2.7882   78.5694  -31.5084 C   0  0  0  0  0  0  0  0  0  0  0  0
   -3.3422   79.8379  -31.6006 C   0  0  0  0  0  0  0  0  0  0  0  0
   -3.0149   80.6262  -32.6671 C   0  0  0  0  0  0  0  0  0  0  0  0
   -3.7301   82.3759  -32.8678 Br  0  0  0  0  0  0  0  0  0  0  0  0
   -2.1500   80.1340  -33.6078 C   0  0  0  0  0  0  0  0  0  0  0  0
   -1.5781   78.8835  -33.5551 C   0  0  0  0  0  0  0  0  0  0  0  0
   -0.6610   78.3961  -34.5778 C   0  0  0  0  0  0  0  0  0  0  0  0
    0.5294   78.1367  -34.2723 O   0  0  0  0  0  0  0  0  0  0  0  0
   -1.0784   78.2080  -35.9054 N   0  0  0  0  0  0  0  0  0  0  0  0
   -0.2664   77.9201  -37.0910 C   0  0  0  0  0  0  0  0  0  0  0  0
   -1.1750   77.0420  -37.8685 C   0  0  0  0  0  0  0  0  0  0  0  0
   -2.4115   77.2399  -37.4743 C   0  0  0  0  0  0  0  0  0  0  0  0
   -2.4521   78.2608  -36.4038 C   0  0  0  0  0  0  0  0  0  0  0  0
   -3.5813   76.5530  -38.0131 C   0  0  0  0  0  0  0  0  0  0  0  0
   -4.7441   76.5309  -37.2771 C   0  0  0  0  0  0  0  0  0  0  0  0
   -5.8703   75.8994  -37.7389 C   0  0  0  0  0  0  0  0  0  0  0  0
   -5.8468   75.2679  -38.9705 C   0  0  0  0  0  0  0  0  0  0  0  0
   -4.6717   75.2931  -39.7089 C   0  0  0  0  0  0  0  0  0  0  0  0
   -3.5533   75.9273  -39.2367 C   0  0  0  0  0  0  0  0  0  0  0  0
  1  2  1  0
  2  3  1  0
  3  4  2  0
  3  5  1  0
  5  6  1  0
  5  8  1  0
  6  7  1  0
  7  8  1  0
  7  9  1  1
  9 10  1  0
 10 11  2  0
 10 12  1  0
 12 13  1  0
 13 14  1  0
 14 15  2  0
 14 20  1  0
 15 16  1  0
 16 17  2  0
 17 18  1  0
 17 19  1  0
 19 20  2  0
 20 21  1  0
 21 22  2  0
 21 23  1  0
 23 24  1  0
 23 27  1  0
 24 25  1  0
 25 26  2  0
 26 27  1  0
 26 28  1  0
 28 29  2  0
 28 33  1  0
 29 30  1  0
 30 31  2  0
 31 32  1  0
 32 33  2  0
M  END
$$$$
