
     RDKit          3D

 18 19  0  0  0  0  0  0  0  0999 V2000
  -18.0830   -2.1220  -29.6617 C   0  0  0  0  0  0  0  0  0  0  0  0
  -15.6026   -2.7872  -28.4304 C   0  0  0  0  0  0  0  0  0  0  0  0
  -18.4686   -0.5973  -25.4069 C   0  0  0  0  0  0  0  0  0  0  0  0
  -16.1171   -0.6134  -25.0154 C   0  0  0  0  0  0  0  0  0  0  0  0
  -17.2255   -6.3092  -25.6075 C   0  0  0  0  0  0  0  0  0  0  0  0
  -15.1041   -6.3210  -26.6339 C   0  0  0  0  0  0  0  0  0  0  0  0
  -18.2973   -1.5882  -26.3663 C   0  0  0  0  0  0  0  0  0  0  0  0
  -15.9831   -1.5992  -25.9758 C   0  0  0  0  0  0  0  0  0  0  0  0
  -17.5128   -5.0868  -26.2004 C   0  0  0  0  0  0  0  0  0  0  0  0
  -15.3946   -5.0887  -27.2311 C   0  0  0  0  0  0  0  0  0  0  0  0
  -17.9552   -3.2520  -28.7101 C   0  0  0  0  0  0  0  0  0  0  0  0
  -17.3741   -0.1186  -24.7394 C   0  0  0  0  0  0  0  0  0  0  0  0
  -16.0211   -6.9416  -25.8151 C   0  0  0  0  0  0  0  0  0  0  0  0
  -17.0614   -2.1051  -26.6675 C   0  0  0  0  0  0  0  0  0  0  0  0
  -16.6002   -4.4593  -27.0209 C   0  0  0  0  0  0  0  0  0  0  0  0
  -16.8994   -3.1484  -27.6707 C   0  0  2  0  0  0  0  0  0  0  0  0
  -17.5921    0.8720  -23.7885 O   0  0  0  0  0  0  0  0  0  0  0  0
  -15.7396   -8.1725  -25.2143 O   0  0  0  0  0  0  0  0  0  0  0  0
 11  1  1  0
 16  2  1  6
  7  3  2  0
  3 12  1  0
  8  4  1  0
  4 12  2  0
  9  5  2  0
  5 13  1  0
 10  6  1  0
  6 13  2  0
 14  7  1  0
 14  8  2  0
 15  9  1  0
 15 10  2  0
 16 11  1  0
 12 17  1  0
 13 18  1  0
 16 14  1  0
 15 16  1  0
M  END
$$$$
