
     RDKit          3D

 18 19  0  0  0  0  0  0  0  0999 V2000
  -17.6135   -1.8223  -29.7404 C   0  0  0  0  0  0  0  0  0  0  0  0
  -15.2034   -2.5774  -28.4342 C   0  0  0  0  0  0  0  0  0  0  0  0
  -18.1724   -0.5406  -25.3817 C   0  0  0  0  0  0  0  0  0  0  0  0
  -15.8206   -0.5047  -24.9933 C   0  0  0  0  0  0  0  0  0  0  0  0
  -14.8749   -6.2244  -26.7980 C   0  0  0  0  0  0  0  0  0  0  0  0
  -16.9956   -6.1560  -25.7722 C   0  0  0  0  0  0  0  0  0  0  0  0
  -17.9749   -1.4874  -26.3798 C   0  0  0  0  0  0  0  0  0  0  0  0
  -15.6605   -1.4474  -25.9922 C   0  0  0  0  0  0  0  0  0  0  0  0
  -15.1023   -4.9780  -27.3662 C   0  0  0  0  0  0  0  0  0  0  0  0
  -17.2239   -4.8996  -26.3456 C   0  0  0  0  0  0  0  0  0  0  0  0
  -17.5483   -2.9925  -28.8321 C   0  0  0  0  0  0  0  0  0  0  0  0
  -17.0908   -0.0576  -24.6967 C   0  0  0  0  0  0  0  0  0  0  0  0
  -15.8151   -6.8292  -25.9955 C   0  0  0  0  0  0  0  0  0  0  0  0
  -16.7253   -1.9562  -26.7025 C   0  0  0  0  0  0  0  0  0  0  0  0
  -16.2813   -4.2981  -27.1477 C   0  0  0  0  0  0  0  0  0  0  0  0
  -16.5355   -2.9539  -27.7465 C   0  0  2  0  0  0  0  0  0  0  0  0
  -17.3351    0.8879  -23.7070 O   0  0  0  0  0  0  0  0  0  0  0  0
  -15.5783   -8.0846  -25.4270 O   0  0  0  0  0  0  0  0  0  0  0  0
 11  1  1  0
 16  2  1  6
  7  3  2  0
  3 12  1  0
  8  4  1  0
  4 12  2  0
  9  5  2  0
  5 13  1  0
 10  6  1  0
  6 13  2  0
 14  7  1  0
 14  8  2  0
 15  9  1  0
 15 10  2  0
 16 11  1  0
 12 17  1  0
 13 18  1  0
 16 14  1  0
 15 16  1  0
M  END
$$$$
