
     RDKit          3D

 18 19  0  0  0  0  0  0  0  0999 V2000
  -15.2514   -1.5542  -25.7063 C   0  0  0  0  0  0  0  0  0  0  0  0
  -18.6527   -2.8123  -26.8800 C   0  0  0  0  0  0  0  0  0  0  0  0
  -16.4242   -0.9768  -30.1008 C   0  0  0  0  0  0  0  0  0  0  0  0
  -15.9525   -3.2900  -30.4321 C   0  0  0  0  0  0  0  0  0  0  0  0
  -17.2744   -6.3872  -25.6710 C   0  0  0  0  0  0  0  0  0  0  0  0
  -15.0538   -5.9387  -26.3204 C   0  0  0  0  0  0  0  0  0  0  0  0
  -16.7821   -1.2565  -28.7872 C   0  0  0  0  0  0  0  0  0  0  0  0
  -16.3157   -3.5325  -29.1201 C   0  0  0  0  0  0  0  0  0  0  0  0
  -17.6428   -5.0928  -26.0130 C   0  0  0  0  0  0  0  0  0  0  0  0
  -15.4261   -4.6339  -26.6647 C   0  0  0  0  0  0  0  0  0  0  0  0
  -16.7035   -1.8023  -25.8752 C   0  0  0  0  0  0  0  0  0  0  0  0
  -16.0120   -1.9987  -30.9121 C   0  0  0  0  0  0  0  0  0  0  0  0
  -15.9790   -6.8272  -25.8193 C   0  0  0  0  0  0  0  0  0  0  0  0
  -16.7353   -2.5294  -28.2745 C   0  0  0  0  0  0  0  0  0  0  0  0
  -16.7226   -4.1977  -26.5148 C   0  0  0  0  0  0  0  0  0  0  0  0
  -17.1070   -2.8052  -26.8936 C   0  0  2  0  0  0  0  0  0  0  0  0
  -15.6637   -1.6731  -32.2181 O   0  0  0  0  0  0  0  0  0  0  0  0
  -15.6162   -8.1324  -25.4726 O   0  0  0  0  0  0  0  0  0  0  0  0
 11  1  1  0
 16  2  1  6
  7  3  2  0
  3 12  1  0
  8  4  1  0
  4 12  2  0
  9  5  2  0
  5 13  1  0
 10  6  1  0
  6 13  2  0
 14  7  1  0
 14  8  2  0
 15  9  1  0
 15 10  2  0
 16 11  1  0
 12 17  1  0
 13 18  1  0
 16 14  1  0
 15 16  1  0
M  END
$$$$
