
     RDKit          3D

 18 19  0  0  0  0  0  0  0  0999 V2000
  -18.0501   -1.9707  -25.7234 C   0  0  0  0  0  0  0  0  0  0  0  0
  -14.5584   -2.3465  -27.2049 C   0  0  0  0  0  0  0  0  0  0  0  0
  -14.8074   -6.2785  -26.5035 C   0  0  0  0  0  0  0  0  0  0  0  0
  -17.0470   -6.1299  -25.7003 C   0  0  0  0  0  0  0  0  0  0  0  0
  -18.2527   -1.6408  -29.8906 C   0  0  0  0  0  0  0  0  0  0  0  0
  -16.6498   -3.1362  -30.7558 C   0  0  0  0  0  0  0  0  0  0  0  0
  -14.8669   -4.9376  -26.8641 C   0  0  0  0  0  0  0  0  0  0  0  0
  -17.0715   -4.7980  -26.0713 C   0  0  0  0  0  0  0  0  0  0  0  0
  -17.7123   -1.7866  -28.6198 C   0  0  0  0  0  0  0  0  0  0  0  0
  -16.1058   -3.2826  -29.4743 C   0  0  0  0  0  0  0  0  0  0  0  0
  -16.6094   -1.8256  -26.0424 C   0  0  0  0  0  0  0  0  0  0  0  0
  -15.9006   -6.8627  -25.9237 C   0  0  0  0  0  0  0  0  0  0  0  0
  -17.7309   -2.3113  -30.9731 C   0  0  0  0  0  0  0  0  0  0  0  0
  -15.9908   -4.1764  -26.6569 C   0  0  0  0  0  0  0  0  0  0  0  0
  -16.6305   -2.6105  -28.3942 C   0  0  0  0  0  0  0  0  0  0  0  0
  -16.0350   -2.7704  -27.0341 C   0  0  2  0  0  0  0  0  0  0  0  0
  -15.7965   -8.2057  -25.5794 O   0  0  0  0  0  0  0  0  0  0  0  0
  -18.2809   -2.1589  -32.2497 O   0  0  0  0  0  0  0  0  0  0  0  0
 11  1  1  0
 16  2  1  6
  7  3  2  0
  3 12  1  0
  8  4  1  0
  4 12  2  0
  9  5  2  0
  5 13  1  0
 10  6  1  0
  6 13  2  0
 14  7  1  0
 14  8  2  0
 15  9  1  0
 15 10  2  0
 16 11  1  0
 12 17  1  0
 13 18  1  0
 16 14  1  0
 15 16  1  0
M  END
$$$$
