
     RDKit          3D

 18 19  0  0  0  0  0  0  0  0999 V2000
  -15.0527   -1.7051  -26.0438 C   0  0  0  0  0  0  0  0  0  0  0  0
  -18.6092   -2.7763  -26.8917 C   0  0  0  0  0  0  0  0  0  0  0  0
  -16.1826   -0.9704  -30.2750 C   0  0  0  0  0  0  0  0  0  0  0  0
  -17.0488   -3.1151  -30.8521 C   0  0  0  0  0  0  0  0  0  0  0  0
  -17.0214   -6.3177  -25.7446 C   0  0  0  0  0  0  0  0  0  0  0  0
  -15.1294   -6.0350  -27.1210 C   0  0  0  0  0  0  0  0  0  0  0  0
  -16.3727   -1.2750  -28.9323 C   0  0  0  0  0  0  0  0  0  0  0  0
  -17.2244   -3.3850  -29.5073 C   0  0  0  0  0  0  0  0  0  0  0  0
  -17.4117   -5.0100  -26.0013 C   0  0  0  0  0  0  0  0  0  0  0  0
  -15.5236   -4.7168  -27.3791 C   0  0  0  0  0  0  0  0  0  0  0  0
  -16.5288   -1.8130  -26.1349 C   0  0  0  0  0  0  0  0  0  0  0  0
  -16.5233   -1.8957  -31.2238 C   0  0  0  0  0  0  0  0  0  0  0  0
  -15.8786   -6.8470  -26.2989 C   0  0  0  0  0  0  0  0  0  0  0  0
  -16.8929   -2.4786  -28.5246 C   0  0  0  0  0  0  0  0  0  0  0  0
  -16.6671   -4.1910  -26.8227 C   0  0  0  0  0  0  0  0  0  0  0  0
  -17.0795   -2.7854  -27.1131 C   0  0  2  0  0  0  0  0  0  0  0  0
  -16.3161   -1.5486  -32.5540 O   0  0  0  0  0  0  0  0  0  0  0  0
  -15.4925   -8.1650  -26.0354 O   0  0  0  0  0  0  0  0  0  0  0  0
 11  1  1  0
 16  2  1  6
  7  3  2  0
  3 12  1  0
  8  4  1  0
  4 12  2  0
  9  5  2  0
  5 13  1  0
 10  6  1  0
  6 13  2  0
 14  7  1  0
 14  8  2  0
 15  9  1  0
 15 10  2  0
 16 11  1  0
 12 17  1  0
 13 18  1  0
 16 14  1  0
 15 16  1  0
M  END
$$$$
