
     RDKit          3D

 18 19  0  0  0  0  0  0  0  0999 V2000
  -18.8150   -2.5449  -27.8720 C   0  0  0  0  0  0  0  0  0  0  0  0
  -15.1229   -2.2388  -28.7696 C   0  0  0  0  0  0  0  0  0  0  0  0
  -15.0068   -0.7129  -24.7030 C   0  0  0  0  0  0  0  0  0  0  0  0
  -16.6020    0.7027  -25.7682 C   0  0  0  0  0  0  0  0  0  0  0  0
  -14.8526   -5.9117  -27.1830 C   0  0  0  0  0  0  0  0  0  0  0  0
  -16.6640   -5.6081  -25.7062 C   0  0  0  0  0  0  0  0  0  0  0  0
  -15.2083   -1.6599  -25.7001 C   0  0  0  0  0  0  0  0  0  0  0  0
  -16.7777   -0.2614  -26.7439 C   0  0  0  0  0  0  0  0  0  0  0  0
  -15.0531   -4.6391  -27.7010 C   0  0  0  0  0  0  0  0  0  0  0  0
  -16.8654   -4.3253  -26.2291 C   0  0  0  0  0  0  0  0  0  0  0  0
  -17.5273   -2.3512  -28.5812 C   0  0  0  0  0  0  0  0  0  0  0  0
  -15.7073    0.4618  -24.7470 C   0  0  0  0  0  0  0  0  0  0  0  0
  -15.6526   -6.4127  -26.1816 C   0  0  0  0  0  0  0  0  0  0  0  0
  -16.0904   -1.4550  -26.7323 C   0  0  0  0  0  0  0  0  0  0  0  0
  -16.0634   -3.8279  -27.2307 C   0  0  0  0  0  0  0  0  0  0  0  0
  -16.2851   -2.4545  -27.7736 C   0  0  2  0  0  0  0  0  0  0  0  0
  -15.4741    1.3799  -23.7294 O   0  0  0  0  0  0  0  0  0  0  0  0
  -15.4440   -7.6954  -25.6653 O   0  0  0  0  0  0  0  0  0  0  0  0
 11  1  1  0
 16  2  1  6
  7  3  2  0
  3 12  1  0
  8  4  1  0
  4 12  2  0
  9  5  2  0
  5 13  1  0
 10  6  1  0
  6 13  2  0
 14  7  1  0
 14  8  2  0
 15  9  1  0
 15 10  2  0
 16 11  1  0
 12 17  1  0
 13 18  1  0
 16 14  1  0
 15 16  1  0
M  END
$$$$
