
     RDKit          3D

 18 19  0  0  0  0  0  0  0  0999 V2000
  -16.4826   -1.4369  -29.7022 C   0  0  0  0  0  0  0  0  0  0  0  0
  -18.3845   -3.2193  -28.4500 C   0  0  0  0  0  0  0  0  0  0  0  0
  -15.2629   -6.3082  -26.9627 C   0  0  0  0  0  0  0  0  0  0  0  0
  -17.2917   -6.1635  -25.7193 C   0  0  0  0  0  0  0  0  0  0  0  0
  -16.1774   -0.5446  -25.1396 C   0  0  0  0  0  0  0  0  0  0  0  0
  -18.5060   -0.5232  -25.5017 C   0  0  0  0  0  0  0  0  0  0  0  0
  -15.5502   -5.0772  -27.5404 C   0  0  0  0  0  0  0  0  0  0  0  0
  -17.5461   -4.9408  -26.3132 C   0  0  0  0  0  0  0  0  0  0  0  0
  -16.0293   -1.5291  -26.1075 C   0  0  0  0  0  0  0  0  0  0  0  0
  -18.3558   -1.5157  -26.4773 C   0  0  0  0  0  0  0  0  0  0  0  0
  -16.0918   -2.6582  -28.9577 C   0  0  0  0  0  0  0  0  0  0  0  0
  -16.1385   -6.8404  -26.0558 C   0  0  0  0  0  0  0  0  0  0  0  0
  -17.4138   -0.0293  -24.8239 C   0  0  0  0  0  0  0  0  0  0  0  0
  -16.6881   -4.3743  -27.2297 C   0  0  0  0  0  0  0  0  0  0  0  0
  -17.1177   -2.0287  -26.7901 C   0  0  0  0  0  0  0  0  0  0  0  0
  -16.9715   -3.0820  -27.8386 C   0  0  2  0  0  0  0  0  0  0  0  0
  -15.8110   -8.0735  -25.5033 O   0  0  0  0  0  0  0  0  0  0  0  0
  -17.5543    0.9621  -23.8479 O   0  0  0  0  0  0  0  0  0  0  0  0
 11  1  1  0
 16  2  1  6
  7  3  2  0
  3 12  1  0
  8  4  1  0
  4 12  2  0
  9  5  2  0
  5 13  1  0
 10  6  1  0
  6 13  2  0
 14  7  1  0
 14  8  2  0
 15  9  1  0
 15 10  2  0
 16 11  1  0
 12 17  1  0
 13 18  1  0
 16 14  1  0
 15 16  1  0
M  END
$$$$
