
     RDKit          3D

 18 19  0  0  0  0  0  0  0  0999 V2000
  -16.0275   -2.9562  -30.0670 C   0  0  0  0  0  0  0  0  0  0  0  0
  -14.9539   -1.5928  -26.6786 C   0  0  0  0  0  0  0  0  0  0  0  0
  -18.5298    0.2759  -28.2361 C   0  0  0  0  0  0  0  0  0  0  0  0
  -19.4343   -1.3433  -26.7383 C   0  0  0  0  0  0  0  0  0  0  0  0
  -15.8362   -6.0896  -26.9784 C   0  0  0  0  0  0  0  0  0  0  0  0
  -16.7970   -5.0524  -25.0928 C   0  0  0  0  0  0  0  0  0  0  0  0
  -17.3423   -0.4455  -28.2701 C   0  0  0  0  0  0  0  0  0  0  0  0
  -18.2389   -2.0360  -26.7954 C   0  0  0  0  0  0  0  0  0  0  0  0
  -15.6858   -4.8523  -27.5905 C   0  0  0  0  0  0  0  0  0  0  0  0
  -16.6450   -3.8056  -25.7108 C   0  0  0  0  0  0  0  0  0  0  0  0
  -15.2417   -2.4318  -28.9241 C   0  0  0  0  0  0  0  0  0  0  0  0
  -19.5665   -0.1813  -27.4688 C   0  0  0  0  0  0  0  0  0  0  0  0
  -16.3921   -6.2069  -25.7250 C   0  0  0  0  0  0  0  0  0  0  0  0
  -17.1742   -1.6065  -27.5565 C   0  0  0  0  0  0  0  0  0  0  0  0
  -16.0887   -3.6924  -26.9643 C   0  0  0  0  0  0  0  0  0  0  0  0
  -15.9258   -2.3548  -27.6081 C   0  0  2  0  0  0  0  0  0  0  0  0
  -20.7352    0.5718  -27.4647 O   0  0  0  0  0  0  0  0  0  0  0  0
  -16.5400   -7.4567  -25.1155 O   0  0  0  0  0  0  0  0  0  0  0  0
 11  1  1  0
 16  2  1  1
  7  3  2  0
  3 12  1  0
  8  4  1  0
  4 12  2  0
  9  5  2  0
  5 13  1  0
 10  6  1  0
  6 13  2  0
 14  7  1  0
 14  8  2  0
 15  9  1  0
 15 10  2  0
 16 11  1  0
 12 17  1  0
 13 18  1  0
 16 14  1  0
 15 16  1  0
M  END
$$$$
