
     RDKit          3D

 18 19  0  0  0  0  0  0  0  0999 V2000
  -18.5601   -2.4542  -26.1594 C   0  0  0  0  0  0  0  0  0  0  0  0
  -14.7691   -2.2968  -26.5110 C   0  0  0  0  0  0  0  0  0  0  0  0
  -14.9258   -6.4625  -26.8186 C   0  0  0  0  0  0  0  0  0  0  0  0
  -16.7134   -6.2850  -25.2513 C   0  0  0  0  0  0  0  0  0  0  0  0
  -17.5597   -3.1152  -30.3197 C   0  0  0  0  0  0  0  0  0  0  0  0
  -15.6613   -1.7196  -30.3694 C   0  0  0  0  0  0  0  0  0  0  0  0
  -15.0716   -5.1115  -27.1106 C   0  0  0  0  0  0  0  0  0  0  0  0
  -16.8307   -4.9435  -25.5659 C   0  0  0  0  0  0  0  0  0  0  0  0
  -17.3869   -3.3127  -28.9561 C   0  0  0  0  0  0  0  0  0  0  0  0
  -15.4879   -1.9194  -28.9948 C   0  0  0  0  0  0  0  0  0  0  0  0
  -17.1216   -2.1362  -25.9919 C   0  0  0  0  0  0  0  0  0  0  0  0
  -15.7501   -7.0372  -25.8897 C   0  0  0  0  0  0  0  0  0  0  0  0
  -16.7022   -2.3185  -31.0434 C   0  0  0  0  0  0  0  0  0  0  0  0
  -16.0190   -4.3311  -26.4951 C   0  0  0  0  0  0  0  0  0  0  0  0
  -16.3474   -2.7170  -28.2746 C   0  0  0  0  0  0  0  0  0  0  0  0
  -16.1546   -2.9149  -26.8070 C   0  0  2  0  0  0  0  0  0  0  0  0
  -15.5688   -8.3908  -25.6292 O   0  0  0  0  0  0  0  0  0  0  0  0
  -16.8832   -2.1247  -32.4163 O   0  0  0  0  0  0  0  0  0  0  0  0
 11  1  1  0
 16  2  1  1
  7  3  2  0
  3 12  1  0
  8  4  1  0
  4 12  2  0
  9  5  2  0
  5 13  1  0
 10  6  1  0
  6 13  2  0
 14  7  1  0
 14  8  2  0
 15  9  1  0
 15 10  2  0
 16 11  1  0
 12 17  1  0
 13 18  1  0
 16 14  1  0
 15 16  1  0
M  END
$$$$
