
     RDKit          3D

 18 19  0  0  0  0  0  0  0  0999 V2000
  -18.5633   -3.3225  -29.3248 C   0  0  0  0  0  0  0  0  0  0  0  0
  -18.0792   -2.1572  -26.7644 C   0  0  0  0  0  0  0  0  0  0  0  0
  -16.8543   -5.5969  -25.1088 C   0  0  0  0  0  0  0  0  0  0  0  0
  -15.6764   -6.2610  -27.0721 C   0  0  0  0  0  0  0  0  0  0  0  0
  -14.8981    0.2246  -26.2229 C   0  0  0  0  0  0  0  0  0  0  0  0
  -13.4090   -1.1958  -27.3714 C   0  0  0  0  0  0  0  0  0  0  0  0
  -17.0791   -4.3529  -25.6863 C   0  0  0  0  0  0  0  0  0  0  0  0
  -15.9184   -5.0131  -27.6164 C   0  0  0  0  0  0  0  0  0  0  0  0
  -15.9494   -0.6368  -26.5073 C   0  0  0  0  0  0  0  0  0  0  0  0
  -14.4695   -2.0635  -27.6577 C   0  0  0  0  0  0  0  0  0  0  0  0
  -17.2614   -2.7090  -28.9680 C   0  0  0  0  0  0  0  0  0  0  0  0
  -16.1536   -6.5409  -25.8091 C   0  0  0  0  0  0  0  0  0  0  0  0
  -13.6172   -0.0417  -26.6495 C   0  0  0  0  0  0  0  0  0  0  0  0
  -16.6196   -4.0384  -26.9415 C   0  0  0  0  0  0  0  0  0  0  0  0
  -15.7491   -1.7936  -27.2295 C   0  0  0  0  0  0  0  0  0  0  0  0
  -16.8695   -2.7324  -27.5357 C   0  0  2  0  0  0  0  0  0  0  0  0
  -15.9524   -7.7708  -25.1928 O   0  0  0  0  0  0  0  0  0  0  0  0
  -12.5639    0.8310  -26.3589 O   0  0  0  0  0  0  0  0  0  0  0  0
 11  1  1  0
 16  2  1  1
  7  3  2  0
  3 12  1  0
  8  4  1  0
  4 12  2  0
  9  5  2  0
  5 13  1  0
 10  6  1  0
  6 13  2  0
 14  7  1  0
 14  8  2  0
 15  9  1  0
 15 10  2  0
 16 11  1  0
 12 17  1  0
 13 18  1  0
 16 14  1  0
 15 16  1  0
M  END
$$$$
