
     RDKit          3D

 18 19  0  0  0  0  0  0  0  0999 V2000
  -19.1130   -2.2955  -26.9425 C   0  0  0  0  0  0  0  0  0  0  0  0
  -15.4138   -1.7296  -26.2949 C   0  0  0  0  0  0  0  0  0  0  0  0
  -16.7991   -5.9873  -25.5160 C   0  0  0  0  0  0  0  0  0  0  0  0
  -14.9812   -5.9022  -27.0559 C   0  0  0  0  0  0  0  0  0  0  0  0
  -15.9757   -0.7468  -30.2183 C   0  0  0  0  0  0  0  0  0  0  0  0
  -16.7284   -2.9303  -30.6873 C   0  0  0  0  0  0  0  0  0  0  0  0
  -17.0568   -4.6461  -25.7739 C   0  0  0  0  0  0  0  0  0  0  0  0
  -15.2658   -4.5692  -27.2888 C   0  0  0  0  0  0  0  0  0  0  0  0
  -16.0680   -1.0006  -28.8562 C   0  0  0  0  0  0  0  0  0  0  0  0
  -16.8211   -3.1851  -29.3140 C   0  0  0  0  0  0  0  0  0  0  0  0
  -17.8181   -1.9502  -26.3079 C   0  0  0  0  0  0  0  0  0  0  0  0
  -15.7614   -6.6035  -26.1610 C   0  0  0  0  0  0  0  0  0  0  0  0
  -16.3035   -1.7049  -31.1502 C   0  0  0  0  0  0  0  0  0  0  0  0
  -16.3018   -3.9160  -26.6584 C   0  0  0  0  0  0  0  0  0  0  0  0
  -16.4925   -2.2244  -28.3852 C   0  0  0  0  0  0  0  0  0  0  0  0
  -16.5890   -2.5129  -26.9231 C   0  0  2  0  0  0  0  0  0  0  0  0
  -15.5401   -7.9454  -25.8726 O   0  0  0  0  0  0  0  0  0  0  0  0
  -16.2079   -1.4413  -32.5201 O   0  0  0  0  0  0  0  0  0  0  0  0
 11  1  1  0
 16  2  1  1
  7  3  2  0
  3 12  1  0
  8  4  1  0
  4 12  2  0
  9  5  2  0
  5 13  1  0
 10  6  1  0
  6 13  2  0
 14  7  1  0
 14  8  2  0
 15  9  1  0
 15 10  2  0
 16 11  1  0
 12 17  1  0
 13 18  1  0
 16 14  1  0
 15 16  1  0
M  END
$$$$
