
     RDKit          3D

 18 19  0  0  0  0  0  0  0  0999 V2000
  -15.2246   -1.2933  -29.2779 C   0  0  0  0  0  0  0  0  0  0  0  0
  -15.1902   -2.0730  -26.4190 C   0  0  0  0  0  0  0  0  0  0  0  0
  -18.9979   -0.8825  -26.0757 C   0  0  0  0  0  0  0  0  0  0  0  0
  -19.5969   -1.7469  -28.2151 C   0  0  0  0  0  0  0  0  0  0  0  0
  -16.7355   -5.8921  -25.3324 C   0  0  0  0  0  0  0  0  0  0  0  0
  -15.5697   -6.5644  -27.2671 C   0  0  0  0  0  0  0  0  0  0  0  0
  -17.7480   -1.4763  -26.2058 C   0  0  0  0  0  0  0  0  0  0  0  0
  -18.3441   -2.3242  -28.3115 C   0  0  0  0  0  0  0  0  0  0  0  0
  -16.7086   -4.5734  -25.7665 C   0  0  0  0  0  0  0  0  0  0  0  0
  -15.5431   -5.2347  -27.7039 C   0  0  0  0  0  0  0  0  0  0  0  0
  -15.3943   -2.6685  -28.7498 C   0  0  0  0  0  0  0  0  0  0  0  0
  -19.9121   -1.0240  -27.0840 C   0  0  0  0  0  0  0  0  0  0  0  0
  -16.1682   -6.9030  -26.0740 C   0  0  0  0  0  0  0  0  0  0  0  0
  -17.3986   -2.2030  -27.3172 C   0  0  0  0  0  0  0  0  0  0  0  0
  -16.1113   -4.2265  -26.9593 C   0  0  0  0  0  0  0  0  0  0  0  0
  -16.0821   -2.8134  -27.4415 C   0  0  2  0  0  0  0  0  0  0  0  0
  -21.1491   -0.4133  -26.9114 O   0  0  0  0  0  0  0  0  0  0  0  0
  -16.1996   -8.2285  -25.6297 O   0  0  0  0  0  0  0  0  0  0  0  0
 11  1  1  0
 16  2  1  1
  7  3  2  0
  3 12  1  0
  8  4  1  0
  4 12  2  0
  9  5  2  0
  5 13  1  0
 10  6  1  0
  6 13  2  0
 14  7  1  0
 14  8  2  0
 15  9  1  0
 15 10  2  0
 16 11  1  0
 12 17  1  0
 13 18  1  0
 16 14  1  0
 15 16  1  0
M  END
$$$$
