
     RDKit          3D

 18 19  0  0  0  0  0  0  0  0999 V2000
  -18.2997   -0.9036  -26.2224 C   0  0  0  0  0  0  0  0  0  0  0  0
  -15.7062   -2.2075  -26.1104 C   0  0  0  0  0  0  0  0  0  0  0  0
  -15.2994   -6.3522  -26.7604 C   0  0  0  0  0  0  0  0  0  0  0  0
  -17.2606   -6.4578  -25.4092 C   0  0  0  0  0  0  0  0  0  0  0  0
  -15.6366   -1.8332  -30.1112 C   0  0  0  0  0  0  0  0  0  0  0  0
  -17.7992   -2.7238  -30.4011 C   0  0  0  0  0  0  0  0  0  0  0  0
  -15.5607   -5.0088  -27.0027 C   0  0  0  0  0  0  0  0  0  0  0  0
  -17.4901   -5.1196  -25.6710 C   0  0  0  0  0  0  0  0  0  0  0  0
  -15.7059   -2.0912  -28.7486 C   0  0  0  0  0  0  0  0  0  0  0  0
  -17.8681   -2.9835  -29.0272 C   0  0  0  0  0  0  0  0  0  0  0  0
  -18.1151   -2.3691  -26.0925 C   0  0  0  0  0  0  0  0  0  0  0  0
  -16.1540   -7.0651  -25.9641 C   0  0  0  0  0  0  0  0  0  0  0  0
  -16.6788   -2.1447  -30.9541 C   0  0  0  0  0  0  0  0  0  0  0  0
  -16.6521   -4.3705  -26.4672 C   0  0  0  0  0  0  0  0  0  0  0  0
  -16.8238   -2.6703  -28.1876 C   0  0  0  0  0  0  0  0  0  0  0  0
  -16.9083   -2.9601  -26.7250 C   0  0  2  0  0  0  0  0  0  0  0  0
  -15.8539   -8.4054  -25.7489 O   0  0  0  0  0  0  0  0  0  0  0  0
  -16.6011   -1.8816  -32.3252 O   0  0  0  0  0  0  0  0  0  0  0  0
 11  1  1  0
 16  2  1  1
  7  3  2  0
  3 12  1  0
  8  4  1  0
  4 12  2  0
  9  5  2  0
  5 13  1  0
 10  6  1  0
  6 13  2  0
 14  7  1  0
 14  8  2  0
 15  9  1  0
 15 10  2  0
 16 11  1  0
 12 17  1  0
 13 18  1  0
 16 14  1  0
 15 16  1  0
M  END
$$$$
