
     RDKit          3D

 18 19  0  0  0  0  0  0  0  0999 V2000
  -14.8371   -1.8191  -25.5109 C   0  0  0  0  0  0  0  0  0  0  0  0
  -18.4018   -2.7670  -26.4531 C   0  0  0  0  0  0  0  0  0  0  0  0
  -17.1046   -3.0408  -30.3803 C   0  0  0  0  0  0  0  0  0  0  0  0
  -15.5344   -1.3381  -29.8157 C   0  0  0  0  0  0  0  0  0  0  0  0
  -16.8885   -6.2814  -25.0812 C   0  0  0  0  0  0  0  0  0  0  0  0
  -15.0805   -6.1692  -26.5887 C   0  0  0  0  0  0  0  0  0  0  0  0
  -17.3053   -3.2795  -29.0258 C   0  0  0  0  0  0  0  0  0  0  0  0
  -15.7585   -1.6019  -28.4769 C   0  0  0  0  0  0  0  0  0  0  0  0
  -17.2321   -4.9709  -25.3855 C   0  0  0  0  0  0  0  0  0  0  0  0
  -15.4276   -4.8481  -26.8948 C   0  0  0  0  0  0  0  0  0  0  0  0
  -16.3102   -1.8427  -25.6786 C   0  0  0  0  0  0  0  0  0  0  0  0
  -16.2191   -2.0701  -30.7626 C   0  0  0  0  0  0  0  0  0  0  0  0
  -15.8114   -6.8972  -25.6764 C   0  0  0  0  0  0  0  0  0  0  0  0
  -16.6420   -2.5707  -28.0548 C   0  0  0  0  0  0  0  0  0  0  0  0
  -16.5054   -4.2357  -26.2973 C   0  0  0  0  0  0  0  0  0  0  0  0
  -16.8686   -2.8281  -26.6393 C   0  0  2  0  0  0  0  0  0  0  0  0
  -16.0498   -1.8655  -32.1273 O   0  0  0  0  0  0  0  0  0  0  0  0
  -15.4721   -8.2174  -25.3644 O   0  0  0  0  0  0  0  0  0  0  0  0
 11  1  1  0
 16  2  1  6
  7  3  2  0
  3 12  1  0
  8  4  1  0
  4 12  2  0
  9  5  2  0
  5 13  1  0
 10  6  1  0
  6 13  2  0
 14  7  1  0
 14  8  2  0
 15  9  1  0
 15 10  2  0
 16 11  1  0
 12 17  1  0
 13 18  1  0
 16 14  1  0
 15 16  1  0
M  END
$$$$
