
     RDKit          3D

 18 19  0  0  0  0  0  0  0  0999 V2000
  -16.6408   -3.5362  -30.3517 C   0  0  0  0  0  0  0  0  0  0  0  0
  -15.2182   -2.1679  -28.3208 C   0  0  0  0  0  0  0  0  0  0  0  0
  -16.9057   -0.3320  -25.0533 C   0  0  0  0  0  0  0  0  0  0  0  0
  -18.9722   -0.3118  -26.2416 C   0  0  0  0  0  0  0  0  0  0  0  0
  -14.9219   -5.6193  -26.2842 C   0  0  0  0  0  0  0  0  0  0  0  0
  -17.2256   -6.0961  -26.4236 C   0  0  0  0  0  0  0  0  0  0  0  0
  -16.4110   -1.2567  -25.9654 C   0  0  0  0  0  0  0  0  0  0  0  0
  -18.4481   -1.2321  -27.1307 C   0  0  0  0  0  0  0  0  0  0  0  0
  -15.1305   -4.3963  -26.9077 C   0  0  0  0  0  0  0  0  0  0  0  0
  -17.4350   -4.8630  -27.0523 C   0  0  0  0  0  0  0  0  0  0  0  0
  -17.3444   -2.8195  -29.2609 C   0  0  0  0  0  0  0  0  0  0  0  0
  -18.1843    0.1324  -25.2008 C   0  0  0  0  0  0  0  0  0  0  0  0
  -15.9629   -6.4838  -26.0341 C   0  0  0  0  0  0  0  0  0  0  0  0
  -17.1659   -1.7215  -27.0140 C   0  0  0  0  0  0  0  0  0  0  0  0
  -16.3912   -4.0013  -27.3008 C   0  0  0  0  0  0  0  0  0  0  0  0
  -16.6306   -2.6856  -27.9654 C   0  0  2  0  0  0  0  0  0  0  0  0
  -18.6374    1.0562  -24.2658 O   0  0  0  0  0  0  0  0  0  0  0  0
  -15.7443   -7.7137  -25.4055 O   0  0  0  0  0  0  0  0  0  0  0  0
 11  1  1  0
 16  2  1  6
  7  3  2  0
  3 12  1  0
  8  4  1  0
  4 12  2  0
  9  5  2  0
  5 13  1  0
 10  6  1  0
  6 13  2  0
 14  7  1  0
 14  8  2  0
 15  9  1  0
 15 10  2  0
 16 11  1  0
 12 17  1  0
 13 18  1  0
 16 14  1  0
 15 16  1  0
M  END
$$$$
