
     RDKit          3D

 26 28  0  0  0  0  0  0  0  0999 V2000
    7.0424  -15.0784   16.5909 O   0  0  0  0  0  0  0  0  0  0  0  0
    6.0790  -14.0854   16.0432 S   0  0  1  0  0  6  0  0  0  0  0  0
    5.8279  -14.4256   14.3397 C   0  0  0  0  0  0  0  0  0  0  0  0
    5.3901  -15.6668   13.9275 C   0  0  0  0  0  0  0  0  0  0  0  0
    5.1884  -15.9490   12.5925 C   0  0  0  0  0  0  0  0  0  0  0  0
    5.4136  -15.0082   11.6066 C   0  0  0  0  0  0  0  0  0  0  0  0
    5.2002  -15.3074   10.1959 C   0  0  0  0  0  0  0  0  0  0  0  0
    6.1531  -15.9386    9.4017 C   0  0  0  0  0  0  0  0  0  0  0  0
    5.9445  -16.2148    8.0816 C   0  0  0  0  0  0  0  0  0  0  0  0
    6.9219  -16.8775    7.2140 C   0  0  1  0  0  0  0  0  0  0  0  0
    6.6876  -18.3240    7.1224 C   0  0  0  0  0  0  0  0  0  0  0  0
    5.6512  -18.7609    6.2575 N   0  0  0  0  0  0  0  0  0  0  0  0
    7.3629  -19.2174    7.7728 N   0  0  0  0  0  4  0  0  0  0  0  0
    6.9727  -16.2185    5.8491 C   0  0  0  0  0  0  0  0  0  0  0  0
    8.0757  -15.3215    6.4318 C   0  0  0  0  0  0  0  0  0  0  0  0
    8.3624  -16.4647    7.3900 C   0  0  0  0  0  0  0  0  0  0  0  0
    4.7377  -15.8465    7.5324 C   0  0  0  0  0  0  0  0  0  0  0  0
    3.7435  -15.2130    8.2704 C   0  0  0  0  0  0  0  0  0  0  0  0
    2.2180  -14.7446    7.5864 Cl  0  0  0  0  0  0  0  0  0  0  0  0
    4.0064  -14.9569    9.6031 C   0  0  0  0  0  0  0  0  0  0  0  0
    5.8520  -13.7658   12.0215 C   0  0  0  0  0  0  0  0  0  0  0  0
    6.0566  -13.4769   13.3655 C   0  0  0  0  0  0  0  0  0  0  0  0
    4.5982  -14.2203   16.9246 N   0  0  0  0  0  0  0  0  0  0  0  0
    3.8153  -12.9979   16.8118 C   0  0  0  0  0  0  0  0  0  0  0  0
    2.5745  -13.1578   17.6580 C   0  0  0  0  0  0  0  0  0  0  0  0
    6.6331  -12.7172   16.2541 O   0  0  0  0  0  0  0  0  0  0  0  0
  1  2  2  0
  2  3  1  0
  2 23  1  1
  2 26  2  0
  3 22  2  0
  3  4  1  0
  4  5  2  0
  5  6  1  0
  6  7  1  0
  6 21  2  0
  7 20  1  0
  7  8  2  0
  8  9  1  0
 10  9  1  1
  9 17  2  0
 10 16  1  0
 10 11  1  0
 14 10  1  6
 11 12  1  0
 11 13  2  3
 15 14  1  6
 16 15  1  1
 17 18  1  0
 18 19  1  0
 18 20  2  0
 21 22  1  0
 24 23  1  6
 25 24  1  1
M  CHG  1  13   1
M  END
$$$$
