
     RDKit          3D

 26 28  0  0  0  0  0  0  0  0999 V2000
    4.7055   -2.8491    0.3924 O   0  0  0  0  0  0  0  0  0  0  0  0
    4.3740   -3.6191   -0.8370 S   0  0  1  0  0  6  0  0  0  0  0  0
    5.8647   -4.2158   -1.5460 C   0  0  0  0  0  0  0  0  0  0  0  0
    6.3123   -3.7284   -2.7561 C   0  0  0  0  0  0  0  0  0  0  0  0
    7.4814   -4.1876   -3.3258 C   0  0  0  0  0  0  0  0  0  0  0  0
    8.2587   -5.1534   -2.7167 C   0  0  0  0  0  0  0  0  0  0  0  0
    9.4942   -5.6382   -3.3196 C   0  0  0  0  0  0  0  0  0  0  0  0
   10.6978   -4.9430   -3.2464 C   0  0  0  0  0  0  0  0  0  0  0  0
   11.8498   -5.4048   -3.8140 C   0  0  0  0  0  0  0  0  0  0  0  0
   13.1349   -4.7028   -3.7580 C   0  0  1  0  0  0  0  0  0  0  0  0
   13.4515   -4.0289   -5.0235 C   0  0  0  0  0  0  0  0  0  0  0  0
   14.1675   -4.7746   -5.9952 N   0  0  0  0  0  0  0  0  0  0  0  0
   13.1188   -2.8098   -5.3066 N   0  0  0  0  0  4  0  0  0  0  0  0
   13.1851   -3.7538   -2.5762 C   0  0  0  0  0  0  0  0  0  0  0  0
   13.7758   -4.9295   -1.7827 C   0  0  0  0  0  0  0  0  0  0  0  0
   14.2789   -5.4497   -3.1181 C   0  0  0  0  0  0  0  0  0  0  0  0
   11.7987   -6.6074   -4.4809 C   0  0  0  0  0  0  0  0  0  0  0  0
   10.6288   -7.3515   -4.5907 C   0  0  0  0  0  0  0  0  0  0  0  0
   10.5547   -8.8696   -5.4299 Cl  0  0  0  0  0  0  0  0  0  0  0  0
    9.4907   -6.8381   -3.9975 C   0  0  0  0  0  0  0  0  0  0  0  0
    7.8087   -5.6402   -1.5049 C   0  0  0  0  0  0  0  0  0  0  0  0
    6.6313   -5.1805   -0.9271 C   0  0  0  0  0  0  0  0  0  0  0  0
    3.3332   -4.9268   -0.3960 N   0  0  0  0  0  0  0  0  0  0  0  0
    2.5407   -5.3648   -1.5362 C   0  0  0  0  0  0  0  0  0  0  0  0
    1.8430   -6.6490   -1.1548 C   0  0  0  0  0  0  0  0  0  0  0  0
    3.6389   -2.7242   -1.7762 O   0  0  0  0  0  0  0  0  0  0  0  0
  1  2  2  0
  2  3  1  0
  2 23  1  1
  2 26  2  0
  3 22  2  0
  3  4  1  0
  4  5  2  0
  5  6  1  0
  6  7  1  0
  6 21  2  0
  7 20  1  0
  7  8  2  0
  8  9  1  0
 10  9  1  6
  9 17  2  0
 10 16  1  0
 10 11  1  0
 14 10  1  6
 11 12  1  0
 11 13  2  3
 15 14  1  6
 16 15  1  1
 17 18  1  0
 18 19  1  0
 18 20  2  0
 21 22  1  0
 24 23  1  6
 25 24  1  1
M  CHG  1  13   1
M  END
$$$$
