
     RDKit          3D

 26 28  0  0  0  0  0  0  0  0999 V2000
   13.1963   -3.3131   -3.0718 O   0  0  0  0  0  0  0  0  0  0  0  0
   13.5665   -4.7216   -2.7663 S   0  0  1  0  0  6  0  0  0  0  0  0
   12.8444   -5.1728   -1.2314 C   0  0  0  0  0  0  0  0  0  0  0  0
   11.6725   -4.5835   -0.8053 C   0  0  0  0  0  0  0  0  0  0  0  0
   11.0933   -4.9275    0.3982 C   0  0  0  0  0  0  0  0  0  0  0  0
   11.6545   -5.8742    1.2329 C   0  0  0  0  0  0  0  0  0  0  0  0
   11.0417   -6.2372    2.5048 C   0  0  0  0  0  0  0  0  0  0  0  0
   11.7803   -6.6142    3.6226 C   0  0  0  0  0  0  0  0  0  0  0  0
   11.1978   -6.9524    4.8096 C   0  0  0  0  0  0  0  0  0  0  0  0
   11.9407   -7.3536    6.0073 C   0  0  1  0  0  0  0  0  0  0  0  0
   12.1247   -6.2370    6.9427 C   0  0  0  0  0  0  0  0  0  0  0  0
   12.7105   -5.0504    6.4310 N   0  0  0  0  0  0  0  0  0  0  0  0
   11.7863   -6.2660    8.1924 N   0  0  0  0  0  4  0  0  0  0  0  0
   11.2957   -8.5554    6.6703 C   0  0  0  0  0  0  0  0  0  0  0  0
   12.2196   -9.4127    5.7916 C   0  0  0  0  0  0  0  0  0  0  0  0
   13.1571   -8.2176    5.7829 C   0  0  0  0  0  0  0  0  0  0  0  0
    9.8243   -6.9129    4.8839 C   0  0  0  0  0  0  0  0  0  0  0  0
    9.0281   -6.5451    3.8045 C   0  0  0  0  0  0  0  0  0  0  0  0
    7.2948   -6.4923    3.8888 Cl  0  0  0  0  0  0  0  0  0  0  0  0
    9.6690   -6.2120    2.6259 C   0  0  0  0  0  0  0  0  0  0  0  0
   12.8281   -6.4632    0.8044 C   0  0  0  0  0  0  0  0  0  0  0  0
   13.4153   -6.1198   -0.4076 C   0  0  0  0  0  0  0  0  0  0  0  0
   12.9806   -5.7277   -4.0439 N   0  0  0  0  0  0  0  0  0  0  0  0
   11.5791   -5.4476   -4.3222 C   0  0  0  0  0  0  0  0  0  0  0  0
   11.4773   -4.9358   -5.7396 C   0  0  0  0  0  0  0  0  0  0  0  0
   15.0534   -4.8255   -2.7252 O   0  0  0  0  0  0  0  0  0  0  0  0
  1  2  2  0
  2  3  1  0
  2 23  1  6
  2 26  2  0
  3 22  2  0
  3  4  1  0
  4  5  2  0
  5  6  1  0
  6  7  1  0
  6 21  2  0
  7 20  1  0
  7  8  2  0
  8  9  1  0
 10  9  1  6
  9 17  2  0
 10 16  1  0
 10 11  1  0
 14 10  1  6
 11 12  1  0
 11 13  2  3
 15 14  1  6
 16 15  1  1
 17 18  1  0
 18 19  1  0
 18 20  2  0
 21 22  1  0
 24 23  1  6
 25 24  1  1
M  CHG  1  13   1
M  END
$$$$
