
     RDKit          3D

 26 28  0  0  0  0  0  0  0  0999 V2000
   17.6780   -4.8282   -0.9772 O   0  0  0  0  0  0  0  0  0  0  0  0
   17.5277   -4.6545   -2.4474 S   0  0  1  0  0  6  0  0  0  0  0  0
   15.8763   -5.0473   -2.8942 C   0  0  0  0  0  0  0  0  0  0  0  0
   15.5782   -5.4901   -4.1658 C   0  0  0  0  0  0  0  0  0  0  0  0
   14.2856   -5.8025   -4.5317 C   0  0  0  0  0  0  0  0  0  0  0  0
   13.2302   -5.6882   -3.6480 C   0  0  0  0  0  0  0  0  0  0  0  0
   11.8643   -6.0185   -4.0355 C   0  0  0  0  0  0  0  0  0  0  0  0
   10.8462   -5.0722   -4.1073 C   0  0  0  0  0  0  0  0  0  0  0  0
    9.5700   -5.3908   -4.4712 C   0  0  0  0  0  0  0  0  0  0  0  0
    8.4724   -4.4237   -4.5588 C   0  0  1  0  0  0  0  0  0  0  0  0
    7.9608   -4.2919   -5.9287 C   0  0  0  0  0  0  0  0  0  0  0  0
    8.1613   -3.0476   -6.5802 N   0  0  0  0  0  0  0  0  0  0  0  0
    7.3468   -5.2318   -6.5742 N   0  0  0  0  0  4  0  0  0  0  0  0
    7.3742   -4.7561   -3.5672 C   0  0  0  0  0  0  0  0  0  0  0  0
    8.1209   -3.8422   -2.5834 C   0  0  0  0  0  0  0  0  0  0  0  0
    8.6605   -3.1273   -3.8101 C   0  0  0  0  0  0  0  0  0  0  0  0
    9.2992   -6.7052   -4.7753 C   0  0  0  0  0  0  0  0  0  0  0  0
   10.2705   -7.6993   -4.7234 C   0  0  0  0  0  0  0  0  0  0  0  0
    9.9383   -9.3600   -5.1052 Cl  0  0  0  0  0  0  0  0  0  0  0  0
   11.5466   -7.3224   -4.3489 C   0  0  0  0  0  0  0  0  0  0  0  0
   13.5308   -5.2445   -2.3749 C   0  0  0  0  0  0  0  0  0  0  0  0
   14.8318   -4.9286   -2.0018 C   0  0  0  0  0  0  0  0  0  0  0  0
   17.9006   -3.0135   -2.8425 N   0  0  0  0  0  0  0  0  0  0  0  0
   17.2118   -2.0958   -1.9462 C   0  0  0  0  0  0  0  0  0  0  0  0
   17.4546   -0.6894   -2.4404 C   0  0  0  0  0  0  0  0  0  0  0  0
   18.5086   -5.5423   -3.1351 O   0  0  0  0  0  0  0  0  0  0  0  0
  1  2  2  0
  2  3  1  0
  2 23  1  1
  2 26  2  0
  3 22  2  0
  3  4  1  0
  4  5  2  0
  5  6  1  0
  6  7  1  0
  6 21  2  0
  7 20  1  0
  7  8  2  0
  8  9  1  0
 10  9  1  6
  9 17  2  0
 10 16  1  0
 10 11  1  0
 14 10  1  6
 11 12  1  0
 11 13  2  3
 15 14  1  6
 16 15  1  1
 17 18  1  0
 18 19  1  0
 18 20  2  0
 21 22  1  0
 24 23  1  6
 25 24  1  1
M  CHG  1  13   1
M  END
$$$$
