
     RDKit          3D

 26 28  0  0  0  0  0  0  0  0999 V2000
    6.7248  -17.8045   22.6616 O   0  0  0  0  0  0  0  0  0  0  0  0
    7.9365  -17.3323   21.9384 S   0  0  1  0  0  6  0  0  0  0  0  0
    7.4298  -16.4567   20.5040 C   0  0  0  0  0  0  0  0  0  0  0  0
    6.4551  -15.4841   20.5814 C   0  0  0  0  0  0  0  0  0  0  0  0
    6.0465  -14.7879   19.4631 C   0  0  0  0  0  0  0  0  0  0  0  0
    6.5897  -15.0282   18.2161 C   0  0  0  0  0  0  0  0  0  0  0  0
    6.1573  -14.2919   17.0346 C   0  0  0  0  0  0  0  0  0  0  0  0
    6.2429  -14.8088   15.7451 C   0  0  0  0  0  0  0  0  0  0  0  0
    5.8354  -14.1119   14.6447 C   0  0  0  0  0  0  0  0  0  0  0  0
    5.9090  -14.6217   13.2728 C   0  0  1  0  0  0  0  0  0  0  0  0
    4.6800  -15.3206   12.8768 C   0  0  0  0  0  0  0  0  0  0  0  0
    4.4315  -16.5850   13.4705 N   0  0  0  0  0  0  0  0  0  0  0  0
    3.8157  -14.8584   12.0303 N   0  0  0  0  0  4  0  0  0  0  0  0
    6.2777  -13.5172   12.3012 C   0  0  0  0  0  0  0  0  0  0  0  0
    7.7391  -13.9235   12.5466 C   0  0  0  0  0  0  0  0  0  0  0  0
    7.1967  -15.3026   12.8794 C   0  0  0  0  0  0  0  0  0  0  0  0
    5.3224  -12.8499   14.8387 C   0  0  0  0  0  0  0  0  0  0  0  0
    5.2095  -12.2752   16.1002 C   0  0  0  0  0  0  0  0  0  0  0  0
    4.5637  -10.6839   16.3547 Cl  0  0  0  0  0  0  0  0  0  0  0  0
    5.6369  -13.0241   17.1806 C   0  0  0  0  0  0  0  0  0  0  0  0
    7.5658  -16.0027   18.1407 C   0  0  0  0  0  0  0  0  0  0  0  0
    7.9807  -16.7067   19.2649 C   0  0  0  0  0  0  0  0  0  0  0  0
    8.8395  -16.3093   22.9995 N   0  0  0  0  0  0  0  0  0  0  0  0
   10.1573  -16.0265   22.4487 C   0  0  0  0  0  0  0  0  0  0  0  0
   10.9429  -15.2600   23.4863 C   0  0  0  0  0  0  0  0  0  0  0  0
    8.7760  -18.5149   21.5920 O   0  0  0  0  0  0  0  0  0  0  0  0
  1  2  2  0
  2  3  1  0
  2 23  1  1
  2 26  2  0
  3 22  2  0
  3  4  1  0
  4  5  2  0
  5  6  1  0
  6  7  1  0
  6 21  2  0
  7 20  1  0
  7  8  2  0
  8  9  1  0
 10  9  1  1
  9 17  2  0
 10 16  1  0
 10 11  1  0
 14 10  1  6
 11 12  1  0
 11 13  2  3
 15 14  1  6
 16 15  1  1
 17 18  1  0
 18 19  1  0
 18 20  2  0
 21 22  1  0
 24 23  1  6
 25 24  1  1
M  CHG  1  13   1
M  END
$$$$
