
     RDKit          3D

 26 28  0  0  0  0  0  0  0  0999 V2000
    4.3590   -4.2480    0.5455 O   0  0  0  0  0  0  0  0  0  0  0  0
    4.1869   -4.2929   -0.9319 S   0  0  1  0  0  6  0  0  0  0  0  0
    5.7193   -4.7373   -1.6634 C   0  0  0  0  0  0  0  0  0  0  0  0
    5.9692   -4.4658   -2.9923 C   0  0  0  0  0  0  0  0  0  0  0  0
    7.1683   -4.8091   -3.5811 C   0  0  0  0  0  0  0  0  0  0  0  0
    8.1738   -5.4386   -2.8736 C   0  0  0  0  0  0  0  0  0  0  0  0
    9.4408   -5.8011   -3.4967 C   0  0  0  0  0  0  0  0  0  0  0  0
   10.5996   -5.0429   -3.3565 C   0  0  0  0  0  0  0  0  0  0  0  0
   11.7816   -5.3901   -3.9437 C   0  0  0  0  0  0  0  0  0  0  0  0
   13.0214   -4.6189   -3.8191 C   0  0  1  0  0  0  0  0  0  0  0  0
   13.8944   -5.1441   -2.7620 C   0  0  0  0  0  0  0  0  0  0  0  0
   13.7693   -4.5695   -1.4707 N   0  0  0  0  0  0  0  0  0  0  0  0
   14.7608   -6.0916   -2.9318 N   0  0  0  0  0  4  0  0  0  0  0  0
   13.7353   -4.5177   -5.1532 C   0  0  0  0  0  0  0  0  0  0  0  0
   12.9351   -3.2244   -5.3722 C   0  0  0  0  0  0  0  0  0  0  0  0
   12.8828   -3.1170   -3.8580 C   0  0  0  0  0  0  0  0  0  0  0  0
   11.8083   -6.5390   -4.7005 C   0  0  0  0  0  0  0  0  0  0  0  0
   10.6864   -7.3412   -4.8806 C   0  0  0  0  0  0  0  0  0  0  0  0
   10.7105   -8.7922   -5.8335 Cl  0  0  0  0  0  0  0  0  0  0  0  0
    9.5149   -6.9437   -4.2638 C   0  0  0  0  0  0  0  0  0  0  0  0
    7.9216   -5.7097   -1.5429 C   0  0  0  0  0  0  0  0  0  0  0  0
    6.7148   -5.3656   -0.9454 C   0  0  0  0  0  0  0  0  0  0  0  0
    2.9649   -5.4580   -1.3023 N   0  0  0  0  0  0  0  0  0  0  0  0
    1.6368   -4.8797   -1.1557 C   0  0  0  0  0  0  0  0  0  0  0  0
    0.6279   -5.9007   -1.6257 C   0  0  0  0  0  0  0  0  0  0  0  0
    3.7232   -2.9549   -1.3987 O   0  0  0  0  0  0  0  0  0  0  0  0
  1  2  2  0
  2  3  1  0
  2 23  1  1
  2 26  2  0
  3 22  2  0
  3  4  1  0
  4  5  2  0
  5  6  1  0
  6  7  1  0
  6 21  2  0
  7 20  1  0
  7  8  2  0
  8  9  1  0
 10  9  1  6
  9 17  2  0
 10 16  1  0
 10 11  1  0
 14 10  1  6
 11 12  1  0
 11 13  2  3
 15 14  1  6
 16 15  1  1
 17 18  1  0
 18 19  1  0
 18 20  2  0
 21 22  1  0
 24 23  1  6
 25 24  1  1
M  CHG  1  13   1
M  END
$$$$
