
     RDKit          3D

 26 28  0  0  0  0  0  0  0  0999 V2000
    3.5689  -16.0892   -1.3008 O   0  0  0  0  0  0  0  0  0  0  0  0
    4.2149  -17.4006   -1.5782 S   0  0  1  0  0  6  0  0  0  0  0  0
    5.5586  -17.1443   -2.6781 C   0  0  0  0  0  0  0  0  0  0  0  0
    6.0557  -18.1842   -3.4354 C   0  0  0  0  0  0  0  0  0  0  0  0
    7.1111  -17.9982   -4.3038 C   0  0  0  0  0  0  0  0  0  0  0  0
    7.7200  -16.7680   -4.4578 C   0  0  0  0  0  0  0  0  0  0  0  0
    8.8354  -16.5723   -5.3758 C   0  0  0  0  0  0  0  0  0  0  0  0
    8.8893  -15.5259   -6.2919 C   0  0  0  0  0  0  0  0  0  0  0  0
    9.9380  -15.3506   -7.1476 C   0  0  0  0  0  0  0  0  0  0  0  0
   10.0311  -14.2624   -8.1247 C   0  0  1  0  0  0  0  0  0  0  0  0
    9.9494  -14.7524   -9.5062 C   0  0  0  0  0  0  0  0  0  0  0  0
    9.6163  -16.1189   -9.6924 N   0  0  0  0  0  0  0  0  0  0  0  0
   10.1574  -14.0220  -10.5553 N   0  0  0  0  0  4  0  0  0  0  0  0
    9.0033  -13.1847   -7.8380 C   0  0  0  0  0  0  0  0  0  0  0  0
   10.0854  -12.5205   -6.9727 C   0  0  0  0  0  0  0  0  0  0  0  0
   11.0924  -13.2211   -7.8684 C   0  0  0  0  0  0  0  0  0  0  0  0
   10.9733  -16.2549   -7.0867 C   0  0  0  0  0  0  0  0  0  0  0  0
   10.9814  -17.3222   -6.1949 C   0  0  0  0  0  0  0  0  0  0  0  0
   12.2830  -18.4681   -6.1107 Cl  0  0  0  0  0  0  0  0  0  0  0  0
    9.8948  -17.4535   -5.3505 C   0  0  0  0  0  0  0  0  0  0  0  0
    7.2207  -15.7278   -3.6984 C   0  0  0  0  0  0  0  0  0  0  0  0
    6.1574  -15.9106   -2.8222 C   0  0  0  0  0  0  0  0  0  0  0  0
    4.7619  -18.0658   -0.0795 N   0  0  0  0  0  0  0  0  0  0  0  0
    3.7070  -18.0200    0.9230 C   0  0  0  0  0  0  0  0  0  0  0  0
    4.2341  -18.6593    2.1858 C   0  0  0  0  0  0  0  0  0  0  0  0
    3.1960  -18.3201   -2.1611 O   0  0  0  0  0  0  0  0  0  0  0  0
  1  2  2  0
  2  3  1  0
  2 23  1  1
  2 26  2  0
  3 22  2  0
  3  4  1  0
  4  5  2  0
  5  6  1  0
  6  7  1  0
  6 21  2  0
  7 20  1  0
  7  8  2  0
  8  9  1  0
 10  9  1  1
  9 17  2  0
 10 16  1  0
 10 11  1  0
 14 10  1  6
 11 12  1  0
 11 13  2  3
 15 14  1  6
 16 15  1  1
 17 18  1  0
 18 19  1  0
 18 20  2  0
 21 22  1  0
 24 23  1  6
 25 24  1  1
M  CHG  1  13   1
M  END
$$$$
