
     RDKit          3D

 26 28  0  0  0  0  0  0  0  0999 V2000
   11.6625  -16.7352    6.1595 O   0  0  0  0  0  0  0  0  0  0  0  0
   11.7825  -15.6423    7.1621 S   0  0  1  0  0  6  0  0  0  0  0  0
   10.2321  -15.4375    7.9592 C   0  0  0  0  0  0  0  0  0  0  0  0
    9.0835  -15.9680    7.4101 C   0  0  0  0  0  0  0  0  0  0  0  0
    7.8582  -15.8152    8.0246 C   0  0  0  0  0  0  0  0  0  0  0  0
    7.7202  -15.1271    9.2143 C   0  0  0  0  0  0  0  0  0  0  0  0
    6.4248  -14.9660    9.8630 C   0  0  0  0  0  0  0  0  0  0  0  0
    5.3315  -14.3738    9.2376 C   0  0  0  0  0  0  0  0  0  0  0  0
    4.1222  -14.2273    9.8530 C   0  0  0  0  0  0  0  0  0  0  0  0
    2.9490  -13.6105    9.2280 C   0  0  1  0  0  0  0  0  0  0  0  0
    1.9159  -14.5996    8.8966 C   0  0  0  0  0  0  0  0  0  0  0  0
    0.7114  -14.5568    9.6453 N   0  0  0  0  0  0  0  0  0  0  0  0
    2.0327  -15.4977    7.9708 N   0  0  0  0  0  4  0  0  0  0  0  0
    2.4072  -12.4818   10.0839 C   0  0  0  0  0  0  0  0  0  0  0  0
    3.3381  -11.5587    9.2827 C   0  0  0  0  0  0  0  0  0  0  0  0
    3.2228  -12.5780    8.1625 C   0  0  0  0  0  0  0  0  0  0  0  0
    3.9991  -14.6899   11.1431 C   0  0  0  0  0  0  0  0  0  0  0  0
    5.0520  -15.2910   11.8248 C   0  0  0  0  0  0  0  0  0  0  0  0
    4.9062  -15.8775   13.4523 Cl  0  0  0  0  0  0  0  0  0  0  0  0
    6.2550  -15.4144   11.1551 C   0  0  0  0  0  0  0  0  0  0  0  0
    8.8717  -14.5966    9.7626 C   0  0  0  0  0  0  0  0  0  0  0  0
   10.1085  -14.7481    9.1470 C   0  0  0  0  0  0  0  0  0  0  0  0
   13.0086  -16.0792    8.2995 N   0  0  0  0  0  0  0  0  0  0  0  0
   12.8446  -17.4595    8.7329 C   0  0  0  0  0  0  0  0  0  0  0  0
   13.9318  -17.7670    9.7353 C   0  0  0  0  0  0  0  0  0  0  0  0
   12.2082  -14.3970    6.4612 O   0  0  0  0  0  0  0  0  0  0  0  0
  1  2  2  0
  2  3  1  0
  2 23  1  1
  2 26  2  0
  3 22  2  0
  3  4  1  0
  4  5  2  0
  5  6  1  0
  6  7  1  0
  6 21  2  0
  7 20  1  0
  7  8  2  0
  8  9  1  0
 10  9  1  1
  9 17  2  0
 10 16  1  0
 10 11  1  0
 14 10  1  6
 11 12  1  0
 11 13  2  3
 15 14  1  6
 16 15  1  1
 17 18  1  0
 18 19  1  0
 18 20  2  0
 21 22  1  0
 24 23  1  6
 25 24  1  1
M  CHG  1  13   1
M  END
$$$$
