
     RDKit          3D

 26 28  0  0  0  0  0  0  0  0999 V2000
    8.5636    0.2304    1.3784 O   0  0  0  0  0  0  0  0  0  0  0  0
    8.7652    0.5722   -0.0557 S   0  0  1  0  0  6  0  0  0  0  0  0
    9.4744   -0.8118   -0.8695 C   0  0  0  0  0  0  0  0  0  0  0  0
    9.5556   -2.0344   -0.2364 C   0  0  0  0  0  0  0  0  0  0  0  0
   10.1103   -3.1309   -0.8629 C   0  0  0  0  0  0  0  0  0  0  0  0
   10.6096   -3.0603   -2.1488 C   0  0  0  0  0  0  0  0  0  0  0  0
   11.1957   -4.2197   -2.8101 C   0  0  0  0  0  0  0  0  0  0  0  0
   10.6397   -5.4938   -2.7414 C   0  0  0  0  0  0  0  0  0  0  0  0
   11.1956   -6.5736   -3.3641 C   0  0  0  0  0  0  0  0  0  0  0  0
   10.6403   -7.9288   -3.3155 C   0  0  1  0  0  0  0  0  0  0  0  0
   10.1942   -8.2947   -1.9655 C   0  0  0  0  0  0  0  0  0  0  0  0
   11.1951   -8.6479   -1.0239 N   0  0  0  0  0  0  0  0  0  0  0  0
    8.9570   -8.3121   -1.5830 N   0  0  0  0  0  4  0  0  0  0  0  0
    9.5433   -8.1044   -4.3479 C   0  0  0  0  0  0  0  0  0  0  0  0
   10.6516   -8.5765   -5.3016 C   0  0  0  0  0  0  0  0  0  0  0  0
   11.4105   -8.9952   -4.0543 C   0  0  0  0  0  0  0  0  0  0  0  0
   12.3516   -6.3741   -4.0834 C   0  0  0  0  0  0  0  0  0  0  0  0
   12.9581   -5.1271   -4.1919 C   0  0  0  0  0  0  0  0  0  0  0  0
   14.4163   -4.8658   -5.0970 Cl  0  0  0  0  0  0  0  0  0  0  0  0
   12.3536   -4.0674   -3.5419 C   0  0  0  0  0  0  0  0  0  0  0  0
   10.5274   -1.8351   -2.7812 C   0  0  0  0  0  0  0  0  0  0  0  0
    9.9693   -0.7275   -2.1538 C   0  0  0  0  0  0  0  0  0  0  0  0
    7.2295    0.9715   -0.7412 N   0  0  0  0  0  0  0  0  0  0  0  0
    7.2216    0.7206   -2.1754 C   0  0  0  0  0  0  0  0  0  0  0  0
    6.5065    1.8690   -2.8469 C   0  0  0  0  0  0  0  0  0  0  0  0
    9.6481    1.7708   -0.1405 O   0  0  0  0  0  0  0  0  0  0  0  0
  1  2  2  0
  2  3  1  0
  2 23  1  6
  2 26  2  0
  3 22  2  0
  3  4  1  0
  4  5  2  0
  5  6  1  0
  6  7  1  0
  6 21  2  0
  7 20  1  0
  7  8  2  0
  8  9  1  0
 10  9  1  1
  9 17  2  0
 10 16  1  0
 10 11  1  0
 14 10  1  6
 11 12  1  0
 11 13  2  3
 15 14  1  6
 16 15  1  1
 17 18  1  0
 18 19  1  0
 18 20  2  0
 21 22  1  0
 24 23  1  6
 25 24  1  1
M  CHG  1  13   1
M  END
$$$$
