
     RDKit          3D

 26 28  0  0  0  0  0  0  0  0999 V2000
   27.0571  -14.6898   -6.8406 O   0  0  0  0  0  0  0  0  0  0  0  0
   26.4103  -13.3742   -7.0953 S   0  0  1  0  0  6  0  0  0  0  0  0
   26.3669  -13.0947   -8.8276 C   0  0  0  0  0  0  0  0  0  0  0  0
   27.2245  -13.7698   -9.6706 C   0  0  0  0  0  0  0  0  0  0  0  0
   27.2024  -13.5607  -11.0337 C   0  0  0  0  0  0  0  0  0  0  0  0
   26.3249  -12.6695  -11.6201 C   0  0  0  0  0  0  0  0  0  0  0  0
   26.3022  -12.4491  -13.0609 C   0  0  0  0  0  0  0  0  0  0  0  0
   27.4424  -12.1492  -13.8006 C   0  0  0  0  0  0  0  0  0  0  0  0
   27.4114  -11.9444  -15.1496 C   0  0  0  0  0  0  0  0  0  0  0  0
   28.5891  -11.6276  -15.9621 C   0  0  1  0  0  0  0  0  0  0  0  0
   28.8618  -12.6633  -16.9663 C   0  0  0  0  0  0  0  0  0  0  0  0
   29.7823  -13.6839  -16.6136 N   0  0  0  0  0  0  0  0  0  0  0  0
   28.3181  -12.7051  -18.1409 N   0  0  0  0  0  4  0  0  0  0  0  0
   28.4679  -10.2483  -16.5809 C   0  0  0  0  0  0  0  0  0  0  0  0
   29.1783   -9.7285  -15.3216 C   0  0  0  0  0  0  0  0  0  0  0  0
   29.7967  -11.1120  -15.2190 C   0  0  0  0  0  0  0  0  0  0  0  0
   26.1949  -12.0426  -15.7853 C   0  0  0  0  0  0  0  0  0  0  0  0
   25.0185  -12.3392  -15.1051 C   0  0  0  0  0  0  0  0  0  0  0  0
   23.4794  -12.4652  -15.8984 Cl  0  0  0  0  0  0  0  0  0  0  0  0
   25.1061  -12.5374  -13.7399 C   0  0  0  0  0  0  0  0  0  0  0  0
   25.4668  -11.9944  -10.7742 C   0  0  0  0  0  0  0  0  0  0  0  0
   25.4856  -12.2019   -9.4000 C   0  0  0  0  0  0  0  0  0  0  0  0
   24.8129  -13.4163   -6.4363 N   0  0  0  0  0  0  0  0  0  0  0  0
   24.1165  -14.6283   -6.8438 C   0  0  0  0  0  0  0  0  0  0  0  0
   22.7354  -14.6017   -6.2330 C   0  0  0  0  0  0  0  0  0  0  0  0
   27.1871  -12.3162   -6.3877 O   0  0  0  0  0  0  0  0  0  0  0  0
  1  2  2  0
  2  3  1  0
  2 23  1  1
  2 26  2  0
  3 22  2  0
  3  4  1  0
  4  5  2  0
  5  6  1  0
  6  7  1  0
  6 21  2  0
  7 20  1  0
  7  8  2  0
  8  9  1  0
 10  9  1  1
  9 17  2  0
 10 16  1  0
 10 11  1  0
 14 10  1  6
 11 12  1  0
 11 13  2  3
 15 14  1  6
 16 15  1  1
 17 18  1  0
 18 19  1  0
 18 20  2  0
 21 22  1  0
 24 23  1  6
 25 24  1  1
M  CHG  1  13   1
M  END
$$$$
