
     RDKit          3D

 26 28  0  0  0  0  0  0  0  0999 V2000
    2.1364  -10.7547    6.7149 O   0  0  0  0  0  0  0  0  0  0  0  0
    1.8608  -12.2083    6.8736 S   0  0  1  0  0  6  0  0  0  0  0  0
    2.9627  -12.8621    8.0733 C   0  0  0  0  0  0  0  0  0  0  0  0
    2.7418  -14.1055    8.6275 C   0  0  0  0  0  0  0  0  0  0  0  0
    3.5985  -14.6324    9.5713 C   0  0  0  0  0  0  0  0  0  0  0  0
    4.7148  -13.9451   10.0066 C   0  0  0  0  0  0  0  0  0  0  0  0
    5.6199  -14.5027   11.0042 C   0  0  0  0  0  0  0  0  0  0  0  0
    6.9452  -14.8267   10.7292 C   0  0  0  0  0  0  0  0  0  0  0  0
    7.7853  -15.3484   11.6698 C   0  0  0  0  0  0  0  0  0  0  0  0
    9.1853  -15.7014   11.4190 C   0  0  1  0  0  0  0  0  0  0  0  0
    9.3124  -16.8180   10.4742 C   0  0  0  0  0  0  0  0  0  0  0  0
    9.5709  -16.4947    9.1171 N   0  0  0  0  0  0  0  0  0  0  0  0
    9.2075  -18.0673   10.7992 N   0  0  0  0  0  4  0  0  0  0  0  0
    9.9822  -14.4877   10.9811 C   0  0  0  0  0  0  0  0  0  0  0  0
   10.2877  -14.2727   12.4714 C   0  0  0  0  0  0  0  0  0  0  0  0
   10.0858  -15.7700   12.6277 C   0  0  0  0  0  0  0  0  0  0  0  0
    7.2832  -15.5548   12.9342 C   0  0  0  0  0  0  0  0  0  0  0  0
    5.9689  -15.2527   13.2745 C   0  0  0  0  0  0  0  0  0  0  0  0
    5.3265  -15.5096   14.8668 Cl  0  0  0  0  0  0  0  0  0  0  0  0
    5.1606  -14.7265   12.2842 C   0  0  0  0  0  0  0  0  0  0  0  0
    4.9344  -12.7000    9.4503 C   0  0  0  0  0  0  0  0  0  0  0  0
    4.0737  -12.1652    8.4990 C   0  0  0  0  0  0  0  0  0  0  0  0
    0.2177  -12.3991    7.3753 N   0  0  0  0  0  0  0  0  0  0  0  0
   -0.1717  -11.3342    8.2887 C   0  0  0  0  0  0  0  0  0  0  0  0
   -1.6066  -11.5701    8.6970 C   0  0  0  0  0  0  0  0  0  0  0  0
    2.0325  -12.8733    5.5501 O   0  0  0  0  0  0  0  0  0  0  0  0
  1  2  2  0
  2  3  1  0
  2 23  1  1
  2 26  2  0
  3 22  2  0
  3  4  1  0
  4  5  2  0
  5  6  1  0
  6  7  1  0
  6 21  2  0
  7 20  1  0
  7  8  2  0
  8  9  1  0
 10  9  1  1
  9 17  2  0
 10 16  1  0
 10 11  1  0
 14 10  1  6
 11 12  1  0
 11 13  2  3
 15 14  1  6
 16 15  1  1
 17 18  1  0
 18 19  1  0
 18 20  2  0
 21 22  1  0
 24 23  1  6
 25 24  1  1
M  CHG  1  13   1
M  END
$$$$
