
     RDKit          3D

 26 28  0  0  0  0  0  0  0  0999 V2000
   10.4348  -14.8693    5.6242 O   0  0  0  0  0  0  0  0  0  0  0  0
   10.2964  -16.0890    6.4652 S   0  0  1  0  0  6  0  0  0  0  0  0
    9.1314  -15.7658    7.7377 C   0  0  0  0  0  0  0  0  0  0  0  0
    8.6408  -16.7909    8.5190 C   0  0  0  0  0  0  0  0  0  0  0  0
    7.7250  -16.5525    9.5224 C   0  0  0  0  0  0  0  0  0  0  0  0
    7.2555  -15.2822    9.7938 C   0  0  0  0  0  0  0  0  0  0  0  0
    6.2875  -15.0311   10.8545 C   0  0  0  0  0  0  0  0  0  0  0  0
    6.6147  -15.0764   12.2065 C   0  0  0  0  0  0  0  0  0  0  0  0
    5.7016  -14.8398   13.1928 C   0  0  0  0  0  0  0  0  0  0  0  0
    6.0076  -14.8778   14.6254 C   0  0  1  0  0  0  0  0  0  0  0  0
    5.8064  -16.2147   15.1977 C   0  0  0  0  0  0  0  0  0  0  0  0
    4.4995  -16.5408   15.6435 N   0  0  0  0  0  0  0  0  0  0  0  0
    6.7372  -17.1073   15.3172 N   0  0  0  0  0  4  0  0  0  0  0  0
    7.3998  -14.3419   14.8985 C   0  0  0  0  0  0  0  0  0  0  0  0
    6.7322  -12.9677   15.0622 C   0  0  0  0  0  0  0  0  0  0  0  0
    5.4797  -13.7325   15.4537 C   0  0  0  0  0  0  0  0  0  0  0  0
    4.4113  -14.5467   12.8150 C   0  0  0  0  0  0  0  0  0  0  0  0
    4.0187  -14.4857   11.4821 C   0  0  0  0  0  0  0  0  0  0  0  0
    2.3934  -14.1167   10.9959 Cl  0  0  0  0  0  0  0  0  0  0  0  0
    4.9832  -14.7335   10.5233 C   0  0  0  0  0  0  0  0  0  0  0  0
    7.7480  -14.2568    9.0103 C   0  0  0  0  0  0  0  0  0  0  0  0
    8.6710  -14.4923    7.9981 C   0  0  0  0  0  0  0  0  0  0  0  0
    9.7647  -17.3881    5.4566 N   0  0  0  0  0  0  0  0  0  0  0  0
    8.6187  -16.9849    4.6541 C   0  0  0  0  0  0  0  0  0  0  0  0
    8.2566  -18.1354    3.7450 C   0  0  0  0  0  0  0  0  0  0  0  0
   11.6348  -16.4384    7.0219 O   0  0  0  0  0  0  0  0  0  0  0  0
  1  2  2  0
  2  3  1  0
  2 23  1  6
  2 26  2  0
  3 22  2  0
  3  4  1  0
  4  5  2  0
  5  6  1  0
  6  7  1  0
  6 21  2  0
  7 20  1  0
  7  8  2  0
  8  9  1  0
 10  9  1  6
  9 17  2  0
 10 16  1  0
 10 11  1  0
 14 10  1  6
 11 12  1  0
 11 13  2  3
 15 14  1  6
 16 15  1  1
 17 18  1  0
 18 19  1  0
 18 20  2  0
 21 22  1  0
 24 23  1  6
 25 24  1  1
M  CHG  1  13   1
M  END
$$$$
