
     RDKit          3D

 46 52  0  0  0  0  0  0  0  0999 V2000
   17.8401  -17.4089  -11.7508 C   0  0  0  0  0  0  0  0  0  0  0  0
   18.3640  -17.4452  -13.0216 C   0  0  0  0  0  0  0  0  0  0  0  0
   18.5067  -18.6591  -13.6568 C   0  0  0  0  0  0  0  0  0  0  0  0
   18.1196  -19.8041  -12.9992 C   0  0  0  0  0  0  0  0  0  0  0  0
   17.5954  -19.7506  -11.7237 C   0  0  0  0  0  0  0  0  0  0  0  0
   17.4441  -18.5320  -11.0666 C   0  0  0  0  0  0  0  0  0  0  0  0
   16.8874  -18.5384   -9.7212 C   0  0  0  0  0  0  0  0  0  0  0  0
   17.5811  -19.1655   -8.6791 C   0  0  0  0  0  0  0  0  0  0  0  0
   17.0049  -19.1470   -7.4318 C   0  0  0  0  0  0  0  0  0  0  0  0
   17.7261  -19.8046   -6.3312 C   0  0  0  0  0  0  0  0  0  0  0  0
   18.8322  -20.3512   -6.5728 O   0  0  0  0  0  0  0  0  0  0  0  0
   17.1236  -19.7798   -5.0574 N   0  0  0  0  0  0  0  0  0  0  0  0
   15.9902  -19.2149   -4.8305 C   0  0  0  0  0  0  0  0  0  0  0  0
   15.1783  -18.5299   -5.8408 C   0  0  0  0  0  0  0  0  0  0  0  0
   15.8019  -18.5492   -7.1794 C   0  0  0  0  0  0  0  0  0  0  0  0
   15.1887  -17.9651   -8.2246 N   0  0  0  0  0  0  0  0  0  0  0  0
   15.6784  -17.9349   -9.4772 C   0  0  0  0  0  0  0  0  0  0  0  0
   14.9529  -17.2789  -10.5730 C   0  0  0  0  0  0  0  0  0  0  0  0
   14.8385  -15.9151  -10.7056 C   0  0  0  0  0  0  0  0  0  0  0  0
   14.1586  -15.3247  -11.7534 C   0  0  0  0  0  0  0  0  0  0  0  0
   14.3379  -18.0419  -11.5634 C   0  0  0  0  0  0  0  0  0  0  0  0
   13.6591  -17.4504  -12.6082 C   0  0  0  0  0  0  0  0  0  0  0  0
   13.5493  -16.0789  -12.7353 C   0  0  0  0  0  0  0  0  0  0  0  0
   12.8147  -15.4561  -13.8717 C   0  0  0  0  0  0  0  0  0  0  0  0
   12.6935  -14.0167  -13.7341 N   0  0  1  0  0  4  0  0  0  0  0  0
   12.3802  -13.4468  -14.9990 C   0  0  0  0  0  0  0  0  0  0  0  0
   11.1433  -12.5347  -14.9178 C   0  0  0  0  0  0  0  0  0  0  0  0
   11.7338  -13.7454  -12.6991 C   0  0  0  0  0  0  0  0  0  0  0  0
   10.3039  -13.8608  -13.0561 C   0  0  0  0  0  0  0  0  0  0  0  0
   10.0459  -13.4776  -14.4634 C   0  0  1  0  0  0  0  0  0  0  0  0
    8.7353  -12.9966  -14.7712 N   0  0  0  0  0  0  0  0  0  0  0  0
    8.2461  -11.7595  -14.6081 C   0  0  0  0  0  0  0  0  0  0  0  0
    8.7898  -10.5947  -14.1160 C   0  0  0  0  0  0  0  0  0  0  0  0
    7.7013  -13.7100  -15.3108 C   0  0  0  0  0  0  0  0  0  0  0  0
    7.7715  -14.9390  -15.6133 O   0  0  0  0  0  0  0  0  0  0  0  0
    6.6262  -12.9567  -15.4750 N   0  0  0  0  0  0  0  0  0  0  0  0
    5.3320  -13.3283  -16.0129 C   0  0  0  0  0  0  0  0  0  0  0  0
    6.9371  -11.7350  -15.0455 C   0  0  0  0  0  0  0  0  0  0  0  0
    6.1995  -10.5726  -14.9887 C   0  0  0  0  0  0  0  0  0  0  0  0
    6.7688   -9.4200  -14.4915 C   0  0  0  0  0  0  0  0  0  0  0  0
    8.0743   -9.4181  -14.0481 C   0  0  0  0  0  0  0  0  0  0  0  0
    8.6441   -8.2189  -13.5372 N   0  0  0  0  0  0  0  0  0  0  0  0
   10.0149   -8.2174  -13.1082 C   0  0  0  0  0  0  0  0  0  0  0  0
   10.6393   -9.2969  -13.1295 O   0  0  0  0  0  0  0  0  0  0  0  0
   10.6859   -6.9907  -12.6511 C   0  0  0  0  0  0  0  0  0  0  0  0
    9.7350   -5.8288  -12.7972 C   0  0  0  0  0  0  0  0  0  0  0  0
  1  2  2  0
  1  6  1  0
  2  3  1  0
  3  4  2  0
  4  5  1  0
  5  6  2  0
  6  7  1  0
  7  8  2  0
  7 17  1  0
  8  9  1  0
  9 10  1  0
  9 15  2  0
 10 11  2  0
 10 12  1  0
 12 13  2  0
 14 13  1  1
 14 15  1  0
 15 16  1  0
 16 17  2  0
 17 18  1  0
 18 19  2  0
 18 21  1  0
 19 20  1  0
 20 23  2  0
 21 22  2  0
 22 23  1  0
 24 23  1  1
 25 24  1  6
 26 25  1  1
 28 25  1  1
 27 26  1  1
 27 30  1  0
 29 28  1  1
 29 30  1  0
 30 31  1  1
 31 32  1  0
 31 34  1  0
 32 33  2  0
 32 38  1  0
 33 41  1  0
 34 35  2  0
 34 36  1  0
 37 36  1  6
 36 38  1  0
 38 39  2  0
 39 40  1  0
 40 41  2  0
 41 42  1  0
 42 43  1  0
 43 44  2  0
 45 43  1  1
 46 45  1  6
M  CHG  1  25   1
M  END
$$$$
