
     RDKit          3D

 46 52  0  0  0  0  0  0  0  0999 V2000
   16.4897  -12.1686  -10.9908 C   0  0  0  0  0  0  0  0  0  0  0  0
   17.0650  -11.6669  -12.1312 C   0  0  0  0  0  0  0  0  0  0  0  0
   16.7784  -10.3816  -12.5395 C   0  0  0  0  0  0  0  0  0  0  0  0
   15.9076   -9.6362  -11.7704 C   0  0  0  0  0  0  0  0  0  0  0  0
   15.3209  -10.1427  -10.6108 C   0  0  0  0  0  0  0  0  0  0  0  0
   15.6174  -11.4152  -10.2248 C   0  0  0  0  0  0  0  0  0  0  0  0
   15.0570  -12.0470   -9.0254 C   0  0  0  0  0  0  0  0  0  0  0  0
   15.2527  -11.4477   -7.8008 C   0  0  0  0  0  0  0  0  0  0  0  0
   14.6958  -12.0913   -6.6877 C   0  0  0  0  0  0  0  0  0  0  0  0
   14.8439  -11.5449   -5.3556 C   0  0  0  0  0  0  0  0  0  0  0  0
   15.5035  -10.4571   -5.2637 O   0  0  0  0  0  0  0  0  0  0  0  0
   14.2877  -12.1860   -4.2332 N   0  0  0  0  0  0  0  0  0  0  0  0
   13.6331  -13.2752   -4.3676 C   0  0  0  0  0  0  0  0  0  0  0  0
   13.4005  -13.9467   -5.6521 C   0  0  0  0  0  0  0  0  0  0  0  0
   13.9898  -13.2625   -6.8151 C   0  0  0  0  0  0  0  0  0  0  0  0
   13.8435  -13.7892   -8.0702 N   0  0  0  0  0  0  0  0  0  0  0  0
   14.3442  -13.2309   -9.1593 C   0  0  0  0  0  0  0  0  0  0  0  0
   14.1872  -13.7990  -10.5028 C   0  0  0  0  0  0  0  0  0  0  0  0
   13.5444  -13.1423  -11.5298 C   0  0  0  0  0  0  0  0  0  0  0  0
   13.4171  -13.7180  -12.7945 C   0  0  0  0  0  0  0  0  0  0  0  0
   14.7006  -15.0495  -10.7742 C   0  0  0  0  0  0  0  0  0  0  0  0
   14.5742  -15.6174  -12.0247 C   0  0  0  0  0  0  0  0  0  0  0  0
   13.9310  -14.9691  -13.0656 C   0  0  0  0  0  0  0  0  0  0  0  0
   13.8065  -15.5954  -14.4094 C   0  0  0  0  0  0  0  0  0  0  0  0
   12.7089  -15.0483  -15.1885 N   0  0  1  0  0  4  0  0  0  0  0  0
   12.4165  -16.0283  -16.2126 C   0  0  0  0  0  0  0  0  0  0  0  0
   11.1609  -16.8159  -15.8388 C   0  0  0  0  0  0  0  0  0  0  0  0
   11.6341  -14.7557  -14.3135 C   0  0  0  0  0  0  0  0  0  0  0  0
   10.2582  -14.7607  -14.9090 C   0  0  0  0  0  0  0  0  0  0  0  0
   10.0154  -15.7979  -15.9444 C   0  0  1  0  0  0  0  0  0  0  0  0
    9.8805  -15.3199  -17.2835 N   0  0  0  0  0  0  0  0  0  0  0  0
    8.7414  -15.4901  -18.0127 C   0  0  0  0  0  0  0  0  0  0  0  0
    7.5167  -16.1010  -17.7202 C   0  0  0  0  0  0  0  0  0  0  0  0
   10.7127  -14.6648  -18.0886 C   0  0  0  0  0  0  0  0  0  0  0  0
   11.8754  -14.3142  -17.7902 O   0  0  0  0  0  0  0  0  0  0  0  0
   10.1677  -14.4094  -19.2869 N   0  0  0  0  0  0  0  0  0  0  0  0
   10.8159  -13.7069  -20.3992 C   0  0  0  0  0  0  0  0  0  0  0  0
    8.9316  -14.9221  -19.2519 C   0  0  0  0  0  0  0  0  0  0  0  0
    7.9162  -14.9585  -20.1952 C   0  0  0  0  0  0  0  0  0  0  0  0
    6.7216  -15.5666  -19.8790 C   0  0  0  0  0  0  0  0  0  0  0  0
    6.4868  -16.1547  -18.6348 C   0  0  0  0  0  0  0  0  0  0  0  0
    5.2351  -16.7665  -18.3659 N   0  0  0  0  0  0  0  0  0  0  0  0
    5.0625  -17.8344  -17.4358 C   0  0  0  0  0  0  0  0  0  0  0  0
    5.9460  -18.7162  -17.3782 O   0  0  0  0  0  0  0  0  0  0  0  0
    3.8864  -17.9331  -16.5470 C   0  0  0  0  0  0  0  0  0  0  0  0
    3.4428  -19.3759  -16.4885 C   0  0  0  0  0  0  0  0  0  0  0  0
  1  2  2  0
  1  6  1  0
  2  3  1  0
  3  4  2  0
  4  5  1  0
  5  6  2  0
  6  7  1  0
  7  8  2  0
  7 17  1  0
  8  9  1  0
  9 10  1  0
  9 15  2  0
 10 11  2  0
 10 12  1  0
 12 13  2  0
 13 14  1  0
 14 15  1  0
 15 16  1  0
 16 17  2  0
 17 18  1  0
 18 19  2  0
 18 21  1  0
 19 20  1  0
 20 23  2  0
 21 22  2  0
 22 23  1  0
 23 24  1  0
 25 24  1  1
 25 26  1  0
 25 28  1  0
 26 27  1  0
 27 30  1  0
 28 29  1  0
 29 30  1  0
 30 31  1  6
 31 32  1  0
 31 34  1  0
 32 33  2  0
 32 38  1  0
 33 41  1  0
 34 35  2  0
 34 36  1  0
 36 37  1  0
 36 38  1  0
 38 39  2  0
 39 40  1  0
 40 41  2  0
 41 42  1  0
 42 43  1  0
 43 44  2  0
 43 45  1  0
 45 46  1  0
M  CHG  1  25   1
M  END
$$$$
