
     RDKit          3D

 46 52  0  0  0  0  0  0  0  0999 V2000
   15.3163  -16.7812   -8.8608 C   0  0  0  0  0  0  0  0  0  0  0  0
   15.5828  -18.1156   -9.0381 C   0  0  0  0  0  0  0  0  0  0  0  0
   16.0555  -18.5686  -10.2516 C   0  0  0  0  0  0  0  0  0  0  0  0
   16.2455  -17.6443  -11.2590 C   0  0  0  0  0  0  0  0  0  0  0  0
   15.9758  -16.2873  -11.0827 C   0  0  0  0  0  0  0  0  0  0  0  0
   15.5093  -15.8603   -9.8758 C   0  0  0  0  0  0  0  0  0  0  0  0
   15.1923  -14.4585   -9.5822 C   0  0  0  0  0  0  0  0  0  0  0  0
   15.7567  -13.8631   -8.4758 C   0  0  0  0  0  0  0  0  0  0  0  0
   15.4221  -12.5228   -8.2414 C   0  0  0  0  0  0  0  0  0  0  0  0
   15.9607  -11.8046   -7.1061 C   0  0  0  0  0  0  0  0  0  0  0  0
   16.7469  -12.4613   -6.3462 O   0  0  0  0  0  0  0  0  0  0  0  0
   15.6288  -10.4587   -6.8644 N   0  0  0  0  0  0  0  0  0  0  0  0
   14.8369   -9.8356   -7.6503 C   0  0  0  0  0  0  0  0  0  0  0  0
   14.2146  -10.4307   -8.8391 C   0  0  0  0  0  0  0  0  0  0  0  0
   14.5725  -11.8391   -9.0762 C   0  0  0  0  0  0  0  0  0  0  0  0
   14.0564  -12.5083  -10.1533 N   0  0  0  0  0  0  0  0  0  0  0  0
   14.3327  -13.7716  -10.4290 C   0  0  0  0  0  0  0  0  0  0  0  0
   13.7765  -14.4864  -11.5831 C   0  0  0  0  0  0  0  0  0  0  0  0
   13.0118  -15.6271  -11.4678 C   0  0  0  0  0  0  0  0  0  0  0  0
   12.5006  -16.2769  -12.5918 C   0  0  0  0  0  0  0  0  0  0  0  0
   14.0170  -14.0113  -12.8548 C   0  0  0  0  0  0  0  0  0  0  0  0
   13.5110  -14.6545  -13.9651 C   0  0  0  0  0  0  0  0  0  0  0  0
   12.7414  -15.8012  -13.8640 C   0  0  0  0  0  0  0  0  0  0  0  0
   12.2009  -16.4804  -15.0723 C   0  0  0  0  0  0  0  0  0  0  0  0
   11.2791  -15.6465  -15.8247 N   0  0  1  0  0  4  0  0  0  0  0  0
   10.5714  -16.5372  -16.7193 C   0  0  0  0  0  0  0  0  0  0  0  0
    9.1684  -16.8141  -16.1791 C   0  0  0  0  0  0  0  0  0  0  0  0
   10.4603  -14.9384  -14.9111 C   0  0  0  0  0  0  0  0  0  0  0  0
    9.1104  -14.5118  -15.4050 C   0  0  0  0  0  0  0  0  0  0  0  0
    8.4287  -15.4740  -16.3085 C   0  0  1  0  0  0  0  0  0  0  0  0
    8.3281  -15.0775  -17.6769 N   0  0  0  0  0  0  0  0  0  0  0  0
    7.3385  -14.2586  -18.1332 C   0  0  0  0  0  0  0  0  0  0  0  0
    6.2606  -13.6352  -17.4943 C   0  0  0  0  0  0  0  0  0  0  0  0
    9.0677  -15.3568  -18.7468 C   0  0  0  0  0  0  0  0  0  0  0  0
   10.0833  -16.0864  -18.7487 O   0  0  0  0  0  0  0  0  0  0  0  0
    8.6047  -14.7625  -19.8561 N   0  0  0  0  0  0  0  0  0  0  0  0
    9.1867  -14.8644  -21.1984 C   0  0  0  0  0  0  0  0  0  0  0  0
    7.5205  -14.0708  -19.4845 C   0  0  0  0  0  0  0  0  0  0  0  0
    6.6412  -13.2715  -20.1987 C   0  0  0  0  0  0  0  0  0  0  0  0
    5.5894  -12.6709  -19.5432 C   0  0  0  0  0  0  0  0  0  0  0  0
    5.3682  -12.8345  -18.1745 C   0  0  0  0  0  0  0  0  0  0  0  0
    4.2673  -12.1899  -17.5533 N   0  0  0  0  0  0  0  0  0  0  0  0
    3.5380  -12.7498  -16.4625 C   0  0  0  0  0  0  0  0  0  0  0  0
    3.8032  -13.9199  -16.1132 O   0  0  0  0  0  0  0  0  0  0  0  0
    2.4900  -12.0013  -15.7384 C   0  0  0  0  0  0  0  0  0  0  0  0
    1.9461  -12.8755  -14.6331 C   0  0  0  0  0  0  0  0  0  0  0  0
  1  2  2  0
  1  6  1  0
  2  3  1  0
  3  4  2  0
  4  5  1  0
  5  6  2  0
  6  7  1  0
  7  8  2  0
  7 17  1  0
  8  9  1  0
  9 10  1  0
  9 15  2  0
 10 11  2  0
 10 12  1  0
 12 13  2  0
 13 14  1  0
 14 15  1  0
 15 16  1  0
 16 17  2  0
 17 18  1  0
 18 19  2  0
 18 21  1  0
 19 20  1  0
 20 23  2  0
 21 22  2  0
 22 23  1  0
 23 24  1  0
 25 24  1  1
 25 26  1  0
 25 28  1  0
 26 27  1  0
 27 30  1  0
 28 29  1  0
 29 30  1  0
 30 31  1  6
 31 32  1  0
 31 34  1  0
 32 33  2  0
 32 38  1  0
 33 41  1  0
 34 35  2  0
 34 36  1  0
 36 37  1  0
 36 38  1  0
 38 39  2  0
 39 40  1  0
 40 41  2  0
 41 42  1  0
 42 43  1  0
 43 44  2  0
 43 45  1  0
 45 46  1  0
M  CHG  1  25   1
M  END
$$$$
