
     RDKit          3D

 46 52  0  0  0  0  0  0  0  0999 V2000
   13.5914  -14.6368   -9.9207 C   0  0  0  0  0  0  0  0  0  0  0  0
   13.1422  -15.6012  -10.7917 C   0  0  0  0  0  0  0  0  0  0  0  0
   13.7723  -15.7579  -12.0065 C   0  0  0  0  0  0  0  0  0  0  0  0
   14.8368  -14.9422  -12.3143 C   0  0  0  0  0  0  0  0  0  0  0  0
   15.2756  -13.9788  -11.4289 C   0  0  0  0  0  0  0  0  0  0  0  0
   14.6502  -13.8065  -10.1965 C   0  0  0  0  0  0  0  0  0  0  0  0
   15.1561  -12.7726   -9.3049 C   0  0  0  0  0  0  0  0  0  0  0  0
   14.6495  -11.4697   -9.3846 C   0  0  0  0  0  0  0  0  0  0  0  0
   15.1690  -10.5331   -8.5239 C   0  0  0  0  0  0  0  0  0  0  0  0
   14.6435   -9.1613   -8.6014 C   0  0  0  0  0  0  0  0  0  0  0  0
   13.7466   -8.9028   -9.4436 O   0  0  0  0  0  0  0  0  0  0  0  0
   15.1858   -8.2100   -7.7142 N   0  0  0  0  0  0  0  0  0  0  0  0
   16.1039   -8.4946   -6.8591 C   0  0  0  0  0  0  0  0  0  0  0  0
   16.7064   -9.8198   -6.6864 C   0  0  0  0  0  0  0  0  0  0  0  0
   16.1438  -10.8246   -7.6111 C   0  0  0  0  0  0  0  0  0  0  0  0
   16.5857  -12.0949   -7.5871 N   0  0  0  0  0  0  0  0  0  0  0  0
   16.1352  -13.0749   -8.3909 C   0  0  0  0  0  0  0  0  0  0  0  0
   16.6651  -14.4426   -8.3108 C   0  0  0  0  0  0  0  0  0  0  0  0
   17.0777  -15.1679   -9.4036 C   0  0  0  0  0  0  0  0  0  0  0  0
   17.5825  -16.4495   -9.2975 C   0  0  0  0  0  0  0  0  0  0  0  0
   16.7839  -15.0780   -7.0766 C   0  0  0  0  0  0  0  0  0  0  0  0
   17.2875  -16.3578   -6.9730 C   0  0  0  0  0  0  0  0  0  0  0  0
   17.7012  -17.0801   -8.0758 C   0  0  0  0  0  0  0  0  0  0  0  0
   18.2455  -18.4607   -7.9461 C   0  0  0  0  0  0  0  0  0  0  0  0
   18.3058  -19.1569   -9.2177 N   0  0  1  0  0  4  0  0  0  0  0  0
   19.2426  -20.2233   -9.1274 C   0  0  0  0  0  0  0  0  0  0  0  0
   18.6271  -21.5574   -9.5853 C   0  0  0  0  0  0  0  0  0  0  0  0
   16.9720  -19.5581   -9.5720 C   0  0  0  0  0  0  0  0  0  0  0  0
   16.4286  -20.7610   -8.9062 C   0  0  0  0  0  0  0  0  0  0  0  0
   17.4804  -21.7620   -8.6142 C   0  0  1  0  0  0  0  0  0  0  0  0
   17.0646  -23.1268   -8.5227 N   0  0  0  0  0  0  0  0  0  0  0  0
   16.7927  -23.9798   -9.5201 C   0  0  0  0  0  0  0  0  0  0  0  0
   16.8097  -23.8542  -10.8907 C   0  0  0  0  0  0  0  0  0  0  0  0
   16.8651  -23.8528   -7.3815 C   0  0  0  0  0  0  0  0  0  0  0  0
   17.0224  -23.3899   -6.2119 O   0  0  0  0  0  0  0  0  0  0  0  0
   16.4894  -25.0916   -7.6544 N   0  0  0  0  0  0  0  0  0  0  0  0
   16.1818  -26.1694   -6.7346 C   0  0  0  0  0  0  0  0  0  0  0  0
   16.4361  -25.1994   -8.9808 C   0  0  0  0  0  0  0  0  0  0  0  0
   16.1073  -26.2591   -9.7976 C   0  0  0  0  0  0  0  0  0  0  0  0
   16.1330  -26.1061  -11.1672 C   0  0  0  0  0  0  0  0  0  0  0  0
   16.4855  -24.8982  -11.7308 C   0  0  0  0  0  0  0  0  0  0  0  0
   16.5051  -24.7593  -13.1465 N   0  0  0  0  0  0  0  0  0  0  0  0
   17.0096  -25.8356  -13.9529 C   0  0  0  0  0  0  0  0  0  0  0  0
   17.3768  -26.8797  -13.3778 O   0  0  0  0  0  0  0  0  0  0  0  0
   17.1016  -25.7337  -15.4175 C   0  0  0  0  0  0  0  0  0  0  0  0
   17.4515  -27.0883  -15.9816 C   0  0  0  0  0  0  0  0  0  0  0  0
  1  2  2  0
  1  6  1  0
  2  3  1  0
  3  4  2  0
  4  5  1  0
  5  6  2  0
  6  7  1  0
  7  8  2  0
  7 17  1  0
  8  9  1  0
  9 10  1  0
  9 15  2  0
 10 11  2  0
 10 12  1  0
 12 13  2  0
 14 13  1  1
 14 15  1  0
 15 16  1  0
 16 17  2  0
 17 18  1  0
 18 19  2  0
 18 21  1  0
 19 20  1  0
 20 23  2  0
 21 22  2  0
 22 23  1  0
 24 23  1  1
 25 24  1  1
 26 25  1  1
 28 25  1  1
 27 26  1  1
 27 30  1  0
 29 28  1  1
 29 30  1  0
 30 31  1  6
 31 32  1  0
 31 34  1  0
 32 33  2  0
 32 38  1  0
 33 41  1  0
 34 35  2  0
 34 36  1  0
 37 36  1  6
 36 38  1  0
 38 39  2  0
 39 40  1  0
 40 41  2  0
 41 42  1  0
 42 43  1  0
 43 44  2  0
 45 43  1  1
 46 45  1  6
M  CHG  1  25   1
M  END
$$$$
