
     RDKit          3D

 46 52  0  0  0  0  0  0  0  0999 V2000
   14.9679  -11.5179   -8.0403 C   0  0  0  0  0  0  0  0  0  0  0  0
   14.5565  -10.2847   -8.4882 C   0  0  0  0  0  0  0  0  0  0  0  0
   14.9119   -9.8751   -9.7543 C   0  0  0  0  0  0  0  0  0  0  0  0
   15.6708  -10.7146  -10.5371 C   0  0  0  0  0  0  0  0  0  0  0  0
   16.0756  -11.9496  -10.0727 C   0  0  0  0  0  0  0  0  0  0  0  0
   15.7254  -12.3797   -8.7952 C   0  0  0  0  0  0  0  0  0  0  0  0
   16.1834  -13.6913   -8.3594 C   0  0  0  0  0  0  0  0  0  0  0  0
   16.7776  -13.8431   -7.1007 C   0  0  0  0  0  0  0  0  0  0  0  0
   17.1977  -15.1021   -6.7449 C   0  0  0  0  0  0  0  0  0  0  0  0
   17.8243  -15.2707   -5.4248 C   0  0  0  0  0  0  0  0  0  0  0  0
   17.9483  -14.2653   -4.6802 O   0  0  0  0  0  0  0  0  0  0  0  0
   18.2520  -16.5666   -5.0728 N   0  0  0  0  0  0  0  0  0  0  0  0
   18.1161  -17.5831   -5.8495 C   0  0  0  0  0  0  0  0  0  0  0  0
   17.5103  -17.5430   -7.1839 C   0  0  0  0  0  0  0  0  0  0  0  0
   17.0576  -16.1890   -7.5619 C   0  0  0  0  0  0  0  0  0  0  0  0
   16.4784  -15.9737   -8.7567 N   0  0  0  0  0  0  0  0  0  0  0  0
   16.0381  -14.7775   -9.1867 C   0  0  0  0  0  0  0  0  0  0  0  0
   15.4151  -14.6144  -10.5070 C   0  0  0  0  0  0  0  0  0  0  0  0
   14.2734  -13.8809  -10.7282 C   0  0  0  0  0  0  0  0  0  0  0  0
   13.7149  -13.7355  -11.9835 C   0  0  0  0  0  0  0  0  0  0  0  0
   15.9842  -15.2110  -11.6300 C   0  0  0  0  0  0  0  0  0  0  0  0
   15.4247  -15.0651  -12.8822 C   0  0  0  0  0  0  0  0  0  0  0  0
   14.2775  -14.3254  -13.0969 C   0  0  0  0  0  0  0  0  0  0  0  0
   13.6877  -14.1756  -14.4565 C   0  0  0  0  0  0  0  0  0  0  0  0
   12.2422  -14.3010  -14.4531 N   0  0  1  0  0  4  0  0  0  0  0  0
   11.7299  -13.8861  -15.7134 C   0  0  0  0  0  0  0  0  0  0  0  0
   10.8010  -14.9501  -16.3245 C   0  0  0  0  0  0  0  0  0  0  0  0
   11.9108  -15.6502  -14.0851 C   0  0  0  0  0  0  0  0  0  0  0  0
   12.0271  -16.6850  -15.1346 C   0  0  0  0  0  0  0  0  0  0  0  0
   11.7087  -16.1549  -16.4805 C   0  0  1  0  0  0  0  0  0  0  0  0
   11.2282  -17.0931  -17.4463 N   0  0  0  0  0  0  0  0  0  0  0  0
    9.9596  -17.3481  -17.7954 C   0  0  0  0  0  0  0  0  0  0  0  0
    8.7520  -16.8385  -17.3751 C   0  0  0  0  0  0  0  0  0  0  0  0
   11.9774  -17.9277  -18.2281 C   0  0  0  0  0  0  0  0  0  0  0  0
   13.2433  -17.9846  -18.1916 O   0  0  0  0  0  0  0  0  0  0  0  0
   11.2155  -18.6625  -19.0217 N   0  0  0  0  0  0  0  0  0  0  0  0
   11.6162  -19.6604  -19.9944 C   0  0  0  0  0  0  0  0  0  0  0  0
    9.9521  -18.3220  -18.7736 C   0  0  0  0  0  0  0  0  0  0  0  0
    8.7645  -18.7679  -19.3114 C   0  0  0  0  0  0  0  0  0  0  0  0
    7.5692  -18.2401  -18.8724 C   0  0  0  0  0  0  0  0  0  0  0  0
    7.5495  -17.2666  -17.8963 C   0  0  0  0  0  0  0  0  0  0  0  0
    6.3059  -16.7348  -17.4554 N   0  0  0  0  0  0  0  0  0  0  0  0
    6.2561  -15.3957  -16.9384 C   0  0  0  0  0  0  0  0  0  0  0  0
    7.3346  -14.8048  -16.7302 O   0  0  0  0  0  0  0  0  0  0  0  0
    4.9817  -14.7184  -16.6532 C   0  0  0  0  0  0  0  0  0  0  0  0
    5.2509  -13.2565  -16.3963 C   0  0  0  0  0  0  0  0  0  0  0  0
  1  2  2  0
  1  6  1  0
  2  3  1  0
  3  4  2  0
  4  5  1  0
  5  6  2  0
  6  7  1  0
  7  8  2  0
  7 17  1  0
  8  9  1  0
  9 10  1  0
  9 15  2  0
 10 11  2  0
 10 12  1  0
 12 13  2  0
 14 13  1  1
 14 15  1  0
 15 16  1  0
 16 17  2  0
 17 18  1  0
 18 19  2  0
 18 21  1  0
 19 20  1  0
 20 23  2  0
 21 22  2  0
 22 23  1  0
 24 23  1  1
 25 24  1  6
 26 25  1  1
 28 25  1  1
 27 26  1  1
 27 30  1  0
 29 28  1  1
 29 30  1  0
 30 31  1  6
 31 32  1  0
 31 34  1  0
 32 33  2  0
 32 38  1  0
 33 41  1  0
 34 35  2  0
 34 36  1  0
 37 36  1  6
 36 38  1  0
 38 39  2  0
 39 40  1  0
 40 41  2  0
 41 42  1  0
 42 43  1  0
 43 44  2  0
 45 43  1  1
 46 45  1  6
M  CHG  1  25   1
M  END
$$$$
