
     RDKit          3D

 46 52  0  0  0  0  0  0  0  0999 V2000
   15.7066  -16.7781   -9.8539 C   0  0  0  0  0  0  0  0  0  0  0  0
   15.7018  -18.0196  -10.4448 C   0  0  0  0  0  0  0  0  0  0  0  0
   15.6235  -18.1122  -11.8169 C   0  0  0  0  0  0  0  0  0  0  0  0
   15.5523  -16.9558  -12.5591 C   0  0  0  0  0  0  0  0  0  0  0  0
   15.5583  -15.7171  -11.9506 C   0  0  0  0  0  0  0  0  0  0  0  0
   15.6367  -15.6049  -10.5647 C   0  0  0  0  0  0  0  0  0  0  0  0
   15.6368  -14.2717   -9.9795 C   0  0  0  0  0  0  0  0  0  0  0  0
   16.6240  -13.9134   -9.0534 C   0  0  0  0  0  0  0  0  0  0  0  0
   16.5707  -12.6448   -8.5280 C   0  0  0  0  0  0  0  0  0  0  0  0
   17.6030  -12.2601   -7.5533 C   0  0  0  0  0  0  0  0  0  0  0  0
   18.4865  -13.0992   -7.2434 O   0  0  0  0  0  0  0  0  0  0  0  0
   17.5361  -10.9569   -7.0209 N   0  0  0  0  0  0  0  0  0  0  0  0
   16.6233  -10.1125   -7.3510 C   0  0  0  0  0  0  0  0  0  0  0  0
   15.5441  -10.3763   -8.3073 C   0  0  0  0  0  0  0  0  0  0  0  0
   15.6060  -11.7396   -8.8721 C   0  0  0  0  0  0  0  0  0  0  0  0
   14.6885  -12.1481   -9.7669 N   0  0  0  0  0  0  0  0  0  0  0  0
   14.6640  -13.3689  -10.3315 C   0  0  0  0  0  0  0  0  0  0  0  0
   13.6294  -13.7486  -11.3026 C   0  0  0  0  0  0  0  0  0  0  0  0
   12.6951  -14.7323  -11.0791 C   0  0  0  0  0  0  0  0  0  0  0  0
   11.7258  -15.0614  -12.0069 C   0  0  0  0  0  0  0  0  0  0  0  0
   13.5454  -13.0950  -12.5302 C   0  0  0  0  0  0  0  0  0  0  0  0
   12.5773  -13.4256  -13.4553 C   0  0  0  0  0  0  0  0  0  0  0  0
   11.6410  -14.4148  -13.2230 C   0  0  0  0  0  0  0  0  0  0  0  0
   10.6001  -14.7576  -14.2319 C   0  0  0  0  0  0  0  0  0  0  0  0
   11.1694  -15.1589  -15.5048 N   0  0  1  0  0  4  0  0  0  0  0  0
   10.5788  -16.3843  -15.9201 C   0  0  0  0  0  0  0  0  0  0  0  0
   10.0285  -16.2897  -17.3542 C   0  0  0  0  0  0  0  0  0  0  0  0
   11.0084  -14.0710  -16.4300 C   0  0  0  0  0  0  0  0  0  0  0  0
    9.6758  -13.9000  -17.0470 C   0  0  0  0  0  0  0  0  0  0  0  0
    8.9850  -15.1938  -17.2539 C   0  0  1  0  0  0  0  0  0  0  0  0
    8.0176  -15.2478  -18.3050 N   0  0  0  0  0  0  0  0  0  0  0  0
    8.0861  -15.9214  -19.4618 C   0  0  0  0  0  0  0  0  0  0  0  0
    9.0460  -16.7388  -20.0141 C   0  0  0  0  0  0  0  0  0  0  0  0
    6.8034  -14.6204  -18.3407 C   0  0  0  0  0  0  0  0  0  0  0  0
    6.3645  -13.8755  -17.4136 O   0  0  0  0  0  0  0  0  0  0  0  0
    6.1512  -14.8896  -19.4598 N   0  0  0  0  0  0  0  0  0  0  0  0
    4.8435  -14.4260  -19.8812 C   0  0  0  0  0  0  0  0  0  0  0  0
    6.9273  -15.6992  -20.1780 C   0  0  0  0  0  0  0  0  0  0  0  0
    6.7418  -16.2828  -21.4122 C   0  0  0  0  0  0  0  0  0  0  0  0
    7.7194  -17.0976  -21.9419 C   0  0  0  0  0  0  0  0  0  0  0  0
    8.8860  -17.3354  -21.2467 C   0  0  0  0  0  0  0  0  0  0  0  0
    9.8838  -18.1783  -21.8104 N   0  0  0  0  0  0  0  0  0  0  0  0
   11.1272  -18.3603  -21.1148 C   0  0  0  0  0  0  0  0  0  0  0  0
   11.1770  -18.0502  -19.9077 O   0  0  0  0  0  0  0  0  0  0  0  0
   12.3228  -18.8946  -21.7849 C   0  0  0  0  0  0  0  0  0  0  0  0
   13.3294  -19.3030  -20.7382 C   0  0  0  0  0  0  0  0  0  0  0  0
  1  2  2  0
  1  6  1  0
  2  3  1  0
  3  4  2  0
  4  5  1  0
  5  6  2  0
  6  7  1  0
  7  8  2  0
  7 17  1  0
  8  9  1  0
  9 10  1  0
  9 15  2  0
 10 11  2  0
 10 12  1  0
 12 13  2  0
 14 13  1  1
 14 15  1  0
 15 16  1  0
 16 17  2  0
 17 18  1  0
 18 19  2  0
 18 21  1  0
 19 20  1  0
 20 23  2  0
 21 22  2  0
 22 23  1  0
 24 23  1  1
 25 24  1  1
 26 25  1  1
 28 25  1  1
 27 26  1  1
 27 30  1  0
 29 28  1  1
 29 30  1  0
 30 31  1  6
 31 32  1  0
 31 34  1  0
 32 33  2  0
 32 38  1  0
 33 41  1  0
 34 35  2  0
 34 36  1  0
 37 36  1  6
 36 38  1  0
 38 39  2  0
 39 40  1  0
 40 41  2  0
 41 42  1  0
 42 43  1  0
 43 44  2  0
 45 43  1  1
 46 45  1  6
M  CHG  1  25   1
M  END
$$$$
