
     RDKit          3D

 46 52  0  0  0  0  0  0  0  0999 V2000
   17.5597  -15.4555   -9.6633 C   0  0  0  0  0  0  0  0  0  0  0  0
   18.0718  -16.4219  -10.4921 C   0  0  0  0  0  0  0  0  0  0  0  0
   17.2215  -17.2225  -11.2249 C   0  0  0  0  0  0  0  0  0  0  0  0
   15.8630  -17.0163  -11.0932 C   0  0  0  0  0  0  0  0  0  0  0  0
   15.3387  -16.0352  -10.2519 C   0  0  0  0  0  0  0  0  0  0  0  0
   16.1962  -15.2547   -9.5364 C   0  0  0  0  0  0  0  0  0  0  0  0
   15.7538  -14.1961   -8.6224 C   0  0  0  0  0  0  0  0  0  0  0  0
   16.2006  -14.2080   -7.3196 C   0  0  0  0  0  0  0  0  0  0  0  0
   15.7490  -13.1740   -6.4887 C   0  0  0  0  0  0  0  0  0  0  0  0
   16.1587  -13.0946   -5.1028 C   0  0  0  0  0  0  0  0  0  0  0  0
   16.9449  -14.0125   -4.6950 O   0  0  0  0  0  0  0  0  0  0  0  0
   15.7091  -12.0594   -4.2626 N   0  0  0  0  0  0  0  0  0  0  0  0
   14.9215  -11.1579   -4.7100 C   0  0  0  0  0  0  0  0  0  0  0  0
   14.4222  -11.1070   -6.0894 C   0  0  0  0  0  0  0  0  0  0  0  0
   14.9023  -12.1978   -6.9540 C   0  0  0  0  0  0  0  0  0  0  0  0
   14.5075  -12.2628   -8.2633 N   0  0  0  0  0  0  0  0  0  0  0  0
   14.8977  -13.2116   -9.0974 C   0  0  0  0  0  0  0  0  0  0  0  0
   14.4713  -13.2793  -10.4995 C   0  0  0  0  0  0  0  0  0  0  0  0
   15.3249  -13.0637  -11.5596 C   0  0  0  0  0  0  0  0  0  0  0  0
   14.8790  -13.1383  -12.8797 C   0  0  0  0  0  0  0  0  0  0  0  0
   13.1567  -13.5722  -10.7947 C   0  0  0  0  0  0  0  0  0  0  0  0
   12.7171  -13.6457  -12.1000 C   0  0  0  0  0  0  0  0  0  0  0  0
   13.5637  -13.4314  -13.1746 C   0  0  0  0  0  0  0  0  0  0  0  0
   13.0732  -13.5179  -14.5765 C   0  0  0  0  0  0  0  0  0  0  0  0
   12.6534  -14.8587  -14.9468 N   0  0  1  0  0  4  0  0  0  0  0  0
   12.2180  -14.7764  -16.3245 C   0  0  0  0  0  0  0  0  0  0  0  0
   13.2942  -15.3477  -17.2476 C   0  0  0  0  0  0  0  0  0  0  0  0
   13.7273  -15.7513  -14.7090 C   0  0  0  0  0  0  0  0  0  0  0  0
   13.7584  -17.0042  -15.5319 C   0  0  0  0  0  0  0  0  0  0  0  0
   13.3129  -16.8528  -16.9410 C   0  0  1  0  0  0  0  0  0  0  0  0
   12.0586  -17.4544  -17.2644 N   0  0  0  0  0  0  0  0  0  0  0  0
   11.8943  -18.8043  -17.3591 C   0  0  0  0  0  0  0  0  0  0  0  0
   12.7787  -19.8761  -17.1923 C   0  0  0  0  0  0  0  0  0  0  0  0
   10.8607  -16.9401  -17.5296 C   0  0  0  0  0  0  0  0  0  0  0  0
   10.5892  -15.7195  -17.5445 O   0  0  0  0  0  0  0  0  0  0  0  0
    9.9454  -17.8856  -17.7873 N   0  0  0  0  0  0  0  0  0  0  0  0
    8.5345  -17.6562  -18.1153 C   0  0  0  0  0  0  0  0  0  0  0  0
   10.5812  -19.0590  -17.6836 C   0  0  0  0  0  0  0  0  0  0  0  0
   10.1465  -20.3659  -17.8420 C   0  0  0  0  0  0  0  0  0  0  0  0
   11.0396  -21.4004  -17.6717 C   0  0  0  0  0  0  0  0  0  0  0  0
   12.3794  -21.1868  -17.3425 C   0  0  0  0  0  0  0  0  0  0  0  0
   13.2532  -22.2927  -17.1792 N   0  0  0  0  0  0  0  0  0  0  0  0
   12.8378  -23.6518  -17.3042 C   0  0  0  0  0  0  0  0  0  0  0  0
   11.6547  -23.8798  -17.6353 O   0  0  0  0  0  0  0  0  0  0  0  0
   13.7492  -24.7882  -17.0579 C   0  0  0  0  0  0  0  0  0  0  0  0
   13.0066  -26.0740  -17.3355 C   0  0  0  0  0  0  0  0  0  0  0  0
  1  2  2  0
  1  6  1  0
  2  3  1  0
  3  4  2  0
  4  5  1  0
  5  6  2  0
  6  7  1  0
  7  8  2  0
  7 17  1  0
  8  9  1  0
  9 10  1  0
  9 15  2  0
 10 11  2  0
 10 12  1  0
 12 13  2  0
 13 14  1  0
 14 15  1  0
 15 16  1  0
 16 17  2  0
 17 18  1  0
 18 19  2  0
 18 21  1  0
 19 20  1  0
 20 23  2  0
 21 22  2  0
 22 23  1  0
 23 24  1  0
 25 24  1  6
 25 26  1  0
 25 28  1  0
 26 27  1  0
 27 30  1  0
 28 29  1  0
 29 30  1  0
 30 31  1  1
 31 32  1  0
 31 34  1  0
 32 33  2  0
 32 38  1  0
 33 41  1  0
 34 35  2  0
 34 36  1  0
 36 37  1  0
 36 38  1  0
 38 39  2  0
 39 40  1  0
 40 41  2  0
 41 42  1  0
 42 43  1  0
 43 44  2  0
 43 45  1  0
 45 46  1  0
M  CHG  1  25   1
M  END
$$$$
