
     RDKit          3D

 46 52  0  0  0  0  0  0  0  0999 V2000
   14.8463  -16.4634   -8.3115 C   0  0  0  0  0  0  0  0  0  0  0  0
   14.7463  -17.8309   -8.3666 C   0  0  0  0  0  0  0  0  0  0  0  0
   15.8405  -18.5877   -8.7287 C   0  0  0  0  0  0  0  0  0  0  0  0
   17.0153  -17.9273   -9.0271 C   0  0  0  0  0  0  0  0  0  0  0  0
   17.1207  -16.5376   -8.9722 C   0  0  0  0  0  0  0  0  0  0  0  0
   16.0277  -15.8082   -8.6121 C   0  0  0  0  0  0  0  0  0  0  0  0
   16.0269  -14.3441   -8.5235 C   0  0  0  0  0  0  0  0  0  0  0  0
   16.8813  -13.7276   -7.6363 C   0  0  0  0  0  0  0  0  0  0  0  0
   16.8416  -12.3277   -7.5919 C   0  0  0  0  0  0  0  0  0  0  0  0
   17.6985  -11.5829   -6.6941 C   0  0  0  0  0  0  0  0  0  0  0  0
   18.4790  -12.2735   -5.9588 O   0  0  0  0  0  0  0  0  0  0  0  0
   17.6638  -10.1771   -6.6439 N   0  0  0  0  0  0  0  0  0  0  0  0
   16.8670   -9.5215   -7.3977 C   0  0  0  0  0  0  0  0  0  0  0  0
   15.9416  -10.1373   -8.3564 C   0  0  0  0  0  0  0  0  0  0  0  0
   15.9910  -11.6083   -8.3951 C   0  0  0  0  0  0  0  0  0  0  0  0
   15.1753  -12.3021   -9.2482 N   0  0  0  0  0  0  0  0  0  0  0  0
   15.1651  -13.6212   -9.3375 C   0  0  0  0  0  0  0  0  0  0  0  0
   14.2883  -14.3617  -10.2514 C   0  0  0  0  0  0  0  0  0  0  0  0
   14.7559  -15.0770  -11.3325 C   0  0  0  0  0  0  0  0  0  0  0  0
   13.8876  -15.7689  -12.1777 C   0  0  0  0  0  0  0  0  0  0  0  0
   12.9263  -14.3563  -10.0372 C   0  0  0  0  0  0  0  0  0  0  0  0
   12.0690  -15.0406  -10.8734 C   0  0  0  0  0  0  0  0  0  0  0  0
   12.5250  -15.7633  -11.9630 C   0  0  0  0  0  0  0  0  0  0  0  0
   11.5863  -16.4983  -12.8528 C   0  0  0  0  0  0  0  0  0  0  0  0
   11.9552  -16.4152  -14.2558 N   0  0  1  0  0  4  0  0  0  0  0  0
   11.0401  -17.2850  -14.9632 C   0  0  0  0  0  0  0  0  0  0  0  0
    9.9656  -16.4538  -15.6642 C   0  0  0  0  0  0  0  0  0  0  0  0
   11.9200  -15.0561  -14.6535 C   0  0  0  0  0  0  0  0  0  0  0  0
   11.6743  -14.7844  -16.1073 C   0  0  0  0  0  0  0  0  0  0  0  0
   10.7156  -15.7023  -16.7744 C   0  0  1  0  0  0  0  0  0  0  0  0
   11.2815  -16.6157  -17.7153 N   0  0  0  0  0  0  0  0  0  0  0  0
   10.5661  -17.1416  -18.7496 C   0  0  0  0  0  0  0  0  0  0  0  0
    9.2380  -16.9755  -19.1585 C   0  0  0  0  0  0  0  0  0  0  0  0
   12.4981  -17.1410  -17.8329 C   0  0  0  0  0  0  0  0  0  0  0  0
   13.4596  -16.9073  -17.0682 O   0  0  0  0  0  0  0  0  0  0  0  0
   12.5963  -17.9701  -18.8822 N   0  0  0  0  0  0  0  0  0  0  0  0
   13.7955  -18.7091  -19.2905 C   0  0  0  0  0  0  0  0  0  0  0  0
   11.3913  -17.9791  -19.4652 C   0  0  0  0  0  0  0  0  0  0  0  0
   10.9051  -18.6478  -20.5781 C   0  0  0  0  0  0  0  0  0  0  0  0
    9.5936  -18.4649  -20.9568 C   0  0  0  0  0  0  0  0  0  0  0  0
    8.7229  -17.6251  -20.2598 C   0  0  0  0  0  0  0  0  0  0  0  0
    7.3815  -17.4756  -20.6976 N   0  0  0  0  0  0  0  0  0  0  0  0
    6.4245  -16.6470  -20.0398 C   0  0  0  0  0  0  0  0  0  0  0  0
    6.7840  -16.0278  -19.0157 O   0  0  0  0  0  0  0  0  0  0  0  0
    5.0363  -16.4970  -20.5228 C   0  0  0  0  0  0  0  0  0  0  0  0
    4.2582  -15.6830  -19.5160 C   0  0  0  0  0  0  0  0  0  0  0  0
  1  2  2  0
  1  6  1  0
  2  3  1  0
  3  4  2  0
  4  5  1  0
  5  6  2  0
  6  7  1  0
  7  8  2  0
  7 17  1  0
  8  9  1  0
  9 10  1  0
  9 15  2  0
 10 11  2  0
 10 12  1  0
 12 13  2  0
 13 14  1  0
 14 15  1  0
 15 16  1  0
 16 17  2  0
 17 18  1  0
 18 19  2  0
 18 21  1  0
 19 20  1  0
 20 23  2  0
 21 22  2  0
 22 23  1  0
 23 24  1  0
 25 24  1  1
 25 26  1  0
 25 28  1  0
 26 27  1  0
 27 30  1  0
 28 29  1  0
 29 30  1  0
 30 31  1  6
 31 32  1  0
 31 34  1  0
 32 33  2  0
 32 38  1  0
 33 41  1  0
 34 35  2  0
 34 36  1  0
 36 37  1  0
 36 38  1  0
 38 39  2  0
 39 40  1  0
 40 41  2  0
 41 42  1  0
 42 43  1  0
 43 44  2  0
 43 45  1  0
 45 46  1  0
M  CHG  1  25   1
M  END
$$$$
