
     RDKit          3D

 46 52  0  0  0  0  0  0  0  0999 V2000
   15.9322  -10.8650  -11.6848 C   0  0  0  0  0  0  0  0  0  0  0  0
   16.3963  -10.5949  -12.9506 C   0  0  0  0  0  0  0  0  0  0  0  0
   16.7037  -11.6407  -13.7927 C   0  0  0  0  0  0  0  0  0  0  0  0
   16.5368  -12.9298  -13.3415 C   0  0  0  0  0  0  0  0  0  0  0  0
   16.0698  -13.1841  -12.0680 C   0  0  0  0  0  0  0  0  0  0  0  0
   15.7542  -12.1390  -11.2033 C   0  0  0  0  0  0  0  0  0  0  0  0
   15.2680  -12.4689   -9.8711 C   0  0  0  0  0  0  0  0  0  0  0  0
   15.9112  -11.9478   -8.7419 C   0  0  0  0  0  0  0  0  0  0  0  0
   15.4140  -12.2987   -7.5099 C   0  0  0  0  0  0  0  0  0  0  0  0
   16.0843  -11.7569   -6.3178 C   0  0  0  0  0  0  0  0  0  0  0  0
   17.0760  -10.9997   -6.4720 O   0  0  0  0  0  0  0  0  0  0  0  0
   15.5653  -12.1256   -5.0605 N   0  0  0  0  0  0  0  0  0  0  0  0
   14.5489  -12.9023   -4.9237 C   0  0  0  0  0  0  0  0  0  0  0  0
   13.7990  -13.5037   -6.0306 C   0  0  0  0  0  0  0  0  0  0  0  0
   14.3344  -13.1223   -7.3531 C   0  0  0  0  0  0  0  0  0  0  0  0
   13.7634  -13.5876   -8.4787 N   0  0  0  0  0  0  0  0  0  0  0  0
   14.1827  -13.2969   -9.7235 C   0  0  0  0  0  0  0  0  0  0  0  0
   13.5109  -13.8425  -10.9104 C   0  0  0  0  0  0  0  0  0  0  0  0
   13.2507  -15.1800  -11.0944 C   0  0  0  0  0  0  0  0  0  0  0  0
   12.6071  -15.6643  -12.2168 C   0  0  0  0  0  0  0  0  0  0  0  0
   13.0866  -12.9925  -11.9295 C   0  0  0  0  0  0  0  0  0  0  0  0
   12.4448  -13.4783  -13.0495 C   0  0  0  0  0  0  0  0  0  0  0  0
   12.1858  -14.8238  -13.2269 C   0  0  0  0  0  0  0  0  0  0  0  0
   11.4889  -15.3317  -14.4416 C   0  0  0  0  0  0  0  0  0  0  0  0
   11.2086  -14.2813  -15.4026 N   0  0  1  0  0  4  0  0  0  0  0  0
   10.9261  -14.8639  -16.6689 C   0  0  0  0  0  0  0  0  0  0  0  0
    9.5981  -14.3441  -17.2473 C   0  0  0  0  0  0  0  0  0  0  0  0
   10.1563  -13.4586  -14.8722 C   0  0  0  0  0  0  0  0  0  0  0  0
    8.7745  -13.9717  -14.9863 C   0  0  0  0  0  0  0  0  0  0  0  0
    8.5763  -14.7769  -16.2135 C   0  0  1  0  0  0  0  0  0  0  0  0
    7.2472  -14.8398  -16.7363 N   0  0  0  0  0  0  0  0  0  0  0  0
    6.7324  -14.1697  -17.7766 C   0  0  0  0  0  0  0  0  0  0  0  0
    7.2597  -13.2435  -18.6477 C   0  0  0  0  0  0  0  0  0  0  0  0
    6.2178  -15.6147  -16.2794 C   0  0  0  0  0  0  0  0  0  0  0  0
    6.3102  -16.4030  -15.2908 O   0  0  0  0  0  0  0  0  0  0  0  0
    5.1210  -15.4365  -16.9974 N   0  0  0  0  0  0  0  0  0  0  0  0
    3.8232  -16.0643  -16.8418 C   0  0  0  0  0  0  0  0  0  0  0  0
    5.4127  -14.5407  -17.9387 C   0  0  0  0  0  0  0  0  0  0  0  0
    4.6488  -13.9953  -18.9473 C   0  0  0  0  0  0  0  0  0  0  0  0
    5.2022  -13.0699  -19.8060 C   0  0  0  0  0  0  0  0  0  0  0  0
    6.5179  -12.6824  -19.6654 C   0  0  0  0  0  0  0  0  0  0  0  0
    7.0709  -11.7252  -20.5607 N   0  0  0  0  0  0  0  0  0  0  0  0
    8.4846  -11.4720  -20.5359 C   0  0  0  0  0  0  0  0  0  0  0  0
    9.1625  -12.0072  -19.6361 O   0  0  0  0  0  0  0  0  0  0  0  0
    9.1381  -10.6087  -21.5317 C   0  0  0  0  0  0  0  0  0  0  0  0
    9.8965   -9.5202  -20.8137 C   0  0  0  0  0  0  0  0  0  0  0  0
  1  2  2  0
  1  6  1  0
  2  3  1  0
  3  4  2  0
  4  5  1  0
  5  6  2  0
  6  7  1  0
  7  8  2  0
  7 17  1  0
  8  9  1  0
  9 10  1  0
  9 15  2  0
 10 11  2  0
 10 12  1  0
 12 13  2  0
 14 13  1  1
 14 15  1  0
 15 16  1  0
 16 17  2  0
 17 18  1  0
 18 19  2  0
 18 21  1  0
 19 20  1  0
 20 23  2  0
 21 22  2  0
 22 23  1  0
 24 23  1  1
 25 24  1  1
 26 25  1  1
 28 25  1  1
 27 26  1  1
 27 30  1  0
 29 28  1  1
 29 30  1  0
 30 31  1  6
 31 32  1  0
 31 34  1  0
 32 33  2  0
 32 38  1  0
 33 41  1  0
 34 35  2  0
 34 36  1  0
 37 36  1  6
 36 38  1  0
 38 39  2  0
 39 40  1  0
 40 41  2  0
 41 42  1  0
 42 43  1  0
 43 44  2  0
 45 43  1  1
 46 45  1  6
M  CHG  1  25   1
M  END
$$$$
