
     RDKit          3D

 46 52  0  0  0  0  0  0  0  0999 V2000
   16.1586  -11.9202  -10.4828 C   0  0  0  0  0  0  0  0  0  0  0  0
   15.7607  -10.6236  -10.7086 C   0  0  0  0  0  0  0  0  0  0  0  0
   14.8443  -10.0427   -9.8600 C   0  0  0  0  0  0  0  0  0  0  0  0
   14.3519  -10.7792   -8.8071 C   0  0  0  0  0  0  0  0  0  0  0  0
   14.7616  -12.0798   -8.5941 C   0  0  0  0  0  0  0  0  0  0  0  0
   15.6872  -12.6827   -9.4422 C   0  0  0  0  0  0  0  0  0  0  0  0
   16.0798  -14.0579   -9.1686 C   0  0  0  0  0  0  0  0  0  0  0  0
   17.0222  -14.3317   -8.1699 C   0  0  0  0  0  0  0  0  0  0  0  0
   17.3606  -15.6468   -7.9601 C   0  0  0  0  0  0  0  0  0  0  0  0
   18.3508  -15.9438   -6.9136 C   0  0  0  0  0  0  0  0  0  0  0  0
   18.8429  -14.9911   -6.2573 O   0  0  0  0  0  0  0  0  0  0  0  0
   18.6901  -17.2964   -6.7096 N   0  0  0  0  0  0  0  0  0  0  0  0
   18.1751  -18.2575   -7.3924 C   0  0  0  0  0  0  0  0  0  0  0  0
   17.1824  -18.0900   -8.4580 C   0  0  0  0  0  0  0  0  0  0  0  0
   16.8191  -16.6757   -8.6789 C   0  0  0  0  0  0  0  0  0  0  0  0
   15.9200  -16.3431   -9.6226 N   0  0  0  0  0  0  0  0  0  0  0  0
   15.5302  -15.0849   -9.8956 C   0  0  0  0  0  0  0  0  0  0  0  0
   14.5426  -14.7938  -10.9433 C   0  0  0  0  0  0  0  0  0  0  0  0
   14.8041  -14.8938  -12.2895 C   0  0  0  0  0  0  0  0  0  0  0  0
   13.8520  -14.6239  -13.2535 C   0  0  0  0  0  0  0  0  0  0  0  0
   13.2510  -14.3999  -10.6003 C   0  0  0  0  0  0  0  0  0  0  0  0
   12.3022  -14.1305  -11.5644 C   0  0  0  0  0  0  0  0  0  0  0  0
   12.5722  -14.2341  -12.9155 C   0  0  0  0  0  0  0  0  0  0  0  0
   11.5349  -13.9421  -13.9440 C   0  0  0  0  0  0  0  0  0  0  0  0
   11.9714  -14.2792  -15.2861 N   0  0  1  0  0  4  0  0  0  0  0  0
   11.9800  -15.6934  -15.4378 C   0  0  0  0  0  0  0  0  0  0  0  0
   11.1895  -16.1336  -16.6826 C   0  0  0  0  0  0  0  0  0  0  0  0
   11.1306  -13.5805  -16.2190 C   0  0  0  0  0  0  0  0  0  0  0  0
    9.7916  -14.1502  -16.4801 C   0  0  0  0  0  0  0  0  0  0  0  0
    9.7876  -15.6291  -16.3999 C   0  0  1  0  0  0  0  0  0  0  0  0
    8.7860  -16.3136  -17.1563 N   0  0  0  0  0  0  0  0  0  0  0  0
    8.9546  -17.2543  -18.0960 C   0  0  0  0  0  0  0  0  0  0  0  0
   10.0722  -17.8509  -18.6342 C   0  0  0  0  0  0  0  0  0  0  0  0
    7.4315  -16.1512  -17.0674 C   0  0  0  0  0  0  0  0  0  0  0  0
    6.8669  -15.3364  -16.2771 O   0  0  0  0  0  0  0  0  0  0  0  0
    6.7913  -16.9486  -17.9068 N   0  0  0  0  0  0  0  0  0  0  0  0
    5.3634  -17.0827  -18.1196 C   0  0  0  0  0  0  0  0  0  0  0  0
    7.7162  -17.6486  -18.5613 C   0  0  0  0  0  0  0  0  0  0  0  0
    7.6080  -18.6141  -19.5382 C   0  0  0  0  0  0  0  0  0  0  0  0
    8.7436  -19.1956  -20.0597 C   0  0  0  0  0  0  0  0  0  0  0  0
    9.9923  -18.8194  -19.6123 C   0  0  0  0  0  0  0  0  0  0  0  0
   11.1528  -19.4302  -20.1635 N   0  0  0  0  0  0  0  0  0  0  0  0
   12.4428  -19.1126  -19.6174 C   0  0  0  0  0  0  0  0  0  0  0  0
   12.4983  -18.2975  -18.6749 O   0  0  0  0  0  0  0  0  0  0  0  0
   13.6786  -19.7172  -20.1381 C   0  0  0  0  0  0  0  0  0  0  0  0
   14.8207  -19.3679  -19.2165 C   0  0  0  0  0  0  0  0  0  0  0  0
  1  2  2  0
  1  6  1  0
  2  3  1  0
  3  4  2  0
  4  5  1  0
  5  6  2  0
  6  7  1  0
  7  8  2  0
  7 17  1  0
  8  9  1  0
  9 10  1  0
  9 15  2  0
 10 11  2  0
 10 12  1  0
 12 13  2  0
 14 13  1  1
 14 15  1  0
 15 16  1  0
 16 17  2  0
 17 18  1  0
 18 19  2  0
 18 21  1  0
 19 20  1  0
 20 23  2  0
 21 22  2  0
 22 23  1  0
 24 23  1  1
 25 24  1  1
 26 25  1  1
 28 25  1  1
 27 26  1  1
 27 30  1  0
 29 28  1  1
 29 30  1  0
 30 31  1  6
 31 32  1  0
 31 34  1  0
 32 33  2  0
 32 38  1  0
 33 41  1  0
 34 35  2  0
 34 36  1  0
 37 36  1  6
 36 38  1  0
 38 39  2  0
 39 40  1  0
 40 41  2  0
 41 42  1  0
 42 43  1  0
 43 44  2  0
 45 43  1  1
 46 45  1  6
M  CHG  1  25   1
M  END
$$$$
