
     RDKit          3D

 46 52  0  0  0  0  0  0  0  0999 V2000
   15.6133  -16.0458  -12.3752 C   0  0  0  0  0  0  0  0  0  0  0  0
   15.6342  -17.0652  -13.2978 C   0  0  0  0  0  0  0  0  0  0  0  0
   15.7359  -18.3674  -12.8604 C   0  0  0  0  0  0  0  0  0  0  0  0
   15.8138  -18.6114  -11.5084 C   0  0  0  0  0  0  0  0  0  0  0  0
   15.7915  -17.5769  -10.5953 C   0  0  0  0  0  0  0  0  0  0  0  0
   15.6892  -16.2544  -11.0198 C   0  0  0  0  0  0  0  0  0  0  0  0
   15.6726  -15.2053  -10.0103 C   0  0  0  0  0  0  0  0  0  0  0  0
   16.6695  -15.1626   -9.0281 C   0  0  0  0  0  0  0  0  0  0  0  0
   16.5998  -14.1550   -8.0965 C   0  0  0  0  0  0  0  0  0  0  0  0
   17.6423  -14.1032   -7.0600 C   0  0  0  0  0  0  0  0  0  0  0  0
   18.5488  -14.9742   -7.0684 O   0  0  0  0  0  0  0  0  0  0  0  0
   17.5584  -13.0658   -6.1098 N   0  0  0  0  0  0  0  0  0  0  0  0
   16.6221  -12.1835   -6.1182 C   0  0  0  0  0  0  0  0  0  0  0  0
   15.5305  -12.1295   -7.0952 C   0  0  0  0  0  0  0  0  0  0  0  0
   15.6101  -13.2122   -8.0965 C   0  0  0  0  0  0  0  0  0  0  0  0
   14.6844  -13.3109   -9.0675 N   0  0  0  0  0  0  0  0  0  0  0  0
   14.6746  -14.2623  -10.0186 C   0  0  0  0  0  0  0  0  0  0  0  0
   13.6298  -14.3107  -11.0499 C   0  0  0  0  0  0  0  0  0  0  0  0
   12.7122  -15.3286  -11.1614 C   0  0  0  0  0  0  0  0  0  0  0  0
   11.7327  -15.3428  -12.1357 C   0  0  0  0  0  0  0  0  0  0  0  0
   13.5177  -13.2832  -11.9842 C   0  0  0  0  0  0  0  0  0  0  0  0
   12.5395  -13.2997  -12.9563 C   0  0  0  0  0  0  0  0  0  0  0  0
   11.6201  -14.3257  -13.0615 C   0  0  0  0  0  0  0  0  0  0  0  0
   10.5679  -14.3268  -14.1159 C   0  0  0  0  0  0  0  0  0  0  0  0
   11.0954  -14.6507  -15.4283 N   0  0  1  0  0  4  0  0  0  0  0  0
   10.9348  -16.0429  -15.6706 C   0  0  0  0  0  0  0  0  0  0  0  0
   10.2290  -16.3060  -17.0126 C   0  0  0  0  0  0  0  0  0  0  0  0
   10.4561  -13.7962  -16.3910 C   0  0  0  0  0  0  0  0  0  0  0  0
    9.0891  -14.1631  -16.8179 C   0  0  0  0  0  0  0  0  0  0  0  0
    8.8832  -15.6298  -16.8353 C   0  0  1  0  0  0  0  0  0  0  0  0
    7.8859  -16.1308  -17.7288 N   0  0  0  0  0  0  0  0  0  0  0  0
    7.4432  -15.5830  -18.8691 C   0  0  0  0  0  0  0  0  0  0  0  0
    7.7634  -14.4227  -19.5369 C   0  0  0  0  0  0  0  0  0  0  0  0
    7.1763  -17.2926  -17.6040 C   0  0  0  0  0  0  0  0  0  0  0  0
    7.3112  -18.1039  -16.6392 O   0  0  0  0  0  0  0  0  0  0  0  0
    6.3372  -17.4591  -18.6131 N   0  0  0  0  0  0  0  0  0  0  0  0
    5.4141  -18.5509  -18.8542 C   0  0  0  0  0  0  0  0  0  0  0  0
    6.4822  -16.4080  -19.4179 C   0  0  0  0  0  0  0  0  0  0  0  0
    5.8636  -16.0739  -20.6028 C   0  0  0  0  0  0  0  0  0  0  0  0
    6.2035  -14.9059  -21.2511 C   0  0  0  0  0  0  0  0  0  0  0  0
    7.1601  -14.0646  -20.7237 C   0  0  0  0  0  0  0  0  0  0  0  0
    7.4966  -12.8630  -21.4068 N   0  0  0  0  0  0  0  0  0  0  0  0
    8.7290  -12.1955  -21.0924 C   0  0  0  0  0  0  0  0  0  0  0  0
    9.2661  -12.4388  -19.9933 O   0  0  0  0  0  0  0  0  0  0  0  0
    9.3595  -11.2466  -22.0229 C   0  0  0  0  0  0  0  0  0  0  0  0
   10.4965  -10.5506  -21.3169 C   0  0  0  0  0  0  0  0  0  0  0  0
  1  2  2  0
  1  6  1  0
  2  3  1  0
  3  4  2  0
  4  5  1  0
  5  6  2  0
  6  7  1  0
  7  8  2  0
  7 17  1  0
  8  9  1  0
  9 10  1  0
  9 15  2  0
 10 11  2  0
 10 12  1  0
 12 13  2  0
 14 13  1  1
 14 15  1  0
 15 16  1  0
 16 17  2  0
 17 18  1  0
 18 19  2  0
 18 21  1  0
 19 20  1  0
 20 23  2  0
 21 22  2  0
 22 23  1  0
 24 23  1  1
 25 24  1  1
 26 25  1  1
 28 25  1  1
 27 26  1  1
 27 30  1  0
 29 28  1  1
 29 30  1  0
 30 31  1  6
 31 32  1  0
 31 34  1  0
 32 33  2  0
 32 38  1  0
 33 41  1  0
 34 35  2  0
 34 36  1  0
 37 36  1  6
 36 38  1  0
 38 39  2  0
 39 40  1  0
 40 41  2  0
 41 42  1  0
 42 43  1  0
 43 44  2  0
 45 43  1  1
 46 45  1  6
M  CHG  1  25   1
M  END
$$$$
