
     RDKit          3D

 46 52  0  0  0  0  0  0  0  0999 V2000
   12.7943  -12.9482  -11.1995 C   0  0  0  0  0  0  0  0  0  0  0  0
   12.0712  -13.0281  -12.3631 C   0  0  0  0  0  0  0  0  0  0  0  0
   12.3399  -12.1625  -13.4022 C   0  0  0  0  0  0  0  0  0  0  0  0
   13.3446  -11.2322  -13.2274 C   0  0  0  0  0  0  0  0  0  0  0  0
   14.0816  -11.1479  -12.0462 C   0  0  0  0  0  0  0  0  0  0  0  0
   13.8002  -12.0126  -11.0316 C   0  0  0  0  0  0  0  0  0  0  0  0
   14.5109  -12.0112   -9.7484 C   0  0  0  0  0  0  0  0  0  0  0  0
   14.5148  -10.8629   -8.9877 C   0  0  0  0  0  0  0  0  0  0  0  0
   15.2070  -10.9153   -7.7706 C   0  0  0  0  0  0  0  0  0  0  0  0
   15.2726   -9.7633   -6.8968 C   0  0  0  0  0  0  0  0  0  0  0  0
   14.6686   -8.7152   -7.3012 O   0  0  0  0  0  0  0  0  0  0  0  0
   15.9661   -9.8085   -5.6733 N   0  0  0  0  0  0  0  0  0  0  0  0
   16.5587  -10.8787   -5.3038 C   0  0  0  0  0  0  0  0  0  0  0  0
   16.5791  -12.1231   -6.0822 C   0  0  0  0  0  0  0  0  0  0  0  0
   15.8492  -12.0575   -7.3591 C   0  0  0  0  0  0  0  0  0  0  0  0
   15.7945  -13.1536   -8.1776 N   0  0  0  0  0  0  0  0  0  0  0  0
   15.1587  -13.1683   -9.3369 C   0  0  0  0  0  0  0  0  0  0  0  0
   15.1035  -14.3441  -10.2126 C   0  0  0  0  0  0  0  0  0  0  0  0
   14.6344  -15.5721   -9.7991 C   0  0  0  0  0  0  0  0  0  0  0  0
   14.5980  -16.6660  -10.6646 C   0  0  0  0  0  0  0  0  0  0  0  0
   15.5365  -14.2383  -11.5173 C   0  0  0  0  0  0  0  0  0  0  0  0
   15.5000  -15.3203  -12.3718 C   0  0  0  0  0  0  0  0  0  0  0  0
   15.0312  -16.5597  -11.9699 C   0  0  0  0  0  0  0  0  0  0  0  0
   14.9960  -17.7155  -12.9061 C   0  0  0  0  0  0  0  0  0  0  0  0
   15.3841  -18.9657  -12.2755 N   0  0  1  0  0  4  0  0  0  0  0  0
   14.1613  -19.7168  -12.0881 C   0  0  0  0  0  0  0  0  0  0  0  0
   14.0522  -20.8110  -13.1500 C   0  0  0  0  0  0  0  0  0  0  0  0
   16.3587  -19.5981  -13.0858 C   0  0  0  0  0  0  0  0  0  0  0  0
   16.4597  -21.0902  -12.9797 C   0  0  0  0  0  0  0  0  0  0  0  0
   15.1700  -21.8056  -12.8020 C   0  0  1  0  0  0  0  0  0  0  0  0
   14.9532  -22.3860  -11.5152 N   0  0  0  0  0  0  0  0  0  0  0  0
   15.6267  -23.4903  -11.0849 C   0  0  0  0  0  0  0  0  0  0  0  0
   16.6058  -24.2910  -11.6841 C   0  0  0  0  0  0  0  0  0  0  0  0
   14.1440  -22.0604  -10.5107 C   0  0  0  0  0  0  0  0  0  0  0  0
   13.3508  -21.0936  -10.5104 O   0  0  0  0  0  0  0  0  0  0  0  0
   14.2649  -22.8942   -9.4676 N   0  0  0  0  0  0  0  0  0  0  0  0
   13.5196  -22.8151   -8.2070 C   0  0  0  0  0  0  0  0  0  0  0  0
   15.1916  -23.7955   -9.8152 C   0  0  0  0  0  0  0  0  0  0  0  0
   15.7221  -24.8859   -9.1432 C   0  0  0  0  0  0  0  0  0  0  0  0
   16.6844  -25.6558   -9.7581 C   0  0  0  0  0  0  0  0  0  0  0  0
   17.1539  -25.3818  -11.0440 C   0  0  0  0  0  0  0  0  0  0  0  0
   18.1476  -26.2106  -11.6263 N   0  0  0  0  0  0  0  0  0  0  0  0
   19.2501  -26.7503  -10.8993 C   0  0  0  0  0  0  0  0  0  0  0  0
   19.1595  -26.8210   -9.6551 O   0  0  0  0  0  0  0  0  0  0  0  0
   20.4837  -27.2239  -11.5604 C   0  0  0  0  0  0  0  0  0  0  0  0
   20.7511  -28.6457  -11.1257 C   0  0  0  0  0  0  0  0  0  0  0  0
  1  2  2  0
  1  6  1  0
  2  3  1  0
  3  4  2  0
  4  5  1  0
  5  6  2  0
  6  7  1  0
  7  8  2  0
  7 17  1  0
  8  9  1  0
  9 10  1  0
  9 15  2  0
 10 11  2  0
 10 12  1  0
 12 13  2  0
 13 14  1  0
 14 15  1  0
 15 16  1  0
 16 17  2  0
 17 18  1  0
 18 19  2  0
 18 21  1  0
 19 20  1  0
 20 23  2  0
 21 22  2  0
 22 23  1  0
 23 24  1  0
 25 24  1  6
 25 26  1  0
 25 28  1  0
 26 27  1  0
 27 30  1  0
 28 29  1  0
 29 30  1  0
 30 31  1  1
 31 32  1  0
 31 34  1  0
 32 33  2  0
 32 38  1  0
 33 41  1  0
 34 35  2  0
 34 36  1  0
 36 37  1  0
 36 38  1  0
 38 39  2  0
 39 40  1  0
 40 41  2  0
 41 42  1  0
 42 43  1  0
 43 44  2  0
 43 45  1  0
 45 46  1  0
M  CHG  1  25   1
M  END
$$$$
