
     RDKit          3D

 46 52  0  0  0  0  0  0  0  0999 V2000
   14.5475  -12.5571   -9.9544 C   0  0  0  0  0  0  0  0  0  0  0  0
   14.1075  -11.3669  -10.4841 C   0  0  0  0  0  0  0  0  0  0  0  0
   14.9889  -10.3148  -10.6006 C   0  0  0  0  0  0  0  0  0  0  0  0
   16.2886  -10.4858  -10.1823 C   0  0  0  0  0  0  0  0  0  0  0  0
   16.7145  -11.6870   -9.6529 C   0  0  0  0  0  0  0  0  0  0  0  0
   15.8369  -12.7611   -9.5276 C   0  0  0  0  0  0  0  0  0  0  0  0
   16.3429  -14.0026   -8.9598 C   0  0  0  0  0  0  0  0  0  0  0  0
   16.8806  -14.0136   -7.6670 C   0  0  0  0  0  0  0  0  0  0  0  0
   17.3500  -15.2117   -7.1850 C   0  0  0  0  0  0  0  0  0  0  0  0
   17.9177  -15.2323   -5.8281 C   0  0  0  0  0  0  0  0  0  0  0  0
   17.9492  -14.1626   -5.1683 O   0  0  0  0  0  0  0  0  0  0  0  0
   18.3969  -16.4670   -5.3464 N   0  0  0  0  0  0  0  0  0  0  0  0
   18.3557  -17.5512   -6.0378 C   0  0  0  0  0  0  0  0  0  0  0  0
   17.8165  -17.6583   -7.3967 C   0  0  0  0  0  0  0  0  0  0  0  0
   17.3104  -16.3695   -7.9105 C   0  0  0  0  0  0  0  0  0  0  0  0
   16.7811  -16.2891   -9.1445 N   0  0  0  0  0  0  0  0  0  0  0  0
   16.2987  -15.1609   -9.6959 C   0  0  0  0  0  0  0  0  0  0  0  0
   15.7349  -15.1455  -11.0522 C   0  0  0  0  0  0  0  0  0  0  0  0
   16.4321  -15.5266  -12.1743 C   0  0  0  0  0  0  0  0  0  0  0  0
   15.8727  -15.5123  -13.4375 C   0  0  0  0  0  0  0  0  0  0  0  0
   14.4189  -14.7381  -11.2607 C   0  0  0  0  0  0  0  0  0  0  0  0
   13.8627  -14.7240  -12.5226 C   0  0  0  0  0  0  0  0  0  0  0  0
   14.5694  -15.1095  -13.6456 C   0  0  0  0  0  0  0  0  0  0  0  0
   13.9525  -15.0910  -15.0014 C   0  0  0  0  0  0  0  0  0  0  0  0
   12.6092  -14.5426  -14.9942 N   0  0  1  0  0  4  0  0  0  0  0  0
   12.2303  -14.2056  -16.3231 C   0  0  0  0  0  0  0  0  0  0  0  0
   10.8758  -14.8308  -16.7010 C   0  0  0  0  0  0  0  0  0  0  0  0
   11.7433  -15.4880  -14.3446 C   0  0  0  0  0  0  0  0  0  0  0  0
   11.2954  -16.6514  -15.1393 C   0  0  0  0  0  0  0  0  0  0  0  0
   11.1333  -16.3199  -16.5738 C   0  0  1  0  0  0  0  0  0  0  0  0
   10.2041  -17.1115  -17.3179 N   0  0  0  0  0  0  0  0  0  0  0  0
    8.9224  -16.8397  -17.6003 C   0  0  0  0  0  0  0  0  0  0  0  0
    8.0998  -15.7800  -17.2922 C   0  0  0  0  0  0  0  0  0  0  0  0
   10.4403  -18.3214  -17.9090 C   0  0  0  0  0  0  0  0  0  0  0  0
   11.5547  -18.9242  -17.8664 O   0  0  0  0  0  0  0  0  0  0  0  0
    9.3630  -18.7779  -18.5266 N   0  0  0  0  0  0  0  0  0  0  0  0
    9.1978  -20.0127  -19.2684 C   0  0  0  0  0  0  0  0  0  0  0  0
    8.4008  -17.8741  -18.3510 C   0  0  0  0  0  0  0  0  0  0  0  0
    7.0912  -17.8409  -18.7777 C   0  0  0  0  0  0  0  0  0  0  0  0
    6.2894  -16.7672  -18.4553 C   0  0  0  0  0  0  0  0  0  0  0  0
    6.7861  -15.7215  -17.7065 C   0  0  0  0  0  0  0  0  0  0  0  0
    5.9428  -14.6225  -17.3828 N   0  0  0  0  0  0  0  0  0  0  0  0
    6.4788  -13.5200  -16.6343 C   0  0  0  0  0  0  0  0  0  0  0  0
    7.6537  -13.6032  -16.2238 O   0  0  0  0  0  0  0  0  0  0  0  0
    5.6845  -12.3159  -16.3457 C   0  0  0  0  0  0  0  0  0  0  0  0
    5.5788  -12.1458  -14.8505 C   0  0  0  0  0  0  0  0  0  0  0  0
  1  2  2  0
  1  6  1  0
  2  3  1  0
  3  4  2  0
  4  5  1  0
  5  6  2  0
  6  7  1  0
  7  8  2  0
  7 17  1  0
  8  9  1  0
  9 10  1  0
  9 15  2  0
 10 11  2  0
 10 12  1  0
 12 13  2  0
 14 13  1  1
 14 15  1  0
 15 16  1  0
 16 17  2  0
 17 18  1  0
 18 19  2  0
 18 21  1  0
 19 20  1  0
 20 23  2  0
 21 22  2  0
 22 23  1  0
 24 23  1  1
 25 24  1  6
 26 25  1  1
 28 25  1  1
 27 26  1  1
 27 30  1  0
 29 28  1  1
 29 30  1  0
 30 31  1  1
 31 32  1  0
 31 34  1  0
 32 33  2  0
 32 38  1  0
 33 41  1  0
 34 35  2  0
 34 36  1  0
 37 36  1  6
 36 38  1  0
 38 39  2  0
 39 40  1  0
 40 41  2  0
 41 42  1  0
 42 43  1  0
 43 44  2  0
 45 43  1  1
 46 45  1  6
M  CHG  1  25   1
M  END
$$$$
