
     RDKit          3D

 46 52  0  0  0  0  0  0  0  0999 V2000
   11.4146  -13.9503   -9.2662 C   0  0  0  0  0  0  0  0  0  0  0  0
   10.4043  -14.8425   -8.9946 C   0  0  0  0  0  0  0  0  0  0  0  0
   10.7193  -16.0794   -8.4766 C   0  0  0  0  0  0  0  0  0  0  0  0
   12.0403  -16.3874   -8.2452 C   0  0  0  0  0  0  0  0  0  0  0  0
   13.0427  -15.4805   -8.5233 C   0  0  0  0  0  0  0  0  0  0  0  0
   12.7423  -14.2256   -9.0473 C   0  0  0  0  0  0  0  0  0  0  0  0
   13.8420  -13.3119   -9.3225 C   0  0  0  0  0  0  0  0  0  0  0  0
   14.7965  -13.0465   -8.3330 C   0  0  0  0  0  0  0  0  0  0  0  0
   15.8079  -12.1706   -8.6456 C   0  0  0  0  0  0  0  0  0  0  0  0
   16.8145  -11.8849   -7.6116 C   0  0  0  0  0  0  0  0  0  0  0  0
   16.7113  -12.4497   -6.4932 O   0  0  0  0  0  0  0  0  0  0  0  0
   17.8456  -10.9837   -7.9445 N   0  0  0  0  0  0  0  0  0  0  0  0
   17.9336  -10.4156   -9.0954 C   0  0  0  0  0  0  0  0  0  0  0  0
   16.9956  -10.6181  -10.2037 C   0  0  0  0  0  0  0  0  0  0  0  0
   15.9115  -11.5621   -9.8652 C   0  0  0  0  0  0  0  0  0  0  0  0
   14.9620  -11.8612  -10.7699 N   0  0  0  0  0  0  0  0  0  0  0  0
   13.9380  -12.7056  -10.5507 C   0  0  0  0  0  0  0  0  0  0  0  0
   12.9343  -12.9856  -11.5861 C   0  0  0  0  0  0  0  0  0  0  0  0
   12.2274  -12.0103  -12.2491 C   0  0  0  0  0  0  0  0  0  0  0  0
   11.2962  -12.3024  -13.2270 C   0  0  0  0  0  0  0  0  0  0  0  0
   12.6567  -14.2994  -11.9573 C   0  0  0  0  0  0  0  0  0  0  0  0
   11.7262  -14.5887  -12.9334 C   0  0  0  0  0  0  0  0  0  0  0  0
   11.0203  -13.6031  -13.5962 C   0  0  0  0  0  0  0  0  0  0  0  0
   10.0206  -13.9327  -14.6502 C   0  0  0  0  0  0  0  0  0  0  0  0
    9.7438  -15.3548  -14.7296 N   0  0  1  0  0  4  0  0  0  0  0  0
    8.4120  -15.5510  -15.1886 C   0  0  0  0  0  0  0  0  0  0  0  0
    8.3633  -16.5109  -16.3904 C   0  0  0  0  0  0  0  0  0  0  0  0
   10.7565  -15.9629  -15.5483 C   0  0  0  0  0  0  0  0  0  0  0  0
   10.6149  -15.8240  -17.0133 C   0  0  0  0  0  0  0  0  0  0  0  0
    9.1962  -15.7978  -17.4381 C   0  0  1  0  0  0  0  0  0  0  0  0
    8.9130  -16.2371  -18.7688 N   0  0  0  0  0  0  0  0  0  0  0  0
    9.5137  -17.2113  -19.4662 C   0  0  0  0  0  0  0  0  0  0  0  0
   10.5477  -18.0716  -19.1739 C   0  0  0  0  0  0  0  0  0  0  0  0
    7.9512  -15.7509  -19.6100 C   0  0  0  0  0  0  0  0  0  0  0  0
    7.1603  -14.8068  -19.3099 O   0  0  0  0  0  0  0  0  0  0  0  0
    7.9532  -16.3888  -20.7690 N   0  0  0  0  0  0  0  0  0  0  0  0
    7.0979  -16.1793  -21.9209 C   0  0  0  0  0  0  0  0  0  0  0  0
    8.9174  -17.3055  -20.7076 C   0  0  0  0  0  0  0  0  0  0  0  0
    9.3498  -18.2378  -21.6253 C   0  0  0  0  0  0  0  0  0  0  0  0
   10.3872  -19.0874  -21.3064 C   0  0  0  0  0  0  0  0  0  0  0  0
   10.9997  -19.0136  -20.0734 C   0  0  0  0  0  0  0  0  0  0  0  0
   12.0696  -19.8984  -19.7631 N   0  0  0  0  0  0  0  0  0  0  0  0
   12.8264  -19.6936  -18.5596 C   0  0  0  0  0  0  0  0  0  0  0  0
   12.4675  -18.7830  -17.7866 O   0  0  0  0  0  0  0  0  0  0  0  0
   13.9964  -20.5204  -18.2259 C   0  0  0  0  0  0  0  0  0  0  0  0
   14.3836  -20.2645  -16.7905 C   0  0  0  0  0  0  0  0  0  0  0  0
  1  2  2  0
  1  6  1  0
  2  3  1  0
  3  4  2  0
  4  5  1  0
  5  6  2  0
  6  7  1  0
  7  8  2  0
  7 17  1  0
  8  9  1  0
  9 10  1  0
  9 15  2  0
 10 11  2  0
 10 12  1  0
 12 13  2  0
 14 13  1  1
 14 15  1  0
 15 16  1  0
 16 17  2  0
 17 18  1  0
 18 19  2  0
 18 21  1  0
 19 20  1  0
 20 23  2  0
 21 22  2  0
 22 23  1  0
 24 23  1  1
 25 24  1  6
 26 25  1  1
 28 25  1  1
 27 26  1  1
 27 30  1  0
 29 28  1  1
 29 30  1  0
 30 31  1  6
 31 32  1  0
 31 34  1  0
 32 33  2  0
 32 38  1  0
 33 41  1  0
 34 35  2  0
 34 36  1  0
 37 36  1  6
 36 38  1  0
 38 39  2  0
 39 40  1  0
 40 41  2  0
 41 42  1  0
 42 43  1  0
 43 44  2  0
 45 43  1  1
 46 45  1  6
M  CHG  1  25   1
M  END
$$$$
