
     RDKit          3D

 46 52  0  0  0  0  0  0  0  0999 V2000
   15.1690  -10.2735   -8.7922 C   0  0  0  0  0  0  0  0  0  0  0  0
   15.0964   -9.1010   -9.5067 C   0  0  0  0  0  0  0  0  0  0  0  0
   14.8721   -9.1526  -10.8648 C   0  0  0  0  0  0  0  0  0  0  0  0
   14.7266  -10.3802  -11.4693 C   0  0  0  0  0  0  0  0  0  0  0  0
   14.8021  -11.5480  -10.7377 C   0  0  0  0  0  0  0  0  0  0  0  0
   15.0283  -11.5144   -9.3640 C   0  0  0  0  0  0  0  0  0  0  0  0
   15.1003  -12.7788   -8.6457 C   0  0  0  0  0  0  0  0  0  0  0  0
   15.6352  -12.8202   -7.3524 C   0  0  0  0  0  0  0  0  0  0  0  0
   15.6852  -14.0417   -6.7251 C   0  0  0  0  0  0  0  0  0  0  0  0
   16.2468  -14.0948   -5.3665 C   0  0  0  0  0  0  0  0  0  0  0  0
   16.6538  -13.0296   -4.8372 O   0  0  0  0  0  0  0  0  0  0  0  0
   16.2936  -15.3538   -4.7350 N   0  0  0  0  0  0  0  0  0  0  0  0
   15.8718  -16.4330   -5.2941 C   0  0  0  0  0  0  0  0  0  0  0  0
   15.2938  -16.5091   -6.6392 C   0  0  0  0  0  0  0  0  0  0  0  0
   15.2392  -15.1942   -7.3093 C   0  0  0  0  0  0  0  0  0  0  0  0
   14.7370  -15.0839   -8.5524 N   0  0  0  0  0  0  0  0  0  0  0  0
   14.6495  -13.9313   -9.2405 C   0  0  0  0  0  0  0  0  0  0  0  0
   14.0898  -13.8844  -10.5978 C   0  0  0  0  0  0  0  0  0  0  0  0
   14.5709  -14.6283  -11.6493 C   0  0  0  0  0  0  0  0  0  0  0  0
   14.0176  -14.5722  -12.9140 C   0  0  0  0  0  0  0  0  0  0  0  0
   13.0024  -13.0604  -10.8805 C   0  0  0  0  0  0  0  0  0  0  0  0
   12.4520  -13.0055  -12.1439 C   0  0  0  0  0  0  0  0  0  0  0  0
   12.9404  -13.7570  -13.1955 C   0  0  0  0  0  0  0  0  0  0  0  0
   12.3323  -13.6879  -14.5536 C   0  0  0  0  0  0  0  0  0  0  0  0
   10.8959  -13.8913  -14.5314 N   0  0  1  0  0  4  0  0  0  0  0  0
   10.3427  -13.4848  -15.7771 C   0  0  0  0  0  0  0  0  0  0  0  0
    9.4632  -14.5876  -16.3924 C   0  0  0  0  0  0  0  0  0  0  0  0
   10.6433  -15.2621  -14.1812 C   0  0  0  0  0  0  0  0  0  0  0  0
   10.7990  -16.2723  -15.2493 C   0  0  0  0  0  0  0  0  0  0  0  0
   10.4319  -15.7390  -16.5815 C   0  0  1  0  0  0  0  0  0  0  0  0
    9.9880  -16.6864  -17.5558 N   0  0  0  0  0  0  0  0  0  0  0  0
    8.7621  -16.8249  -18.0797 C   0  0  0  0  0  0  0  0  0  0  0  0
    7.5760  -16.1563  -17.8774 C   0  0  0  0  0  0  0  0  0  0  0  0
   10.7373  -17.6529  -18.1667 C   0  0  0  0  0  0  0  0  0  0  0  0
   11.9685  -17.8460  -17.9344 O   0  0  0  0  0  0  0  0  0  0  0  0
   10.0162  -18.3551  -19.0253 N   0  0  0  0  0  0  0  0  0  0  0  0
   10.4316  -19.4591  -19.8686 C   0  0  0  0  0  0  0  0  0  0  0  0
    8.7801  -17.8605  -18.9921 C   0  0  0  0  0  0  0  0  0  0  0  0
    7.6384  -18.2110  -19.6791 C   0  0  0  0  0  0  0  0  0  0  0  0
    6.4640  -17.5243  -19.4576 C   0  0  0  0  0  0  0  0  0  0  0  0
    6.4194  -16.4862  -18.5514 C   0  0  0  0  0  0  0  0  0  0  0  0
    5.1976  -15.7902  -18.3355 N   0  0  0  0  0  0  0  0  0  0  0  0
    5.1748  -14.6691  -17.4379 C   0  0  0  0  0  0  0  0  0  0  0  0
    6.1525  -14.5005  -16.6819 O   0  0  0  0  0  0  0  0  0  0  0  0
    4.0417  -13.7322  -17.3915 C   0  0  0  0  0  0  0  0  0  0  0  0
    3.7369  -13.4032  -15.9512 C   0  0  0  0  0  0  0  0  0  0  0  0
  1  2  2  0
  1  6  1  0
  2  3  1  0
  3  4  2  0
  4  5  1  0
  5  6  2  0
  6  7  1  0
  7  8  2  0
  7 17  1  0
  8  9  1  0
  9 10  1  0
  9 15  2  0
 10 11  2  0
 10 12  1  0
 12 13  2  0
 14 13  1  1
 14 15  1  0
 15 16  1  0
 16 17  2  0
 17 18  1  0
 18 19  2  0
 18 21  1  0
 19 20  1  0
 20 23  2  0
 21 22  2  0
 22 23  1  0
 24 23  1  1
 25 24  1  6
 26 25  1  1
 28 25  1  1
 27 26  1  1
 27 30  1  0
 29 28  1  1
 29 30  1  0
 30 31  1  6
 31 32  1  0
 31 34  1  0
 32 33  2  0
 32 38  1  0
 33 41  1  0
 34 35  2  0
 34 36  1  0
 37 36  1  6
 36 38  1  0
 38 39  2  0
 39 40  1  0
 40 41  2  0
 41 42  1  0
 42 43  1  0
 43 44  2  0
 45 43  1  1
 46 45  1  6
M  CHG  1  25   1
M  END
$$$$
