
     RDKit          3D

 46 52  0  0  0  0  0  0  0  0999 V2000
   16.6182  -11.6331   -8.1437 C   0  0  0  0  0  0  0  0  0  0  0  0
   16.0889  -10.3797   -8.3426 C   0  0  0  0  0  0  0  0  0  0  0  0
   14.7312  -10.2440   -8.5308 C   0  0  0  0  0  0  0  0  0  0  0  0
   13.9410  -11.3704   -8.5142 C   0  0  0  0  0  0  0  0  0  0  0  0
   14.4878  -12.6215   -8.3133 C   0  0  0  0  0  0  0  0  0  0  0  0
   15.8584  -12.7771   -8.1215 C   0  0  0  0  0  0  0  0  0  0  0  0
   16.3779  -14.1218   -7.9165 C   0  0  0  0  0  0  0  0  0  0  0  0
   17.0807  -14.4302   -6.7455 C   0  0  0  0  0  0  0  0  0  0  0  0
   17.5545  -15.7127   -6.6088 C   0  0  0  0  0  0  0  0  0  0  0  0
   18.2952  -16.0453   -5.3822 C   0  0  0  0  0  0  0  0  0  0  0  0
   18.4626  -15.1513   -4.5143 O   0  0  0  0  0  0  0  0  0  0  0  0
   18.7771  -17.3636   -5.2552 N   0  0  0  0  0  0  0  0  0  0  0  0
   18.5953  -18.2646   -6.1554 C   0  0  0  0  0  0  0  0  0  0  0  0
   17.8768  -18.0564   -7.4161 C   0  0  0  0  0  0  0  0  0  0  0  0
   17.3666  -16.6778   -7.5584 C   0  0  0  0  0  0  0  0  0  0  0  0
   16.6829  -16.3150   -8.6586 N   0  0  0  0  0  0  0  0  0  0  0  0
   16.1838  -15.0848   -8.8758 C   0  0  0  0  0  0  0  0  0  0  0  0
   15.4469  -14.7575  -10.1036 C   0  0  0  0  0  0  0  0  0  0  0  0
   14.1239  -14.3839  -10.1246 C   0  0  0  0  0  0  0  0  0  0  0  0
   13.4584  -14.0709  -11.2942 C   0  0  0  0  0  0  0  0  0  0  0  0
   16.0871  -14.8052  -11.3402 C   0  0  0  0  0  0  0  0  0  0  0  0
   15.4206  -14.4930  -12.5066 C   0  0  0  0  0  0  0  0  0  0  0  0
   14.0910  -14.1173  -12.5197 C   0  0  0  0  0  0  0  0  0  0  0  0
   13.3868  -13.7805  -13.7884 C   0  0  0  0  0  0  0  0  0  0  0  0
   11.9493  -13.9514  -13.6893 N   0  0  1  0  0  4  0  0  0  0  0  0
   11.3316  -13.4395  -14.8637 C   0  0  0  0  0  0  0  0  0  0  0  0
   10.3850  -14.4720  -15.5010 C   0  0  0  0  0  0  0  0  0  0  0  0
   11.6806  -15.3384  -13.4256 C   0  0  0  0  0  0  0  0  0  0  0  0
   11.7413  -16.2687  -14.5729 C   0  0  0  0  0  0  0  0  0  0  0  0
   11.3074  -15.6282  -15.8360 C   0  0  1  0  0  0  0  0  0  0  0  0
   10.7774  -16.4889  -16.8470 N   0  0  0  0  0  0  0  0  0  0  0  0
    9.5302  -16.5236  -17.3366 C   0  0  0  0  0  0  0  0  0  0  0  0
    8.3938  -15.7989  -17.0572 C   0  0  0  0  0  0  0  0  0  0  0  0
   11.4477  -17.4607  -17.5364 C   0  0  0  0  0  0  0  0  0  0  0  0
   12.6711  -17.7397  -17.3567 O   0  0  0  0  0  0  0  0  0  0  0  0
   10.6596  -18.0675  -18.4088 N   0  0  0  0  0  0  0  0  0  0  0  0
   10.9813  -19.1429  -19.3267 C   0  0  0  0  0  0  0  0  0  0  0  0
    9.4576  -17.5033  -18.3063 C   0  0  0  0  0  0  0  0  0  0  0  0
    8.2765  -17.7446  -18.9736 C   0  0  0  0  0  0  0  0  0  0  0  0
    7.1534  -17.0038  -18.6743 C   0  0  0  0  0  0  0  0  0  0  0  0
    7.1995  -16.0197  -17.7098 C   0  0  0  0  0  0  0  0  0  0  0  0
    6.0295  -15.2663  -17.4141 N   0  0  0  0  0  0  0  0  0  0  0  0
    6.1507  -14.0336  -16.6868 C   0  0  0  0  0  0  0  0  0  0  0  0
    7.1025  -13.9116  -15.8901 O   0  0  0  0  0  0  0  0  0  0  0  0
    5.1917  -12.9314  -16.8583 C   0  0  0  0  0  0  0  0  0  0  0  0
    4.2139  -12.9499  -15.7097 C   0  0  0  0  0  0  0  0  0  0  0  0
  1  2  2  0
  1  6  1  0
  2  3  1  0
  3  4  2  0
  4  5  1  0
  5  6  2  0
  6  7  1  0
  7  8  2  0
  7 17  1  0
  8  9  1  0
  9 10  1  0
  9 15  2  0
 10 11  2  0
 10 12  1  0
 12 13  2  0
 14 13  1  1
 14 15  1  0
 15 16  1  0
 16 17  2  0
 17 18  1  0
 18 19  2  0
 18 21  1  0
 19 20  1  0
 20 23  2  0
 21 22  2  0
 22 23  1  0
 24 23  1  1
 25 24  1  6
 26 25  1  1
 28 25  1  1
 27 26  1  1
 27 30  1  0
 29 28  1  1
 29 30  1  0
 30 31  1  6
 31 32  1  0
 31 34  1  0
 32 33  2  0
 32 38  1  0
 33 41  1  0
 34 35  2  0
 34 36  1  0
 37 36  1  6
 36 38  1  0
 38 39  2  0
 39 40  1  0
 40 41  2  0
 41 42  1  0
 42 43  1  0
 43 44  2  0
 45 43  1  1
 46 45  1  6
M  CHG  1  25   1
M  END
$$$$
