
     RDKit          3D

 46 52  0  0  0  0  0  0  0  0999 V2000
   17.6660  -15.5846  -10.5706 C   0  0  0  0  0  0  0  0  0  0  0  0
   18.1414  -16.5192  -11.4601 C   0  0  0  0  0  0  0  0  0  0  0  0
   17.2707  -17.4411  -11.9980 C   0  0  0  0  0  0  0  0  0  0  0  0
   15.9459  -17.4001  -11.6285 C   0  0  0  0  0  0  0  0  0  0  0  0
   15.4845  -16.4555  -10.7344 C   0  0  0  0  0  0  0  0  0  0  0  0
   16.3508  -15.5160  -10.1808 C   0  0  0  0  0  0  0  0  0  0  0  0
   15.8068  -14.5455   -9.2415 C   0  0  0  0  0  0  0  0  0  0  0  0
   16.4350  -14.3367   -8.0077 C   0  0  0  0  0  0  0  0  0  0  0  0
   15.8737  -13.4144   -7.1578 C   0  0  0  0  0  0  0  0  0  0  0  0
   16.5264  -13.1895   -5.8588 C   0  0  0  0  0  0  0  0  0  0  0  0
   17.5637  -13.8431   -5.5808 O   0  0  0  0  0  0  0  0  0  0  0  0
   15.9398  -12.2421   -4.9959 N   0  0  0  0  0  0  0  0  0  0  0  0
   14.8773  -11.5832   -5.2992 C   0  0  0  0  0  0  0  0  0  0  0  0
   14.1382  -11.7183   -6.5580 C   0  0  0  0  0  0  0  0  0  0  0  0
   14.7457  -12.7083   -7.4701 C   0  0  0  0  0  0  0  0  0  0  0  0
   14.1928  -12.9570   -8.6709 N   0  0  0  0  0  0  0  0  0  0  0  0
   14.6735  -13.8406   -9.5641 C   0  0  0  0  0  0  0  0  0  0  0  0
   14.0164  -14.0630  -10.8589 C   0  0  0  0  0  0  0  0  0  0  0  0
   14.5608  -13.6929  -12.0660 C   0  0  0  0  0  0  0  0  0  0  0  0
   13.9247  -13.9243  -13.2704 C   0  0  0  0  0  0  0  0  0  0  0  0
   12.7737  -14.6902  -10.9167 C   0  0  0  0  0  0  0  0  0  0  0  0
   12.1402  -14.9197  -12.1201 C   0  0  0  0  0  0  0  0  0  0  0  0
   12.6941  -14.5458  -13.3295 C   0  0  0  0  0  0  0  0  0  0  0  0
   11.9976  -14.8037  -14.6207 C   0  0  0  0  0  0  0  0  0  0  0  0
   11.4786  -13.5910  -15.2251 N   0  0  1  0  0  4  0  0  0  0  0  0
   11.4107  -13.7589  -16.6358 C   0  0  0  0  0  0  0  0  0  0  0  0
   10.0135  -13.4127  -17.1802 C   0  0  0  0  0  0  0  0  0  0  0  0
   10.2242  -13.2791  -14.5967 C   0  0  0  0  0  0  0  0  0  0  0  0
    9.0381  -14.0422  -15.0398 C   0  0  0  0  0  0  0  0  0  0  0  0
    9.1101  -14.4052  -16.4739 C   0  0  1  0  0  0  0  0  0  0  0  0
    7.8676  -14.6077  -17.1514 N   0  0  0  0  0  0  0  0  0  0  0  0
    7.5731  -15.5186  -18.0895 C   0  0  0  0  0  0  0  0  0  0  0  0
    8.3103  -16.5100  -18.6965 C   0  0  0  0  0  0  0  0  0  0  0  0
    6.7070  -13.9080  -16.9712 C   0  0  0  0  0  0  0  0  0  0  0  0
    6.5795  -12.9478  -16.1534 O   0  0  0  0  0  0  0  0  0  0  0  0
    5.7418  -14.3598  -17.7550 N   0  0  0  0  0  0  0  0  0  0  0  0
    4.3728  -13.8954  -17.8673 C   0  0  0  0  0  0  0  0  0  0  0  0
    6.2534  -15.3647  -18.4636 C   0  0  0  0  0  0  0  0  0  0  0  0
    5.6943  -16.1845  -19.4194 C   0  0  0  0  0  0  0  0  0  0  0  0
    6.4551  -17.1698  -20.0112 C   0  0  0  0  0  0  0  0  0  0  0  0
    7.7757  -17.3441  -19.6554 C   0  0  0  0  0  0  0  0  0  0  0  0
    8.5452  -18.3657  -20.2781 N   0  0  0  0  0  0  0  0  0  0  0  0
    9.2844  -19.2876  -19.4615 C   0  0  0  0  0  0  0  0  0  0  0  0
    9.5044  -18.9760  -18.2740 O   0  0  0  0  0  0  0  0  0  0  0  0
    9.7796  -20.5690  -19.9875 C   0  0  0  0  0  0  0  0  0  0  0  0
   11.0625  -20.9262  -19.2787 C   0  0  0  0  0  0  0  0  0  0  0  0
  1  2  2  0
  1  6  1  0
  2  3  1  0
  3  4  2  0
  4  5  1  0
  5  6  2  0
  6  7  1  0
  7  8  2  0
  7 17  1  0
  8  9  1  0
  9 10  1  0
  9 15  2  0
 10 11  2  0
 10 12  1  0
 12 13  2  0
 14 13  1  1
 14 15  1  0
 15 16  1  0
 16 17  2  0
 17 18  1  0
 18 19  2  0
 18 21  1  0
 19 20  1  0
 20 23  2  0
 21 22  2  0
 22 23  1  0
 24 23  1  1
 25 24  1  1
 26 25  1  1
 28 25  1  1
 27 26  1  1
 27 30  1  0
 29 28  1  1
 29 30  1  0
 30 31  1  6
 31 32  1  0
 31 34  1  0
 32 33  2  0
 32 38  1  0
 33 41  1  0
 34 35  2  0
 34 36  1  0
 37 36  1  6
 36 38  1  0
 38 39  2  0
 39 40  1  0
 40 41  2  0
 41 42  1  0
 42 43  1  0
 43 44  2  0
 45 43  1  1
 46 45  1  6
M  CHG  1  25   1
M  END
$$$$
