
     RDKit          3D

 46 52  0  0  0  0  0  0  0  0999 V2000
   15.8977   -9.8553   -9.9769 C   0  0  0  0  0  0  0  0  0  0  0  0
   15.5810   -8.9868  -10.9912 C   0  0  0  0  0  0  0  0  0  0  0  0
   14.3506   -9.0671  -11.6081 C   0  0  0  0  0  0  0  0  0  0  0  0
   13.4693  -10.0362  -11.1727 C   0  0  0  0  0  0  0  0  0  0  0  0
   13.7875  -10.9207  -10.1422 C   0  0  0  0  0  0  0  0  0  0  0  0
   15.0087  -10.8245   -9.5459 C   0  0  0  0  0  0  0  0  0  0  0  0
   15.4469  -11.7027   -8.4557 C   0  0  0  0  0  0  0  0  0  0  0  0
   15.6245  -11.1697   -7.1982 C   0  0  0  0  0  0  0  0  0  0  0  0
   16.0426  -12.0515   -6.1928 C   0  0  0  0  0  0  0  0  0  0  0  0
   16.2589  -11.5926   -4.8372 C   0  0  0  0  0  0  0  0  0  0  0  0
   16.0471  -10.3534   -4.6221 O   0  0  0  0  0  0  0  0  0  0  0  0
   16.6790  -12.4725   -3.8226 N   0  0  0  0  0  0  0  0  0  0  0  0
   16.8803  -13.7081   -4.0791 C   0  0  0  0  0  0  0  0  0  0  0  0
   16.7028  -14.3171   -5.4029 C   0  0  0  0  0  0  0  0  0  0  0  0
   16.2636  -13.3821   -6.4520 C   0  0  0  0  0  0  0  0  0  0  0  0
   16.0627  -13.8277   -7.7308 N   0  0  0  0  0  0  0  0  0  0  0  0
   15.6691  -13.0471   -8.7228 C   0  0  0  0  0  0  0  0  0  0  0  0
   15.4565  -13.5274  -10.0926 C   0  0  0  0  0  0  0  0  0  0  0  0
   14.4536  -13.0551  -10.9113 C   0  0  0  0  0  0  0  0  0  0  0  0
   14.2860  -13.5386  -12.2094 C   0  0  0  0  0  0  0  0  0  0  0  0
   16.2894  -14.4982  -10.6073 C   0  0  0  0  0  0  0  0  0  0  0  0
   16.1227  -14.9752  -11.8907 C   0  0  0  0  0  0  0  0  0  0  0  0
   15.1195  -14.5098  -12.7240 C   0  0  0  0  0  0  0  0  0  0  0  0
   14.9561  -15.0334  -14.1069 C   0  0  0  0  0  0  0  0  0  0  0  0
   14.4938  -16.4105  -14.1390 N   0  0  1  0  0  4  0  0  0  0  0  0
   14.5330  -16.8144  -15.5282 C   0  0  0  0  0  0  0  0  0  0  0  0
   15.7562  -17.6954  -15.7819 C   0  0  0  0  0  0  0  0  0  0  0  0
   15.3026  -17.1801  -13.2672 C   0  0  0  0  0  0  0  0  0  0  0  0
   15.4191  -18.6437  -13.5705 C   0  0  0  0  0  0  0  0  0  0  0  0
   15.4683  -18.9939  -15.0133 C   0  0  1  0  0  0  0  0  0  0  0  0
   14.3104  -19.6482  -15.5341 N   0  0  0  0  0  0  0  0  0  0  0  0
   14.1768  -21.0047  -15.5464 C   0  0  0  0  0  0  0  0  0  0  0  0
   15.0142  -22.0390  -15.1132 C   0  0  0  0  0  0  0  0  0  0  0  0
   13.1895  -19.1845  -16.0804 C   0  0  0  0  0  0  0  0  0  0  0  0
   12.9199  -17.9757  -16.2530 O   0  0  0  0  0  0  0  0  0  0  0  0
   12.3520  -20.1685  -16.4389 N   0  0  0  0  0  0  0  0  0  0  0  0
   11.0372  -19.9987  -17.0660 C   0  0  0  0  0  0  0  0  0  0  0  0
   12.9597  -21.3148  -16.1094 C   0  0  0  0  0  0  0  0  0  0  0  0
   12.5742  -22.6399  -16.2427 C   0  0  0  0  0  0  0  0  0  0  0  0
   13.4192  -23.6365  -15.8073 C   0  0  0  0  0  0  0  0  0  0  0  0
   14.6616  -23.3663  -15.2309 C   0  0  0  0  0  0  0  0  0  0  0  0
   15.4897  -24.4351  -14.8003 N   0  0  0  0  0  0  0  0  0  0  0  0
   15.0324  -25.5035  -13.9728 C   0  0  0  0  0  0  0  0  0  0  0  0
   13.8547  -25.4662  -13.5569 O   0  0  0  0  0  0  0  0  0  0  0  0
   15.8950  -26.6417  -13.5939 C   0  0  0  0  0  0  0  0  0  0  0  0
   15.1062  -27.5719  -12.7027 C   0  0  0  0  0  0  0  0  0  0  0  0
  1  2  2  0
  1  6  1  0
  2  3  1  0
  3  4  2  0
  4  5  1  0
  5  6  2  0
  6  7  1  0
  7  8  2  0
  7 17  1  0
  8  9  1  0
  9 10  1  0
  9 15  2  0
 10 11  2  0
 10 12  1  0
 12 13  2  0
 13 14  1  0
 14 15  1  0
 15 16  1  0
 16 17  2  0
 17 18  1  0
 18 19  2  0
 18 21  1  0
 19 20  1  0
 20 23  2  0
 21 22  2  0
 22 23  1  0
 23 24  1  0
 25 24  1  6
 25 26  1  0
 25 28  1  0
 26 27  1  0
 27 30  1  0
 28 29  1  0
 29 30  1  0
 30 31  1  6
 31 32  1  0
 31 34  1  0
 32 33  2  0
 32 38  1  0
 33 41  1  0
 34 35  2  0
 34 36  1  0
 36 37  1  0
 36 38  1  0
 38 39  2  0
 39 40  1  0
 40 41  2  0
 41 42  1  0
 42 43  1  0
 43 44  2  0
 43 45  1  0
 45 46  1  0
M  CHG  1  25   1
M  END
$$$$
