
     RDKit          3D

 46 52  0  0  0  0  0  0  0  0999 V2000
   16.1993  -17.3390  -10.3736 C   0  0  0  0  0  0  0  0  0  0  0  0
   16.4896  -18.2619  -11.3506 C   0  0  0  0  0  0  0  0  0  0  0  0
   16.7994  -17.8247  -12.6196 C   0  0  0  0  0  0  0  0  0  0  0  0
   16.8097  -16.4724  -12.8737 C   0  0  0  0  0  0  0  0  0  0  0  0
   16.5160  -15.5588  -11.8818 C   0  0  0  0  0  0  0  0  0  0  0  0
   16.2005  -15.9832  -10.5935 C   0  0  0  0  0  0  0  0  0  0  0  0
   15.8975  -14.9733   -9.5894 C   0  0  0  0  0  0  0  0  0  0  0  0
   16.5492  -14.9996   -8.3505 C   0  0  0  0  0  0  0  0  0  0  0  0
   16.2184  -14.0265   -7.4385 C   0  0  0  0  0  0  0  0  0  0  0  0
   16.8972  -14.0472   -6.1337 C   0  0  0  0  0  0  0  0  0  0  0  0
   17.7469  -14.9456   -5.9071 O   0  0  0  0  0  0  0  0  0  0  0  0
   16.5477  -13.0446   -5.2070 N   0  0  0  0  0  0  0  0  0  0  0  0
   15.6750  -12.1334   -5.4582 C   0  0  0  0  0  0  0  0  0  0  0  0
   14.9333  -12.0076   -6.7164 C   0  0  0  0  0  0  0  0  0  0  0  0
   15.2933  -13.0534   -7.6951 C   0  0  0  0  0  0  0  0  0  0  0  0
   14.7050  -13.0857   -8.9044 N   0  0  0  0  0  0  0  0  0  0  0  0
   14.9670  -13.9994   -9.8563 C   0  0  0  0  0  0  0  0  0  0  0  0
   14.2844  -13.9754  -11.1568 C   0  0  0  0  0  0  0  0  0  0  0  0
   14.3124  -12.9016  -12.0152 C   0  0  0  0  0  0  0  0  0  0  0  0
   13.6696  -12.9107  -13.2380 C   0  0  0  0  0  0  0  0  0  0  0  0
   13.5633  -15.0854  -11.5915 C   0  0  0  0  0  0  0  0  0  0  0  0
   12.9218  -15.0921  -12.8124 C   0  0  0  0  0  0  0  0  0  0  0  0
   12.9553  -14.0094  -13.6703 C   0  0  0  0  0  0  0  0  0  0  0  0
   12.2590  -14.0342  -14.9869 C   0  0  0  0  0  0  0  0  0  0  0  0
   11.4743  -15.2394  -15.1790 N   0  0  1  0  0  4  0  0  0  0  0  0
   10.2154  -15.0901  -14.5342 C   0  0  0  0  0  0  0  0  0  0  0  0
    9.0499  -15.4020  -15.4895 C   0  0  0  0  0  0  0  0  0  0  0  0
   11.3985  -15.5041  -16.5896 C   0  0  0  0  0  0  0  0  0  0  0  0
   10.4279  -14.7122  -17.3748 C   0  0  0  0  0  0  0  0  0  0  0  0
    9.2184  -14.3725  -16.5903 C   0  0  1  0  0  0  0  0  0  0  0  0
    8.0150  -14.1426  -17.3271 N   0  0  0  0  0  0  0  0  0  0  0  0
    7.0956  -15.0377  -17.7143 C   0  0  0  0  0  0  0  0  0  0  0  0
    6.9915  -16.4012  -17.5574 C   0  0  0  0  0  0  0  0  0  0  0  0
    7.5461  -12.9432  -17.7860 C   0  0  0  0  0  0  0  0  0  0  0  0
    8.1441  -11.8383  -17.6170 O   0  0  0  0  0  0  0  0  0  0  0  0
    6.3960  -13.0845  -18.4245 N   0  0  0  0  0  0  0  0  0  0  0  0
    5.5776  -12.0668  -19.0545 C   0  0  0  0  0  0  0  0  0  0  0  0
    6.0906  -14.3804  -18.3951 C   0  0  0  0  0  0  0  0  0  0  0  0
    5.0144  -15.0759  -18.9015 C   0  0  0  0  0  0  0  0  0  0  0  0
    4.9350  -16.4412  -18.7297 C   0  0  0  0  0  0  0  0  0  0  0  0
    5.9257  -17.1213  -18.0537 C   0  0  0  0  0  0  0  0  0  0  0  0
    5.8266  -18.5307  -17.8875 N   0  0  0  0  0  0  0  0  0  0  0  0
    7.0146  -19.3343  -17.9652 C   0  0  0  0  0  0  0  0  0  0  0  0
    8.1121  -18.7850  -17.7430 O   0  0  0  0  0  0  0  0  0  0  0  0
    6.9649  -20.7666  -18.2966 C   0  0  0  0  0  0  0  0  0  0  0  0
    8.3225  -21.2028  -18.7887 C   0  0  0  0  0  0  0  0  0  0  0  0
  1  2  2  0
  1  6  1  0
  2  3  1  0
  3  4  2  0
  4  5  1  0
  5  6  2  0
  6  7  1  0
  7  8  2  0
  7 17  1  0
  8  9  1  0
  9 10  1  0
  9 15  2  0
 10 11  2  0
 10 12  1  0
 12 13  2  0
 14 13  1  1
 14 15  1  0
 15 16  1  0
 16 17  2  0
 17 18  1  0
 18 19  2  0
 18 21  1  0
 19 20  1  0
 20 23  2  0
 21 22  2  0
 22 23  1  0
 24 23  1  1
 25 24  1  6
 26 25  1  1
 28 25  1  1
 27 26  1  1
 27 30  1  0
 29 28  1  1
 29 30  1  0
 30 31  1  6
 31 32  1  0
 31 34  1  0
 32 33  2  0
 32 38  1  0
 33 41  1  0
 34 35  2  0
 34 36  1  0
 37 36  1  6
 36 38  1  0
 38 39  2  0
 39 40  1  0
 40 41  2  0
 41 42  1  0
 42 43  1  0
 43 44  2  0
 45 43  1  1
 46 45  1  6
M  CHG  1  25   1
M  END
$$$$
