
     RDKit          3D

 46 52  0  0  0  0  0  0  0  0999 V2000
   16.4175  -14.3664  -11.2283 C   0  0  0  0  0  0  0  0  0  0  0  0
   17.0134  -14.6646  -12.4279 C   0  0  0  0  0  0  0  0  0  0  0  0
   18.2075  -14.0671  -12.7715 C   0  0  0  0  0  0  0  0  0  0  0  0
   18.7668  -13.1756  -11.8784 C   0  0  0  0  0  0  0  0  0  0  0  0
   18.1641  -12.8698  -10.6582 C   0  0  0  0  0  0  0  0  0  0  0  0
   16.9843  -13.4713  -10.3378 C   0  0  0  0  0  0  0  0  0  0  0  0
   16.2649  -13.2222   -9.0840 C   0  0  0  0  0  0  0  0  0  0  0  0
   16.9151  -13.4295   -7.8876 C   0  0  0  0  0  0  0  0  0  0  0  0
   16.1833  -13.1757   -6.7200 C   0  0  0  0  0  0  0  0  0  0  0  0
   16.7733  -13.3625   -5.4115 C   0  0  0  0  0  0  0  0  0  0  0  0
   17.9831  -13.7663   -5.3922 O   0  0  0  0  0  0  0  0  0  0  0  0
   16.0444  -13.1099   -4.2348 N   0  0  0  0  0  0  0  0  0  0  0  0
   14.8336  -12.7059   -4.2970 C   0  0  0  0  0  0  0  0  0  0  0  0
   14.1036  -12.4717   -5.5488 C   0  0  0  0  0  0  0  0  0  0  0  0
   14.8813  -12.7414   -6.7696 C   0  0  0  0  0  0  0  0  0  0  0  0
   14.3123  -12.5616   -8.0017 N   0  0  0  0  0  0  0  0  0  0  0  0
   14.9487  -12.7833   -9.1393 C   0  0  0  0  0  0  0  0  0  0  0  0
   14.3354  -12.5914  -10.4582 C   0  0  0  0  0  0  0  0  0  0  0  0
   14.7621  -11.6387  -11.3578 C   0  0  0  0  0  0  0  0  0  0  0  0
   14.1513  -11.4892  -12.6035 C   0  0  0  0  0  0  0  0  0  0  0  0
   13.2795  -13.3927  -10.8376 C   0  0  0  0  0  0  0  0  0  0  0  0
   12.6767  -13.2439  -12.0693 C   0  0  0  0  0  0  0  0  0  0  0  0
   13.0950  -12.2911  -12.9828 C   0  0  0  0  0  0  0  0  0  0  0  0
   12.4352  -12.1466  -14.3084 C   0  0  0  0  0  0  0  0  0  0  0  0
   12.1844  -13.4224  -14.9570 N   0  0  1  0  0  4  0  0  0  0  0  0
   10.8404  -13.8058  -14.5813 C   0  0  0  0  0  0  0  0  0  0  0  0
    9.8785  -13.5420  -15.7397 C   0  0  0  0  0  0  0  0  0  0  0  0
   12.3986  -13.2724  -16.3492 C   0  0  0  0  0  0  0  0  0  0  0  0
   11.6582  -14.2136  -17.2513 C   0  0  0  0  0  0  0  0  0  0  0  0
   10.2794  -14.5586  -16.8194 C   0  0  1  0  0  0  0  0  0  0  0  0
   10.0896  -15.8960  -16.3555 N   0  0  0  0  0  0  0  0  0  0  0  0
    8.9604  -16.6119  -16.6210 C   0  0  0  0  0  0  0  0  0  0  0  0
    7.7947  -16.3055  -17.3323 C   0  0  0  0  0  0  0  0  0  0  0  0
   10.8538  -16.7097  -15.6319 C   0  0  0  0  0  0  0  0  0  0  0  0
   11.9861  -16.4245  -15.1844 O   0  0  0  0  0  0  0  0  0  0  0  0
   10.2749  -17.9010  -15.4227 N   0  0  0  0  0  0  0  0  0  0  0  0
   10.8480  -19.0197  -14.6670 C   0  0  0  0  0  0  0  0  0  0  0  0
    9.0870  -17.8523  -16.0379 C   0  0  0  0  0  0  0  0  0  0  0  0
    8.0665  -18.7829  -16.1580 C   0  0  0  0  0  0  0  0  0  0  0  0
    6.9308  -18.4532  -16.8640 C   0  0  0  0  0  0  0  0  0  0  0  0
    6.7616  -17.2074  -17.4709 C   0  0  0  0  0  0  0  0  0  0  0  0
    5.5692  -16.9246  -18.1862 N   0  0  0  0  0  0  0  0  0  0  0  0
    4.9947  -17.8118  -19.1444 C   0  0  0  0  0  0  0  0  0  0  0  0
    5.4374  -18.9784  -19.2092 O   0  0  0  0  0  0  0  0  0  0  0  0
    3.9049  -17.4027  -20.0543 C   0  0  0  0  0  0  0  0  0  0  0  0
    3.2720  -18.6427  -20.6406 C   0  0  0  0  0  0  0  0  0  0  0  0
  1  2  2  0
  1  6  1  0
  2  3  1  0
  3  4  2  0
  4  5  1  0
  5  6  2  0
  6  7  1  0
  7  8  2  0
  7 17  1  0
  8  9  1  0
  9 10  1  0
  9 15  2  0
 10 11  2  0
 10 12  1  0
 12 13  2  0
 13 14  1  0
 14 15  1  0
 15 16  1  0
 16 17  2  0
 17 18  1  0
 18 19  2  0
 18 21  1  0
 19 20  1  0
 20 23  2  0
 21 22  2  0
 22 23  1  0
 23 24  1  0
 25 24  1  1
 25 26  1  0
 25 28  1  0
 26 27  1  0
 27 30  1  0
 28 29  1  0
 29 30  1  0
 30 31  1  1
 31 32  1  0
 31 34  1  0
 32 33  2  0
 32 38  1  0
 33 41  1  0
 34 35  2  0
 34 36  1  0
 36 37  1  0
 36 38  1  0
 38 39  2  0
 39 40  1  0
 40 41  2  0
 41 42  1  0
 42 43  1  0
 43 44  2  0
 43 45  1  0
 45 46  1  0
M  CHG  1  25   1
M  END
$$$$
