
     RDKit          3D

 46 52  0  0  0  0  0  0  0  0999 V2000
   14.2024  -13.6230   -7.9707 C   0  0  0  0  0  0  0  0  0  0  0  0
   13.1820  -12.7091   -7.8889 C   0  0  0  0  0  0  0  0  0  0  0  0
   13.4239  -11.4496   -7.3829 C   0  0  0  0  0  0  0  0  0  0  0  0
   14.7073  -11.1521   -6.9708 C   0  0  0  0  0  0  0  0  0  0  0  0
   15.7470  -12.0783   -7.0523 C   0  0  0  0  0  0  0  0  0  0  0  0
   15.4868  -13.3175   -7.5554 C   0  0  0  0  0  0  0  0  0  0  0  0
   16.5036  -14.3668   -7.6847 C   0  0  0  0  0  0  0  0  0  0  0  0
   17.1961  -14.7684   -6.5639 C   0  0  0  0  0  0  0  0  0  0  0  0
   18.1551  -15.7743   -6.7420 C   0  0  0  0  0  0  0  0  0  0  0  0
   18.9378  -16.2676   -5.6288 C   0  0  0  0  0  0  0  0  0  0  0  0
   18.7004  -15.7352   -4.4943 O   0  0  0  0  0  0  0  0  0  0  0  0
   19.9027  -17.2773   -5.8003 N   0  0  0  0  0  0  0  0  0  0  0  0
   20.1105  -17.7854   -6.9543 C   0  0  0  0  0  0  0  0  0  0  0  0
   19.3959  -17.3880   -8.1733 C   0  0  0  0  0  0  0  0  0  0  0  0
   18.3907  -16.3305   -7.9754 C   0  0  0  0  0  0  0  0  0  0  0  0
   17.6567  -15.8716   -9.0360 N   0  0  0  0  0  0  0  0  0  0  0  0
   16.7382  -14.9259   -8.9338 C   0  0  0  0  0  0  0  0  0  0  0  0
   15.9547  -14.4350  -10.0728 C   0  0  0  0  0  0  0  0  0  0  0  0
   15.2341  -15.2627  -10.9064 C   0  0  0  0  0  0  0  0  0  0  0  0
   14.5007  -14.7549  -11.9794 C   0  0  0  0  0  0  0  0  0  0  0  0
   15.9226  -13.0829  -10.3409 C   0  0  0  0  0  0  0  0  0  0  0  0
   15.1971  -12.5822  -11.4018 C   0  0  0  0  0  0  0  0  0  0  0  0
   14.4688  -13.4021  -12.2472 C   0  0  0  0  0  0  0  0  0  0  0  0
   13.6892  -12.8446  -13.3852 C   0  0  0  0  0  0  0  0  0  0  0  0
   13.2561  -13.8632  -14.3265 N   0  0  1  0  0  4  0  0  0  0  0  0
   11.8782  -14.1559  -13.9946 C   0  0  0  0  0  0  0  0  0  0  0  0
   10.9439  -13.4771  -14.9962 C   0  0  0  0  0  0  0  0  0  0  0  0
   13.4675  -13.3831  -15.6422 C   0  0  0  0  0  0  0  0  0  0  0  0
   12.5914  -13.9524  -16.7175 C   0  0  0  0  0  0  0  0  0  0  0  0
   11.1851  -14.2186  -16.3197 C   0  0  1  0  0  0  0  0  0  0  0  0
   10.8210  -15.5950  -16.2064 N   0  0  0  0  0  0  0  0  0  0  0  0
    9.5562  -16.0422  -16.4482 C   0  0  0  0  0  0  0  0  0  0  0  0
    8.3807  -15.3860  -16.8305 C   0  0  0  0  0  0  0  0  0  0  0  0
   11.5156  -16.6808  -15.8771 C   0  0  0  0  0  0  0  0  0  0  0  0
   12.7300  -16.6950  -15.5794 O   0  0  0  0  0  0  0  0  0  0  0  0
   10.7646  -17.7916  -15.8958 N   0  0  0  0  0  0  0  0  0  0  0  0
   11.2223  -19.1496  -15.5839 C   0  0  0  0  0  0  0  0  0  0  0  0
    9.5338  -17.4045  -16.2524 C   0  0  0  0  0  0  0  0  0  0  0  0
    8.3556  -18.1123  -16.4338 C   0  0  0  0  0  0  0  0  0  0  0  0
    7.2143  -17.4396  -16.8102 C   0  0  0  0  0  0  0  0  0  0  0  0
    7.1929  -16.0594  -17.0192 C   0  0  0  0  0  0  0  0  0  0  0  0
    5.9865  -15.4208  -17.4069 N   0  0  0  0  0  0  0  0  0  0  0  0
    5.6188  -14.1077  -16.9875 C   0  0  0  0  0  0  0  0  0  0  0  0
    6.2017  -13.6194  -15.9959 O   0  0  0  0  0  0  0  0  0  0  0  0
    4.5824  -13.3129  -17.6782 C   0  0  0  0  0  0  0  0  0  0  0  0
    4.4354  -11.9874  -16.9688 C   0  0  0  0  0  0  0  0  0  0  0  0
  1  2  2  0
  1  6  1  0
  2  3  1  0
  3  4  2  0
  4  5  1  0
  5  6  2  0
  6  7  1  0
  7  8  2  0
  7 17  1  0
  8  9  1  0
  9 10  1  0
  9 15  2  0
 10 11  2  0
 10 12  1  0
 12 13  2  0
 13 14  1  0
 14 15  1  0
 15 16  1  0
 16 17  2  0
 17 18  1  0
 18 19  2  0
 18 21  1  0
 19 20  1  0
 20 23  2  0
 21 22  2  0
 22 23  1  0
 23 24  1  0
 25 24  1  1
 25 26  1  0
 25 28  1  0
 26 27  1  0
 27 30  1  0
 28 29  1  0
 29 30  1  0
 30 31  1  1
 31 32  1  0
 31 34  1  0
 32 33  2  0
 32 38  1  0
 33 41  1  0
 34 35  2  0
 34 36  1  0
 36 37  1  0
 36 38  1  0
 38 39  2  0
 39 40  1  0
 40 41  2  0
 41 42  1  0
 42 43  1  0
 43 44  2  0
 43 45  1  0
 45 46  1  0
M  CHG  1  25   1
M  END
$$$$
