
     RDKit          3D

 46 52  0  0  0  0  0  0  0  0999 V2000
   15.8544  -11.8820   -9.2033 C   0  0  0  0  0  0  0  0  0  0  0  0
   15.0748  -10.8122   -9.5753 C   0  0  0  0  0  0  0  0  0  0  0  0
   13.7929  -11.0375  -10.0263 C   0  0  0  0  0  0  0  0  0  0  0  0
   13.3280  -12.3309  -10.0917 C   0  0  0  0  0  0  0  0  0  0  0  0
   14.1232  -13.3938   -9.7145 C   0  0  0  0  0  0  0  0  0  0  0  0
   15.4216  -13.1844   -9.2563 C   0  0  0  0  0  0  0  0  0  0  0  0
   16.2139  -14.3448   -8.8746 C   0  0  0  0  0  0  0  0  0  0  0  0
   16.8845  -14.3614   -7.6456 C   0  0  0  0  0  0  0  0  0  0  0  0
   17.6233  -15.4792   -7.3409 C   0  0  0  0  0  0  0  0  0  0  0  0
   18.3324  -15.5049   -6.0523 C   0  0  0  0  0  0  0  0  0  0  0  0
   18.2339  -14.5125   -5.2868 O   0  0  0  0  0  0  0  0  0  0  0  0
   19.0876  -16.6564   -5.7527 N   0  0  0  0  0  0  0  0  0  0  0  0
   19.1759  -17.6621   -6.5501 C   0  0  0  0  0  0  0  0  0  0  0  0
   18.5187  -17.7553   -7.8572 C   0  0  0  0  0  0  0  0  0  0  0  0
   17.7234  -16.5535   -8.1802 C   0  0  0  0  0  0  0  0  0  0  0  0
   17.0542  -16.4725   -9.3443 N   0  0  0  0  0  0  0  0  0  0  0  0
   16.3082  -15.4194   -9.7240 C   0  0  0  0  0  0  0  0  0  0  0  0
   15.6041  -15.3981  -11.0130 C   0  0  0  0  0  0  0  0  0  0  0  0
   15.8162  -14.4485  -11.9844 C   0  0  0  0  0  0  0  0  0  0  0  0
   15.1469  -14.4591  -13.1930 C   0  0  0  0  0  0  0  0  0  0  0  0
   14.6659  -16.3824  -11.3165 C   0  0  0  0  0  0  0  0  0  0  0  0
   13.9984  -16.3908  -12.5234 C   0  0  0  0  0  0  0  0  0  0  0  0
   14.2176  -15.4335  -13.4953 C   0  0  0  0  0  0  0  0  0  0  0  0
   13.4901  -15.4587  -14.7949 C   0  0  0  0  0  0  0  0  0  0  0  0
   12.7051  -14.2587  -15.0167 N   0  0  1  0  0  4  0  0  0  0  0  0
   12.4966  -14.0830  -16.4127 C   0  0  0  0  0  0  0  0  0  0  0  0
   11.0057  -13.8908  -16.7422 C   0  0  0  0  0  0  0  0  0  0  0  0
   11.5014  -14.3610  -14.2382 C   0  0  0  0  0  0  0  0  0  0  0  0
   10.4159  -15.2061  -14.7797 C   0  0  0  0  0  0  0  0  0  0  0  0
   10.3743  -15.1827  -16.2600 C   0  0  1  0  0  0  0  0  0  0  0  0
    9.1110  -15.4486  -16.8743 N   0  0  0  0  0  0  0  0  0  0  0  0
    8.1008  -14.5962  -17.0962 C   0  0  0  0  0  0  0  0  0  0  0  0
    7.9284  -13.2575  -16.8264 C   0  0  0  0  0  0  0  0  0  0  0  0
    8.6735  -16.6429  -17.3754 C   0  0  0  0  0  0  0  0  0  0  0  0
    9.3548  -17.7117  -17.3534 O   0  0  0  0  0  0  0  0  0  0  0  0
    7.4559  -16.5391  -17.8825 N   0  0  0  0  0  0  0  0  0  0  0  0
    6.6426  -17.5649  -18.5058 C   0  0  0  0  0  0  0  0  0  0  0  0
    7.0738  -15.2733  -17.7224 C   0  0  0  0  0  0  0  0  0  0  0  0
    5.9097  -14.6213  -18.0661 C   0  0  0  0  0  0  0  0  0  0  0  0
    5.7635  -13.2800  -17.7846 C   0  0  0  0  0  0  0  0  0  0  0  0
    6.7742  -12.5809  -17.1596 C   0  0  0  0  0  0  0  0  0  0  0  0
    6.6043  -11.1972  -16.8763 N   0  0  0  0  0  0  0  0  0  0  0  0
    7.6132  -10.5028  -16.1259 C   0  0  0  0  0  0  0  0  0  0  0  0
    8.6059  -11.1494  -15.7359 O   0  0  0  0  0  0  0  0  0  0  0  0
    7.5017   -9.0699  -15.8124 C   0  0  0  0  0  0  0  0  0  0  0  0
    7.5201   -8.8936  -14.3143 C   0  0  0  0  0  0  0  0  0  0  0  0
  1  2  2  0
  1  6  1  0
  2  3  1  0
  3  4  2  0
  4  5  1  0
  5  6  2  0
  6  7  1  0
  7  8  2  0
  7 17  1  0
  8  9  1  0
  9 10  1  0
  9 15  2  0
 10 11  2  0
 10 12  1  0
 12 13  2  0
 14 13  1  1
 14 15  1  0
 15 16  1  0
 16 17  2  0
 17 18  1  0
 18 19  2  0
 18 21  1  0
 19 20  1  0
 20 23  2  0
 21 22  2  0
 22 23  1  0
 24 23  1  1
 25 24  1  6
 26 25  1  1
 28 25  1  1
 27 26  1  1
 27 30  1  0
 29 28  1  1
 29 30  1  0
 30 31  1  1
 31 32  1  0
 31 34  1  0
 32 33  2  0
 32 38  1  0
 33 41  1  0
 34 35  2  0
 34 36  1  0
 37 36  1  6
 36 38  1  0
 38 39  2  0
 39 40  1  0
 40 41  2  0
 41 42  1  0
 42 43  1  0
 43 44  2  0
 45 43  1  1
 46 45  1  6
M  CHG  1  25   1
M  END
$$$$
