
     RDKit          3D

 46 52  0  0  0  0  0  0  0  0999 V2000
   13.8998  -14.4158  -11.0639 C   0  0  0  0  0  0  0  0  0  0  0  0
   13.1062  -13.3440  -11.3987 C   0  0  0  0  0  0  0  0  0  0  0  0
   13.4236  -12.0939  -10.9151 C   0  0  0  0  0  0  0  0  0  0  0  0
   14.5294  -11.9533  -10.1083 C   0  0  0  0  0  0  0  0  0  0  0  0
   15.3157  -13.0394   -9.7815 C   0  0  0  0  0  0  0  0  0  0  0  0
   15.0095  -14.3103  -10.2615 C   0  0  0  0  0  0  0  0  0  0  0  0
   15.8745  -15.4181   -9.8812 C   0  0  0  0  0  0  0  0  0  0  0  0
   16.4889  -15.4270   -8.6231 C   0  0  0  0  0  0  0  0  0  0  0  0
   17.3006  -16.4937   -8.3208 C   0  0  0  0  0  0  0  0  0  0  0  0
   17.9513  -16.5108   -7.0016 C   0  0  0  0  0  0  0  0  0  0  0  0
   17.7396  -15.5579   -6.2093 O   0  0  0  0  0  0  0  0  0  0  0  0
   18.7823  -17.6096   -6.7047 N   0  0  0  0  0  0  0  0  0  0  0  0
   18.9863  -18.5754   -7.5297 C   0  0  0  0  0  0  0  0  0  0  0  0
   18.3976  -18.6720   -8.8688 C   0  0  0  0  0  0  0  0  0  0  0  0
   17.5237  -17.5253   -9.1893 C   0  0  0  0  0  0  0  0  0  0  0  0
   16.9027  -17.4546  -10.3805 N   0  0  0  0  0  0  0  0  0  0  0  0
   16.0924  -16.4502  -10.7601 C   0  0  0  0  0  0  0  0  0  0  0  0
   15.4469  -16.4371  -12.0796 C   0  0  0  0  0  0  0  0  0  0  0  0
   14.6111  -17.4308  -12.5317 C   0  0  0  0  0  0  0  0  0  0  0  0
   14.0087  -17.3872  -13.7743 C   0  0  0  0  0  0  0  0  0  0  0  0
   15.6569  -15.3721  -12.9530 C   0  0  0  0  0  0  0  0  0  0  0  0
   15.0550  -15.3309  -14.1933 C   0  0  0  0  0  0  0  0  0  0  0  0
   14.2152  -16.3329  -14.6404 C   0  0  0  0  0  0  0  0  0  0  0  0
   13.5708  -16.2715  -15.9820 C   0  0  0  0  0  0  0  0  0  0  0  0
   12.8066  -15.0536  -16.1771 N   0  0  1  0  0  4  0  0  0  0  0  0
   12.4790  -14.9181  -17.5546 C   0  0  0  0  0  0  0  0  0  0  0  0
   10.9712  -14.6864  -17.7573 C   0  0  0  0  0  0  0  0  0  0  0  0
   11.6752  -15.0884  -15.2916 C   0  0  0  0  0  0  0  0  0  0  0  0
   10.5198  -15.9138  -15.7033 C   0  0  0  0  0  0  0  0  0  0  0  0
   10.3460  -15.9390  -17.1740 C   0  0  1  0  0  0  0  0  0  0  0  0
    9.0250  -16.1822  -17.6635 N   0  0  0  0  0  0  0  0  0  0  0  0
    7.9571  -15.3743  -17.6058 C   0  0  0  0  0  0  0  0  0  0  0  0
    7.7628  -14.1143  -17.0868 C   0  0  0  0  0  0  0  0  0  0  0  0
    8.5780  -17.3023  -18.3075 C   0  0  0  0  0  0  0  0  0  0  0  0
    9.3032  -18.3116  -18.5574 O   0  0  0  0  0  0  0  0  0  0  0  0
    7.3002  -17.1967  -18.6334 N   0  0  0  0  0  0  0  0  0  0  0  0
    6.4574  -18.1558  -19.3206 C   0  0  0  0  0  0  0  0  0  0  0  0
    6.8868  -16.0042  -18.2083 C   0  0  0  0  0  0  0  0  0  0  0  0
    5.6593  -15.3833  -18.2855 C   0  0  0  0  0  0  0  0  0  0  0  0
    5.4924  -14.1209  -17.7578 C   0  0  0  0  0  0  0  0  0  0  0  0
    6.5455  -13.4703  -17.1506 C   0  0  0  0  0  0  0  0  0  0  0  0
    6.3534  -12.1681  -16.6109 N   0  0  0  0  0  0  0  0  0  0  0  0
    7.4857  -11.4381  -16.1128 C   0  0  0  0  0  0  0  0  0  0  0  0
    8.5540  -12.0574  -15.9367 O   0  0  0  0  0  0  0  0  0  0  0  0
    7.4129  -10.0004  -15.8103 C   0  0  0  0  0  0  0  0  0  0  0  0
    7.8673   -9.7753  -14.3896 C   0  0  0  0  0  0  0  0  0  0  0  0
  1  2  2  0
  1  6  1  0
  2  3  1  0
  3  4  2  0
  4  5  1  0
  5  6  2  0
  6  7  1  0
  7  8  2  0
  7 17  1  0
  8  9  1  0
  9 10  1  0
  9 15  2  0
 10 11  2  0
 10 12  1  0
 12 13  2  0
 14 13  1  1
 14 15  1  0
 15 16  1  0
 16 17  2  0
 17 18  1  0
 18 19  2  0
 18 21  1  0
 19 20  1  0
 20 23  2  0
 21 22  2  0
 22 23  1  0
 24 23  1  1
 25 24  1  6
 26 25  1  1
 28 25  1  1
 27 26  1  1
 27 30  1  0
 29 28  1  1
 29 30  1  0
 30 31  1  1
 31 32  1  0
 31 34  1  0
 32 33  2  0
 32 38  1  0
 33 41  1  0
 34 35  2  0
 34 36  1  0
 37 36  1  6
 36 38  1  0
 38 39  2  0
 39 40  1  0
 40 41  2  0
 41 42  1  0
 42 43  1  0
 43 44  2  0
 45 43  1  1
 46 45  1  6
M  CHG  1  25   1
M  END
$$$$
