
     RDKit          3D

 46 52  0  0  0  0  0  0  0  0999 V2000
   11.8523  -12.4918  -11.7584 C   0  0  0  0  0  0  0  0  0  0  0  0
   11.0961  -12.5825  -12.8999 C   0  0  0  0  0  0  0  0  0  0  0  0
   11.2561  -11.6556  -13.9080 C   0  0  0  0  0  0  0  0  0  0  0  0
   12.1884  -10.6540  -13.7255 C   0  0  0  0  0  0  0  0  0  0  0  0
   12.9588  -10.5585  -12.5667 C   0  0  0  0  0  0  0  0  0  0  0  0
   12.7851  -11.4846  -11.5826 C   0  0  0  0  0  0  0  0  0  0  0  0
   13.5397  -11.4780  -10.3247 C   0  0  0  0  0  0  0  0  0  0  0  0
   13.4237  -10.3954   -9.4813 C   0  0  0  0  0  0  0  0  0  0  0  0
   14.1644  -10.4398   -8.2927 C   0  0  0  0  0  0  0  0  0  0  0  0
   14.1135   -9.3530   -7.3381 C   0  0  0  0  0  0  0  0  0  0  0  0
   13.3621   -8.3691   -7.6451 O   0  0  0  0  0  0  0  0  0  0  0  0
   14.8548   -9.3907   -6.1427 N   0  0  0  0  0  0  0  0  0  0  0  0
   15.5963  -10.3956   -5.8717 C   0  0  0  0  0  0  0  0  0  0  0  0
   15.7483  -11.5689   -6.7406 C   0  0  0  0  0  0  0  0  0  0  0  0
   14.9661  -11.5122   -7.9867 C   0  0  0  0  0  0  0  0  0  0  0  0
   15.0227  -12.5460   -8.8824 N   0  0  0  0  0  0  0  0  0  0  0  0
   14.3489  -12.5644  -10.0199 C   0  0  0  0  0  0  0  0  0  0  0  0
   14.4132  -13.6731  -10.9785 C   0  0  0  0  0  0  0  0  0  0  0  0
   13.6515  -14.8158  -10.8636 C   0  0  0  0  0  0  0  0  0  0  0  0
   13.7424  -15.8478  -11.7984 C   0  0  0  0  0  0  0  0  0  0  0  0
   15.2703  -13.5892  -12.0553 C   0  0  0  0  0  0  0  0  0  0  0  0
   15.3591  -14.6099  -12.9787 C   0  0  0  0  0  0  0  0  0  0  0  0
   14.5999  -15.7634  -12.8756 C   0  0  0  0  0  0  0  0  0  0  0  0
   14.7061  -16.8533  -13.8827 C   0  0  0  0  0  0  0  0  0  0  0  0
   14.5451  -18.1760  -13.3032 N   0  0  1  0  0  4  0  0  0  0  0  0
   15.5194  -19.0221  -13.9583 C   0  0  0  0  0  0  0  0  0  0  0  0
   16.7130  -19.2579  -13.0329 C   0  0  0  0  0  0  0  0  0  0  0  0
   14.6867  -18.0748  -11.8974 C   0  0  0  0  0  0  0  0  0  0  0  0
   15.1478  -19.3051  -11.1751 C   0  0  0  0  0  0  0  0  0  0  0  0
   16.1578  -20.1248  -11.8927 C   0  0  1  0  0  0  0  0  0  0  0  0
   15.6992  -21.3839  -12.3867 N   0  0  0  0  0  0  0  0  0  0  0  0
   16.1072  -22.5726  -11.8588 C   0  0  0  0  0  0  0  0  0  0  0  0
   16.9812  -22.8895  -10.8127 C   0  0  0  0  0  0  0  0  0  0  0  0
   14.8611  -21.7097  -13.3672 C   0  0  0  0  0  0  0  0  0  0  0  0
   14.2647  -20.8944  -14.1043 O   0  0  0  0  0  0  0  0  0  0  0  0
   14.7135  -23.0366  -13.4921 N   0  0  0  0  0  0  0  0  0  0  0  0
   13.8650  -23.7234  -14.4715 C   0  0  0  0  0  0  0  0  0  0  0  0
   15.4899  -23.5889  -12.5519 C   0  0  0  0  0  0  0  0  0  0  0  0
   15.7363  -24.9102  -12.2119 C   0  0  0  0  0  0  0  0  0  0  0  0
   16.6013  -25.1918  -11.1778 C   0  0  0  0  0  0  0  0  0  0  0  0
   17.2481  -24.1921  -10.4490 C   0  0  0  0  0  0  0  0  0  0  0  0
   18.1287  -24.5430   -9.3931 N   0  0  0  0  0  0  0  0  0  0  0  0
   18.0215  -24.0206   -8.0699 C   0  0  0  0  0  0  0  0  0  0  0  0
   17.1709  -23.1314   -7.8528 O   0  0  0  0  0  0  0  0  0  0  0  0
   18.8735  -24.4901   -6.9578 C   0  0  0  0  0  0  0  0  0  0  0  0
   18.9124  -23.4203   -5.8921 C   0  0  0  0  0  0  0  0  0  0  0  0
  1  2  2  0
  1  6  1  0
  2  3  1  0
  3  4  2  0
  4  5  1  0
  5  6  2  0
  6  7  1  0
  7  8  2  0
  7 17  1  0
  8  9  1  0
  9 10  1  0
  9 15  2  0
 10 11  2  0
 10 12  1  0
 12 13  2  0
 13 14  1  0
 14 15  1  0
 15 16  1  0
 16 17  2  0
 17 18  1  0
 18 19  2  0
 18 21  1  0
 19 20  1  0
 20 23  2  0
 21 22  2  0
 22 23  1  0
 23 24  1  0
 25 24  1  6
 25 26  1  0
 25 28  1  0
 26 27  1  0
 27 30  1  0
 28 29  1  0
 29 30  1  0
 30 31  1  6
 31 32  1  0
 31 34  1  0
 32 33  2  0
 32 38  1  0
 33 41  1  0
 34 35  2  0
 34 36  1  0
 36 37  1  0
 36 38  1  0
 38 39  2  0
 39 40  1  0
 40 41  2  0
 41 42  1  0
 42 43  1  0
 43 44  2  0
 43 45  1  0
 45 46  1  0
M  CHG  1  25   1
M  END
$$$$
