
     RDKit          3D

 46 52  0  0  0  0  0  0  0  0999 V2000
   16.7892  -16.3230  -10.5181 C   0  0  0  0  0  0  0  0  0  0  0  0
   16.8814  -17.3829  -11.3849 C   0  0  0  0  0  0  0  0  0  0  0  0
   15.7406  -17.9120  -11.9503 C   0  0  0  0  0  0  0  0  0  0  0  0
   14.5279  -17.3438  -11.6157 C   0  0  0  0  0  0  0  0  0  0  0  0
   14.4302  -16.2665  -10.7351 C   0  0  0  0  0  0  0  0  0  0  0  0
   15.5696  -15.7586  -10.1874 C   0  0  0  0  0  0  0  0  0  0  0  0
   15.5821  -14.6301   -9.2503 C   0  0  0  0  0  0  0  0  0  0  0  0
   16.1519  -14.7992   -8.0078 C   0  0  0  0  0  0  0  0  0  0  0  0
   16.1387  -13.6899   -7.1518 C   0  0  0  0  0  0  0  0  0  0  0  0
   16.7111  -13.7621   -5.8244 C   0  0  0  0  0  0  0  0  0  0  0  0
   17.2200  -14.8833   -5.4913 O   0  0  0  0  0  0  0  0  0  0  0  0
   16.7011  -12.6524   -4.9593 N   0  0  0  0  0  0  0  0  0  0  0  0
   16.1811  -11.5458   -5.3312 C   0  0  0  0  0  0  0  0  0  0  0  0
   15.5648  -11.3223   -6.6446 C   0  0  0  0  0  0  0  0  0  0  0  0
   15.5837  -12.4938   -7.5362 C   0  0  0  0  0  0  0  0  0  0  0  0
   15.0387  -12.4137   -8.7895 N   0  0  0  0  0  0  0  0  0  0  0  0
   15.0198  -13.4230   -9.6434 C   0  0  0  0  0  0  0  0  0  0  0  0
   14.4332  -13.3343  -10.9852 C   0  0  0  0  0  0  0  0  0  0  0  0
   15.1752  -13.4368  -12.1419 C   0  0  0  0  0  0  0  0  0  0  0  0
   14.5779  -13.3476  -13.3998 C   0  0  0  0  0  0  0  0  0  0  0  0
   13.0749  -13.1397  -11.1196 C   0  0  0  0  0  0  0  0  0  0  0  0
   12.4856  -13.0518  -12.3636 C   0  0  0  0  0  0  0  0  0  0  0  0
   13.2189  -13.1530  -13.5338 C   0  0  0  0  0  0  0  0  0  0  0  0
   12.5663  -13.0590  -14.8675 C   0  0  0  0  0  0  0  0  0  0  0  0
   11.4464  -13.9731  -15.0145 N   0  0  1  0  0  4  0  0  0  0  0  0
   11.2873  -14.1866  -16.4371 C   0  0  0  0  0  0  0  0  0  0  0  0
   11.8634  -15.5473  -16.8289 C   0  0  0  0  0  0  0  0  0  0  0  0
   11.7128  -15.1409  -14.2584 C   0  0  0  0  0  0  0  0  0  0  0  0
   11.0425  -16.4041  -14.7087 C   0  0  0  0  0  0  0  0  0  0  0  0
   10.9210  -16.5720  -16.1797 C   0  0  1  0  0  0  0  0  0  0  0  0
    9.6003  -16.4580  -16.7114 N   0  0  0  0  0  0  0  0  0  0  0  0
    9.1644  -17.2094  -17.7619 C   0  0  0  0  0  0  0  0  0  0  0  0
    9.7859  -18.1918  -18.5412 C   0  0  0  0  0  0  0  0  0  0  0  0
    8.5645  -15.6919  -16.3798 C   0  0  0  0  0  0  0  0  0  0  0  0
    8.5582  -14.8526  -15.4529 O   0  0  0  0  0  0  0  0  0  0  0  0
    7.4961  -15.9135  -17.1593 N   0  0  0  0  0  0  0  0  0  0  0  0
    6.1982  -15.2379  -17.0592 C   0  0  0  0  0  0  0  0  0  0  0  0
    7.8595  -16.8630  -18.0301 C   0  0  0  0  0  0  0  0  0  0  0  0
    7.1747  -17.4847  -19.0628 C   0  0  0  0  0  0  0  0  0  0  0  0
    7.8122  -18.4480  -19.8128 C   0  0  0  0  0  0  0  0  0  0  0  0
    9.1340  -18.8293  -19.5748 C   0  0  0  0  0  0  0  0  0  0  0  0
    9.7384  -19.8287  -20.3807 N   0  0  0  0  0  0  0  0  0  0  0  0
   11.1486  -20.0275  -20.4657 C   0  0  0  0  0  0  0  0  0  0  0  0
   11.8625  -19.6022  -19.5325 O   0  0  0  0  0  0  0  0  0  0  0  0
   11.7880  -20.7121  -21.6082 C   0  0  0  0  0  0  0  0  0  0  0  0
   13.2396  -20.9617  -21.2728 C   0  0  0  0  0  0  0  0  0  0  0  0
  1  2  2  0
  1  6  1  0
  2  3  1  0
  3  4  2  0
  4  5  1  0
  5  6  2  0
  6  7  1  0
  7  8  2  0
  7 17  1  0
  8  9  1  0
  9 10  1  0
  9 15  2  0
 10 11  2  0
 10 12  1  0
 12 13  2  0
 13 14  1  0
 14 15  1  0
 15 16  1  0
 16 17  2  0
 17 18  1  0
 18 19  2  0
 18 21  1  0
 19 20  1  0
 20 23  2  0
 21 22  2  0
 22 23  1  0
 23 24  1  0
 25 24  1  6
 25 26  1  0
 25 28  1  0
 26 27  1  0
 27 30  1  0
 28 29  1  0
 29 30  1  0
 30 31  1  6
 31 32  1  0
 31 34  1  0
 32 33  2  0
 32 38  1  0
 33 41  1  0
 34 35  2  0
 34 36  1  0
 36 37  1  0
 36 38  1  0
 38 39  2  0
 39 40  1  0
 40 41  2  0
 41 42  1  0
 42 43  1  0
 43 44  2  0
 43 45  1  0
 45 46  1  0
M  CHG  1  25   1
M  END
$$$$
