
     RDKit          3D

 46 52  0  0  0  0  0  0  0  0999 V2000
   13.2329  -16.6520   -8.6668 C   0  0  0  0  0  0  0  0  0  0  0  0
   12.5344  -17.8307   -8.7448 C   0  0  0  0  0  0  0  0  0  0  0  0
   13.1808  -18.9917   -9.1122 C   0  0  0  0  0  0  0  0  0  0  0  0
   14.5306  -18.9212   -9.3923 C   0  0  0  0  0  0  0  0  0  0  0  0
   15.2439  -17.7252   -9.3142 C   0  0  0  0  0  0  0  0  0  0  0  0
   14.5862  -16.5891   -8.9492 C   0  0  0  0  0  0  0  0  0  0  0  0
   15.2373  -15.2795   -8.8367 C   0  0  0  0  0  0  0  0  0  0  0  0
   15.8586  -14.9411   -7.6550 C   0  0  0  0  0  0  0  0  0  0  0  0
   16.4659  -13.6795   -7.6006 C   0  0  0  0  0  0  0  0  0  0  0  0
   17.1452  -13.2269   -6.4053 C   0  0  0  0  0  0  0  0  0  0  0  0
   17.1544  -14.0388   -5.4217 O   0  0  0  0  0  0  0  0  0  0  0  0
   17.7569  -11.9612   -6.3434 N   0  0  0  0  0  0  0  0  0  0  0  0
   17.7255  -11.1766   -7.3516 C   0  0  0  0  0  0  0  0  0  0  0  0
   17.0760  -11.4969   -8.6284 C   0  0  0  0  0  0  0  0  0  0  0  0
   16.4409  -12.8245   -8.6751 C   0  0  0  0  0  0  0  0  0  0  0  0
   15.8008  -13.2415   -9.8111 N   0  0  0  0  0  0  0  0  0  0  0  0
   15.2092  -14.4185   -9.9257 C   0  0  0  0  0  0  0  0  0  0  0  0
   14.5224  -14.8616  -11.1440 C   0  0  0  0  0  0  0  0  0  0  0  0
   13.3054  -14.3587  -11.5501 C   0  0  0  0  0  0  0  0  0  0  0  0
   12.6856  -14.8072  -12.7170 C   0  0  0  0  0  0  0  0  0  0  0  0
   15.1050  -15.8272  -11.9373 C   0  0  0  0  0  0  0  0  0  0  0  0
   14.4914  -16.2696  -13.0906 C   0  0  0  0  0  0  0  0  0  0  0  0
   13.2688  -15.7732  -13.5105 C   0  0  0  0  0  0  0  0  0  0  0  0
   12.6227  -16.2597  -14.7592 C   0  0  0  0  0  0  0  0  0  0  0  0
   11.6366  -15.3306  -15.2844 N   0  0  1  0  0  4  0  0  0  0  0  0
   10.9958  -16.0090  -16.3906 C   0  0  0  0  0  0  0  0  0  0  0  0
    9.6204  -16.5212  -15.9634 C   0  0  0  0  0  0  0  0  0  0  0  0
   10.7695  -14.9477  -14.2318 C   0  0  0  0  0  0  0  0  0  0  0  0
    9.3890  -14.5101  -14.6198 C   0  0  0  0  0  0  0  0  0  0  0  0
    8.7795  -15.2530  -15.7527 C   0  0  1  0  0  0  0  0  0  0  0  0
    8.6434  -14.5234  -16.9730 N   0  0  0  0  0  0  0  0  0  0  0  0
    7.5154  -13.8265  -17.2898 C   0  0  0  0  0  0  0  0  0  0  0  0
    6.3052  -13.6330  -16.6141 C   0  0  0  0  0  0  0  0  0  0  0  0
    9.4637  -14.3426  -18.0045 C   0  0  0  0  0  0  0  0  0  0  0  0
   10.6137  -14.8240  -18.1020 O   0  0  0  0  0  0  0  0  0  0  0  0
    8.9217  -13.5712  -18.9581 N   0  0  0  0  0  0  0  0  0  0  0  0
    9.5592  -13.1802  -20.2196 C   0  0  0  0  0  0  0  0  0  0  0  0
    7.6999  -13.2411  -18.5218 C   0  0  0  0  0  0  0  0  0  0  0  0
    6.6931  -12.4695  -19.0812 C   0  0  0  0  0  0  0  0  0  0  0  0
    5.5127  -12.2967  -18.3930 C   0  0  0  0  0  0  0  0  0  0  0  0
    5.2841  -12.8721  -17.1417 C   0  0  0  0  0  0  0  0  0  0  0  0
    4.0475  -12.6584  -16.4795 N   0  0  0  0  0  0  0  0  0  0  0  0
    3.7211  -13.2301  -15.2139 C   0  0  0  0  0  0  0  0  0  0  0  0
    4.5659  -13.9682  -14.6635 O   0  0  0  0  0  0  0  0  0  0  0  0
    2.4310  -12.9822  -14.5378 C   0  0  0  0  0  0  0  0  0  0  0  0
    2.4033  -13.7632  -13.2451 C   0  0  0  0  0  0  0  0  0  0  0  0
  1  2  2  0
  1  6  1  0
  2  3  1  0
  3  4  2  0
  4  5  1  0
  5  6  2  0
  6  7  1  0
  7  8  2  0
  7 17  1  0
  8  9  1  0
  9 10  1  0
  9 15  2  0
 10 11  2  0
 10 12  1  0
 12 13  2  0
 13 14  1  0
 14 15  1  0
 15 16  1  0
 16 17  2  0
 17 18  1  0
 18 19  2  0
 18 21  1  0
 19 20  1  0
 20 23  2  0
 21 22  2  0
 22 23  1  0
 23 24  1  0
 25 24  1  1
 25 26  1  0
 25 28  1  0
 26 27  1  0
 27 30  1  0
 28 29  1  0
 29 30  1  0
 30 31  1  6
 31 32  1  0
 31 34  1  0
 32 33  2  0
 32 38  1  0
 33 41  1  0
 34 35  2  0
 34 36  1  0
 36 37  1  0
 36 38  1  0
 38 39  2  0
 39 40  1  0
 40 41  2  0
 41 42  1  0
 42 43  1  0
 43 44  2  0
 43 45  1  0
 45 46  1  0
M  CHG  1  25   1
M  END
$$$$
