
     RDKit          3D

 25 27  0  0  0  0  0  0  0  0999 V2000
   13.8415   28.6361   -3.4267 C   0  0  0  0  0  0  0  0  0  0  0  0
   12.4849   29.0830   -3.1661 C   0  0  0  0  0  0  0  0  0  0  0  0
   11.6603   29.5360   -4.3158 C   0  0  1  0  0  0  0  0  0  0  0  0
   10.1766   29.5578   -4.0839 C   0  0  0  0  0  0  0  0  0  0  0  0
   10.8192   31.7196   -4.2323 C   0  0  0  0  0  0  0  0  0  0  0  0
   12.0623   31.0501   -6.3116 C   0  0  0  0  0  0  0  0  0  0  0  0
   10.9897   34.4178   -7.5129 C   0  0  0  0  0  0  0  0  0  0  0  0
   13.3755   34.2986   -7.6258 C   0  0  0  0  0  0  0  0  0  0  0  0
   13.3752   33.0181   -7.1354 C   0  0  0  0  0  0  0  0  0  0  0  0
   16.4638   27.7409   -3.9518 C   0  0  0  0  0  0  0  0  0  0  0  0
   14.5008   24.9204   -5.2308 C   0  0  0  0  0  0  0  0  0  0  0  0
   12.1618   32.4259   -6.8273 C   0  0  0  0  0  0  0  0  0  0  0  0
   10.9806   33.1275   -7.0184 C   0  0  0  0  0  0  0  0  0  0  0  0
   12.1908   35.0182   -7.8224 C   0  0  0  0  0  0  0  0  0  0  0  0
   15.7852   34.2499   -7.6887 C   0  0  0  0  0  0  0  0  0  0  0  0
   14.9590   29.3881   -3.0961 C   0  0  0  0  0  0  0  0  0  0  0  0
   16.2502   28.9597   -3.3484 C   0  0  0  0  0  0  0  0  0  0  0  0
   15.3831   26.9812   -4.2879 C   0  0  0  0  0  0  0  0  0  0  0  0
   14.0956   27.4260   -4.0277 C   0  0  0  0  0  0  0  0  0  0  0  0
   11.9339   30.9026   -4.8328 C   0  0  2  0  0  0  0  0  0  0  0  0
   15.6062   25.7374   -4.9039 O   0  0  0  0  0  0  0  0  0  0  0  0
    9.7675   30.8684   -3.9828 O   0  0  0  0  0  0  0  0  0  0  0  0
   12.2157   36.3000   -8.3146 O   0  0  0  0  0  0  0  0  0  0  0  0
   14.5703   34.9249   -7.9452 O   0  0  0  0  0  0  0  0  0  0  0  0
   17.7662   27.2772   -4.2216 O   0  0  0  0  0  0  0  0  0  0  0  0
  1  2  1  0
  1 16  2  0
 19  1  1  0
  3  2  1  1
  3  4  1  0
  3 20  1  0
  4 22  1  0
 20  5  1  0
  5 22  1  0
  6 12  1  0
 20  6  1  6
 13  7  2  0
  7 14  1  0
  9  8  1  0
  8 14  2  0
  8 24  1  0
 12  9  2  0
 10 17  2  0
 18 10  1  0
 10 25  1  0
 21 11  1  0
 12 13  1  0
 14 23  1  0
 24 15  1  0
 17 16  1  0
 18 19  2  0
 18 21  1  0
M  END
$$$$
