
     RDKit          3D

 25 27  0  0  0  0  0  0  0  0999 V2000
   12.3455   33.0958   -6.7914 C   0  0  0  0  0  0  0  0  0  0  0  0
   11.1453   32.2262   -6.6570 C   0  0  0  0  0  0  0  0  0  0  0  0
   10.9657   31.8784   -5.2145 C   0  0  1  0  0  0  0  0  0  0  0  0
    9.5583   32.1365   -4.7196 C   0  0  0  0  0  0  0  0  0  0  0  0
    9.5524   30.0051   -5.2019 C   0  0  0  0  0  0  0  0  0  0  0  0
   11.6869   30.0173   -3.8434 C   0  0  0  0  0  0  0  0  0  0  0  0
   14.5782   27.9174   -4.9070 C   0  0  0  0  0  0  0  0  0  0  0  0
   15.3821   29.5740   -3.3357 C   0  0  0  0  0  0  0  0  0  0  0  0
   14.0874   30.0464   -3.2532 C   0  0  0  0  0  0  0  0  0  0  0  0
   14.5675   34.6750   -7.0983 C   0  0  0  0  0  0  0  0  0  0  0  0
   14.5749   32.9764  -10.3837 C   0  0  0  0  0  0  0  0  0  0  0  0
   13.0432   29.4851   -3.9707 C   0  0  0  0  0  0  0  0  0  0  0  0
   13.2787   28.4160   -4.8036 C   0  0  0  0  0  0  0  0  0  0  0  0
   15.5876   28.5039   -4.1770 C   0  0  0  0  0  0  0  0  0  0  0  0
   16.2156   31.2565   -1.7675 C   0  0  0  0  0  0  0  0  0  0  0  0
   12.7322   33.9313   -5.7713 C   0  0  0  0  0  0  0  0  0  0  0  0
   13.8418   34.7230   -5.9187 C   0  0  0  0  0  0  0  0  0  0  0  0
   14.1780   33.8322   -8.1283 C   0  0  0  0  0  0  0  0  0  0  0  0
   13.0614   33.0513   -7.9498 C   0  0  0  0  0  0  0  0  0  0  0  0
   10.9933   30.3444   -5.1186 C   0  0  2  0  0  0  0  0  0  0  0  0
   14.9359   33.8114   -9.3039 O   0  0  0  0  0  0  0  0  0  0  0  0
    8.8516   31.1780   -5.4791 O   0  0  0  0  0  0  0  0  0  0  0  0
   16.8876   27.9847   -4.2973 O   0  0  0  0  0  0  0  0  0  0  0  0
   16.4367   30.1432   -2.6091 O   0  0  0  0  0  0  0  0  0  0  0  0
   15.6867   35.4717   -7.2506 O   0  0  0  0  0  0  0  0  0  0  0  0
  2  1  1  1
  1 16  2  0
 19  1  1  0
  3  2  1  6
  3  4  1  0
  3 20  1  0
  4 22  1  6
 20  5  1  0
  5 22  1  6
  6 12  1  1
 20  6  1  1
 13  7  2  0
  7 14  1  0
  9  8  1  0
  8 14  2  0
  8 24  1  0
 12  9  2  0
 10 17  2  0
 18 10  1  0
 10 25  1  0
 11 21  1  6
 12 13  1  0
 14 23  1  0
 15 24  1  6
 17 16  1  0
 18 19  2  0
 18 21  1  0
M  END
$$$$
