
     RDKit          3D

 25 27  0  0  0  0  0  0  0  0999 V2000
   11.5924   32.3609   -6.7066 C   0  0  0  0  0  0  0  0  0  0  0  0
   12.0813   31.0115   -6.4875 C   0  0  0  0  0  0  0  0  0  0  0  0
   13.4308   30.8404   -5.8903 C   0  0  1  0  0  0  0  0  0  0  0  0
   13.7561   31.7554   -4.7445 C   0  0  0  0  0  0  0  0  0  0  0  0
   13.5607   29.6857   -3.8576 C   0  0  0  0  0  0  0  0  0  0  0  0
   15.0706   28.9126   -5.7121 C   0  0  0  0  0  0  0  0  0  0  0  0
   16.4550   26.4300   -3.2924 C   0  0  0  0  0  0  0  0  0  0  0  0
   15.4303   25.2391   -5.0954 C   0  0  0  0  0  0  0  0  0  0  0  0
   15.0677   26.4076   -5.7146 C   0  0  0  0  0  0  0  0  0  0  0  0
   10.6205   34.9782   -7.1052 C   0  0  0  0  0  0  0  0  0  0  0  0
    8.2871   33.7580   -4.5552 C   0  0  0  0  0  0  0  0  0  0  0  0
   15.4033   27.6091   -5.1133 C   0  0  0  0  0  0  0  0  0  0  0  0
   16.0935   27.6121   -3.9100 C   0  0  0  0  0  0  0  0  0  0  0  0
   16.1260   25.2280   -3.8806 C   0  0  0  0  0  0  0  0  0  0  0  0
   14.0710   23.9596   -6.6212 C   0  0  0  0  0  0  0  0  0  0  0  0
   12.1958   33.2472   -7.5866 C   0  0  0  0  0  0  0  0  0  0  0  0
   11.7283   34.5332   -7.7908 C   0  0  0  0  0  0  0  0  0  0  0  0
   10.0080   34.1279   -6.2334 C   0  0  0  0  0  0  0  0  0  0  0  0
   10.4900   32.8420   -6.0408 C   0  0  0  0  0  0  0  0  0  0  0  0
   13.7492   29.4966   -5.3406 C   0  0  2  0  0  0  0  0  0  0  0  0
    8.8771   34.5868   -5.5356 O   0  0  0  0  0  0  0  0  0  0  0  0
   13.7516   31.0198   -3.5808 O   0  0  0  0  0  0  0  0  0  0  0  0
   16.4783   24.0451   -3.2786 O   0  0  0  0  0  0  0  0  0  0  0  0
   15.1116   24.0168   -5.6666 O   0  0  0  0  0  0  0  0  0  0  0  0
   10.1205   36.2817   -7.2915 O   0  0  0  0  0  0  0  0  0  0  0  0
  1  2  1  0
  1 16  2  0
 19  1  1  0
  3  2  1  1
  3  4  1  0
  3 20  1  0
  4 22  1  0
 20  5  1  0
  5 22  1  0
  6 12  1  0
 20  6  1  1
 13  7  2  0
  7 14  1  0
  9  8  1  0
  8 14  2  0
  8 24  1  0
 12  9  2  0
 10 17  2  0
 18 10  1  0
 10 25  1  0
 21 11  1  0
 12 13  1  0
 14 23  1  0
 24 15  1  0
 17 16  1  0
 18 19  2  0
 18 21  1  0
M  END
$$$$
