
     RDKit          3D

 25 27  0  0  0  0  0  0  0  0999 V2000
   13.5251   32.1208   -6.6765 C   0  0  0  0  0  0  0  0  0  0  0  0
   12.6992   33.3217   -6.3758 C   0  0  0  0  0  0  0  0  0  0  0  0
   11.7823   32.9996   -5.2402 C   0  0  1  0  0  0  0  0  0  0  0  0
   10.8495   34.1418   -4.8972 C   0  0  0  0  0  0  0  0  0  0  0  0
    9.6425   32.8622   -6.1937 C   0  0  0  0  0  0  0  0  0  0  0  0
   10.4823   31.0447   -4.6468 C   0  0  0  0  0  0  0  0  0  0  0  0
   12.3221   27.8600   -5.2574 C   0  0  0  0  0  0  0  0  0  0  0  0
   13.1994   28.8669   -3.2384 C   0  0  0  0  0  0  0  0  0  0  0  0
   12.3004   29.8979   -3.4257 C   0  0  0  0  0  0  0  0  0  0  0  0
   15.0787   29.9155   -7.1750 C   0  0  0  0  0  0  0  0  0  0  0  0
   16.3800   30.8215   -3.8363 C   0  0  0  0  0  0  0  0  0  0  0  0
   11.4212   29.9335   -4.4962 C   0  0  0  0  0  0  0  0  0  0  0  0
   11.4237   28.9155   -5.4213 C   0  0  0  0  0  0  0  0  0  0  0  0
   13.1793   27.8626   -4.1798 C   0  0  0  0  0  0  0  0  0  0  0  0
   14.0912   29.8664   -1.1914 C   0  0  0  0  0  0  0  0  0  0  0  0
   13.3435   31.4095   -7.8382 C   0  0  0  0  0  0  0  0  0  0  0  0
   14.1169   30.3064   -8.0930 C   0  0  0  0  0  0  0  0  0  0  0  0
   15.2626   30.6326   -6.0025 C   0  0  0  0  0  0  0  0  0  0  0  0
   14.4716   31.7335   -5.7763 C   0  0  0  0  0  0  0  0  0  0  0  0
   10.7578   31.9826   -5.7687 C   0  0  2  0  0  0  0  0  0  0  0  0
   16.2432   30.2073   -5.1002 O   0  0  0  0  0  0  0  0  0  0  0  0
   10.0699   34.1838   -6.0742 O   0  0  0  0  0  0  0  0  0  0  0  0
   14.0746   26.7895   -4.0357 O   0  0  0  0  0  0  0  0  0  0  0  0
   14.0876   28.8328   -2.1550 O   0  0  0  0  0  0  0  0  0  0  0  0
   15.8602   28.8039   -7.4284 O   0  0  0  0  0  0  0  0  0  0  0  0
  2  1  1  1
  1 16  2  0
 19  1  1  0
  3  2  1  6
  3  4  1  0
  3 20  1  0
  4 22  1  6
 20  5  1  0
  5 22  1  6
  6 12  1  1
 20  6  1  1
 13  7  2  0
  7 14  1  0
  9  8  1  0
  8 14  2  0
  8 24  1  0
 12  9  2  0
 10 17  2  0
 18 10  1  0
 10 25  1  0
 11 21  1  6
 12 13  1  0
 14 23  1  0
 15 24  1  6
 17 16  1  0
 18 19  2  0
 18 21  1  0
M  END
$$$$
