
     RDKit          3D

 25 27  0  0  0  0  0  0  0  0999 V2000
   12.4156   30.1512   -3.9190 C   0  0  0  0  0  0  0  0  0  0  0  0
   11.0418   30.6092   -4.2621 C   0  0  0  0  0  0  0  0  0  0  0  0
   11.0510   31.1466   -5.6568 C   0  0  1  0  0  0  0  0  0  0  0  0
    9.6591   31.3809   -6.2044 C   0  0  0  0  0  0  0  0  0  0  0  0
   10.2643   33.3500   -5.4751 C   0  0  0  0  0  0  0  0  0  0  0  0
   12.3667   32.8369   -6.7861 C   0  0  0  0  0  0  0  0  0  0  0  0
   15.6608   31.4174   -5.7693 C   0  0  0  0  0  0  0  0  0  0  0  0
   15.2888   30.8757   -8.0990 C   0  0  0  0  0  0  0  0  0  0  0  0
   14.0821   31.5401   -8.0055 C   0  0  0  0  0  0  0  0  0  0  0  0
   14.9384   29.2542   -3.3223 C   0  0  0  0  0  0  0  0  0  0  0  0
   13.8000   26.4691   -5.4730 C   0  0  0  0  0  0  0  0  0  0  0  0
   13.6507   32.1382   -6.8324 C   0  0  0  0  0  0  0  0  0  0  0  0
   14.4355   32.0827   -5.7041 C   0  0  0  0  0  0  0  0  0  0  0  0
   16.0526   30.8362   -6.9543 C   0  0  0  0  0  0  0  0  0  0  0  0
   15.3608   30.8063  -10.5433 C   0  0  0  0  0  0  0  0  0  0  0  0
   13.2289   30.9012   -3.1039 C   0  0  0  0  0  0  0  0  0  0  0  0
   14.4908   30.4582   -2.8020 C   0  0  0  0  0  0  0  0  0  0  0  0
   14.1184   28.4968   -4.1449 C   0  0  0  0  0  0  0  0  0  0  0  0
   12.8590   28.9681   -4.4287 C   0  0  0  0  0  0  0  0  0  0  0  0
   11.5405   32.6013   -5.5712 C   0  0  2  0  0  0  0  0  0  0  0  0
   14.6054   27.2870   -4.6508 O   0  0  0  0  0  0  0  0  0  0  0  0
    9.2316   32.4218   -5.3506 O   0  0  0  0  0  0  0  0  0  0  0  0
   17.2900   30.1721   -6.9958 O   0  0  0  0  0  0  0  0  0  0  0  0
   15.7232   30.2715   -9.2865 O   0  0  0  0  0  0  0  0  0  0  0  0
   16.2100   28.8044   -3.0202 O   0  0  0  0  0  0  0  0  0  0  0  0
  2  1  1  1
  1 16  2  0
 19  1  1  0
  3  2  1  1
  3  4  1  0
  3 20  1  0
  4 22  1  6
 20  5  1  0
  5 22  1  6
  6 12  1  1
 20  6  1  6
 13  7  2  0
  7 14  1  0
  9  8  1  0
  8 14  2  0
  8 24  1  0
 12  9  2  0
 10 17  2  0
 18 10  1  0
 10 25  1  0
 11 21  1  6
 12 13  1  0
 14 23  1  0
 15 24  1  6
 17 16  1  0
 18 19  2  0
 18 21  1  0
M  END
$$$$
