
     RDKit          3D

 25 27  0  0  0  0  0  0  0  0999 V2000
   11.0531   32.6953   -6.7803 C   0  0  0  0  0  0  0  0  0  0  0  0
   10.6338   31.4568   -6.1492 C   0  0  0  0  0  0  0  0  0  0  0  0
   11.3522   31.0113   -4.9276 C   0  0  1  0  0  0  0  0  0  0  0  0
   10.5173   30.2908   -3.9080 C   0  0  0  0  0  0  0  0  0  0  0  0
   11.9105   28.7419   -4.7846 C   0  0  0  0  0  0  0  0  0  0  0  0
   13.7570   30.4021   -4.3956 C   0  0  0  0  0  0  0  0  0  0  0  0
   16.1592   28.1964   -2.5792 C   0  0  0  0  0  0  0  0  0  0  0  0
   15.8005   27.2886   -4.7623 C   0  0  0  0  0  0  0  0  0  0  0  0
   14.9285   28.2972   -5.0827 C   0  0  0  0  0  0  0  0  0  0  0  0
   11.8881   35.0828   -8.0279 C   0  0  0  0  0  0  0  0  0  0  0  0
   14.4016   32.7645   -9.3087 C   0  0  0  0  0  0  0  0  0  0  0  0
   14.6658   29.2729   -4.1356 C   0  0  0  0  0  0  0  0  0  0  0  0
   15.2818   29.2164   -2.8941 C   0  0  0  0  0  0  0  0  0  0  0  0
   16.4282   27.2192   -3.5129 C   0  0  0  0  0  0  0  0  0  0  0  0
   15.3856   26.2747   -6.9102 C   0  0  0  0  0  0  0  0  0  0  0  0
   10.4561   33.9179   -6.5106 C   0  0  0  0  0  0  0  0  0  0  0  0
   10.8569   35.0957   -7.1159 C   0  0  0  0  0  0  0  0  0  0  0  0
   12.4926   33.8945   -8.3121 C   0  0  0  0  0  0  0  0  0  0  0  0
   12.0781   32.7233   -7.6960 C   0  0  0  0  0  0  0  0  0  0  0  0
   12.4978   30.0860   -5.1301 C   0  0  2  0  0  0  0  0  0  0  0  0
   13.5451   33.8862   -9.2440 O   0  0  0  0  0  0  0  0  0  0  0  0
   10.8563   28.9567   -3.9270 O   0  0  0  0  0  0  0  0  0  0  0  0
   17.2977   26.1992   -3.2143 O   0  0  0  0  0  0  0  0  0  0  0  0
   16.0882   26.2938   -5.6840 O   0  0  0  0  0  0  0  0  0  0  0  0
   12.3190   36.2651   -8.6606 O   0  0  0  0  0  0  0  0  0  0  0  0
  1  2  1  0
  1 16  2  0
 19  1  1  0
  3  2  1  6
  3  4  1  0
  3 20  1  0
  4 22  1  0
 20  5  1  0
  5 22  1  0
  6 12  1  0
 20  6  1  1
 13  7  2  0
  7 14  1  0
  9  8  1  0
  8 14  2  0
  8 24  1  0
 12  9  2  0
 10 17  2  0
 18 10  1  0
 10 25  1  0
 21 11  1  0
 12 13  1  0
 14 23  1  0
 24 15  1  0
 17 16  1  0
 18 19  2  0
 18 21  1  0
M  END
$$$$
