
     RDKit          3D

 25 27  0  0  0  0  0  0  0  0999 V2000
   12.9442   29.5662   -5.2812 C   0  0  0  0  0  0  0  0  0  0  0  0
   11.5308   29.7525   -5.7084 C   0  0  0  0  0  0  0  0  0  0  0  0
   11.2373   31.2169   -5.7652 C   0  0  1  0  0  0  0  0  0  0  0  0
    9.9413   31.5281   -6.4835 C   0  0  0  0  0  0  0  0  0  0  0  0
    9.3738   31.5280   -4.3733 C   0  0  0  0  0  0  0  0  0  0  0  0
   11.4073   33.0176   -4.1551 C   0  0  0  0  0  0  0  0  0  0  0  0
   14.8282   32.5755   -2.7400 C   0  0  0  0  0  0  0  0  0  0  0  0
   15.0061   33.9151   -4.7483 C   0  0  0  0  0  0  0  0  0  0  0  0
   13.6363   33.8039   -4.8798 C   0  0  0  0  0  0  0  0  0  0  0  0
   15.5309   29.1740   -4.4561 C   0  0  0  0  0  0  0  0  0  0  0  0
   13.8960   26.4032   -2.6365 C   0  0  0  0  0  0  0  0  0  0  0  0
   12.8565   33.1002   -3.9759 C   0  0  0  0  0  0  0  0  0  0  0  0
   13.4447   32.4799   -2.8983 C   0  0  0  0  0  0  0  0  0  0  0  0
   15.5669   33.2842   -3.6607 C   0  0  0  0  0  0  0  0  0  0  0  0
   15.2021   35.2809   -6.7684 C   0  0  0  0  0  0  0  0  0  0  0  0
   13.9426   30.3773   -5.7646 C   0  0  0  0  0  0  0  0  0  0  0  0
   15.2373   30.1863   -5.3560 C   0  0  0  0  0  0  0  0  0  0  0  0
   14.5240   28.3551   -3.9678 C   0  0  0  0  0  0  0  0  0  0  0  0
   13.2365   28.5721   -4.3966 C   0  0  0  0  0  0  0  0  0  0  0  0
   10.8511   31.6501   -4.3417 C   0  0  2  0  0  0  0  0  0  0  0  0
   14.8593   27.3441   -3.0610 O   0  0  0  0  0  0  0  0  0  0  0  0
    9.0182   30.9439   -5.5882 O   0  0  0  0  0  0  0  0  0  0  0  0
   16.9578   33.3666   -3.4805 O   0  0  0  0  0  0  0  0  0  0  0  0
   15.7928   34.6274   -5.6636 O   0  0  0  0  0  0  0  0  0  0  0  0
   16.8350   28.9783   -4.0419 O   0  0  0  0  0  0  0  0  0  0  0  0
  2  1  1  1
  1 16  2  0
 19  1  1  0
  3  2  1  1
  3  4  1  0
  3 20  1  0
  4 22  1  6
 20  5  1  0
  5 22  1  6
  6 12  1  1
 20  6  1  6
 13  7  2  0
  7 14  1  0
  9  8  1  0
  8 14  2  0
  8 24  1  0
 12  9  2  0
 10 17  2  0
 18 10  1  0
 10 25  1  0
 11 21  1  6
 12 13  1  0
 14 23  1  0
 15 24  1  6
 17 16  1  0
 18 19  2  0
 18 21  1  0
M  END
$$$$
