
     RDKit          3D

 25 27  0  0  0  0  0  0  0  0999 V2000
   12.3211   33.4890   -4.5794 C   0  0  0  0  0  0  0  0  0  0  0  0
   10.8990   33.1126   -4.8049 C   0  0  0  0  0  0  0  0  0  0  0  0
   10.7866   31.6227   -4.7662 C   0  0  1  0  0  0  0  0  0  0  0  0
    9.3507   31.1428   -4.7543 C   0  0  0  0  0  0  0  0  0  0  0  0
    9.9198   31.0139   -6.8602 C   0  0  0  0  0  0  0  0  0  0  0  0
   11.9449   29.8306   -5.9110 C   0  0  0  0  0  0  0  0  0  0  0  0
   15.4636   31.0136   -5.5663 C   0  0  0  0  0  0  0  0  0  0  0  0
   15.1173   29.1994   -4.0016 C   0  0  0  0  0  0  0  0  0  0  0  0
   13.8182   29.1211   -4.4622 C   0  0  0  0  0  0  0  0  0  0  0  0
   14.9362   34.1662   -4.1017 C   0  0  0  0  0  0  0  0  0  0  0  0
   13.9678   33.0631   -0.7069 C   0  0  0  0  0  0  0  0  0  0  0  0
   13.3275   29.9580   -5.4516 C   0  0  0  0  0  0  0  0  0  0  0  0
   14.1451   30.9113   -6.0127 C   0  0  0  0  0  0  0  0  0  0  0  0
   15.9120   30.1627   -4.5811 C   0  0  0  0  0  0  0  0  0  0  0  0
   14.8115   27.3126   -2.4747 C   0  0  0  0  0  0  0  0  0  0  0  0
   13.0972   33.9709   -5.6059 C   0  0  0  0  0  0  0  0  0  0  0  0
   14.4049   34.3111   -5.3734 C   0  0  0  0  0  0  0  0  0  0  0  0
   14.1537   33.6800   -3.0653 C   0  0  0  0  0  0  0  0  0  0  0  0
   12.8468   33.3479   -3.3304 C   0  0  0  0  0  0  0  0  0  0  0  0
   11.2173   31.1067   -6.1487 C   0  0  2  0  0  0  0  0  0  0  0  0
   14.7254   33.5478   -1.7954 O   0  0  0  0  0  0  0  0  0  0  0  0
    8.9397   31.5669   -6.0374 O   0  0  0  0  0  0  0  0  0  0  0  0
   17.2430   30.2844   -4.1480 O   0  0  0  0  0  0  0  0  0  0  0  0
   15.6115   28.3518   -3.0009 O   0  0  0  0  0  0  0  0  0  0  0  0
   16.2541   34.5081   -3.8636 O   0  0  0  0  0  0  0  0  0  0  0  0
  2  1  1  1
  1 16  2  0
 19  1  1  0
  3  2  1  6
  3  4  1  0
  3 20  1  0
  4 22  1  6
 20  5  1  0
  5 22  1  6
  6 12  1  1
 20  6  1  1
 13  7  2  0
  7 14  1  0
  9  8  1  0
  8 14  2  0
  8 24  1  0
 12  9  2  0
 10 17  2  0
 18 10  1  0
 10 25  1  0
 11 21  1  6
 12 13  1  0
 14 23  1  0
 15 24  1  6
 17 16  1  0
 18 19  2  0
 18 21  1  0
M  END
$$$$
