
     RDKit          3D

 25 27  0  0  0  0  0  0  0  0999 V2000
   12.6809   28.2981   -4.1911 C   0  0  0  0  0  0  0  0  0  0  0  0
   11.4434   28.9574   -3.6923 C   0  0  0  0  0  0  0  0  0  0  0  0
   10.7742   29.6473   -4.8370 C   0  0  1  0  0  0  0  0  0  0  0  0
    9.4367   30.2479   -4.4592 C   0  0  0  0  0  0  0  0  0  0  0  0
   10.8218   31.9302   -4.2958 C   0  0  0  0  0  0  0  0  0  0  0  0
   11.5592   31.1326   -6.5809 C   0  0  0  0  0  0  0  0  0  0  0  0
   12.3832   34.5910   -7.7036 C   0  0  0  0  0  0  0  0  0  0  0  0
   14.3831   33.2391   -7.8837 C   0  0  0  0  0  0  0  0  0  0  0  0
   13.6431   32.1760   -7.4058 C   0  0  0  0  0  0  0  0  0  0  0  0
   14.9962   27.1170   -5.0683 C   0  0  0  0  0  0  0  0  0  0  0  0
   16.4021   29.3520   -2.4788 C   0  0  0  0  0  0  0  0  0  0  0  0
   12.3019   32.2908   -7.0767 C   0  0  0  0  0  0  0  0  0  0  0  0
   11.6599   33.4985   -7.2226 C   0  0  0  0  0  0  0  0  0  0  0  0
   13.7144   34.4348   -8.0191 C   0  0  0  0  0  0  0  0  0  0  0  0
   16.4436   31.9225   -7.9603 C   0  0  0  0  0  0  0  0  0  0  0  0
   12.6295   27.3688   -5.2020 C   0  0  0  0  0  0  0  0  0  0  0  0
   13.7833   26.7749   -5.6448 C   0  0  0  0  0  0  0  0  0  0  0  0
   15.0490   28.0547   -4.0481 C   0  0  0  0  0  0  0  0  0  0  0  0
   13.8751   28.6319   -3.6267 C   0  0  0  0  0  0  0  0  0  0  0  0
   11.5668   30.9367   -5.1059 C   0  0  2  0  0  0  0  0  0  0  0  0
   16.2918   28.3740   -3.4911 O   0  0  0  0  0  0  0  0  0  0  0  0
    9.8624   31.2439   -3.5527 O   0  0  0  0  0  0  0  0  0  0  0  0
   14.4218   35.5486   -8.5015 O   0  0  0  0  0  0  0  0  0  0  0  0
   15.7394   33.1206   -8.2160 O   0  0  0  0  0  0  0  0  0  0  0  0
   16.1615   26.5204   -5.5120 O   0  0  0  0  0  0  0  0  0  0  0  0
  2  1  1  1
  1 16  2  0
 19  1  1  0
  3  2  1  1
  3  4  1  0
  3 20  1  0
  4 22  1  6
 20  5  1  0
  5 22  1  6
  6 12  1  1
 20  6  1  6
 13  7  2  0
  7 14  1  0
  9  8  1  0
  8 14  2  0
  8 24  1  0
 12  9  2  0
 10 17  2  0
 18 10  1  0
 10 25  1  0
 11 21  1  6
 12 13  1  0
 14 23  1  0
 15 24  1  6
 17 16  1  0
 18 19  2  0
 18 21  1  0
M  END
$$$$
