
     RDKit          3D

 25 27  0  0  0  0  0  0  0  0999 V2000
   11.2149   32.6321   -6.4988 C   0  0  0  0  0  0  0  0  0  0  0  0
   10.7667   31.2588   -6.3532 C   0  0  0  0  0  0  0  0  0  0  0  0
   11.0477   30.5590   -5.0732 C   0  0  1  0  0  0  0  0  0  0  0  0
    9.9915   29.5955   -4.6130 C   0  0  0  0  0  0  0  0  0  0  0  0
   11.7719   28.3365   -5.2077 C   0  0  0  0  0  0  0  0  0  0  0  0
   13.1570   29.9102   -3.8213 C   0  0  0  0  0  0  0  0  0  0  0  0
   16.7589   28.9424   -3.6665 C   0  0  0  0  0  0  0  0  0  0  0  0
   15.4395   26.9480   -3.6832 C   0  0  0  0  0  0  0  0  0  0  0  0
   14.2751   27.6703   -3.7340 C   0  0  0  0  0  0  0  0  0  0  0  0
   12.1068   35.2897   -6.8078 C   0  0  0  0  0  0  0  0  0  0  0  0
   14.4057   33.5233   -9.0525 C   0  0  0  0  0  0  0  0  0  0  0  0
   14.3522   29.0529   -3.7509 C   0  0  0  0  0  0  0  0  0  0  0  0
   15.5902   29.6778   -3.7179 C   0  0  0  0  0  0  0  0  0  0  0  0
   16.6952   27.5660   -3.6485 C   0  0  0  0  0  0  0  0  0  0  0  0
   14.1613   24.9096   -3.8394 C   0  0  0  0  0  0  0  0  0  0  0  0
   10.6191   33.6935   -5.8338 C   0  0  0  0  0  0  0  0  0  0  0  0
   11.0476   35.0012   -5.9771 C   0  0  0  0  0  0  0  0  0  0  0  0
   12.7108   34.2654   -7.4742 C   0  0  0  0  0  0  0  0  0  0  0  0
   12.2683   32.9603   -7.3190 C   0  0  0  0  0  0  0  0  0  0  0  0
   12.2872   29.7402   -5.0212 C   0  0  2  0  0  0  0  0  0  0  0  0
   13.7919   34.5649   -8.3215 O   0  0  0  0  0  0  0  0  0  0  0  0
   10.4640   28.3134   -4.7811 O   0  0  0  0  0  0  0  0  0  0  0  0
   17.8482   26.8217   -3.5974 O   0  0  0  0  0  0  0  0  0  0  0  0
   15.4026   25.5623   -3.6645 O   0  0  0  0  0  0  0  0  0  0  0  0
   12.5662   36.6107   -6.9744 O   0  0  0  0  0  0  0  0  0  0  0  0
  1  2  1  0
  1 16  2  0
 19  1  1  0
  3  2  1  6
  3  4  1  0
  3 20  1  0
  4 22  1  0
 20  5  1  0
  5 22  1  0
  6 12  1  0
 20  6  1  1
 13  7  2  0
  7 14  1  0
  9  8  1  0
  8 14  2  0
  8 24  1  0
 12  9  2  0
 10 17  2  0
 18 10  1  0
 10 25  1  0
 21 11  1  0
 12 13  1  0
 14 23  1  0
 24 15  1  0
 17 16  1  0
 18 19  2  0
 18 21  1  0
M  END
$$$$
