
     RDKit          3D

 25 27  0  0  0  0  0  0  0  0999 V2000
   11.7330   32.8927   -6.9582 C   0  0  0  0  0  0  0  0  0  0  0  0
   10.7366   31.8367   -6.6317 C   0  0  0  0  0  0  0  0  0  0  0  0
   10.7632   31.5934   -5.1571 C   0  0  1  0  0  0  0  0  0  0  0  0
    9.3783   31.5229   -4.5491 C   0  0  0  0  0  0  0  0  0  0  0  0
    9.9065   29.4273   -4.8727 C   0  0  0  0  0  0  0  0  0  0  0  0
   12.0542   30.1233   -3.7304 C   0  0  0  0  0  0  0  0  0  0  0  0
   15.3719   29.2034   -5.1611 C   0  0  0  0  0  0  0  0  0  0  0  0
   15.1769   28.1761   -2.9779 C   0  0  0  0  0  0  0  0  0  0  0  0
   13.9263   28.7525   -2.8774 C   0  0  0  0  0  0  0  0  0  0  0  0
   13.5922   34.8024   -7.6079 C   0  0  0  0  0  0  0  0  0  0  0  0
   14.4474   32.2430  -10.1365 C   0  0  0  0  0  0  0  0  0  0  0  0
   13.3872   29.5407   -3.8814 C   0  0  0  0  0  0  0  0  0  0  0  0
   14.1044   29.7733   -5.0319 C   0  0  0  0  0  0  0  0  0  0  0  0
   15.8713   28.4264   -4.1400 C   0  0  0  0  0  0  0  0  0  0  0  0
   14.9771   27.0916   -0.7942 C   0  0  0  0  0  0  0  0  0  0  0  0
   11.7922   34.0586   -6.2333 C   0  0  0  0  0  0  0  0  0  0  0  0
   12.7192   35.0169   -6.5532 C   0  0  0  0  0  0  0  0  0  0  0  0
   13.5333   33.6261   -8.3399 C   0  0  0  0  0  0  0  0  0  0  0  0
   12.5930   32.6853   -7.9944 C   0  0  0  0  0  0  0  0  0  0  0  0
   11.2065   30.1357   -4.9533 C   0  0  2  0  0  0  0  0  0  0  0  0
   14.4311   33.4458   -9.3973 O   0  0  0  0  0  0  0  0  0  0  0  0
    8.8994   30.3458   -5.1656 O   0  0  0  0  0  0  0  0  0  0  0  0
   17.1493   27.8632   -4.2926 O   0  0  0  0  0  0  0  0  0  0  0  0
   15.7202   27.3791   -1.9612 O   0  0  0  0  0  0  0  0  0  0  0  0
   14.5281   35.7661   -7.9333 O   0  0  0  0  0  0  0  0  0  0  0  0
  2  1  1  1
  1 16  2  0
 19  1  1  0
  3  2  1  6
  3  4  1  0
  3 20  1  0
  4 22  1  6
 20  5  1  0
  5 22  1  6
  6 12  1  1
 20  6  1  1
 13  7  2  0
  7 14  1  0
  9  8  1  0
  8 14  2  0
  8 24  1  0
 12  9  2  0
 10 17  2  0
 18 10  1  0
 10 25  1  0
 11 21  1  6
 12 13  1  0
 14 23  1  0
 15 24  1  6
 17 16  1  0
 18 19  2  0
 18 21  1  0
M  END
$$$$
