
     RDKit          3D

 25 27  0  0  0  0  0  0  0  0999 V2000
   11.5762   33.3647   -5.7638 C   0  0  0  0  0  0  0  0  0  0  0  0
   10.6905   32.2239   -5.9125 C   0  0  0  0  0  0  0  0  0  0  0  0
   10.8502   31.0823   -4.9754 C   0  0  1  0  0  0  0  0  0  0  0  0
    9.8447   29.9761   -5.1200 C   0  0  0  0  0  0  0  0  0  0  0  0
   11.8161   29.1274   -5.8284 C   0  0  0  0  0  0  0  0  0  0  0  0
   12.8066   30.0675   -3.7184 C   0  0  0  0  0  0  0  0  0  0  0  0
   16.3219   29.3189   -4.7267 C   0  0  0  0  0  0  0  0  0  0  0  0
   15.6011   27.6357   -3.1885 C   0  0  0  0  0  0  0  0  0  0  0  0
   14.3682   28.2223   -3.0616 C   0  0  0  0  0  0  0  0  0  0  0  0
   13.3059   35.5775   -5.5086 C   0  0  0  0  0  0  0  0  0  0  0  0
   14.1876   34.3944   -8.8650 C   0  0  0  0  0  0  0  0  0  0  0  0
   14.1062   29.3777   -3.7787 C   0  0  0  0  0  0  0  0  0  0  0  0
   15.0819   29.9162   -4.6047 C   0  0  0  0  0  0  0  0  0  0  0  0
   16.5949   28.1692   -4.0177 C   0  0  0  0  0  0  0  0  0  0  0  0
   14.8675   25.8207   -1.7810 C   0  0  0  0  0  0  0  0  0  0  0  0
   11.5909   34.1643   -4.6305 C   0  0  0  0  0  0  0  0  0  0  0  0
   12.4347   35.2521   -4.4936 C   0  0  0  0  0  0  0  0  0  0  0  0
   13.3122   34.8087   -6.6343 C   0  0  0  0  0  0  0  0  0  0  0  0
   12.4595   33.7218   -6.7549 C   0  0  0  0  0  0  0  0  0  0  0  0
   12.1474   30.3581   -5.0246 C   0  0  2  0  0  0  0  0  0  0  0  0
   14.2035   35.1449   -7.6681 O   0  0  0  0  0  0  0  0  0  0  0  0
   10.4691   28.8866   -5.6842 O   0  0  0  0  0  0  0  0  0  0  0  0
   17.8228   27.5644   -4.1287 O   0  0  0  0  0  0  0  0  0  0  0  0
   15.9006   26.4784   -2.4864 O   0  0  0  0  0  0  0  0  0  0  0  0
   14.1773   36.6787   -5.3990 O   0  0  0  0  0  0  0  0  0  0  0  0
  1  2  1  0
  1 16  2  0
 19  1  1  0
  3  2  1  6
  3  4  1  0
  3 20  1  0
  4 22  1  0
 20  5  1  0
  5 22  1  0
  6 12  1  0
 20  6  1  1
 13  7  2  0
  7 14  1  0
  9  8  1  0
  8 14  2  0
  8 24  1  0
 12  9  2  0
 10 17  2  0
 18 10  1  0
 10 25  1  0
 21 11  1  0
 12 13  1  0
 14 23  1  0
 24 15  1  0
 17 16  1  0
 18 19  2  0
 18 21  1  0
M  END
$$$$
