
     RDKit          3D

 25 27  0  0  0  0  0  0  0  0999 V2000
   12.5429   30.0136   -5.7240 C   0  0  0  0  0  0  0  0  0  0  0  0
   11.6998   30.7948   -6.6693 C   0  0  0  0  0  0  0  0  0  0  0  0
   11.6755   32.2209   -6.2223 C   0  0  1  0  0  0  0  0  0  0  0  0
   10.8474   33.1061   -7.1295 C   0  0  0  0  0  0  0  0  0  0  0  0
    9.4748   32.6060   -5.5044 C   0  0  0  0  0  0  0  0  0  0  0  0
   11.4383   33.2898   -4.0625 C   0  0  0  0  0  0  0  0  0  0  0  0
   15.1270   33.1292   -3.5446 C   0  0  0  0  0  0  0  0  0  0  0  0
   14.0685   31.6958   -1.9061 C   0  0  0  0  0  0  0  0  0  0  0  0
   12.8532   32.0614   -2.4499 C   0  0  0  0  0  0  0  0  0  0  0  0
   14.1498   28.5984   -4.0091 C   0  0  0  0  0  0  0  0  0  0  0  0
   16.7502   30.4295   -5.8930 C   0  0  0  0  0  0  0  0  0  0  0  0
   12.7492   32.9392   -3.5170 C   0  0  0  0  0  0  0  0  0  0  0  0
   13.8843   33.4808   -4.0741 C   0  0  0  0  0  0  0  0  0  0  0  0
   15.1868   32.2536   -2.4837 C   0  0  0  0  0  0  0  0  0  0  0  0
   13.0132   30.2775   -0.2151 C   0  0  0  0  0  0  0  0  0  0  0  0
   11.9738   29.1946   -4.7787 C   0  0  0  0  0  0  0  0  0  0  0  0
   12.7716   28.4847   -3.9188 C   0  0  0  0  0  0  0  0  0  0  0  0
   14.7250   29.4246   -4.9627 C   0  0  0  0  0  0  0  0  0  0  0  0
   13.8983   30.1229   -5.8099 C   0  0  0  0  0  0  0  0  0  0  0  0
   10.8108   32.2758   -4.9525 C   0  0  2  0  0  0  0  0  0  0  0  0
   16.1197   29.5133   -5.0232 O   0  0  0  0  0  0  0  0  0  0  0  0
    9.5639   32.5652   -6.8950 O   0  0  0  0  0  0  0  0  0  0  0  0
   16.4487   31.9144   -1.9677 O   0  0  0  0  0  0  0  0  0  0  0  0
   14.1714   30.8078   -0.8268 O   0  0  0  0  0  0  0  0  0  0  0  0
   14.9573   27.8843   -3.1440 O   0  0  0  0  0  0  0  0  0  0  0  0
  2  1  1  1
  1 16  2  0
 19  1  1  0
  3  2  1  6
  3  4  1  0
  3 20  1  0
  4 22  1  6
 20  5  1  0
  5 22  1  6
  6 12  1  1
 20  6  1  1
 13  7  2  0
  7 14  1  0
  9  8  1  0
  8 14  2  0
  8 24  1  0
 12  9  2  0
 10 17  2  0
 18 10  1  0
 10 25  1  0
 11 21  1  6
 12 13  1  0
 14 23  1  0
 15 24  1  6
 17 16  1  0
 18 19  2  0
 18 21  1  0
M  END
$$$$
