
     RDKit          3D

 25 27  0  0  0  0  0  0  0  0999 V2000
   14.4799   29.1231   -3.7493 C   0  0  0  0  0  0  0  0  0  0  0  0
   13.3771   30.0636   -3.8347 C   0  0  0  0  0  0  0  0  0  0  0  0
   12.3712   29.8724   -4.9111 C   0  0  1  0  0  0  0  0  0  0  0  0
   11.4557   28.6935   -4.7443 C   0  0  0  0  0  0  0  0  0  0  0  0
   10.1725   30.5302   -4.4474 C   0  0  0  0  0  0  0  0  0  0  0  0
   11.2098   31.4115   -6.5602 C   0  0  0  0  0  0  0  0  0  0  0  0
   13.1727   34.3622   -7.7329 C   0  0  0  0  0  0  0  0  0  0  0  0
   11.0286   35.1237   -6.9970 C   0  0  0  0  0  0  0  0  0  0  0  0
   10.6403   33.8481   -6.6771 C   0  0  0  0  0  0  0  0  0  0  0  0
   16.6070   27.2816   -3.5550 C   0  0  0  0  0  0  0  0  0  0  0  0
   14.9332   26.7322   -0.3433 C   0  0  0  0  0  0  0  0  0  0  0  0
   11.5325   32.8102   -6.8888 C   0  0  0  0  0  0  0  0  0  0  0  0
   12.7894   33.0738   -7.4130 C   0  0  0  0  0  0  0  0  0  0  0  0
   12.2936   35.4033   -7.5276 C   0  0  0  0  0  0  0  0  0  0  0  0
    9.1015   36.0440   -5.8777 C   0  0  0  0  0  0  0  0  0  0  0  0
   15.4458   29.0030   -4.7374 C   0  0  0  0  0  0  0  0  0  0  0  0
   16.4938   28.1037   -4.6534 C   0  0  0  0  0  0  0  0  0  0  0  0
   15.6710   27.3783   -2.5688 C   0  0  0  0  0  0  0  0  0  0  0  0
   14.6268   28.2853   -2.6692 C   0  0  0  0  0  0  0  0  0  0  0  0
   11.4251   30.9950   -5.1442 C   0  0  2  0  0  0  0  0  0  0  0  0
   15.7907   26.5367   -1.4491 O   0  0  0  0  0  0  0  0  0  0  0  0
   10.2021   29.1551   -4.4117 O   0  0  0  0  0  0  0  0  0  0  0  0
   12.6602   36.6891   -7.8409 O   0  0  0  0  0  0  0  0  0  0  0  0
   10.1629   36.1884   -6.7997 O   0  0  0  0  0  0  0  0  0  0  0  0
   17.6626   26.3561   -3.4404 O   0  0  0  0  0  0  0  0  0  0  0  0
  1  2  1  0
  1 16  2  0
 19  1  1  0
  3  2  1  1
  3  4  1  0
  3 20  1  0
  4 22  1  0
 20  5  1  0
  5 22  1  0
  6 12  1  0
 20  6  1  6
 13  7  2  0
  7 14  1  0
  9  8  1  0
  8 14  2  0
  8 24  1  0
 12  9  2  0
 10 17  2  0
 18 10  1  0
 10 25  1  0
 21 11  1  0
 12 13  1  0
 14 23  1  0
 24 15  1  0
 17 16  1  0
 18 19  2  0
 18 21  1  0
M  END
$$$$
