
     RDKit          3D

 25 27  0  0  0  0  0  0  0  0999 V2000
   12.1155   32.7312   -7.1298 C   0  0  0  0  0  0  0  0  0  0  0  0
   11.3920   31.5234   -6.7751 C   0  0  0  0  0  0  0  0  0  0  0  0
   11.2876   31.1623   -5.3379 C   0  0  1  0  0  0  0  0  0  0  0  0
    9.8932   30.9631   -4.8166 C   0  0  0  0  0  0  0  0  0  0  0  0
   10.8554   28.9180   -4.8293 C   0  0  0  0  0  0  0  0  0  0  0  0
   12.8111   29.9972   -3.6769 C   0  0  0  0  0  0  0  0  0  0  0  0
   16.3893   28.9404   -3.5560 C   0  0  0  0  0  0  0  0  0  0  0  0
   15.0207   26.9793   -3.5600 C   0  0  0  0  0  0  0  0  0  0  0  0
   13.8741   27.7302   -3.5999 C   0  0  0  0  0  0  0  0  0  0  0  0
   13.4911   35.0957   -7.8156 C   0  0  0  0  0  0  0  0  0  0  0  0
   10.0305   36.3022   -7.7690 C   0  0  0  0  0  0  0  0  0  0  0  0
   13.9853   29.1105   -3.6176 C   0  0  0  0  0  0  0  0  0  0  0  0
   15.2387   29.7045   -3.5964 C   0  0  0  0  0  0  0  0  0  0  0  0
   16.2916   27.5660   -3.5372 C   0  0  0  0  0  0  0  0  0  0  0  0
   13.6790   24.9762   -3.5326 C   0  0  0  0  0  0  0  0  0  0  0  0
   13.4978   32.7781   -7.2342 C   0  0  0  0  0  0  0  0  0  0  0  0
   14.1838   33.9317   -7.5700 C   0  0  0  0  0  0  0  0  0  0  0  0
   12.1315   35.0782   -7.7196 C   0  0  0  0  0  0  0  0  0  0  0  0
   11.4598   33.9130   -7.3818 C   0  0  0  0  0  0  0  0  0  0  0  0
   11.9801   29.9174   -4.9131 C   0  0  2  0  0  0  0  0  0  0  0  0
   11.4285   36.2693   -7.9712 O   0  0  0  0  0  0  0  0  0  0  0  0
    9.6930   29.6180   -4.6023 O   0  0  0  0  0  0  0  0  0  0  0  0
   17.4262   26.7933   -3.4969 O   0  0  0  0  0  0  0  0  0  0  0  0
   14.9497   25.5949   -3.5408 O   0  0  0  0  0  0  0  0  0  0  0  0
   14.1610   36.2860   -8.1597 O   0  0  0  0  0  0  0  0  0  0  0  0
  1  2  1  0
  1 16  2  0
 19  1  1  0
  3  2  1  6
  3  4  1  0
  3 20  1  0
  4 22  1  0
 20  5  1  0
  5 22  1  0
  6 12  1  0
 20  6  1  1
 13  7  2  0
  7 14  1  0
  9  8  1  0
  8 14  2  0
  8 24  1  0
 12  9  2  0
 10 17  2  0
 18 10  1  0
 10 25  1  0
 21 11  1  0
 12 13  1  0
 14 23  1  0
 24 15  1  0
 17 16  1  0
 18 19  2  0
 18 21  1  0
M  END
$$$$
