
     RDKit          3D

 25 27  0  0  0  0  0  0  0  0999 V2000
   12.7438   29.1446   -5.3818 C   0  0  0  0  0  0  0  0  0  0  0  0
   11.3087   29.4694   -5.6050 C   0  0  0  0  0  0  0  0  0  0  0  0
   11.1929   30.9225   -5.9355 C   0  0  1  0  0  0  0  0  0  0  0  0
    9.8746   31.2713   -6.5934 C   0  0  0  0  0  0  0  0  0  0  0  0
    9.5444   31.7559   -4.4883 C   0  0  0  0  0  0  0  0  0  0  0  0
   11.7572   32.9553   -4.7469 C   0  0  0  0  0  0  0  0  0  0  0  0
   15.2195   32.1995   -3.5888 C   0  0  0  0  0  0  0  0  0  0  0  0
   15.3643   33.3239   -5.7275 C   0  0  0  0  0  0  0  0  0  0  0  0
   13.9848   33.3799   -5.7313 C   0  0  0  0  0  0  0  0  0  0  0  0
   15.3715   28.5013   -4.9273 C   0  0  0  0  0  0  0  0  0  0  0  0
   13.7546   26.0940   -2.6319 C   0  0  0  0  0  0  0  0  0  0  0  0
   13.2161   32.8649   -4.6997 C   0  0  0  0  0  0  0  0  0  0  0  0
   13.8259   32.2704   -3.6195 C   0  0  0  0  0  0  0  0  0  0  0  0
   15.9465   32.7233   -4.6341 C   0  0  0  0  0  0  0  0  0  0  0  0
   15.5290   34.4728   -7.8810 C   0  0  0  0  0  0  0  0  0  0  0  0
   13.7345   29.8120   -6.0609 C   0  0  0  0  0  0  0  0  0  0  0  0
   15.0497   29.4950   -5.8381 C   0  0  0  0  0  0  0  0  0  0  0  0
   14.3723   27.8273   -4.2415 C   0  0  0  0  0  0  0  0  0  0  0  0
   13.0638   28.1683   -4.4870 C   0  0  0  0  0  0  0  0  0  0  0  0
   11.0201   31.6706   -4.6038 C   0  0  2  0  0  0  0  0  0  0  0  0
   14.7363   26.8306   -3.3300 O   0  0  0  0  0  0  0  0  0  0  0  0
    8.9897   31.0066   -5.5248 O   0  0  0  0  0  0  0  0  0  0  0  0
   17.3480   32.6403   -4.5810 O   0  0  0  0  0  0  0  0  0  0  0  0
   16.1397   33.8455   -6.7718 O   0  0  0  0  0  0  0  0  0  0  0  0
   16.6963   28.1789   -4.7000 O   0  0  0  0  0  0  0  0  0  0  0  0
  2  1  1  1
  1 16  2  0
 19  1  1  0
  3  2  1  1
  3  4  1  0
  3 20  1  0
  4 22  1  6
 20  5  1  0
  5 22  1  6
  6 12  1  1
 20  6  1  6
 13  7  2  0
  7 14  1  0
  9  8  1  0
  8 14  2  0
  8 24  1  0
 12  9  2  0
 10 17  2  0
 18 10  1  0
 10 25  1  0
 11 21  1  6
 12 13  1  0
 14 23  1  0
 15 24  1  6
 17 16  1  0
 18 19  2  0
 18 21  1  0
M  END
$$$$
