
     RDKit          3D

 25 27  0  0  0  0  0  0  0  0999 V2000
   12.1982   34.1791   -3.5021 C   0  0  0  0  0  0  0  0  0  0  0  0
   13.2321   33.3046   -4.0259 C   0  0  0  0  0  0  0  0  0  0  0  0
   12.9167   32.4788   -5.2198 C   0  0  1  0  0  0  0  0  0  0  0  0
   11.9896   33.1082   -6.2199 C   0  0  0  0  0  0  0  0  0  0  0  0
   14.0174   33.0203   -7.2141 C   0  0  0  0  0  0  0  0  0  0  0  0
   14.1109   30.6216   -6.4695 C   0  0  0  0  0  0  0  0  0  0  0  0
   16.4247   28.7867   -4.1860 C   0  0  0  0  0  0  0  0  0  0  0  0
   14.2250   27.8879   -3.9165 C   0  0  0  0  0  0  0  0  0  0  0  0
   13.7117   28.7589   -4.8428 C   0  0  0  0  0  0  0  0  0  0  0  0
   10.1654   35.8557   -2.4969 C   0  0  0  0  0  0  0  0  0  0  0  0
    8.1215   33.2738   -4.0382 C   0  0  0  0  0  0  0  0  0  0  0  0
   14.5684   29.6605   -5.4519 C   0  0  0  0  0  0  0  0  0  0  0  0
   15.9155   29.6677   -5.1208 C   0  0  0  0  0  0  0  0  0  0  0  0
   15.5821   27.8852   -3.5725 C   0  0  0  0  0  0  0  0  0  0  0  0
   12.0197   26.9674   -3.5958 C   0  0  0  0  0  0  0  0  0  0  0  0
   12.4723   35.2589   -2.6758 C   0  0  0  0  0  0  0  0  0  0  0  0
   11.4840   36.0885   -2.1766 C   0  0  0  0  0  0  0  0  0  0  0  0
    9.8675   34.8006   -3.3070 C   0  0  0  0  0  0  0  0  0  0  0  0
   10.8708   33.9791   -3.7985 C   0  0  0  0  0  0  0  0  0  0  0  0
   14.0685   32.0548   -6.0583 C   0  0  2  0  0  0  0  0  0  0  0  0
    8.5197   34.5668   -3.6311 O   0  0  0  0  0  0  0  0  0  0  0  0
   12.7180   33.4559   -7.3352 O   0  0  0  0  0  0  0  0  0  0  0  0
   16.0735   27.0036   -2.6413 O   0  0  0  0  0  0  0  0  0  0  0  0
   13.3986   26.9711   -3.2854 O   0  0  0  0  0  0  0  0  0  0  0  0
    9.1368   36.6824   -2.0045 O   0  0  0  0  0  0  0  0  0  0  0  0
  1  2  1  0
  1 16  2  0
 19  1  1  0
  3  2  1  1
  3  4  1  0
  3 20  1  0
  4 22  1  0
 20  5  1  0
  5 22  1  0
  6 12  1  0
 20  6  1  6
 13  7  2  0
  7 14  1  0
  9  8  1  0
  8 14  2  0
  8 24  1  0
 12  9  2  0
 10 17  2  0
 18 10  1  0
 10 25  1  0
 21 11  1  0
 12 13  1  0
 14 23  1  0
 24 15  1  0
 17 16  1  0
 18 19  2  0
 18 21  1  0
M  END
$$$$
