
     RDKit          3D

 25 27  0  0  0  0  0  0  0  0999 V2000
   13.6809   28.1549   -3.8612 C   0  0  0  0  0  0  0  0  0  0  0  0
   12.2556   28.3000   -4.0967 C   0  0  0  0  0  0  0  0  0  0  0  0
   11.8143   29.0375   -5.3085 C   0  0  1  0  0  0  0  0  0  0  0  0
   10.4001   28.7835   -5.7458 C   0  0  0  0  0  0  0  0  0  0  0  0
   10.4469   30.9096   -4.9805 C   0  0  0  0  0  0  0  0  0  0  0  0
   12.4893   31.2201   -6.4120 C   0  0  0  0  0  0  0  0  0  0  0  0
   12.7626   34.8124   -5.4342 C   0  0  0  0  0  0  0  0  0  0  0  0
   11.4575   34.6694   -7.4329 C   0  0  0  0  0  0  0  0  0  0  0  0
   11.5843   33.3045   -7.4664 C   0  0  0  0  0  0  0  0  0  0  0  0
   16.4489   27.8420   -3.4203 C   0  0  0  0  0  0  0  0  0  0  0  0
   15.5762   24.5270   -4.7222 C   0  0  0  0  0  0  0  0  0  0  0  0
   12.3132   32.6811   -6.4674 C   0  0  0  0  0  0  0  0  0  0  0  0
   12.8951   33.4372   -5.4604 C   0  0  0  0  0  0  0  0  0  0  0  0
   12.0404   35.4443   -6.4231 C   0  0  0  0  0  0  0  0  0  0  0  0
   10.1435   34.5724   -9.4522 C   0  0  0  0  0  0  0  0  0  0  0  0
   14.4685   29.1775   -3.3535 C   0  0  0  0  0  0  0  0  0  0  0  0
   15.8270   29.0361   -3.1328 C   0  0  0  0  0  0  0  0  0  0  0  0
   15.6986   26.8200   -3.9210 C   0  0  0  0  0  0  0  0  0  0  0  0
   14.3379   26.9790   -4.1361 C   0  0  0  0  0  0  0  0  0  0  0  0
   11.8787   30.5212   -5.2442 C   0  0  2  0  0  0  0  0  0  0  0  0
   16.3380   25.6026   -4.2132 O   0  0  0  0  0  0  0  0  0  0  0  0
    9.6464   29.9004   -5.4639 O   0  0  0  0  0  0  0  0  0  0  0  0
   11.9002   36.8103   -6.4104 O   0  0  0  0  0  0  0  0  0  0  0  0
   10.7358   35.3290   -8.4158 O   0  0  0  0  0  0  0  0  0  0  0  0
   17.8300   27.6672   -3.2065 O   0  0  0  0  0  0  0  0  0  0  0  0
  1  2  1  0
  1 16  2  0
 19  1  1  0
  3  2  1  1
  3  4  1  0
  3 20  1  0
  4 22  1  0
 20  5  1  0
  5 22  1  0
  6 12  1  0
 20  6  1  6
 13  7  2  0
  7 14  1  0
  9  8  1  0
  8 14  2  0
  8 24  1  0
 12  9  2  0
 10 17  2  0
 18 10  1  0
 10 25  1  0
 21 11  1  0
 12 13  1  0
 14 23  1  0
 24 15  1  0
 17 16  1  0
 18 19  2  0
 18 21  1  0
M  END
$$$$
