
     RDKit          3D

 25 27  0  0  0  0  0  0  0  0999 V2000
   13.3775   29.9383   -3.8898 C   0  0  0  0  0  0  0  0  0  0  0  0
   12.2024   30.7750   -4.0548 C   0  0  0  0  0  0  0  0  0  0  0  0
   12.2414   31.8480   -5.0814 C   0  0  1  0  0  0  0  0  0  0  0  0
   12.9063   31.4841   -6.3781 C   0  0  0  0  0  0  0  0  0  0  0  0
   10.7045   31.6984   -6.8415 C   0  0  0  0  0  0  0  0  0  0  0  0
   10.8086   33.8781   -5.5944 C   0  0  0  0  0  0  0  0  0  0  0  0
   12.9070   35.8710   -3.2364 C   0  0  0  0  0  0  0  0  0  0  0  0
   10.7802   35.4831   -2.2139 C   0  0  0  0  0  0  0  0  0  0  0  0
   10.3366   34.7845   -3.3073 C   0  0  0  0  0  0  0  0  0  0  0  0
   15.6459   28.2893   -3.5913 C   0  0  0  0  0  0  0  0  0  0  0  0
   13.3993   26.0490   -5.4291 C   0  0  0  0  0  0  0  0  0  0  0  0
   11.1916   34.6261   -4.3851 C   0  0  0  0  0  0  0  0  0  0  0  0
   12.4677   35.1682   -4.3421 C   0  0  0  0  0  0  0  0  0  0  0  0
   12.0651   36.0361   -2.1580 C   0  0  0  0  0  0  0  0  0  0  0  0
    8.6733   35.0629   -1.1195 C   0  0  0  0  0  0  0  0  0  0  0  0
   14.5176   30.3634   -3.2241 C   0  0  0  0  0  0  0  0  0  0  0  0
   15.6363   29.5639   -3.0711 C   0  0  0  0  0  0  0  0  0  0  0  0
   14.5385   27.8459   -4.2510 C   0  0  0  0  0  0  0  0  0  0  0  0
   13.4257   28.6607   -4.3952 C   0  0  0  0  0  0  0  0  0  0  0  0
   10.9311   32.3931   -5.5237 C   0  0  2  0  0  0  0  0  0  0  0  0
   14.5529   26.5437   -4.7806 O   0  0  0  0  0  0  0  0  0  0  0  0
   11.9366   31.3521   -7.3464 O   0  0  0  0  0  0  0  0  0  0  0  0
   12.4875   36.7322   -1.0522 O   0  0  0  0  0  0  0  0  0  0  0  0
    9.9530   35.6629   -1.1161 O   0  0  0  0  0  0  0  0  0  0  0  0
   16.7694   27.4515   -3.4519 O   0  0  0  0  0  0  0  0  0  0  0  0
  1  2  1  0
  1 16  2  0
 19  1  1  0
  3  2  1  1
  3  4  1  0
  3 20  1  0
  4 22  1  0
 20  5  1  0
  5 22  1  0
  6 12  1  0
 20  6  1  6
 13  7  2  0
  7 14  1  0
  9  8  1  0
  8 14  2  0
  8 24  1  0
 12  9  2  0
 10 17  2  0
 18 10  1  0
 10 25  1  0
 21 11  1  0
 12 13  1  0
 14 23  1  0
 24 15  1  0
 17 16  1  0
 18 19  2  0
 18 21  1  0
M  END
$$$$
