
     RDKit          3D

 25 27  0  0  0  0  0  0  0  0999 V2000
   12.3408   29.3509   -4.8709 C   0  0  0  0  0  0  0  0  0  0  0  0
   11.2034   29.8143   -5.7113 C   0  0  0  0  0  0  0  0  0  0  0  0
   11.5396   31.1584   -6.2722 C   0  0  1  0  0  0  0  0  0  0  0  0
   10.5537   31.6178   -7.3255 C   0  0  0  0  0  0  0  0  0  0  0  0
    9.8487   32.5907   -5.5001 C   0  0  0  0  0  0  0  0  0  0  0  0
   12.2845   33.2405   -5.2857 C   0  0  0  0  0  0  0  0  0  0  0  0
   15.5652   32.3899   -3.7320 C   0  0  0  0  0  0  0  0  0  0  0  0
   14.2882   33.6926   -2.1408 C   0  0  0  0  0  0  0  0  0  0  0  0
   13.2791   33.7531   -3.0812 C   0  0  0  0  0  0  0  0  0  0  0  0
   14.4739   28.4923   -3.3748 C   0  0  0  0  0  0  0  0  0  0  0  0
   15.9988   28.3292   -6.7373 C   0  0  0  0  0  0  0  0  0  0  0  0
   13.3850   33.1543   -4.3263 C   0  0  0  0  0  0  0  0  0  0  0  0
   14.5282   32.4674   -4.6630 C   0  0  0  0  0  0  0  0  0  0  0  0
   15.4200   32.9990   -2.5057 C   0  0  0  0  0  0  0  0  0  0  0  0
   12.9937   34.9693   -0.5040 C   0  0  0  0  0  0  0  0  0  0  0  0
   12.2041   29.2082   -3.5110 C   0  0  0  0  0  0  0  0  0  0  0  0
   13.2666   28.7795   -2.7578 C   0  0  0  0  0  0  0  0  0  0  0  0
   14.6126   28.6360   -4.7470 C   0  0  0  0  0  0  0  0  0  0  0  0
   13.5292   29.0676   -5.4740 C   0  0  0  0  0  0  0  0  0  0  0  0
   11.2378   32.1891   -5.1723 C   0  0  2  0  0  0  0  0  0  0  0  0
   15.8467   28.3364   -5.3336 O   0  0  0  0  0  0  0  0  0  0  0  0
    9.3963   31.7667   -6.5297 O   0  0  0  0  0  0  0  0  0  0  0  0
   16.4771   32.9074   -1.5849 O   0  0  0  0  0  0  0  0  0  0  0  0
   14.1788   34.2990   -0.8821 O   0  0  0  0  0  0  0  0  0  0  0  0
   15.5472   28.0599   -2.6188 O   0  0  0  0  0  0  0  0  0  0  0  0
  2  1  1  1
  1 16  2  0
 19  1  1  0
  3  2  1  1
  3  4  1  0
  3 20  1  0
  4 22  1  6
 20  5  1  0
  5 22  1  6
  6 12  1  1
 20  6  1  6
 13  7  2  0
  7 14  1  0
  9  8  1  0
  8 14  2  0
  8 24  1  0
 12  9  2  0
 10 17  2  0
 18 10  1  0
 10 25  1  0
 11 21  1  6
 12 13  1  0
 14 23  1  0
 15 24  1  6
 17 16  1  0
 18 19  2  0
 18 21  1  0
M  END
$$$$
