
     RDKit          3D

 25 27  0  0  0  0  0  0  0  0999 V2000
   12.3681   32.7987   -3.9743 C   0  0  0  0  0  0  0  0  0  0  0  0
   10.9176   32.6171   -4.2532 C   0  0  0  0  0  0  0  0  0  0  0  0
   10.6307   31.1542   -4.3610 C   0  0  1  0  0  0  0  0  0  0  0  0
    9.1952   30.8646   -4.7453 C   0  0  0  0  0  0  0  0  0  0  0  0
   10.2683   30.7624   -6.6461 C   0  0  0  0  0  0  0  0  0  0  0  0
   11.8334   29.2830   -5.3180 C   0  0  0  0  0  0  0  0  0  0  0  0
   14.7397   28.6564   -3.0684 C   0  0  0  0  0  0  0  0  0  0  0  0
   15.5787   29.5252   -5.1662 C   0  0  0  0  0  0  0  0  0  0  0  0
   14.2704   29.5844   -5.6035 C   0  0  0  0  0  0  0  0  0  0  0  0
   15.0483   33.1634   -3.5168 C   0  0  0  0  0  0  0  0  0  0  0  0
   14.8140   34.6424   -6.8950 C   0  0  0  0  0  0  0  0  0  0  0  0
   13.2025   29.1945   -4.8113 C   0  0  0  0  0  0  0  0  0  0  0  0
   13.4270   28.7273   -3.5372 C   0  0  0  0  0  0  0  0  0  0  0  0
   15.7727   29.0536   -3.8875 C   0  0  0  0  0  0  0  0  0  0  0  0
   16.4626   30.2479   -7.3298 C   0  0  0  0  0  0  0  0  0  0  0  0
   12.9287   32.3332   -2.8092 C   0  0  0  0  0  0  0  0  0  0  0  0
   14.2676   32.5124   -2.5748 C   0  0  0  0  0  0  0  0  0  0  0  0
   14.4834   33.6335   -4.6928 C   0  0  0  0  0  0  0  0  0  0  0  0
   13.1387   33.4383   -4.8981 C   0  0  0  0  0  0  0  0  0  0  0  0
   11.3411   30.6524   -5.6285 C   0  0  2  0  0  0  0  0  0  0  0  0
   15.3036   34.2856   -5.6196 O   0  0  0  0  0  0  0  0  0  0  0  0
    9.1789   31.3985   -6.0529 O   0  0  0  0  0  0  0  0  0  0  0  0
   17.0856   28.9732   -3.3938 O   0  0  0  0  0  0  0  0  0  0  0  0
   16.6572   29.9202   -5.9691 O   0  0  0  0  0  0  0  0  0  0  0  0
   16.3985   33.3460   -3.2840 O   0  0  0  0  0  0  0  0  0  0  0  0
  2  1  1  1
  1 16  2  0
 19  1  1  0
  3  2  1  6
  3  4  1  0
  3 20  1  0
  4 22  1  6
 20  5  1  0
  5 22  1  6
  6 12  1  1
 20  6  1  1
 13  7  2  0
  7 14  1  0
  9  8  1  0
  8 14  2  0
  8 24  1  0
 12  9  2  0
 10 17  2  0
 18 10  1  0
 10 25  1  0
 11 21  1  6
 12 13  1  0
 14 23  1  0
 15 24  1  6
 17 16  1  0
 18 19  2  0
 18 21  1  0
M  END
$$$$
