
     RDKit          3D

 25 27  0  0  0  0  0  0  0  0999 V2000
   12.6364   32.8105   -6.3211 C   0  0  0  0  0  0  0  0  0  0  0  0
   11.2168   32.7213   -5.8833 C   0  0  0  0  0  0  0  0  0  0  0  0
   11.1572   31.9417   -4.6094 C   0  0  1  0  0  0  0  0  0  0  0  0
    9.9638   32.3081   -3.7526 C   0  0  0  0  0  0  0  0  0  0  0  0
    9.2953   30.5312   -4.8348 C   0  0  0  0  0  0  0  0  0  0  0  0
   11.5213   29.6118   -4.0592 C   0  0  0  0  0  0  0  0  0  0  0  0
   14.1140   27.9569   -6.1662 C   0  0  0  0  0  0  0  0  0  0  0  0
   15.2102   28.9272   -4.2384 C   0  0  0  0  0  0  0  0  0  0  0  0
   13.9704   29.3708   -3.8235 C   0  0  0  0  0  0  0  0  0  0  0  0
   15.2342   33.0084   -7.1798 C   0  0  0  0  0  0  0  0  0  0  0  0
   13.5552   34.8686   -9.9000 C   0  0  0  0  0  0  0  0  0  0  0  0
   12.8127   29.1267   -4.5448 C   0  0  0  0  0  0  0  0  0  0  0  0
   12.8736   28.4177   -5.7220 C   0  0  0  0  0  0  0  0  0  0  0  0
   15.2404   28.2210   -5.4197 C   0  0  0  0  0  0  0  0  0  0  0  0
   16.3253   29.8414   -2.2622 C   0  0  0  0  0  0  0  0  0  0  0  0
   13.6424   32.2358   -5.5823 C   0  0  0  0  0  0  0  0  0  0  0  0
   14.9428   32.3313   -6.0063 C   0  0  0  0  0  0  0  0  0  0  0  0
   14.2196   33.5885   -7.9260 C   0  0  0  0  0  0  0  0  0  0  0  0
   12.9266   33.4753   -7.4744 C   0  0  0  0  0  0  0  0  0  0  0  0
   10.7701   30.5022   -4.9850 C   0  0  2  0  0  0  0  0  0  0  0  0
   14.5529   34.2636   -9.1050 O   0  0  0  0  0  0  0  0  0  0  0  0
    8.9165   31.8488   -4.5816 O   0  0  0  0  0  0  0  0  0  0  0  0
   16.4777   27.7469   -5.8868 O   0  0  0  0  0  0  0  0  0  0  0  0
   16.3797   29.1752   -3.5072 O   0  0  0  0  0  0  0  0  0  0  0  0
   16.5440   33.1067   -7.6105 O   0  0  0  0  0  0  0  0  0  0  0  0
  2  1  1  1
  1 16  2  0
 19  1  1  0
  3  2  1  6
  3  4  1  0
  3 20  1  0
  4 22  1  6
 20  5  1  0
  5 22  1  6
  6 12  1  1
 20  6  1  1
 13  7  2  0
  7 14  1  0
  9  8  1  0
  8 14  2  0
  8 24  1  0
 12  9  2  0
 10 17  2  0
 18 10  1  0
 10 25  1  0
 11 21  1  6
 12 13  1  0
 14 23  1  0
 15 24  1  6
 17 16  1  0
 18 19  2  0
 18 21  1  0
M  END
$$$$
