
     RDKit          3D

 25 27  0  0  0  0  0  0  0  0999 V2000
   12.9765   31.1646   -6.8654 C   0  0  0  0  0  0  0  0  0  0  0  0
   11.5213   31.4702   -6.8056 C   0  0  0  0  0  0  0  0  0  0  0  0
   11.1807   31.9057   -5.4169 C   0  0  1  0  0  0  0  0  0  0  0  0
    9.9708   32.8146   -5.3673 C   0  0  0  0  0  0  0  0  0  0  0  0
    9.1510   30.8400   -4.9156 C   0  0  0  0  0  0  0  0  0  0  0  0
   11.0840   30.7618   -3.2848 C   0  0  0  0  0  0  0  0  0  0  0  0
   14.0194   28.4771   -3.0331 C   0  0  0  0  0  0  0  0  0  0  0  0
   14.7040   30.6756   -2.2863 C   0  0  0  0  0  0  0  0  0  0  0  0
   13.4173   31.1051   -2.5438 C   0  0  0  0  0  0  0  0  0  0  0  0
   15.6449   30.5388   -6.9822 C   0  0  0  0  0  0  0  0  0  0  0  0
   14.2138   27.1432   -7.2983 C   0  0  0  0  0  0  0  0  0  0  0  0
   12.4349   30.2604   -3.0350 C   0  0  0  0  0  0  0  0  0  0  0  0
   12.7265   28.9393   -3.2840 C   0  0  0  0  0  0  0  0  0  0  0  0
   14.9665   29.3492   -2.5451 C   0  0  0  0  0  0  0  0  0  0  0  0
   15.3952   32.8736   -1.4643 C   0  0  0  0  0  0  0  0  0  0  0  0
   13.9143   32.1646   -6.7717 C   0  0  0  0  0  0  0  0  0  0  0  0
   15.2495   31.8582   -6.8293 C   0  0  0  0  0  0  0  0  0  0  0  0
   14.6993   29.5290   -7.0768 C   0  0  0  0  0  0  0  0  0  0  0  0
   13.3690   29.8686   -7.0156 C   0  0  0  0  0  0  0  0  0  0  0  0
   10.6076   30.6772   -4.6920 C   0  0  2  0  0  0  0  0  0  0  0  0
   15.1370   28.2093   -7.2304 O   0  0  0  0  0  0  0  0  0  0  0  0
    8.9687   31.9123   -5.7876 O   0  0  0  0  0  0  0  0  0  0  0  0
   16.2610   28.8611   -2.3002 O   0  0  0  0  0  0  0  0  0  0  0  0
   15.6960   31.5317   -1.7894 O   0  0  0  0  0  0  0  0  0  0  0  0
   16.9900   30.2260   -7.0407 O   0  0  0  0  0  0  0  0  0  0  0  0
  2  1  1  1
  1 16  2  0
 19  1  1  0
  3  2  1  6
  3  4  1  0
  3 20  1  0
  4 22  1  6
 20  5  1  0
  5 22  1  6
  6 12  1  1
 20  6  1  1
 13  7  2  0
  7 14  1  0
  9  8  1  0
  8 14  2  0
  8 24  1  0
 12  9  2  0
 10 17  2  0
 18 10  1  0
 10 25  1  0
 11 21  1  6
 12 13  1  0
 14 23  1  0
 15 24  1  6
 17 16  1  0
 18 19  2  0
 18 21  1  0
M  END
$$$$
