
     RDKit          3D

 25 27  0  0  0  0  0  0  0  0999 V2000
   13.4263   31.9782   -4.3445 C   0  0  0  0  0  0  0  0  0  0  0  0
   11.9787   32.3177   -4.2831 C   0  0  0  0  0  0  0  0  0  0  0  0
   11.1885   31.0492   -4.3055 C   0  0  1  0  0  0  0  0  0  0  0  0
    9.7182   31.2687   -4.0187 C   0  0  0  0  0  0  0  0  0  0  0  0
    9.8146   31.2105   -6.2010 C   0  0  0  0  0  0  0  0  0  0  0  0
   11.1706   29.1188   -5.7674 C   0  0  0  0  0  0  0  0  0  0  0  0
   14.7810   28.4819   -6.4451 C   0  0  0  0  0  0  0  0  0  0  0  0
   14.0367   26.9088   -4.7626 C   0  0  0  0  0  0  0  0  0  0  0  0
   12.7869   27.4889   -4.8495 C   0  0  0  0  0  0  0  0  0  0  0  0
   16.1014   31.3925   -4.5078 C   0  0  0  0  0  0  0  0  0  0  0  0
   15.8231   33.7275   -7.3604 C   0  0  0  0  0  0  0  0  0  0  0  0
   12.5136   28.5429   -5.7066 C   0  0  0  0  0  0  0  0  0  0  0  0
   13.5073   29.0488   -6.5119 C   0  0  0  0  0  0  0  0  0  0  0  0
   15.0111   27.4358   -5.5799 C   0  0  0  0  0  0  0  0  0  0  0  0
   13.2872   25.2731   -3.1050 C   0  0  0  0  0  0  0  0  0  0  0  0
   13.9817   31.0834   -3.4618 C   0  0  0  0  0  0  0  0  0  0  0  0
   15.3181   30.7866   -3.5384 C   0  0  0  0  0  0  0  0  0  0  0  0
   15.5418   32.2955   -5.3990 C   0  0  0  0  0  0  0  0  0  0  0  0
   14.1995   32.5720   -5.2963 C   0  0  0  0  0  0  0  0  0  0  0  0
   11.0991   30.6051   -5.7745 C   0  0  2  0  0  0  0  0  0  0  0  0
   16.3644   32.8867   -6.3637 O   0  0  0  0  0  0  0  0  0  0  0  0
    9.3545   32.0163   -5.1606 O   0  0  0  0  0  0  0  0  0  0  0  0
   16.3011   26.8813   -5.5301 O   0  0  0  0  0  0  0  0  0  0  0  0
   14.3109   25.8428   -3.8951 O   0  0  0  0  0  0  0  0  0  0  0  0
   17.4490   31.0958   -4.5881 O   0  0  0  0  0  0  0  0  0  0  0  0
  2  1  1  1
  1 16  2  0
 19  1  1  0
  3  2  1  6
  3  4  1  0
  3 20  1  0
  4 22  1  6
 20  5  1  0
  5 22  1  6
  6 12  1  1
 20  6  1  1
 13  7  2  0
  7 14  1  0
  9  8  1  0
  8 14  2  0
  8 24  1  0
 12  9  2  0
 10 17  2  0
 18 10  1  0
 10 25  1  0
 11 21  1  6
 12 13  1  0
 14 23  1  0
 15 24  1  6
 17 16  1  0
 18 19  2  0
 18 21  1  0
M  END
$$$$
