
     RDKit          3D

 25 27  0  0  0  0  0  0  0  0999 V2000
   13.2393   30.3624   -5.6931 C   0  0  0  0  0  0  0  0  0  0  0  0
   12.0153   30.6453   -6.4909 C   0  0  0  0  0  0  0  0  0  0  0  0
   11.4107   31.9221   -6.0026 C   0  0  1  0  0  0  0  0  0  0  0  0
   10.2526   32.3881   -6.8594 C   0  0  0  0  0  0  0  0  0  0  0  0
    9.2818   31.3340   -5.2096 C   0  0  0  0  0  0  0  0  0  0  0  0
   10.8296   32.7620   -3.8071 C   0  0  0  0  0  0  0  0  0  0  0  0
   14.1909   34.3730   -3.7273 C   0  0  0  0  0  0  0  0  0  0  0  0
   14.1453   32.6311   -2.0470 C   0  0  0  0  0  0  0  0  0  0  0  0
   12.8443   32.3708   -2.4288 C   0  0  0  0  0  0  0  0  0  0  0  0
   15.4710   29.7834   -4.2066 C   0  0  0  0  0  0  0  0  0  0  0  0
   13.5734   26.6509   -3.6922 C   0  0  0  0  0  0  0  0  0  0  0  0
   12.2073   33.0807   -3.4340 C   0  0  0  0  0  0  0  0  0  0  0  0
   12.8743   34.0876   -4.0923 C   0  0  0  0  0  0  0  0  0  0  0  0
   14.7874   33.6440   -2.7230 C   0  0  0  0  0  0  0  0  0  0  0  0
   14.0811   30.9577   -0.2637 C   0  0  0  0  0  0  0  0  0  0  0  0
   14.2577   31.2812   -5.6091 C   0  0  0  0  0  0  0  0  0  0  0  0
   15.3756   30.9976   -4.8676 C   0  0  0  0  0  0  0  0  0  0  0  0
   14.4439   28.8556   -4.2908 C   0  0  0  0  0  0  0  0  0  0  0  0
   13.3366   29.1696   -5.0418 C   0  0  0  0  0  0  0  0  0  0  0  0
   10.6530   31.5901   -4.7070 C   0  0  2  0  0  0  0  0  0  0  0  0
   14.5765   27.6411   -3.6096 O   0  0  0  0  0  0  0  0  0  0  0  0
    9.3259   31.3535   -6.6029 O   0  0  0  0  0  0  0  0  0  0  0  0
   16.1133   33.9493   -2.3730 O   0  0  0  0  0  0  0  0  0  0  0  0
   14.7876   31.9117   -1.0302 O   0  0  0  0  0  0  0  0  0  0  0  0
   16.5965   29.4939   -3.4582 O   0  0  0  0  0  0  0  0  0  0  0  0
  2  1  1  1
  1 16  2  0
 19  1  1  0
  3  2  1  6
  3  4  1  0
  3 20  1  0
  4 22  1  6
 20  5  1  0
  5 22  1  6
  6 12  1  1
 20  6  1  1
 13  7  2  0
  7 14  1  0
  9  8  1  0
  8 14  2  0
  8 24  1  0
 12  9  2  0
 10 17  2  0
 18 10  1  0
 10 25  1  0
 11 21  1  6
 12 13  1  0
 14 23  1  0
 15 24  1  6
 17 16  1  0
 18 19  2  0
 18 21  1  0
M  END
$$$$
