
     RDKit          3D

 25 27  0  0  0  0  0  0  0  0999 V2000
   13.9357   28.2593   -3.3745 C   0  0  0  0  0  0  0  0  0  0  0  0
   12.6352   28.9019   -3.3149 C   0  0  0  0  0  0  0  0  0  0  0  0
   11.9685   29.2606   -4.5930 C   0  0  1  0  0  0  0  0  0  0  0  0
   10.5028   28.9428   -4.6740 C   0  0  0  0  0  0  0  0  0  0  0  0
   10.6521   31.1970   -4.6044 C   0  0  0  0  0  0  0  0  0  0  0  0
   12.3945   30.9863   -6.4035 C   0  0  0  0  0  0  0  0  0  0  0  0
   14.2125   34.1990   -6.9589 C   0  0  0  0  0  0  0  0  0  0  0  0
   11.8874   34.5618   -7.3846 C   0  0  0  0  0  0  0  0  0  0  0  0
   11.5899   33.2536   -7.1014 C   0  0  0  0  0  0  0  0  0  0  0  0
   16.4464   26.9796   -3.4865 C   0  0  0  0  0  0  0  0  0  0  0  0
   14.2751   24.1633   -2.5951 C   0  0  0  0  0  0  0  0  0  0  0  0
   12.6206   32.4017   -6.7410 C   0  0  0  0  0  0  0  0  0  0  0  0
   13.9212   32.8792   -6.6717 C   0  0  0  0  0  0  0  0  0  0  0  0
   13.1956   35.0562   -7.3194 C   0  0  0  0  0  0  0  0  0  0  0  0
    9.5355   35.0680   -7.5453 C   0  0  0  0  0  0  0  0  0  0  0  0
   15.0976   28.9395   -3.7081 C   0  0  0  0  0  0  0  0  0  0  0  0
   16.3348   28.3229   -3.7662 C   0  0  0  0  0  0  0  0  0  0  0  0
   15.3202   26.2864   -3.1561 C   0  0  0  0  0  0  0  0  0  0  0  0
   14.0879   26.9203   -3.1026 C   0  0  0  0  0  0  0  0  0  0  0  0
   12.0185   30.6921   -4.9903 C   0  0  2  0  0  0  0  0  0  0  0  0
   15.4391   24.9148   -2.8714 O   0  0  0  0  0  0  0  0  0  0  0  0
    9.7942   30.1214   -4.6111 O   0  0  0  0  0  0  0  0  0  0  0  0
   13.4697   36.3705   -7.6080 O   0  0  0  0  0  0  0  0  0  0  0  0
   10.8825   35.4444   -7.7494 O   0  0  0  0  0  0  0  0  0  0  0  0
   17.6918   26.3236   -3.5371 O   0  0  0  0  0  0  0  0  0  0  0  0
  1  2  1  0
  1 16  2  0
 19  1  1  0
  3  2  1  1
  3  4  1  0
  3 20  1  0
  4 22  1  0
 20  5  1  0
  5 22  1  0
  6 12  1  0
 20  6  1  6
 13  7  2  0
  7 14  1  0
  9  8  1  0
  8 14  2  0
  8 24  1  0
 12  9  2  0
 10 17  2  0
 18 10  1  0
 10 25  1  0
 21 11  1  0
 12 13  1  0
 14 23  1  0
 24 15  1  0
 17 16  1  0
 18 19  2  0
 18 21  1  0
M  END
$$$$
