
     RDKit          3D

 25 27  0  0  0  0  0  0  0  0999 V2000
   12.4528   33.0481   -5.8470 C   0  0  0  0  0  0  0  0  0  0  0  0
   13.0187   31.7230   -5.6679 C   0  0  0  0  0  0  0  0  0  0  0  0
   12.1185   30.6279   -5.2237 C   0  0  1  0  0  0  0  0  0  0  0  0
   10.7015   30.7108   -5.7146 C   0  0  0  0  0  0  0  0  0  0  0  0
   11.6316   28.9479   -6.7802 C   0  0  0  0  0  0  0  0  0  0  0  0
   12.4590   28.2132   -4.5235 C   0  0  0  0  0  0  0  0  0  0  0  0
   14.6599   28.7610   -1.5586 C   0  0  0  0  0  0  0  0  0  0  0  0
   15.8235   27.3707   -3.1181 C   0  0  0  0  0  0  0  0  0  0  0  0
   14.7664   27.3960   -3.9912 C   0  0  0  0  0  0  0  0  0  0  0  0
   11.3414   35.6209   -6.1621 C   0  0  0  0  0  0  0  0  0  0  0  0
    9.8898   34.6291   -2.9442 C   0  0  0  0  0  0  0  0  0  0  0  0
   13.6354   28.1154   -3.6431 C   0  0  0  0  0  0  0  0  0  0  0  0
   13.5903   28.7917   -2.4328 C   0  0  0  0  0  0  0  0  0  0  0  0
   15.7907   28.0480   -1.8933 C   0  0  0  0  0  0  0  0  0  0  0  0
   17.0114   25.9209   -4.6348 C   0  0  0  0  0  0  0  0  0  0  0  0
   12.7213   33.8384   -6.9548 C   0  0  0  0  0  0  0  0  0  0  0  0
   12.1821   35.1017   -7.1207 C   0  0  0  0  0  0  0  0  0  0  0  0
   11.0608   34.8656   -5.0626 C   0  0  0  0  0  0  0  0  0  0  0  0
   11.6100   33.6012   -4.9123 C   0  0  0  0  0  0  0  0  0  0  0  0
   12.5176   29.2459   -5.5983 C   0  0  2  0  0  0  0  0  0  0  0  0
   10.2018   35.4000   -4.0863 O   0  0  0  0  0  0  0  0  0  0  0  0
   10.5101   29.7371   -6.6688 O   0  0  0  0  0  0  0  0  0  0  0  0
   16.8615   28.0080   -1.0346 O   0  0  0  0  0  0  0  0  0  0  0  0
   16.9725   26.6611   -3.4314 O   0  0  0  0  0  0  0  0  0  0  0  0
   10.7768   36.9036   -6.3024 O   0  0  0  0  0  0  0  0  0  0  0  0
  1  2  1  0
  1 16  2  0
 19  1  1  0
  3  2  1  6
  3  4  1  0
  3 20  1  0
  4 22  1  0
 20  5  1  0
  5 22  1  0
  6 12  1  0
 20  6  1  1
 13  7  2  0
  7 14  1  0
  9  8  1  0
  8 14  2  0
  8 24  1  0
 12  9  2  0
 10 17  2  0
 18 10  1  0
 10 25  1  0
 21 11  1  0
 12 13  1  0
 14 23  1  0
 24 15  1  0
 17 16  1  0
 18 19  2  0
 18 21  1  0
M  END
$$$$
