
     RDKit          3D

 25 27  0  0  0  0  0  0  0  0999 V2000
   13.4319   28.6152   -4.5968 C   0  0  0  0  0  0  0  0  0  0  0  0
   12.0052   28.6315   -4.8662 C   0  0  0  0  0  0  0  0  0  0  0  0
   11.3964   29.8945   -5.3572 C   0  0  1  0  0  0  0  0  0  0  0  0
    9.9054   29.8715   -5.5362 C   0  0  0  0  0  0  0  0  0  0  0  0
   10.3046   31.2374   -3.7802 C   0  0  0  0  0  0  0  0  0  0  0  0
   12.0318   32.3475   -5.2300 C   0  0  0  0  0  0  0  0  0  0  0  0
   13.6383   34.8555   -2.9797 C   0  0  0  0  0  0  0  0  0  0  0  0
   11.3917   35.5535   -3.4089 C   0  0  0  0  0  0  0  0  0  0  0  0
   11.1634   34.4643   -4.2100 C   0  0  0  0  0  0  0  0  0  0  0  0
   16.2088   28.5992   -4.1045 C   0  0  0  0  0  0  0  0  0  0  0  0
   16.1306   29.7660   -7.5790 C   0  0  0  0  0  0  0  0  0  0  0  0
   12.1896   33.5542   -4.4008 C   0  0  0  0  0  0  0  0  0  0  0  0
   13.4165   33.7551   -3.7853 C   0  0  0  0  0  0  0  0  0  0  0  0
   12.6252   35.7686   -2.7828 C   0  0  0  0  0  0  0  0  0  0  0  0
    9.1405   36.3062   -3.8322 C   0  0  0  0  0  0  0  0  0  0  0  0
   13.9621   28.2563   -3.3664 C   0  0  0  0  0  0  0  0  0  0  0  0
   15.3222   28.2445   -3.1129 C   0  0  0  0  0  0  0  0  0  0  0  0
   15.7148   28.9567   -5.3237 C   0  0  0  0  0  0  0  0  0  0  0  0
   14.3484   28.9631   -5.5606 C   0  0  0  0  0  0  0  0  0  0  0  0
   11.6101   31.1047   -4.5209 C   0  0  2  0  0  0  0  0  0  0  0  0
   16.6240   29.3182   -6.3331 O   0  0  0  0  0  0  0  0  0  0  0  0
    9.3321   30.6279   -4.5390 O   0  0  0  0  0  0  0  0  0  0  0  0
   12.8308   36.8673   -1.9850 O   0  0  0  0  0  0  0  0  0  0  0  0
   10.3889   36.4864   -3.1945 O   0  0  0  0  0  0  0  0  0  0  0  0
   17.5988   28.5968   -3.8772 O   0  0  0  0  0  0  0  0  0  0  0  0
  1  2  1  0
  1 16  2  0
 19  1  1  0
  3  2  1  1
  3  4  1  0
  3 20  1  0
  4 22  1  0
 20  5  1  0
  5 22  1  0
  6 12  1  0
 20  6  1  6
 13  7  2  0
  7 14  1  0
  9  8  1  0
  8 14  2  0
  8 24  1  0
 12  9  2  0
 10 17  2  0
 18 10  1  0
 10 25  1  0
 21 11  1  0
 12 13  1  0
 14 23  1  0
 24 15  1  0
 17 16  1  0
 18 19  2  0
 18 21  1  0
M  END
$$$$
