
     RDKit          3D

 27 32  0  0  0  0  0  0  0  0999 V2000
    4.8514   63.9370  109.2429 C   0  0  0  0  0  0  0  0  0  0  0  0
    3.4916   63.6148  109.3057 C   0  0  0  0  0  0  0  0  0  0  0  0
    3.0295   62.6204  110.1184 C   0  0  0  0  0  0  0  0  0  0  0  0
    1.8907   61.1409  111.2528 C   0  0  0  0  0  0  0  0  0  0  0  0
    3.2009   60.9633  111.6287 C   0  0  0  0  0  0  0  0  0  0  0  0
    3.5862   59.9160  112.6311 C   0  0  0  0  0  0  0  0  0  0  0  0
    2.5448   59.9968  113.7012 C   0  0  2  0  0  0  0  0  0  0  0  0
    1.1371   59.8308  113.2331 C   0  0  1  0  0  0  0  0  0  0  0  0
    0.1767   60.4305  114.2652 C   0  0  0  0  0  0  0  0  0  0  0  0
    0.9041   60.4131  115.5483 C   0  0  2  0  0  0  0  0  0  0  0  0
    1.7244   59.1601  115.7605 C   0  0  0  0  0  0  0  0  0  0  0  0
    0.1623   60.7471  116.7526 C   0  0  0  0  0  0  0  0  0  0  0  0
    1.0096   61.3798  117.5563 C   0  0  0  0  0  0  0  0  0  0  0  0
    2.3522   61.4605  116.8465 C   0  0  0  0  0  0  0  0  0  0  0  0
    2.7586   61.3212  114.4511 C   0  0  0  0  0  0  0  0  0  0  0  0
    0.8499   60.2810  111.8460 C   0  0  2  0  0  0  0  0  0  0  0  0
    0.7657   59.0466  110.9328 C   0  0  0  0  0  0  0  0  0  0  0  0
   -0.4903   60.9689  111.7048 C   0  0  0  0  0  0  0  0  0  0  0  0
    3.9200   61.9157  110.8961 C   0  0  0  0  0  0  0  0  0  0  0  0
    5.2524   62.2170  110.8473 C   0  0  0  0  0  0  0  0  0  0  0  0
    5.7362   63.2220  110.0288 C   0  0  0  0  0  0  0  0  0  0  0  0
    1.8081   62.1311  110.3536 N   0  0  0  0  0  0  0  0  0  0  0  0
    2.7339   59.0002  114.7629 N   0  0  0  0  0  0  0  0  0  0  0  0
    1.8544   61.5382  115.4960 N   0  0  1  0  0  4  0  0  0  0  0  0
    1.5224   58.3752  116.7039 O   0  0  0  0  0  0  0  0  0  0  0  0
    5.4521   65.1974  108.2153 Cl  0  0  0  0  0  0  0  0  0  0  0  0
    7.4539   63.5814  109.9919 Cl  0  0  0  0  0  0  0  0  0  0  0  0
  2  1  2  0
  1 21  1  0
  1 26  1  0
  3  2  1  0
  3 19  2  0
 22  3  1  0
  4  5  2  0
  4 16  1  0
  4 22  1  0
  5  6  1  0
  5 19  1  0
  7  6  1  6
  7  8  1  0
  7 15  1  0
  7 23  1  0
  8  9  1  1
  8 16  1  0
  9 10  1  0
 10 11  1  0
 10 12  1  1
 10 24  1  0
 11 23  1  0
 11 25  2  0
 12 13  2  0
 13 14  1  0
 24 14  1  1
 15 24  1  0
 16 17  1  6
 16 18  1  0
 19 20  1  0
 20 21  2  0
 21 27  1  0
M  CHG  1  24   1
M  END
$$$$
