
     RDKit          3D

 27 32  0  0  0  0  0  0  0  0999 V2000
    4.3516   64.2157  109.2685 C   0  0  0  0  0  0  0  0  0  0  0  0
    3.1879   63.4817  109.5212 C   0  0  0  0  0  0  0  0  0  0  0  0
    3.1745   62.4477  110.4121 C   0  0  0  0  0  0  0  0  0  0  0  0
    2.7222   60.7605  111.7240 C   0  0  0  0  0  0  0  0  0  0  0  0
    4.0541   61.0351  111.9244 C   0  0  0  0  0  0  0  0  0  0  0  0
    4.8755   60.2338  112.8905 C   0  0  0  0  0  0  0  0  0  0  0  0
    4.0002   60.0487  114.0887 C   0  0  2  0  0  0  0  0  0  0  0  0
    2.6775   59.4121  113.8182 C   0  0  1  0  0  0  0  0  0  0  0  0
    1.7051   59.7409  114.9556 C   0  0  0  0  0  0  0  0  0  0  0  0
    2.5466   60.0410  116.1293 C   0  0  2  0  0  0  0  0  0  0  0  0
    3.7485   59.1318  116.2588 C   0  0  0  0  0  0  0  0  0  0  0  0
    1.8863   60.1997  117.4141 C   0  0  0  0  0  0  0  0  0  0  0  0
    2.5718   61.1211  118.0813 C   0  0  0  0  0  0  0  0  0  0  0  0
    3.7203   61.5787  117.1957 C   0  0  0  0  0  0  0  0  0  0  0  0
    3.8605   61.4185  114.7713 C   0  0  0  0  0  0  0  0  0  0  0  0
    2.0959   59.6547  112.4721 C   0  0  2  0  0  0  0  0  0  0  0  0
    2.3086   58.4005  111.6080 C   0  0  0  0  0  0  0  0  0  0  0  0
    0.5983   59.8685  112.4961 C   0  0  0  0  0  0  0  0  0  0  0  0
    4.3318   62.1166  111.0794 C   0  0  0  0  0  0  0  0  0  0  0  0
    5.4782   62.8232  110.8447 C   0  0  0  0  0  0  0  0  0  0  0  0
    5.5079   63.8737  109.9449 C   0  0  0  0  0  0  0  0  0  0  0  0
    2.2156   61.6111  110.8209 N   0  0  0  0  0  0  0  0  0  0  0  0
    4.6283   59.2367  115.1386 N   0  0  0  0  0  0  0  0  0  0  0  0
    3.0666   61.4043  115.9229 N   0  0  1  0  0  4  0  0  0  0  0  0
    3.9267   58.3875  117.2392 O   0  0  0  0  0  0  0  0  0  0  0  0
    4.3829   65.5312  108.1399 Cl  0  0  0  0  0  0  0  0  0  0  0  0
    6.9983   64.7589  109.6689 Cl  0  0  0  0  0  0  0  0  0  0  0  0
  2  1  2  0
  1 21  1  0
  1 26  1  0
  3  2  1  0
  3 19  2  0
 22  3  1  0
  4  5  2  0
  4 16  1  0
  4 22  1  0
  5  6  1  0
  5 19  1  0
  7  6  1  6
  7  8  1  0
  7 15  1  0
  7 23  1  0
  8  9  1  1
  8 16  1  0
  9 10  1  0
 10 11  1  0
 10 12  1  1
 10 24  1  0
 11 23  1  0
 11 25  2  0
 12 13  2  0
 13 14  1  0
 24 14  1  1
 15 24  1  0
 16 17  1  6
 16 18  1  0
 19 20  1  0
 20 21  2  0
 21 27  1  0
M  CHG  1  24   1
M  END
$$$$
