
     RDKit          3D

 27 32  0  0  0  0  0  0  0  0999 V2000
   -0.0364   63.6911  110.8806 C   0  0  0  0  0  0  0  0  0  0  0  0
    0.6524   62.5158  110.5625 C   0  0  0  0  0  0  0  0  0  0  0  0
    1.6383   62.0247  111.3686 C   0  0  0  0  0  0  0  0  0  0  0  0
    3.2428   60.9152  112.3519 C   0  0  0  0  0  0  0  0  0  0  0  0
    2.9938   61.9970  113.1625 C   0  0  0  0  0  0  0  0  0  0  0  0
    3.7658   62.2112  114.4307 C   0  0  0  0  0  0  0  0  0  0  0  0
    3.8653   60.8590  115.0613 C   0  0  2  0  0  0  0  0  0  0  0  0
    4.4796   59.8014  114.2055 C   0  0  1  0  0  0  0  0  0  0  0  0
    4.0667   58.4184  114.7194 C   0  0  0  0  0  0  0  0  0  0  0  0
    3.7289   58.6034  116.1432 C   0  0  2  0  0  0  0  0  0  0  0  0
    4.6620   59.5485  116.8673 C   0  0  0  0  0  0  0  0  0  0  0  0
    3.4866   57.4140  116.9425 C   0  0  0  0  0  0  0  0  0  0  0  0
    2.5506   57.7367  117.8278 C   0  0  0  0  0  0  0  0  0  0  0  0
    2.1701   59.1904  117.5940 C   0  0  0  0  0  0  0  0  0  0  0  0
    2.4589   60.4739  115.5465 C   0  0  0  0  0  0  0  0  0  0  0  0
    4.2914   59.9533  112.7389 C   0  0  2  0  0  0  0  0  0  0  0  0
    5.5938   60.4952  112.1266 C   0  0  0  0  0  0  0  0  0  0  0  0
    4.0368   58.6418  112.0287 C   0  0  0  0  0  0  0  0  0  0  0  0
    1.9652   62.6995  112.5228 C   0  0  0  0  0  0  0  0  0  0  0  0
    1.3025   63.8496  112.8492 C   0  0  0  0  0  0  0  0  0  0  0  0
    0.3010   64.3600  112.0426 C   0  0  0  0  0  0  0  0  0  0  0  0
    2.4267   60.9484  111.2895 N   0  0  0  0  0  0  0  0  0  0  0  0
    4.6385   60.8631  116.3096 N   0  0  0  0  0  0  0  0  0  0  0  0
    2.3924   59.2236  116.1701 N   0  0  1  0  0  4  0  0  0  0  0  0
    5.3591   59.1959  117.8350 O   0  0  0  0  0  0  0  0  0  0  0  0
   -1.2905   64.3260  109.8661 Cl  0  0  0  0  0  0  0  0  0  0  0  0
   -0.5286   65.8397  112.4935 Cl  0  0  0  0  0  0  0  0  0  0  0  0
  2  1  2  0
  1 21  1  0
  1 26  1  0
  3  2  1  0
  3 19  2  0
 22  3  1  0
  4  5  2  0
  4 16  1  0
  4 22  1  0
  5  6  1  0
  5 19  1  0
  7  6  1  6
  7  8  1  0
  7 15  1  0
  7 23  1  0
  8  9  1  1
  8 16  1  0
  9 10  1  0
 10 11  1  0
 10 12  1  1
 10 24  1  0
 11 23  1  0
 11 25  2  0
 12 13  2  0
 13 14  1  0
 24 14  1  1
 15 24  1  0
 16 17  1  6
 16 18  1  0
 19 20  1  0
 20 21  2  0
 21 27  1  0
M  CHG  1  24   1
M  END
$$$$
