
     RDKit          3D

 27 32  0  0  0  0  0  0  0  0999 V2000
    5.1849   63.7181  109.2440 C   0  0  0  0  0  0  0  0  0  0  0  0
    3.9330   63.1856  109.4702 C   0  0  0  0  0  0  0  0  0  0  0  0
    3.7058   62.3939  110.5935 C   0  0  0  0  0  0  0  0  0  0  0  0
    2.8642   61.1143  112.1805 C   0  0  0  0  0  0  0  0  0  0  0  0
    4.1722   61.3141  112.4991 C   0  0  0  0  0  0  0  0  0  0  0  0
    4.8271   60.7495  113.6937 C   0  0  0  0  0  0  0  0  0  0  0  0
    3.9309   60.0197  114.6027 C   0  0  2  0  0  0  0  0  0  0  0  0
    2.7097   59.4309  113.9680 C   0  0  1  0  0  0  0  0  0  0  0  0
    1.7868   58.8306  115.0066 C   0  0  0  0  0  0  0  0  0  0  0  0
    2.5123   58.8014  116.2977 C   0  0  2  0  0  0  0  0  0  0  0  0
    3.8928   58.1994  116.1577 C   0  0  0  0  0  0  0  0  0  0  0  0
    1.7979   58.2341  117.4338 C   0  0  0  0  0  0  0  0  0  0  0  0
    2.1748   58.9293  118.5052 C   0  0  0  0  0  0  0  0  0  0  0  0
    3.1659   59.9859  118.0631 C   0  0  0  0  0  0  0  0  0  0  0  0
    3.5942   60.8559  115.8471 C   0  0  0  0  0  0  0  0  0  0  0  0
    1.9771   60.2990  113.0227 C   0  0  2  0  0  0  0  0  0  0  0  0
    1.2168   59.3698  112.0581 C   0  0  0  0  0  0  0  0  0  0  0  0
    0.9311   61.1801  113.6486 C   0  0  0  0  0  0  0  0  0  0  0  0
    4.6994   62.1116  111.5114 C   0  0  0  0  0  0  0  0  0  0  0  0
    5.9550   62.6551  111.2697 C   0  0  0  0  0  0  0  0  0  0  0  0
    6.1712   63.4317  110.1646 C   0  0  0  0  0  0  0  0  0  0  0  0
    2.6091   61.7752  111.0287 N   0  0  0  0  0  0  0  0  0  0  0  0
    4.6641   58.8827  115.1708 N   0  0  0  0  0  0  0  0  0  0  0  0
    2.6836   60.1940  116.7124 N   0  0  1  0  0  4  0  0  0  0  0  0
    4.2845   57.2315  116.8284 O   0  0  0  0  0  0  0  0  0  0  0  0
    5.4974   64.7196  107.8350 Cl  0  0  0  0  0  0  0  0  0  0  0  0
    7.7623   64.1018  109.8875 Cl  0  0  0  0  0  0  0  0  0  0  0  0
  2  1  2  0
  1 21  1  0
  1 26  1  0
  3  2  1  0
  3 19  2  0
 22  3  1  0
  4  5  2  0
 16  4  1  6
  4 22  1  0
  6  5  1  1
  5 19  1  0
  6  7  1  0
  7  8  1  0
  7 15  1  0
  7 23  1  1
  8  9  1  1
  8 16  1  0
  9 10  1  6
 10 11  1  0
 10 12  1  1
 10 24  1  0
 11 23  1  0
 11 25  2  0
 12 13  2  0
 14 13  1  1
 24 14  1  1
 15 24  1  6
 17 16  1  1
 18 16  1  1
 19 20  1  0
 20 21  2  0
 21 27  1  0
M  CHG  1  24   1
M  END
$$$$
