
     RDKit          3D

 27 32  0  0  0  0  0  0  0  0999 V2000
    5.7700   62.0636  109.9156 C   0  0  0  0  0  0  0  0  0  0  0  0
    5.2051   61.4713  111.0500 C   0  0  0  0  0  0  0  0  0  0  0  0
    4.0793   61.9758  111.6341 C   0  0  0  0  0  0  0  0  0  0  0  0
    2.3299   62.4445  112.8555 C   0  0  0  0  0  0  0  0  0  0  0  0
    2.3592   63.4043  111.8720 C   0  0  0  0  0  0  0  0  0  0  0  0
    1.3159   64.4801  111.8052 C   0  0  0  0  0  0  0  0  0  0  0  0
    0.0205   63.7866  112.0826 C   0  0  2  0  0  0  0  0  0  0  0  0
   -0.0353   63.0337  113.3704 C   0  0  1  0  0  0  0  0  0  0  0  0
   -1.1490   61.9836  113.3056 C   0  0  0  0  0  0  0  0  0  0  0  0
   -2.1012   62.4702  112.2896 C   0  0  2  0  0  0  0  0  0  0  0  0
   -2.3279   63.9649  112.3413 C   0  0  0  0  0  0  0  0  0  0  0  0
   -3.3657   61.7669  112.1536 C   0  0  0  0  0  0  0  0  0  0  0  0
   -3.6874   61.8114  110.8658 C   0  0  0  0  0  0  0  0  0  0  0  0
   -2.5898   62.5715  110.1377 C   0  0  0  0  0  0  0  0  0  0  0  0
   -0.2917   62.8947  110.8706 C   0  0  0  0  0  0  0  0  0  0  0  0
    1.2533   62.4802  113.8627 C   0  0  2  0  0  0  0  0  0  0  0  0
    1.7778   63.3797  114.9945 C   0  0  0  0  0  0  0  0  0  0  0  0
    1.1178   61.1060  114.4811 C   0  0  0  0  0  0  0  0  0  0  0  0
    3.4831   63.0938  111.0967 C   0  0  0  0  0  0  0  0  0  0  0  0
    4.0216   63.6856  109.9883 C   0  0  0  0  0  0  0  0  0  0  0  0
    5.1621   63.1862  109.3849 C   0  0  0  0  0  0  0  0  0  0  0  0
    3.3610   61.6033  112.6979 N   0  0  0  0  0  0  0  0  0  0  0  0
   -1.1277   64.7017  112.1037 N   0  0  0  0  0  0  0  0  0  0  0  0
   -1.4886   62.1793  110.9812 N   0  0  1  0  0  4  0  0  0  0  0  0
   -3.4423   64.4691  112.5668 O   0  0  0  0  0  0  0  0  0  0  0  0
    7.1993   61.4336  109.1637 Cl  0  0  0  0  0  0  0  0  0  0  0  0
    5.8256   63.9723  107.9626 Cl  0  0  0  0  0  0  0  0  0  0  0  0
  2  1  2  0
  1 21  1  0
  1 26  1  0
  3  2  1  0
  3 19  2  0
 22  3  1  0
  4  5  2  0
  4 16  1  0
  4 22  1  0
  5  6  1  0
  5 19  1  0
  7  6  1  6
  7  8  1  0
  7 15  1  0
  7 23  1  0
  8  9  1  6
  8 16  1  0
  9 10  1  0
 10 11  1  0
 10 12  1  6
 10 24  1  0
 11 23  1  0
 11 25  2  0
 12 13  2  0
 13 14  1  0
 24 14  1  6
 15 24  1  0
 16 17  1  1
 16 18  1  0
 19 20  1  0
 20 21  2  0
 21 27  1  0
M  CHG  1  24   1
M  END
$$$$
