
     RDKit          3D

 27 32  0  0  0  0  0  0  0  0999 V2000
    5.2855   58.7941  113.2836 C   0  0  0  0  0  0  0  0  0  0  0  0
    4.6147   59.5911  114.2172 C   0  0  0  0  0  0  0  0  0  0  0  0
    3.7036   60.5312  113.8309 C   0  0  0  0  0  0  0  0  0  0  0  0
    2.2080   62.1133  113.6510 C   0  0  0  0  0  0  0  0  0  0  0  0
    2.4776   61.7143  112.3635 C   0  0  0  0  0  0  0  0  0  0  0  0
    1.7869   62.3491  111.1929 C   0  0  0  0  0  0  0  0  0  0  0  0
    0.3573   62.4863  111.6096 C   0  0  2  0  0  0  0  0  0  0  0  0
    0.1329   63.2505  112.8720 C   0  0  1  0  0  0  0  0  0  0  0  0
   -1.2378   62.8916  113.4549 C   0  0  0  0  0  0  0  0  0  0  0  0
   -2.0449   62.4120  112.3174 C   0  0  2  0  0  0  0  0  0  0  0  0
   -1.8294   63.2047  111.0472 C   0  0  0  0  0  0  0  0  0  0  0  0
   -3.4625   62.1824  112.5409 C   0  0  0  0  0  0  0  0  0  0  0  0
   -3.8034   61.1483  111.7804 C   0  0  0  0  0  0  0  0  0  0  0  0
   -2.5600   60.6884  111.0354 C   0  0  0  0  0  0  0  0  0  0  0  0
   -0.2416   61.0722  111.6685 C   0  0  0  0  0  0  0  0  0  0  0  0
    1.2240   63.1877  113.8793 C   0  0  2  0  0  0  0  0  0  0  0  0
    2.0254   64.4990  113.8228 C   0  0  0  0  0  0  0  0  0  0  0  0
    0.7205   63.0937  115.3030 C   0  0  0  0  0  0  0  0  0  0  0  0
    3.4360   60.7016  112.4916 C   0  0  0  0  0  0  0  0  0  0  0  0
    4.0823   59.9314  111.5655 C   0  0  0  0  0  0  0  0  0  0  0  0
    5.0083   58.9745  111.9412 C   0  0  0  0  0  0  0  0  0  0  0  0
    2.9467   61.3982  114.5105 N   0  0  0  0  0  0  0  0  0  0  0  0
   -0.4770   63.1390  110.5927 N   0  0  0  0  0  0  0  0  0  0  0  0
   -1.5892   61.0378  112.0420 N   0  0  1  0  0  4  0  0  0  0  0  0
   -2.7424   63.8332  110.4831 O   0  0  0  0  0  0  0  0  0  0  0  0
    6.4449   57.5966  113.7602 Cl  0  0  0  0  0  0  0  0  0  0  0  0
    5.8190   58.0036  110.7242 Cl  0  0  0  0  0  0  0  0  0  0  0  0
  2  1  2  0
  1 21  1  0
  1 26  1  0
  3  2  1  0
  3 19  2  0
 22  3  1  0
  4  5  2  0
  4 16  1  0
  4 22  1  0
  5  6  1  0
  5 19  1  0
  7  6  1  6
  7  8  1  0
  7 15  1  0
  7 23  1  0
  8  9  1  1
  8 16  1  0
  9 10  1  0
 10 11  1  0
 10 12  1  1
 10 24  1  0
 11 23  1  0
 11 25  2  0
 12 13  2  0
 13 14  1  0
 24 14  1  6
 15 24  1  0
 16 17  1  1
 16 18  1  0
 19 20  1  0
 20 21  2  0
 21 27  1  0
M  CHG  1  24   1
M  END
$$$$
