
     RDKit          3D

 27 32  0  0  0  0  0  0  0  0999 V2000
    6.4753   62.9617  109.5458 C   0  0  0  0  0  0  0  0  0  0  0  0
    6.0797   62.1561  110.5929 C   0  0  0  0  0  0  0  0  0  0  0  0
    4.7788   62.2411  111.0837 C   0  0  0  0  0  0  0  0  0  0  0  0
    2.8833   62.0062  112.1863 C   0  0  0  0  0  0  0  0  0  0  0  0
    2.6664   62.9664  111.2466 C   0  0  0  0  0  0  0  0  0  0  0  0
    1.3824   63.6684  111.0635 C   0  0  0  0  0  0  0  0  0  0  0  0
    0.2862   63.1827  111.9146 C   0  0  2  0  0  0  0  0  0  0  0  0
    0.7049   62.5376  113.1988 C   0  0  1  0  0  0  0  0  0  0  0  0
   -0.4820   61.9458  113.9282 C   0  0  0  0  0  0  0  0  0  0  0  0
   -1.7129   62.4157  113.2509 C   0  0  2  0  0  0  0  0  0  0  0  0
   -1.7021   63.9122  113.0316 C   0  0  0  0  0  0  0  0  0  0  0  0
   -2.9789   61.9708  113.8182 C   0  0  0  0  0  0  0  0  0  0  0  0
   -3.8127   61.7946  112.7950 C   0  0  0  0  0  0  0  0  0  0  0  0
   -3.0753   62.1325  111.5159 C   0  0  0  0  0  0  0  0  0  0  0  0
   -0.6959   62.3097  111.1180 C   0  0  0  0  0  0  0  0  0  0  0  0
    1.8285   61.5810  113.1178 C   0  0  2  0  0  0  0  0  0  0  0  0
    2.4859   61.5430  114.5101 C   0  0  0  0  0  0  0  0  0  0  0  0
    1.4344   60.1616  112.8145 C   0  0  0  0  0  0  0  0  0  0  0  0
    3.8466   63.1150  110.5576 C   0  0  0  0  0  0  0  0  0  0  0  0
    4.2602   63.9198  109.5033 C   0  0  0  0  0  0  0  0  0  0  0  0
    5.5391   63.8311  109.0262 C   0  0  0  0  0  0  0  0  0  0  0  0
    4.1630   61.5861  112.0668 N   0  0  0  0  0  0  0  0  0  0  0  0
   -0.5467   64.3262  112.3040 N   0  0  0  0  0  0  0  0  0  0  0  0
   -1.7323   61.7817  111.9325 N   0  0  1  0  0  4  0  0  0  0  0  0
   -2.5976   64.6668  113.4425 O   0  0  0  0  0  0  0  0  0  0  0  0
    8.1100   62.8738  108.9086 Cl  0  0  0  0  0  0  0  0  0  0  0  0
    6.0302   64.8572  107.6983 Cl  0  0  0  0  0  0  0  0  0  0  0  0
  2  1  2  0
  1 21  1  0
  1 26  1  0
  3  2  1  0
  3 19  2  0
 22  3  1  0
  4  5  2  0
 16  4  1  6
  4 22  1  0
  6  5  1  1
  5 19  1  0
  6  7  1  0
  7  8  1  0
  7 15  1  0
  7 23  1  1
  8  9  1  6
  8 16  1  0
  9 10  1  6
 10 11  1  0
 10 12  1  1
 10 24  1  0
 11 23  1  0
 11 25  2  0
 12 13  2  0
 14 13  1  1
 24 14  1  6
 15 24  1  6
 17 16  1  1
 18 16  1  1
 19 20  1  0
 20 21  2  0
 21 27  1  0
M  CHG  1  24   1
M  END
$$$$
