
     RDKit          3D

 27 32  0  0  0  0  0  0  0  0999 V2000
   17.1146   67.2373  141.7761 C   0  0  0  0  0  0  0  0  0  0  0  0
   17.4494   68.5744  141.7309 C   0  0  0  0  0  0  0  0  0  0  0  0
   18.7870   68.9548  141.6510 C   0  0  0  0  0  0  0  0  0  0  0  0
   20.7051   70.0362  141.5256 C   0  0  0  0  0  0  0  0  0  0  0  0
   21.0100   68.7099  141.5359 C   0  0  0  0  0  0  0  0  0  0  0  0
   22.3838   68.1774  141.4724 C   0  0  0  0  0  0  0  0  0  0  0  0
   23.4317   69.1923  141.2883 C   0  0  2  0  0  0  0  0  0  0  0  0
   23.0941   70.5640  141.7836 C   0  0  1  0  0  0  0  0  0  0  0  0
   24.1732   71.5604  141.4179 C   0  0  0  0  0  0  0  0  0  0  0  0
   25.3363   70.8025  140.9008 C   0  0  2  0  0  0  0  0  0  0  0  0
   25.7198   69.6607  141.8158 C   0  0  0  0  0  0  0  0  0  0  0  0
   26.5016   71.5844  140.5094 C   0  0  0  0  0  0  0  0  0  0  0  0
   27.0390   70.9660  139.4597 C   0  0  0  0  0  0  0  0  0  0  0  0
   26.2038   69.7412  139.1494 C   0  0  0  0  0  0  0  0  0  0  0  0
   23.9483   69.2069  139.8413 C   0  0  0  0  0  0  0  0  0  0  0  0
   21.7468   71.0705  141.4484 C   0  0  2  0  0  0  0  0  0  0  0  0
   21.3824   72.1166  142.5184 C   0  0  0  0  0  0  0  0  0  0  0  0
   21.6465   71.7854  140.1290 C   0  0  0  0  0  0  0  0  0  0  0  0
   19.8160   68.0333  141.6141 C   0  0  0  0  0  0  0  0  0  0  0  0
   19.4628   66.6903  141.6603 C   0  0  0  0  0  0  0  0  0  0  0  0
   18.1472   66.3238  141.7388 C   0  0  0  0  0  0  0  0  0  0  0  0
   19.3600   70.1563  141.5958 N   0  0  0  0  0  0  0  0  0  0  0  0
   24.6190   68.7830  142.0472 N   0  0  0  0  0  0  0  0  0  0  0  0
   24.9209   70.2187  139.6252 N   0  0  1  0  0  4  0  0  0  0  0  0
   26.8568   69.5243  142.2940 O   0  0  0  0  0  0  0  0  0  0  0  0
   15.4354   66.7314  141.8770 Cl  0  0  0  0  0  0  0  0  0  0  0  0
   17.7339   64.6257  141.7954 Cl  0  0  0  0  0  0  0  0  0  0  0  0
  2  1  2  0
  1 21  1  0
  1 26  1  0
  3  2  1  0
  3 19  2  0
 22  3  1  0
  4  5  2  0
 16  4  1  6
  4 22  1  0
  6  5  1  1
  5 19  1  0
  6  7  1  0
  7  8  1  0
  7 15  1  0
  7 23  1  1
  8  9  1  6
  8 16  1  0
  9 10  1  6
 10 11  1  0
 10 12  1  6
 10 24  1  0
 11 23  1  0
 11 25  2  0
 12 13  2  0
 14 13  1  1
 24 14  1  1
 15 24  1  6
 17 16  1  1
 18 16  1  1
 19 20  1  0
 20 21  2  0
 21 27  1  0
M  CHG  1  24   1
M  END
$$$$
