
     RDKit          3D

 27 32  0  0  0  0  0  0  0  0999 V2000
    6.2411   63.1818  109.7239 C   0  0  0  0  0  0  0  0  0  0  0  0
    5.6028   62.0333  110.1427 C   0  0  0  0  0  0  0  0  0  0  0  0
    4.3466   62.1131  110.7393 C   0  0  0  0  0  0  0  0  0  0  0  0
    2.4055   61.7232  111.7111 C   0  0  0  0  0  0  0  0  0  0  0  0
    2.4877   63.0709  111.5405 C   0  0  0  0  0  0  0  0  0  0  0  0
    1.4383   64.0215  111.9529 C   0  0  0  0  0  0  0  0  0  0  0  0
    0.2155   63.4000  112.4827 C   0  0  2  0  0  0  0  0  0  0  0  0
    0.3935   62.0435  113.0902 C   0  0  1  0  0  0  0  0  0  0  0  0
   -0.9385   61.4337  113.4708 C   0  0  0  0  0  0  0  0  0  0  0  0
   -1.9735   62.4859  113.3443 C   0  0  2  0  0  0  0  0  0  0  0  0
   -1.5667   63.7664  114.0390 C   0  0  0  0  0  0  0  0  0  0  0  0
   -3.3365   62.1039  113.6895 C   0  0  0  0  0  0  0  0  0  0  0  0
   -4.1390   62.7702  112.8618 C   0  0  0  0  0  0  0  0  0  0  0  0
   -3.2808   63.6157  111.9439 C   0  0  0  0  0  0  0  0  0  0  0  0
   -0.9204   63.4299  111.4483 C   0  0  0  0  0  0  0  0  0  0  0  0
    1.2347   61.0910  112.3358 C   0  0  2  0  0  0  0  0  0  0  0  0
    1.7945   60.0822  113.3561 C   0  0  0  0  0  0  0  0  0  0  0  0
    0.5021   60.2695  111.3108 C   0  0  0  0  0  0  0  0  0  0  0  0
    3.6969   63.3169  110.9349 C   0  0  0  0  0  0  0  0  0  0  0  0
    4.3527   64.4649  110.5078 C   0  0  0  0  0  0  0  0  0  0  0  0
    5.5862   64.3793  109.9227 C   0  0  0  0  0  0  0  0  0  0  0  0
    3.5376   61.1701  111.2202 N   0  0  0  0  0  0  0  0  0  0  0  0
   -0.3111   64.2457  113.5599 N   0  0  0  0  0  0  0  0  0  0  0  0
   -2.0947   62.7835  111.9169 N   0  0  1  0  0  4  0  0  0  0  0  0
   -2.2552   64.3143  114.9141 O   0  0  0  0  0  0  0  0  0  0  0  0
    7.8255   63.1083  108.9688 Cl  0  0  0  0  0  0  0  0  0  0  0  0
    6.3867   65.8417  109.3954 Cl  0  0  0  0  0  0  0  0  0  0  0  0
  2  1  2  0
  1 21  1  0
  1 26  1  0
  3  2  1  0
  3 19  2  0
 22  3  1  0
  4  5  2  0
 16  4  1  6
  4 22  1  0
  6  5  1  1
  5 19  1  0
  6  7  1  0
  7  8  1  0
  7 15  1  0
  7 23  1  1
  8  9  1  6
  8 16  1  0
  9 10  1  6
 10 11  1  0
 10 12  1  1
 10 24  1  0
 11 23  1  0
 11 25  2  0
 12 13  2  0
 14 13  1  1
 24 14  1  1
 15 24  1  6
 17 16  1  1
 18 16  1  1
 19 20  1  0
 20 21  2  0
 21 27  1  0
M  CHG  1  24   1
M  END
$$$$
