
     RDKit          3D

 27 32  0  0  0  0  0  0  0  0999 V2000
    5.8052   62.3707  109.2572 C   0  0  0  0  0  0  0  0  0  0  0  0
    5.5381   61.3182  110.1391 C   0  0  0  0  0  0  0  0  0  0  0  0
    4.7175   61.4803  111.2176 C   0  0  0  0  0  0  0  0  0  0  0  0
    3.4961   61.3093  113.0208 C   0  0  0  0  0  0  0  0  0  0  0  0
    3.3509   62.6100  112.6005 C   0  0  0  0  0  0  0  0  0  0  0  0
    2.4854   63.5772  113.3526 C   0  0  0  0  0  0  0  0  0  0  0  0
    1.2561   62.8051  113.7112 C   0  0  2  0  0  0  0  0  0  0  0  0
    1.4952   61.5513  114.4851 C   0  0  1  0  0  0  0  0  0  0  0  0
    0.2876   60.6193  114.3425 C   0  0  0  0  0  0  0  0  0  0  0  0
   -0.8557   61.4911  114.0128 C   0  0  2  0  0  0  0  0  0  0  0  0
   -0.8599   62.7963  114.7772 C   0  0  0  0  0  0  0  0  0  0  0  0
   -2.1822   60.8974  114.0100 C   0  0  0  0  0  0  0  0  0  0  0  0
   -2.8699   61.5109  113.0536 C   0  0  0  0  0  0  0  0  0  0  0  0
   -1.9550   62.5415  112.4105 C   0  0  0  0  0  0  0  0  0  0  0  0
    0.4786   62.5493  112.4104 C   0  0  0  0  0  0  0  0  0  0  0  0
    2.7890   60.8634  114.2356 C   0  0  2  0  0  0  0  0  0  0  0  0
    3.7436   61.1668  115.4025 C   0  0  0  0  0  0  0  0  0  0  0  0
    2.6696   59.3554  114.2049 C   0  0  0  0  0  0  0  0  0  0  0  0
    4.1371   62.7073  111.4459 C   0  0  0  0  0  0  0  0  0  0  0  0
    4.3871   63.7469  110.5943 C   0  0  0  0  0  0  0  0  0  0  0  0
    5.2165   63.5985  109.4969 C   0  0  0  0  0  0  0  0  0  0  0  0
    4.3127   60.6524  112.1857 N   0  0  0  0  0  0  0  0  0  0  0  0
    0.2972   63.5870  114.5021 N   0  0  0  0  0  0  0  0  0  0  0  0
   -0.7110   61.8351  112.5872 N   0  0  1  0  0  4  0  0  0  0  0  0
   -1.7783   63.1202  115.5508 O   0  0  0  0  0  0  0  0  0  0  0  0
    6.8453   62.1789  107.8836 Cl  0  0  0  0  0  0  0  0  0  0  0  0
    5.5147   64.9558  108.4247 Cl  0  0  0  0  0  0  0  0  0  0  0  0
  2  1  2  0
  1 21  1  0
  1 26  1  0
  3  2  1  0
  3 19  2  0
 22  3  1  0
  4  5  2  0
  4 16  1  0
  4 22  1  0
  5  6  1  0
  5 19  1  0
  7  6  1  6
  7  8  1  0
  7 15  1  0
  7 23  1  0
  8  9  1  6
  8 16  1  0
  9 10  1  0
 10 11  1  0
 10 12  1  6
 10 24  1  0
 11 23  1  0
 11 25  2  0
 12 13  2  0
 13 14  1  0
 24 14  1  1
 15 24  1  0
 16 17  1  1
 16 18  1  0
 19 20  1  0
 20 21  2  0
 21 27  1  0
M  CHG  1  24   1
M  END
$$$$
