
     RDKit          3D

 27 32  0  0  0  0  0  0  0  0999 V2000
    6.0746   63.1018  109.2080 C   0  0  0  0  0  0  0  0  0  0  0  0
    5.3570   61.9334  109.3556 C   0  0  0  0  0  0  0  0  0  0  0  0
    4.3118   61.8697  110.2743 C   0  0  0  0  0  0  0  0  0  0  0  0
    2.6164   61.2810  111.5561 C   0  0  0  0  0  0  0  0  0  0  0  0
    2.8970   62.5777  111.8592 C   0  0  0  0  0  0  0  0  0  0  0  0
    2.1626   63.3690  112.8639 C   0  0  0  0  0  0  0  0  0  0  0  0
    1.0076   62.6855  113.4645 C   0  0  2  0  0  0  0  0  0  0  0  0
    1.0767   61.1902  113.4728 C   0  0  1  0  0  0  0  0  0  0  0  0
   -0.2156   60.5840  113.9761 C   0  0  0  0  0  0  0  0  0  0  0  0
   -1.0449   61.6779  114.5332 C   0  0  2  0  0  0  0  0  0  0  0  0
   -0.2627   62.5503  115.4896 C   0  0  0  0  0  0  0  0  0  0  0  0
   -2.3342   61.2969  115.0946 C   0  0  0  0  0  0  0  0  0  0  0  0
   -3.1757   62.2927  114.8240 C   0  0  0  0  0  0  0  0  0  0  0  0
   -2.4199   63.3612  114.0617 C   0  0  0  0  0  0  0  0  0  0  0  0
   -0.3154   63.2037  112.8795 C   0  0  0  0  0  0  0  0  0  0  0  0
    1.5314   60.5466  112.2226 C   0  0  2  0  0  0  0  0  0  0  0  0
    2.1249   59.1799  112.6125 C   0  0  0  0  0  0  0  0  0  0  0  0
    0.4428   60.2492  111.2283 C   0  0  0  0  0  0  0  0  0  0  0  0
    3.9537   62.9474  111.0615 C   0  0  0  0  0  0  0  0  0  0  0  0
    4.6860   64.1173  110.9013 C   0  0  0  0  0  0  0  0  0  0  0  0
    5.7111   64.1729  109.9973 C   0  0  0  0  0  0  0  0  0  0  0  0
    3.4827   60.8787  110.5990 N   0  0  0  0  0  0  0  0  0  0  0  0
    0.9100   63.0811  114.8741 N   0  0  0  0  0  0  0  0  0  0  0  0
   -1.4430   62.5175  113.4030 N   0  0  1  0  0  4  0  0  0  0  0  0
   -0.6159   62.7639  116.6600 O   0  0  0  0  0  0  0  0  0  0  0  0
    7.3971   63.2080  108.0566 Cl  0  0  0  0  0  0  0  0  0  0  0  0
    6.6145   65.6592  109.8182 Cl  0  0  0  0  0  0  0  0  0  0  0  0
  2  1  2  0
  1 21  1  0
  1 26  1  0
  3  2  1  0
  3 19  2  0
 22  3  1  0
  4  5  2  0
 16  4  1  6
  4 22  1  0
  6  5  1  1
  5 19  1  0
  6  7  1  0
  7  8  1  0
  7 15  1  0
  7 23  1  1
  8  9  1  6
  8 16  1  0
  9 10  1  6
 10 11  1  0
 10 12  1  1
 10 24  1  0
 11 23  1  0
 11 25  2  0
 12 13  2  0
 14 13  1  1
 24 14  1  1
 15 24  1  6
 17 16  1  1
 18 16  1  1
 19 20  1  0
 20 21  2  0
 21 27  1  0
M  CHG  1  24   1
M  END
$$$$
