
     RDKit          3D

 27 32  0  0  0  0  0  0  0  0999 V2000
    5.3002   63.4396  108.9704 C   0  0  0  0  0  0  0  0  0  0  0  0
    4.7931   62.1551  109.1937 C   0  0  0  0  0  0  0  0  0  0  0  0
    4.3529   61.7647  110.4253 C   0  0  0  0  0  0  0  0  0  0  0  0
    3.5621   60.7520  112.1920 C   0  0  0  0  0  0  0  0  0  0  0  0
    3.9029   62.0150  112.6141 C   0  0  0  0  0  0  0  0  0  0  0  0
    3.7003   62.4389  114.0387 C   0  0  0  0  0  0  0  0  0  0  0  0
    2.3584   61.9004  114.4200 C   0  0  2  0  0  0  0  0  0  0  0  0
    2.1910   60.4273  114.2465 C   0  0  1  0  0  0  0  0  0  0  0  0
    0.7002   60.0844  114.1621 C   0  0  0  0  0  0  0  0  0  0  0  0
   -0.0043   61.1846  114.8469 C   0  0  2  0  0  0  0  0  0  0  0  0
    0.6995   61.6676  116.0956 C   0  0  0  0  0  0  0  0  0  0  0  0
   -1.4284   61.0290  115.0919 C   0  0  0  0  0  0  0  0  0  0  0  0
   -1.9657   62.2389  114.9850 C   0  0  0  0  0  0  0  0  0  0  0  0
   -0.8483   63.2171  114.6572 C   0  0  0  0  0  0  0  0  0  0  0  0
    1.3035   62.7036  113.6428 C   0  0  0  0  0  0  0  0  0  0  0  0
    2.9909   59.7997  113.1623 C   0  0  2  0  0  0  0  0  0  0  0  0
    4.1957   59.0791  113.7902 C   0  0  0  0  0  0  0  0  0  0  0  0
    2.2383   58.7261  112.4072 C   0  0  0  0  0  0  0  0  0  0  0  0
    4.4078   62.6535  111.4748 C   0  0  0  0  0  0  0  0  0  0  0  0
    4.9004   63.9128  111.2745 C   0  0  0  0  0  0  0  0  0  0  0  0
    5.3503   64.3234  110.0323 C   0  0  0  0  0  0  0  0  0  0  0  0
    3.8369   60.6214  110.8870 N   0  0  0  0  0  0  0  0  0  0  0  0
    2.0023   62.1822  115.8164 N   0  0  0  0  0  0  0  0  0  0  0  0
   -0.0151   62.3153  113.9019 N   0  0  1  0  0  4  0  0  0  0  0  0
    0.1809   61.6119  117.2247 O   0  0  0  0  0  0  0  0  0  0  0  0
    5.8626   63.9487  107.4116 Cl  0  0  0  0  0  0  0  0  0  0  0  0
    5.9765   65.9484  109.8123 Cl  0  0  0  0  0  0  0  0  0  0  0  0
  2  1  2  0
  1 21  1  0
  1 26  1  0
  3  2  1  0
  3 19  2  0
 22  3  1  0
  4  5  2  0
  4 16  1  0
  4 22  1  0
  5  6  1  0
  5 19  1  0
  7  6  1  6
  7  8  1  0
  7 15  1  0
  7 23  1  0
  8  9  1  6
  8 16  1  0
  9 10  1  0
 10 11  1  0
 10 12  1  1
 10 24  1  0
 11 23  1  0
 11 25  2  0
 12 13  2  0
 13 14  1  0
 24 14  1  1
 15 24  1  0
 16 17  1  1
 16 18  1  0
 19 20  1  0
 20 21  2  0
 21 27  1  0
M  CHG  1  24   1
M  END
$$$$
