
     RDKit          3D

 27 32  0  0  0  0  0  0  0  0999 V2000
    5.7300   62.7739  109.1280 C   0  0  0  0  0  0  0  0  0  0  0  0
    5.2900   61.6113  109.7695 C   0  0  0  0  0  0  0  0  0  0  0  0
    4.4413   61.6617  110.8373 C   0  0  0  0  0  0  0  0  0  0  0  0
    3.1171   61.2970  112.5361 C   0  0  0  0  0  0  0  0  0  0  0  0
    3.1555   62.6629  112.3866 C   0  0  0  0  0  0  0  0  0  0  0  0
    2.3786   63.5661  113.2981 C   0  0  0  0  0  0  0  0  0  0  0  0
    1.0465   62.9063  113.4604 C   0  0  2  0  0  0  0  0  0  0  0  0
    1.0889   61.5032  113.9678 C   0  0  1  0  0  0  0  0  0  0  0  0
   -0.2157   60.7852  113.6075 C   0  0  0  0  0  0  0  0  0  0  0  0
   -1.2241   61.8476  113.4339 C   0  0  2  0  0  0  0  0  0  0  0  0
   -1.1063   62.9635  114.4483 C   0  0  0  0  0  0  0  0  0  0  0  0
   -2.6119   61.4459  113.2764 C   0  0  0  0  0  0  0  0  0  0  0  0
   -3.1685   62.3225  112.4483 C   0  0  0  0  0  0  0  0  0  0  0  0
   -2.1015   63.3312  112.0524 C   0  0  0  0  0  0  0  0  0  0  0  0
    0.3113   63.0191  112.1155 C   0  0  0  0  0  0  0  0  0  0  0  0
    2.2989   60.7149  113.6160 C   0  0  2  0  0  0  0  0  0  0  0  0
    3.2224   60.6517  114.8441 C   0  0  0  0  0  0  0  0  0  0  0  0
    1.9959   59.2723  113.2751 C   0  0  0  0  0  0  0  0  0  0  0  0
    4.0060   62.8840  111.2965 C   0  0  0  0  0  0  0  0  0  0  0  0
    4.4259   64.0304  110.6816 C   0  0  0  0  0  0  0  0  0  0  0  0
    5.2859   63.9959  109.5984 C   0  0  0  0  0  0  0  0  0  0  0  0
    3.8881   60.7181  111.6054 N   0  0  0  0  0  0  0  0  0  0  0  0
    0.1522   63.6341  114.3697 N   0  0  0  0  0  0  0  0  0  0  0  0
   -0.9650   62.4466  112.1126 N   0  0  1  0  0  4  0  0  0  0  0  0
   -2.0162   63.2445  115.2482 O   0  0  0  0  0  0  0  0  0  0  0  0
    6.8077   62.7246  107.7710 Cl  0  0  0  0  0  0  0  0  0  0  0  0
    5.8041   65.4884  108.8337 Cl  0  0  0  0  0  0  0  0  0  0  0  0
  2  1  2  0
  1 21  1  0
  1 26  1  0
  3  2  1  0
  3 19  2  0
 22  3  1  0
  4  5  2  0
  4 16  1  0
  4 22  1  0
  5  6  1  0
  5 19  1  0
  7  6  1  6
  7  8  1  0
  7 15  1  0
  7 23  1  0
  8  9  1  6
  8 16  1  0
  9 10  1  0
 10 11  1  0
 10 12  1  6
 10 24  1  0
 11 23  1  0
 11 25  2  0
 12 13  2  0
 13 14  1  0
 24 14  1  1
 15 24  1  0
 16 17  1  1
 16 18  1  0
 19 20  1  0
 20 21  2  0
 21 27  1  0
M  CHG  1  24   1
M  END
$$$$
