
     RDKit          3D

 27 32  0  0  0  0  0  0  0  0999 V2000
    5.8031   57.4556  114.7567 C   0  0  0  0  0  0  0  0  0  0  0  0
    6.0304   58.6990  114.1574 C   0  0  0  0  0  0  0  0  0  0  0  0
    5.0791   59.3077  113.3910 C   0  0  0  0  0  0  0  0  0  0  0  0
    3.8634   60.6033  112.1198 C   0  0  0  0  0  0  0  0  0  0  0  0
    3.0771   59.5078  112.3869 C   0  0  0  0  0  0  0  0  0  0  0  0
    1.6875   59.3957  111.8332 C   0  0  0  0  0  0  0  0  0  0  0  0
    1.0897   60.7564  111.9980 C   0  0  2  0  0  0  0  0  0  0  0  0
    1.8556   61.8692  111.3631 C   0  0  1  0  0  0  0  0  0  0  0  0
    1.4634   63.2006  112.0118 C   0  0  0  0  0  0  0  0  0  0  0  0
    0.1159   62.9918  112.5741 C   0  0  2  0  0  0  0  0  0  0  0  0
   -0.7882   62.1669  111.6852 C   0  0  0  0  0  0  0  0  0  0  0  0
   -0.5929   64.1531  113.0852 C   0  0  0  0  0  0  0  0  0  0  0  0
   -1.3097   63.7337  114.1217 C   0  0  0  0  0  0  0  0  0  0  0  0
   -1.0562   62.2438  114.2906 C   0  0  0  0  0  0  0  0  0  0  0  0
    0.8700   60.9824  113.5022 C   0  0  0  0  0  0  0  0  0  0  0  0
    3.3273   61.6827  111.2701 C   0  0  2  0  0  0  0  0  0  0  0  0
    3.6857   61.2879  109.8277 C   0  0  0  0  0  0  0  0  0  0  0  0
    4.1099   62.9495  111.5388 C   0  0  0  0  0  0  0  0  0  0  0  0
    3.8659   58.6859  113.2010 C   0  0  0  0  0  0  0  0  0  0  0  0
    3.6266   57.4705  113.7791 C   0  0  0  0  0  0  0  0  0  0  0  0
    4.5807   56.8409  114.5586 C   0  0  0  0  0  0  0  0  0  0  0  0
    5.0508   60.4665  112.7256 N   0  0  0  0  0  0  0  0  0  0  0  0
   -0.2744   60.8530  111.4630 N   0  0  0  0  0  0  0  0  0  0  0  0
    0.3051   62.2227  113.8169 N   0  0  1  0  0  4  0  0  0  0  0  0
   -1.8522   62.6064  111.2144 O   0  0  0  0  0  0  0  0  0  0  0  0
    7.0023   56.6713  115.7324 Cl  0  0  0  0  0  0  0  0  0  0  0  0
    4.2383   55.2802  115.2853 Cl  0  0  0  0  0  0  0  0  0  0  0  0
  2  1  2  0
  1 21  1  0
  1 26  1  0
  3  2  1  0
  3 19  2  0
 22  3  1  0
  4  5  2  0
  4 16  1  0
  4 22  1  0
  5  6  1  0
  5 19  1  0
  7  6  1  1
  7  8  1  0
  7 15  1  0
  7 23  1  0
  8  9  1  1
  8 16  1  0
  9 10  1  0
 10 11  1  0
 10 12  1  1
 10 24  1  0
 11 23  1  0
 11 25  2  0
 12 13  2  0
 13 14  1  0
 24 14  1  6
 15 24  1  0
 16 17  1  6
 16 18  1  0
 19 20  1  0
 20 21  2  0
 21 27  1  0
M  CHG  1  24   1
M  END
$$$$
