
     RDKit          3D

 27 32  0  0  0  0  0  0  0  0999 V2000
    5.4287   63.0969  109.0737 C   0  0  0  0  0  0  0  0  0  0  0  0
    5.3205   61.8868  109.7670 C   0  0  0  0  0  0  0  0  0  0  0  0
    4.6519   61.8003  110.9537 C   0  0  0  0  0  0  0  0  0  0  0  0
    3.6976   61.2307  112.8344 C   0  0  0  0  0  0  0  0  0  0  0  0
    3.4533   62.5758  112.6910 C   0  0  0  0  0  0  0  0  0  0  0  0
    2.6689   63.3367  113.7186 C   0  0  0  0  0  0  0  0  0  0  0  0
    1.5268   62.4419  114.0804 C   0  0  2  0  0  0  0  0  0  0  0  0
    1.9114   61.0833  114.5648 C   0  0  1  0  0  0  0  0  0  0  0  0
    0.7266   60.1250  114.4056 C   0  0  0  0  0  0  0  0  0  0  0  0
   -0.4790   60.9746  114.3983 C   0  0  2  0  0  0  0  0  0  0  0  0
   -0.4202   62.1149  115.3904 C   0  0  0  0  0  0  0  0  0  0  0  0
   -1.7731   60.3157  114.4548 C   0  0  0  0  0  0  0  0  0  0  0  0
   -2.6060   61.0534  113.7295 C   0  0  0  0  0  0  0  0  0  0  0  0
   -1.8229   62.2358  113.1805 C   0  0  0  0  0  0  0  0  0  0  0  0
    0.5859   62.3846  112.8666 C   0  0  0  0  0  0  0  0  0  0  0  0
    3.1800   60.5291  114.0238 C   0  0  2  0  0  0  0  0  0  0  0  0
    4.2762   60.6680  115.0934 C   0  0  0  0  0  0  0  0  0  0  0  0
    3.1068   59.0481  113.7233 C   0  0  0  0  0  0  0  0  0  0  0  0
    4.0689   62.9287  111.4839 C   0  0  0  0  0  0  0  0  0  0  0  0
    4.1648   64.1198  110.8199 C   0  0  0  0  0  0  0  0  0  0  0  0
    4.8390   64.2236  109.6163 C   0  0  0  0  0  0  0  0  0  0  0  0
    4.4119   60.7867  111.7913 N   0  0  0  0  0  0  0  0  0  0  0  0
    0.6614   63.0084  115.1227 N   0  0  0  0  0  0  0  0  0  0  0  0
   -0.5440   61.5823  113.0573 N   0  0  1  0  0  4  0  0  0  0  0  0
   -1.2330   62.2375  116.3238 O   0  0  0  0  0  0  0  0  0  0  0  0
    6.2749   63.2212  107.5657 Cl  0  0  0  0  0  0  0  0  0  0  0  0
    4.9418   65.7697  108.7916 Cl  0  0  0  0  0  0  0  0  0  0  0  0
  2  1  2  0
  1 21  1  0
  1 26  1  0
  3  2  1  0
  3 19  2  0
 22  3  1  0
  4  5  2  0
  4 16  1  0
  4 22  1  0
  5  6  1  0
  5 19  1  0
  7  6  1  6
  7  8  1  0
  7 15  1  0
  7 23  1  0
  8  9  1  6
  8 16  1  0
  9 10  1  0
 10 11  1  0
 10 12  1  1
 10 24  1  0
 11 23  1  0
 11 25  2  0
 12 13  2  0
 13 14  1  0
 24 14  1  1
 15 24  1  0
 16 17  1  1
 16 18  1  0
 19 20  1  0
 20 21  2  0
 21 27  1  0
M  CHG  1  24   1
M  END
$$$$
