
     RDKit          3D

 27 32  0  0  0  0  0  0  0  0999 V2000
    6.4994   63.1280  109.8792 C   0  0  0  0  0  0  0  0  0  0  0  0
    6.2477   62.4526  111.0549 C   0  0  0  0  0  0  0  0  0  0  0  0
    4.9410   62.3308  111.5218 C   0  0  0  0  0  0  0  0  0  0  0  0
    3.0997   61.8778  112.6482 C   0  0  0  0  0  0  0  0  0  0  0  0
    2.7161   62.5837  111.5498 C   0  0  0  0  0  0  0  0  0  0  0  0
    1.3179   62.9379  111.2420 C   0  0  0  0  0  0  0  0  0  0  0  0
    0.3211   62.3783  112.1668 C   0  0  2  0  0  0  0  0  0  0  0  0
    0.8184   62.0804  113.5469 C   0  0  1  0  0  0  0  0  0  0  0  0
   -0.2385   61.3774  114.3711 C   0  0  0  0  0  0  0  0  0  0  0  0
   -1.5138   61.4335  113.6195 C   0  0  2  0  0  0  0  0  0  0  0  0
   -1.8225   62.8317  113.1322 C   0  0  0  0  0  0  0  0  0  0  0  0
   -2.6735   60.8249  114.2577 C   0  0  0  0  0  0  0  0  0  0  0  0
   -3.4060   60.2891  113.2832 C   0  0  0  0  0  0  0  0  0  0  0  0
   -2.7091   60.5513  111.9643 C   0  0  0  0  0  0  0  0  0  0  0  0
   -0.4122   61.1815  111.5415 C   0  0  0  0  0  0  0  0  0  0  0  0
    2.1268   61.3997  113.6411 C   0  0  2  0  0  0  0  0  0  0  0  0
    2.7192   61.7560  115.0173 C   0  0  0  0  0  0  0  0  0  0  0  0
    2.0662   59.8974  113.6003 C   0  0  0  0  0  0  0  0  0  0  0  0
    3.8620   62.8675  110.8456 C   0  0  0  0  0  0  0  0  0  0  0  0
    4.1317   63.5449  109.6629 C   0  0  0  0  0  0  0  0  0  0  0  0
    5.4173   63.6608  109.2102 C   0  0  0  0  0  0  0  0  0  0  0  0
    4.4442   61.7393  112.6073 N   0  0  0  0  0  0  0  0  0  0  0  0
   -0.7574   63.3576  112.3419 N   0  0  0  0  0  0  0  0  0  0  0  0
   -1.3400   60.5882  112.4380 N   0  0  1  0  0  4  0  0  0  0  0  0
   -2.8777   63.4280  113.3991 O   0  0  0  0  0  0  0  0  0  0  0  0
    8.1381   63.2957  109.2690 Cl  0  0  0  0  0  0  0  0  0  0  0  0
    5.7252   64.5191  107.7183 Cl  0  0  0  0  0  0  0  0  0  0  0  0
  2  1  2  0
  1 21  1  0
  1 26  1  0
  3  2  1  0
  3 19  2  0
 22  3  1  0
  4  5  2  0
 16  4  1  6
  4 22  1  0
  6  5  1  1
  5 19  1  0
  6  7  1  0
  7  8  1  0
  7 15  1  0
  7 23  1  1
  8  9  1  6
  8 16  1  0
  9 10  1  6
 10 11  1  0
 10 12  1  1
 10 24  1  0
 11 23  1  0
 11 25  2  0
 12 13  2  0
 14 13  1  1
 24 14  1  6
 15 24  1  6
 17 16  1  1
 18 16  1  1
 19 20  1  0
 20 21  2  0
 21 27  1  0
M  CHG  1  24   1
M  END
$$$$
