
     RDKit          3D

 27 32  0  0  0  0  0  0  0  0999 V2000
    5.7263   62.8344  108.8916 C   0  0  0  0  0  0  0  0  0  0  0  0
    5.5616   61.6944  109.6854 C   0  0  0  0  0  0  0  0  0  0  0  0
    4.7810   61.7098  110.8049 C   0  0  0  0  0  0  0  0  0  0  0  0
    3.6525   61.3058  112.6313 C   0  0  0  0  0  0  0  0  0  0  0  0
    3.4115   62.6262  112.3349 C   0  0  0  0  0  0  0  0  0  0  0  0
    2.5238   63.4677  113.2034 C   0  0  0  0  0  0  0  0  0  0  0  0
    1.3597   62.5909  113.5386 C   0  0  2  0  0  0  0  0  0  0  0  0
    1.7071   61.2923  114.1874 C   0  0  1  0  0  0  0  0  0  0  0  0
    0.5521   60.3016  114.0086 C   0  0  0  0  0  0  0  0  0  0  0  0
   -0.6545   61.1245  113.8026 C   0  0  2  0  0  0  0  0  0  0  0  0
   -0.7031   62.3555  114.6803 C   0  0  0  0  0  0  0  0  0  0  0  0
   -1.9421   60.4505  113.7978 C   0  0  0  0  0  0  0  0  0  0  0  0
   -2.7066   61.1000  112.9274 C   0  0  0  0  0  0  0  0  0  0  0  0
   -1.8840   62.2384  112.3442 C   0  0  0  0  0  0  0  0  0  0  0  0
    0.5425   62.4004  112.2510 C   0  0  0  0  0  0  0  0  0  0  0  0
    3.0274   60.7121  113.8277 C   0  0  2  0  0  0  0  0  0  0  0  0
    4.0126   60.9728  114.9794 C   0  0  0  0  0  0  0  0  0  0  0  0
    2.9971   59.2079  113.6668 C   0  0  0  0  0  0  0  0  0  0  0  0
    4.1390   62.8731  111.1643 C   0  0  0  0  0  0  0  0  0  0  0  0
    4.2888   63.9966  110.4001 C   0  0  0  0  0  0  0  0  0  0  0  0
    5.0765   63.9969  109.2627 C   0  0  0  0  0  0  0  0  0  0  0  0
    4.4693   60.7770  111.7100 N   0  0  0  0  0  0  0  0  0  0  0  0
    0.3916   63.2388  114.4325 N   0  0  0  0  0  0  0  0  0  0  0  0
   -0.5935   61.5996  112.4089 N   0  0  1  0  0  4  0  0  0  0  0  0
   -1.6042   62.5521  115.5146 O   0  0  0  0  0  0  0  0  0  0  0  0
    6.7147   62.8290  107.4673 Cl  0  0  0  0  0  0  0  0  0  0  0  0
    5.2456   65.4585  108.3055 Cl  0  0  0  0  0  0  0  0  0  0  0  0
  2  1  2  0
  1 21  1  0
  1 26  1  0
  3  2  1  0
  3 19  2  0
 22  3  1  0
  4  5  2  0
  4 16  1  0
  4 22  1  0
  5  6  1  0
  5 19  1  0
  7  6  1  6
  7  8  1  0
  7 15  1  0
  7 23  1  0
  8  9  1  6
  8 16  1  0
  9 10  1  0
 10 11  1  0
 10 12  1  6
 10 24  1  0
 11 23  1  0
 11 25  2  0
 12 13  2  0
 13 14  1  0
 24 14  1  1
 15 24  1  0
 16 17  1  1
 16 18  1  0
 19 20  1  0
 20 21  2  0
 21 27  1  0
M  CHG  1  24   1
M  END
$$$$
