
     RDKit          3D

 27 32  0  0  0  0  0  0  0  0999 V2000
    5.2864   64.1282  109.3954 C   0  0  0  0  0  0  0  0  0  0  0  0
    3.9539   64.5429  109.4909 C   0  0  0  0  0  0  0  0  0  0  0  0
    3.0100   63.7778  110.1128 C   0  0  0  0  0  0  0  0  0  0  0  0
    1.2230   62.8865  110.9984 C   0  0  0  0  0  0  0  0  0  0  0  0
    2.2361   61.9873  111.2315 C   0  0  0  0  0  0  0  0  0  0  0  0
    1.9819   60.7036  111.9649 C   0  0  0  0  0  0  0  0  0  0  0  0
    1.0851   61.0741  113.1027 C   0  0  2  0  0  0  0  0  0  0  0  0
   -0.1845   61.7572  112.7160 C   0  0  1  0  0  0  0  0  0  0  0  0
   -0.7428   62.5260  113.9179 C   0  0  0  0  0  0  0  0  0  0  0  0
   -0.1858   61.8635  115.1123 C   0  0  2  0  0  0  0  0  0  0  0  0
   -0.1390   60.3558  114.9999 C   0  0  0  0  0  0  0  0  0  0  0  0
   -0.7016   62.2623  116.4112 C   0  0  0  0  0  0  0  0  0  0  0  0
    0.3142   62.1821  117.2631 C   0  0  0  0  0  0  0  0  0  0  0  0
    1.5361   61.7144  116.4878 C   0  0  0  0  0  0  0  0  0  0  0  0
    1.9177   61.9050  114.0918 C   0  0  0  0  0  0  0  0  0  0  0  0
   -0.1371   62.5767  111.4769 C   0  0  2  0  0  0  0  0  0  0  0  0
   -0.8052   61.7893  110.3373 C   0  0  0  0  0  0  0  0  0  0  0  0
   -0.9233   63.8653  111.5803 C   0  0  0  0  0  0  0  0  0  0  0  0
    3.3747   62.5687  110.6601 C   0  0  0  0  0  0  0  0  0  0  0  0
    4.6725   62.1477  110.5760 C   0  0  0  0  0  0  0  0  0  0  0  0
    5.6406   62.9118  109.9490 C   0  0  0  0  0  0  0  0  0  0  0  0
    1.7022   63.9456  110.3317 N   0  0  0  0  0  0  0  0  0  0  0  0
    0.6866   59.9203  113.9188 N   0  0  0  0  0  0  0  0  0  0  0  0
    1.2096   62.3240  115.2231 N   0  0  1  0  0  4  0  0  0  0  0  0
   -0.7579   59.6037  115.7733 O   0  0  0  0  0  0  0  0  0  0  0  0
    6.4954   65.0898  108.6086 Cl  0  0  0  0  0  0  0  0  0  0  0  0
    7.2975   62.3393  109.8601 Cl  0  0  0  0  0  0  0  0  0  0  0  0
  2  1  2  0
  1 21  1  0
  1 26  1  0
  3  2  1  0
  3 19  2  0
 22  3  1  0
  4  5  2  0
  4 16  1  0
  4 22  1  0
  5  6  1  0
  5 19  1  0
  7  6  1  6
  7  8  1  0
  7 15  1  0
  7 23  1  0
  8  9  1  1
  8 16  1  0
  9 10  1  0
 10 11  1  0
 10 12  1  1
 10 24  1  0
 11 23  1  0
 11 25  2  0
 12 13  2  0
 13 14  1  0
 24 14  1  1
 15 24  1  0
 16 17  1  6
 16 18  1  0
 19 20  1  0
 20 21  2  0
 21 27  1  0
M  CHG  1  24   1
M  END
$$$$
