
     RDKit          3D

 27 32  0  0  0  0  0  0  0  0999 V2000
    5.9404   61.6457  110.4046 C   0  0  0  0  0  0  0  0  0  0  0  0
    5.3159   61.1876  111.5695 C   0  0  0  0  0  0  0  0  0  0  0  0
    4.1698   61.7611  112.0389 C   0  0  0  0  0  0  0  0  0  0  0  0
    2.3702   62.3743  113.1150 C   0  0  0  0  0  0  0  0  0  0  0  0
    2.4569   63.2178  112.0331 C   0  0  0  0  0  0  0  0  0  0  0  0
    1.4303   64.2858  111.7968 C   0  0  0  0  0  0  0  0  0  0  0  0
    0.1153   63.6356  112.0872 C   0  0  2  0  0  0  0  0  0  0  0  0
   -0.0096   63.0320  113.4466 C   0  0  1  0  0  0  0  0  0  0  0  0
   -1.1311   61.9881  113.4459 C   0  0  0  0  0  0  0  0  0  0  0  0
   -2.0287   62.3638  112.3374 C   0  0  2  0  0  0  0  0  0  0  0  0
   -2.2404   63.8562  112.2112 C   0  0  0  0  0  0  0  0  0  0  0  0
   -3.2934   61.6574  112.2201 C   0  0  0  0  0  0  0  0  0  0  0  0
   -3.5536   61.5594  110.9213 C   0  0  0  0  0  0  0  0  0  0  0  0
   -2.4142   62.2265  110.1667 C   0  0  0  0  0  0  0  0  0  0  0  0
   -0.1496   62.6156  110.9686 C   0  0  0  0  0  0  0  0  0  0  0  0
    1.2479   62.5291  114.0590 C   0  0  2  0  0  0  0  0  0  0  0  0
    1.7288   63.5464  115.1073 C   0  0  0  0  0  0  0  0  0  0  0  0
    1.0677   61.2336  114.8195 C   0  0  0  0  0  0  0  0  0  0  0  0
    3.6124   62.8156  111.3522 C   0  0  0  0  0  0  0  0  0  0  0  0
    4.2092   63.2763  110.2119 C   0  0  0  0  0  0  0  0  0  0  0  0
    5.3710   62.7056  109.7235 C   0  0  0  0  0  0  0  0  0  0  0  0
    3.3979   61.5144  113.1018 N   0  0  0  0  0  0  0  0  0  0  0  0
   -1.0220   64.5544  111.9509 N   0  0  0  0  0  0  0  0  0  0  0  0
   -1.3586   61.9245  111.1006 N   0  0  1  0  0  4  0  0  0  0  0  0
   -3.3583   64.3893  112.3252 O   0  0  0  0  0  0  0  0  0  0  0  0
    7.3962   60.9267  109.7972 Cl  0  0  0  0  0  0  0  0  0  0  0  0
    6.1097   63.3234  108.2559 Cl  0  0  0  0  0  0  0  0  0  0  0  0
  2  1  2  0
  1 21  1  0
  1 26  1  0
  3  2  1  0
  3 19  2  0
 22  3  1  0
  4  5  2  0
  4 16  1  0
  4 22  1  0
  5  6  1  0
  5 19  1  0
  7  6  1  6
  7  8  1  0
  7 15  1  0
  7 23  1  0
  8  9  1  6
  8 16  1  0
  9 10  1  0
 10 11  1  0
 10 12  1  1
 10 24  1  0
 11 23  1  0
 11 25  2  0
 12 13  2  0
 13 14  1  0
 24 14  1  6
 15 24  1  0
 16 17  1  1
 16 18  1  0
 19 20  1  0
 20 21  2  0
 21 27  1  0
M  CHG  1  24   1
M  END
$$$$
