
     RDKit          3D

 27 32  0  0  0  0  0  0  0  0999 V2000
    5.0641   60.4846  112.1695 C   0  0  0  0  0  0  0  0  0  0  0  0
    4.2551   60.7649  113.2757 C   0  0  0  0  0  0  0  0  0  0  0  0
    3.0837   61.4538  113.1482 C   0  0  0  0  0  0  0  0  0  0  0  0
    1.1808   62.4999  113.3865 C   0  0  0  0  0  0  0  0  0  0  0  0
    1.4659   62.5571  112.0431 C   0  0  0  0  0  0  0  0  0  0  0  0
    0.5400   63.2408  111.0810 C   0  0  0  0  0  0  0  0  0  0  0  0
   -0.8345   62.8252  111.4985 C   0  0  2  0  0  0  0  0  0  0  0  0
   -1.1855   63.1227  112.9184 C   0  0  1  0  0  0  0  0  0  0  0  0
   -2.3466   62.2264  113.3610 C   0  0  0  0  0  0  0  0  0  0  0  0
   -3.0539   61.8455  112.1240 C   0  0  2  0  0  0  0  0  0  0  0  0
   -3.1691   62.9734  111.1226 C   0  0  0  0  0  0  0  0  0  0  0  0
   -4.3226   61.1488  112.2556 C   0  0  0  0  0  0  0  0  0  0  0  0
   -4.3966   60.3006  111.2362 C   0  0  0  0  0  0  0  0  0  0  0  0
   -3.1276   60.4516  110.4120 C   0  0  0  0  0  0  0  0  0  0  0  0
   -0.9862   61.3339  111.1595 C   0  0  0  0  0  0  0  0  0  0  0  0
   -0.0570   63.1269  113.8859 C   0  0  2  0  0  0  0  0  0  0  0  0
    0.3180   64.5844  114.2020 C   0  0  0  0  0  0  0  0  0  0  0  0
   -0.4111   62.5115  115.2220 C   0  0  0  0  0  0  0  0  0  0  0  0
    2.6859   61.8844  111.9030 C   0  0  0  0  0  0  0  0  0  0  0  0
    3.4642   61.6193  110.8109 C   0  0  0  0  0  0  0  0  0  0  0  0
    4.6540   60.9223  110.9238 C   0  0  0  0  0  0  0  0  0  0  0  0
    2.1545   61.8396  114.0281 N   0  0  0  0  0  0  0  0  0  0  0  0
   -1.8919   63.4413  110.6870 N   0  0  0  0  0  0  0  0  0  0  0  0
   -2.2350   60.7973  111.4898 N   0  0  1  0  0  4  0  0  0  0  0  0
   -4.2631   63.4235  110.7388 O   0  0  0  0  0  0  0  0  0  0  0  0
    6.5541   59.6108  112.3169 Cl  0  0  0  0  0  0  0  0  0  0  0  0
    5.6278   60.6001  109.4994 Cl  0  0  0  0  0  0  0  0  0  0  0  0
  2  1  2  0
  1 21  1  0
  1 26  1  0
  3  2  1  0
  3 19  2  0
 22  3  1  0
  4  5  2  0
  4 16  1  0
  4 22  1  0
  5  6  1  0
  5 19  1  0
  7  6  1  6
  7  8  1  0
  7 15  1  0
  7 23  1  0
  8  9  1  1
  8 16  1  0
  9 10  1  0
 10 11  1  0
 10 12  1  1
 10 24  1  0
 11 23  1  0
 11 25  2  0
 12 13  2  0
 13 14  1  0
 24 14  1  6
 15 24  1  0
 16 17  1  1
 16 18  1  0
 19 20  1  0
 20 21  2  0
 21 27  1  0
M  CHG  1  24   1
M  END
$$$$
