
     RDKit          3D

 27 32  0  0  0  0  0  0  0  0999 V2000
    5.3382   63.8118  109.3684 C   0  0  0  0  0  0  0  0  0  0  0  0
    4.0037   64.2060  109.2255 C   0  0  0  0  0  0  0  0  0  0  0  0
    2.9933   63.5561  109.8734 C   0  0  0  0  0  0  0  0  0  0  0  0
    1.1144   62.8148  110.7057 C   0  0  0  0  0  0  0  0  0  0  0  0
    2.0932   62.0029  111.2273 C   0  0  0  0  0  0  0  0  0  0  0  0
    1.7545   60.8827  112.1659 C   0  0  0  0  0  0  0  0  0  0  0  0
    0.7300   61.4485  113.0967 C   0  0  2  0  0  0  0  0  0  0  0  0
   -0.4853   62.0124  112.4387 C   0  0  1  0  0  0  0  0  0  0  0  0
   -1.1813   62.9891  113.3921 C   0  0  0  0  0  0  0  0  0  0  0  0
   -0.7687   62.5874  114.7501 C   0  0  2  0  0  0  0  0  0  0  0  0
   -0.7089   61.0885  114.9444 C   0  0  0  0  0  0  0  0  0  0  0  0
   -1.4338   63.2215  115.8760 C   0  0  0  0  0  0  0  0  0  0  0  0
   -0.5253   63.3341  116.8383 C   0  0  0  0  0  0  0  0  0  0  0  0
    0.7793   62.7518  116.3172 C   0  0  0  0  0  0  0  0  0  0  0  0
    1.4403   62.4768  113.9912 C   0  0  0  0  0  0  0  0  0  0  0  0
   -0.2925   62.5734  111.0758 C   0  0  2  0  0  0  0  0  0  0  0  0
   -0.8217   61.5620  110.0452 C   0  0  0  0  0  0  0  0  0  0  0  0
   -1.0855   63.8384  110.8308 C   0  0  0  0  0  0  0  0  0  0  0  0
    3.2910   62.4870  110.6875 C   0  0  0  0  0  0  0  0  0  0  0  0
    4.5897   62.0882  110.8386 C   0  0  0  0  0  0  0  0  0  0  0  0
    5.6248   62.7365  110.1888 C   0  0  0  0  0  0  0  0  0  0  0  0
    1.6688   63.7331  109.9024 N   0  0  0  0  0  0  0  0  0  0  0  0
    0.2382   60.4685  114.0735 N   0  0  0  0  0  0  0  0  0  0  0  0
    0.6040   63.0932  114.9277 N   0  0  1  0  0  4  0  0  0  0  0  0
   -1.4145   60.4888  115.7746 O   0  0  0  0  0  0  0  0  0  0  0  0
    6.6313   64.6280  108.5516 Cl  0  0  0  0  0  0  0  0  0  0  0  0
    7.2807   62.1966  110.4066 Cl  0  0  0  0  0  0  0  0  0  0  0  0
  2  1  2  0
  1 21  1  0
  1 26  1  0
  3  2  1  0
  3 19  2  0
 22  3  1  0
  4  5  2  0
  4 16  1  0
  4 22  1  0
  5  6  1  0
  5 19  1  0
  7  6  1  6
  7  8  1  0
  7 15  1  0
  7 23  1  0
  8  9  1  1
  8 16  1  0
  9 10  1  0
 10 11  1  0
 10 12  1  1
 10 24  1  0
 11 23  1  0
 11 25  2  0
 12 13  2  0
 13 14  1  0
 24 14  1  1
 15 24  1  0
 16 17  1  6
 16 18  1  0
 19 20  1  0
 20 21  2  0
 21 27  1  0
M  CHG  1  24   1
M  END
$$$$
