
     RDKit          3D

 27 32  0  0  0  0  0  0  0  0999 V2000
    5.7538   62.8363  108.9224 C   0  0  0  0  0  0  0  0  0  0  0  0
    5.4255   61.5704  109.4189 C   0  0  0  0  0  0  0  0  0  0  0  0
    4.8108   61.4140  110.6274 C   0  0  0  0  0  0  0  0  0  0  0  0
    3.8480   60.7282  112.4646 C   0  0  0  0  0  0  0  0  0  0  0  0
    3.8868   62.0989  112.5596 C   0  0  0  0  0  0  0  0  0  0  0  0
    3.3305   62.8105  113.7573 C   0  0  0  0  0  0  0  0  0  0  0  0
    2.0436   62.1133  114.0637 C   0  0  2  0  0  0  0  0  0  0  0  0
    2.1551   60.6421  114.2902 C   0  0  1  0  0  0  0  0  0  0  0  0
    0.7885   59.9829  114.0776 C   0  0  0  0  0  0  0  0  0  0  0  0
   -0.2095   61.0446  114.3063 C   0  0  2  0  0  0  0  0  0  0  0  0
    0.1359   61.9594  115.4604 C   0  0  0  0  0  0  0  0  0  0  0  0
   -1.6094   60.6584  114.3628 C   0  0  0  0  0  0  0  0  0  0  0  0
   -2.3011   61.6627  113.8367 C   0  0  0  0  0  0  0  0  0  0  0  0
   -1.3129   62.7417  113.4220 C   0  0  0  0  0  0  0  0  0  0  0  0
    1.0553   62.4578  112.9383 C   0  0  0  0  0  0  0  0  0  0  0  0
    3.2510   59.9481  113.5644 C   0  0  2  0  0  0  0  0  0  0  0  0
    4.4013   59.6763  114.5482 C   0  0  0  0  0  0  0  0  0  0  0  0
    2.8525   58.5871  113.0370 C   0  0  0  0  0  0  0  0  0  0  0  0
    4.5051   62.5264  111.3782 C   0  0  0  0  0  0  0  0  0  0  0  0
    4.8187   63.7712  110.9085 C   0  0  0  0  0  0  0  0  0  0  0  0
    5.4418   63.9461  109.6857 C   0  0  0  0  0  0  0  0  0  0  0  0
    4.4022   60.3389  111.3082 N   0  0  0  0  0  0  0  0  0  0  0  0
    1.3678   62.6511  115.2513 N   0  0  0  0  0  0  0  0  0  0  0  0
   -0.2082   61.8771  113.0903 N   0  0  1  0  0  4  0  0  0  0  0  0
   -0.5875   62.0776  116.4652 O   0  0  0  0  0  0  0  0  0  0  0  0
    6.5346   63.0495  107.3894 Cl  0  0  0  0  0  0  0  0  0  0  0  0
    5.8295   65.5599  109.1144 Cl  0  0  0  0  0  0  0  0  0  0  0  0
  2  1  2  0
  1 21  1  0
  1 26  1  0
  3  2  1  0
  3 19  2  0
 22  3  1  0
  4  5  2  0
  4 16  1  0
  4 22  1  0
  5  6  1  0
  5 19  1  0
  7  6  1  6
  7  8  1  0
  7 15  1  0
  7 23  1  0
  8  9  1  6
  8 16  1  0
  9 10  1  0
 10 11  1  0
 10 12  1  1
 10 24  1  0
 11 23  1  0
 11 25  2  0
 12 13  2  0
 13 14  1  0
 24 14  1  1
 15 24  1  0
 16 17  1  1
 16 18  1  0
 19 20  1  0
 20 21  2  0
 21 27  1  0
M  CHG  1  24   1
M  END
$$$$
