
     RDKit          3D

 27 32  0  0  0  0  0  0  0  0999 V2000
    5.3275   63.9688  108.9377 C   0  0  0  0  0  0  0  0  0  0  0  0
    3.9900   64.2055  109.2720 C   0  0  0  0  0  0  0  0  0  0  0  0
    3.2577   63.2950  109.9774 C   0  0  0  0  0  0  0  0  0  0  0  0
    1.7578   62.1386  111.0661 C   0  0  0  0  0  0  0  0  0  0  0  0
    2.8933   61.3640  111.0703 C   0  0  0  0  0  0  0  0  0  0  0  0
    2.9151   60.0213  111.7389 C   0  0  0  0  0  0  0  0  0  0  0  0
    2.1819   60.2140  113.0278 C   0  0  2  0  0  0  0  0  0  0  0  0
    0.7951   60.7503  112.8970 C   0  0  1  0  0  0  0  0  0  0  0  0
    0.3575   61.3771  114.2248 C   0  0  0  0  0  0  0  0  0  0  0  0
    1.1776   60.7280  115.2648 C   0  0  2  0  0  0  0  0  0  0  0  0
    1.3805   59.2465  115.0366 C   0  0  0  0  0  0  0  0  0  0  0  0
    0.8409   60.9886  116.6544 C   0  0  0  0  0  0  0  0  0  0  0  0
    1.9859   60.9927  117.3274 C   0  0  0  0  0  0  0  0  0  0  0  0
    3.1088   60.7256  116.3372 C   0  0  0  0  0  0  0  0  0  0  0  0
    3.0641   61.0901  113.9314 C   0  0  0  0  0  0  0  0  0  0  0  0
    0.5411   61.6339  111.7290 C   0  0  2  0  0  0  0  0  0  0  0  0
   -0.2099   60.8297  110.6546 C   0  0  0  0  0  0  0  0  0  0  0  0
   -0.3618   62.8050  112.0489 C   0  0  0  0  0  0  0  0  0  0  0  0
    3.8461   62.1145  110.3706 C   0  0  0  0  0  0  0  0  0  0  0  0
    5.1522   61.8666  110.0525 C   0  0  0  0  0  0  0  0  0  0  0  0
    5.9076   62.7794  109.3383 C   0  0  0  0  0  0  0  0  0  0  0  0
    1.9936   63.2837  110.4114 N   0  0  0  0  0  0  0  0  0  0  0  0
    2.0609   58.9773  113.8101 N   0  0  0  0  0  0  0  0  0  0  0  0
    2.5089   61.3552  115.1876 N   0  0  1  0  0  4  0  0  0  0  0  0
    0.9899   58.3820  115.8409 O   0  0  0  0  0  0  0  0  0  0  0  0
    6.2694   65.1163  108.0424 Cl  0  0  0  0  0  0  0  0  0  0  0  0
    7.5822   62.4271  108.9477 Cl  0  0  0  0  0  0  0  0  0  0  0  0
  2  1  2  0
  1 21  1  0
  1 26  1  0
  3  2  1  0
  3 19  2  0
 22  3  1  0
  4  5  2  0
  4 16  1  0
  4 22  1  0
  5  6  1  0
  5 19  1  0
  7  6  1  6
  7  8  1  0
  7 15  1  0
  7 23  1  0
  8  9  1  1
  8 16  1  0
  9 10  1  0
 10 11  1  0
 10 12  1  1
 10 24  1  0
 11 23  1  0
 11 25  2  0
 12 13  2  0
 13 14  1  0
 24 14  1  1
 15 24  1  0
 16 17  1  6
 16 18  1  0
 19 20  1  0
 20 21  2  0
 21 27  1  0
M  CHG  1  24   1
M  END
$$$$
