
     RDKit          3D

 27 32  0  0  0  0  0  0  0  0999 V2000
   17.6154   67.9752  142.1009 C   0  0  0  0  0  0  0  0  0  0  0  0
   18.6049   67.3829  142.8572 C   0  0  0  0  0  0  0  0  0  0  0  0
   19.9370   67.4829  142.4622 C   0  0  0  0  0  0  0  0  0  0  0  0
   22.1301   67.3598  142.2649 C   0  0  0  0  0  0  0  0  0  0  0  0
   21.6873   68.0850  141.2018 C   0  0  0  0  0  0  0  0  0  0  0  0
   22.5677   68.6467  140.1605 C   0  0  0  0  0  0  0  0  0  0  0  0
   24.0061   68.4586  140.4004 C   0  0  2  0  0  0  0  0  0  0  0  0
   24.3690   67.2795  141.2482 C   0  0  1  0  0  0  0  0  0  0  0  0
   25.8513   67.2589  141.5538 C   0  0  0  0  0  0  0  0  0  0  0  0
   26.5053   68.2818  140.7049 C   0  0  2  0  0  0  0  0  0  0  0  0
   26.0884   68.1651  139.2556 C   0  0  0  0  0  0  0  0  0  0  0  0
   27.9510   68.4078  140.8336 C   0  0  0  0  0  0  0  0  0  0  0  0
   28.2349   69.6998  140.6814 C   0  0  0  0  0  0  0  0  0  0  0  0
   26.9391   70.4477  140.4459 C   0  0  0  0  0  0  0  0  0  0  0  0
   24.6651   69.7557  140.8947 C   0  0  0  0  0  0  0  0  0  0  0  0
   23.5574   67.0709  142.4655 C   0  0  2  0  0  0  0  0  0  0  0  0
   23.6400   65.5714  142.8075 C   0  0  0  0  0  0  0  0  0  0  0  0
   24.0483   67.7952  143.6888 C   0  0  0  0  0  0  0  0  0  0  0  0
   20.3202   68.1634  141.3223 C   0  0  0  0  0  0  0  0  0  0  0  0
   19.3121   68.7546  140.5710 C   0  0  0  0  0  0  0  0  0  0  0  0
   18.0060   68.6525  140.9647 C   0  0  0  0  0  0  0  0  0  0  0  0
   21.0562   67.0095  143.0082 N   0  0  0  0  0  0  0  0  0  0  0  0
   24.6706   68.2339  139.1116 N   0  0  0  0  0  0  0  0  0  0  0  0
   26.0437   69.5833  141.1883 N   0  0  1  0  0  4  0  0  0  0  0  0
   26.8967   68.0274  138.3240 O   0  0  0  0  0  0  0  0  0  0  0  0
   15.9283   67.8637  142.5773 Cl  0  0  0  0  0  0  0  0  0  0  0  0
   16.7594   69.4072  139.9984 Cl  0  0  0  0  0  0  0  0  0  0  0  0
  2  1  2  0
  1 21  1  0
  1 26  1  0
  3  2  1  0
  3 19  2  0
 22  3  1  0
  4  5  2  0
 16  4  1  6
  4 22  1  0
  6  5  1  1
  5 19  1  0
  6  7  1  0
  7  8  1  0
  7 15  1  0
  7 23  1  6
  8  9  1  1
  8 16  1  0
  9 10  1  6
 10 11  1  0
 10 12  1  6
 10 24  1  0
 11 23  1  0
 11 25  2  0
 12 13  2  0
 14 13  1  1
 24 14  1  6
 15 24  1  6
 17 16  1  1
 18 16  1  1
 19 20  1  0
 20 21  2  0
 21 27  1  0
M  CHG  1  24   1
M  END
$$$$
