
     RDKit          3D

 27 32  0  0  0  0  0  0  0  0999 V2000
    5.4772   63.0250  109.3524 C   0  0  0  0  0  0  0  0  0  0  0  0
    4.1267   62.9450  108.9969 C   0  0  0  0  0  0  0  0  0  0  0  0
    3.1919   62.4350  109.8507 C   0  0  0  0  0  0  0  0  0  0  0  0
    1.4105   61.7079  110.8853 C   0  0  0  0  0  0  0  0  0  0  0  0
    2.4493   61.5188  111.7652 C   0  0  0  0  0  0  0  0  0  0  0  0
    2.2192   60.9211  113.1217 C   0  0  0  0  0  0  0  0  0  0  0  0
    0.9689   61.5674  113.6270 C   0  0  2  0  0  0  0  0  0  0  0  0
   -0.2248   61.4217  112.7427 C   0  0  1  0  0  0  0  0  0  0  0  0
   -1.2490   62.5113  113.0760 C   0  0  0  0  0  0  0  0  0  0  0  0
   -0.9706   62.9119  114.4679 C   0  0  2  0  0  0  0  0  0  0  0  0
   -0.6228   61.7505  115.3725 C   0  0  0  0  0  0  0  0  0  0  0  0
   -1.9181   63.8003  115.1201 C   0  0  0  0  0  0  0  0  0  0  0  0
   -1.2108   64.5802  115.9298 C   0  0  0  0  0  0  0  0  0  0  0  0
    0.2515   64.1838  115.7977 C   0  0  0  0  0  0  0  0  0  0  0  0
    1.3000   63.0385  113.9237 C   0  0  0  0  0  0  0  0  0  0  0  0
    0.0479   61.3108  111.2858 C   0  0  2  0  0  0  0  0  0  0  0  0
   -0.0914   59.8375  110.8673 C   0  0  0  0  0  0  0  0  0  0  0  0
   -0.9501   62.0603  110.4306 C   0  0  0  0  0  0  0  0  0  0  0  0
    3.5840   61.9878  111.0919 C   0  0  0  0  0  0  0  0  0  0  0  0
    4.8997   62.0584  111.4559 C   0  0  0  0  0  0  0  0  0  0  0  0
    5.8589   62.5727  110.6019 C   0  0  0  0  0  0  0  0  0  0  0  0
    1.8713   62.2540  109.7516 N   0  0  0  0  0  0  0  0  0  0  0  0
    0.5553   61.0663  114.9438 N   0  0  0  0  0  0  0  0  0  0  0  0
    0.2196   63.7792  114.4145 N   0  0  1  0  0  4  0  0  0  0  0  0
   -1.3016   61.4472  116.3694 O   0  0  0  0  0  0  0  0  0  0  0  0
    6.6750   63.6704  108.2780 Cl  0  0  0  0  0  0  0  0  0  0  0  0
    7.5394   62.6478  111.1032 Cl  0  0  0  0  0  0  0  0  0  0  0  0
  2  1  2  0
  1 21  1  0
  1 26  1  0
  3  2  1  0
  3 19  2  0
 22  3  1  0
  4  5  2  0
  4 16  1  0
  4 22  1  0
  5  6  1  0
  5 19  1  0
  7  6  1  6
  7  8  1  0
  7 15  1  0
  7 23  1  0
  8  9  1  6
  8 16  1  0
  9 10  1  0
 10 11  1  0
 10 12  1  1
 10 24  1  0
 11 23  1  0
 11 25  2  0
 12 13  2  0
 13 14  1  0
 24 14  1  1
 15 24  1  0
 16 17  1  6
 16 18  1  0
 19 20  1  0
 20 21  2  0
 21 27  1  0
M  CHG  1  24   1
M  END
$$$$
