
     RDKit          3D

 27 32  0  0  0  0  0  0  0  0999 V2000
    5.0048   63.9429  109.4445 C   0  0  0  0  0  0  0  0  0  0  0  0
    4.4143   62.6974  109.4894 C   0  0  0  0  0  0  0  0  0  0  0  0
    4.1354   62.1029  110.7178 C   0  0  0  0  0  0  0  0  0  0  0  0
    3.5108   60.7772  112.3660 C   0  0  0  0  0  0  0  0  0  0  0  0
    4.0396   61.8896  112.9450 C   0  0  0  0  0  0  0  0  0  0  0  0
    4.1401   62.0944  114.4020 C   0  0  0  0  0  0  0  0  0  0  0  0
    3.5232   61.0384  115.2182 C   0  0  2  0  0  0  0  0  0  0  0  0
    3.4402   59.6906  114.5722 C   0  0  1  0  0  0  0  0  0  0  0  0
    2.6632   58.7169  115.4319 C   0  0  0  0  0  0  0  0  0  0  0  0
    2.4474   59.3491  116.7541 C   0  0  2  0  0  0  0  0  0  0  0  0
    3.7271   59.9187  117.3248 C   0  0  0  0  0  0  0  0  0  0  0  0
    1.7293   58.5583  117.7449 C   0  0  0  0  0  0  0  0  0  0  0  0
    0.9948   59.4133  118.4538 C   0  0  0  0  0  0  0  0  0  0  0  0
    1.2349   60.8083  117.9148 C   0  0  0  0  0  0  0  0  0  0  0  0
    2.1722   61.4925  115.7924 C   0  0  0  0  0  0  0  0  0  0  0  0
    2.9842   59.6626  113.1667 C   0  0  2  0  0  0  0  0  0  0  0  0
    3.5589   58.3811  112.5346 C   0  0  0  0  0  0  0  0  0  0  0  0
    1.4940   59.5741  112.9835 C   0  0  0  0  0  0  0  0  0  0  0  0
    4.4299   62.7179  111.9197 C   0  0  0  0  0  0  0  0  0  0  0  0
    5.0244   63.9721  111.8581 C   0  0  0  0  0  0  0  0  0  0  0  0
    5.2955   64.5501  110.6483 C   0  0  0  0  0  0  0  0  0  0  0  0
    3.5805   60.9311  111.0244 N   0  0  0  0  0  0  0  0  0  0  0  0
    4.3345   60.8449  116.4254 N   0  0  0  0  0  0  0  0  0  0  0  0
    1.5302   60.4682  116.5374 N   0  0  1  0  0  4  0  0  0  0  0  0
    4.1742   59.6049  118.4391 O   0  0  0  0  0  0  0  0  0  0  0  0
    5.3667   64.7141  107.9083 Cl  0  0  0  0  0  0  0  0  0  0  0  0
    6.0443   66.1295  110.6030 Cl  0  0  0  0  0  0  0  0  0  0  0  0
  2  1  2  0
  1 21  1  0
  1 26  1  0
  3  2  1  0
  3 19  2  0
 22  3  1  0
  4  5  2  0
 16  4  1  6
  4 22  1  0
  6  5  1  1
  5 19  1  0
  6  7  1  0
  7  8  1  0
  7 15  1  0
  7 23  1  1
  8  9  1  1
  8 16  1  0
  9 10  1  6
 10 11  1  0
 10 12  1  1
 10 24  1  0
 11 23  1  0
 11 25  2  0
 12 13  2  0
 14 13  1  1
 24 14  1  1
 15 24  1  6
 17 16  1  1
 18 16  1  1
 19 20  1  0
 20 21  2  0
 21 27  1  0
M  CHG  1  24   1
M  END
$$$$
