
     RDKit          3D

 27 32  0  0  0  0  0  0  0  0999 V2000
    5.2795   64.1012  108.6268 C   0  0  0  0  0  0  0  0  0  0  0  0
    3.9975   64.4821  108.9635 C   0  0  0  0  0  0  0  0  0  0  0  0
    3.2778   63.7492  109.9043 C   0  0  0  0  0  0  0  0  0  0  0  0
    1.7703   62.9418  111.2970 C   0  0  0  0  0  0  0  0  0  0  0  0
    2.8599   62.1325  111.3964 C   0  0  0  0  0  0  0  0  0  0  0  0
    2.9398   60.9601  112.2876 C   0  0  0  0  0  0  0  0  0  0  0  0
    1.7753   60.7708  113.1650 C   0  0  2  0  0  0  0  0  0  0  0  0
    0.4882   61.3447  112.6602 C   0  0  1  0  0  0  0  0  0  0  0  0
   -0.6094   61.2251  113.6955 C   0  0  0  0  0  0  0  0  0  0  0  0
   -0.1143   60.3517  114.7848 C   0  0  2  0  0  0  0  0  0  0  0  0
    0.4881   59.0702  114.2532 C   0  0  0  0  0  0  0  0  0  0  0  0
   -1.0379   60.0902  115.8809 C   0  0  0  0  0  0  0  0  0  0  0  0
   -0.3020   60.0145  116.9881 C   0  0  0  0  0  0  0  0  0  0  0  0
    1.1488   60.2329  116.6116 C   0  0  0  0  0  0  0  0  0  0  0  0
    2.0828   61.2093  114.6052 C   0  0  0  0  0  0  0  0  0  0  0  0
    0.5550   62.7064  112.0898 C   0  0  2  0  0  0  0  0  0  0  0  0
   -0.6224   62.8383  111.1058 C   0  0  0  0  0  0  0  0  0  0  0  0
    0.3815   63.8214  113.0842 C   0  0  0  0  0  0  0  0  0  0  0  0
    3.8014   62.6335  110.5292 C   0  0  0  0  0  0  0  0  0  0  0  0
    5.0938   62.2623  110.1795 C   0  0  0  0  0  0  0  0  0  0  0  0
    5.7949   62.9866  109.2548 C   0  0  0  0  0  0  0  0  0  0  0  0
    2.0480   63.9072  110.3919 N   0  0  0  0  0  0  0  0  0  0  0  0
    1.5305   59.3318  113.3148 N   0  0  0  0  0  0  0  0  0  0  0  0
    0.9544   61.0894  115.4589 N   0  0  1  0  0  4  0  0  0  0  0  0
    0.1072   57.9424  114.6040 O   0  0  0  0  0  0  0  0  0  0  0  0
    6.2080   65.0084  107.4434 Cl  0  0  0  0  0  0  0  0  0  0  0  0
    7.4195   62.4947  108.8354 Cl  0  0  0  0  0  0  0  0  0  0  0  0
  2  1  2  0
  1 21  1  0
  1 26  1  0
  3  2  1  0
  3 19  2  0
 22  3  1  0
  4  5  2  0
 16  4  1  6
  4 22  1  0
  6  5  1  1
  5 19  1  0
  6  7  1  0
  7  8  1  0
  7 15  1  0
  7 23  1  1
  8  9  1  1
  8 16  1  0
  9 10  1  6
 10 11  1  0
 10 12  1  1
 10 24  1  0
 11 23  1  0
 11 25  2  0
 12 13  2  0
 14 13  1  1
 24 14  1  1
 15 24  1  6
 17 16  1  1
 18 16  1  1
 19 20  1  0
 20 21  2  0
 21 27  1  0
M  CHG  1  24   1
M  END
$$$$
