
     RDKit          3D

 27 32  0  0  0  0  0  0  0  0999 V2000
    5.9036   62.3740  108.9582 C   0  0  0  0  0  0  0  0  0  0  0  0
    5.7408   61.2208  109.7329 C   0  0  0  0  0  0  0  0  0  0  0  0
    4.9524   61.2137  110.8472 C   0  0  0  0  0  0  0  0  0  0  0  0
    3.8141   60.7740  112.6591 C   0  0  0  0  0  0  0  0  0  0  0  0
    3.5668   62.0974  112.3818 C   0  0  0  0  0  0  0  0  0  0  0  0
    2.6678   62.9196  113.2571 C   0  0  0  0  0  0  0  0  0  0  0  0
    1.5070   62.0304  113.5705 C   0  0  2  0  0  0  0  0  0  0  0  0
    1.8583   60.7240  114.2013 C   0  0  1  0  0  0  0  0  0  0  0  0
    0.7108   59.7291  113.9991 C   0  0  0  0  0  0  0  0  0  0  0  0
   -0.4996   60.5475  113.7976 C   0  0  2  0  0  0  0  0  0  0  0  0
   -0.5619   61.7643  114.6941 C   0  0  0  0  0  0  0  0  0  0  0  0
   -1.7827   59.8656  113.7734 C   0  0  0  0  0  0  0  0  0  0  0  0
   -2.5454   60.5239  112.9079 C   0  0  0  0  0  0  0  0  0  0  0  0
   -1.7262   61.6765  112.3483 C   0  0  0  0  0  0  0  0  0  0  0  0
    0.6998   61.8550  112.2745 C   0  0  0  0  0  0  0  0  0  0  0  0
    3.1847   60.1577  113.8417 C   0  0  2  0  0  0  0  0  0  0  0  0
    4.1603   60.4065  115.0042 C   0  0  0  0  0  0  0  0  0  0  0  0
    3.1649   58.6561  113.6572 C   0  0  0  0  0  0  0  0  0  0  0  0
    4.3007   62.3672  111.2202 C   0  0  0  0  0  0  0  0  0  0  0  0
    4.4485   63.5034  110.4747 C   0  0  0  0  0  0  0  0  0  0  0  0
    5.2439   63.5265  109.3430 C   0  0  0  0  0  0  0  0  0  0  0  0
    4.6405   60.2648  111.7353 N   0  0  0  0  0  0  0  0  0  0  0  0
    0.5288   62.6582  114.4678 N   0  0  0  0  0  0  0  0  0  0  0  0
   -0.4320   61.0448  112.4120 N   0  0  1  0  0  4  0  0  0  0  0  0
   -1.4700   61.9421  115.5251 O   0  0  0  0  0  0  0  0  0  0  0  0
    6.9017   62.3972  107.5409 Cl  0  0  0  0  0  0  0  0  0  0  0  0
    5.4103   65.0040  108.4100 Cl  0  0  0  0  0  0  0  0  0  0  0  0
  2  1  2  0
  1 21  1  0
  1 26  1  0
  3  2  1  0
  3 19  2  0
 22  3  1  0
  4  5  2  0
  4 16  1  0
  4 22  1  0
  5  6  1  0
  5 19  1  0
  7  6  1  6
  7  8  1  0
  7 15  1  0
  7 23  1  0
  8  9  1  6
  8 16  1  0
  9 10  1  0
 10 11  1  0
 10 12  1  6
 10 24  1  0
 11 23  1  0
 11 25  2  0
 12 13  2  0
 13 14  1  0
 24 14  1  1
 15 24  1  0
 16 17  1  1
 16 18  1  0
 19 20  1  0
 20 21  2  0
 21 27  1  0
M  CHG  1  24   1
M  END
$$$$
