
     RDKit          3D

 27 32  0  0  0  0  0  0  0  0999 V2000
    4.9763   63.9608  109.2259 C   0  0  0  0  0  0  0  0  0  0  0  0
    3.6339   63.9419  109.6188 C   0  0  0  0  0  0  0  0  0  0  0  0
    3.1200   62.9161  110.3583 C   0  0  0  0  0  0  0  0  0  0  0  0
    1.9170   61.5070  111.5157 C   0  0  0  0  0  0  0  0  0  0  0  0
    3.1787   60.9632  111.4712 C   0  0  0  0  0  0  0  0  0  0  0  0
    3.4853   59.6567  112.1415 C   0  0  0  0  0  0  0  0  0  0  0  0
    2.7852   59.7202  113.4613 C   0  0  2  0  0  0  0  0  0  0  0  0
    1.3171   59.9807  113.3910 C   0  0  1  0  0  0  0  0  0  0  0  0
    0.8257   60.5271  114.7353 C   0  0  0  0  0  0  0  0  0  0  0  0
    1.7988   60.0577  115.7395 C   0  0  2  0  0  0  0  0  0  0  0  0
    2.2708   58.6397  115.5062 C   0  0  0  0  0  0  0  0  0  0  0  0
    1.4789   60.2646  117.1420 C   0  0  0  0  0  0  0  0  0  0  0  0
    2.6301   60.4942  117.7634 C   0  0  0  0  0  0  0  0  0  0  0  0
    3.7394   60.4352  116.7248 C   0  0  0  0  0  0  0  0  0  0  0  0
    3.5220   60.7582  114.3225 C   0  0  0  0  0  0  0  0  0  0  0  0
    0.8489   60.7869  112.2333 C   0  0  2  0  0  0  0  0  0  0  0  0
    0.2195   59.8426  111.1953 C   0  0  0  0  0  0  0  0  0  0  0  0
   -0.2464   61.7678  112.5901 C   0  0  0  0  0  0  0  0  0  0  0  0
    3.9395   61.8739  110.7279 C   0  0  0  0  0  0  0  0  0  0  0  0
    5.2539   61.8760  110.3527 C   0  0  0  0  0  0  0  0  0  0  0  0
    5.7895   62.9083  109.6032 C   0  0  0  0  0  0  0  0  0  0  0  0
    1.9013   62.6689  110.8482 N   0  0  0  0  0  0  0  0  0  0  0  0
    2.9365   58.4917  114.2513 N   0  0  0  0  0  0  0  0  0  0  0  0
    2.9813   60.9263  115.6015 N   0  0  1  0  0  4  0  0  0  0  0  0
    2.0876   57.7254  116.3292 O   0  0  0  0  0  0  0  0  0  0  0  0
    5.6421   65.2570  108.2867 Cl  0  0  0  0  0  0  0  0  0  0  0  0
    7.4821   62.8774  109.1394 Cl  0  0  0  0  0  0  0  0  0  0  0  0
  2  1  2  0
  1 21  1  0
  1 26  1  0
  3  2  1  0
  3 19  2  0
 22  3  1  0
  4  5  2  0
  4 16  1  0
  4 22  1  0
  5  6  1  0
  5 19  1  0
  7  6  1  6
  7  8  1  0
  7 15  1  0
  7 23  1  0
  8  9  1  1
  8 16  1  0
  9 10  1  0
 10 11  1  0
 10 12  1  1
 10 24  1  0
 11 23  1  0
 11 25  2  0
 12 13  2  0
 13 14  1  0
 24 14  1  1
 15 24  1  0
 16 17  1  6
 16 18  1  0
 19 20  1  0
 20 21  2  0
 21 27  1  0
M  CHG  1  24   1
M  END
$$$$
