
     RDKit          3D

 44 46  0  0  0  0  0  0  0  0999 V2000
    0.0159  -19.9642   33.9568 O   0  0  0  0  0  0  0  0  0  0  0  0
   -0.3234  -18.9856   33.1451 C   0  0  0  0  0  0  0  0  0  0  0  0
    0.7320  -18.2149   32.4814 C   0  0  0  0  0  0  0  0  0  0  0  0
    0.8550  -16.8698   32.2059 C   0  0  0  0  0  0  0  0  0  0  0  0
    1.9053  -16.4314   31.4521 C   0  0  0  0  0  0  0  0  0  0  0  0
    2.1777  -15.0646   30.8655 C   0  0  0  0  0  0  0  0  0  0  0  0
    1.6100  -14.9664   29.4817 C   0  0  0  0  0  0  0  0  0  0  0  0
    0.7022  -13.8544   29.1483 C   0  0  0  0  0  0  0  0  0  0  0  0
   -0.2414  -13.3542   30.1207 C   0  0  0  0  0  0  0  0  0  0  0  0
   -1.3576  -14.1081   30.7352 C   0  0  0  0  0  0  0  0  0  0  0  0
   -2.1745  -13.1775   31.4628 C   0  0  0  0  0  0  0  0  0  0  0  0
   -3.2388  -13.5446   32.2224 C   0  0  0  0  0  0  0  0  0  0  0  0
   -3.4935  -14.8908   32.2570 C   0  0  0  0  0  0  0  0  0  0  0  0
   -2.7271  -15.8551   31.5637 C   0  0  0  0  0  0  0  0  0  0  0  0
   -3.1958  -17.2276   31.9328 C   0  0  0  0  0  0  0  0  0  0  0  0
   -2.5481  -17.6947   33.2164 C   0  0  1  0  0  0  0  0  0  0  0  0
   -3.6169  -17.7980   34.2909 C   0  0  0  0  0  0  0  0  0  0  0  0
   -3.1236  -18.2241   35.5770 N   0  0  0  0  0  4  0  0  0  0  0  0
   -3.2260  -19.6413   35.8194 C   0  0  2  0  0  0  0  0  0  0  0  0
   -2.1314  -20.1675   36.7051 C   0  0  0  0  0  0  0  0  0  0  0  0
   -2.3481  -20.9849   37.8391 N   0  0  0  0  0  0  0  0  0  0  0  0
   -1.3738  -21.1527   38.9011 C   0  0  0  0  0  0  0  0  0  0  0  0
   -2.0957  -21.4920   40.1715 C   0  0  2  0  0  0  0  0  0  0  0  0
   -3.1038  -20.4449   40.5632 C   0  0  0  0  0  0  0  0  0  0  0  0
   -1.0797  -21.5454   41.3239 C   0  0  0  0  0  0  0  0  0  0  0  0
   -0.9461  -19.8637   36.4161 O   0  0  0  0  0  0  0  0  0  0  0  0
   -3.3555  -20.5020   34.6168 C   0  0  1  0  0  0  0  0  0  0  0  0
   -3.8001  -21.7690   35.0875 O   0  0  0  0  0  0  0  0  0  0  0  0
   -4.3078  -20.0488   33.5718 C   0  0  0  0  0  0  0  0  0  0  0  0
   -3.7924  -19.7108   32.2372 C   0  0  0  0  0  0  0  0  0  0  0  0
   -4.7081  -19.5767   31.0875 C   0  0  0  0  0  0  0  0  0  0  0  0
   -1.7541  -18.8967   33.0891 N   0  0  0  0  0  0  0  0  0  0  0  0
   -1.6582  -15.4405   30.7983 C   0  0  0  0  0  0  0  0  0  0  0  0
    2.8670  -17.3527   30.9700 C   0  0  0  0  0  0  0  0  0  0  0  0
    2.7999  -18.6975   31.2198 C   0  0  0  0  0  0  0  0  0  0  0  0
    3.7821  -19.6063   30.7298 N   0  0  0  0  0  0  0  0  0  0  0  0
    4.5834  -19.2617   29.5676 C   0  0  0  0  0  0  0  0  0  0  0  0
    3.6654  -18.8037   28.4599 C   0  0  0  0  0  0  0  0  0  0  0  0
    3.6330  -19.8907   27.4080 C   0  0  0  0  0  0  0  0  0  0  0  0
    4.0209  -21.0979   31.5123 S   0  0  2  0  0  6  0  0  0  0  0  0
    4.9050  -21.9646   30.6944 O   0  0  0  0  0  0  0  0  0  0  0  0
    2.5023  -21.9460   31.8598 C   0  0  0  0  0  0  0  0  0  0  0  0
    4.7171  -20.8984   32.8477 O   0  0  0  0  0  0  0  0  0  0  0  0
    1.7339  -19.0901   31.9673 C   0  0  0  0  0  0  0  0  0  0  0  0
  1  2  2  0
  2  3  1  0
  2 32  1  0
  3  4  1  0
  3 44  2  0
  4  5  2  0
  5  6  1  0
  5 34  1  0
  6  7  1  0
  7  8  1  0
  8  9  1  0
  9 10  1  0
 10 11  1  0
 10 33  2  0
 11 12  2  0
 12 13  1  0
 13 14  2  0
 14 15  1  0
 14 33  1  0
 15 16  1  0
 16 17  1  1
 16 32  1  0
 17 18  1  0
 19 18  1  6
 19 20  1  0
 19 27  1  0
 20 21  1  0
 20 26  2  0
 21 22  1  0
 22 23  1  0
 23 24  1  1
 23 25  1  0
 27 28  1  1
 27 29  1  0
 29 30  1  0
 30 31  1  0
 34 35  2  0
 35 36  1  0
 35 44  1  0
 36 37  1  0
 36 40  1  0
 37 38  1  0
 38 39  1  0
 40 41  2  0
 40 42  1  1
 40 43  2  0
M  CHG  1  18   1
M  END
$$$$
