
     RDKit          3D

 44 46  0  0  0  0  0  0  0  0999 V2000
   -1.8866  -18.7632   32.5900 O   0  0  0  0  0  0  0  0  0  0  0  0
   -0.7925  -18.4777   33.2631 C   0  0  0  0  0  0  0  0  0  0  0  0
    0.3991  -18.0411   32.5298 C   0  0  0  0  0  0  0  0  0  0  0  0
    1.7381  -18.3222   32.6981 C   0  0  0  0  0  0  0  0  0  0  0  0
    2.6630  -17.6698   31.9349 C   0  0  0  0  0  0  0  0  0  0  0  0
    4.1718  -17.6576   32.0344 C   0  0  0  0  0  0  0  0  0  0  0  0
    4.6295  -16.5307   32.9103 C   0  0  0  0  0  0  0  0  0  0  0  0
    5.5301  -16.8127   34.0422 C   0  0  0  0  0  0  0  0  0  0  0  0
    5.3941  -18.0288   34.8093 C   0  0  0  0  0  0  0  0  0  0  0  0
    4.2210  -18.4366   35.6150 C   0  0  0  0  0  0  0  0  0  0  0  0
    4.5919  -19.5889   36.3879 C   0  0  0  0  0  0  0  0  0  0  0  0
    3.7256  -20.2775   37.1752 C   0  0  0  0  0  0  0  0  0  0  0  0
    2.4419  -19.7975   37.1877 C   0  0  0  0  0  0  0  0  0  0  0  0
    2.0158  -18.6697   36.4498 C   0  0  0  0  0  0  0  0  0  0  0  0
    0.5340  -18.5115   36.5873 C   0  0  0  0  0  0  0  0  0  0  0  0
   -0.1989  -19.3866   35.5961 C   0  0  1  0  0  0  0  0  0  0  0  0
   -0.9448  -20.4673   36.3597 C   0  0  0  0  0  0  0  0  0  0  0  0
   -2.3389  -20.5834   36.0105 N   0  0  0  0  0  4  0  0  0  0  0  0
   -2.7014  -19.9471   34.7689 C   0  0  2  0  0  0  0  0  0  0  0  0
   -1.9240  -18.6882   34.5038 C   0  0  0  0  0  0  0  0  0  0  0  0
   -1.0930  -18.4877   33.3768 N   0  0  0  0  0  0  0  0  0  0  0  0
   -1.5082  -17.7491   32.1990 C   0  0  0  0  0  0  0  0  0  0  0  0
   -0.5109  -16.6605   31.9334 C   0  0  2  0  0  0  0  0  0  0  0  0
   -1.0733  -15.5538   31.0819 C   0  0  0  0  0  0  0  0  0  0  0  0
    0.6653  -17.2453   31.1348 C   0  0  0  0  0  0  0  0  0  0  0  0
   -2.0225  -17.7517   35.3369 O   0  0  0  0  0  0  0  0  0  0  0  0
   -4.1498  -19.6951   34.5627 C   0  0  1  0  0  0  0  0  0  0  0  0
   -4.7648  -19.8816   35.8322 O   0  0  0  0  0  0  0  0  0  0  0  0
   -4.5286  -18.3463   34.0711 C   0  0  0  0  0  0  0  0  0  0  0  0
   -5.5466  -17.5810   34.8052 C   0  0  0  0  0  0  0  0  0  0  0  0
   -6.2434  -16.4475   34.1664 C   0  0  0  0  0  0  0  0  0  0  0  0
   -1.0392  -18.6687   34.6633 N   0  0  0  0  0  0  0  0  0  0  0  0
    2.9281  -17.9946   35.6675 C   0  0  0  0  0  0  0  0  0  0  0  0
    2.2456  -16.7220   30.9687 C   0  0  0  0  0  0  0  0  0  0  0  0
    0.9298  -16.4099   30.7526 C   0  0  0  0  0  0  0  0  0  0  0  0
    0.5314  -15.4571   29.7707 N   0  0  0  0  0  0  0  0  0  0  0  0
    0.7114  -14.0359   30.0140 C   0  0  0  0  0  0  0  0  0  0  0  0
   -0.4198  -13.5423   30.8838 C   0  0  0  0  0  0  0  0  0  0  0  0
   -0.0817  -12.1359   31.3270 C   0  0  0  0  0  0  0  0  0  0  0  0
   -0.1522  -15.9865   28.3055 S   0  0  2  0  0  6  0  0  0  0  0  0
    0.9169  -16.4340   27.3788 O   0  0  0  0  0  0  0  0  0  0  0  0
   -1.1477  -14.7461   27.5204 C   0  0  0  0  0  0  0  0  0  0  0  0
   -1.0596  -17.1826   28.5374 O   0  0  0  0  0  0  0  0  0  0  0  0
    0.0445  -17.0774   31.5399 C   0  0  0  0  0  0  0  0  0  0  0  0
  1  2  2  0
  2  3  1  0
  2 32  1  0
  3  4  1  0
  3 44  2  0
  4  5  2  0
  5  6  1  0
  5 34  1  0
  6  7  1  0
  7  8  1  0
  8  9  1  0
  9 10  1  0
 10 11  1  0
 10 33  2  0
 11 12  2  0
 12 13  1  0
 13 14  2  0
 14 15  1  0
 14 33  1  0
 15 16  1  0
 16 17  1  1
 16 32  1  0
 17 18  1  0
 19 18  1  1
 19 20  1  0
 19 27  1  0
 20 21  1  0
 20 26  2  0
 21 22  1  0
 22 23  1  0
 23 24  1  6
 23 25  1  0
 27 28  1  1
 27 29  1  0
 29 30  1  0
 30 31  1  0
 34 35  2  0
 35 36  1  0
 35 44  1  0
 36 37  1  0
 36 40  1  0
 37 38  1  0
 38 39  1  0
 40 41  2  0
 40 42  1  6
 40 43  2  0
M  CHG  1  18   1
M  END
$$$$
