
     RDKit          3D

 44 46  0  0  0  0  0  0  0  0999 V2000
    0.5887  -20.3634   34.0700 O   0  0  0  0  0  0  0  0  0  0  0  0
   -0.1046  -19.4463   33.4300 C   0  0  0  0  0  0  0  0  0  0  0  0
    0.5609  -18.6416   32.4015 C   0  0  0  0  0  0  0  0  0  0  0  0
    0.4688  -17.3054   32.0753 C   0  0  0  0  0  0  0  0  0  0  0  0
    1.1209  -16.8365   30.9714 C   0  0  0  0  0  0  0  0  0  0  0  0
    1.0478  -15.4834   30.3004 C   0  0  0  0  0  0  0  0  0  0  0  0
   -0.0056  -15.4844   29.2339 C   0  0  0  0  0  0  0  0  0  0  0  0
   -1.0534  -14.4482   29.2497 C   0  0  0  0  0  0  0  0  0  0  0  0
   -1.5955  -13.9647   30.4980 C   0  0  0  0  0  0  0  0  0  0  0  0
   -2.3370  -14.7586   31.5037 C   0  0  0  0  0  0  0  0  0  0  0  0
   -2.8871  -13.8492   32.4698 C   0  0  0  0  0  0  0  0  0  0  0  0
   -3.5553  -14.2476   33.5830 C   0  0  0  0  0  0  0  0  0  0  0  0
   -3.6754  -15.6042   33.7363 C   0  0  0  0  0  0  0  0  0  0  0  0
   -3.1565  -16.5489   32.8218 C   0  0  0  0  0  0  0  0  0  0  0  0
   -3.3462  -17.9300   33.3663 C   0  0  0  0  0  0  0  0  0  0  0  0
   -2.2289  -18.2963   34.3165 C   0  0  1  0  0  0  0  0  0  0  0  0
   -2.8024  -18.4176   35.7179 C   0  0  0  0  0  0  0  0  0  0  0  0
   -2.1430  -19.3982   36.5441 N   0  0  0  0  0  4  0  0  0  0  0  0
   -2.9983  -20.4586   37.0151 C   0  0  2  0  0  0  0  0  0  0  0  0
   -3.4392  -20.2702   38.4397 C   0  0  0  0  0  0  0  0  0  0  0  0
   -4.6813  -20.7105   38.9539 N   0  0  0  0  0  0  0  0  0  0  0  0
   -5.0988  -20.4965   40.3269 C   0  0  0  0  0  0  0  0  0  0  0  0
   -6.2935  -19.5894   40.3341 C   0  0  2  0  0  0  0  0  0  0  0  0
   -7.5535  -20.2862   39.8951 C   0  0  0  0  0  0  0  0  0  0  0  0
   -6.0668  -18.4575   39.3190 C   0  0  0  0  0  0  0  0  0  0  0  0
   -2.6504  -19.6862   39.2254 O   0  0  0  0  0  0  0  0  0  0  0  0
   -2.4900  -21.8405   36.8260 C   0  0  1  0  0  0  0  0  0  0  0  0
   -3.4847  -22.5245   36.0726 O   0  0  0  0  0  0  0  0  0  0  0  0
   -1.1997  -21.9837   36.1055 C   0  0  0  0  0  0  0  0  0  0  0  0
   -0.2357  -22.9937   36.5653 C   0  0  0  0  0  0  0  0  0  0  0  0
    1.0284  -23.2159   35.8367 C   0  0  0  0  0  0  0  0  0  0  0  0
   -1.4531  -19.4503   33.9195 N   0  0  0  0  0  0  0  0  0  0  0  0
   -2.4899  -16.1030   31.7007 C   0  0  0  0  0  0  0  0  0  0  0  0
    1.8965  -17.7163   30.1774 C   0  0  0  0  0  0  0  0  0  0  0  0
    2.0304  -19.0499   30.4586 C   0  0  0  0  0  0  0  0  0  0  0  0
    2.8210  -19.9163   29.6493 N   0  0  0  0  0  0  0  0  0  0  0  0
    2.1836  -20.8403   28.7265 C   0  0  0  0  0  0  0  0  0  0  0  0
    1.6041  -20.0567   27.5733 C   0  0  0  0  0  0  0  0  0  0  0  0
    0.8512  -21.0259   26.6886 C   0  0  0  0  0  0  0  0  0  0  0  0
    4.5179  -19.8642   29.7601 S   0  0  2  0  0  6  0  0  0  0  0  0
    4.9284  -19.6559   31.1708 O   0  0  0  0  0  0  0  0  0  0  0  0
    5.2385  -18.6105   28.7331 C   0  0  0  0  0  0  0  0  0  0  0  0
    5.1257  -21.1842   29.3175 O   0  0  0  0  0  0  0  0  0  0  0  0
    1.3581  -19.4744   31.5617 C   0  0  0  0  0  0  0  0  0  0  0  0
  1  2  2  0
  2  3  1  0
  2 32  1  0
  3  4  1  0
  3 44  2  0
  4  5  2  0
  5  6  1  0
  5 34  1  0
  6  7  1  0
  7  8  1  0
  8  9  1  0
  9 10  1  0
 10 11  1  0
 10 33  2  0
 11 12  2  0
 12 13  1  0
 13 14  2  0
 14 15  1  0
 14 33  1  0
 15 16  1  0
 16 17  1  1
 16 32  1  0
 17 18  1  0
 19 18  1  1
 19 20  1  0
 19 27  1  0
 20 21  1  0
 20 26  2  0
 21 22  1  0
 22 23  1  0
 23 24  1  6
 23 25  1  0
 27 28  1  6
 27 29  1  0
 29 30  1  0
 30 31  1  0
 34 35  2  0
 35 36  1  0
 35 44  1  0
 36 37  1  0
 36 40  1  0
 37 38  1  0
 38 39  1  0
 40 41  2  0
 40 42  1  6
 40 43  2  0
M  CHG  1  18   1
M  END
$$$$
