
     RDKit          3D

 44 46  0  0  0  0  0  0  0  0999 V2000
    0.6590  -20.2730   33.8330 O   0  0  0  0  0  0  0  0  0  0  0  0
    0.1989  -19.4627   32.9039 C   0  0  0  0  0  0  0  0  0  0  0  0
    1.0930  -18.4469   32.3409 C   0  0  0  0  0  0  0  0  0  0  0  0
    0.8820  -17.1337   31.9782 C   0  0  0  0  0  0  0  0  0  0  0  0
    1.8780  -16.4409   31.3526 C   0  0  0  0  0  0  0  0  0  0  0  0
    1.8531  -15.0755   30.7032 C   0  0  0  0  0  0  0  0  0  0  0  0
    1.5135  -15.1942   29.2480 C   0  0  0  0  0  0  0  0  0  0  0  0
    0.4002  -14.4014   28.6969 C   0  0  0  0  0  0  0  0  0  0  0  0
   -0.7902  -14.1571   29.4776 C   0  0  0  0  0  0  0  0  0  0  0  0
   -1.7385  -15.1759   29.9818 C   0  0  0  0  0  0  0  0  0  0  0  0
   -2.8882  -14.4922   30.5048 C   0  0  0  0  0  0  0  0  0  0  0  0
   -3.9182  -15.1206   31.1283 C   0  0  0  0  0  0  0  0  0  0  0  0
   -3.7923  -16.4812   31.2344 C   0  0  0  0  0  0  0  0  0  0  0  0
   -2.6867  -17.2104   30.7406 C   0  0  0  0  0  0  0  0  0  0  0  0
   -2.8108  -18.6453   31.1474 C   0  0  0  0  0  0  0  0  0  0  0  0
   -2.2770  -18.8606   32.5453 C   0  0  1  0  0  0  0  0  0  0  0  0
   -3.4355  -19.2262   33.4573 C   0  0  0  0  0  0  0  0  0  0  0  0
   -3.1997  -20.3896   34.2758 N   0  0  0  0  0  4  0  0  0  0  0  0
   -3.0491  -20.1131   35.6824 C   0  0  2  0  0  0  0  0  0  0  0  0
   -1.7028  -19.5416   36.0291 C   0  0  0  0  0  0  0  0  0  0  0  0
   -1.3756  -18.9797   37.2854 N   0  0  0  0  0  0  0  0  0  0  0  0
   -1.0387  -17.5807   37.4716 C   0  0  0  0  0  0  0  0  0  0  0  0
   -1.1822  -17.2372   38.9248 C   0  0  2  0  0  0  0  0  0  0  0  0
   -1.7268  -15.8508   39.1420 C   0  0  0  0  0  0  0  0  0  0  0  0
    0.2085  -17.2471   39.5797 C   0  0  0  0  0  0  0  0  0  0  0  0
   -0.8090  -19.5686   35.1453 O   0  0  0  0  0  0  0  0  0  0  0  0
   -3.3730  -21.2295   36.6058 C   0  0  1  0  0  0  0  0  0  0  0  0
   -4.7459  -21.5331   36.3875 O   0  0  0  0  0  0  0  0  0  0  0  0
   -2.5995  -22.4848   36.4316 C   0  0  0  0  0  0  0  0  0  0  0  0
   -2.0861  -23.1759   37.6231 C   0  0  0  0  0  0  0  0  0  0  0  0
   -0.6770  -23.6089   37.6946 C   0  0  0  0  0  0  0  0  0  0  0  0
   -1.1716  -19.7889   32.6329 N   0  0  0  0  0  0  0  0  0  0  0  0
   -1.6647  -16.5354   30.1082 C   0  0  0  0  0  0  0  0  0  0  0  0
    3.1223  -17.0653   31.0920 C   0  0  0  0  0  0  0  0  0  0  0  0
    3.3903  -18.3631   31.4376 C   0  0  0  0  0  0  0  0  0  0  0  0
    4.6518  -18.9700   31.1711 N   0  0  0  0  0  0  0  0  0  0  0  0
    5.8807  -18.2183   31.3610 C   0  0  0  0  0  0  0  0  0  0  0  0
    6.7760  -18.9778   32.3104 C   0  0  0  0  0  0  0  0  0  0  0  0
    7.9836  -18.1130   32.5979 C   0  0  0  0  0  0  0  0  0  0  0  0
    4.7189  -20.5829   30.6341 S   0  0  2  0  0  6  0  0  0  0  0  0
    3.5347  -20.8879   29.7936 O   0  0  0  0  0  0  0  0  0  0  0  0
    4.8274  -21.7498   31.9656 C   0  0  0  0  0  0  0  0  0  0  0  0
    5.9434  -20.8088   29.7640 O   0  0  0  0  0  0  0  0  0  0  0  0
    2.3679  -19.0169   32.0510 C   0  0  0  0  0  0  0  0  0  0  0  0
  1  2  2  0
  2  3  1  0
  2 32  1  0
  3  4  1  0
  3 44  2  0
  4  5  2  0
  5  6  1  0
  5 34  1  0
  6  7  1  0
  7  8  1  0
  8  9  1  0
  9 10  1  0
 10 11  1  0
 10 33  2  0
 11 12  2  0
 12 13  1  0
 13 14  2  0
 14 15  1  0
 14 33  1  0
 15 16  1  0
 16 17  1  1
 16 32  1  0
 17 18  1  0
 19 18  1  6
 19 20  1  0
 19 27  1  0
 20 21  1  0
 20 26  2  0
 21 22  1  0
 22 23  1  0
 23 24  1  6
 23 25  1  0
 27 28  1  6
 27 29  1  0
 29 30  1  0
 30 31  1  0
 34 35  2  0
 35 36  1  0
 35 44  1  0
 36 37  1  0
 36 40  1  0
 37 38  1  0
 38 39  1  0
 40 41  2  0
 40 42  1  1
 40 43  2  0
M  CHG  1  18   1
M  END
$$$$
