
     RDKit          3D

 44 46  0  0  0  0  0  0  0  0999 V2000
   -0.3436  -20.8741   34.3251 O   0  0  0  0  0  0  0  0  0  0  0  0
   -0.6813  -19.9551   33.4459 C   0  0  0  0  0  0  0  0  0  0  0  0
    0.2965  -18.9249   33.0840 C   0  0  0  0  0  0  0  0  0  0  0  0
    0.1640  -17.5741   32.8429 C   0  0  0  0  0  0  0  0  0  0  0  0
    1.2395  -16.8627   32.3949 C   0  0  0  0  0  0  0  0  0  0  0  0
    1.3231  -15.4384   31.8939 C   0  0  0  0  0  0  0  0  0  0  0  0
    1.1305  -15.3942   30.4080 C   0  0  0  0  0  0  0  0  0  0  0  0
    0.1042  -14.5042   29.8367 C   0  0  0  0  0  0  0  0  0  0  0  0
   -1.1517  -14.2919   30.5178 C   0  0  0  0  0  0  0  0  0  0  0  0
   -2.1774  -15.3169   30.8159 C   0  0  0  0  0  0  0  0  0  0  0  0
   -3.3530  -14.6433   31.2923 C   0  0  0  0  0  0  0  0  0  0  0  0
   -4.4601  -15.2890   31.7416 C   0  0  0  0  0  0  0  0  0  0  0  0
   -4.3875  -16.6574   31.7154 C   0  0  0  0  0  0  0  0  0  0  0  0
   -3.2602  -17.3774   31.2588 C   0  0  0  0  0  0  0  0  0  0  0  0
   -3.4691  -18.8399   31.4977 C   0  0  0  0  0  0  0  0  0  0  0  0
   -3.0879  -19.2183   32.9108 C   0  0  1  0  0  0  0  0  0  0  0  0
   -4.3441  -19.6269   33.6607 C   0  0  0  0  0  0  0  0  0  0  0  0
   -4.1653  -20.7504   34.5466 N   0  0  0  0  0  4  0  0  0  0  0  0
   -3.0400  -20.6367   35.4401 C   0  0  2  0  0  0  0  0  0  0  0  0
   -2.8593  -19.2475   35.9852 C   0  0  0  0  0  0  0  0  0  0  0  0
   -2.6336  -18.9504   37.3497 N   0  0  0  0  0  0  0  0  0  0  0  0
   -2.5041  -17.5993   37.8625 C   0  0  0  0  0  0  0  0  0  0  0  0
   -1.8252  -17.6515   39.1991 C   0  0  2  0  0  0  0  0  0  0  0  0
   -0.6623  -18.6071   39.2221 C   0  0  0  0  0  0  0  0  0  0  0  0
   -2.8208  -18.1800   40.2443 C   0  0  0  0  0  0  0  0  0  0  0  0
   -2.9087  -18.2882   35.1741 O   0  0  0  0  0  0  0  0  0  0  0  0
   -1.7438  -21.1463   34.9263 C   0  0  1  0  0  0  0  0  0  0  0  0
   -1.1435  -21.8510   36.0069 O   0  0  0  0  0  0  0  0  0  0  0  0
   -1.8032  -22.0678   33.7637 C   0  0  0  0  0  0  0  0  0  0  0  0
   -0.6885  -22.9985   33.5351 C   0  0  0  0  0  0  0  0  0  0  0  0
   -0.7720  -24.4004   33.9889 C   0  0  0  0  0  0  0  0  0  0  0  0
   -2.0262  -20.1954   33.0084 N   0  0  0  0  0  0  0  0  0  0  0  0
   -2.1586  -16.6841   30.8048 C   0  0  0  0  0  0  0  0  0  0  0  0
    2.4842  -17.5080   32.1937 C   0  0  0  0  0  0  0  0  0  0  0  0
    2.6755  -18.8442   32.4251 C   0  0  0  0  0  0  0  0  0  0  0  0
    3.9384  -19.4722   32.2217 N   0  0  0  0  0  0  0  0  0  0  0  0
    4.7086  -19.1960   31.0208 C   0  0  0  0  0  0  0  0  0  0  0  0
    5.0799  -20.5053   30.3670 C   0  0  0  0  0  0  0  0  0  0  0  0
    4.3273  -20.5975   29.0579 C   0  0  0  0  0  0  0  0  0  0  0  0
    4.5490  -20.5450   33.3924 S   0  0  2  0  0  6  0  0  0  0  0  0
    4.7909  -21.8766   32.7839 O   0  0  0  0  0  0  0  0  0  0  0  0
    3.4814  -20.7121   34.7990 C   0  0  0  0  0  0  0  0  0  0  0  0
    5.8859  -20.0566   33.9232 O   0  0  0  0  0  0  0  0  0  0  0  0
    1.5762  -19.5144   32.8625 C   0  0  0  0  0  0  0  0  0  0  0  0
  1  2  2  0
  2  3  1  0
  2 32  1  0
  3  4  1  0
  3 44  2  0
  4  5  2  0
  5  6  1  0
  5 34  1  0
  6  7  1  0
  7  8  1  0
  8  9  1  0
  9 10  1  0
 10 11  1  0
 10 33  2  0
 11 12  2  0
 12 13  1  0
 13 14  2  0
 14 15  1  0
 14 33  1  0
 15 16  1  0
 16 17  1  6
 16 32  1  0
 17 18  1  0
 19 18  1  6
 19 20  1  0
 19 27  1  0
 20 21  1  0
 20 26  2  0
 21 22  1  0
 22 23  1  0
 23 24  1  6
 23 25  1  0
 27 28  1  1
 27 29  1  0
 29 30  1  0
 30 31  1  0
 34 35  2  0
 35 36  1  0
 35 44  1  0
 36 37  1  0
 36 40  1  0
 37 38  1  0
 38 39  1  0
 40 41  2  0
 40 42  1  1
 40 43  2  0
M  CHG  1  18   1
M  END
$$$$
