
     RDKit          3D

 44 46  0  0  0  0  0  0  0  0999 V2000
    0.3576  -21.0650   32.8585 O   0  0  0  0  0  0  0  0  0  0  0  0
   -0.2076  -20.0084   32.3147 C   0  0  0  0  0  0  0  0  0  0  0  0
    0.6144  -18.8274   32.0358 C   0  0  0  0  0  0  0  0  0  0  0  0
    0.3614  -17.4784   32.1648 C   0  0  0  0  0  0  0  0  0  0  0  0
    1.2777  -16.5760   31.7069 C   0  0  0  0  0  0  0  0  0  0  0  0
    1.1764  -15.0739   31.5654 C   0  0  0  0  0  0  0  0  0  0  0  0
    0.6711  -14.7095   30.2021 C   0  0  0  0  0  0  0  0  0  0  0  0
   -0.4994  -13.8229   30.0764 C   0  0  0  0  0  0  0  0  0  0  0  0
   -1.5917  -13.9036   31.0179 C   0  0  0  0  0  0  0  0  0  0  0  0
   -2.4744  -15.0699   31.2466 C   0  0  0  0  0  0  0  0  0  0  0  0
   -3.5566  -14.6488   32.0916 C   0  0  0  0  0  0  0  0  0  0  0  0
   -4.5070  -15.4912   32.5730 C   0  0  0  0  0  0  0  0  0  0  0  0
   -4.3682  -16.8019   32.1974 C   0  0  0  0  0  0  0  0  0  0  0  0
   -3.3263  -17.2774   31.3690 C   0  0  0  0  0  0  0  0  0  0  0  0
   -3.4010  -18.7693   31.2763 C   0  0  0  0  0  0  0  0  0  0  0  0
   -2.7090  -19.4208   32.4519 C   0  0  1  0  0  0  0  0  0  0  0  0
   -3.7539  -20.1182   33.3059 C   0  0  0  0  0  0  0  0  0  0  0  0
   -3.9065  -19.5607   34.6269 N   0  0  0  0  0  4  0  0  0  0  0  0
   -3.3907  -20.3863   35.6899 C   0  0  2  0  0  0  0  0  0  0  0  0
   -3.4887  -19.7353   37.0412 C   0  0  0  0  0  0  0  0  0  0  0  0
   -4.2561  -20.2425   38.1158 N   0  0  0  0  0  0  0  0  0  0  0  0
   -4.5799  -19.4705   39.3008 C   0  0  0  0  0  0  0  0  0  0  0  0
   -5.3668  -20.3342   40.2417 C   0  0  2  0  0  0  0  0  0  0  0  0
   -5.1142  -21.8029   40.0294 C   0  0  0  0  0  0  0  0  0  0  0  0
   -6.8662  -20.1254   39.9750 C   0  0  0  0  0  0  0  0  0  0  0  0
   -2.8434  -18.6727   37.2285 O   0  0  0  0  0  0  0  0  0  0  0  0
   -2.0223  -20.9269   35.4917 C   0  0  1  0  0  0  0  0  0  0  0  0
   -1.2378  -19.8415   35.0109 O   0  0  0  0  0  0  0  0  0  0  0  0
   -1.3432  -21.4788   36.6910 C   0  0  0  0  0  0  0  0  0  0  0  0
   -0.1436  -22.3092   36.5110 C   0  0  0  0  0  0  0  0  0  0  0  0
    0.5368  -22.9125   37.6735 C   0  0  0  0  0  0  0  0  0  0  0  0
   -1.5999  -20.2792   32.0994 N   0  0  0  0  0  0  0  0  0  0  0  0
   -2.3850  -16.3885   30.8959 C   0  0  0  0  0  0  0  0  0  0  0  0
    2.4842  -17.0258   31.1170 C   0  0  0  0  0  0  0  0  0  0  0  0
    2.7917  -18.3523   30.9710 C   0  0  0  0  0  0  0  0  0  0  0  0
    4.0146  -18.7830   30.3796 N   0  0  0  0  0  0  0  0  0  0  0  0
    4.6889  -17.9471   29.4008 C   0  0  0  0  0  0  0  0  0  0  0  0
    5.5458  -16.9385   30.1275 C   0  0  0  0  0  0  0  0  0  0  0  0
    6.1355  -16.0038   29.0942 C   0  0  0  0  0  0  0  0  0  0  0  0
    4.6903  -20.2792   30.8260 S   0  0  2  0  0  6  0  0  0  0  0  0
    6.1673  -20.2293   30.6929 O   0  0  0  0  0  0  0  0  0  0  0  0
    4.0472  -21.6361   29.8818 C   0  0  0  0  0  0  0  0  0  0  0  0
    4.3921  -20.5899   32.2828 O   0  0  0  0  0  0  0  0  0  0  0  0
    1.8477  -19.2149   31.4335 C   0  0  0  0  0  0  0  0  0  0  0  0
  1  2  2  0
  2  3  1  0
  2 32  1  0
  3  4  1  0
  3 44  2  0
  4  5  2  0
  5  6  1  0
  5 34  1  0
  6  7  1  0
  7  8  1  0
  8  9  1  0
  9 10  1  0
 10 11  1  0
 10 33  2  0
 11 12  2  0
 12 13  1  0
 13 14  2  0
 14 15  1  0
 14 33  1  0
 15 16  1  0
 16 17  1  6
 16 32  1  0
 17 18  1  0
 19 18  1  6
 19 20  1  0
 19 27  1  0
 20 21  1  0
 20 26  2  0
 21 22  1  0
 22 23  1  0
 23 24  1  6
 23 25  1  0
 27 28  1  1
 27 29  1  0
 29 30  1  0
 30 31  1  0
 34 35  2  0
 35 36  1  0
 35 44  1  0
 36 37  1  0
 36 40  1  0
 37 38  1  0
 38 39  1  0
 40 41  2  0
 40 42  1  6
 40 43  2  0
M  CHG  1  18   1
M  END
$$$$
