
     RDKit          3D

 44 46  0  0  0  0  0  0  0  0999 V2000
   -2.0618  -18.9747   31.7453 O   0  0  0  0  0  0  0  0  0  0  0  0
   -0.8927  -19.0361   32.3463 C   0  0  0  0  0  0  0  0  0  0  0  0
    0.2836  -18.4816   31.6702 C   0  0  0  0  0  0  0  0  0  0  0  0
    1.5873  -18.9211   31.5823 C   0  0  0  0  0  0  0  0  0  0  0  0
    2.5237  -18.1310   30.9805 C   0  0  0  0  0  0  0  0  0  0  0  0
    4.0259  -18.2875   30.9065 C   0  0  0  0  0  0  0  0  0  0  0  0
    4.6833  -17.5755   32.0500 C   0  0  0  0  0  0  0  0  0  0  0  0
    5.6267  -18.3078   32.9133 C   0  0  0  0  0  0  0  0  0  0  0  0
    5.4024  -19.6963   33.2416 C   0  0  0  0  0  0  0  0  0  0  0  0
    4.2534  -20.2503   33.9929 C   0  0  0  0  0  0  0  0  0  0  0  0
    4.5390  -21.6260   34.2904 C   0  0  0  0  0  0  0  0  0  0  0  0
    3.6579  -22.4635   34.8960 C   0  0  0  0  0  0  0  0  0  0  0  0
    2.4471  -21.9052   35.2133 C   0  0  0  0  0  0  0  0  0  0  0  0
    2.1066  -20.5595   34.9467 C   0  0  0  0  0  0  0  0  0  0  0  0
    0.6700  -20.3274   35.2961 C   0  0  0  0  0  0  0  0  0  0  0  0
   -0.2378  -20.7399   34.1599 C   0  0  1  0  0  0  0  0  0  0  0  0
   -1.0494  -21.9465   34.5992 C   0  0  0  0  0  0  0  0  0  0  0  0
   -1.8041  -21.7426   35.8106 N   0  0  0  0  0  4  0  0  0  0  0  0
   -2.9072  -20.8235   35.6828 C   0  0  2  0  0  0  0  0  0  0  0  0
   -3.9640  -21.0227   36.7330 C   0  0  0  0  0  0  0  0  0  0  0  0
   -4.2168  -20.1175   37.7903 N   0  0  0  0  0  0  0  0  0  0  0  0
   -5.2329  -20.3353   38.8028 C   0  0  0  0  0  0  0  0  0  0  0  0
   -4.9836  -19.3994   39.9484 C   0  0  2  0  0  0  0  0  0  0  0  0
   -3.7034  -19.7050   40.6789 C   0  0  0  0  0  0  0  0  0  0  0  0
   -6.1065  -19.5688   40.9845 C   0  0  0  0  0  0  0  0  0  0  0  0
   -4.6711  -22.0599   36.6641 O   0  0  0  0  0  0  0  0  0  0  0  0
   -3.5405  -20.7456   34.3423 C   0  0  1  0  0  0  0  0  0  0  0  0
   -4.6837  -21.5909   34.3993 O   0  0  0  0  0  0  0  0  0  0  0  0
   -3.9925  -19.4040   33.8952 C   0  0  0  0  0  0  0  0  0  0  0  0
   -2.9870  -18.3623   33.6403 C   0  0  0  0  0  0  0  0  0  0  0  0
   -3.3250  -16.9342   33.7968 C   0  0  0  0  0  0  0  0  0  0  0  0
   -1.0531  -19.6738   33.6213 N   0  0  0  0  0  0  0  0  0  0  0  0
    3.0319  -19.7404   34.3359 C   0  0  0  0  0  0  0  0  0  0  0  0
    2.1524  -16.8759   30.4392 C   0  0  0  0  0  0  0  0  0  0  0  0
    0.8718  -16.3931   30.4901 C   0  0  0  0  0  0  0  0  0  0  0  0
    0.5188  -15.1296   29.9337 N   0  0  0  0  0  0  0  0  0  0  0  0
   -0.7971  -14.9279   29.3513 C   0  0  0  0  0  0  0  0  0  0  0  0
   -1.7697  -14.5776   30.4518 C   0  0  0  0  0  0  0  0  0  0  0  0
   -3.1414  -14.4391   29.8289 C   0  0  0  0  0  0  0  0  0  0  0  0
    1.6409  -13.8510   29.9567 S   0  0  2  0  0  6  0  0  0  0  0  0
    2.9230  -14.2897   29.3522 O   0  0  0  0  0  0  0  0  0  0  0  0
    1.9312  -13.2168   31.5875 C   0  0  0  0  0  0  0  0  0  0  0  0
    1.1411  -12.6829   29.1239 O   0  0  0  0  0  0  0  0  0  0  0  0
   -0.0254  -17.2092   31.1050 C   0  0  0  0  0  0  0  0  0  0  0  0
  1  2  2  0
  2  3  1  0
  2 32  1  0
  3  4  1  0
  3 44  2  0
  4  5  2  0
  5  6  1  0
  5 34  1  0
  6  7  1  0
  7  8  1  0
  8  9  1  0
  9 10  1  0
 10 11  1  0
 10 33  2  0
 11 12  2  0
 12 13  1  0
 13 14  2  0
 14 15  1  0
 14 33  1  0
 15 16  1  0
 16 17  1  1
 16 32  1  0
 17 18  1  0
 19 18  1  6
 19 20  1  0
 19 27  1  0
 20 21  1  0
 20 26  2  0
 21 22  1  0
 22 23  1  0
 23 24  1  1
 23 25  1  0
 27 28  1  1
 27 29  1  0
 29 30  1  0
 30 31  1  0
 34 35  2  0
 35 36  1  0
 35 44  1  0
 36 37  1  0
 36 40  1  0
 37 38  1  0
 38 39  1  0
 40 41  2  0
 40 42  1  1
 40 43  2  0
M  CHG  1  18   1
M  END
$$$$
