
     RDKit          3D

 44 46  0  0  0  0  0  0  0  0999 V2000
   -0.1987  -19.3364   34.9648 O   0  0  0  0  0  0  0  0  0  0  0  0
   -0.5827  -18.8166   33.8185 C   0  0  0  0  0  0  0  0  0  0  0  0
    0.4358  -18.3481   32.8743 C   0  0  0  0  0  0  0  0  0  0  0  0
    0.4888  -17.2443   32.0501 C   0  0  0  0  0  0  0  0  0  0  0  0
    1.5210  -17.1146   31.1661 C   0  0  0  0  0  0  0  0  0  0  0  0
    1.7249  -16.1161   30.0490 C   0  0  0  0  0  0  0  0  0  0  0  0
    1.1656  -16.6472   28.7637 C   0  0  0  0  0  0  0  0  0  0  0  0
    0.2024  -15.8329   28.0016 C   0  0  0  0  0  0  0  0  0  0  0  0
   -0.7757  -15.0163   28.6817 C   0  0  0  0  0  0  0  0  0  0  0  0
   -1.8553  -15.4938   29.5750 C   0  0  0  0  0  0  0  0  0  0  0  0
   -2.7278  -14.3863   29.8484 C   0  0  0  0  0  0  0  0  0  0  0  0
   -3.7779  -14.4499   30.7074 C   0  0  0  0  0  0  0  0  0  0  0  0
   -3.9600  -15.6642   31.3162 C   0  0  0  0  0  0  0  0  0  0  0  0
   -3.1365  -16.7903   31.0889 C   0  0  0  0  0  0  0  0  0  0  0  0
   -3.5341  -17.8970   32.0145 C   0  0  0  0  0  0  0  0  0  0  0  0
   -2.8742  -17.7375   33.3652 C   0  0  1  0  0  0  0  0  0  0  0  0
   -3.9457  -17.4289   34.3967 C   0  0  0  0  0  0  0  0  0  0  0  0
   -4.0036  -18.3684   35.4890 N   0  0  0  0  0  4  0  0  0  0  0  0
   -2.9230  -19.3219   35.5181 C   0  0  2  0  0  0  0  0  0  0  0  0
   -2.9590  -20.2875   34.3667 C   0  0  0  0  0  0  0  0  0  0  0  0
   -1.8206  -20.9410   33.8394 N   0  0  0  0  0  0  0  0  0  0  0  0
   -1.8414  -21.7188   32.6147 C   0  0  0  0  0  0  0  0  0  0  0  0
   -1.6730  -23.1691   32.9590 C   0  0  2  0  0  0  0  0  0  0  0  0
   -0.3324  -23.7123   32.5422 C   0  0  0  0  0  0  0  0  0  0  0  0
   -2.7159  -23.9904   32.1837 C   0  0  0  0  0  0  0  0  0  0  0  0
   -4.0746  -20.5323   33.8412 O   0  0  0  0  0  0  0  0  0  0  0  0
   -2.7417  -20.0650   36.7904 C   0  0  1  0  0  0  0  0  0  0  0  0
   -1.7537  -21.0549   36.5288 O   0  0  0  0  0  0  0  0  0  0  0  0
   -2.2910  -19.2764   37.9648 C   0  0  0  0  0  0  0  0  0  0  0  0
   -2.5094  -19.8194   39.3133 C   0  0  0  0  0  0  0  0  0  0  0  0
   -2.1154  -19.0490   40.5089 C   0  0  0  0  0  0  0  0  0  0  0  0
   -2.0155  -18.8354   33.7508 N   0  0  0  0  0  0  0  0  0  0  0  0
   -2.0844  -16.6859   30.2044 C   0  0  0  0  0  0  0  0  0  0  0  0
    2.5353  -18.1015   31.1086 C   0  0  0  0  0  0  0  0  0  0  0  0
    2.5383  -19.2129   31.9088 C   0  0  0  0  0  0  0  0  0  0  0  0
    3.5724  -20.1908   31.8385 N   0  0  0  0  0  0  0  0  0  0  0  0
    3.7026  -21.1952   32.8805 C   0  0  0  0  0  0  0  0  0  0  0  0
    4.2644  -20.5423   34.1205 C   0  0  0  0  0  0  0  0  0  0  0  0
    4.4654  -21.6226   35.1604 C   0  0  0  0  0  0  0  0  0  0  0  0
    4.6552  -20.1854   30.5262 S   0  0  2  0  0  6  0  0  0  0  0  0
    6.0342  -19.9224   31.0068 O   0  0  0  0  0  0  0  0  0  0  0  0
    4.2190  -19.0047   29.2764 C   0  0  0  0  0  0  0  0  0  0  0  0
    4.6802  -21.5429   29.8449 O   0  0  0  0  0  0  0  0  0  0  0  0
    1.4881  -19.3049   32.7677 C   0  0  0  0  0  0  0  0  0  0  0  0
  1  2  2  0
  2  3  1  0
  2 32  1  0
  3  4  1  0
  3 44  2  0
  4  5  2  0
  5  6  1  0
  5 34  1  0
  6  7  1  0
  7  8  1  0
  8  9  1  0
  9 10  1  0
 10 11  1  0
 10 33  2  0
 11 12  2  0
 12 13  1  0
 13 14  2  0
 14 15  1  0
 14 33  1  0
 15 16  1  0
 16 17  1  1
 16 32  1  0
 17 18  1  0
 19 18  1  1
 19 20  1  0
 19 27  1  0
 20 21  1  0
 20 26  2  0
 21 22  1  0
 22 23  1  0
 23 24  1  6
 23 25  1  0
 27 28  1  6
 27 29  1  0
 29 30  1  0
 30 31  1  0
 34 35  2  0
 35 36  1  0
 35 44  1  0
 36 37  1  0
 36 40  1  0
 37 38  1  0
 38 39  1  0
 40 41  2  0
 40 42  1  6
 40 43  2  0
M  CHG  1  18   1
M  END
$$$$
