
     RDKit          3D

 44 46  0  0  0  0  0  0  0  0999 V2000
    0.2937  -20.1447   34.6327 O   0  0  0  0  0  0  0  0  0  0  0  0
   -0.1090  -19.3214   33.6883 C   0  0  0  0  0  0  0  0  0  0  0  0
    0.8908  -18.5479   32.9464 C   0  0  0  0  0  0  0  0  0  0  0  0
    0.8964  -17.2464   32.4922 C   0  0  0  0  0  0  0  0  0  0  0  0
    1.9252  -16.8132   31.7064 C   0  0  0  0  0  0  0  0  0  0  0  0
    2.0876  -15.5175   30.9440 C   0  0  0  0  0  0  0  0  0  0  0  0
    1.5588  -15.6613   29.5488 C   0  0  0  0  0  0  0  0  0  0  0  0
    0.5623  -14.6976   29.0489 C   0  0  0  0  0  0  0  0  0  0  0  0
   -0.4552  -14.1654   29.9250 C   0  0  0  0  0  0  0  0  0  0  0  0
   -1.5154  -14.9348   30.6146 C   0  0  0  0  0  0  0  0  0  0  0  0
   -2.4392  -13.9989   31.1920 C   0  0  0  0  0  0  0  0  0  0  0  0
   -3.4888  -14.3623   31.9735 C   0  0  0  0  0  0  0  0  0  0  0  0
   -3.6174  -15.7101   32.1867 C   0  0  0  0  0  0  0  0  0  0  0  0
   -2.7419  -16.6796   31.6469 C   0  0  0  0  0  0  0  0  0  0  0  0
   -3.0920  -18.0292   32.1908 C   0  0  0  0  0  0  0  0  0  0  0  0
   -2.4458  -18.2548   33.5387 C   0  0  1  0  0  0  0  0  0  0  0  0
   -3.5348  -18.3163   34.5960 C   0  0  0  0  0  0  0  0  0  0  0  0
   -3.8249  -19.6469   35.0698 N   0  0  0  0  0  4  0  0  0  0  0  0
   -3.3773  -19.9162   36.4133 C   0  0  2  0  0  0  0  0  0  0  0  0
   -1.9030  -19.6895   36.5990 C   0  0  0  0  0  0  0  0  0  0  0  0
   -0.9699  -20.7128   36.8876 N   0  0  0  0  0  0  0  0  0  0  0  0
   -0.0148  -20.6391   37.9774 C   0  0  0  0  0  0  0  0  0  0  0  0
    1.1585  -21.5157   37.6532 C   0  0  2  0  0  0  0  0  0  0  0  0
    1.0013  -22.9153   38.1848 C   0  0  0  0  0  0  0  0  0  0  0  0
    2.4111  -20.9467   38.3390 C   0  0  0  0  0  0  0  0  0  0  0  0
   -1.4717  -18.5139   36.4867 O   0  0  0  0  0  0  0  0  0  0  0  0
   -3.7564  -21.2368   36.9756 C   0  0  1  0  0  0  0  0  0  0  0  0
   -2.6849  -22.1188   36.6617 O   0  0  0  0  0  0  0  0  0  0  0  0
   -3.9772  -21.2983   38.4425 C   0  0  0  0  0  0  0  0  0  0  0  0
   -4.2306  -22.6033   39.0702 C   0  0  0  0  0  0  0  0  0  0  0  0
   -4.4452  -22.7101   40.5265 C   0  0  0  0  0  0  0  0  0  0  0  0
   -1.5391  -19.3802   33.5925 N   0  0  0  0  0  0  0  0  0  0  0  0
   -1.6920  -16.2696   30.8533 C   0  0  0  0  0  0  0  0  0  0  0  0
    2.9842  -17.6930   31.3737 C   0  0  0  0  0  0  0  0  0  0  0  0
    3.0349  -18.9923   31.8036 C   0  0  0  0  0  0  0  0  0  0  0  0
    4.1133  -19.8588   31.4618 N   0  0  0  0  0  0  0  0  0  0  0  0
    5.4827  -19.3745   31.5014 C   0  0  0  0  0  0  0  0  0  0  0  0
    6.1680  -19.9467   32.7190 C   0  0  0  0  0  0  0  0  0  0  0  0
    6.0363  -18.9386   33.8394 C   0  0  0  0  0  0  0  0  0  0  0  0
    3.7960  -21.4684   31.0111 S   0  0  2  0  0  6  0  0  0  0  0  0
    5.0656  -22.2318   30.9269 O   0  0  0  0  0  0  0  0  0  0  0  0
    2.9159  -21.5946   29.4763 C   0  0  0  0  0  0  0  0  0  0  0  0
    2.9378  -22.1596   32.0567 O   0  0  0  0  0  0  0  0  0  0  0  0
    1.9865  -19.3827   32.5766 C   0  0  0  0  0  0  0  0  0  0  0  0
  1  2  2  0
  2  3  1  0
  2 32  1  0
  3  4  1  0
  3 44  2  0
  4  5  2  0
  5  6  1  0
  5 34  1  0
  6  7  1  0
  7  8  1  0
  8  9  1  0
  9 10  1  0
 10 11  1  0
 10 33  2  0
 11 12  2  0
 12 13  1  0
 13 14  2  0
 14 15  1  0
 14 33  1  0
 15 16  1  0
 16 17  1  1
 16 32  1  0
 17 18  1  0
 19 18  1  6
 19 20  1  0
 19 27  1  0
 20 21  1  0
 20 26  2  0
 21 22  1  0
 22 23  1  0
 23 24  1  1
 23 25  1  0
 27 28  1  1
 27 29  1  0
 29 30  1  0
 30 31  1  0
 34 35  2  0
 35 36  1  0
 35 44  1  0
 36 37  1  0
 36 40  1  0
 37 38  1  0
 38 39  1  0
 40 41  2  0
 40 42  1  6
 40 43  2  0
M  CHG  1  18   1
M  END
$$$$
