
     RDKit          3D

 44 46  0  0  0  0  0  0  0  0999 V2000
   -1.6482  -19.2473   31.7384 O   0  0  0  0  0  0  0  0  0  0  0  0
   -0.6092  -19.2379   32.5458 C   0  0  0  0  0  0  0  0  0  0  0  0
    0.6802  -18.7599   32.0388 C   0  0  0  0  0  0  0  0  0  0  0  0
    1.9700  -19.2031   32.2397 C   0  0  0  0  0  0  0  0  0  0  0  0
    3.0144  -18.4832   31.7352 C   0  0  0  0  0  0  0  0  0  0  0  0
    4.5019  -18.6433   31.9546 C   0  0  0  0  0  0  0  0  0  0  0  0
    4.9532  -17.8058   33.1129 C   0  0  0  0  0  0  0  0  0  0  0  0
    5.7106  -18.4342   34.2098 C   0  0  0  0  0  0  0  0  0  0  0  0
    5.4054  -19.7777   34.6434 C   0  0  0  0  0  0  0  0  0  0  0  0
    4.1291  -20.2467   35.2288 C   0  0  0  0  0  0  0  0  0  0  0  0
    4.3310  -21.5797   35.7240 C   0  0  0  0  0  0  0  0  0  0  0  0
    3.3395  -22.3461   36.2476 C   0  0  0  0  0  0  0  0  0  0  0  0
    2.1015  -21.7587   36.2745 C   0  0  0  0  0  0  0  0  0  0  0  0
    1.8395  -20.4523   35.8028 C   0  0  0  0  0  0  0  0  0  0  0  0
    0.3677  -20.1861   35.8561 C   0  0  0  0  0  0  0  0  0  0  0  0
   -0.3257  -20.7258   34.6259 C   0  0  1  0  0  0  0  0  0  0  0  0
   -1.2252  -21.8775   35.0405 C   0  0  0  0  0  0  0  0  0  0  0  0
   -2.4043  -21.4755   35.7666 N   0  0  0  0  0  4  0  0  0  0  0  0
   -3.1720  -20.4324   35.1340 C   0  0  2  0  0  0  0  0  0  0  0  0
   -2.3445  -19.2321   34.7680 C   0  0  0  0  0  0  0  0  0  0  0  0
   -2.6291  -18.3689   33.6840 N   0  0  0  0  0  0  0  0  0  0  0  0
   -1.7977  -17.2350   33.3258 C   0  0  0  0  0  0  0  0  0  0  0  0
   -2.5457  -16.3748   32.3507 C   0  0  2  0  0  0  0  0  0  0  0  0
   -3.4352  -15.3676   33.0293 C   0  0  0  0  0  0  0  0  0  0  0  0
   -3.4819  -17.2640   31.5166 C   0  0  0  0  0  0  0  0  0  0  0  0
   -1.3359  -18.9776   35.4741 O   0  0  0  0  0  0  0  0  0  0  0  0
   -4.3974  -19.9973   35.8501 C   0  0  1  0  0  0  0  0  0  0  0  0
   -5.2842  -19.5104   34.8495 O   0  0  0  0  0  0  0  0  0  0  0  0
   -5.1198  -21.0358   36.6273 C   0  0  0  0  0  0  0  0  0  0  0  0
   -5.4091  -20.7897   38.0474 C   0  0  0  0  0  0  0  0  0  0  0  0
   -6.0091  -21.8439   38.8880 C   0  0  0  0  0  0  0  0  0  0  0  0
   -1.0102  -19.7289   33.8328 N   0  0  0  0  0  0  0  0  0  0  0  0
    2.8750  -19.7046   35.2843 C   0  0  0  0  0  0  0  0  0  0  0  0
    2.7703  -17.2977   30.9996 C   0  0  0  0  0  0  0  0  0  0  0  0
    1.5107  -16.8155   30.7620 C   0  0  0  0  0  0  0  0  0  0  0  0
    1.2876  -15.6233   30.0139 N   0  0  0  0  0  0  0  0  0  0  0  0
    0.7454  -14.4420   30.6634 C   0  0  0  0  0  0  0  0  0  0  0  0
    1.8871  -13.5446   31.0768 C   0  0  0  0  0  0  0  0  0  0  0  0
    1.3130  -12.4232   31.9145 C   0  0  0  0  0  0  0  0  0  0  0  0
    1.6630  -15.5819   28.3550 S   0  0  2  0  0  6  0  0  0  0  0  0
    2.9464  -16.2843   28.1072 O   0  0  0  0  0  0  0  0  0  0  0  0
    1.7457  -13.9328   27.7071 C   0  0  0  0  0  0  0  0  0  0  0  0
    0.6026  -16.3089   27.5460 O   0  0  0  0  0  0  0  0  0  0  0  0
    0.5021  -17.5596   31.2892 C   0  0  0  0  0  0  0  0  0  0  0  0
  1  2  2  0
  2  3  1  0
  2 32  1  0
  3  4  1  0
  3 44  2  0
  4  5  2  0
  5  6  1  0
  5 34  1  0
  6  7  1  0
  7  8  1  0
  8  9  1  0
  9 10  1  0
 10 11  1  0
 10 33  2  0
 11 12  2  0
 12 13  1  0
 13 14  2  0
 14 15  1  0
 14 33  1  0
 15 16  1  0
 16 17  1  1
 16 32  1  0
 17 18  1  0
 19 18  1  1
 19 20  1  0
 19 27  1  0
 20 21  1  0
 20 26  2  0
 21 22  1  0
 22 23  1  0
 23 24  1  1
 23 25  1  0
 27 28  1  6
 27 29  1  0
 29 30  1  0
 30 31  1  0
 34 35  2  0
 35 36  1  0
 35 44  1  0
 36 37  1  0
 36 40  1  0
 37 38  1  0
 38 39  1  0
 40 41  2  0
 40 42  1  6
 40 43  2  0
M  CHG  1  18   1
M  END
$$$$
