
     RDKit          3D

 44 46  0  0  0  0  0  0  0  0999 V2000
    0.3139  -20.2921   34.4136 O   0  0  0  0  0  0  0  0  0  0  0  0
   -0.2065  -19.5896   33.4301 C   0  0  0  0  0  0  0  0  0  0  0  0
    0.6866  -18.8359   32.5455 C   0  0  0  0  0  0  0  0  0  0  0  0
    0.5761  -17.5867   31.9729 C   0  0  0  0  0  0  0  0  0  0  0  0
    1.5169  -17.1738   31.0741 C   0  0  0  0  0  0  0  0  0  0  0  0
    1.5412  -15.9514   30.1842 C   0  0  0  0  0  0  0  0  0  0  0  0
    0.9260  -16.2610   28.8529 C   0  0  0  0  0  0  0  0  0  0  0  0
   -0.1634  -15.4097   28.3427 C   0  0  0  0  0  0  0  0  0  0  0  0
   -1.1490  -14.8541   29.2405 C   0  0  0  0  0  0  0  0  0  0  0  0
   -2.1062  -15.6123   30.0774 C   0  0  0  0  0  0  0  0  0  0  0  0
   -3.0456  -14.6792   30.6339 C   0  0  0  0  0  0  0  0  0  0  0  0
   -4.0119  -15.0245   31.5235 C   0  0  0  0  0  0  0  0  0  0  0  0
   -4.0379  -16.3502   31.8705 C   0  0  0  0  0  0  0  0  0  0  0  0
   -3.1417  -17.3157   31.3582 C   0  0  0  0  0  0  0  0  0  0  0  0
   -3.3648  -18.6237   32.0504 C   0  0  0  0  0  0  0  0  0  0  0  0
   -2.6121  -18.6790   33.3603 C   0  0  1  0  0  0  0  0  0  0  0  0
   -3.6178  -18.6997   34.4986 C   0  0  0  0  0  0  0  0  0  0  0  0
   -4.0481  -20.0207   34.8840 N   0  0  0  0  0  4  0  0  0  0  0  0
   -3.1291  -20.7243   35.7432 C   0  0  2  0  0  0  0  0  0  0  0  0
   -3.1206  -20.1990   37.1516 C   0  0  0  0  0  0  0  0  0  0  0  0
   -4.2494  -20.1872   38.0041 N   0  0  0  0  0  0  0  0  0  0  0  0
   -4.2059  -19.7326   39.3813 C   0  0  0  0  0  0  0  0  0  0  0  0
   -5.0824  -20.6216   40.2128 C   0  0  2  0  0  0  0  0  0  0  0  0
   -6.3520  -21.0115   39.5040 C   0  0  0  0  0  0  0  0  0  0  0  0
   -5.5243  -19.8533   41.4688 C   0  0  0  0  0  0  0  0  0  0  0  0
   -2.0383  -19.7439   37.6013 O   0  0  0  0  0  0  0  0  0  0  0  0
   -1.7359  -20.8496   35.2462 C   0  0  1  0  0  0  0  0  0  0  0  0
   -1.1921  -19.5349   35.2682 O   0  0  0  0  0  0  0  0  0  0  0  0
   -0.8265  -21.7276   36.0249 C   0  0  0  0  0  0  0  0  0  0  0  0
    0.1032  -22.6085   35.3034 C   0  0  0  0  0  0  0  0  0  0  0  0
    0.9510  -23.5703   36.0345 C   0  0  0  0  0  0  0  0  0  0  0  0
   -1.6331  -19.7396   33.4495 N   0  0  0  0  0  0  0  0  0  0  0  0
   -2.1790  -16.9253   30.4521 C   0  0  0  0  0  0  0  0  0  0  0  0
    2.6045  -18.0193   30.7451 C   0  0  0  0  0  0  0  0  0  0  0  0
    2.7692  -19.2654   31.2890 C   0  0  0  0  0  0  0  0  0  0  0  0
    3.8746  -20.0976   30.9481 N   0  0  0  0  0  0  0  0  0  0  0  0
    4.7371  -20.6319   31.9884 C   0  0  0  0  0  0  0  0  0  0  0  0
    5.9261  -19.7164   32.1549 C   0  0  0  0  0  0  0  0  0  0  0  0
    6.3569  -19.7781   33.6038 C   0  0  0  0  0  0  0  0  0  0  0  0
    4.1818  -20.4714   29.3171 S   0  0  2  0  0  6  0  0  0  0  0  0
    3.0019  -20.1264   28.4861 O   0  0  0  0  0  0  0  0  0  0  0  0
    4.6148  -22.1734   29.0687 C   0  0  0  0  0  0  0  0  0  0  0  0
    5.3452  -19.6504   28.7879 O   0  0  0  0  0  0  0  0  0  0  0  0
    1.8052  -19.6383   32.1725 C   0  0  0  0  0  0  0  0  0  0  0  0
  1  2  2  0
  2  3  1  0
  2 32  1  0
  3  4  1  0
  3 44  2  0
  4  5  2  0
  5  6  1  0
  5 34  1  0
  6  7  1  0
  7  8  1  0
  8  9  1  0
  9 10  1  0
 10 11  1  0
 10 33  2  0
 11 12  2  0
 12 13  1  0
 13 14  2  0
 14 15  1  0
 14 33  1  0
 15 16  1  0
 16 17  1  1
 16 32  1  0
 17 18  1  0
 19 18  1  6
 19 20  1  0
 19 27  1  0
 20 21  1  0
 20 26  2  0
 21 22  1  0
 22 23  1  0
 23 24  1  6
 23 25  1  0
 27 28  1  1
 27 29  1  0
 29 30  1  0
 30 31  1  0
 34 35  2  0
 35 36  1  0
 35 44  1  0
 36 37  1  0
 36 40  1  0
 37 38  1  0
 38 39  1  0
 40 41  2  0
 40 42  1  1
 40 43  2  0
M  CHG  1  18   1
M  END
$$$$
