
     RDKit          3D

 44 46  0  0  0  0  0  0  0  0999 V2000
    1.0998  -20.2667   33.6790 O   0  0  0  0  0  0  0  0  0  0  0  0
    0.5772  -19.1054   33.3477 C   0  0  0  0  0  0  0  0  0  0  0  0
    1.2522  -18.2847   32.3381 C   0  0  0  0  0  0  0  0  0  0  0  0
    1.4634  -16.9254   32.2477 C   0  0  0  0  0  0  0  0  0  0  0  0
    2.0245  -16.4062   31.1167 C   0  0  0  0  0  0  0  0  0  0  0  0
    2.2012  -14.9658   30.6919 C   0  0  0  0  0  0  0  0  0  0  0  0
    1.0238  -14.5103   29.8837 C   0  0  0  0  0  0  0  0  0  0  0  0
    0.3041  -13.2865   30.2783 C   0  0  0  0  0  0  0  0  0  0  0  0
    0.1226  -12.9530   31.6719 C   0  0  0  0  0  0  0  0  0  0  0  0
   -0.6255  -13.7414   32.6770 C   0  0  0  0  0  0  0  0  0  0  0  0
   -0.7488  -12.9438   33.8650 C   0  0  0  0  0  0  0  0  0  0  0  0
   -1.3051  -13.3940   35.0193 C   0  0  0  0  0  0  0  0  0  0  0  0
   -1.7520  -14.6892   34.9843 C   0  0  0  0  0  0  0  0  0  0  0  0
   -1.6591  -15.5237   33.8473 C   0  0  0  0  0  0  0  0  0  0  0  0
   -2.1138  -16.9050   34.2008 C   0  0  0  0  0  0  0  0  0  0  0  0
   -0.9918  -17.7014   34.8270 C   0  0  1  0  0  0  0  0  0  0  0  0
   -1.3374  -17.9676   36.2820 C   0  0  0  0  0  0  0  0  0  0  0  0
   -1.6951  -19.3356   36.5645 N   0  0  0  0  0  4  0  0  0  0  0  0
   -2.2074  -20.0675   35.4333 C   0  0  2  0  0  0  0  0  0  0  0  0
   -3.1572  -19.2616   34.5919 C   0  0  0  0  0  0  0  0  0  0  0  0
   -3.3202  -19.4252   33.1963 N   0  0  0  0  0  0  0  0  0  0  0  0
   -3.3948  -18.3152   32.2649 C   0  0  0  0  0  0  0  0  0  0  0  0
   -3.7163  -18.8486   30.9003 C   0  0  2  0  0  0  0  0  0  0  0  0
   -4.7430  -18.0166   30.1794 C   0  0  0  0  0  0  0  0  0  0  0  0
   -4.3385  -20.2468   31.0448 C   0  0  0  0  0  0  0  0  0  0  0  0
   -3.8541  -18.3879   35.1678 O   0  0  0  0  0  0  0  0  0  0  0  0
   -2.8024  -21.3950   35.7294 C   0  0  1  0  0  0  0  0  0  0  0  0
   -1.7645  -22.3454   35.5194 O   0  0  0  0  0  0  0  0  0  0  0  0
   -3.3299  -21.5981   37.1023 C   0  0  0  0  0  0  0  0  0  0  0  0
   -3.5160  -22.9695   37.5979 C   0  0  0  0  0  0  0  0  0  0  0  0
   -3.9975  -23.2158   38.9711 C   0  0  0  0  0  0  0  0  0  0  0  0
   -0.6246  -18.8985   34.1033 N   0  0  0  0  0  0  0  0  0  0  0  0
   -1.0931  -15.0263   32.6930 C   0  0  0  0  0  0  0  0  0  0  0  0
    2.3983  -17.2621   30.0519 C   0  0  0  0  0  0  0  0  0  0  0  0
    2.2202  -18.6194   30.0906 C   0  0  0  0  0  0  0  0  0  0  0  0
    2.6092  -19.4628   29.0099 N   0  0  0  0  0  0  0  0  0  0  0  0
    2.2231  -19.1334   27.6483 C   0  0  0  0  0  0  0  0  0  0  0  0
    0.7315  -19.3192   27.5051 C   0  0  0  0  0  0  0  0  0  0  0  0
    0.3518  -18.9345   26.0921 C   0  0  0  0  0  0  0  0  0  0  0  0
    3.5342  -20.8577   29.3149 S   0  0  2  0  0  6  0  0  0  0  0  0
    2.6902  -21.8966   29.9554 O   0  0  0  0  0  0  0  0  0  0  0  0
    4.9580  -20.5350   30.3224 C   0  0  0  0  0  0  0  0  0  0  0  0
    4.0522  -21.4532   28.0170 O   0  0  0  0  0  0  0  0  0  0  0  0
    1.6514  -19.0916   31.2319 C   0  0  0  0  0  0  0  0  0  0  0  0
  1  2  2  0
  2  3  1  0
  2 32  1  0
  3  4  1  0
  3 44  2  0
  4  5  2  0
  5  6  1  0
  5 34  1  0
  6  7  1  0
  7  8  1  0
  8  9  1  0
  9 10  1  0
 10 11  1  0
 10 33  2  0
 11 12  2  0
 12 13  1  0
 13 14  2  0
 14 15  1  0
 14 33  1  0
 15 16  1  0
 16 17  1  1
 16 32  1  0
 17 18  1  0
 19 18  1  1
 19 20  1  0
 19 27  1  0
 20 21  1  0
 20 26  2  0
 21 22  1  0
 22 23  1  0
 23 24  1  1
 23 25  1  0
 27 28  1  1
 27 29  1  0
 29 30  1  0
 30 31  1  0
 34 35  2  0
 35 36  1  0
 35 44  1  0
 36 37  1  0
 36 40  1  0
 37 38  1  0
 38 39  1  0
 40 41  2  0
 40 42  1  1
 40 43  2  0
M  CHG  1  18   1
M  END
$$$$
