
     RDKit          3D

 44 46  0  0  0  0  0  0  0  0999 V2000
    0.9025  -19.0254   35.2289 O   0  0  0  0  0  0  0  0  0  0  0  0
    0.2438  -18.6740   34.1453 C   0  0  0  0  0  0  0  0  0  0  0  0
    0.9538  -17.9534   33.0847 C   0  0  0  0  0  0  0  0  0  0  0  0
    0.5763  -16.9066   32.2710 C   0  0  0  0  0  0  0  0  0  0  0  0
    1.4068  -16.5039   31.2652 C   0  0  0  0  0  0  0  0  0  0  0  0
    1.1672  -15.5214   30.1409 C   0  0  0  0  0  0  0  0  0  0  0  0
    0.6356  -16.2295   28.9315 C   0  0  0  0  0  0  0  0  0  0  0  0
   -0.6115  -15.7564   28.3048 C   0  0  0  0  0  0  0  0  0  0  0  0
   -1.6954  -15.2448   29.1107 C   0  0  0  0  0  0  0  0  0  0  0  0
   -2.4670  -15.9935   30.1285 C   0  0  0  0  0  0  0  0  0  0  0  0
   -3.5869  -15.1844   30.5206 C   0  0  0  0  0  0  0  0  0  0  0  0
   -4.4569  -15.5298   31.5045 C   0  0  0  0  0  0  0  0  0  0  0  0
   -4.1957  -16.7264   32.1197 C   0  0  0  0  0  0  0  0  0  0  0  0
   -3.1110  -17.5663   31.7795 C   0  0  0  0  0  0  0  0  0  0  0  0
   -3.0466  -18.7145   32.7372 C   0  0  0  0  0  0  0  0  0  0  0  0
   -2.3018  -18.3300   33.9953 C   0  0  1  0  0  0  0  0  0  0  0  0
   -3.2808  -18.3213   35.1567 C   0  0  0  0  0  0  0  0  0  0  0  0
   -2.6592  -18.4032   36.4551 N   0  0  0  0  0  4  0  0  0  0  0  0
   -2.4272  -19.7458   36.9255 C   0  0  2  0  0  0  0  0  0  0  0  0
   -1.2944  -20.4313   36.2141 C   0  0  0  0  0  0  0  0  0  0  0  0
   -1.3760  -20.9491   34.9002 N   0  0  0  0  0  0  0  0  0  0  0  0
   -0.3032  -21.6922   34.2661 C   0  0  0  0  0  0  0  0  0  0  0  0
    0.9944  -21.3257   34.9235 C   0  0  2  0  0  0  0  0  0  0  0  0
    2.0328  -22.4087   34.8011 C   0  0  0  0  0  0  0  0  0  0  0  0
    0.7560  -21.1441   36.4313 C   0  0  0  0  0  0  0  0  0  0  0  0
   -0.2025  -20.5482   36.8262 O   0  0  0  0  0  0  0  0  0  0  0  0
   -3.6120  -20.6398   36.9599 C   0  0  1  0  0  0  0  0  0  0  0  0
   -3.4960  -21.4882   35.8235 O   0  0  0  0  0  0  0  0  0  0  0  0
   -3.7595  -21.5056   38.1569 C   0  0  0  0  0  0  0  0  0  0  0  0
   -3.2440  -21.0289   39.4484 C   0  0  0  0  0  0  0  0  0  0  0  0
   -4.0880  -21.0704   40.6584 C   0  0  0  0  0  0  0  0  0  0  0  0
   -1.1165  -19.1154   34.2588 N   0  0  0  0  0  0  0  0  0  0  0  0
   -2.2542  -17.1820   30.7703 C   0  0  0  0  0  0  0  0  0  0  0  0
    2.6521  -17.1499   31.0706 C   0  0  0  0  0  0  0  0  0  0  0  0
    3.0820  -18.1883   31.8532 C   0  0  0  0  0  0  0  0  0  0  0  0
    4.3418  -18.8203   31.6436 N   0  0  0  0  0  0  0  0  0  0  0  0
    5.5702  -18.0478   31.7194 C   0  0  0  0  0  0  0  0  0  0  0  0
    6.2412  -18.3261   33.0430 C   0  0  0  0  0  0  0  0  0  0  0  0
    7.2618  -17.2352   33.2817 C   0  0  0  0  0  0  0  0  0  0  0  0
    4.4078  -20.4871   31.3089 S   0  0  2  0  0  6  0  0  0  0  0  0
    5.6658  -21.0632   31.8449 O   0  0  0  0  0  0  0  0  0  0  0  0
    4.2706  -20.8494   29.5780 C   0  0  0  0  0  0  0  0  0  0  0  0
    3.2651  -21.2178   31.9928 O   0  0  0  0  0  0  0  0  0  0  0  0
    2.2202  -18.5609   32.8369 C   0  0  0  0  0  0  0  0  0  0  0  0
  1  2  2  0
  2  3  1  0
  2 32  1  0
  3  4  1  0
  3 44  2  0
  4  5  2  0
  5  6  1  0
  5 34  1  0
  6  7  1  0
  7  8  1  0
  8  9  1  0
  9 10  1  0
 10 11  1  0
 10 33  2  0
 11 12  2  0
 12 13  1  0
 13 14  2  0
 14 15  1  0
 14 33  1  0
 15 16  1  0
 16 17  1  1
 16 32  1  0
 17 18  1  0
 19 18  1  6
 19 20  1  0
 19 27  1  0
 20 21  1  0
 20 26  2  0
 21 22  1  0
 22 23  1  0
 23 24  1  1
 23 25  1  0
 27 28  1  6
 27 29  1  0
 29 30  1  0
 30 31  1  0
 34 35  2  0
 35 36  1  0
 35 44  1  0
 36 37  1  0
 36 40  1  0
 37 38  1  0
 38 39  1  0
 40 41  2  0
 40 42  1  6
 40 43  2  0
M  CHG  1  18   1
M  END
$$$$
