
     RDKit          3D

 44 46  0  0  0  0  0  0  0  0999 V2000
   -0.2364  -19.7853   34.9950 O   0  0  0  0  0  0  0  0  0  0  0  0
   -0.7102  -19.2676   33.8818 C   0  0  0  0  0  0  0  0  0  0  0  0
    0.2192  -18.6390   32.9388 C   0  0  0  0  0  0  0  0  0  0  0  0
    0.1171  -17.5028   32.1647 C   0  0  0  0  0  0  0  0  0  0  0  0
    1.1025  -17.2111   31.2661 C   0  0  0  0  0  0  0  0  0  0  0  0
    1.1552  -16.1485   30.1916 C   0  0  0  0  0  0  0  0  0  0  0  0
    0.6303  -16.6883   28.8955 C   0  0  0  0  0  0  0  0  0  0  0  0
   -0.4437  -15.9653   28.1915 C   0  0  0  0  0  0  0  0  0  0  0  0
   -1.4948  -15.3033   28.9285 C   0  0  0  0  0  0  0  0  0  0  0  0
   -2.4852  -15.9461   29.8216 C   0  0  0  0  0  0  0  0  0  0  0  0
   -3.4772  -14.9655   30.1634 C   0  0  0  0  0  0  0  0  0  0  0  0
   -4.4889  -15.1927   31.0405 C   0  0  0  0  0  0  0  0  0  0  0  0
   -4.5074  -16.4451   31.5970 C   0  0  0  0  0  0  0  0  0  0  0  0
   -3.5605  -17.4520   31.3015 C   0  0  0  0  0  0  0  0  0  0  0  0
   -3.7974  -18.6373   32.1839 C   0  0  0  0  0  0  0  0  0  0  0  0
   -3.1262  -18.4565   33.5263 C   0  0  1  0  0  0  0  0  0  0  0  0
   -4.1996  -18.3247   34.5931 C   0  0  0  0  0  0  0  0  0  0  0  0
   -3.7266  -18.5400   35.9380 N   0  0  0  0  0  4  0  0  0  0  0  0
   -2.5308  -19.3393   36.0328 C   0  0  2  0  0  0  0  0  0  0  0  0
   -2.5538  -20.5419   35.1313 C   0  0  0  0  0  0  0  0  0  0  0  0
   -3.4539  -21.6243   35.2701 N   0  0  0  0  0  0  0  0  0  0  0  0
   -3.4974  -22.7498   34.3554 C   0  0  0  0  0  0  0  0  0  0  0  0
   -2.1851  -23.4739   34.4158 C   0  0  2  0  0  0  0  0  0  0  0  0
   -2.2832  -24.7934   35.1337 C   0  0  0  0  0  0  0  0  0  0  0  0
   -1.1867  -22.6310   35.2256 C   0  0  0  0  0  0  0  0  0  0  0  0
   -1.7207  -20.5859   34.1908 O   0  0  0  0  0  0  0  0  0  0  0  0
   -2.1237  -19.7459   37.4013 C   0  0  1  0  0  0  0  0  0  0  0  0
   -0.7313  -19.4681   37.4949 O   0  0  0  0  0  0  0  0  0  0  0  0
   -2.7986  -19.0571   38.5301 C   0  0  0  0  0  0  0  0  0  0  0  0
   -1.9768  -18.4249   39.5721 C   0  0  0  0  0  0  0  0  0  0  0  0
   -2.6047  -17.6549   40.6635 C   0  0  0  0  0  0  0  0  0  0  0  0
   -2.1317  -19.4574   33.8434 N   0  0  0  0  0  0  0  0  0  0  0  0
   -2.5524  -17.1830   30.4007 C   0  0  0  0  0  0  0  0  0  0  0  0
    2.2265  -18.0641   31.1425 C   0  0  0  0  0  0  0  0  0  0  0  0
    2.3843  -19.2000   31.8910 C   0  0  0  0  0  0  0  0  0  0  0  0
    3.5265  -20.0411   31.7546 N   0  0  0  0  0  0  0  0  0  0  0  0
    3.4047  -21.4772   31.9396 C   0  0  0  0  0  0  0  0  0  0  0  0
    3.4252  -21.7825   33.4182 C   0  0  0  0  0  0  0  0  0  0  0  0
    3.3349  -23.2839   33.5809 C   0  0  0  0  0  0  0  0  0  0  0  0
    5.0374  -19.3613   31.3678 S   0  0  2  0  0  6  0  0  0  0  0  0
    5.5072  -19.8792   30.0591 O   0  0  0  0  0  0  0  0  0  0  0  0
    6.2677  -19.6617   32.6097 C   0  0  0  0  0  0  0  0  0  0  0  0
    4.9275  -17.8527   31.2278 O   0  0  0  0  0  0  0  0  0  0  0  0
    1.3759  -19.4554   32.7667 C   0  0  0  0  0  0  0  0  0  0  0  0
  1  2  2  0
  2  3  1  0
  2 32  1  0
  3  4  1  0
  3 44  2  0
  4  5  2  0
  5  6  1  0
  5 34  1  0
  6  7  1  0
  7  8  1  0
  8  9  1  0
  9 10  1  0
 10 11  1  0
 10 33  2  0
 11 12  2  0
 12 13  1  0
 13 14  2  0
 14 15  1  0
 14 33  1  0
 15 16  1  0
 16 17  1  1
 16 32  1  0
 17 18  1  0
 19 18  1  1
 19 20  1  0
 19 27  1  0
 20 21  1  0
 20 26  2  0
 21 22  1  0
 22 23  1  0
 23 24  1  1
 23 25  1  0
 27 28  1  6
 27 29  1  0
 29 30  1  0
 30 31  1  0
 34 35  2  0
 35 36  1  0
 35 44  1  0
 36 37  1  0
 36 40  1  0
 37 38  1  0
 38 39  1  0
 40 41  2  0
 40 42  1  1
 40 43  2  0
M  CHG  1  18   1
M  END
$$$$
