
     RDKit          3D

 44 46  0  0  0  0  0  0  0  0999 V2000
   -0.2814  -19.1734   32.7357 O   0  0  0  0  0  0  0  0  0  0  0  0
    0.2100  -19.8385   33.7593 C   0  0  0  0  0  0  0  0  0  0  0  0
    1.6263  -20.2156   33.7476 C   0  0  0  0  0  0  0  0  0  0  0  0
    2.2776  -21.3604   34.1547 C   0  0  0  0  0  0  0  0  0  0  0  0
    3.6422  -21.3971   34.1444 C   0  0  0  0  0  0  0  0  0  0  0  0
    4.5912  -22.4383   34.6938 C   0  0  0  0  0  0  0  0  0  0  0  0
    4.9697  -22.1081   36.1060 C   0  0  0  0  0  0  0  0  0  0  0  0
    4.7930  -23.1232   37.1596 C   0  0  0  0  0  0  0  0  0  0  0  0
    3.6658  -24.0260   37.1341 C   0  0  0  0  0  0  0  0  0  0  0  0
    2.2358  -23.6538   37.2246 C   0  0  0  0  0  0  0  0  0  0  0  0
    1.4729  -24.8592   37.3910 C   0  0  0  0  0  0  0  0  0  0  0  0
    0.1155  -24.8924   37.4207 C   0  0  0  0  0  0  0  0  0  0  0  0
   -0.5005  -23.6766   37.2764 C   0  0  0  0  0  0  0  0  0  0  0  0
    0.1941  -22.4570   37.1093 C   0  0  0  0  0  0  0  0  0  0  0  0
   -0.7839  -21.3554   36.8452 C   0  0  0  0  0  0  0  0  0  0  0  0
   -1.1540  -21.2987   35.3805 C   0  0  1  0  0  0  0  0  0  0  0  0
   -2.6150  -21.6876   35.2327 C   0  0  0  0  0  0  0  0  0  0  0  0
   -3.3841  -20.7939   34.4028 N   0  0  0  0  0  4  0  0  0  0  0  0
   -3.6189  -19.4935   34.9786 C   0  0  2  0  0  0  0  0  0  0  0  0
   -4.0691  -19.5568   36.4113 C   0  0  0  0  0  0  0  0  0  0  0  0
   -4.1989  -18.4295   37.2560 N   0  0  0  0  0  0  0  0  0  0  0  0
   -4.7503  -18.4947   38.5965 C   0  0  0  0  0  0  0  0  0  0  0  0
   -4.5779  -17.1587   39.2566 C   0  0  2  0  0  0  0  0  0  0  0  0
   -3.3508  -16.4295   38.7785 C   0  0  0  0  0  0  0  0  0  0  0  0
   -4.3766  -17.3702   40.7659 C   0  0  0  0  0  0  0  0  0  0  0  0
   -4.3518  -20.6853   36.8879 O   0  0  0  0  0  0  0  0  0  0  0  0
   -4.5138  -18.5913   34.2110 C   0  0  1  0  0  0  0  0  0  0  0  0
   -4.6547  -17.4152   34.9995 O   0  0  0  0  0  0  0  0  0  0  0  0
   -4.0478  -18.1783   32.8633 C   0  0  0  0  0  0  0  0  0  0  0  0
   -4.3514  -16.8200   32.3902 C   0  0  0  0  0  0  0  0  0  0  0  0
   -3.8212  -16.3348   31.1011 C   0  0  0  0  0  0  0  0  0  0  0  0
   -0.8302  -20.0515   34.7241 N   0  0  0  0  0  0  0  0  0  0  0  0
    1.5724  -22.4656   37.0909 C   0  0  0  0  0  0  0  0  0  0  0  0
    4.3798  -20.2706   33.7050 C   0  0  0  0  0  0  0  0  0  0  0  0
    3.7860  -19.1113   33.2818 C   0  0  0  0  0  0  0  0  0  0  0  0
    4.5475  -17.9916   32.8381 N   0  0  0  0  0  0  0  0  0  0  0  0
    5.3158  -18.0700   31.6072 C   0  0  0  0  0  0  0  0  0  0  0  0
    4.4804  -18.7557   30.5529 C   0  0  0  0  0  0  0  0  0  0  0  0
    5.2979  -18.8128   29.2812 C   0  0  0  0  0  0  0  0  0  0  0  0
    4.5521  -16.5556   33.7505 S   0  0  2  0  0  6  0  0  0  0  0  0
    5.7923  -16.4730   34.5610 O   0  0  0  0  0  0  0  0  0  0  0  0
    3.1339  -16.4031   34.8047 C   0  0  0  0  0  0  0  0  0  0  0  0
    4.5428  -15.3403   32.8392 O   0  0  0  0  0  0  0  0  0  0  0  0
    2.4266  -19.1167   33.3162 C   0  0  0  0  0  0  0  0  0  0  0  0
  1  2  2  0
  2  3  1  0
  2 32  1  0
  3  4  1  0
  3 44  2  0
  4  5  2  0
  5  6  1  0
  5 34  1  0
  6  7  1  0
  7  8  1  0
  8  9  1  0
  9 10  1  0
 10 11  1  0
 10 33  2  0
 11 12  2  0
 12 13  1  0
 13 14  2  0
 14 15  1  0
 14 33  1  0
 15 16  1  0
 16 17  1  1
 16 32  1  0
 17 18  1  0
 19 18  1  6
 19 20  1  0
 19 27  1  0
 20 21  1  0
 20 26  2  0
 21 22  1  0
 22 23  1  0
 23 24  1  6
 23 25  1  0
 27 28  1  1
 27 29  1  0
 29 30  1  0
 30 31  1  0
 34 35  2  0
 35 36  1  0
 35 44  1  0
 36 37  1  0
 36 40  1  0
 37 38  1  0
 38 39  1  0
 40 41  2  0
 40 42  1  1
 40 43  2  0
M  CHG  1  18   1
M  END
$$$$
