
     RDKit          3D

125134  0  0  0  0  0  0  0  0999 V2000
  -11.6006  -16.7216  -45.8342 N   0  0  0  0  0  0  0  0  0  0  0  0
  -10.2231  -17.1107  -45.4186 C   0  0  2  0  0  0  0  0  0  0  0  0
  -10.1866  -16.7765  -43.9933 C   0  0  0  0  0  0  0  0  0  0  0  0
  -11.0012  -17.6071  -43.3262 O   0  0  0  0  0  0  0  0  0  0  0  0
   -9.3290  -16.4614  -46.3932 C   0  0  0  0  0  0  0  0  0  0  0  0
   -9.4557  -15.0243  -46.6321 C   0  0  0  0  0  0  0  0  0  0  0  0
  -10.7661  -14.3776  -46.8537 C   0  0  0  0  0  0  0  0  0  0  0  0
  -10.9501  -13.5015  -47.9473 N   0  0  0  0  0  0  0  0  0  0  0  0
  -12.1230  -12.7584  -48.2505 C   0  0  0  0  0  0  0  0  0  0  0  0
  -13.2001  -12.8685  -47.6498 N   0  0  0  0  0  4  0  0  0  0  0  0
  -12.0749  -11.7948  -49.3408 N   0  0  0  0  0  0  0  0  0  0  0  0
   -9.5660  -15.8660  -43.1821 N   0  0  0  0  0  0  0  0  0  0  0  0
   -8.2557  -15.7786  -42.5657 C   0  0  2  0  0  0  0  0  0  0  0  0
   -8.1916  -16.3110  -41.1896 C   0  0  0  0  0  0  0  0  0  0  0  0
   -7.0364  -16.1168  -40.6376 O   0  0  0  0  0  0  0  0  0  0  0  0
   -7.6847  -14.4189  -42.6606 C   0  0  0  0  0  0  0  0  0  0  0  0
   -8.5677  -13.2418  -42.4606 C   0  0  1  0  0  0  0  0  0  0  0  0
   -9.9105  -13.3254  -43.1186 C   0  0  0  0  0  0  0  0  0  0  0  0
   -8.8696  -13.2256  -40.9199 C   0  0  0  0  0  0  0  0  0  0  0  0
   -9.1098  -16.9676  -40.4018 N   0  0  0  0  0  0  0  0  0  0  0  0
  -10.2131  -16.6015  -39.5648 C   0  0  2  0  0  0  0  0  0  0  0  0
  -10.4775  -15.1823  -39.3415 C   0  0  0  0  0  0  0  0  0  0  0  0
   -9.7058  -14.3987  -40.0524 O   0  0  0  0  0  0  0  0  0  0  0  0
  -10.0686  -17.3615  -38.2127 C   0  0  0  0  0  0  0  0  0  0  0  0
   -9.9278  -16.2844  -37.1904 C   0  0  0  0  0  0  0  0  0  0  0  0
  -10.2182  -14.9669  -37.4101 C   0  0  0  0  0  0  0  0  0  0  0  0
   -9.4851  -16.5970  -35.8987 C   0  0  0  0  0  0  0  0  0  0  0  0
  -10.0793  -14.0057  -36.4072 C   0  0  0  0  0  0  0  0  0  0  0  0
   -9.3418  -15.6648  -34.9002 C   0  0  0  0  0  0  0  0  0  0  0  0
   -9.6437  -14.3461  -35.1541 C   0  0  0  0  0  0  0  0  0  0  0  0
   -9.5095  -13.3695  -34.1606 O   0  0  0  0  0  0  0  0  0  0  0  0
  -11.3749  -14.5246  -38.5285 N   0  0  0  0  0  0  0  0  0  0  0  0
  -12.7748  -14.4867  -38.3142 C   0  0  0  0  0  0  0  0  0  0  0  0
  -13.5260  -15.6908  -37.9978 C   0  0  0  0  0  0  0  0  0  0  0  0
  -13.1960  -16.7092  -38.7184 O   0  0  0  0  0  0  0  0  0  0  0  0
  -14.5381  -15.9727  -37.0776 N   0  0  0  0  0  0  0  0  0  0  0  0
  -14.6471  -16.2777  -35.6974 C   0  0  2  0  0  0  0  0  0  0  0  0
  -15.8613  -15.5092  -35.1956 C   0  0  0  0  0  0  0  0  0  0  0  0
  -15.7196  -14.2681  -35.1429 O   0  0  0  0  0  0  0  0  0  0  0  0
  -13.5234  -16.2095  -34.7748 C   0  0  0  0  0  0  0  0  0  0  0  0
  -12.1374  -16.2434  -35.2760 C   0  0  0  0  0  0  0  0  0  0  0  0
  -11.0390  -16.1787  -34.4446 C   0  0  0  0  0  0  0  0  0  0  0  0
  -11.8753  -16.3989  -36.6376 C   0  0  0  0  0  0  0  0  0  0  0  0
   -9.7546  -16.2627  -34.9347 C   0  0  0  0  0  0  0  0  0  0  0  0
  -10.5999  -16.4826  -37.1232 C   0  0  0  0  0  0  0  0  0  0  0  0
   -9.5113  -16.4149  -36.2687 C   0  0  0  0  0  0  0  0  0  0  0  0
  -17.0816  -16.0997  -34.8073 N   0  0  0  0  0  0  0  0  0  0  0  0
  -17.3225  -17.5257  -34.6594 C   0  0  2  0  0  0  0  0  0  0  0  0
  -18.8185  -17.7460  -34.7068 C   0  0  0  0  0  0  0  0  0  0  0  0
  -19.4963  -16.6446  -34.8617 O   0  0  0  0  0  0  0  0  0  0  0  0
  -16.8851  -18.1006  -33.3419 C   0  0  0  0  0  0  0  0  0  0  0  0
  -15.6192  -17.6239  -32.7643 C   0  0  0  0  0  0  0  0  0  0  0  0
  -14.8481  -16.5592  -33.4262 C   0  0  0  0  0  0  0  0  0  0  0  0
  -15.1298  -16.4976  -34.9361 C   0  0  0  0  0  0  0  0  0  0  0  0
  -15.8780  -15.2863  -35.1432 N   0  0  0  0  0  4  0  0  0  0  0  0
  -19.5381  -18.9380  -34.6093 N   0  0  0  0  0  0  0  0  0  0  0  0
  -19.5720  -20.0494  -35.5508 C   0  0  2  0  0  0  0  0  0  0  0  0
  -20.8980  -19.9212  -36.2828 C   0  0  0  0  0  0  0  0  0  0  0  0
  -21.4571  -18.7539  -36.2039 O   0  0  0  0  0  0  0  0  0  0  0  0
  -19.5601  -21.3425  -34.7956 C   0  0  0  0  0  0  0  0  0  0  0  0
  -19.4477  -21.3236  -33.3562 C   0  0  0  0  0  0  0  0  0  0  0  0
  -19.6147  -22.3997  -32.5081 C   0  0  0  0  0  0  0  0  0  0  0  0
  -19.1211  -20.2535  -32.5307 C   0  0  0  0  0  0  0  0  0  0  0  0
  -19.4002  -22.0121  -31.2228 N   0  0  0  0  0  0  0  0  0  0  0  0
  -19.0995  -20.7103  -31.2124 C   0  0  0  0  0  0  0  0  0  0  0  0
  -18.8446  -18.9222  -32.7334 C   0  0  0  0  0  0  0  0  0  0  0  0
  -18.8090  -19.8549  -30.1646 C   0  0  0  0  0  0  0  0  0  0  0  0
  -18.5563  -18.0768  -31.6798 C   0  0  0  0  0  0  0  0  0  0  0  0
  -18.5332  -18.5309  -30.3811 C   0  0  0  0  0  0  0  0  0  0  0  0
  -21.5872  -20.8686  -37.0092 N   0  0  0  0  0  0  0  0  0  0  0  0
  -21.3210  -21.5011  -38.2799 C   0  0  2  0  0  0  0  0  0  0  0  0
  -22.5543  -21.3336  -39.1495 C   0  0  0  0  0  0  0  0  0  0  0  0
  -23.6410  -20.7454  -38.5149 O   0  0  0  0  0  0  0  0  0  0  0  0
  -21.0537  -22.9781  -38.0369 C   0  0  0  0  0  0  0  0  0  0  0  0
  -22.2855  -23.7906  -37.9688 C   0  0  0  0  0  0  0  0  0  0  0  0
  -23.0078  -24.1719  -36.9001 N   0  0  0  0  0  0  0  0  0  0  0  0
  -22.9586  -24.3344  -39.0495 C   0  0  0  0  0  0  0  0  0  0  0  0
  -24.0624  -24.9049  -37.2896 C   0  0  0  0  0  0  0  0  0  0  0  0
  -24.0377  -25.0094  -38.6288 N   0  0  0  0  0  0  0  0  0  0  0  0
  -22.8549  -22.4784  -39.9063 O   0  0  0  0  0  0  0  0  0  0  0  0
  -10.0255  -19.5718  -48.1843 C   0  0  0  0  0  0  0  0  0  0  0  0
  -13.6856  -20.7517  -46.5459 N   0  0  0  0  0  0  0  0  0  0  0  0
  -10.8580  -18.5227  -48.7536 C   0  0  0  0  0  0  0  0  0  0  0  0
  -12.4521  -19.9830  -46.7028 C   0  0  0  0  0  0  0  0  0  0  0  0
  -16.9512  -26.5372  -45.5457 O   0  0  0  0  0  1  0  0  0  0  0  0
  -12.8298  -18.5871  -47.1527 C   0  0  2  0  0  0  0  0  0  0  0  0
  -17.9982  -24.3625  -45.0460 C   0  0  0  0  0  0  0  0  0  0  0  0
  -19.0617  -23.6324  -44.5936 C   0  0  0  0  0  0  0  0  0  0  0  0
  -19.0766  -22.2137  -44.5266 C   0  0  0  0  0  0  0  0  0  0  0  0
  -17.9600  -21.5236  -44.9369 C   0  0  0  0  0  0  0  0  0  0  0  0
  -15.1080  -22.1884  -47.2061 N   0  0  0  0  0  0  0  0  0  0  0  0
  -16.9257  -23.6194  -45.4395 C   0  0  0  0  0  0  0  0  0  0  0  0
  -16.8586  -22.1972  -45.4046 C   0  0  0  0  0  0  0  0  0  0  0  0
  -15.5726  -21.6895  -45.9703 C   0  0  0  0  0  0  0  0  0  0  0  0
  -13.7014  -17.4415  -45.3161 O   0  0  0  0  0  0  0  0  0  0  0  0
  -12.1990  -18.1998  -48.4102 N   0  0  0  0  0  0  0  0  0  0  0  0
   -9.8744  -21.8052  -47.2276 C   0  0  0  0  0  0  0  0  0  0  0  0
  -19.0482  -26.4187  -44.7508 O   0  0  0  0  0  0  0  0  0  0  0  0
  -14.6187  -20.7791  -45.6049 C   0  0  0  0  0  0  0  0  0  0  0  0
  -30.2408  -17.8105  -43.1208 O   0  0  0  0  0  0  0  0  0  0  0  0
  -28.4912  -19.2784  -40.9744 O   0  0  0  0  0  0  0  0  0  0  0  0
  -24.7903  -22.3692  -41.2275 O   0  0  0  0  0  0  0  0  0  0  0  0
  -10.6798  -20.7539  -47.7455 N   0  0  0  0  0  0  0  0  0  0  0  0
   -8.4040  -21.8312  -47.4511 C   0  0  0  0  0  0  0  0  0  0  0  0
  -10.3697  -22.7556  -46.5646 O   0  0  0  0  0  0  0  0  0  0  0  0
  -10.3477  -17.7951  -49.6646 O   0  0  0  0  0  0  0  0  0  0  0  0
  -14.0175  -21.6356  -47.5252 N   0  0  0  0  0  0  0  0  0  0  0  0
  -22.1720  -20.7589  -43.1889 N   0  0  0  0  0  0  0  0  0  0  0  0
  -22.4258  -21.2416  -40.4909 N   0  0  1  0  0  4  0  0  0  0  0  0
  -25.9876  -20.4369  -40.9064 N   0  0  0  0  0  0  0  0  0  0  0  0
  -27.7804  -17.1210  -41.0992 N   0  0  0  0  0  0  0  0  0  0  0  0
  -30.8512  -16.6243  -41.2532 N   0  0  0  0  0  0  0  0  0  0  0  0
  -22.5840  -21.6647  -44.1144 N   0  0  0  0  0  0  0  0  0  0  0  0
  -21.5970  -22.2359  -44.6325 N   0  0  0  0  0  0  0  0  0  0  0  0
  -20.4125  -21.7158  -44.0566 C   0  0  0  0  0  0  0  0  0  0  0  0
  -20.8470  -20.7870  -43.1471 C   0  0  0  0  0  0  0  0  0  0  0  0
  -23.1711  -19.9534  -42.4809 C   0  0  0  0  0  0  0  0  0  0  0  0
  -23.4468  -20.4284  -41.0851 C   0  0  1  0  0  0  0  0  0  0  0  0
  -24.7506  -21.1415  -41.0824 C   0  0  0  0  0  0  0  0  0  0  0  0
  -26.1640  -19.0934  -41.3921 C   0  0  0  0  0  0  0  0  0  0  0  0
  -27.4846  -18.5087  -41.1543 C   0  0  0  0  0  0  0  0  0  0  0  0
  -28.4989  -16.4511  -42.1809 C   0  0  0  0  0  0  0  0  0  0  0  0
  -29.8686  -16.9998  -42.2314 C   0  0  0  0  0  0  0  0  0  0  0  0
  -18.0314  -25.8091  -45.1045 C   0  0  0  0  0  0  0  0  0  0  0  0
  -12.6799  -17.5615  -46.0932 C   0  0  0  0  0  0  0  0  0  0  0  0
  1  2  1  0
125  1  1  0
  2  3  1  0
  2  5  1  6
  3  4  2  0
  3 12  1  0
  5  6  1  0
  6  7  1  0
  7  8  1  0
  8  9  1  0
  9 10  2  0
  9 11  1  0
 12 13  1  0
 13 14  1  0
 13 16  1  1
 14 15  2  0
 14 20  1  0
 16 17  1  0
 17 18  1  6
 17 19  1  0
 21 20  1  0
 22 21  1  0
 21 24  1  1
 22 23  2  0
 32 22  1  0
 24 25  1  0
 25 26  2  0
 25 27  1  0
 26 28  1  0
 27 29  2  0
 28 30  2  0
 29 30  1  0
 30 31  1  0
 33 32  1  0
 34 33  1  0
 34 35  2  0
 36 34  1  0
 37 36  1  0
 38 37  1  0
 37 40  1  1
 38 39  2  0
 47 38  1  0
 40 41  1  0
 41 42  2  0
 41 43  1  0
 42 44  1  0
 43 45  2  0
 44 46  2  0
 45 46  1  0
 48 47  1  0
 49 48  1  0
 48 51  1  1
 49 50  2  0
 56 49  1  0
 51 52  1  0
 52 53  1  0
 53 54  1  0
 54 55  1  0
 57 56  1  0
 58 57  1  0
 57 60  1  1
 58 59  2  0
 70 58  1  0
 60 61  1  0
 61 62  2  0
 61 63  1  0
 62 64  1  0
 63 65  2  0
 63 66  1  0
 65 64  1  0
 65 67  1  0
 66 68  2  0
 67 69  2  0
 68 69  1  0
 71 70  1  0
 72 71  1  0
 71 74  1  1
 72 73  1  0
 80 72  1  0
109 72  1  0
 74 75  1  0
 75 76  1  0
 75 77  2  0
 76 78  2  0
 77 79  1  0
 79 78  1  0
109 80  1  6
 83 81  1  0
 81103  1  0
 82 84  1  0
 99 82  1  0
 82107  1  0
 96 83  1  0
 83106  2  0
 84 86  1  0
124 85  1  0
 86 96  1  6
 86125  1  0
 88 87  1  0
 87 92  2  0
 87124  1  0
 89 88  2  0
 89 90  1  0
115 89  1  0
 90 93  2  0
 94 91  1  0
 91107  2  0
 93 92  1  0
 93 94  1  0
 94 99  2  0
125 95  2  0
103 97  1  0
 97104  1  0
 97105  2  0
124 98  2  0
123100  2  0
121101  2  0
119102  2  0
108113  1  0
108116  1  0
117108  1  0
118109  1  0
110119  1  0
120110  1  0
111121  1  0
122111  1  0
123112  1  0
113114  2  0
115114  1  0
116115  2  0
118117  1  0
118119  1  6
121120  1  0
122123  1  0
M  CHG  4  10   1  55   1  85  -1 109   1
M  END
$$$$
