
     RDKit          3D

125134  0  0  0  0  0  0  0  0999 V2000
  -19.7097  -17.7817  -36.7285 N   0  0  0  0  0  0  0  0  0  0  0  0
  -19.3269  -16.7837  -35.6897 C   0  0  2  0  0  0  0  0  0  0  0  0
  -17.8652  -16.7458  -35.7712 C   0  0  0  0  0  0  0  0  0  0  0  0
  -17.5044  -16.1923  -36.9382 O   0  0  0  0  0  0  0  0  0  0  0  0
  -20.0271  -17.2131  -34.4666 C   0  0  0  0  0  0  0  0  0  0  0  0
  -19.2614  -17.4086  -33.2363 C   0  0  0  0  0  0  0  0  0  0  0  0
  -17.8418  -17.0132  -33.1236 C   0  0  0  0  0  0  0  0  0  0  0  0
  -17.1337  -16.5746  -34.2654 N   0  0  0  0  0  0  0  0  0  0  0  0
  -15.7472  -16.2709  -34.3385 C   0  0  0  0  0  0  0  0  0  0  0  0
  -15.0262  -16.5074  -35.3170 N   0  0  0  0  0  4  0  0  0  0  0  0
  -15.1113  -15.6370  -33.1925 N   0  0  0  0  0  0  0  0  0  0  0  0
  -16.7978  -17.1182  -35.0003 N   0  0  0  0  0  0  0  0  0  0  0  0
  -16.0968  -16.5246  -33.8775 C   0  0  2  0  0  0  0  0  0  0  0  0
  -14.9167  -15.7190  -34.2513 C   0  0  0  0  0  0  0  0  0  0  0  0
  -14.2585  -15.2976  -33.2189 O   0  0  0  0  0  0  0  0  0  0  0  0
  -15.7801  -17.5178  -32.8301 C   0  0  0  0  0  0  0  0  0  0  0  0
  -14.6579  -18.4671  -33.0411 C   0  0  1  0  0  0  0  0  0  0  0  0
  -14.6088  -19.1160  -34.3900 C   0  0  0  0  0  0  0  0  0  0  0  0
  -13.3646  -17.5798  -32.9690 C   0  0  0  0  0  0  0  0  0  0  0  0
  -14.3994  -15.3347  -35.4677 N   0  0  0  0  0  0  0  0  0  0  0  0
  -13.5682  -15.9205  -36.4765 C   0  0  2  0  0  0  0  0  0  0  0  0
  -12.9843  -17.2350  -36.2217 C   0  0  0  0  0  0  0  0  0  0  0  0
  -13.4028  -17.7742  -35.1040 O   0  0  0  0  0  0  0  0  0  0  0  0
  -12.4679  -14.8860  -36.8586 C   0  0  0  0  0  0  0  0  0  0  0  0
  -11.6371  -14.7504  -35.6273 C   0  0  0  0  0  0  0  0  0  0  0  0
  -11.1476  -13.5663  -35.1512 C   0  0  0  0  0  0  0  0  0  0  0  0
  -11.3225  -15.8829  -34.8653 C   0  0  0  0  0  0  0  0  0  0  0  0
  -10.3861  -13.5015  -33.9828 C   0  0  0  0  0  0  0  0  0  0  0  0
  -10.5745  -15.8382  -33.7142 C   0  0  0  0  0  0  0  0  0  0  0  0
  -10.0970  -14.6292  -33.2613 C   0  0  0  0  0  0  0  0  0  0  0  0
   -9.3316  -14.5462  -32.0925 O   0  0  0  0  0  0  0  0  0  0  0  0
  -12.0832  -18.0007  -36.9292 N   0  0  0  0  0  0  0  0  0  0  0  0
  -11.9585  -18.5558  -38.2267 C   0  0  0  0  0  0  0  0  0  0  0  0
  -12.0320  -17.7240  -39.4172 C   0  0  0  0  0  0  0  0  0  0  0  0
  -12.9798  -16.8492  -39.3778 O   0  0  0  0  0  0  0  0  0  0  0  0
  -11.2916  -17.6803  -40.6006 N   0  0  0  0  0  0  0  0  0  0  0  0
  -10.0569  -17.1456  -41.0474 C   0  0  2  0  0  0  0  0  0  0  0  0
   -9.4450  -18.2078  -41.9494 C   0  0  0  0  0  0  0  0  0  0  0  0
   -9.0469  -19.2376  -41.3627 O   0  0  0  0  0  0  0  0  0  0  0  0
   -9.0793  -16.5424  -40.1535 C   0  0  0  0  0  0  0  0  0  0  0  0
   -8.1755  -17.3859  -39.3502 C   0  0  0  0  0  0  0  0  0  0  0  0
   -6.9776  -16.9278  -38.8433 C   0  0  0  0  0  0  0  0  0  0  0  0
   -8.5284  -18.6945  -39.0189 C   0  0  0  0  0  0  0  0  0  0  0  0
   -6.1752  -17.7214  -38.0538 C   0  0  0  0  0  0  0  0  0  0  0  0
   -7.7314  -19.4816  -38.2348 C   0  0  0  0  0  0  0  0  0  0  0  0
   -6.5316  -18.9999  -37.7366 C   0  0  0  0  0  0  0  0  0  0  0  0
   -9.3129  -18.0944  -43.3488 N   0  0  0  0  0  0  0  0  0  0  0  0
   -9.5752  -16.8963  -44.1293 C   0  0  2  0  0  0  0  0  0  0  0  0
   -9.7784  -17.3204  -45.5672 C   0  0  0  0  0  0  0  0  0  0  0  0
   -9.6712  -18.6063  -45.7447 O   0  0  0  0  0  0  0  0  0  0  0  0
   -8.4386  -15.9143  -44.1691 C   0  0  0  0  0  0  0  0  0  0  0  0
   -8.0132  -15.2958  -42.9043 C   0  0  0  0  0  0  0  0  0  0  0  0
   -8.6932  -15.6286  -41.6420 C   0  0  0  0  0  0  0  0  0  0  0  0
   -9.7481  -16.7308  -41.8292 C   0  0  0  0  0  0  0  0  0  0  0  0
   -9.7250  -17.5018  -40.6147 N   0  0  0  0  0  4  0  0  0  0  0  0
  -10.0566  -16.5356  -46.6874 N   0  0  0  0  0  0  0  0  0  0  0  0
  -11.2655  -15.7757  -46.9773 C   0  0  2  0  0  0  0  0  0  0  0  0
  -12.0197  -16.5925  -48.0139 C   0  0  0  0  0  0  0  0  0  0  0  0
  -11.6624  -17.8362  -48.0978 O   0  0  0  0  0  0  0  0  0  0  0  0
  -10.8922  -14.4566  -47.5799 C   0  0  0  0  0  0  0  0  0  0  0  0
   -9.5004  -14.1494  -47.8107 C   0  0  0  0  0  0  0  0  0  0  0  0
   -8.4187  -14.7279  -47.1778 C   0  0  0  0  0  0  0  0  0  0  0  0
   -8.9549  -13.2518  -48.7219 C   0  0  0  0  0  0  0  0  0  0  0  0
   -7.2631  -14.2130  -47.6754 N   0  0  0  0  0  0  0  0  0  0  0  0
   -7.5650  -13.3125  -48.6152 C   0  0  0  0  0  0  0  0  0  0  0  0
   -9.4715  -12.3666  -49.6380 C   0  0  0  0  0  0  0  0  0  0  0  0
   -6.7526  -12.5159  -49.4023 C   0  0  0  0  0  0  0  0  0  0  0  0
   -8.6512  -11.5755  -50.4186 C   0  0  0  0  0  0  0  0  0  0  0  0
   -7.2807  -11.6396  -50.3129 C   0  0  0  0  0  0  0  0  0  0  0  0
  -13.0202  -16.1964  -48.8754 N   0  0  0  0  0  0  0  0  0  0  0  0
  -14.3950  -15.8122  -48.6563 C   0  0  2  0  0  0  0  0  0  0  0  0
  -15.2646  -16.6569  -49.5704 C   0  0  0  0  0  0  0  0  0  0  0  0
  -14.5661  -17.4780  -50.4465 O   0  0  0  0  0  0  0  0  0  0  0  0
  -14.5469  -14.3410  -49.0089 C   0  0  0  0  0  0  0  0  0  0  0  0
  -13.9330  -13.9851  -50.3046 C   0  0  0  0  0  0  0  0  0  0  0  0
  -13.2034  -14.7374  -51.1477 N   0  0  0  0  0  0  0  0  0  0  0  0
  -14.0026  -12.7478  -50.9218 C   0  0  0  0  0  0  0  0  0  0  0  0
  -12.8424  -14.0161  -52.2204 C   0  0  0  0  0  0  0  0  0  0  0  0
  -13.3381  -12.7748  -52.0857 N   0  0  0  0  0  0  0  0  0  0  0  0
  -16.3228  -15.9346  -50.1470 O   0  0  0  0  0  0  0  0  0  0  0  0
  -21.1957  -17.8146  -35.3107 C   0  0  0  0  0  0  0  0  0  0  0  0
  -21.6272  -15.2198  -40.0231 N   0  0  0  0  0  0  0  0  0  0  0  0
  -22.3903  -17.9102  -36.1362 C   0  0  0  0  0  0  0  0  0  0  0  0
  -21.4879  -15.4339  -38.5838 C   0  0  0  0  0  0  0  0  0  0  0  0
  -22.8110  -11.3856  -45.4703 O   0  0  0  0  0  1  0  0  0  0  0  0
  -21.5640  -16.9245  -38.3274 C   0  0  2  0  0  0  0  0  0  0  0  0
  -21.4530  -13.4405  -45.5630 C   0  0  0  0  0  0  0  0  0  0  0  0
  -20.8891  -14.4185  -46.3340 C   0  0  0  0  0  0  0  0  0  0  0  0
  -20.4392  -15.6661  -45.8255 C   0  0  0  0  0  0  0  0  0  0  0  0
  -20.5721  -15.9148  -44.4794 C   0  0  0  0  0  0  0  0  0  0  0  0
  -22.7454  -14.6737  -41.7479 N   0  0  0  0  0  0  0  0  0  0  0  0
  -21.5582  -13.7504  -44.2401 C   0  0  0  0  0  0  0  0  0  0  0  0
  -21.1328  -14.9749  -43.6502 C   0  0  0  0  0  0  0  0  0  0  0  0
  -21.4535  -15.0279  -42.1922 C   0  0  0  0  0  0  0  0  0  0  0  0
  -19.5457  -17.8827  -39.0006 O   0  0  0  0  0  0  0  0  0  0  0  0
  -22.6243  -17.2924  -37.3949 N   0  0  0  0  0  0  0  0  0  0  0  0
  -20.2607  -19.4996  -33.8231 C   0  0  0  0  0  0  0  0  0  0  0  0
  -21.4750  -11.8107  -47.2247 O   0  0  0  0  0  0  0  0  0  0  0  0
  -20.7924  -15.3645  -41.0424 C   0  0  0  0  0  0  0  0  0  0  0  0
  -17.1852  -26.1589  -51.9590 O   0  0  0  0  0  0  0  0  0  0  0  0
  -17.4212  -21.4838  -53.6688 O   0  0  0  0  0  0  0  0  0  0  0  0
  -17.4225  -17.0505  -51.6926 O   0  0  0  0  0  0  0  0  0  0  0  0
  -21.2203  -18.4758  -34.0536 N   0  0  0  0  0  0  0  0  0  0  0  0
  -19.1401  -19.7333  -34.7730 C   0  0  0  0  0  0  0  0  0  0  0  0
  -20.3208  -20.2501  -32.8125 O   0  0  0  0  0  0  0  0  0  0  0  0
  -23.3494  -18.6261  -35.7037 O   0  0  0  0  0  0  0  0  0  0  0  0
  -22.8299  -14.7910  -40.4926 N   0  0  0  0  0  0  0  0  0  0  0  0
  -18.9606  -17.9144  -48.3248 N   0  0  0  0  0  0  0  0  0  0  0  0
  -16.5188  -16.9863  -49.1925 N   0  0  1  0  0  4  0  0  0  0  0  0
  -17.2343  -19.3160  -52.0130 N   0  0  0  0  0  0  0  0  0  0  0  0
  -16.8789  -23.0901  -52.1519 N   0  0  0  0  0  0  0  0  0  0  0  0
  -15.0680  -25.7872  -52.7632 N   0  0  0  0  0  0  0  0  0  0  0  0
  -20.1228  -17.4869  -48.8845 N   0  0  0  0  0  0  0  0  0  0  0  0
  -20.7114  -16.6954  -48.1125 N   0  0  0  0  0  0  0  0  0  0  0  0
  -19.9395  -16.5454  -46.9349 C   0  0  0  0  0  0  0  0  0  0  0  0
  -18.8417  -17.3411  -47.1350 C   0  0  0  0  0  0  0  0  0  0  0  0
  -18.1267  -18.8758  -49.0517 C   0  0  0  0  0  0  0  0  0  0  0  0
  -16.9343  -18.2549  -49.7169 C   0  0  1  0  0  0  0  0  0  0  0  0
  -17.2111  -18.1531  -51.1734 C   0  0  0  0  0  0  0  0  0  0  0  0
  -17.2346  -20.6443  -51.4586 C   0  0  0  0  0  0  0  0  0  0  0  0
  -17.1814  -21.7322  -52.4364 C   0  0  0  0  0  0  0  0  0  0  0  0
  -16.9240  -24.1153  -53.1921 C   0  0  0  0  0  0  0  0  0  0  0  0
  -16.4375  -25.3819  -52.6103 C   0  0  0  0  0  0  0  0  0  0  0  0
  -21.9056  -12.1858  -46.1272 C   0  0  0  0  0  0  0  0  0  0  0  0
  -20.2576  -17.5348  -37.9840 C   0  0  0  0  0  0  0  0  0  0  0  0
  1  2  1  0
125  1  1  0
  2  3  1  0
  2  5  1  1
  3  4  2  0
  3 12  1  0
  5  6  1  0
  6  7  1  0
  7  8  1  0
  8  9  1  0
  9 10  2  0
  9 11  1  0
 12 13  1  0
 13 14  1  0
 13 16  1  1
 14 15  2  0
 14 20  1  0
 16 17  1  0
 17 18  1  6
 17 19  1  0
 21 20  1  0
 22 21  1  0
 21 24  1  1
 22 23  2  0
 32 22  1  0
 24 25  1  0
 25 26  2  0
 25 27  1  0
 26 28  1  0
 27 29  2  0
 28 30  2  0
 29 30  1  0
 30 31  1  0
 33 32  1  0
 34 33  1  0
 34 35  2  0
 36 34  1  0
 37 36  1  0
 38 37  1  0
 37 40  1  1
 38 39  2  0
 47 38  1  0
 40 41  1  0
 41 42  2  0
 41 43  1  0
 42 44  1  0
 43 45  2  0
 44 46  2  0
 45 46  1  0
 48 47  1  0
 49 48  1  0
 48 51  1  6
 49 50  2  0
 56 49  1  0
 51 52  1  0
 52 53  1  0
 53 54  1  0
 54 55  1  0
 57 56  1  0
 58 57  1  0
 57 60  1  6
 58 59  2  0
 70 58  1  0
 60 61  1  0
 61 62  2  0
 61 63  1  0
 62 64  1  0
 63 65  2  0
 63 66  1  0
 65 64  1  0
 65 67  1  0
 66 68  2  0
 67 69  2  0
 68 69  1  0
 71 70  1  0
 72 71  1  0
 71 74  1  6
 72 73  1  0
 80 72  1  0
109 72  1  0
 74 75  1  0
 75 76  1  0
 75 77  2  0
 76 78  2  0
 77 79  1  0
 79 78  1  0
109 80  1  6
 83 81  1  0
 81103  1  0
 82 84  1  0
 99 82  1  0
 82107  1  0
 96 83  1  0
 83106  2  0
 84 86  1  0
124 85  1  0
 86 96  1  1
 86125  1  0
 88 87  1  0
 87 92  2  0
 87124  1  0
 89 88  2  0
 89 90  1  0
115 89  1  0
 90 93  2  0
 94 91  1  0
 91107  2  0
 93 92  1  0
 93 94  1  0
 94 99  2  0
125 95  2  0
103 97  1  0
 97104  1  0
 97105  2  0
124 98  2  0
123100  2  0
121101  2  0
119102  2  0
108113  1  0
108116  1  0
117108  1  0
118109  1  0
110119  1  0
120110  1  0
111121  1  0
122111  1  0
123112  1  0
113114  2  0
115114  1  0
116115  2  0
118117  1  0
118119  1  6
121120  1  0
122123  1  0
M  CHG  4  10   1  55   1  85  -1 109   1
M  END
$$$$
