
     RDKit          3D

125134  0  0  0  0  0  0  0  0999 V2000
  -11.5582  -19.1554  -47.7629 N   0  0  0  0  0  0  0  0  0  0  0  0
  -12.0343  -18.2050  -48.8077 C   0  0  2  0  0  0  0  0  0  0  0  0
  -13.4726  -18.1045  -48.5516 C   0  0  0  0  0  0  0  0  0  0  0  0
  -13.6681  -17.4702  -47.3862 O   0  0  0  0  0  0  0  0  0  0  0  0
  -11.5052  -18.7324  -50.0777 C   0  0  0  0  0  0  0  0  0  0  0  0
  -12.0957  -18.2850  -51.3383 C   0  0  0  0  0  0  0  0  0  0  0  0
  -12.5578  -16.8956  -51.5397 C   0  0  0  0  0  0  0  0  0  0  0  0
  -12.3024  -15.9124  -50.5571 N   0  0  0  0  0  0  0  0  0  0  0  0
  -12.6173  -14.5290  -50.6398 C   0  0  0  0  0  0  0  0  0  0  0  0
  -13.0527  -13.9663  -51.6532 N   0  0  0  0  0  4  0  0  0  0  0  0
  -12.4210  -13.6981  -49.4606 N   0  0  0  0  0  0  0  0  0  0  0  0
  -14.6387  -18.4782  -49.1620 N   0  0  0  0  0  0  0  0  0  0  0  0
  -15.4538  -17.9235  -50.2261 C   0  0  2  0  0  0  0  0  0  0  0  0
  -16.5519  -17.0512  -49.7626 C   0  0  0  0  0  0  0  0  0  0  0  0
  -17.3189  -16.6647  -50.7316 O   0  0  0  0  0  0  0  0  0  0  0  0
  -15.9297  -18.9624  -51.1631 C   0  0  0  0  0  0  0  0  0  0  0  0
  -15.8669  -20.3906  -50.7611 C   0  0  1  0  0  0  0  0  0  0  0  0
  -14.5144  -20.8840  -50.3482 C   0  0  0  0  0  0  0  0  0  0  0  0
  -16.7463  -20.4799  -49.4634 C   0  0  0  0  0  0  0  0  0  0  0  0
  -16.9018  -16.5767  -48.5187 N   0  0  0  0  0  0  0  0  0  0  0  0
  -17.6202  -17.0694  -47.3817 C   0  0  2  0  0  0  0  0  0  0  0  0
  -18.2734  -18.3722  -47.4809 C   0  0  0  0  0  0  0  0  0  0  0  0
  -18.0142  -18.9916  -48.6052 O   0  0  0  0  0  0  0  0  0  0  0  0
  -18.6307  -15.9715  -46.9340 C   0  0  0  0  0  0  0  0  0  0  0  0
  -18.8429  -16.2277  -45.4799 C   0  0  0  0  0  0  0  0  0  0  0  0
  -18.6060  -15.3143  -44.4911 C   0  0  0  0  0  0  0  0  0  0  0  0
  -19.3303  -17.4687  -45.0503 C   0  0  0  0  0  0  0  0  0  0  0  0
  -18.8378  -15.6090  -43.1463 C   0  0  0  0  0  0  0  0  0  0  0  0
  -19.5635  -17.7764  -43.7322 C   0  0  0  0  0  0  0  0  0  0  0  0
  -19.3153  -16.8334  -42.7607 C   0  0  0  0  0  0  0  0  0  0  0  0
  -19.5414  -17.1123  -41.4079 O   0  0  0  0  0  0  0  0  0  0  0  0
  -19.1042  -19.0590  -46.6225 N   0  0  0  0  0  0  0  0  0  0  0  0
  -19.0851  -19.5324  -45.2873 C   0  0  0  0  0  0  0  0  0  0  0  0
  -18.8379  -18.6365  -44.1690 C   0  0  0  0  0  0  0  0  0  0  0  0
  -17.8745  -17.8038  -44.3780 O   0  0  0  0  0  0  0  0  0  0  0  0
  -19.4243  -18.4947  -42.9094 N   0  0  0  0  0  0  0  0  0  0  0  0
  -20.5762  -17.8862  -42.3500 C   0  0  2  0  0  0  0  0  0  0  0  0
  -21.1057  -18.8692  -41.3156 C   0  0  0  0  0  0  0  0  0  0  0  0
  -21.6064  -19.9146  -41.7839 O   0  0  0  0  0  0  0  0  0  0  0  0
  -21.6369  -17.2976  -43.1543 C   0  0  0  0  0  0  0  0  0  0  0  0
  -22.8901  -18.0345  -43.3994 C   0  0  0  0  0  0  0  0  0  0  0  0
  -23.5589  -17.9936  -44.6048 C   0  0  0  0  0  0  0  0  0  0  0  0
  -23.4338  -18.8629  -42.4172 C   0  0  0  0  0  0  0  0  0  0  0  0
  -24.7013  -18.7311  -44.8238 C   0  0  0  0  0  0  0  0  0  0  0  0
  -24.5677  -19.5950  -42.6356 C   0  0  0  0  0  0  0  0  0  0  0  0
  -25.2231  -19.5380  -43.8550 C   0  0  0  0  0  0  0  0  0  0  0  0
  -21.0597  -18.6694  -39.9204 N   0  0  0  0  0  0  0  0  0  0  0  0
  -20.6641  -17.4395  -39.2540 C   0  0  2  0  0  0  0  0  0  0  0  0
  -20.2983  -17.7870  -37.8278 C   0  0  0  0  0  0  0  0  0  0  0  0
  -20.4242  -19.0551  -37.5586 O   0  0  0  0  0  0  0  0  0  0  0  0
  -21.7547  -16.4124  -39.1377 C   0  0  0  0  0  0  0  0  0  0  0  0
  -22.7652  -16.5915  -38.0841 C   0  0  0  0  0  0  0  0  0  0  0  0
  -22.3612  -16.7411  -36.6767 C   0  0  0  0  0  0  0  0  0  0  0  0
  -20.8384  -16.6289  -36.4995 C   0  0  0  0  0  0  0  0  0  0  0  0
  -20.2650  -17.2147  -37.6819 N   0  0  0  0  0  4  0  0  0  0  0  0
  -19.8582  -16.9502  -36.8010 N   0  0  0  0  0  0  0  0  0  0  0  0
  -18.5988  -16.2234  -36.7085 C   0  0  2  0  0  0  0  0  0  0  0  0
  -17.7488  -17.0079  -35.7224 C   0  0  0  0  0  0  0  0  0  0  0  0
  -18.1330  -18.2294  -35.5179 O   0  0  0  0  0  0  0  0  0  0  0  0
  -18.8518  -14.8577  -36.1486 C   0  0  0  0  0  0  0  0  0  0  0  0
  -17.7336  -13.9973  -35.8419 C   0  0  0  0  0  0  0  0  0  0  0  0
  -17.7983  -12.6608  -35.5027 C   0  0  0  0  0  0  0  0  0  0  0  0
  -16.3833  -14.3243  -35.7877 C   0  0  0  0  0  0  0  0  0  0  0  0
  -16.5490  -12.1876  -35.2506 N   0  0  0  0  0  0  0  0  0  0  0  0
  -15.6723  -13.1818  -35.4188 C   0  0  0  0  0  0  0  0  0  0  0  0
  -15.6523  -15.4653  -36.0194 C   0  0  0  0  0  0  0  0  0  0  0  0
  -14.2948  -13.2075  -35.2919 C   0  0  0  0  0  0  0  0  0  0  0  0
  -14.2772  -15.4797  -35.8903 C   0  0  0  0  0  0  0  0  0  0  0  0
  -13.5791  -14.3520  -35.5237 C   0  0  0  0  0  0  0  0  0  0  0  0
  -16.6371  -16.6025  -35.0154 N   0  0  0  0  0  0  0  0  0  0  0  0
  -15.2883  -16.2867  -35.4237 C   0  0  2  0  0  0  0  0  0  0  0  0
  -14.3399  -17.1108  -34.5712 C   0  0  0  0  0  0  0  0  0  0  0  0
  -14.9508  -17.8511  -33.5670 O   0  0  0  0  0  0  0  0  0  0  0  0
  -15.0465  -14.8047  -35.1849 C   0  0  0  0  0  0  0  0  0  0  0  0
  -13.7527  -14.3311  -35.7179 C   0  0  0  0  0  0  0  0  0  0  0  0
  -13.4765  -13.2600  -36.4830 N   0  0  0  0  0  0  0  0  0  0  0  0
  -12.5229  -14.9334  -35.5143 C   0  0  0  0  0  0  0  0  0  0  0  0
  -12.1605  -13.1985  -36.7389 C   0  0  0  0  0  0  0  0  0  0  0  0
  -11.5603  -14.2389  -36.1372 N   0  0  0  0  0  0  0  0  0  0  0  0
  -13.1957  -16.3989  -34.1739 O   0  0  0  0  0  0  0  0  0  0  0  0
   -8.9550  -16.8562  -49.2035 C   0  0  0  0  0  0  0  0  0  0  0  0
   -9.1656  -16.4848  -44.8927 N   0  0  0  0  0  0  0  0  0  0  0  0
   -8.2348  -17.9913  -48.6461 C   0  0  0  0  0  0  0  0  0  0  0  0
   -9.4890  -16.7764  -46.2882 C   0  0  0  0  0  0  0  0  0  0  0  0
   -8.2941  -12.5957  -37.8226 O   0  0  0  0  0  1  0  0  0  0  0  0
   -9.4934  -18.2813  -46.4582 C   0  0  2  0  0  0  0  0  0  0  0  0
   -8.5948  -14.3812  -39.4950 C   0  0  0  0  0  0  0  0  0  0  0  0
   -9.0902  -15.2895  -38.6015 C   0  0  0  0  0  0  0  0  0  0  0  0
   -9.6397  -16.5457  -38.9724 C   0  0  0  0  0  0  0  0  0  0  0  0
   -9.6827  -16.8773  -40.3064 C   0  0  0  0  0  0  0  0  0  0  0  0
   -7.8254  -15.8843  -43.3544 N   0  0  0  0  0  0  0  0  0  0  0  0
   -8.6643  -14.7713  -40.7989 C   0  0  0  0  0  0  0  0  0  0  0  0
   -9.1989  -16.0102  -41.2549 C   0  0  0  0  0  0  0  0  0  0  0  0
   -9.0631  -16.1605  -42.7349 C   0  0  0  0  0  0  0  0  0  0  0  0
  -11.4428  -19.1178  -45.4858 O   0  0  0  0  0  0  0  0  0  0  0  0
   -8.5692  -18.7445  -47.4879 N   0  0  0  0  0  0  0  0  0  0  0  0
   -7.7450  -15.2454  -50.5701 C   0  0  0  0  0  0  0  0  0  0  0  0
   -7.3043  -12.4741  -39.8348 O   0  0  0  0  0  0  0  0  0  0  0  0
   -9.8720  -16.5367  -43.7724 C   0  0  0  0  0  0  0  0  0  0  0  0
  -12.0912  -25.6210  -30.5808 O   0  0  0  0  0  0  0  0  0  0  0  0
   -9.5317  -21.3777  -31.5022 O   0  0  0  0  0  0  0  0  0  0  0  0
  -12.2604  -17.4657  -32.6054 O   0  0  0  0  0  0  0  0  0  0  0  0
   -8.5618  -16.4069  -50.4925 N   0  0  0  0  0  0  0  0  0  0  0  0
   -7.4823  -14.4066  -49.3700 C   0  0  0  0  0  0  0  0  0  0  0  0
   -7.2157  -14.8776  -51.6530 O   0  0  0  0  0  0  0  0  0  0  0  0
   -7.1816  -18.3743  -49.2492 O   0  0  0  0  0  0  0  0  0  0  0  0
   -7.9008  -16.0776  -44.6007 N   0  0  0  0  0  0  0  0  0  0  0  0
  -10.8693  -18.5845  -36.1761 N   0  0  0  0  0  0  0  0  0  0  0  0
  -13.1535  -17.5112  -35.0775 N   0  0  1  0  0  4  0  0  0  0  0  0
  -11.8137  -19.7020  -32.3410 N   0  0  0  0  0  0  0  0  0  0  0  0
  -10.9093  -23.1643  -31.7944 N   0  0  0  0  0  0  0  0  0  0  0  0
   -9.8761  -26.2172  -30.6552 N   0  0  0  0  0  0  0  0  0  0  0  0
   -9.6335  -18.1717  -35.7898 N   0  0  0  0  0  0  0  0  0  0  0  0
   -9.1198  -17.4505  -36.6757 N   0  0  0  0  0  0  0  0  0  0  0  0
  -10.0263  -17.3385  -37.7577 C   0  0  0  0  0  0  0  0  0  0  0  0
  -11.1160  -18.0770  -37.3761 C   0  0  0  0  0  0  0  0  0  0  0  0
  -11.6373  -19.4681  -35.2944 C   0  0  0  0  0  0  0  0  0  0  0  0
  -12.7175  -18.7627  -34.5293 C   0  0  1  0  0  0  0  0  0  0  0  0
  -12.2593  -18.5875  -33.1265 C   0  0  0  0  0  0  0  0  0  0  0  0
  -11.3484  -20.9176  -32.9556 C   0  0  0  0  0  0  0  0  0  0  0  0
  -10.5875  -21.8114  -32.0812 C   0  0  0  0  0  0  0  0  0  0  0  0
  -10.5527  -23.7785  -30.5174 C   0  0  0  0  0  0  0  0  0  0  0  0
  -10.8997  -25.2119  -30.5842 C   0  0  0  0  0  0  0  0  0  0  0  0
   -8.0355  -13.1149  -39.0696 C   0  0  0  0  0  0  0  0  0  0  0  0
  -10.8513  -18.8581  -46.6013 C   0  0  0  0  0  0  0  0  0  0  0  0
  1  2  1  0
125  1  1  0
  2  3  1  0
  2  5  1  6
  3  4  2  0
  3 12  1  0
  5  6  1  0
  6  7  1  0
  7  8  1  0
  8  9  1  0
  9 10  2  0
  9 11  1  0
 12 13  1  0
 13 14  1  0
 13 16  1  1
 14 15  2  0
 14 20  1  0
 16 17  1  0
 17 18  1  1
 17 19  1  0
 21 20  1  0
 22 21  1  0
 21 24  1  6
 22 23  2  0
 32 22  1  0
 24 25  1  0
 25 26  2  0
 25 27  1  0
 26 28  1  0
 27 29  2  0
 28 30  2  0
 29 30  1  0
 30 31  1  0
 33 32  1  0
 34 33  1  0
 34 35  2  0
 36 34  1  0
 37 36  1  0
 38 37  1  0
 37 40  1  6
 38 39  2  0
 47 38  1  0
 40 41  1  0
 41 42  2  0
 41 43  1  0
 42 44  1  0
 43 45  2  0
 44 46  2  0
 45 46  1  0
 48 47  1  0
 49 48  1  0
 48 51  1  1
 49 50  2  0
 56 49  1  0
 51 52  1  0
 52 53  1  0
 53 54  1  0
 54 55  1  0
 57 56  1  0
 58 57  1  0
 57 60  1  1
 58 59  2  0
 70 58  1  0
 60 61  1  0
 61 62  2  0
 61 63  1  0
 62 64  1  0
 63 65  2  0
 63 66  1  0
 65 64  1  0
 65 67  1  0
 66 68  2  0
 67 69  2  0
 68 69  1  0
 71 70  1  0
 72 71  1  0
 71 74  1  1
 72 73  1  0
 80 72  1  0
109 72  1  0
 74 75  1  0
 75 76  1  0
 75 77  2  0
 76 78  2  0
 77 79  1  0
 79 78  1  0
109 80  1  1
 83 81  1  0
 81103  1  0
 82 84  1  0
 99 82  1  0
 82107  1  0
 96 83  1  0
 83106  2  0
 84 86  1  0
124 85  1  0
 86 96  1  6
 86125  1  0
 88 87  1  0
 87 92  2  0
 87124  1  0
 89 88  2  0
 89 90  1  0
115 89  1  0
 90 93  2  0
 94 91  1  0
 91107  2  0
 93 92  1  0
 93 94  1  0
 94 99  2  0
125 95  2  0
103 97  1  0
 97104  1  0
 97105  2  0
124 98  2  0
123100  2  0
121101  2  0
119102  2  0
108113  1  0
108116  1  0
117108  1  0
118109  1  0
110119  1  0
120110  1  0
111121  1  0
122111  1  0
123112  1  0
113114  2  0
115114  1  0
116115  2  0
118117  1  0
118119  1  1
121120  1  0
122123  1  0
M  CHG  4  10   1  55   1  85  -1 109   1
M  END
$$$$
