
     RDKit          3D

125134  0  0  0  0  0  0  0  0999 V2000
  -12.5005  -18.4300  -48.6759 N   0  0  0  0  0  0  0  0  0  0  0  0
  -11.1221  -18.9958  -48.6364 C   0  0  2  0  0  0  0  0  0  0  0  0
  -10.5794  -18.4917  -47.3731 C   0  0  0  0  0  0  0  0  0  0  0  0
  -11.2264  -19.0746  -46.3532 O   0  0  0  0  0  0  0  0  0  0  0  0
  -10.5238  -18.6434  -49.9360 C   0  0  0  0  0  0  0  0  0  0  0  0
  -10.3064  -17.2351  -50.2640 C   0  0  0  0  0  0  0  0  0  0  0  0
  -10.9512  -16.1433  -49.5046 C   0  0  0  0  0  0  0  0  0  0  0  0
  -10.2912  -14.9042  -49.3430 N   0  0  0  0  0  0  0  0  0  0  0  0
  -10.8913  -13.6619  -49.0015 C   0  0  0  0  0  0  0  0  0  0  0  0
  -10.4235  -12.8554  -48.1867 N   0  0  0  0  0  4  0  0  0  0  0  0
  -12.1446  -13.2936  -49.6442 N   0  0  0  0  0  0  0  0  0  0  0  0
   -9.6198  -17.6061  -46.9646 N   0  0  0  0  0  0  0  0  0  0  0  0
   -8.1796  -17.6690  -46.8017 C   0  0  2  0  0  0  0  0  0  0  0  0
   -7.7343  -18.0221  -45.4385 C   0  0  0  0  0  0  0  0  0  0  0  0
   -6.4475  -17.9621  -45.3076 O   0  0  0  0  0  0  0  0  0  0  0  0
   -7.5080  -16.4533  -47.3062 C   0  0  0  0  0  0  0  0  0  0  0  0
   -8.2407  -15.5424  -48.2219 C   0  0  1  0  0  0  0  0  0  0  0  0
   -9.3576  -16.1708  -48.9970 C   0  0  0  0  0  0  0  0  0  0  0  0
   -8.9373  -14.5003  -47.2764 C   0  0  0  0  0  0  0  0  0  0  0  0
   -8.4174  -18.4016  -44.3052 N   0  0  0  0  0  0  0  0  0  0  0  0
   -9.1312  -17.7440  -43.2517 C   0  0  2  0  0  0  0  0  0  0  0  0
   -9.1303  -16.2837  -43.2150 C   0  0  0  0  0  0  0  0  0  0  0  0
   -8.5437  -15.7449  -44.2544 O   0  0  0  0  0  0  0  0  0  0  0  0
   -8.6466  -18.3363  -41.8948 C   0  0  0  0  0  0  0  0  0  0  0  0
   -9.2335  -17.4350  -40.8613 C   0  0  0  0  0  0  0  0  0  0  0  0
   -8.9743  -17.5221  -39.5220 C   0  0  0  0  0  0  0  0  0  0  0  0
  -10.1036  -16.4051  -41.2414 C   0  0  0  0  0  0  0  0  0  0  0  0
   -9.5441  -16.6386  -38.6034 C   0  0  0  0  0  0  0  0  0  0  0  0
  -10.6738  -15.5275  -40.3519 C   0  0  0  0  0  0  0  0  0  0  0  0
  -10.3914  -15.6421  -39.0096 C   0  0  0  0  0  0  0  0  0  0  0  0
  -10.9544  -14.7655  -38.0750 O   0  0  0  0  0  0  0  0  0  0  0  0
   -9.6231  -15.3804  -42.2984 N   0  0  0  0  0  0  0  0  0  0  0  0
  -10.8595  -15.0722  -41.6790 C   0  0  0  0  0  0  0  0  0  0  0  0
  -11.6081  -16.0761  -40.9401 C   0  0  0  0  0  0  0  0  0  0  0  0
  -11.6611  -17.2208  -41.5336 O   0  0  0  0  0  0  0  0  0  0  0  0
  -12.2894  -16.0562  -39.7211 N   0  0  0  0  0  0  0  0  0  0  0  0
  -11.9768  -16.1567  -38.3419 C   0  0  2  0  0  0  0  0  0  0  0  0
  -12.8546  -15.1304  -37.6400 C   0  0  0  0  0  0  0  0  0  0  0  0
  -12.5513  -13.9366  -37.8547 O   0  0  0  0  0  0  0  0  0  0  0  0
  -10.6135  -16.1664  -37.8322 C   0  0  0  0  0  0  0  0  0  0  0  0
  -10.3227  -15.7202  -36.4575 C   0  0  0  0  0  0  0  0  0  0  0  0
   -9.1396  -16.0103  -35.8109 C   0  0  0  0  0  0  0  0  0  0  0  0
  -11.2312  -14.9241  -35.7592 C   0  0  0  0  0  0  0  0  0  0  0  0
   -8.8726  -15.5389  -34.5446 C   0  0  0  0  0  0  0  0  0  0  0  0
  -10.9652  -14.4563  -34.5023 C   0  0  0  0  0  0  0  0  0  0  0  0
   -9.7695  -14.7608  -33.8720 C   0  0  0  0  0  0  0  0  0  0  0  0
  -13.9433  -15.4444  -36.8005 N   0  0  0  0  0  0  0  0  0  0  0  0
  -14.2967  -16.7754  -36.3350 C   0  0  2  0  0  0  0  0  0  0  0  0
  -15.7406  -16.7364  -35.8853 C   0  0  0  0  0  0  0  0  0  0  0  0
  -16.2902  -15.5632  -36.0204 O   0  0  0  0  0  0  0  0  0  0  0  0
  -13.5261  -17.2425  -35.1325 C   0  0  0  0  0  0  0  0  0  0  0  0
  -12.0962  -16.9075  -35.0532 C   0  0  0  0  0  0  0  0  0  0  0  0
  -11.4384  -16.1697  -36.1438 C   0  0  0  0  0  0  0  0  0  0  0  0
  -12.4451  -15.6797  -37.1970 C   0  0  0  0  0  0  0  0  0  0  0  0
  -12.8604  -14.3733  -36.7600 N   0  0  0  0  0  4  0  0  0  0  0  0
  -16.5300  -17.7622  -35.3630 N   0  0  0  0  0  0  0  0  0  0  0  0
  -17.0076  -18.9630  -36.0360 C   0  0  2  0  0  0  0  0  0  0  0  0
  -18.4736  -18.7018  -36.3407 C   0  0  0  0  0  0  0  0  0  0  0  0
  -18.8273  -17.4547  -36.3048 O   0  0  0  0  0  0  0  0  0  0  0  0
  -16.9086  -20.1299  -35.1025 C   0  0  0  0  0  0  0  0  0  0  0  0
  -16.7138  -19.8960  -33.6911 C   0  0  0  0  0  0  0  0  0  0  0  0
  -16.4654  -20.8545  -32.7294 C   0  0  0  0  0  0  0  0  0  0  0  0
  -16.6991  -18.6828  -33.0119 C   0  0  0  0  0  0  0  0  0  0  0  0
  -16.3043  -20.2610  -31.5170 N   0  0  0  0  0  0  0  0  0  0  0  0
  -16.4433  -18.9403  -31.6647 C   0  0  0  0  0  0  0  0  0  0  0  0
  -16.8846  -17.3688  -33.3709 C   0  0  0  0  0  0  0  0  0  0  0  0
  -16.3782  -17.9126  -30.7407 C   0  0  0  0  0  0  0  0  0  0  0  0
  -16.8180  -16.3505  -32.4401 C   0  0  0  0  0  0  0  0  0  0  0  0
  -16.5629  -16.6074  -31.1126 C   0  0  0  0  0  0  0  0  0  0  0  0
  -19.4743  -19.6006  -36.6424 N   0  0  0  0  0  0  0  0  0  0  0  0
  -19.7196  -20.4286  -37.7999 C   0  0  2  0  0  0  0  0  0  0  0  0
  -21.1391  -20.1629  -38.2687 C   0  0  0  0  0  0  0  0  0  0  0  0
  -21.8763  -19.3175  -37.4492 O   0  0  0  0  0  0  0  0  0  0  0  0
  -19.5721  -21.8855  -37.3908 C   0  0  0  0  0  0  0  0  0  0  0  0
  -20.0964  -22.1680  -36.0389 C   0  0  0  0  0  0  0  0  0  0  0  0
  -20.9667  -23.1093  -35.6319 N   0  0  0  0  0  0  0  0  0  0  0  0
  -19.7684  -21.4812  -34.8824 C   0  0  0  0  0  0  0  0  0  0  0  0
  -21.1673  -23.0155  -34.3082 C   0  0  0  0  0  0  0  0  0  0  0  0
  -20.4226  -22.0025  -33.8349 N   0  0  0  0  0  0  0  0  0  0  0  0
  -21.8101  -21.3260  -38.6817 O   0  0  0  0  0  0  0  0  0  0  0  0
  -12.2267  -18.3202  -50.7808 C   0  0  0  0  0  0  0  0  0  0  0  0
  -15.1845  -22.0936  -47.9905 N   0  0  0  0  0  0  0  0  0  0  0  0
  -12.9261  -19.5193  -51.2174 C   0  0  0  0  0  0  0  0  0  0  0  0
  -13.9856  -21.5780  -48.6492 C   0  0  0  0  0  0  0  0  0  0  0  0
  -18.4524  -27.0278  -44.7318 O   0  0  0  0  0  1  0  0  0  0  0  0
  -14.3144  -20.2077  -49.2040 C   0  0  2  0  0  0  0  0  0  0  0  0
  -19.1784  -24.6744  -44.6328 C   0  0  0  0  0  0  0  0  0  0  0  0
  -19.9361  -23.7182  -44.0161 C   0  0  0  0  0  0  0  0  0  0  0  0
  -19.7528  -22.3219  -44.2015 C   0  0  0  0  0  0  0  0  0  0  0  0
  -18.7561  -21.8956  -45.0478 C   0  0  0  0  0  0  0  0  0  0  0  0
  -16.9106  -23.3340  -47.9202 N   0  0  0  0  0  0  0  0  0  0  0  0
  -18.2111  -24.1864  -45.4595 C   0  0  0  0  0  0  0  0  0  0  0  0
  -17.9611  -22.8052  -45.7005 C   0  0  0  0  0  0  0  0  0  0  0  0
  -16.8791  -22.6064  -46.7112 C   0  0  0  0  0  0  0  0  0  0  0  0
  -14.3873  -18.7004  -47.4242 O   0  0  0  0  0  0  0  0  0  0  0  0
  -14.0879  -20.1019  -50.6416 N   0  0  0  0  0  0  0  0  0  0  0  0
  -10.8398  -17.7449  -52.6971 C   0  0  0  0  0  0  0  0  0  0  0  0
  -20.4822  -26.4758  -43.9451 O   0  0  0  0  0  0  0  0  0  0  0  0
  -15.7535  -21.8364  -46.8213 C   0  0  0  0  0  0  0  0  0  0  0  0
  -27.1670  -13.2819  -43.2051 O   0  0  0  0  0  0  0  0  0  0  0  0
  -27.0066  -17.4355  -40.2577 O   0  0  0  0  0  0  0  0  0  0  0  0
  -23.9605  -21.0272  -39.1220 O   0  0  0  0  0  0  0  0  0  0  0  0
  -10.9330  -18.0899  -51.3208 N   0  0  0  0  0  0  0  0  0  0  0  0
   -9.5584  -17.2749  -53.2886 C   0  0  0  0  0  0  0  0  0  0  0  0
  -11.8337  -17.8186  -53.4685 O   0  0  0  0  0  0  0  0  0  0  0  0
  -12.4647  -20.1339  -52.2318 O   0  0  0  0  0  0  0  0  0  0  0  0
  -15.9255  -23.0253  -48.6488 N   0  0  0  0  0  0  0  0  0  0  0  0
  -22.0339  -20.1903  -42.2676 N   0  0  0  0  0  0  0  0  0  0  0  0
  -21.4470  -20.2687  -39.5795 N   0  0  1  0  0  4  0  0  0  0  0  0
  -24.9145  -18.9458  -39.2894 N   0  0  0  0  0  0  0  0  0  0  0  0
  -25.7680  -15.6418  -40.9089 N   0  0  0  0  0  0  0  0  0  0  0  0
  -25.0134  -13.6140  -42.4845 N   0  0  0  0  0  0  0  0  0  0  0  0
  -22.8351  -21.1226  -42.8473 N   0  0  0  0  0  0  0  0  0  0  0  0
  -22.1509  -21.9188  -43.5305 N   0  0  0  0  0  0  0  0  0  0  0  0
  -20.7885  -21.5427  -43.4442 C   0  0  0  0  0  0  0  0  0  0  0  0
  -20.7826  -20.4429  -42.6264 C   0  0  0  0  0  0  0  0  0  0  0  0
  -22.6382  -19.1387  -41.4447 C   0  0  0  0  0  0  0  0  0  0  0  0
  -22.4976  -19.3740  -39.9701 C   0  0  1  0  0  0  0  0  0  0  0  0
  -23.8060  -19.8430  -39.4442 C   0  0  0  0  0  0  0  0  0  0  0  0
  -24.7669  -17.5271  -39.4833 C   0  0  0  0  0  0  0  0  0  0  0  0
  -25.8557  -16.8772  -40.2143 C   0  0  0  0  0  0  0  0  0  0  0  0
  -26.8863  -15.1297  -41.6978 C   0  0  0  0  0  0  0  0  0  0  0  0
  -26.4016  -13.9831  -42.4914 C   0  0  0  0  0  0  0  0  0  0  0  0
  -19.4074  -26.0885  -44.4199 C   0  0  0  0  0  0  0  0  0  0  0  0
  -13.7000  -19.0957  -48.4406 C   0  0  0  0  0  0  0  0  0  0  0  0
  1  2  1  0
125  1  1  0
  2  3  1  0
  2  5  1  6
  3  4  2  0
  3 12  1  0
  5  6  1  0
  6  7  1  0
  7  8  1  0
  8  9  1  0
  9 10  2  0
  9 11  1  0
 12 13  1  0
 13 14  1  0
 13 16  1  1
 14 15  2  0
 14 20  1  0
 16 17  1  0
 17 18  1  1
 17 19  1  0
 21 20  1  0
 22 21  1  0
 21 24  1  1
 22 23  2  0
 32 22  1  0
 24 25  1  0
 25 26  2  0
 25 27  1  0
 26 28  1  0
 27 29  2  0
 28 30  2  0
 29 30  1  0
 30 31  1  0
 33 32  1  0
 34 33  1  0
 34 35  2  0
 36 34  1  0
 37 36  1  0
 38 37  1  0
 37 40  1  6
 38 39  2  0
 47 38  1  0
 40 41  1  0
 41 42  2  0
 41 43  1  0
 42 44  1  0
 43 45  2  0
 44 46  2  0
 45 46  1  0
 48 47  1  0
 49 48  1  0
 48 51  1  1
 49 50  2  0
 56 49  1  0
 51 52  1  0
 52 53  1  0
 53 54  1  0
 54 55  1  0
 57 56  1  0
 58 57  1  0
 57 60  1  1
 58 59  2  0
 70 58  1  0
 60 61  1  0
 61 62  2  0
 61 63  1  0
 62 64  1  0
 63 65  2  0
 63 66  1  0
 65 64  1  0
 65 67  1  0
 66 68  2  0
 67 69  2  0
 68 69  1  0
 71 70  1  0
 72 71  1  0
 71 74  1  1
 72 73  1  0
 80 72  1  0
109 72  1  0
 74 75  1  0
 75 76  1  0
 75 77  2  0
 76 78  2  0
 77 79  1  0
 79 78  1  0
109 80  1  1
 83 81  1  0
 81103  1  0
 82 84  1  0
 99 82  1  0
 82107  1  0
 96 83  1  0
 83106  2  0
 84 86  1  0
124 85  1  0
 86 96  1  6
 86125  1  0
 88 87  1  0
 87 92  2  0
 87124  1  0
 89 88  2  0
 89 90  1  0
115 89  1  0
 90 93  2  0
 94 91  1  0
 91107  2  0
 93 92  1  0
 93 94  1  0
 94 99  2  0
125 95  2  0
103 97  1  0
 97104  1  0
 97105  2  0
124 98  2  0
123100  2  0
121101  2  0
119102  2  0
108113  1  0
108116  1  0
117108  1  0
118109  1  0
110119  1  0
120110  1  0
111121  1  0
122111  1  0
123112  1  0
113114  2  0
115114  1  0
116115  2  0
118117  1  0
118119  1  6
121120  1  0
122123  1  0
M  CHG  4  10   1  55   1  85  -1 109   1
M  END
$$$$
