
     RDKit          3D

125134  0  0  0  0  0  0  0  0999 V2000
  -11.1472  -16.8287  -47.5147 N   0  0  0  0  0  0  0  0  0  0  0  0
   -9.7756  -17.3549  -47.2627 C   0  0  2  0  0  0  0  0  0  0  0  0
   -9.5171  -16.9879  -45.8688 C   0  0  0  0  0  0  0  0  0  0  0  0
  -10.3197  -17.7056  -45.0693 O   0  0  0  0  0  0  0  0  0  0  0  0
   -8.9541  -16.8345  -48.3695 C   0  0  0  0  0  0  0  0  0  0  0  0
   -9.4537  -15.7133  -49.1642 C   0  0  0  0  0  0  0  0  0  0  0  0
  -10.8375  -15.2114  -49.0310 C   0  0  0  0  0  0  0  0  0  0  0  0
  -11.2893  -14.6922  -47.7966 N   0  0  0  0  0  0  0  0  0  0  0  0
  -12.5535  -14.0962  -47.5392 C   0  0  0  0  0  0  0  0  0  0  0  0
  -12.7334  -13.1220  -46.7963 N   0  0  0  0  0  4  0  0  0  0  0  0
  -13.7322  -14.6558  -48.1850 N   0  0  0  0  0  0  0  0  0  0  0  0
   -8.7030  -16.1291  -45.1818 N   0  0  0  0  0  0  0  0  0  0  0  0
   -7.3211  -16.1690  -44.7420 C   0  0  2  0  0  0  0  0  0  0  0  0
   -7.1330  -16.6674  -43.3645 C   0  0  0  0  0  0  0  0  0  0  0  0
   -5.9014  -16.5859  -42.9731 O   0  0  0  0  0  0  0  0  0  0  0  0
   -6.6278  -14.8833  -44.9653 C   0  0  0  0  0  0  0  0  0  0  0  0
   -5.1479  -14.8248  -44.8573 C   0  0  1  0  0  0  0  0  0  0  0  0
   -4.5507  -15.6385  -43.7508 C   0  0  0  0  0  0  0  0  0  0  0  0
   -4.6238  -15.4892  -46.1798 C   0  0  0  0  0  0  0  0  0  0  0  0
   -8.0037  -17.1975  -42.4394 N   0  0  0  0  0  0  0  0  0  0  0  0
   -8.9427  -16.6898  -41.4843 C   0  0  2  0  0  0  0  0  0  0  0  0
   -9.0247  -15.2447  -41.2879 C   0  0  0  0  0  0  0  0  0  0  0  0
   -8.2751  -14.5702  -42.1234 O   0  0  0  0  0  0  0  0  0  0  0  0
   -8.7025  -17.4238  -40.1313 C   0  0  0  0  0  0  0  0  0  0  0  0
   -9.8942  -17.0813  -39.3022 C   0  0  0  0  0  0  0  0  0  0  0  0
  -10.2746  -15.8076  -38.9839 C   0  0  0  0  0  0  0  0  0  0  0  0
  -10.7187  -18.0988  -38.8053 C   0  0  0  0  0  0  0  0  0  0  0  0
  -11.4105  -15.5495  -38.2143 C   0  0  0  0  0  0  0  0  0  0  0  0
  -11.8392  -17.8638  -38.0464 C   0  0  0  0  0  0  0  0  0  0  0  0
  -12.1951  -16.5690  -37.7442 C   0  0  0  0  0  0  0  0  0  0  0  0
  -13.3301  -16.2924  -36.9734 O   0  0  0  0  0  0  0  0  0  0  0  0
   -9.7333  -14.4705  -40.3949 N   0  0  0  0  0  0  0  0  0  0  0  0
  -11.0811  -14.2735  -40.0053 C   0  0  0  0  0  0  0  0  0  0  0  0
  -11.9066  -15.3789  -39.5459 C   0  0  0  0  0  0  0  0  0  0  0  0
  -11.7832  -16.4467  -40.2601 O   0  0  0  0  0  0  0  0  0  0  0  0
  -12.8130  -15.5228  -38.4932 N   0  0  0  0  0  0  0  0  0  0  0  0
  -12.7711  -15.7761  -37.0989 C   0  0  2  0  0  0  0  0  0  0  0  0
  -13.8211  -14.8657  -36.4784 C   0  0  0  0  0  0  0  0  0  0  0  0
  -13.5441  -13.6466  -36.4956 O   0  0  0  0  0  0  0  0  0  0  0  0
  -11.5350  -15.8063  -36.3310 C   0  0  0  0  0  0  0  0  0  0  0  0
  -10.8254  -14.5568  -36.0012 C   0  0  0  0  0  0  0  0  0  0  0  0
   -9.8258  -14.4916  -35.0532 C   0  0  0  0  0  0  0  0  0  0  0  0
  -11.1064  -13.3749  -36.6874 C   0  0  0  0  0  0  0  0  0  0  0  0
   -9.1444  -13.3218  -34.7996 C   0  0  0  0  0  0  0  0  0  0  0  0
  -10.4291  -12.2142  -36.4352 C   0  0  0  0  0  0  0  0  0  0  0  0
   -9.4285  -12.1723  -35.4778 C   0  0  0  0  0  0  0  0  0  0  0  0
  -15.0351  -15.3080  -35.9133 N   0  0  0  0  0  0  0  0  0  0  0  0
  -15.4031  -16.6943  -35.6770 C   0  0  2  0  0  0  0  0  0  0  0  0
  -16.9071  -16.7505  -35.5237 C   0  0  0  0  0  0  0  0  0  0  0  0
  -17.4798  -15.5861  -35.6363 O   0  0  0  0  0  0  0  0  0  0  0  0
  -14.8591  -17.2775  -34.4034 C   0  0  0  0  0  0  0  0  0  0  0  0
  -13.8679  -18.3593  -34.5050 C   0  0  0  0  0  0  0  0  0  0  0  0
  -13.4109  -18.8351  -35.8207 C   0  0  0  0  0  0  0  0  0  0  0  0
  -14.5735  -18.9840  -36.8151 C   0  0  0  0  0  0  0  0  0  0  0  0
  -15.5806  -19.7453  -36.1250 N   0  0  0  0  0  4  0  0  0  0  0  0
  -17.7290  -17.8533  -35.2858 N   0  0  0  0  0  0  0  0  0  0  0  0
  -18.0030  -18.9797  -36.1685 C   0  0  2  0  0  0  0  0  0  0  0  0
  -19.3928  -18.7270  -36.7298 C   0  0  0  0  0  0  0  0  0  0  0  0
  -19.8109  -17.5036  -36.6285 O   0  0  0  0  0  0  0  0  0  0  0  0
  -18.0280  -20.2451  -35.3681 C   0  0  0  0  0  0  0  0  0  0  0  0
  -18.2133  -20.1775  -33.9378 C   0  0  0  0  0  0  0  0  0  0  0  0
  -18.1606  -21.2371  -33.0547 C   0  0  0  0  0  0  0  0  0  0  0  0
  -18.4451  -19.0552  -33.1503 C   0  0  0  0  0  0  0  0  0  0  0  0
  -18.3495  -20.7897  -31.7850 N   0  0  0  0  0  0  0  0  0  0  0  0
  -18.5256  -19.4656  -31.8191 C   0  0  0  0  0  0  0  0  0  0  0  0
  -18.6119  -17.7137  -33.3999 C   0  0  0  0  0  0  0  0  0  0  0  0
  -18.7599  -18.5554  -30.8038 C   0  0  0  0  0  0  0  0  0  0  0  0
  -18.8459  -16.8136  -32.3787 C   0  0  0  0  0  0  0  0  0  0  0  0
  -18.9221  -17.2210  -31.0666 C   0  0  0  0  0  0  0  0  0  0  0  0
  -20.2673  -19.6125  -37.3223 N   0  0  0  0  0  0  0  0  0  0  0  0
  -20.2384  -20.3050  -38.5894 C   0  0  2  0  0  0  0  0  0  0  0  0
  -21.5508  -20.0272  -39.3005 C   0  0  0  0  0  0  0  0  0  0  0  0
  -22.4767  -19.3062  -38.5572 O   0  0  0  0  0  0  0  0  0  0  0  0
  -20.0983  -21.7952  -38.3216 C   0  0  0  0  0  0  0  0  0  0  0  0
  -20.8553  -22.2489  -37.1370 C   0  0  0  0  0  0  0  0  0  0  0  0
  -21.5618  -23.3776  -36.9466 N   0  0  0  0  0  0  0  0  0  0  0  0
  -20.9803  -21.5605  -35.9423 C   0  0  0  0  0  0  0  0  0  0  0  0
  -22.0918  -23.3917  -35.7137 C   0  0  0  0  0  0  0  0  0  0  0  0
  -21.7324  -22.2617  -35.0823 N   0  0  0  0  0  0  0  0  0  0  0  0
  -22.0670  -21.1524  -39.9647 O   0  0  0  0  0  0  0  0  0  0  0  0
  -10.7204  -20.3817  -50.1576 C   0  0  0  0  0  0  0  0  0  0  0  0
  -13.7197  -20.6238  -47.7868 N   0  0  0  0  0  0  0  0  0  0  0  0
  -11.2990  -19.1276  -50.6159 C   0  0  0  0  0  0  0  0  0  0  0  0
  -12.4436  -19.9996  -48.1317 C   0  0  0  0  0  0  0  0  0  0  0  0
  -17.4459  -25.9830  -46.1932 O   0  0  0  0  0  1  0  0  0  0  0  0
  -12.7283  -18.5836  -48.5871 C   0  0  2  0  0  0  0  0  0  0  0  0
  -18.1533  -23.6976  -45.6002 C   0  0  0  0  0  0  0  0  0  0  0  0
  -19.0654  -22.8432  -45.0462 C   0  0  0  0  0  0  0  0  0  0  0  0
  -18.9221  -21.4301  -45.0367 C   0  0  0  0  0  0  0  0  0  0  0  0
  -17.8028  -20.8781  -45.6145 C   0  0  0  0  0  0  0  0  0  0  0  0
  -15.3596  -21.9135  -48.1999 N   0  0  0  0  0  0  0  0  0  0  0  0
  -17.0697  -23.0877  -46.1579 C   0  0  0  0  0  0  0  0  0  0  0  0
  -16.8495  -21.6810  -46.1908 C   0  0  0  0  0  0  0  0  0  0  0  0
  -15.6027  -21.3330  -46.9365 C   0  0  0  0  0  0  0  0  0  0  0  0
  -13.2255  -17.2994  -46.7032 O   0  0  0  0  0  0  0  0  0  0  0  0
  -12.2311  -18.3023  -49.9297 N   0  0  0  0  0  0  0  0  0  0  0  0
   -8.4394  -20.9022  -50.8301 C   0  0  0  0  0  0  0  0  0  0  0  0
  -19.3379  -25.6210  -45.0389 O   0  0  0  0  0  0  0  0  0  0  0  0
  -14.5187  -20.5231  -46.7340 C   0  0  0  0  0  0  0  0  0  0  0  0
  -23.5892  -13.4102  -40.5600 O   0  0  0  0  0  0  0  0  0  0  0  0
  -23.2695  -17.5318  -39.4313 O   0  0  0  0  0  0  0  0  0  0  0  0
  -24.0925  -20.8428  -40.6554 O   0  0  0  0  0  0  0  0  0  0  0  0
   -9.8370  -21.0523  -51.0452 N   0  0  0  0  0  0  0  0  0  0  0  0
   -7.9114  -19.8997  -49.8662 C   0  0  0  0  0  0  0  0  0  0  0  0
   -7.5939  -21.6050  -51.4461 O   0  0  0  0  0  0  0  0  0  0  0  0
  -10.9428  -18.6978  -51.7596 O   0  0  0  0  0  0  0  0  0  0  0  0
  -14.2685  -21.4926  -48.6783 N   0  0  0  0  0  0  0  0  0  0  0  0
  -21.6445  -19.6086  -43.3759 N   0  0  0  0  0  0  0  0  0  0  0  0
  -21.5908  -19.9865  -40.6500 N   0  0  1  0  0  4  0  0  0  0  0  0
  -25.1238  -18.8343  -41.0710 N   0  0  0  0  0  0  0  0  0  0  0  0
  -24.5383  -15.6622  -39.1665 N   0  0  0  0  0  0  0  0  0  0  0  0
  -23.4414  -12.3078  -38.5524 N   0  0  0  0  0  0  0  0  0  0  0  0
  -22.2676  -20.4888  -44.2030 N   0  0  0  0  0  0  0  0  0  0  0  0
  -21.4227  -21.1787  -44.8188 N   0  0  0  0  0  0  0  0  0  0  0  0
  -20.1248  -20.7760  -44.4209 C   0  0  0  0  0  0  0  0  0  0  0  0
  -20.3358  -19.7807  -43.5027 C   0  0  0  0  0  0  0  0  0  0  0  0
  -22.4516  -18.6794  -42.5801 C   0  0  0  0  0  0  0  0  0  0  0  0
  -22.5898  -19.0829  -41.1421 C   0  0  1  0  0  0  0  0  0  0  0  0
  -23.9496  -19.6484  -40.9433 C   0  0  0  0  0  0  0  0  0  0  0  0
  -25.0574  -17.3991  -40.9839 C   0  0  0  0  0  0  0  0  0  0  0  0
  -24.2802  -16.8741  -39.8602 C   0  0  0  0  0  0  0  0  0  0  0  0
  -23.4521  -14.8410  -38.6366 C   0  0  0  0  0  0  0  0  0  0  0  0
  -23.4992  -13.5275  -39.3090 C   0  0  0  0  0  0  0  0  0  0  0  0
  -18.3459  -25.1329  -45.5940 C   0  0  0  0  0  0  0  0  0  0  0  0
  -12.3334  -17.5520  -47.5987 C   0  0  0  0  0  0  0  0  0  0  0  0
  1  2  1  0
125  1  1  0
  2  3  1  0
  2  5  1  6
  3  4  2  0
  3 12  1  0
  5  6  1  0
  6  7  1  0
  7  8  1  0
  8  9  1  0
  9 10  2  0
  9 11  1  0
 12 13  1  0
 13 14  1  0
 13 16  1  1
 14 15  2  0
 14 20  1  0
 16 17  1  0
 17 18  1  1
 17 19  1  0
 21 20  1  0
 22 21  1  0
 21 24  1  1
 22 23  2  0
 32 22  1  0
 24 25  1  0
 25 26  2  0
 25 27  1  0
 26 28  1  0
 27 29  2  0
 28 30  2  0
 29 30  1  0
 30 31  1  0
 33 32  1  0
 34 33  1  0
 34 35  2  0
 36 34  1  0
 37 36  1  0
 38 37  1  0
 37 40  1  1
 38 39  2  0
 47 38  1  0
 40 41  1  0
 41 42  2  0
 41 43  1  0
 42 44  1  0
 43 45  2  0
 44 46  2  0
 45 46  1  0
 48 47  1  0
 49 48  1  0
 48 51  1  1
 49 50  2  0
 56 49  1  0
 51 52  1  0
 52 53  1  0
 53 54  1  0
 54 55  1  0
 57 56  1  0
 58 57  1  0
 57 60  1  1
 58 59  2  0
 70 58  1  0
 60 61  1  0
 61 62  2  0
 61 63  1  0
 62 64  1  0
 63 65  2  0
 63 66  1  0
 65 64  1  0
 65 67  1  0
 66 68  2  0
 67 69  2  0
 68 69  1  0
 71 70  1  0
 72 71  1  0
 71 74  1  1
 72 73  1  0
 80 72  1  0
109 72  1  0
 74 75  1  0
 75 76  1  0
 75 77  2  0
 76 78  2  0
 77 79  1  0
 79 78  1  0
109 80  1  6
 83 81  1  0
 81103  1  0
 82 84  1  0
 99 82  1  0
 82107  1  0
 96 83  1  0
 83106  2  0
 84 86  1  0
124 85  1  0
 86 96  1  6
 86125  1  0
 88 87  1  0
 87 92  2  0
 87124  1  0
 89 88  2  0
 89 90  1  0
115 89  1  0
 90 93  2  0
 94 91  1  0
 91107  2  0
 93 92  1  0
 93 94  1  0
 94 99  2  0
125 95  2  0
103 97  1  0
 97104  1  0
 97105  2  0
124 98  2  0
123100  2  0
121101  2  0
119102  2  0
108113  1  0
108116  1  0
117108  1  0
118109  1  0
110119  1  0
120110  1  0
111121  1  0
122111  1  0
123112  1  0
113114  2  0
115114  1  0
116115  2  0
118117  1  0
118119  1  6
121120  1  0
122123  1  0
M  CHG  4  10   1  55   1  85  -1 109   1
M  END
$$$$
