
     RDKit          3D

125134  0  0  0  0  0  0  0  0999 V2000
  -21.1271  -21.5276  -38.4983 N   0  0  0  0  0  0  0  0  0  0  0  0
  -21.8991  -20.4537  -37.8110 C   0  0  2  0  0  0  0  0  0  0  0  0
  -20.8765  -19.7209  -37.0615 C   0  0  0  0  0  0  0  0  0  0  0  0
  -20.0753  -19.0786  -37.9240 O   0  0  0  0  0  0  0  0  0  0  0  0
  -23.0093  -21.1491  -37.1367 C   0  0  0  0  0  0  0  0  0  0  0  0
  -22.7354  -22.3758  -36.3896 C   0  0  0  0  0  0  0  0  0  0  0  0
  -21.3592  -22.8096  -36.0697 C   0  0  0  0  0  0  0  0  0  0  0  0
  -20.2809  -21.9053  -36.1992 N   0  0  0  0  0  0  0  0  0  0  0  0
  -18.8972  -22.2167  -36.1077 C   0  0  0  0  0  0  0  0  0  0  0  0
  -18.4454  -23.3274  -35.7988 N   0  0  0  0  0  4  0  0  0  0  0  0
  -17.9270  -21.1696  -36.3935 N   0  0  0  0  0  0  0  0  0  0  0  0
  -20.5250  -19.5250  -35.7537 N   0  0  0  0  0  0  0  0  0  0  0  0
  -20.9930  -18.6523  -34.6936 C   0  0  2  0  0  0  0  0  0  0  0  0
  -20.2447  -17.3849  -34.5712 C   0  0  0  0  0  0  0  0  0  0  0  0
  -20.6214  -16.6850  -33.5489 O   0  0  0  0  0  0  0  0  0  0  0  0
  -21.1039  -19.3572  -33.3996 C   0  0  0  0  0  0  0  0  0  0  0  0
  -20.2184  -20.5167  -33.1228 C   0  0  1  0  0  0  0  0  0  0  0  0
  -20.1487  -21.5466  -34.2079 C   0  0  0  0  0  0  0  0  0  0  0  0
  -18.7735  -19.9072  -33.0466 C   0  0  0  0  0  0  0  0  0  0  0  0
  -19.2457  -16.8168  -35.3290 N   0  0  0  0  0  0  0  0  0  0  0  0
  -17.8236  -16.9465  -35.4412 C   0  0  2  0  0  0  0  0  0  0  0  0
  -17.1265  -17.8163  -34.4973 C   0  0  0  0  0  0  0  0  0  0  0  0
  -17.9397  -18.4744  -33.7094 O   0  0  0  0  0  0  0  0  0  0  0  0
  -17.2053  -15.5166  -35.4433 C   0  0  0  0  0  0  0  0  0  0  0  0
  -16.4743  -15.4224  -34.1466 C   0  0  0  0  0  0  0  0  0  0  0  0
  -16.4157  -16.4231  -33.2173 C   0  0  0  0  0  0  0  0  0  0  0  0
  -15.7730  -14.2546  -33.8201 C   0  0  0  0  0  0  0  0  0  0  0  0
  -15.7020  -16.2801  -32.0260 C   0  0  0  0  0  0  0  0  0  0  0  0
  -15.0663  -14.0959  -32.6531 C   0  0  0  0  0  0  0  0  0  0  0  0
  -15.0268  -15.1237  -31.7383 C   0  0  0  0  0  0  0  0  0  0  0  0
  -14.3168  -14.9970  -30.5388 O   0  0  0  0  0  0  0  0  0  0  0  0
  -15.7883  -18.0661  -34.2831 N   0  0  0  0  0  0  0  0  0  0  0  0
  -14.6655  -18.5117  -35.0232 C   0  0  0  0  0  0  0  0  0  0  0  0
  -14.2405  -17.8339  -36.2375 C   0  0  0  0  0  0  0  0  0  0  0  0
  -15.2161  -17.5201  -37.0217 O   0  0  0  0  0  0  0  0  0  0  0  0
  -12.9913  -17.4571  -36.7354 N   0  0  0  0  0  0  0  0  0  0  0  0
  -12.0621  -16.4022  -36.5510 C   0  0  2  0  0  0  0  0  0  0  0  0
  -10.6866  -17.0537  -36.5530 C   0  0  0  0  0  0  0  0  0  0  0  0
  -10.4311  -17.7582  -35.5523 O   0  0  0  0  0  0  0  0  0  0  0  0
  -12.1992  -15.3918  -35.5125 C   0  0  0  0  0  0  0  0  0  0  0  0
  -11.3873  -14.1617  -35.5499 C   0  0  0  0  0  0  0  0  0  0  0  0
  -10.5200  -13.8685  -36.5813 C   0  0  0  0  0  0  0  0  0  0  0  0
  -11.5057  -13.1987  -34.5473 C   0  0  0  0  0  0  0  0  0  0  0  0
   -9.8103  -12.6886  -36.6165 C   0  0  0  0  0  0  0  0  0  0  0  0
  -10.8010  -12.0275  -34.5833 C   0  0  0  0  0  0  0  0  0  0  0  0
   -9.9349  -11.7544  -35.6297 C   0  0  0  0  0  0  0  0  0  0  0  0
   -9.7314  -16.9105  -37.5806 N   0  0  0  0  0  0  0  0  0  0  0  0
   -9.8301  -15.9961  -38.7064 C   0  0  2  0  0  0  0  0  0  0  0  0
   -8.8836  -16.4858  -39.7801 C   0  0  0  0  0  0  0  0  0  0  0  0
   -8.2371  -17.5652  -39.4431 O   0  0  0  0  0  0  0  0  0  0  0  0
   -9.3905  -14.5900  -38.4105 C   0  0  0  0  0  0  0  0  0  0  0  0
   -8.1096  -14.3970  -37.7138 C   0  0  0  0  0  0  0  0  0  0  0  0
   -7.2118  -15.5371  -37.4676 C   0  0  0  0  0  0  0  0  0  0  0  0
   -7.9827  -16.7939  -37.0329 C   0  0  0  0  0  0  0  0  0  0  0  0
   -7.1314  -17.4646  -36.0867 N   0  0  0  0  0  4  0  0  0  0  0  0
   -8.6251  -15.9464  -41.0412 N   0  0  0  0  0  0  0  0  0  0  0  0
   -9.5220  -15.8632  -42.1865 C   0  0  2  0  0  0  0  0  0  0  0  0
   -9.0659  -16.9561  -43.1394 C   0  0  0  0  0  0  0  0  0  0  0  0
   -8.3269  -17.8773  -42.6038 O   0  0  0  0  0  0  0  0  0  0  0  0
   -9.3515  -14.5353  -42.8573 C   0  0  0  0  0  0  0  0  0  0  0  0
  -10.5079  -13.7018  -43.0871 C   0  0  0  0  0  0  0  0  0  0  0  0
  -10.5693  -12.5969  -43.9123 C   0  0  0  0  0  0  0  0  0  0  0  0
  -11.7903  -13.8442  -42.5691 C   0  0  0  0  0  0  0  0  0  0  0  0
  -11.8284  -12.0842  -43.9041 N   0  0  0  0  0  0  0  0  0  0  0  0
  -12.5879  -12.8263  -43.0931 C   0  0  0  0  0  0  0  0  0  0  0  0
  -12.3907  -14.7185  -41.6945 C   0  0  0  0  0  0  0  0  0  0  0  0
  -13.9220  -12.7128  -42.7443 C   0  0  0  0  0  0  0  0  0  0  0  0
  -13.7233  -14.5957  -41.3526 C   0  0  0  0  0  0  0  0  0  0  0  0
  -14.5080  -13.5924  -41.8732 C   0  0  0  0  0  0  0  0  0  0  0  0
   -9.3222  -17.1004  -44.4861 N   0  0  0  0  0  0  0  0  0  0  0  0
  -10.5262  -17.4194  -45.2171 C   0  0  2  0  0  0  0  0  0  0  0  0
  -10.2172  -18.5904  -46.1328 C   0  0  0  0  0  0  0  0  0  0  0  0
   -8.8863  -18.9882  -46.1435 O   0  0  0  0  0  0  0  0  0  0  0  0
  -10.9253  -16.2062  -46.0422 C   0  0  0  0  0  0  0  0  0  0  0  0
   -9.9537  -15.8784  -47.1055 C   0  0  0  0  0  0  0  0  0  0  0  0
   -8.6216  -16.0605  -47.1411 N   0  0  0  0  0  0  0  0  0  0  0  0
  -10.2529  -15.2955  -48.3252 C   0  0  0  0  0  0  0  0  0  0  0  0
   -8.1233  -15.6205  -48.3070 C   0  0  0  0  0  0  0  0  0  0  0  0
   -9.1356  -15.1428  -49.0499 N   0  0  0  0  0  0  0  0  0  0  0  0
  -10.8133  -18.4720  -47.3994 O   0  0  0  0  0  0  0  0  0  0  0  0
  -24.6432  -20.8845  -39.9410 C   0  0  0  0  0  0  0  0  0  0  0  0
  -21.1972  -20.2454  -42.9081 N   0  0  0  0  0  0  0  0  0  0  0  0
  -23.8920  -22.1308  -39.9365 C   0  0  0  0  0  0  0  0  0  0  0  0
  -21.9596  -20.3462  -41.6649 C   0  0  0  0  0  0  0  0  0  0  0  0
  -19.6826  -17.9937  -49.3822 O   0  0  0  0  0  1  0  0  0  0  0  0
  -21.6446  -21.6871  -41.0353 C   0  0  2  0  0  0  0  0  0  0  0  0
  -18.1257  -18.6786  -47.5983 C   0  0  0  0  0  0  0  0  0  0  0  0
  -16.8975  -19.2773  -47.5545 C   0  0  0  0  0  0  0  0  0  0  0  0
  -16.4787  -20.1492  -46.5143 C   0  0  0  0  0  0  0  0  0  0  0  0
  -17.3515  -20.4121  -45.4845 C   0  0  0  0  0  0  0  0  0  0  0  0
  -21.0268  -20.3266  -45.0265 N   0  0  0  0  0  0  0  0  0  0  0  0
  -18.9430  -18.9824  -46.5509 C   0  0  0  0  0  0  0  0  0  0  0  0
  -18.6017  -19.8446  -45.4699 C   0  0  0  0  0  0  0  0  0  0  0  0
  -19.7433  -20.0243  -44.5233 C   0  0  0  0  0  0  0  0  0  0  0  0
  -19.5083  -21.5697  -40.1038 O   0  0  0  0  0  0  0  0  0  0  0  0
  -22.8307  -22.5051  -40.8050 N   0  0  0  0  0  0  0  0  0  0  0  0
  -26.9070  -20.2486  -39.3109 C   0  0  0  0  0  0  0  0  0  0  0  0
  -17.7847  -16.8545  -49.0032 O   0  0  0  0  0  0  0  0  0  0  0  0
  -19.9234  -19.9865  -43.1675 C   0  0  0  0  0  0  0  0  0  0  0  0
  -14.3921  -20.7837  -52.1454 O   0  0  0  0  0  0  0  0  0  0  0  0
  -10.3063  -19.2409  -50.7309 O   0  0  0  0  0  0  0  0  0  0  0  0
   -8.8010  -20.4200  -48.0668 O   0  0  0  0  0  0  0  0  0  0  0  0
  -26.0412  -20.9696  -40.1784 N   0  0  0  0  0  0  0  0  0  0  0  0
  -27.9532  -20.9439  -38.5141 C   0  0  0  0  0  0  0  0  0  0  0  0
  -26.8278  -18.9972  -39.1842 O   0  0  0  0  0  0  0  0  0  0  0  0
  -24.2008  -23.0015  -39.0611 O   0  0  0  0  0  0  0  0  0  0  0  0
  -21.8551  -20.4524  -44.0807 N   0  0  0  0  0  0  0  0  0  0  0  0
  -13.0615  -21.4482  -46.8645 N   0  0  0  0  0  0  0  0  0  0  0  0
  -11.1881  -19.4754  -46.4463 N   0  0  1  0  0  4  0  0  0  0  0  0
  -10.5621  -21.4312  -49.1376 N   0  0  0  0  0  0  0  0  0  0  0  0
  -12.4619  -19.0721  -51.4382 N   0  0  0  0  0  0  0  0  0  0  0  0
  -16.1403  -19.3501  -51.7506 N   0  0  0  0  0  0  0  0  0  0  0  0
  -13.6333  -21.6382  -48.0826 N   0  0  0  0  0  0  0  0  0  0  0  0
  -14.8122  -21.2150  -48.0797 N   0  0  0  0  0  0  0  0  0  0  0  0
  -15.1096  -20.6967  -46.7960 C   0  0  0  0  0  0  0  0  0  0  0  0
  -13.9572  -20.8714  -46.0750 C   0  0  0  0  0  0  0  0  0  0  0  0
  -11.6861  -21.9022  -46.6404 C   0  0  0  0  0  0  0  0  0  0  0  0
  -10.6747  -20.7951  -46.6737 C   0  0  1  0  0  0  0  0  0  0  0  0
   -9.9534  -20.8590  -47.9714 C   0  0  0  0  0  0  0  0  0  0  0  0
  -11.7356  -20.8504  -49.7355 C   0  0  0  0  0  0  0  0  0  0  0  0
  -11.4889  -19.7202  -50.6322 C   0  0  0  0  0  0  0  0  0  0  0  0
  -13.8056  -18.7943  -50.9358 C   0  0  0  0  0  0  0  0  0  0  0  0
  -14.7503  -19.6916  -51.6300 C   0  0  0  0  0  0  0  0  0  0  0  0
  -18.5127  -17.8027  -48.6846 C   0  0  0  0  0  0  0  0  0  0  0  0
  -20.7703  -21.5914  -39.8422 C   0  0  0  0  0  0  0  0  0  0  0  0
  1  2  1  0
125  1  1  0
  2  3  1  0
  2  5  1  1
  3  4  2  0
  3 12  1  0
  5  6  1  0
  6  7  1  0
  7  8  1  0
  8  9  1  0
  9 10  2  0
  9 11  1  0
 12 13  1  0
 13 14  1  0
 13 16  1  1
 14 15  2  0
 14 20  1  0
 16 17  1  0
 17 18  1  6
 17 19  1  0
 21 20  1  0
 22 21  1  0
 21 24  1  1
 22 23  2  0
 32 22  1  0
 24 25  1  0
 25 26  2  0
 25 27  1  0
 26 28  1  0
 27 29  2  0
 28 30  2  0
 29 30  1  0
 30 31  1  0
 33 32  1  0
 34 33  1  0
 34 35  2  0
 36 34  1  0
 37 36  1  0
 38 37  1  0
 37 40  1  1
 38 39  2  0
 47 38  1  0
 40 41  1  0
 41 42  2  0
 41 43  1  0
 42 44  1  0
 43 45  2  0
 44 46  2  0
 45 46  1  0
 48 47  1  0
 49 48  1  0
 48 51  1  1
 49 50  2  0
 56 49  1  0
 51 52  1  0
 52 53  1  0
 53 54  1  0
 54 55  1  0
 57 56  1  0
 58 57  1  0
 57 60  1  6
 58 59  2  0
 70 58  1  0
 60 61  1  0
 61 62  2  0
 61 63  1  0
 62 64  1  0
 63 65  2  0
 63 66  1  0
 65 64  1  0
 65 67  1  0
 66 68  2  0
 67 69  2  0
 68 69  1  0
 71 70  1  0
 72 71  1  0
 71 74  1  6
 72 73  1  0
 80 72  1  0
109 72  1  0
 74 75  1  0
 75 76  1  0
 75 77  2  0
 76 78  2  0
 77 79  1  0
 79 78  1  0
109 80  1  6
 83 81  1  0
 81103  1  0
 82 84  1  0
 99 82  1  0
 82107  1  0
 96 83  1  0
 83106  2  0
 84 86  1  0
124 85  1  0
 86 96  1  1
 86125  1  0
 88 87  1  0
 87 92  2  0
 87124  1  0
 89 88  2  0
 89 90  1  0
115 89  1  0
 90 93  2  0
 94 91  1  0
 91107  2  0
 93 92  1  0
 93 94  1  0
 94 99  2  0
125 95  2  0
103 97  1  0
 97104  1  0
 97105  2  0
124 98  2  0
123100  2  0
121101  2  0
119102  2  0
108113  1  0
108116  1  0
117108  1  0
118109  1  0
110119  1  0
120110  1  0
111121  1  0
122111  1  0
123112  1  0
113114  2  0
115114  1  0
116115  2  0
118117  1  0
118119  1  6
121120  1  0
122123  1  0
M  CHG  4  10   1  55   1  85  -1 109   1
M  END
$$$$
