
     RDKit          3D

125134  0  0  0  0  0  0  0  0999 V2000
   -7.4667  -17.5967  -44.4881 N   0  0  0  0  0  0  0  0  0  0  0  0
   -7.4126  -16.5141  -45.5111 C   0  0  2  0  0  0  0  0  0  0  0  0
   -8.6962  -16.6330  -46.2059 C   0  0  0  0  0  0  0  0  0  0  0  0
   -9.6828  -16.2762  -45.3705 O   0  0  0  0  0  0  0  0  0  0  0  0
   -6.1294  -16.7073  -46.2088 C   0  0  0  0  0  0  0  0  0  0  0  0
   -5.6639  -15.6847  -47.1446 C   0  0  0  0  0  0  0  0  0  0  0  0
   -6.1463  -14.2889  -47.0863 C   0  0  0  0  0  0  0  0  0  0  0  0
   -6.7032  -13.6811  -48.2343 N   0  0  0  0  0  0  0  0  0  0  0  0
   -6.9806  -12.2986  -48.4117 C   0  0  0  0  0  0  0  0  0  0  0  0
   -8.0985  -11.8333  -48.6706 N   0  0  0  0  0  4  0  0  0  0  0  0
   -5.8866  -11.3464  -48.2840 N   0  0  0  0  0  0  0  0  0  0  0  0
   -9.1478  -17.0053  -47.4427 N   0  0  0  0  0  0  0  0  0  0  0  0
   -9.2579  -16.3422  -48.7283 C   0  0  2  0  0  0  0  0  0  0  0  0
  -10.5705  -15.7142  -48.9809 C   0  0  0  0  0  0  0  0  0  0  0  0
  -10.6642  -15.2286  -50.1777 O   0  0  0  0  0  0  0  0  0  0  0  0
   -8.8380  -17.2158  -49.8438 C   0  0  0  0  0  0  0  0  0  0  0  0
   -8.1850  -18.5158  -49.5456 C   0  0  1  0  0  0  0  0  0  0  0  0
   -7.1122  -18.4726  -48.5015 C   0  0  0  0  0  0  0  0  0  0  0  0
   -9.3227  -19.4015  -48.9239 C   0  0  0  0  0  0  0  0  0  0  0  0
  -11.6887  -15.5464  -48.1958 N   0  0  0  0  0  0  0  0  0  0  0  0
  -12.8174  -16.3394  -47.8099 C   0  0  2  0  0  0  0  0  0  0  0  0
  -12.9793  -17.6606  -48.4116 C   0  0  0  0  0  0  0  0  0  0  0  0
  -11.9714  -18.0040  -49.1740 O   0  0  0  0  0  0  0  0  0  0  0  0
  -14.1019  -15.4788  -47.9999 C   0  0  0  0  0  0  0  0  0  0  0  0
  -15.2024  -16.3207  -47.4473 C   0  0  0  0  0  0  0  0  0  0  0  0
  -15.2367  -17.6858  -47.5078 C   0  0  0  0  0  0  0  0  0  0  0  0
  -16.2891  -15.7182  -46.8007 C   0  0  0  0  0  0  0  0  0  0  0  0
  -16.2892  -18.4204  -46.9587 C   0  0  0  0  0  0  0  0  0  0  0  0
  -17.3333  -16.4246  -46.2554 C   0  0  0  0  0  0  0  0  0  0  0  0
  -17.3370  -17.7989  -46.3327 C   0  0  0  0  0  0  0  0  0  0  0  0
  -18.3844  -18.5508  -45.7883 O   0  0  0  0  0  0  0  0  0  0  0  0
  -13.9856  -18.5985  -48.3290 N   0  0  0  0  0  0  0  0  0  0  0  0
  -14.6690  -19.3287  -47.3256 C   0  0  0  0  0  0  0  0  0  0  0  0
  -15.3429  -18.6574  -46.2259 C   0  0  0  0  0  0  0  0  0  0  0  0
  -14.6554  -17.6949  -45.7098 O   0  0  0  0  0  0  0  0  0  0  0  0
  -16.5806  -18.8433  -45.6062 N   0  0  0  0  0  0  0  0  0  0  0  0
  -17.9352  -18.4975  -45.8418 C   0  0  2  0  0  0  0  0  0  0  0  0
  -18.7508  -19.7246  -45.4603 C   0  0  0  0  0  0  0  0  0  0  0  0
  -18.6296  -20.7029  -46.2292 O   0  0  0  0  0  0  0  0  0  0  0  0
  -18.3976  -17.8826  -47.0773 C   0  0  0  0  0  0  0  0  0  0  0  0
  -17.6454  -16.7731  -47.6911 C   0  0  0  0  0  0  0  0  0  0  0  0
  -16.7650  -16.9540  -48.7371 C   0  0  0  0  0  0  0  0  0  0  0  0
  -17.8379  -15.4589  -47.2637 C   0  0  0  0  0  0  0  0  0  0  0  0
  -16.1124  -15.8933  -49.3253 C   0  0  0  0  0  0  0  0  0  0  0  0
  -17.1899  -14.4065  -47.8485 C   0  0  0  0  0  0  0  0  0  0  0  0
  -16.3093  -14.6123  -48.8982 C   0  0  0  0  0  0  0  0  0  0  0  0
  -19.5951  -19.8096  -44.3340 N   0  0  0  0  0  0  0  0  0  0  0  0
  -19.9560  -18.7043  -43.4614 C   0  0  2  0  0  0  0  0  0  0  0  0
  -20.4540  -19.2911  -42.1590 C   0  0  0  0  0  0  0  0  0  0  0  0
  -20.4381  -20.5934  -42.1418 O   0  0  0  0  0  0  0  0  0  0  0  0
  -21.0882  -17.8541  -43.9644 C   0  0  0  0  0  0  0  0  0  0  0  0
  -21.8713  -18.3490  -45.1068 C   0  0  0  0  0  0  0  0  0  0  0  0
  -21.5815  -19.6646  -45.6998 C   0  0  0  0  0  0  0  0  0  0  0  0
  -20.2756  -20.2663  -45.1562 C   0  0  0  0  0  0  0  0  0  0  0  0
  -20.3299  -21.6678  -45.4770 N   0  0  0  0  0  4  0  0  0  0  0  0
  -20.9116  -18.6365  -41.0144 N   0  0  0  0  0  0  0  0  0  0  0  0
  -20.1540  -17.8046  -40.0887 C   0  0  2  0  0  0  0  0  0  0  0  0
  -19.9206  -18.6713  -38.8619 C   0  0  0  0  0  0  0  0  0  0  0  0
  -20.0749  -19.9446  -39.0527 O   0  0  0  0  0  0  0  0  0  0  0  0
  -20.9801  -16.6199  -39.6932 C   0  0  0  0  0  0  0  0  0  0  0  0
  -20.3405  -15.4817  -39.0765 C   0  0  0  0  0  0  0  0  0  0  0  0
  -20.9686  -14.4633  -38.3883 C   0  0  0  0  0  0  0  0  0  0  0  0
  -18.9834  -15.1857  -39.0112 C   0  0  0  0  0  0  0  0  0  0  0  0
  -20.0439  -13.5833  -37.9207 N   0  0  0  0  0  0  0  0  0  0  0  0
  -18.8295  -14.0021  -38.2885 C   0  0  0  0  0  0  0  0  0  0  0  0
  -17.8385  -15.7759  -39.4915 C   0  0  0  0  0  0  0  0  0  0  0  0
  -17.5770  -13.4572  -38.0684 C   0  0  0  0  0  0  0  0  0  0  0  0
  -16.5929  -15.2230  -39.2663 C   0  0  0  0  0  0  0  0  0  0  0  0
  -16.4442  -14.0570  -38.5509 C   0  0  0  0  0  0  0  0  0  0  0  0
  -19.5756  -18.2941  -37.5817 N   0  0  0  0  0  0  0  0  0  0  0  0
  -18.3598  -17.7495  -37.0240 C   0  0  2  0  0  0  0  0  0  0  0  0
  -17.9620  -18.6161  -35.8424 C   0  0  0  0  0  0  0  0  0  0  0  0
  -18.8746  -19.6105  -35.5138 O   0  0  0  0  0  0  0  0  0  0  0  0
  -18.6374  -16.3296  -36.5563 C   0  0  0  0  0  0  0  0  0  0  0  0
  -20.0129  -16.1396  -36.0522 C   0  0  0  0  0  0  0  0  0  0  0  0
  -20.5281  -15.1435  -35.3095 N   0  0  0  0  0  0  0  0  0  0  0  0
  -21.0798  -16.9956  -36.2654 C   0  0  0  0  0  0  0  0  0  0  0  0
  -21.8311  -15.3642  -35.0759 C   0  0  0  0  0  0  0  0  0  0  0  0
  -22.1813  -16.5173  -35.6697 N   0  0  0  0  0  0  0  0  0  0  0  0
  -17.4726  -17.8741  -34.7545 O   0  0  0  0  0  0  0  0  0  0  0  0
   -5.1711  -14.9846  -44.0630 C   0  0  0  0  0  0  0  0  0  0  0  0
   -7.9219  -15.3115  -40.5301 N   0  0  0  0  0  0  0  0  0  0  0  0
   -4.6638  -15.9871  -43.1382 C   0  0  0  0  0  0  0  0  0  0  0  0
   -7.2713  -15.3475  -41.8387 C   0  0  0  0  0  0  0  0  0  0  0  0
  -12.3727  -12.8311  -34.2351 O   0  0  0  0  0  1  0  0  0  0  0  0
   -6.8471  -16.7766  -42.1063 C   0  0  2  0  0  0  0  0  0  0  0  0
  -11.1737  -14.3013  -35.8087 C   0  0  0  0  0  0  0  0  0  0  0  0
  -11.8945  -15.4233  -35.5082 C   0  0  0  0  0  0  0  0  0  0  0  0
  -11.8238  -16.6319  -36.2511 C   0  0  0  0  0  0  0  0  0  0  0  0
  -10.9853  -16.6872  -37.3398 C   0  0  0  0  0  0  0  0  0  0  0  0
   -7.9415  -14.8880  -38.4460 N   0  0  0  0  0  0  0  0  0  0  0  0
  -10.3610  -14.4228  -36.8959 C   0  0  0  0  0  0  0  0  0  0  0  0
  -10.2315  -15.5955  -37.6936 C   0  0  0  0  0  0  0  0  0  0  0  0
   -9.2069  -15.4244  -38.7672 C   0  0  0  0  0  0  0  0  0  0  0  0
   -8.7512  -18.0111  -42.6501 O   0  0  0  0  0  0  0  0  0  0  0  0
   -5.4174  -16.9114  -42.3645 N   0  0  0  0  0  0  0  0  0  0  0  0
   -2.9651  -13.9625  -44.1860 C   0  0  0  0  0  0  0  0  0  0  0  0
  -10.3502  -12.2674  -35.0321 O   0  0  0  0  0  0  0  0  0  0  0  0
   -9.1267  -15.6712  -40.1107 C   0  0  0  0  0  0  0  0  0  0  0  0
  -11.9371  -23.0009  -30.4933 O   0  0  0  0  0  0  0  0  0  0  0  0
  -13.8642  -21.5367  -33.0130 O   0  0  0  0  0  0  0  0  0  0  0  0
  -17.6202  -19.1990  -33.1119 O   0  0  0  0  0  0  0  0  0  0  0  0
   -4.3782  -13.8225  -44.2603 N   0  0  0  0  0  0  0  0  0  0  0  0
   -2.3400  -15.2226  -43.7020 C   0  0  0  0  0  0  0  0  0  0  0  0
   -2.1872  -13.0294  -44.5214 O   0  0  0  0  0  0  0  0  0  0  0  0
   -3.4023  -16.0667  -42.9896 O   0  0  0  0  0  0  0  0  0  0  0  0
   -7.2105  -14.8305  -39.4750 N   0  0  0  0  0  0  0  0  0  0  0  0
  -14.0067  -19.3248  -35.0385 N   0  0  0  0  0  0  0  0  0  0  0  0
  -16.6577  -18.7665  -35.5257 N   0  0  1  0  0  4  0  0  0  0  0  0
  -16.6099  -21.2166  -32.6887 N   0  0  0  0  0  0  0  0  0  0  0  0
  -13.8992  -23.8085  -32.8984 N   0  0  0  0  0  0  0  0  0  0  0  0
  -12.2674  -25.2696  -30.5994 N   0  0  0  0  0  0  0  0  0  0  0  0
  -13.3755  -18.8609  -33.9280 N   0  0  0  0  0  0  0  0  0  0  0  0
  -12.6045  -17.9203  -34.2277 N   0  0  0  0  0  0  0  0  0  0  0  0
  -12.6785  -17.6945  -35.6236 C   0  0  0  0  0  0  0  0  0  0  0  0
  -13.5871  -18.6150  -36.0770 C   0  0  0  0  0  0  0  0  0  0  0  0
  -14.9360  -20.4516  -34.9160 C   0  0  0  0  0  0  0  0  0  0  0  0
  -16.3797  -20.0452  -34.9388 C   0  0  1  0  0  0  0  0  0  0  0  0
  -16.9056  -20.1085  -33.5504 C   0  0  0  0  0  0  0  0  0  0  0  0
  -16.0493  -22.4394  -33.2010 C   0  0  0  0  0  0  0  0  0  0  0  0
  -14.6017  -22.5824  -33.0380 C   0  0  0  0  0  0  0  0  0  0  0  0
  -12.4542  -23.8389  -32.6832 C   0  0  0  0  0  0  0  0  0  0  0  0
  -12.2085  -23.9826  -31.2346 C   0  0  0  0  0  0  0  0  0  0  0  0
  -11.2717  -13.0928  -35.0167 C   0  0  0  0  0  0  0  0  0  0  0  0
   -7.6828  -17.4635  -43.1195 C   0  0  0  0  0  0  0  0  0  0  0  0
  1  2  1  0
125  1  1  0
  2  3  1  0
  2  5  1  6
  3  4  2  0
  3 12  1  0
  5  6  1  0
  6  7  1  0
  7  8  1  0
  8  9  1  0
  9 10  2  0
  9 11  1  0
 12 13  1  0
 13 14  1  0
 13 16  1  6
 14 15  2  0
 14 20  1  0
 16 17  1  0
 17 18  1  1
 17 19  1  0
 21 20  1  0
 22 21  1  0
 21 24  1  6
 22 23  2  0
 32 22  1  0
 24 25  1  0
 25 26  2  0
 25 27  1  0
 26 28  1  0
 27 29  2  0
 28 30  2  0
 29 30  1  0
 30 31  1  0
 33 32  1  0
 34 33  1  0
 34 35  2  0
 36 34  1  0
 37 36  1  0
 38 37  1  0
 37 40  1  6
 38 39  2  0
 47 38  1  0
 40 41  1  0
 41 42  2  0
 41 43  1  0
 42 44  1  0
 43 45  2  0
 44 46  2  0
 45 46  1  0
 48 47  1  0
 49 48  1  0
 48 51  1  6
 49 50  2  0
 56 49  1  0
 51 52  1  0
 52 53  1  0
 53 54  1  0
 54 55  1  0
 57 56  1  0
 58 57  1  0
 57 60  1  1
 58 59  2  0
 70 58  1  0
 60 61  1  0
 61 62  2  0
 61 63  1  0
 62 64  1  0
 63 65  2  0
 63 66  1  0
 65 64  1  0
 65 67  1  0
 66 68  2  0
 67 69  2  0
 68 69  1  0
 71 70  1  0
 72 71  1  0
 71 74  1  1
 72 73  1  0
 80 72  1  0
109 72  1  0
 74 75  1  0
 75 76  1  0
 75 77  2  0
 76 78  2  0
 77 79  1  0
 79 78  1  0
109 80  1  1
 83 81  1  0
 81103  1  0
 82 84  1  0
 99 82  1  0
 82107  1  0
 96 83  1  0
 83106  2  0
 84 86  1  0
124 85  1  0
 86 96  1  6
 86125  1  0
 88 87  1  0
 87 92  2  0
 87124  1  0
 89 88  2  0
 89 90  1  0
115 89  1  0
 90 93  2  0
 94 91  1  0
 91107  2  0
 93 92  1  0
 93 94  1  0
 94 99  2  0
125 95  2  0
103 97  1  0
 97104  1  0
 97105  2  0
124 98  2  0
123100  2  0
121101  2  0
119102  2  0
108113  1  0
108116  1  0
117108  1  0
118109  1  0
110119  1  0
120110  1  0
111121  1  0
122111  1  0
123112  1  0
113114  2  0
115114  1  0
116115  2  0
118117  1  0
118119  1  1
121120  1  0
122123  1  0
M  CHG  4  10   1  55   1  85  -1 109   1
M  END
$$$$
