
     RDKit          3D

125134  0  0  0  0  0  0  0  0999 V2000
   -9.2045  -14.3801  -39.3279 N   0  0  0  0  0  0  0  0  0  0  0  0
   -8.7701  -15.2087  -38.1675 C   0  0  2  0  0  0  0  0  0  0  0  0
  -10.0314  -15.6362  -37.5588 C   0  0  0  0  0  0  0  0  0  0  0  0
  -10.6514  -16.4904  -38.3862 O   0  0  0  0  0  0  0  0  0  0  0  0
   -7.7988  -14.3732  -37.4399 C   0  0  0  0  0  0  0  0  0  0  0  0
   -7.9586  -14.1823  -35.9990 C   0  0  0  0  0  0  0  0  0  0  0  0
   -9.0213  -14.8631  -35.2298 C   0  0  0  0  0  0  0  0  0  0  0  0
   -8.8311  -16.1871  -34.7736 N   0  0  0  0  0  0  0  0  0  0  0  0
   -9.6722  -16.9058  -33.8815 C   0  0  0  0  0  0  0  0  0  0  0  0
  -10.0473  -16.4875  -32.7781 N   0  0  0  0  0  4  0  0  0  0  0  0
  -10.1360  -18.2287  -34.2745 N   0  0  0  0  0  0  0  0  0  0  0  0
  -10.7311  -15.4009  -36.4067 N   0  0  0  0  0  0  0  0  0  0  0  0
  -10.6612  -15.9118  -35.0508 C   0  0  2  0  0  0  0  0  0  0  0  0
  -11.5601  -17.0522  -34.7810 C   0  0  0  0  0  0  0  0  0  0  0  0
  -11.5474  -17.4081  -33.5361 O   0  0  0  0  0  0  0  0  0  0  0  0
  -10.8075  -14.8408  -34.0433 C   0  0  0  0  0  0  0  0  0  0  0  0
  -11.4672  -13.5663  -34.4248 C   0  0  1  0  0  0  0  0  0  0  0  0
  -10.6061  -12.5939  -35.1706 C   0  0  0  0  0  0  0  0  0  0  0  0
  -12.5858  -13.9845  -35.4441 C   0  0  0  0  0  0  0  0  0  0  0  0
  -12.3880  -17.7967  -35.5905 N   0  0  0  0  0  0  0  0  0  0  0  0
  -13.7065  -17.6630  -36.1341 C   0  0  2  0  0  0  0  0  0  0  0  0
  -14.5168  -16.5191  -35.7237 C   0  0  0  0  0  0  0  0  0  0  0  0
  -13.8642  -15.6738  -34.9657 O   0  0  0  0  0  0  0  0  0  0  0  0
  -14.4677  -19.0007  -35.8937 C   0  0  0  0  0  0  0  0  0  0  0  0
  -14.2049  -19.3296  -34.4627 C   0  0  0  0  0  0  0  0  0  0  0  0
  -12.9933  -19.7271  -33.9704 C   0  0  0  0  0  0  0  0  0  0  0  0
  -15.2346  -19.2253  -33.5187 C   0  0  0  0  0  0  0  0  0  0  0  0
  -12.8057  -20.0078  -32.6158 C   0  0  0  0  0  0  0  0  0  0  0  0
  -15.0686  -19.4979  -32.1828 C   0  0  0  0  0  0  0  0  0  0  0  0
  -13.8349  -19.8953  -31.7191 C   0  0  0  0  0  0  0  0  0  0  0  0
  -13.6295  -20.1814  -30.3646 O   0  0  0  0  0  0  0  0  0  0  0  0
  -15.8254  -16.1717  -35.9805 N   0  0  0  0  0  0  0  0  0  0  0  0
  -16.6566  -15.9447  -37.1050 C   0  0  0  0  0  0  0  0  0  0  0  0
  -16.8288  -16.9550  -38.1366 C   0  0  0  0  0  0  0  0  0  0  0  0
  -15.7272  -17.5301  -38.4846 O   0  0  0  0  0  0  0  0  0  0  0  0
  -17.9414  -17.4283  -38.8356 N   0  0  0  0  0  0  0  0  0  0  0  0
  -19.0046  -18.3417  -38.6225 C   0  0  2  0  0  0  0  0  0  0  0  0
  -20.2453  -17.6798  -39.2047 C   0  0  0  0  0  0  0  0  0  0  0  0
  -20.6667  -16.6892  -38.5688 O   0  0  0  0  0  0  0  0  0  0  0  0
  -19.2625  -18.9796  -37.3399 C   0  0  0  0  0  0  0  0  0  0  0  0
  -19.6356  -18.1745  -36.1626 C   0  0  0  0  0  0  0  0  0  0  0  0
  -20.8161  -18.3582  -35.4738 C   0  0  0  0  0  0  0  0  0  0  0  0
  -18.7662  -17.2084  -35.6550 C   0  0  0  0  0  0  0  0  0  0  0  0
  -21.1178  -17.6261  -34.3469 C   0  0  0  0  0  0  0  0  0  0  0  0
  -19.0664  -16.4823  -34.5360 C   0  0  0  0  0  0  0  0  0  0  0  0
  -20.2589  -16.6840  -33.8602 C   0  0  0  0  0  0  0  0  0  0  0  0
  -20.9108  -18.1070  -40.3722 N   0  0  0  0  0  0  0  0  0  0  0  0
  -20.6321  -19.3310  -41.1054 C   0  0  2  0  0  0  0  0  0  0  0  0
  -21.2025  -19.1723  -42.4976 C   0  0  0  0  0  0  0  0  0  0  0  0
  -21.7818  -18.0214  -42.6884 O   0  0  0  0  0  0  0  0  0  0  0  0
  -21.2967  -20.5585  -40.5491 C   0  0  0  0  0  0  0  0  0  0  0  0
  -22.2896  -20.3833  -39.4783 C   0  0  0  0  0  0  0  0  0  0  0  0
  -22.3768  -19.1141  -38.7381 C   0  0  0  0  0  0  0  0  0  0  0  0
  -23.8186  -18.5857  -38.6688 C   0  0  0  0  0  0  0  0  0  0  0  0
  -24.4060  -19.2085  -37.5125 N   0  0  0  0  0  4  0  0  0  0  0  0
  -21.1865  -20.0713  -43.5652 N   0  0  0  0  0  0  0  0  0  0  0  0
  -20.0394  -20.5381  -44.3327 C   0  0  2  0  0  0  0  0  0  0  0  0
  -20.0997  -19.7849  -45.6516 C   0  0  0  0  0  0  0  0  0  0  0  0
  -20.8381  -18.7190  -45.6410 O   0  0  0  0  0  0  0  0  0  0  0  0
  -20.1857  -22.0032  -44.6059 C   0  0  0  0  0  0  0  0  0  0  0  0
  -19.2096  -22.9257  -44.0758 C   0  0  0  0  0  0  0  0  0  0  0  0
  -18.5413  -23.9053  -44.7822 C   0  0  0  0  0  0  0  0  0  0  0  0
  -18.7144  -23.0064  -42.7791 C   0  0  0  0  0  0  0  0  0  0  0  0
  -17.6757  -24.5572  -43.9612 N   0  0  0  0  0  0  0  0  0  0  0  0
  -17.7647  -24.0278  -42.7377 C   0  0  0  0  0  0  0  0  0  0  0  0
  -18.9614  -22.3372  -41.6039 C   0  0  0  0  0  0  0  0  0  0  0  0
  -17.1051  -24.3428  -41.5630 C   0  0  0  0  0  0  0  0  0  0  0  0
  -18.2974  -22.6603  -40.4366 C   0  0  0  0  0  0  0  0  0  0  0  0
  -17.3594  -23.6664  -40.3995 C   0  0  0  0  0  0  0  0  0  0  0  0
  -19.4873  -20.0785  -46.8512 N   0  0  0  0  0  0  0  0  0  0  0  0
  -18.1058  -20.0437  -47.2706 C   0  0  2  0  0  0  0  0  0  0  0  0
  -18.0256  -19.2095  -48.5367 C   0  0  0  0  0  0  0  0  0  0  0  0
  -19.2513  -18.7924  -49.0400 O   0  0  0  0  0  0  0  0  0  0  0  0
  -17.6526  -21.4666  -47.5567 C   0  0  0  0  0  0  0  0  0  0  0  0
  -17.3271  -22.2320  -46.3359 C   0  0  0  0  0  0  0  0  0  0  0  0
  -16.2254  -22.9414  -46.0322 N   0  0  0  0  0  0  0  0  0  0  0  0
  -18.1379  -22.3637  -45.2215 C   0  0  0  0  0  0  0  0  0  0  0  0
  -16.3420  -23.4795  -44.8082 C   0  0  0  0  0  0  0  0  0  0  0  0
  -17.5321  -23.1225  -44.2972 N   0  0  0  0  0  0  0  0  0  0  0  0
  -17.1393  -19.7381  -49.4900 O   0  0  0  0  0  0  0  0  0  0  0  0
   -7.2263  -13.9502  -38.6990 C   0  0  0  0  0  0  0  0  0  0  0  0
   -8.1438  -16.9817  -42.9613 N   0  0  0  0  0  0  0  0  0  0  0  0
   -6.6418  -13.5957  -39.9836 C   0  0  0  0  0  0  0  0  0  0  0  0
   -7.7240  -16.5209  -41.6390 C   0  0  0  0  0  0  0  0  0  0  0  0
  -10.1951  -21.7107  -49.2573 O   0  0  0  0  0  1  0  0  0  0  0  0
   -8.0308  -15.0408  -41.5450 C   0  0  2  0  0  0  0  0  0  0  0  0
  -10.0549  -19.8400  -47.6585 C   0  0  0  0  0  0  0  0  0  0  0  0
  -11.1726  -19.2186  -48.1416 C   0  0  0  0  0  0  0  0  0  0  0  0
  -11.7410  -18.0515  -47.5650 C   0  0  0  0  0  0  0  0  0  0  0  0
  -11.1408  -17.5072  -46.4537 C   0  0  0  0  0  0  0  0  0  0  0  0
   -7.7473  -17.5633  -44.9682 N   0  0  0  0  0  0  0  0  0  0  0  0
   -9.5076  -19.2497  -46.5589 C   0  0  0  0  0  0  0  0  0  0  0  0
  -10.0135  -18.0816  -45.9201 C   0  0  0  0  0  0  0  0  0  0  0  0
   -9.1439  -17.6511  -44.7843 C   0  0  0  0  0  0  0  0  0  0  0  0
  -10.3340  -14.7914  -41.2656 O   0  0  0  0  0  0  0  0  0  0  0  0
   -6.8570  -14.2305  -41.2372 N   0  0  0  0  0  0  0  0  0  0  0  0
   -5.3564  -14.9485  -37.5018 C   0  0  0  0  0  0  0  0  0  0  0  0
   -8.3895  -21.4398  -47.9497 O   0  0  0  0  0  0  0  0  0  0  0  0
   -9.3279  -17.2677  -43.4838 C   0  0  0  0  0  0  0  0  0  0  0  0
  -13.1098  -13.9141  -54.1721 O   0  0  0  0  0  0  0  0  0  0  0  0
  -17.4816  -14.0846  -53.7371 O   0  0  0  0  0  0  0  0  0  0  0  0
  -17.0414  -18.6168  -51.5049 O   0  0  0  0  0  0  0  0  0  0  0  0
   -6.3640  -13.9474  -37.5701 N   0  0  0  0  0  0  0  0  0  0  0  0
   -5.1638  -15.9245  -38.6078 C   0  0  0  0  0  0  0  0  0  0  0  0
   -4.5912  -15.0531  -36.5059 O   0  0  0  0  0  0  0  0  0  0  0  0
   -5.8442  -12.6045  -40.0145 O   0  0  0  0  0  0  0  0  0  0  0  0
   -7.1842  -17.1740  -43.9062 N   0  0  0  0  0  0  0  0  0  0  0  0
  -14.7714  -16.8183  -49.2332 N   0  0  0  0  0  0  0  0  0  0  0  0
  -16.9090  -18.4992  -48.8063 N   0  0  1  0  0  4  0  0  0  0  0  0
  -18.4419  -16.8088  -51.7054 N   0  0  0  0  0  0  0  0  0  0  0  0
  -16.0267  -15.7540  -53.2157 N   0  0  0  0  0  0  0  0  0  0  0  0
  -14.1248  -14.2149  -52.1358 N   0  0  0  0  0  0  0  0  0  0  0  0
  -13.8846  -17.0384  -50.2392 N   0  0  0  0  0  0  0  0  0  0  0  0
  -12.8055  -17.4770  -49.7787 N   0  0  0  0  0  0  0  0  0  0  0  0
  -12.9152  -17.5761  -48.3704 C   0  0  0  0  0  0  0  0  0  0  0  0
  -14.1862  -17.1471  -48.0897 C   0  0  0  0  0  0  0  0  0  0  0  0
  -16.0941  -16.2729  -49.5511 C   0  0  0  0  0  0  0  0  0  0  0  0
  -17.1858  -17.3014  -49.5449 C   0  0  1  0  0  0  0  0  0  0  0  0
  -17.5325  -17.6244  -50.9535 C   0  0  0  0  0  0  0  0  0  0  0  0
  -18.2044  -15.4029  -51.9029 C   0  0  0  0  0  0  0  0  0  0  0  0
  -17.2443  -15.0708  -52.9565 C   0  0  0  0  0  0  0  0  0  0  0  0
  -15.0855  -15.2775  -54.2267 C   0  0  0  0  0  0  0  0  0  0  0  0
  -14.0670  -14.4487  -53.5519 C   0  0  0  0  0  0  0  0  0  0  0  0
   -9.5056  -21.0244  -48.2852 C   0  0  0  0  0  0  0  0  0  0  0  0
   -9.1898  -14.7294  -40.6752 C   0  0  0  0  0  0  0  0  0  0  0  0
  1  2  1  0
125  1  1  0
  2  3  1  0
  2  5  1  1
  3  4  2  0
  3 12  1  0
  5  6  1  0
  6  7  1  0
  7  8  1  0
  8  9  1  0
  9 10  2  0
  9 11  1  0
 12 13  1  0
 13 14  1  0
 13 16  1  1
 14 15  2  0
 14 20  1  0
 16 17  1  0
 17 18  1  6
 17 19  1  0
 21 20  1  0
 22 21  1  0
 21 24  1  1
 22 23  2  0
 32 22  1  0
 24 25  1  0
 25 26  2  0
 25 27  1  0
 26 28  1  0
 27 29  2  0
 28 30  2  0
 29 30  1  0
 30 31  1  0
 33 32  1  0
 34 33  1  0
 34 35  2  0
 36 34  1  0
 37 36  1  0
 38 37  1  0
 37 40  1  1
 38 39  2  0
 47 38  1  0
 40 41  1  0
 41 42  2  0
 41 43  1  0
 42 44  1  0
 43 45  2  0
 44 46  2  0
 45 46  1  0
 48 47  1  0
 49 48  1  0
 48 51  1  1
 49 50  2  0
 56 49  1  0
 51 52  1  0
 52 53  1  0
 53 54  1  0
 54 55  1  0
 57 56  1  0
 58 57  1  0
 57 60  1  6
 58 59  2  0
 70 58  1  0
 60 61  1  0
 61 62  2  0
 61 63  1  0
 62 64  1  0
 63 65  2  0
 63 66  1  0
 65 64  1  0
 65 67  1  0
 66 68  2  0
 67 69  2  0
 68 69  1  0
 71 70  1  0
 72 71  1  0
 71 74  1  6
 72 73  1  0
 80 72  1  0
109 72  1  0
 74 75  1  0
 75 76  1  0
 75 77  2  0
 76 78  2  0
 77 79  1  0
 79 78  1  0
109 80  1  6
 83 81  1  0
 81103  1  0
 82 84  1  0
 99 82  1  0
 82107  1  0
 96 83  1  0
 83106  2  0
 84 86  1  0
124 85  1  0
 86 96  1  1
 86125  1  0
 88 87  1  0
 87 92  2  0
 87124  1  0
 89 88  2  0
 89 90  1  0
115 89  1  0
 90 93  2  0
 94 91  1  0
 91107  2  0
 93 92  1  0
 93 94  1  0
 94 99  2  0
125 95  2  0
103 97  1  0
 97104  1  0
 97105  2  0
124 98  2  0
123100  2  0
121101  2  0
119102  2  0
108113  1  0
108116  1  0
117108  1  0
118109  1  0
110119  1  0
120110  1  0
111121  1  0
122111  1  0
123112  1  0
113114  2  0
115114  1  0
116115  2  0
118117  1  0
118119  1  6
121120  1  0
122123  1  0
M  CHG  4  10   1  55   1  85  -1 109   1
M  END
$$$$
