
     RDKit          3D

125134  0  0  0  0  0  0  0  0999 V2000
  -12.2862  -17.1146  -35.3278 N   0  0  0  0  0  0  0  0  0  0  0  0
  -11.9317  -15.6772  -35.1556 C   0  0  2  0  0  0  0  0  0  0  0  0
  -11.1496  -15.3697  -36.3549 C   0  0  0  0  0  0  0  0  0  0  0  0
  -11.9556  -15.4054  -37.4261 O   0  0  0  0  0  0  0  0  0  0  0  0
  -11.3529  -15.5826  -33.8039 C   0  0  0  0  0  0  0  0  0  0  0  0
  -11.7225  -16.5768  -32.7974 C   0  0  0  0  0  0  0  0  0  0  0  0
  -12.7284  -17.6266  -33.0628 C   0  0  0  0  0  0  0  0  0  0  0  0
  -12.9881  -18.0430  -34.3882 N   0  0  0  0  0  0  0  0  0  0  0  0
  -13.7886  -19.1468  -34.7889 C   0  0  0  0  0  0  0  0  0  0  0  0
  -14.7300  -19.6085  -34.1303 N   0  0  0  0  0  4  0  0  0  0  0  0
  -13.4970  -19.7940  -36.0600 N   0  0  0  0  0  0  0  0  0  0  0  0
   -9.8521  -15.0692  -36.6685 N   0  0  0  0  0  0  0  0  0  0  0  0
   -9.0496  -13.8613  -36.6323 C   0  0  2  0  0  0  0  0  0  0  0  0
   -9.0130  -13.1142  -37.9059 C   0  0  0  0  0  0  0  0  0  0  0  0
   -8.2026  -12.1051  -37.8641 O   0  0  0  0  0  0  0  0  0  0  0  0
   -7.6950  -14.1079  -36.0958 C   0  0  0  0  0  0  0  0  0  0  0  0
   -7.2536  -15.5032  -35.8439 C   0  0  1  0  0  0  0  0  0  0  0  0
   -8.2559  -16.3821  -35.1614 C   0  0  0  0  0  0  0  0  0  0  0  0
   -7.0698  -16.1285  -37.2724 C   0  0  0  0  0  0  0  0  0  0  0  0
   -9.6707  -13.2830  -39.1033 N   0  0  0  0  0  0  0  0  0  0  0  0
   -9.5122  -14.0964  -40.2716 C   0  0  2  0  0  0  0  0  0  0  0  0
   -8.3303  -14.9488  -40.3723 C   0  0  0  0  0  0  0  0  0  0  0  0
   -7.5962  -14.9379  -39.2878 O   0  0  0  0  0  0  0  0  0  0  0  0
   -9.6461  -13.1783  -41.5230 C   0  0  0  0  0  0  0  0  0  0  0  0
  -10.5440  -13.9312  -42.4460 C   0  0  0  0  0  0  0  0  0  0  0  0
  -10.4552  -15.2737  -42.6872 C   0  0  0  0  0  0  0  0  0  0  0  0
  -11.5724  -13.2635  -43.1234 C   0  0  0  0  0  0  0  0  0  0  0  0
  -11.3355  -15.9255  -43.5528 C   0  0  0  0  0  0  0  0  0  0  0  0
  -12.4469  -13.8881  -43.9788 C   0  0  0  0  0  0  0  0  0  0  0  0
  -12.3306  -15.2418  -44.1994 C   0  0  0  0  0  0  0  0  0  0  0  0
  -13.2041  -15.9110  -45.0643 O   0  0  0  0  0  0  0  0  0  0  0  0
   -7.8494  -15.7488  -41.3860 N   0  0  0  0  0  0  0  0  0  0  0  0
   -8.2994  -16.8326  -42.1799 C   0  0  0  0  0  0  0  0  0  0  0  0
   -9.5178  -16.7400  -42.9682 C   0  0  0  0  0  0  0  0  0  0  0  0
  -10.5000  -16.1899  -42.3374 O   0  0  0  0  0  0  0  0  0  0  0  0
   -9.8480  -17.1304  -44.2678 N   0  0  0  0  0  0  0  0  0  0  0  0
   -9.6845  -16.6356  -45.5863 C   0  0  2  0  0  0  0  0  0  0  0  0
   -9.3400  -17.8441  -46.4450 C   0  0  0  0  0  0  0  0  0  0  0  0
   -8.2068  -18.3326  -46.2442 O   0  0  0  0  0  0  0  0  0  0  0  0
   -8.8688  -15.4734  -45.9060 C   0  0  0  0  0  0  0  0  0  0  0  0
   -7.7241  -15.1023  -45.0543 C   0  0  0  0  0  0  0  0  0  0  0  0
   -6.9747  -16.0300  -44.3617 C   0  0  0  0  0  0  0  0  0  0  0  0
   -7.3111  -13.7733  -44.9543 C   0  0  0  0  0  0  0  0  0  0  0  0
   -5.8793  -15.6615  -43.6125 C   0  0  0  0  0  0  0  0  0  0  0  0
   -6.2234  -13.4084  -44.2107 C   0  0  0  0  0  0  0  0  0  0  0  0
   -5.4853  -14.3581  -43.5228 C   0  0  0  0  0  0  0  0  0  0  0  0
  -10.1963  -18.4146  -47.4093 N   0  0  0  0  0  0  0  0  0  0  0  0
  -11.4587  -17.8515  -47.8592 C   0  0  2  0  0  0  0  0  0  0  0  0
  -12.2557  -18.9657  -48.5012 C   0  0  0  0  0  0  0  0  0  0  0  0
  -11.6367  -20.1117  -48.4937 O   0  0  0  0  0  0  0  0  0  0  0  0
  -11.3302  -16.7998  -48.9246 C   0  0  0  0  0  0  0  0  0  0  0  0
  -10.0592  -16.7099  -49.6592 C   0  0  0  0  0  0  0  0  0  0  0  0
   -8.9044  -17.5310  -49.2610 C   0  0  0  0  0  0  0  0  0  0  0  0
   -9.1196  -18.2042  -47.8960 C   0  0  0  0  0  0  0  0  0  0  0  0
   -7.9796  -19.0598  -47.7001 N   0  0  0  0  0  4  0  0  0  0  0  0
  -13.5252  -18.9221  -49.0796 N   0  0  0  0  0  0  0  0  0  0  0  0
  -14.8058  -18.6885  -48.4251 C   0  0  2  0  0  0  0  0  0  0  0  0
  -15.4696  -20.0528  -48.3332 C   0  0  0  0  0  0  0  0  0  0  0  0
  -14.6683  -21.0629  -48.4716 O   0  0  0  0  0  0  0  0  0  0  0  0
  -15.6492  -17.7978  -49.2842 C   0  0  0  0  0  0  0  0  0  0  0  0
  -16.2987  -16.6505  -48.6955 C   0  0  0  0  0  0  0  0  0  0  0  0
  -17.2355  -15.8391  -49.3032 C   0  0  0  0  0  0  0  0  0  0  0  0
  -16.1540  -16.1435  -47.4089 C   0  0  0  0  0  0  0  0  0  0  0  0
  -17.6489  -14.8796  -48.4333 N   0  0  0  0  0  0  0  0  0  0  0  0
  -17.0036  -15.0447  -47.2750 C   0  0  0  0  0  0  0  0  0  0  0  0
  -15.3869  -16.4746  -46.3173 C   0  0  0  0  0  0  0  0  0  0  0  0
  -17.0658  -14.3297  -46.0922 C   0  0  0  0  0  0  0  0  0  0  0  0
  -15.4564  -15.7535  -45.1412 C   0  0  0  0  0  0  0  0  0  0  0  0
  -16.2972  -14.6720  -45.0114 C   0  0  0  0  0  0  0  0  0  0  0  0
  -16.7971  -20.3638  -48.1303 N   0  0  0  0  0  0  0  0  0  0  0  0
  -17.6615  -20.2295  -46.9812 C   0  0  2  0  0  0  0  0  0  0  0  0
  -18.3016  -21.5815  -46.7208 C   0  0  0  0  0  0  0  0  0  0  0  0
  -18.0155  -22.5555  -47.6690 O   0  0  0  0  0  0  0  0  0  0  0  0
  -18.7339  -19.2004  -47.3019 C   0  0  0  0  0  0  0  0  0  0  0  0
  -19.0887  -19.1546  -48.7352 C   0  0  0  0  0  0  0  0  0  0  0  0
  -19.7349  -18.2031  -49.4325 N   0  0  0  0  0  0  0  0  0  0  0  0
  -18.8035  -20.1328  -49.6724 C   0  0  0  0  0  0  0  0  0  0  0  0
  -19.8446  -18.5646  -50.7204 C   0  0  0  0  0  0  0  0  0  0  0  0
  -19.2654  -19.7667  -50.8765 N   0  0  0  0  0  0  0  0  0  0  0  0
  -19.6539  -21.4893  -46.3513 O   0  0  0  0  0  0  0  0  0  0  0  0
  -12.0770  -17.6453  -33.4667 C   0  0  0  0  0  0  0  0  0  0  0  0
  -16.7929  -17.0107  -36.2075 N   0  0  0  0  0  0  0  0  0  0  0  0
  -13.3996  -17.6286  -32.8600 C   0  0  0  0  0  0  0  0  0  0  0  0
  -15.7010  -16.4461  -35.4161 C   0  0  0  0  0  0  0  0  0  0  0  0
  -22.5558  -16.2784  -39.6565 O   0  0  0  0  0  1  0  0  0  0  0  0
  -14.8117  -17.5886  -34.9719 C   0  0  2  0  0  0  0  0  0  0  0  0
  -21.0763  -18.2267  -39.9571 C   0  0  0  0  0  0  0  0  0  0  0  0
  -20.7216  -19.3096  -40.7123 C   0  0  0  0  0  0  0  0  0  0  0  0
  -19.4940  -20.0089  -40.5655 C   0  0  0  0  0  0  0  0  0  0  0  0
  -18.6013  -19.5786  -39.6119 C   0  0  0  0  0  0  0  0  0  0  0  0
  -18.8062  -17.6494  -36.4557 N   0  0  0  0  0  0  0  0  0  0  0  0
  -20.1502  -17.8534  -39.0297 C   0  0  0  0  0  0  0  0  0  0  0  0
  -18.8980  -18.4981  -38.8183 C   0  0  0  0  0  0  0  0  0  0  0  0
  -18.1464  -17.8884  -37.6803 C   0  0  0  0  0  0  0  0  0  0  0  0
  -13.5578  -18.2919  -36.8099 O   0  0  0  0  0  0  0  0  0  0  0  0
  -14.6566  -17.6644  -33.5230 N   0  0  0  0  0  0  0  0  0  0  0  0
   -9.9691  -16.4422  -33.6559 C   0  0  0  0  0  0  0  0  0  0  0  0
  -23.2671  -18.1152  -40.7352 O   0  0  0  0  0  0  0  0  0  0  0  0
  -16.8677  -17.4577  -37.4530 C   0  0  0  0  0  0  0  0  0  0  0  0
  -20.9167  -29.9912  -45.8407 O   0  0  0  0  0  0  0  0  0  0  0  0
  -20.3474  -28.2332  -46.1104 O   0  0  0  0  0  0  0  0  0  0  0  0
  -20.6031  -23.4079  -46.4060 O   0  0  0  0  0  0  0  0  0  0  0  0
  -11.3870  -16.4066  -33.5547 N   0  0  0  0  0  0  0  0  0  0  0  0
   -9.2273  -17.7315  -33.6353 C   0  0  0  0  0  0  0  0  0  0  0  0
   -9.2847  -15.3894  -33.7626 O   0  0  0  0  0  0  0  0  0  0  0  0
  -13.4645  -17.5787  -31.5900 O   0  0  0  0  0  0  0  0  0  0  0  0
  -18.0103  -17.1434  -35.6150 N   0  0  0  0  0  0  0  0  0  0  0  0
  -19.0265  -22.8198  -42.8824 N   0  0  0  0  0  0  0  0  0  0  0  0
  -18.6260  -21.9421  -45.4603 N   0  0  1  0  0  4  0  0  0  0  0  0
  -19.6869  -25.4844  -46.0609 N   0  0  0  0  0  0  0  0  0  0  0  0
  -18.7696  -28.7648  -44.5601 N   0  0  0  0  0  0  0  0  0  0  0  0
  -20.0626  -32.0513  -45.2986 N   0  0  0  0  0  0  0  0  0  0  0  0
  -20.2760  -22.9896  -42.3757 N   0  0  0  0  0  0  0  0  0  0  0  0
  -20.5476  -22.0683  -41.5718 N   0  0  0  0  0  0  0  0  0  0  0  0
  -19.4394  -21.1907  -41.4896 C   0  0  0  0  0  0  0  0  0  0  0  0
  -18.5112  -21.7216  -42.3469 C   0  0  0  0  0  0  0  0  0  0  0  0
  -18.4954  -23.8086  -43.8249 C   0  0  0  0  0  0  0  0  0  0  0  0
  -18.5377  -23.3588  -45.2552 C   0  0  1  0  0  0  0  0  0  0  0  0
  -19.6621  -24.0560  -45.9320 C   0  0  0  0  0  0  0  0  0  0  0  0
  -19.5511  -26.3457  -44.9155 C   0  0  0  0  0  0  0  0  0  0  0  0
  -19.5650  -27.7805  -45.2043 C   0  0  0  0  0  0  0  0  0  0  0  0
  -19.3607  -29.9835  -44.0120 C   0  0  0  0  0  0  0  0  0  0  0  0
  -20.1455  -30.6340  -45.0799 C   0  0  0  0  0  0  0  0  0  0  0  0
  -22.3439  -17.5497  -40.1365 C   0  0  0  0  0  0  0  0  0  0  0  0
  -13.5184  -17.6487  -35.6935 C   0  0  0  0  0  0  0  0  0  0  0  0
  1  2  1  0
125  1  1  0
  2  3  1  0
  2  5  1  1
  3  4  2  0
  3 12  1  0
  5  6  1  0
  6  7  1  0
  7  8  1  0
  8  9  1  0
  9 10  2  0
  9 11  1  0
 12 13  1  0
 13 14  1  0
 13 16  1  6
 14 15  2  0
 14 20  1  0
 16 17  1  0
 17 18  1  1
 17 19  1  0
 21 20  1  0
 22 21  1  0
 21 24  1  6
 22 23  2  0
 32 22  1  0
 24 25  1  0
 25 26  2  0
 25 27  1  0
 26 28  1  0
 27 29  2  0
 28 30  2  0
 29 30  1  0
 30 31  1  0
 33 32  1  0
 34 33  1  0
 34 35  2  0
 36 34  1  0
 37 36  1  0
 38 37  1  0
 37 40  1  1
 38 39  2  0
 47 38  1  0
 40 41  1  0
 41 42  2  0
 41 43  1  0
 42 44  1  0
 43 45  2  0
 44 46  2  0
 45 46  1  0
 48 47  1  0
 49 48  1  0
 48 51  1  6
 49 50  2  0
 56 49  1  0
 51 52  1  0
 52 53  1  0
 53 54  1  0
 54 55  1  0
 57 56  1  0
 58 57  1  0
 57 60  1  6
 58 59  2  0
 70 58  1  0
 60 61  1  0
 61 62  2  0
 61 63  1  0
 62 64  1  0
 63 65  2  0
 63 66  1  0
 65 64  1  0
 65 67  1  0
 66 68  2  0
 67 69  2  0
 68 69  1  0
 71 70  1  0
 72 71  1  0
 71 74  1  6
 72 73  1  0
 80 72  1  0
109 72  1  0
 74 75  1  0
 75 76  1  0
 75 77  2  0
 76 78  2  0
 77 79  1  0
 79 78  1  0
109 80  1  6
 83 81  1  0
 81103  1  0
 82 84  1  0
 99 82  1  0
 82107  1  0
 96 83  1  0
 83106  2  0
 84 86  1  0
124 85  1  0
 86 96  1  1
 86125  1  0
 88 87  1  0
 87 92  2  0
 87124  1  0
 89 88  2  0
 89 90  1  0
115 89  1  0
 90 93  2  0
 94 91  1  0
 91107  2  0
 93 92  1  0
 93 94  1  0
 94 99  2  0
125 95  2  0
103 97  1  0
 97104  1  0
 97105  2  0
124 98  2  0
123100  2  0
121101  2  0
119102  2  0
108113  1  0
108116  1  0
117108  1  0
118109  1  0
110119  1  0
120110  1  0
111121  1  0
122111  1  0
123112  1  0
113114  2  0
115114  1  0
116115  2  0
118117  1  0
118119  1  1
121120  1  0
122123  1  0
M  CHG  4  10   1  55   1  85  -1 109   1
M  END
$$$$
