
     RDKit          3D

125134  0  0  0  0  0  0  0  0999 V2000
  -14.9676   -9.1028  -49.4016 N   0  0  0  0  0  0  0  0  0  0  0  0
  -14.5568   -9.5314  -50.7688 C   0  0  2  0  0  0  0  0  0  0  0  0
  -13.8172  -10.7729  -50.5324 C   0  0  0  0  0  0  0  0  0  0  0  0
  -14.6694  -11.7186  -50.1104 O   0  0  0  0  0  0  0  0  0  0  0  0
  -13.9174   -8.3468  -51.3678 C   0  0  0  0  0  0  0  0  0  0  0  0
  -14.5563   -7.0396  -51.2220 C   0  0  0  0  0  0  0  0  0  0  0  0
  -15.5269   -6.7558  -50.1441 C   0  0  0  0  0  0  0  0  0  0  0  0
  -15.7927   -7.7278  -49.1532 N   0  0  0  0  0  0  0  0  0  0  0  0
  -16.5788   -7.5522  -47.9822 C   0  0  0  0  0  0  0  0  0  0  0  0
  -16.8077   -8.4393  -47.1494 N   0  0  0  0  0  4  0  0  0  0  0  0
  -17.1648   -6.2443  -47.7262 N   0  0  0  0  0  0  0  0  0  0  0  0
  -12.5249  -11.2141  -50.6187 N   0  0  0  0  0  0  0  0  0  0  0  0
  -11.6805  -11.6866  -51.6996 C   0  0  2  0  0  0  0  0  0  0  0  0
  -11.6733  -13.1534  -51.8721 C   0  0  0  0  0  0  0  0  0  0  0  0
  -10.8277  -13.5411  -52.7729 O   0  0  0  0  0  0  0  0  0  0  0  0
  -10.3133  -11.1312  -51.6225 C   0  0  0  0  0  0  0  0  0  0  0  0
   -9.7145  -10.8505  -50.2929 C   0  0  1  0  0  0  0  0  0  0  0  0
  -10.6810  -10.4379  -49.2258 C   0  0  0  0  0  0  0  0  0  0  0  0
   -9.1427  -12.2315  -49.8122 C   0  0  0  0  0  0  0  0  0  0  0  0
  -12.3875  -14.1649  -51.2708 N   0  0  0  0  0  0  0  0  0  0  0  0
  -12.3075  -14.9120  -50.0513 C   0  0  2  0  0  0  0  0  0  0  0  0
  -11.1609  -14.6925  -49.1733 C   0  0  0  0  0  0  0  0  0  0  0  0
  -10.3808  -13.7229  -49.5813 O   0  0  0  0  0  0  0  0  0  0  0  0
  -12.4636  -16.4229  -50.3975 C   0  0  0  0  0  0  0  0  0  0  0  0
  -11.0901  -16.8646  -50.7761 C   0  0  0  0  0  0  0  0  0  0  0  0
   -9.9862  -16.0586  -50.7585 C   0  0  0  0  0  0  0  0  0  0  0  0
  -10.8631  -18.1897  -51.1694 C   0  0  0  0  0  0  0  0  0  0  0  0
   -8.7220  -16.5346  -51.1109 C   0  0  0  0  0  0  0  0  0  0  0  0
   -9.6270  -18.6751  -51.5201 C   0  0  0  0  0  0  0  0  0  0  0  0
   -8.5353  -17.8372  -51.4909 C   0  0  0  0  0  0  0  0  0  0  0  0
   -7.2610  -18.2976  -51.8417 O   0  0  0  0  0  0  0  0  0  0  0  0
  -10.7520  -15.3118  -48.0122 N   0  0  0  0  0  0  0  0  0  0  0  0
  -11.2728  -15.5918  -46.7247 C   0  0  0  0  0  0  0  0  0  0  0  0
  -12.5201  -16.3193  -46.5535 C   0  0  0  0  0  0  0  0  0  0  0  0
  -13.4548  -15.9374  -47.3571 O   0  0  0  0  0  0  0  0  0  0  0  0
  -12.9193  -17.3439  -45.6924 N   0  0  0  0  0  0  0  0  0  0  0  0
  -12.7960  -18.7539  -45.6100 C   0  0  2  0  0  0  0  0  0  0  0  0
  -12.5305  -19.0637  -44.1437 C   0  0  0  0  0  0  0  0  0  0  0  0
  -11.4071  -18.7129  -43.7217 O   0  0  0  0  0  0  0  0  0  0  0  0
  -11.9554  -19.5342  -46.5060 C   0  0  0  0  0  0  0  0  0  0  0  0
  -12.0349  -19.3440  -47.9659 C   0  0  0  0  0  0  0  0  0  0  0  0
  -13.2127  -19.0468  -48.6188 C   0  0  0  0  0  0  0  0  0  0  0  0
  -10.8870  -19.4064  -48.7565 C   0  0  0  0  0  0  0  0  0  0  0  0
  -13.2506  -18.8248  -49.9776 C   0  0  0  0  0  0  0  0  0  0  0  0
  -10.9255  -19.1855  -50.1053 C   0  0  0  0  0  0  0  0  0  0  0  0
  -12.1207  -18.8885  -50.7401 C   0  0  0  0  0  0  0  0  0  0  0  0
  -13.4466  -19.6954  -43.2775 N   0  0  0  0  0  0  0  0  0  0  0  0
  -14.7073  -20.3008  -43.6745 C   0  0  2  0  0  0  0  0  0  0  0  0
  -15.5689  -20.4208  -42.4368 C   0  0  0  0  0  0  0  0  0  0  0  0
  -14.9899  -19.9697  -41.3608 O   0  0  0  0  0  0  0  0  0  0  0  0
  -14.5888  -21.7018  -44.2046 C   0  0  0  0  0  0  0  0  0  0  0  0
  -13.3484  -22.4432  -43.9309 C   0  0  0  0  0  0  0  0  0  0  0  0
  -12.3614  -21.9232  -42.9709 C   0  0  0  0  0  0  0  0  0  0  0  0
  -12.6747  -20.4789  -42.5481 C   0  0  0  0  0  0  0  0  0  0  0  0
  -11.6099  -20.0937  -41.6605 N   0  0  0  0  0  4  0  0  0  0  0  0
  -16.8600  -20.9351  -42.3072 N   0  0  0  0  0  0  0  0  0  0  0  0
  -18.1024  -20.3967  -42.8452 C   0  0  2  0  0  0  0  0  0  0  0  0
  -18.8081  -19.7478  -41.6656 C   0  0  0  0  0  0  0  0  0  0  0  0
  -18.0485  -19.4896  -40.6468 O   0  0  0  0  0  0  0  0  0  0  0  0
  -18.9510  -21.5191  -43.3579 C   0  0  0  0  0  0  0  0  0  0  0  0
  -19.7582  -22.2792  -42.4330 C   0  0  0  0  0  0  0  0  0  0  0  0
  -20.9615  -22.8953  -42.7120 C   0  0  0  0  0  0  0  0  0  0  0  0
  -19.4922  -22.5801  -41.1018 C   0  0  0  0  0  0  0  0  0  0  0  0
  -21.4144  -23.5451  -41.6070 N   0  0  0  0  0  0  0  0  0  0  0  0
  -20.5372  -23.3663  -40.6152 C   0  0  0  0  0  0  0  0  0  0  0  0
  -18.4822  -22.2719  -40.2216 C   0  0  0  0  0  0  0  0  0  0  0  0
  -20.5454  -23.8127  -39.3056 C   0  0  0  0  0  0  0  0  0  0  0  0
  -18.5006  -22.7224  -38.9161 C   0  0  0  0  0  0  0  0  0  0  0  0
  -19.5313  -23.4998  -38.4398 C   0  0  0  0  0  0  0  0  0  0  0  0
  -20.1354  -19.4029  -41.5269 N   0  0  0  0  0  0  0  0  0  0  0  0
  -20.9443  -18.3826  -42.1516 C   0  0  2  0  0  0  0  0  0  0  0  0
  -21.6186  -17.5850  -41.0496 C   0  0  0  0  0  0  0  0  0  0  0  0
  -21.4073  -18.0693  -39.7649 O   0  0  0  0  0  0  0  0  0  0  0  0
  -21.9936  -19.0617  -43.0174 C   0  0  0  0  0  0  0  0  0  0  0  0
  -22.9636  -19.8603  -42.2404 C   0  0  0  0  0  0  0  0  0  0  0  0
  -23.1627  -19.9187  -40.9115 N   0  0  0  0  0  0  0  0  0  0  0  0
  -23.8958  -20.7386  -42.7659 C   0  0  0  0  0  0  0  0  0  0  0  0
  -24.1547  -20.7770  -40.6276 C   0  0  0  0  0  0  0  0  0  0  0  0
  -24.6163  -21.2911  -41.7796 N   0  0  0  0  0  0  0  0  0  0  0  0
  -22.9497  -17.2489  -41.3477 O   0  0  0  0  0  0  0  0  0  0  0  0
  -18.1984   -5.6016  -47.9055 C   0  0  0  0  0  0  0  0  0  0  0  0
  -19.5018   -9.8338  -49.3645 N   0  0  0  0  0  0  0  0  0  0  0  0
  -17.9991   -6.0329  -49.2809 C   0  0  0  0  0  0  0  0  0  0  0  0
  -18.3581   -9.3641  -50.1445 C   0  0  0  0  0  0  0  0  0  0  0  0
  -25.7107  -12.4595  -48.7051 O   0  0  0  0  0  1  0  0  0  0  0  0
  -17.4901   -8.5216  -49.2332 C   0  0  2  0  0  0  0  0  0  0  0  0
  -23.9822  -12.6682  -46.9605 C   0  0  0  0  0  0  0  0  0  0  0  0
  -23.6978  -12.9338  -45.6501 C   0  0  0  0  0  0  0  0  0  0  0  0
  -22.4897  -12.5504  -45.0089 C   0  0  0  0  0  0  0  0  0  0  0  0
  -21.5424  -11.8730  -45.7406 C   0  0  0  0  0  0  0  0  0  0  0  0
  -21.5447   -9.7528  -48.7787 N   0  0  0  0  0  0  0  0  0  0  0  0
  -23.0047  -11.9928  -47.6280 C   0  0  0  0  0  0  0  0  0  0  0  0
  -21.7674  -11.5726  -47.0615 C   0  0  0  0  0  0  0  0  0  0  0  0
  -20.9469  -10.7950  -48.0381 C   0  0  0  0  0  0  0  0  0  0  0  0
  -16.3416   -9.9543  -47.7933 O   0  0  0  0  0  0  0  0  0  0  0  0
  -17.2754   -7.1687  -49.7358 N   0  0  0  0  0  0  0  0  0  0  0  0
  -17.8215   -3.2197  -48.2382 C   0  0  0  0  0  0  0  0  0  0  0  0
  -25.8962  -13.9881  -47.0704 O   0  0  0  0  0  0  0  0  0  0  0  0
  -19.6456  -10.7928  -48.4608 C   0  0  0  0  0  0  0  0  0  0  0  0
  -22.3026  -12.1860  -33.9411 O   0  0  0  0  0  0  0  0  0  0  0  0
  -23.3023  -11.9042  -37.1699 O   0  0  0  0  0  0  0  0  0  0  0  0
  -23.0836  -16.9032  -38.5467 O   0  0  0  0  0  0  0  0  0  0  0  0
  -18.6249   -4.2622  -47.7000 N   0  0  0  0  0  0  0  0  0  0  0  0
  -16.5701   -3.5185  -48.9849 C   0  0  0  0  0  0  0  0  0  0  0  0
  -18.1317   -2.0057  -48.1030 O   0  0  0  0  0  0  0  0  0  0  0  0
  -18.5261   -5.3292  -50.2011 O   0  0  0  0  0  0  0  0  0  0  0  0
  -20.6963   -9.2068  -49.5394 N   0  0  0  0  0  0  0  0  0  0  0  0
  -22.2193  -13.5550  -41.4868 N   0  0  0  0  0  0  0  0  0  0  0  0
  -21.9005  -16.2778  -41.2395 N   0  0  1  0  0  4  0  0  0  0  0  0
  -24.1183  -14.9119  -39.0314 N   0  0  0  0  0  0  0  0  0  0  0  0
  -23.3284  -14.0326  -36.3671 N   0  0  0  0  0  0  0  0  0  0  0  0
  -21.3359  -11.6139  -35.9426 N   0  0  0  0  0  0  0  0  0  0  0  0
  -23.4509  -12.9908  -41.5950 N   0  0  0  0  0  0  0  0  0  0  0  0
  -23.6558  -12.6177  -42.7730 N   0  0  0  0  0  0  0  0  0  0  0  0
  -22.5156  -12.9234  -43.5551 C   0  0  0  0  0  0  0  0  0  0  0  0
  -21.6440  -13.5189  -42.6810 C   0  0  0  0  0  0  0  0  0  0  0  0
  -21.7636  -14.0346  -40.1790 C   0  0  0  0  0  0  0  0  0  0  0  0
  -21.8521  -15.5236  -40.0206 C   0  0  1  0  0  0  0  0  0  0  0  0
  -23.0280  -15.8343  -39.1667 C   0  0  0  0  0  0  0  0  0  0  0  0
  -23.8927  -13.5068  -38.8154 C   0  0  0  0  0  0  0  0  0  0  0  0
  -23.5069  -13.1354  -37.4532 C   0  0  0  0  0  0  0  0  0  0  0  0
  -22.1352  -13.9827  -35.5252 C   0  0  0  0  0  0  0  0  0  0  0  0
  -21.9450  -12.5879  -35.0802 C   0  0  0  0  0  0  0  0  0  0  0  0
  -25.2324  -13.0715  -47.5701 C   0  0  0  0  0  0  0  0  0  0  0  0
  -16.2320   -9.1915  -48.8265 C   0  0  0  0  0  0  0  0  0  0  0  0
  1  2  1  0
125  1  1  0
  2  3  1  0
  2  5  1  1
  3  4  2  0
  3 12  1  0
  5  6  1  0
  6  7  1  0
  7  8  1  0
  8  9  1  0
  9 10  2  0
  9 11  1  0
 12 13  1  0
 13 14  1  0
 13 16  1  1
 14 15  2  0
 14 20  1  0
 16 17  1  0
 17 18  1  1
 17 19  1  0
 21 20  1  0
 22 21  1  0
 21 24  1  6
 22 23  2  0
 32 22  1  0
 24 25  1  0
 25 26  2  0
 25 27  1  0
 26 28  1  0
 27 29  2  0
 28 30  2  0
 29 30  1  0
 30 31  1  0
 33 32  1  0
 34 33  1  0
 34 35  2  0
 36 34  1  0
 37 36  1  0
 38 37  1  0
 37 40  1  6
 38 39  2  0
 47 38  1  0
 40 41  1  0
 41 42  2  0
 41 43  1  0
 42 44  1  0
 43 45  2  0
 44 46  2  0
 45 46  1  0
 48 47  1  0
 49 48  1  0
 48 51  1  1
 49 50  2  0
 56 49  1  0
 51 52  1  0
 52 53  1  0
 53 54  1  0
 54 55  1  0
 57 56  1  0
 58 57  1  0
 57 60  1  1
 58 59  2  0
 70 58  1  0
 60 61  1  0
 61 62  2  0
 61 63  1  0
 62 64  1  0
 63 65  2  0
 63 66  1  0
 65 64  1  0
 65 67  1  0
 66 68  2  0
 67 69  2  0
 68 69  1  0
 71 70  1  0
 72 71  1  0
 71 74  1  6
 72 73  1  0
 80 72  1  0
109 72  1  0
 74 75  1  0
 75 76  1  0
 75 77  2  0
 76 78  2  0
 77 79  1  0
 79 78  1  0
109 80  1  1
 83 81  1  0
 81103  1  0
 82 84  1  0
 99 82  1  0
 82107  1  0
 96 83  1  0
 83106  2  0
 84 86  1  0
124 85  1  0
 86 96  1  6
 86125  1  0
 88 87  1  0
 87 92  2  0
 87124  1  0
 89 88  2  0
 89 90  1  0
115 89  1  0
 90 93  2  0
 94 91  1  0
 91107  2  0
 93 92  1  0
 93 94  1  0
 94 99  2  0
125 95  2  0
103 97  1  0
 97104  1  0
 97105  2  0
124 98  2  0
123100  2  0
121101  2  0
119102  2  0
108113  1  0
108116  1  0
117108  1  0
118109  1  0
110119  1  0
120110  1  0
111121  1  0
122111  1  0
123112  1  0
113114  2  0
115114  1  0
116115  2  0
118117  1  0
118119  1  1
121120  1  0
122123  1  0
M  CHG  4  10   1  55   1  85  -1 109   1
M  END
$$$$
