
     RDKit          3D

125134  0  0  0  0  0  0  0  0999 V2000
   -9.6126  -18.6418  -46.0389 N   0  0  0  0  0  0  0  0  0  0  0  0
   -9.3147  -17.4079  -46.8203 C   0  0  2  0  0  0  0  0  0  0  0  0
  -10.6358  -16.9476  -47.2531 C   0  0  0  0  0  0  0  0  0  0  0  0
  -11.3265  -16.5263  -46.1835 O   0  0  0  0  0  0  0  0  0  0  0  0
   -8.2745  -17.8050  -47.7852 C   0  0  0  0  0  0  0  0  0  0  0  0
   -8.2508  -19.1789  -48.2853 C   0  0  0  0  0  0  0  0  0  0  0  0
   -9.2726  -20.1736  -47.8969 C   0  0  0  0  0  0  0  0  0  0  0  0
  -10.4958  -19.7511  -47.3288 N   0  0  0  0  0  0  0  0  0  0  0  0
  -11.7963  -20.2000  -47.6853 C   0  0  0  0  0  0  0  0  0  0  0  0
  -12.0338  -21.0423  -48.5613 N   0  0  0  0  0  4  0  0  0  0  0  0
  -12.9429  -19.6421  -46.9827 N   0  0  0  0  0  0  0  0  0  0  0  0
  -11.3378  -16.8397  -48.4226 N   0  0  0  0  0  0  0  0  0  0  0  0
  -11.3702  -15.8745  -49.5051 C   0  0  2  0  0  0  0  0  0  0  0  0
  -12.4052  -14.8308  -49.3617 C   0  0  0  0  0  0  0  0  0  0  0  0
  -12.4727  -14.0558  -50.3968 O   0  0  0  0  0  0  0  0  0  0  0  0
  -11.4199  -16.5253  -50.8309 C   0  0  0  0  0  0  0  0  0  0  0  0
  -11.3480  -18.0060  -50.9193 C   0  0  1  0  0  0  0  0  0  0  0  0
  -10.0535  -18.6150  -50.4759 C   0  0  0  0  0  0  0  0  0  0  0  0
  -12.4143  -18.5204  -49.8880 C   0  0  0  0  0  0  0  0  0  0  0  0
  -13.2899  -14.5299  -48.3509 N   0  0  0  0  0  0  0  0  0  0  0  0
  -14.5662  -15.0072  -47.9091 C   0  0  2  0  0  0  0  0  0  0  0  0
  -15.2481  -16.0188  -48.7124 C   0  0  0  0  0  0  0  0  0  0  0  0
  -14.5239  -16.4527  -49.7136 O   0  0  0  0  0  0  0  0  0  0  0  0
  -15.4869  -13.7744  -47.6657 C   0  0  0  0  0  0  0  0  0  0  0  0
  -16.1255  -13.5165  -48.9888 C   0  0  0  0  0  0  0  0  0  0  0  0
  -15.5173  -12.8698  -50.0282 C   0  0  0  0  0  0  0  0  0  0  0  0
  -17.4308  -13.9606  -49.2359 C   0  0  0  0  0  0  0  0  0  0  0  0
  -16.1632  -12.6707  -51.2498 C   0  0  0  0  0  0  0  0  0  0  0  0
  -18.0819  -13.7730  -50.4307 C   0  0  0  0  0  0  0  0  0  0  0  0
  -17.4407  -13.1184  -51.4578 C   0  0  0  0  0  0  0  0  0  0  0  0
  -18.0735  -12.9096  -52.6886 O   0  0  0  0  0  0  0  0  0  0  0  0
  -16.4981  -16.5906  -48.6147 N   0  0  0  0  0  0  0  0  0  0  0  0
  -17.2619  -17.3025  -47.6571 C   0  0  0  0  0  0  0  0  0  0  0  0
  -17.5204  -16.7551  -46.3350 C   0  0  0  0  0  0  0  0  0  0  0  0
  -16.4842  -16.2130  -45.7894 O   0  0  0  0  0  0  0  0  0  0  0  0
  -18.6591  -16.7005  -45.5283 N   0  0  0  0  0  0  0  0  0  0  0  0
  -19.8286  -15.9071  -45.4152 C   0  0  2  0  0  0  0  0  0  0  0  0
  -20.9642  -16.8782  -45.1252 C   0  0  0  0  0  0  0  0  0  0  0  0
  -21.2850  -17.6202  -46.0789 O   0  0  0  0  0  0  0  0  0  0  0  0
  -20.1991  -14.8902  -46.3884 C   0  0  0  0  0  0  0  0  0  0  0  0
  -19.5143  -13.5848  -46.4079 C   0  0  0  0  0  0  0  0  0  0  0  0
  -18.2578  -13.4067  -46.9477 C   0  0  0  0  0  0  0  0  0  0  0  0
  -20.1457  -12.4412  -45.9176 C   0  0  0  0  0  0  0  0  0  0  0  0
  -17.6611  -12.1664  -46.9981 C   0  0  0  0  0  0  0  0  0  0  0  0
  -19.5527  -11.2102  -45.9684 C   0  0  0  0  0  0  0  0  0  0  0  0
  -18.2892  -11.0552  -46.5154 C   0  0  0  0  0  0  0  0  0  0  0  0
  -21.6394  -16.9791  -43.8913 N   0  0  0  0  0  0  0  0  0  0  0  0
  -21.4847  -16.0729  -42.7652 C   0  0  2  0  0  0  0  0  0  0  0  0
  -21.9894  -16.7852  -41.5297 C   0  0  0  0  0  0  0  0  0  0  0  0
  -22.4229  -17.9896  -41.7710 O   0  0  0  0  0  0  0  0  0  0  0  0
  -22.3061  -14.8179  -42.8549 C   0  0  0  0  0  0  0  0  0  0  0  0
  -23.5651  -14.8670  -43.6138 C   0  0  0  0  0  0  0  0  0  0  0  0
  -24.0109  -16.1199  -44.2445 C   0  0  0  0  0  0  0  0  0  0  0  0
  -22.9222  -17.2042  -44.2042 C   0  0  0  0  0  0  0  0  0  0  0  0
  -23.6242  -18.4576  -44.1243 N   0  0  0  0  0  4  0  0  0  0  0  0
  -22.0469  -16.3310  -40.2112 N   0  0  0  0  0  0  0  0  0  0  0  0
  -20.9399  -16.0332  -39.3119 C   0  0  2  0  0  0  0  0  0  0  0  0
  -20.8705  -17.2084  -38.3504 C   0  0  0  0  0  0  0  0  0  0  0  0
  -21.4780  -18.2816  -38.7514 O   0  0  0  0  0  0  0  0  0  0  0  0
  -21.2496  -14.7910  -38.5350 C   0  0  0  0  0  0  0  0  0  0  0  0
  -20.2155  -14.1758  -37.7369 C   0  0  0  0  0  0  0  0  0  0  0  0
  -20.4028  -13.2754  -36.7076 C   0  0  0  0  0  0  0  0  0  0  0  0
  -18.8411  -14.3755  -37.8037 C   0  0  0  0  0  0  0  0  0  0  0  0
  -19.2026  -12.9375  -36.1658 N   0  0  0  0  0  0  0  0  0  0  0  0
  -18.2384  -13.5939  -36.8174 C   0  0  0  0  0  0  0  0  0  0  0  0
  -18.0084  -15.1272  -38.5983 C   0  0  0  0  0  0  0  0  0  0  0  0
  -16.8647  -13.5854  -36.6529 C   0  0  0  0  0  0  0  0  0  0  0  0
  -16.6381  -15.1109  -38.4258 C   0  0  0  0  0  0  0  0  0  0  0  0
  -16.0468  -14.3411  -37.4504 C   0  0  0  0  0  0  0  0  0  0  0  0
  -20.2606  -17.2899  -37.1169 N   0  0  0  0  0  0  0  0  0  0  0  0
  -18.8724  -17.3043  -36.7188 C   0  0  2  0  0  0  0  0  0  0  0  0
  -18.6556  -18.5187  -35.8337 C   0  0  0  0  0  0  0  0  0  0  0  0
  -19.8076  -19.2330  -35.5296 O   0  0  0  0  0  0  0  0  0  0  0  0
  -18.5817  -16.0332  -35.9367 C   0  0  0  0  0  0  0  0  0  0  0  0
  -17.6990  -16.2532  -34.7728 C   0  0  0  0  0  0  0  0  0  0  0  0
  -17.6858  -15.6428  -33.5743 N   0  0  0  0  0  0  0  0  0  0  0  0
  -16.6718  -17.1784  -34.6979 C   0  0  0  0  0  0  0  0  0  0  0  0
  -16.7142  -16.1547  -32.8028 C   0  0  0  0  0  0  0  0  0  0  0  0
  -16.0786  -17.1130  -33.4975 N   0  0  0  0  0  0  0  0  0  0  0  0
  -17.8091  -18.2615  -34.7423 O   0  0  0  0  0  0  0  0  0  0  0  0
   -5.4412  -17.2949  -44.2653 C   0  0  0  0  0  0  0  0  0  0  0  0
   -8.7554  -17.3984  -41.7014 N   0  0  0  0  0  0  0  0  0  0  0  0
   -6.2292  -18.3464  -44.8906 C   0  0  0  0  0  0  0  0  0  0  0  0
   -8.3249  -17.3031  -43.0951 C   0  0  0  0  0  0  0  0  0  0  0  0
  -11.0569  -15.6339  -34.0865 O   0  0  0  0  0  1  0  0  0  0  0  0
   -8.4577  -18.6779  -43.7163 C   0  0  2  0  0  0  0  0  0  0  0  0
  -10.8456  -16.6563  -36.3193 C   0  0  0  0  0  0  0  0  0  0  0  0
  -11.8669  -17.5396  -36.1056 C   0  0  0  0  0  0  0  0  0  0  0  0
  -12.3110  -18.4840  -37.0691 C   0  0  0  0  0  0  0  0  0  0  0  0
  -11.6851  -18.5194  -38.2932 C   0  0  0  0  0  0  0  0  0  0  0  0
   -8.3691  -17.5270  -39.6139 N   0  0  0  0  0  0  0  0  0  0  0  0
  -10.2665  -16.7448  -37.5497 C   0  0  0  0  0  0  0  0  0  0  0  0
  -10.6503  -17.6606  -38.5707 C   0  0  0  0  0  0  0  0  0  0  0  0
   -9.7712  -17.5492  -39.7734 C   0  0  0  0  0  0  0  0  0  0  0  0
  -10.7229  -19.0883  -44.0979 O   0  0  0  0  0  0  0  0  0  0  0  0
   -7.2065  -19.1767  -44.2773 N   0  0  0  0  0  0  0  0  0  0  0  0
   -4.3288  -15.1433  -44.5101 C   0  0  0  0  0  0  0  0  0  0  0  0
   -9.4633  -14.9630  -35.5195 O   0  0  0  0  0  0  0  0  0  0  0  0
   -9.9484  -17.4630  -41.1274 C   0  0  0  0  0  0  0  0  0  0  0  0
  -14.7927  -28.4161  -34.6455 O   0  0  0  0  0  0  0  0  0  0  0  0
  -15.4547  -23.7165  -32.6658 O   0  0  0  0  0  0  0  0  0  0  0  0
  -18.6322  -19.9981  -33.5238 O   0  0  0  0  0  0  0  0  0  0  0  0
   -5.2785  -16.0854  -44.9924 N   0  0  0  0  0  0  0  0  0  0  0  0
   -3.3164  -15.5238  -43.4887 C   0  0  0  0  0  0  0  0  0  0  0  0
   -4.3072  -13.9525  -44.9220 O   0  0  0  0  0  0  0  0  0  0  0  0
   -6.0413  -18.5652  -46.1302 O   0  0  0  0  0  0  0  0  0  0  0  0
   -7.7968  -17.4408  -40.7371 N   0  0  0  0  0  0  0  0  0  0  0  0
  -15.1223  -20.5882  -35.9936 N   0  0  0  0  0  0  0  0  0  0  0  0
  -17.4552  -19.1377  -35.8206 N   0  0  1  0  0  4  0  0  0  0  0  0
  -17.4110  -21.9402  -33.4380 N   0  0  0  0  0  0  0  0  0  0  0  0
  -15.5127  -25.0210  -34.5286 N   0  0  0  0  0  0  0  0  0  0  0  0
  -14.2796  -26.8816  -36.2733 N   0  0  0  0  0  0  0  0  0  0  0  0
  -14.2371  -20.6356  -34.9634 N   0  0  0  0  0  0  0  0  0  0  0  0
  -13.2320  -19.9343  -35.2219 N   0  0  0  0  0  0  0  0  0  0  0  0
  -13.3957  -19.3538  -36.5030 C   0  0  0  0  0  0  0  0  0  0  0  0
  -14.6152  -19.8051  -36.9360 C   0  0  0  0  0  0  0  0  0  0  0  0
  -16.3610  -21.3670  -35.9099 C   0  0  0  0  0  0  0  0  0  0  0  0
  -17.5661  -20.5441  -35.5628 C   0  0  1  0  0  0  0  0  0  0  0  0
  -17.9051  -20.7890  -34.1368 C   0  0  0  0  0  0  0  0  0  0  0  0
  -17.2863  -23.2186  -34.0876 C   0  0  0  0  0  0  0  0  0  0  0  0
  -16.0822  -23.9792  -33.7499 C   0  0  0  0  0  0  0  0  0  0  0  0
  -14.7937  -26.1312  -33.9076 C   0  0  0  0  0  0  0  0  0  0  0  0
  -14.6329  -27.1965  -34.9170 C   0  0  0  0  0  0  0  0  0  0  0  0
  -10.4209  -15.7159  -35.3031 C   0  0  0  0  0  0  0  0  0  0  0  0
   -9.5980  -18.7967  -44.6557 C   0  0  0  0  0  0  0  0  0  0  0  0
  1  2  1  0
125  1  1  0
  2  3  1  0
  2  5  1  6
  3  4  2  0
  3 12  1  0
  5  6  1  0
  6  7  1  0
  7  8  1  0
  8  9  1  0
  9 10  2  0
  9 11  1  0
 12 13  1  0
 13 14  1  0
 13 16  1  6
 14 15  2  0
 14 20  1  0
 16 17  1  0
 17 18  1  1
 17 19  1  0
 21 20  1  0
 22 21  1  0
 21 24  1  6
 22 23  2  0
 32 22  1  0
 24 25  1  0
 25 26  2  0
 25 27  1  0
 26 28  1  0
 27 29  2  0
 28 30  2  0
 29 30  1  0
 30 31  1  0
 33 32  1  0
 34 33  1  0
 34 35  2  0
 36 34  1  0
 37 36  1  0
 38 37  1  0
 37 40  1  6
 38 39  2  0
 47 38  1  0
 40 41  1  0
 41 42  2  0
 41 43  1  0
 42 44  1  0
 43 45  2  0
 44 46  2  0
 45 46  1  0
 48 47  1  0
 49 48  1  0
 48 51  1  6
 49 50  2  0
 56 49  1  0
 51 52  1  0
 52 53  1  0
 53 54  1  0
 54 55  1  0
 57 56  1  0
 58 57  1  0
 57 60  1  1
 58 59  2  0
 70 58  1  0
 60 61  1  0
 61 62  2  0
 61 63  1  0
 62 64  1  0
 63 65  2  0
 63 66  1  0
 65 64  1  0
 65 67  1  0
 66 68  2  0
 67 69  2  0
 68 69  1  0
 71 70  1  0
 72 71  1  0
 71 74  1  1
 72 73  1  0
 80 72  1  0
109 72  1  0
 74 75  1  0
 75 76  1  0
 75 77  2  0
 76 78  2  0
 77 79  1  0
 79 78  1  0
109 80  1  1
 83 81  1  0
 81103  1  0
 82 84  1  0
 99 82  1  0
 82107  1  0
 96 83  1  0
 83106  2  0
 84 86  1  0
124 85  1  0
 86 96  1  6
 86125  1  0
 88 87  1  0
 87 92  2  0
 87124  1  0
 89 88  2  0
 89 90  1  0
115 89  1  0
 90 93  2  0
 94 91  1  0
 91107  2  0
 93 92  1  0
 93 94  1  0
 94 99  2  0
125 95  2  0
103 97  1  0
 97104  1  0
 97105  2  0
124 98  2  0
123100  2  0
121101  2  0
119102  2  0
108113  1  0
108116  1  0
117108  1  0
118109  1  0
110119  1  0
120110  1  0
111121  1  0
122111  1  0
123112  1  0
113114  2  0
115114  1  0
116115  2  0
118117  1  0
118119  1  1
121120  1  0
122123  1  0
M  CHG  4  10   1  55   1  85  -1 109   1
M  END
$$$$
