
     RDKit          3D

125134  0  0  0  0  0  0  0  0999 V2000
   -9.4507  -15.5146  -43.7283 N   0  0  0  0  0  0  0  0  0  0  0  0
   -8.2766  -16.0160  -42.9590 C   0  0  2  0  0  0  0  0  0  0  0  0
   -8.7309  -15.9675  -41.5677 C   0  0  0  0  0  0  0  0  0  0  0  0
   -9.6881  -16.8889  -41.3856 O   0  0  0  0  0  0  0  0  0  0  0  0
   -7.1348  -15.2145  -43.4331 C   0  0  0  0  0  0  0  0  0  0  0  0
   -7.2478  -13.7570  -43.4616 C   0  0  0  0  0  0  0  0  0  0  0  0
   -8.5392  -13.0737  -43.6853 C   0  0  0  0  0  0  0  0  0  0  0  0
   -9.6529  -13.3741  -42.8687 N   0  0  0  0  0  0  0  0  0  0  0  0
  -10.2078  -12.5482  -41.8540 C   0  0  0  0  0  0  0  0  0  0  0  0
  -10.9814  -11.6037  -42.0610 N   0  0  0  0  0  4  0  0  0  0  0  0
   -9.8540  -12.8153  -40.4673 N   0  0  0  0  0  0  0  0  0  0  0  0
   -8.4527  -15.2508  -40.4358 N   0  0  0  0  0  0  0  0  0  0  0  0
   -7.4277  -15.3223  -39.4118 C   0  0  2  0  0  0  0  0  0  0  0  0
   -7.8055  -16.1146  -38.2240 C   0  0  0  0  0  0  0  0  0  0  0  0
   -6.9093  -16.0645  -37.2907 O   0  0  0  0  0  0  0  0  0  0  0  0
   -6.9116  -13.9869  -39.0455 C   0  0  0  0  0  0  0  0  0  0  0  0
   -6.9828  -13.5407  -37.6309 C   0  0  1  0  0  0  0  0  0  0  0  0
   -8.3242  -13.6789  -36.9793 C   0  0  0  0  0  0  0  0  0  0  0  0
   -6.0475  -14.5320  -36.8514 C   0  0  0  0  0  0  0  0  0  0  0  0
   -8.9075  -16.8861  -37.9318 N   0  0  0  0  0  0  0  0  0  0  0  0
  -10.2403  -16.6592  -37.4584 C   0  0  2  0  0  0  0  0  0  0  0  0
  -10.6195  -15.3041  -37.0667 C   0  0  0  0  0  0  0  0  0  0  0  0
   -9.6862  -14.4189  -37.3127 O   0  0  0  0  0  0  0  0  0  0  0  0
  -10.5255  -17.6722  -36.3098 C   0  0  0  0  0  0  0  0  0  0  0  0
  -11.8759  -18.2231  -36.6225 C   0  0  0  0  0  0  0  0  0  0  0  0
  -12.9453  -18.1784  -35.7723 C   0  0  0  0  0  0  0  0  0  0  0  0
  -12.1178  -18.8238  -37.8647 C   0  0  0  0  0  0  0  0  0  0  0  0
  -14.1905  -18.6997  -36.1282 C   0  0  0  0  0  0  0  0  0  0  0  0
  -13.3357  -19.3423  -38.2316 C   0  0  0  0  0  0  0  0  0  0  0  0
  -14.3927  -19.2805  -37.3520 C   0  0  0  0  0  0  0  0  0  0  0  0
  -15.6475  -19.7987  -37.6922 O   0  0  0  0  0  0  0  0  0  0  0  0
  -11.7619  -14.7925  -36.4903 N   0  0  0  0  0  0  0  0  0  0  0  0
  -13.1534  -14.7576  -36.7540 C   0  0  0  0  0  0  0  0  0  0  0  0
  -13.9192  -15.9787  -36.9462 C   0  0  0  0  0  0  0  0  0  0  0  0
  -13.3280  -16.8457  -37.6972 O   0  0  0  0  0  0  0  0  0  0  0  0
  -15.1685  -16.4059  -36.4909 N   0  0  0  0  0  0  0  0  0  0  0  0
  -15.7197  -16.9712  -35.3133 C   0  0  2  0  0  0  0  0  0  0  0  0
  -17.0608  -16.2813  -35.1085 C   0  0  0  0  0  0  0  0  0  0  0  0
  -16.9938  -15.0789  -34.7727 O   0  0  0  0  0  0  0  0  0  0  0  0
  -14.9718  -17.1160  -34.0731 C   0  0  0  0  0  0  0  0  0  0  0  0
  -14.1362  -16.0119  -33.5669 C   0  0  0  0  0  0  0  0  0  0  0  0
  -14.2376  -14.7197  -34.0380 C   0  0  0  0  0  0  0  0  0  0  0  0
  -13.2258  -16.2239  -32.5310 C   0  0  0  0  0  0  0  0  0  0  0  0
  -13.4798  -13.6965  -33.5129 C   0  0  0  0  0  0  0  0  0  0  0  0
  -12.4742  -15.2075  -32.0101 C   0  0  0  0  0  0  0  0  0  0  0  0
  -12.5928  -13.9167  -32.4995 C   0  0  0  0  0  0  0  0  0  0  0  0
  -18.3166  -16.9015  -35.2730 N   0  0  0  0  0  0  0  0  0  0  0  0
  -18.5369  -18.3216  -35.4927 C   0  0  2  0  0  0  0  0  0  0  0  0
  -19.9214  -18.4861  -36.0798 C   0  0  0  0  0  0  0  0  0  0  0  0
  -20.5514  -17.3569  -36.2368 O   0  0  0  0  0  0  0  0  0  0  0  0
  -18.5419  -19.1546  -34.2422 C   0  0  0  0  0  0  0  0  0  0  0  0
  -17.9594  -18.5757  -33.0220 C   0  0  0  0  0  0  0  0  0  0  0  0
  -17.6232  -17.1441  -32.9592 C   0  0  0  0  0  0  0  0  0  0  0  0
  -18.0169  -16.4029  -34.2469 C   0  0  0  0  0  0  0  0  0  0  0  0
  -19.1326  -15.5676  -33.8894 N   0  0  0  0  0  4  0  0  0  0  0  0
  -20.5850  -19.6533  -36.4611 N   0  0  0  0  0  0  0  0  0  0  0  0
  -20.2591  -20.5583  -37.5555 C   0  0  2  0  0  0  0  0  0  0  0  0
  -21.2689  -20.2524  -38.6497 C   0  0  0  0  0  0  0  0  0  0  0  0
  -21.8677  -19.1075  -38.5386 O   0  0  0  0  0  0  0  0  0  0  0  0
  -20.4491  -21.9737  -37.1048 C   0  0  0  0  0  0  0  0  0  0  0  0
  -20.8343  -22.2387  -35.7387 C   0  0  0  0  0  0  0  0  0  0  0  0
  -21.1684  -23.4676  -35.2063 C   0  0  0  0  0  0  0  0  0  0  0  0
  -20.9180  -21.3443  -34.6773 C   0  0  0  0  0  0  0  0  0  0  0  0
  -21.4434  -23.3373  -33.8813 N   0  0  0  0  0  0  0  0  0  0  0  0
  -21.2985  -22.0541  -33.5379 C   0  0  0  0  0  0  0  0  0  0  0  0
  -20.7265  -19.9907  -34.5331 C   0  0  0  0  0  0  0  0  0  0  0  0
  -21.4696  -21.4157  -32.3224 C   0  0  0  0  0  0  0  0  0  0  0  0
  -20.9006  -19.3632  -33.3150 C   0  0  0  0  0  0  0  0  0  0  0  0
  -21.2733  -20.0664  -32.1925 C   0  0  0  0  0  0  0  0  0  0  0  0
  -21.6384  -21.0199  -39.7333 N   0  0  0  0  0  0  0  0  0  0  0  0
  -20.9389  -21.3996  -40.9384 C   0  0  2  0  0  0  0  0  0  0  0  0
  -21.8170  -21.0309  -42.1209 C   0  0  0  0  0  0  0  0  0  0  0  0
  -23.0753  -20.5473  -41.7858 O   0  0  0  0  0  0  0  0  0  0  0  0
  -20.7103  -22.9026  -40.9102 C   0  0  0  0  0  0  0  0  0  0  0  0
  -21.9626  -23.6821  -40.8312 C   0  0  0  0  0  0  0  0  0  0  0  0
  -23.2193  -23.3283  -41.1550 N   0  0  0  0  0  0  0  0  0  0  0  0
  -22.0774  -24.9889  -40.3889 C   0  0  0  0  0  0  0  0  0  0  0  0
  -24.0619  -24.3483  -40.9297 C   0  0  0  0  0  0  0  0  0  0  0  0
  -23.3559  -25.3869  -40.4524 N   0  0  0  0  0  0  0  0  0  0  0  0
  -21.8027  -21.9971  -43.1408 O   0  0  0  0  0  0  0  0  0  0  0  0
  -10.3673  -16.7552  -48.8141 C   0  0  0  0  0  0  0  0  0  0  0  0
  -11.0188  -19.2678  -45.8612 N   0  0  0  0  0  0  0  0  0  0  0  0
   -9.2131  -16.3918  -48.0058 C   0  0  0  0  0  0  0  0  0  0  0  0
   -9.8348  -18.5184  -45.4445 C   0  0  0  0  0  0  0  0  0  0  0  0
  -15.7117  -25.3609  -46.0487 O   0  0  0  0  0  1  0  0  0  0  0  0
  -10.0953  -17.0515  -45.7162 C   0  0  2  0  0  0  0  0  0  0  0  0
  -15.4394  -22.9786  -46.6192 C   0  0  0  0  0  0  0  0  0  0  0  0
  -16.6208  -22.3211  -46.4169 C   0  0  0  0  0  0  0  0  0  0  0  0
  -16.7128  -20.9428  -46.0861 C   0  0  0  0  0  0  0  0  0  0  0  0
  -15.5513  -20.2178  -45.9573 C   0  0  0  0  0  0  0  0  0  0  0  0
  -12.0818  -20.5073  -47.2239 N   0  0  0  0  0  0  0  0  0  0  0  0
  -14.3272  -22.2036  -46.4796 C   0  0  0  0  0  0  0  0  0  0  0  0
  -14.3314  -20.8180  -46.1502 C   0  0  0  0  0  0  0  0  0  0  0  0
  -12.9513  -20.2463  -46.1432 C   0  0  0  0  0  0  0  0  0  0  0  0
  -11.5739  -16.2621  -44.0928 O   0  0  0  0  0  0  0  0  0  0  0  0
   -9.0968  -16.4442  -46.5900 N   0  0  0  0  0  0  0  0  0  0  0  0
  -12.5224  -15.9360  -49.5960 C   0  0  0  0  0  0  0  0  0  0  0  0
  -15.0661  -24.7307  -48.1053 O   0  0  0  0  0  0  0  0  0  0  0  0
  -12.2105  -19.4520  -45.3111 C   0  0  0  0  0  0  0  0  0  0  0  0
  -19.8401  -14.5514  -47.2406 O   0  0  0  0  0  0  0  0  0  0  0  0
  -24.2745  -17.1918  -45.7024 O   0  0  0  0  0  0  0  0  0  0  0  0
  -23.8861  -21.2243  -43.9315 O   0  0  0  0  0  0  0  0  0  0  0  0
  -11.5923  -16.0936  -48.5319 N   0  0  0  0  0  0  0  0  0  0  0  0
  -12.3345  -16.6383  -50.8938 C   0  0  0  0  0  0  0  0  0  0  0  0
  -13.5368  -15.1963  -49.4866 O   0  0  0  0  0  0  0  0  0  0  0  0
   -8.1745  -15.9785  -48.6141 O   0  0  0  0  0  0  0  0  0  0  0  0
  -10.9699  -19.9340  -47.0463 N   0  0  0  0  0  0  0  0  0  0  0  0
  -20.1318  -19.6901  -45.6074 N   0  0  0  0  0  0  0  0  0  0  0  0
  -21.2520  -20.6826  -43.2973 N   0  0  1  0  0  4  0  0  0  0  0  0
  -23.7031  -20.1097  -45.9301 N   0  0  0  0  0  0  0  0  0  0  0  0
  -22.0131  -16.9445  -45.7045 N   0  0  0  0  0  0  0  0  0  0  0  0
  -19.4387  -16.6320  -46.3587 N   0  0  0  0  0  0  0  0  0  0  0  0
  -20.1755  -20.3860  -46.7740 N   0  0  0  0  0  0  0  0  0  0  0  0
  -19.0505  -20.8727  -47.0317 N   0  0  0  0  0  0  0  0  0  0  0  0
  -18.1475  -20.5086  -46.0035 C   0  0  0  0  0  0  0  0  0  0  0  0
  -18.8965  -19.7633  -45.1308 C   0  0  0  0  0  0  0  0  0  0  0  0
  -21.3406  -19.0104  -45.1333 C   0  0  0  0  0  0  0  0  0  0  0  0
  -22.0473  -19.7406  -44.0300 C   0  0  1  0  0  0  0  0  0  0  0  0
  -23.2482  -20.4034  -44.6017 C   0  0  0  0  0  0  0  0  0  0  0  0
  -23.1439  -19.0255  -46.6943 C   0  0  0  0  0  0  0  0  0  0  0  0
  -23.1564  -17.7199  -46.0328 C   0  0  0  0  0  0  0  0  0  0  0  0
  -21.7719  -15.6425  -46.3223 C   0  0  0  0  0  0  0  0  0  0  0  0
  -20.3389  -15.5558  -46.6667 C   0  0  0  0  0  0  0  0  0  0  0  0
  -15.3944  -24.3845  -46.9638 C   0  0  0  0  0  0  0  0  0  0  0  0
  -10.3479  -16.2570  -44.4907 C   0  0  0  0  0  0  0  0  0  0  0  0
  1  2  1  0
125  1  1  0
  2  3  1  0
  2  5  1  1
  3  4  2  0
  3 12  1  0
  5  6  1  0
  6  7  1  0
  7  8  1  0
  8  9  1  0
  9 10  2  0
  9 11  1  0
 12 13  1  0
 13 14  1  0
 13 16  1  1
 14 15  2  0
 14 20  1  0
 16 17  1  0
 17 18  1  1
 17 19  1  0
 21 20  1  0
 22 21  1  0
 21 24  1  1
 22 23  2  0
 32 22  1  0
 24 25  1  0
 25 26  2  0
 25 27  1  0
 26 28  1  0
 27 29  2  0
 28 30  2  0
 29 30  1  0
 30 31  1  0
 33 32  1  0
 34 33  1  0
 34 35  2  0
 36 34  1  0
 37 36  1  0
 38 37  1  0
 37 40  1  1
 38 39  2  0
 47 38  1  0
 40 41  1  0
 41 42  2  0
 41 43  1  0
 42 44  1  0
 43 45  2  0
 44 46  2  0
 45 46  1  0
 48 47  1  0
 49 48  1  0
 48 51  1  1
 49 50  2  0
 56 49  1  0
 51 52  1  0
 52 53  1  0
 53 54  1  0
 54 55  1  0
 57 56  1  0
 58 57  1  0
 57 60  1  1
 58 59  2  0
 70 58  1  0
 60 61  1  0
 61 62  2  0
 61 63  1  0
 62 64  1  0
 63 65  2  0
 63 66  1  0
 65 64  1  0
 65 67  1  0
 66 68  2  0
 67 69  2  0
 68 69  1  0
 71 70  1  0
 72 71  1  0
 71 74  1  1
 72 73  1  0
 80 72  1  0
109 72  1  0
 74 75  1  0
 75 76  1  0
 75 77  2  0
 76 78  2  0
 77 79  1  0
 79 78  1  0
109 80  1  6
 83 81  1  0
 81103  1  0
 82 84  1  0
 99 82  1  0
 82107  1  0
 96 83  1  0
 83106  2  0
 84 86  1  0
124 85  1  0
 86 96  1  1
 86125  1  0
 88 87  1  0
 87 92  2  0
 87124  1  0
 89 88  2  0
 89 90  1  0
115 89  1  0
 90 93  2  0
 94 91  1  0
 91107  2  0
 93 92  1  0
 93 94  1  0
 94 99  2  0
125 95  2  0
103 97  1  0
 97104  1  0
 97105  2  0
124 98  2  0
123100  2  0
121101  2  0
119102  2  0
108113  1  0
108116  1  0
117108  1  0
118109  1  0
110119  1  0
120110  1  0
111121  1  0
122111  1  0
123112  1  0
113114  2  0
115114  1  0
116115  2  0
118117  1  0
118119  1  6
121120  1  0
122123  1  0
M  CHG  4  10   1  55   1  85  -1 109   1
M  END
$$$$
