
     RDKit          3D

125134  0  0  0  0  0  0  0  0999 V2000
  -21.8571  -12.1630  -45.3663 N   0  0  0  0  0  0  0  0  0  0  0  0
  -22.0299  -10.8129  -44.7589 C   0  0  2  0  0  0  0  0  0  0  0  0
  -21.7688  -11.0399  -43.3360 C   0  0  0  0  0  0  0  0  0  0  0  0
  -20.4713  -11.3354  -43.1690 O   0  0  0  0  0  0  0  0  0  0  0  0
  -23.3373  -10.3370  -45.2438 C   0  0  0  0  0  0  0  0  0  0  0  0
  -24.5014  -10.4263  -44.3635 C   0  0  0  0  0  0  0  0  0  0  0  0
  -24.4858  -11.2239  -43.1193 C   0  0  0  0  0  0  0  0  0  0  0  0
  -23.4064  -11.1080  -42.2145 N   0  0  0  0  0  0  0  0  0  0  0  0
  -22.9926  -12.0759  -41.2596 C   0  0  0  0  0  0  0  0  0  0  0  0
  -23.7260  -12.5630  -40.3890 N   0  0  0  0  0  4  0  0  0  0  0  0
  -21.6130  -12.5401  -41.2910 N   0  0  0  0  0  0  0  0  0  0  0  0
  -22.4743  -11.0371  -42.1637 N   0  0  0  0  0  0  0  0  0  0  0  0
  -22.9193  -10.0055  -41.2459 C   0  0  2  0  0  0  0  0  0  0  0  0
  -21.9983   -9.7519  -40.1194 C   0  0  0  0  0  0  0  0  0  0  0  0
  -22.4808   -8.9045  -39.2675 O   0  0  0  0  0  0  0  0  0  0  0  0
  -24.3066  -10.2276  -40.7878 C   0  0  0  0  0  0  0  0  0  0  0  0
  -24.7099   -9.7678  -39.4346 C   0  0  1  0  0  0  0  0  0  0  0  0
  -23.6357   -9.8155  -38.3920 C   0  0  0  0  0  0  0  0  0  0  0  0
  -25.0379   -8.2427  -39.6117 C   0  0  0  0  0  0  0  0  0  0  0  0
  -20.7453  -10.2337  -39.8150 N   0  0  0  0  0  0  0  0  0  0  0  0
  -20.2032  -11.4116  -39.2064 C   0  0  2  0  0  0  0  0  0  0  0  0
  -21.1268  -12.3931  -38.6432 C   0  0  0  0  0  0  0  0  0  0  0  0
  -22.3836  -12.1070  -38.8751 O   0  0  0  0  0  0  0  0  0  0  0  0
  -19.1473  -10.9690  -38.1499 C   0  0  0  0  0  0  0  0  0  0  0  0
  -19.0315  -12.1335  -37.2250 C   0  0  0  0  0  0  0  0  0  0  0  0
  -19.9555  -12.4589  -36.2718 C   0  0  0  0  0  0  0  0  0  0  0  0
  -17.9258  -12.9893  -37.3101 C   0  0  0  0  0  0  0  0  0  0  0  0
  -19.7978  -13.5719  -35.4438 C   0  0  0  0  0  0  0  0  0  0  0  0
  -17.7538  -14.0879  -36.5037 C   0  0  0  0  0  0  0  0  0  0  0  0
  -18.7037  -14.3883  -35.5539 C   0  0  0  0  0  0  0  0  0  0  0  0
  -18.5611  -15.4996  -34.7152 O   0  0  0  0  0  0  0  0  0  0  0  0
  -20.9225  -13.5476  -37.9191 N   0  0  0  0  0  0  0  0  0  0  0  0
  -20.2183  -14.7693  -38.0557 C   0  0  0  0  0  0  0  0  0  0  0  0
  -18.7864  -14.7947  -38.3076 C   0  0  0  0  0  0  0  0  0  0  0  0
  -18.4032  -13.9386  -39.1940 O   0  0  0  0  0  0  0  0  0  0  0  0
  -17.7380  -15.5603  -37.7927 N   0  0  0  0  0  0  0  0  0  0  0  0
  -16.9162  -15.5732  -36.6375 C   0  0  2  0  0  0  0  0  0  0  0  0
  -16.7716  -17.0368  -36.2456 C   0  0  0  0  0  0  0  0  0  0  0  0
  -17.8076  -17.5701  -35.7926 O   0  0  0  0  0  0  0  0  0  0  0  0
  -17.1418  -14.7080  -35.4891 C   0  0  0  0  0  0  0  0  0  0  0  0
  -17.4424  -15.2814  -34.1646 C   0  0  0  0  0  0  0  0  0  0  0  0
  -18.4969  -16.1422  -33.9435 C   0  0  0  0  0  0  0  0  0  0  0  0
  -16.6226  -15.0117  -33.0683 C   0  0  0  0  0  0  0  0  0  0  0  0
  -18.7260  -16.7031  -32.7066 C   0  0  0  0  0  0  0  0  0  0  0  0
  -16.8505  -15.5693  -31.8408 C   0  0  0  0  0  0  0  0  0  0  0  0
  -17.9166  -16.4316  -31.6420 C   0  0  0  0  0  0  0  0  0  0  0  0
  -15.5832  -17.7866  -36.3644 N   0  0  0  0  0  0  0  0  0  0  0  0
  -14.2766  -17.2523  -36.7120 C   0  0  2  0  0  0  0  0  0  0  0  0
  -13.4216  -18.4050  -37.1904 C   0  0  0  0  0  0  0  0  0  0  0  0
  -14.0436  -19.5493  -37.1727 O   0  0  0  0  0  0  0  0  0  0  0  0
  -13.5182  -16.6559  -35.5601 C   0  0  0  0  0  0  0  0  0  0  0  0
  -14.0932  -16.7828  -34.2123 C   0  0  0  0  0  0  0  0  0  0  0  0
  -15.4923  -17.2029  -34.0316 C   0  0  0  0  0  0  0  0  0  0  0  0
  -15.8928  -18.3117  -35.0180 C   0  0  0  0  0  0  0  0  0  0  0  0
  -16.5004  -19.3424  -34.2189 N   0  0  0  0  0  4  0  0  0  0  0  0
  -12.0978  -18.3973  -37.6329 N   0  0  0  0  0  0  0  0  0  0  0  0
  -11.5552  -17.7886  -38.8404 C   0  0  2  0  0  0  0  0  0  0  0  0
  -11.3191  -18.9399  -39.8044 C   0  0  0  0  0  0  0  0  0  0  0  0
  -11.9597  -20.0314  -39.5222 O   0  0  0  0  0  0  0  0  0  0  0  0
  -10.2403  -17.1446  -38.5258 C   0  0  0  0  0  0  0  0  0  0  0  0
  -10.1484  -16.2202  -37.4205 C   0  0  0  0  0  0  0  0  0  0  0  0
  -10.4725  -14.8787  -37.4463 C   0  0  0  0  0  0  0  0  0  0  0  0
   -9.7566  -16.4775  -36.1114 C   0  0  0  0  0  0  0  0  0  0  0  0
  -10.2905  -14.3361  -36.2132 N   0  0  0  0  0  0  0  0  0  0  0  0
   -9.8544  -15.2900  -35.3854 C   0  0  0  0  0  0  0  0  0  0  0  0
   -9.3107  -17.5872  -35.4335 C   0  0  0  0  0  0  0  0  0  0  0  0
   -9.5184  -15.2428  -34.0441 C   0  0  0  0  0  0  0  0  0  0  0  0
   -8.9775  -17.5289  -34.0944 C   0  0  0  0  0  0  0  0  0  0  0  0
   -9.0776  -16.3569  -33.3804 C   0  0  0  0  0  0  0  0  0  0  0  0
  -10.5197  -18.9865  -40.9264 N   0  0  0  0  0  0  0  0  0  0  0  0
  -10.6248  -18.3550  -42.2209 C   0  0  2  0  0  0  0  0  0  0  0  0
  -10.5160  -19.4400  -43.2774 C   0  0  0  0  0  0  0  0  0  0  0  0
  -10.2362  -20.7085  -42.7852 O   0  0  0  0  0  0  0  0  0  0  0  0
   -9.4781  -17.3677  -42.3705 C   0  0  0  0  0  0  0  0  0  0  0  0
   -9.5361  -16.2547  -41.4010 C   0  0  0  0  0  0  0  0  0  0  0  0
   -8.7665  -15.1558  -41.3041 N   0  0  0  0  0  0  0  0  0  0  0  0
  -10.4425  -16.1313  -40.3619 C   0  0  0  0  0  0  0  0  0  0  0  0
   -9.1676  -14.3970  -40.2724 C   0  0  0  0  0  0  0  0  0  0  0  0
  -10.2127  -14.9995  -39.6811 N   0  0  0  0  0  0  0  0  0  0  0  0
   -9.7518  -19.0513  -44.3903 O   0  0  0  0  0  0  0  0  0  0  0  0
  -23.4338  -11.7732  -46.7634 C   0  0  0  0  0  0  0  0  0  0  0  0
  -17.9418  -11.7804  -47.7368 N   0  0  0  0  0  0  0  0  0  0  0  0
  -22.7603  -11.9512  -48.0411 C   0  0  0  0  0  0  0  0  0  0  0  0
  -19.1901  -11.1262  -47.3483 C   0  0  0  0  0  0  0  0  0  0  0  0
  -10.8754  -11.7704  -48.3550 O   0  0  0  0  0  1  0  0  0  0  0  0
  -20.2997  -12.1528  -47.4409 C   0  0  2  0  0  0  0  0  0  0  0  0
  -12.4772  -13.6387  -48.4926 C   0  0  0  0  0  0  0  0  0  0  0  0
  -12.3910  -14.9512  -48.1205 C   0  0  0  0  0  0  0  0  0  0  0  0
  -13.4904  -15.7115  -47.6401 C   0  0  0  0  0  0  0  0  0  0  0  0
  -14.7183  -15.1007  -47.5375 C   0  0  0  0  0  0  0  0  0  0  0  0
  -16.3848  -12.1973  -49.1243 N   0  0  0  0  0  0  0  0  0  0  0  0
  -13.7204  -13.0942  -48.3697 C   0  0  0  0  0  0  0  0  0  0  0  0
  -14.8731  -13.7847  -47.8976 C   0  0  0  0  0  0  0  0  0  0  0  0
  -16.0939  -12.9253  -47.9508 C   0  0  0  0  0  0  0  0  0  0  0  0
  -20.1054  -13.6006  -45.6212 O   0  0  0  0  0  0  0  0  0  0  0  0
  -21.3834  -11.7468  -48.3296 N   0  0  0  0  0  0  0  0  0  0  0  0
  -25.4867  -11.2363  -45.5701 C   0  0  0  0  0  0  0  0  0  0  0  0
  -10.7329  -13.2973  -49.9955 O   0  0  0  0  0  0  0  0  0  0  0  0
  -17.1252  -12.6135  -47.1075 C   0  0  0  0  0  0  0  0  0  0  0  0
  -10.5949  -18.0793  -53.4229 O   0  0  0  0  0  0  0  0  0  0  0  0
   -9.1368  -19.5966  -48.7844 O   0  0  0  0  0  0  0  0  0  0  0  0
   -9.5867  -21.8376  -44.7710 O   0  0  0  0  0  0  0  0  0  0  0  0
  -24.7643  -11.2762  -46.7943 N   0  0  0  0  0  0  0  0  0  0  0  0
  -24.8575  -11.6587  -44.2900 C   0  0  0  0  0  0  0  0  0  0  0  0
  -26.6843  -10.8475  -45.5186 O   0  0  0  0  0  0  0  0  0  0  0  0
  -23.4638  -12.3363  -49.0292 O   0  0  0  0  0  0  0  0  0  0  0  0
  -17.4562  -11.5420  -48.9850 N   0  0  0  0  0  0  0  0  0  0  0  0
  -12.6968  -19.1817  -46.7372 N   0  0  0  0  0  0  0  0  0  0  0  0
  -11.1621  -19.3011  -44.4553 N   0  0  1  0  0  4  0  0  0  0  0  0
  -10.1432  -21.3999  -46.9548 N   0  0  0  0  0  0  0  0  0  0  0  0
  -10.8714  -19.7120  -50.2519 N   0  0  0  0  0  0  0  0  0  0  0  0
  -12.2614  -19.3691  -52.5136 N   0  0  0  0  0  0  0  0  0  0  0  0
  -12.1358  -19.0031  -47.9621 N   0  0  0  0  0  0  0  0  0  0  0  0
  -12.3383  -17.8350  -48.3663 N   0  0  0  0  0  0  0  0  0  0  0  0
  -13.0853  -17.1348  -47.3880 C   0  0  0  0  0  0  0  0  0  0  0  0
  -13.2761  -18.0436  -46.3801 C   0  0  0  0  0  0  0  0  0  0  0  0
  -12.6031  -20.4939  -46.0911 C   0  0  0  0  0  0  0  0  0  0  0  0
  -11.5621  -20.5603  -45.0132 C   0  0  1  0  0  0  0  0  0  0  0  0
  -10.3843  -21.2943  -45.5447 C   0  0  0  0  0  0  0  0  0  0  0  0
  -11.0079  -20.7664  -47.9155 C   0  0  0  0  0  0  0  0  0  0  0  0
  -10.3280  -20.0230  -48.9774 C   0  0  0  0  0  0  0  0  0  0  0  0
  -10.1026  -18.9684  -51.2474 C   0  0  0  0  0  0  0  0  0  0  0  0
  -10.9576  -18.7714  -52.4348 C   0  0  0  0  0  0  0  0  0  0  0  0
  -11.3299  -12.9051  -48.9854 C   0  0  0  0  0  0  0  0  0  0  0  0
  -20.7829  -12.6247  -46.1215 C   0  0  0  0  0  0  0  0  0  0  0  0
  1  2  1  0
125  1  1  0
  2  3  1  0
  2  5  1  1
  3  4  2  0
  3 12  1  0
  5  6  1  0
  6  7  1  0
  7  8  1  0
  8  9  1  0
  9 10  2  0
  9 11  1  0
 12 13  1  0
 13 14  1  0
 13 16  1  1
 14 15  2  0
 14 20  1  0
 16 17  1  0
 17 18  1  1
 17 19  1  0
 21 20  1  0
 22 21  1  0
 21 24  1  1
 22 23  2  0
 32 22  1  0
 24 25  1  0
 25 26  2  0
 25 27  1  0
 26 28  1  0
 27 29  2  0
 28 30  2  0
 29 30  1  0
 30 31  1  0
 33 32  1  0
 34 33  1  0
 34 35  2  0
 36 34  1  0
 37 36  1  0
 38 37  1  0
 37 40  1  1
 38 39  2  0
 47 38  1  0
 40 41  1  0
 41 42  2  0
 41 43  1  0
 42 44  1  0
 43 45  2  0
 44 46  2  0
 45 46  1  0
 48 47  1  0
 49 48  1  0
 48 51  1  1
 49 50  2  0
 56 49  1  0
 51 52  1  0
 52 53  1  0
 53 54  1  0
 54 55  1  0
 57 56  1  0
 58 57  1  0
 57 60  1  1
 58 59  2  0
 70 58  1  0
 60 61  1  0
 61 62  2  0
 61 63  1  0
 62 64  1  0
 63 65  2  0
 63 66  1  0
 65 64  1  0
 65 67  1  0
 66 68  2  0
 67 69  2  0
 68 69  1  0
 71 70  1  0
 72 71  1  0
 71 74  1  6
 72 73  1  0
 80 72  1  0
109 72  1  0
 74 75  1  0
 75 76  1  0
 75 77  2  0
 76 78  2  0
 77 79  1  0
 79 78  1  0
109 80  1  6
 83 81  1  0
 81103  1  0
 82 84  1  0
 99 82  1  0
 82107  1  0
 96 83  1  0
 83106  2  0
 84 86  1  0
124 85  1  0
 86 96  1  1
 86125  1  0
 88 87  1  0
 87 92  2  0
 87124  1  0
 89 88  2  0
 89 90  1  0
115 89  1  0
 90 93  2  0
 94 91  1  0
 91107  2  0
 93 92  1  0
 93 94  1  0
 94 99  2  0
125 95  2  0
103 97  1  0
 97104  1  0
 97105  2  0
124 98  2  0
123100  2  0
121101  2  0
119102  2  0
108113  1  0
108116  1  0
117108  1  0
118109  1  0
110119  1  0
120110  1  0
111121  1  0
122111  1  0
123112  1  0
113114  2  0
115114  1  0
116115  2  0
118117  1  0
118119  1  6
121120  1  0
122123  1  0
M  CHG  4  10   1  55   1  85  -1 109   1
M  END
$$$$
