
     RDKit          3D

 24 27  0  0  0  0  0  0  0  0999 V2000
   91.7859   94.4480  -42.4887 N   0  0  0  0  0  0  0  0  0  0  0  0
   91.4957   95.7547  -42.4556 C   0  0  0  0  0  0  0  0  0  0  0  0
   91.1540   96.1176  -43.7337 C   0  0  0  0  0  0  0  0  0  0  0  0
   90.7931   97.4241  -44.0496 C   0  0  0  0  0  0  0  0  0  0  0  0
   90.7864   98.3702  -43.0221 C   0  0  0  0  0  0  0  0  0  0  0  0
   91.1252   98.0305  -41.7319 C   0  0  0  0  0  0  0  0  0  0  0  0
   91.4766   96.7280  -41.4584 C   0  0  0  0  0  0  0  0  0  0  0  0
   90.4059   99.7448  -43.3579 C   0  0  0  0  0  0  0  0  0  0  0  0
   91.6378   93.9799  -43.7438 C   0  0  0  0  0  0  0  0  0  0  0  0
   91.2348   95.0124  -44.5741 C   0  0  0  0  0  0  0  0  0  0  0  0
   91.0021   94.8277  -45.9293 C   0  0  0  0  0  0  0  0  0  0  0  0
   91.1773   93.5842  -46.4587 C   0  0  0  0  0  0  0  0  0  0  0  0
   91.5780   92.5478  -45.6441 C   0  0  0  0  0  0  0  0  0  0  0  0
   91.8071   92.7222  -44.3189 C   0  0  0  0  0  0  0  0  0  0  0  0
   92.1974   93.6390  -41.3659 C   0  0  0  0  0  0  0  0  0  0  0  0
   91.7424   91.2316  -46.3088 C   0  0  0  0  0  0  0  0  0  0  0  0
   91.2580   90.8583  -47.5386 C   0  0  0  0  0  0  0  0  0  0  0  0
   91.5267   89.6098  -47.9480 C   0  0  0  0  0  0  0  0  0  0  0  0
   92.2586   88.8159  -47.1080 C   0  0  0  0  0  0  0  0  0  0  0  0
   92.5500   89.8336  -45.7732 S   0  0  0  0  0  0  0  0  0  0  0  0
   91.0645   89.0393  -49.2822 C   0  0  0  0  0  0  0  0  0  0  0  0
   93.6965   93.5944  -41.2028 C   0  0  0  0  0  0  0  0  0  0  0  0
   91.3933  100.6470  -42.8199 N   0  0  0  0  0  4  0  0  0  0  0  0
   90.9875  101.9997  -43.1605 C   0  0  0  0  0  0  0  0  0  0  0  0
  1  2  1  0
  1  9  1  0
  1 15  1  0
  2  3  2  0
  2  7  1  0
  3  4  1  0
  3 10  1  0
  4  5  2  0
  5  6  1  0
  5  8  1  0
  6  7  2  0
  8 23  1  0
  9 10  2  0
  9 14  1  0
 10 11  1  0
 11 12  2  0
 12 13  1  0
 13 14  2  0
 13 16  1  0
 15 22  1  0
 16 17  2  0
 16 20  1  0
 17 18  1  0
 18 19  2  0
 18 21  1  0
 19 20  1  0
 23 24  1  0
M  CHG  1  23   1
M  END
$$$$
