
     RDKit          3D

 24 27  0  0  0  0  0  0  0  0999 V2000
   92.2501   94.0833  -42.9580 N   0  0  0  0  0  0  0  0  0  0  0  0
   92.1291   95.3505  -42.5428 C   0  0  0  0  0  0  0  0  0  0  0  0
   91.6126   96.0647  -43.5940 C   0  0  0  0  0  0  0  0  0  0  0  0
   91.3608   97.4299  -43.4951 C   0  0  0  0  0  0  0  0  0  0  0  0
   91.6496   98.0650  -42.2851 C   0  0  0  0  0  0  0  0  0  0  0  0
   92.1681   97.3700  -41.2161 C   0  0  0  0  0  0  0  0  0  0  0  0
   92.4037   96.0207  -41.3521 C   0  0  0  0  0  0  0  0  0  0  0  0
   91.3833   99.5023  -42.1842 C   0  0  0  0  0  0  0  0  0  0  0  0
   91.8271   93.9792  -44.2334 C   0  0  0  0  0  0  0  0  0  0  0  0
   91.4103   95.2215  -44.6814 C   0  0  0  0  0  0  0  0  0  0  0  0
   90.9208   95.4225  -45.9640 C   0  0  0  0  0  0  0  0  0  0  0  0
   90.8492   94.3567  -46.8103 C   0  0  0  0  0  0  0  0  0  0  0  0
   91.2606   93.1150  -46.3777 C   0  0  0  0  0  0  0  0  0  0  0  0
   91.7398   92.9124  -45.1253 C   0  0  0  0  0  0  0  0  0  0  0  0
   92.7538   92.9770  -42.1790 C   0  0  0  0  0  0  0  0  0  0  0  0
   91.1457   92.0163  -47.3680 C   0  0  0  0  0  0  0  0  0  0  0  0
   91.4753   90.6959  -47.1825 C   0  0  0  0  0  0  0  0  0  0  0  0
   91.2893   89.8679  -48.2209 C   0  0  0  0  0  0  0  0  0  0  0  0
   90.7884   90.4073  -49.3740 C   0  0  0  0  0  0  0  0  0  0  0  0
   90.5917   92.0520  -48.9759 S   0  0  0  0  0  0  0  0  0  0  0  0
   91.6034   88.3783  -48.1817 C   0  0  0  0  0  0  0  0  0  0  0  0
   91.6612   92.2426  -41.4422 C   0  0  0  0  0  0  0  0  0  0  0  0
   90.0444   99.6950  -41.6854 N   0  0  0  0  0  4  0  0  0  0  0  0
   89.8368  101.1231  -41.5184 C   0  0  0  0  0  0  0  0  0  0  0  0
  1  2  1  0
  1  9  1  0
  1 15  1  0
  2  3  2  0
  2  7  1  0
  3  4  1  0
  3 10  1  0
  4  5  2  0
  5  6  1  0
  5  8  1  0
  6  7  2  0
  8 23  1  0
  9 10  2  0
  9 14  1  0
 10 11  1  0
 11 12  2  0
 12 13  1  0
 13 14  2  0
 13 16  1  0
 15 22  1  0
 16 17  2  0
 16 20  1  0
 17 18  1  0
 18 19  2  0
 18 21  1  0
 19 20  1  0
 23 24  1  0
M  CHG  1  23   1
M  END
$$$$
