
     RDKit          3D

 24 27  0  0  0  0  0  0  0  0999 V2000
   91.8542   93.7028  -42.6798 N   0  0  0  0  0  0  0  0  0  0  0  0
   91.8153   94.9824  -42.2873 C   0  0  0  0  0  0  0  0  0  0  0  0
   91.5147   95.7290  -43.3982 C   0  0  0  0  0  0  0  0  0  0  0  0
   91.3973   97.1145  -43.3365 C   0  0  0  0  0  0  0  0  0  0  0  0
   91.5950   97.7359  -42.1013 C   0  0  0  0  0  0  0  0  0  0  0  0
   91.8974   97.0084  -40.9726 C   0  0  0  0  0  0  0  0  0  0  0  0
   92.0052   95.6399  -41.0733 C   0  0  0  0  0  0  0  0  0  0  0  0
   91.4706   99.1946  -42.0397 C   0  0  0  0  0  0  0  0  0  0  0  0
   91.5883   93.6223  -43.9986 C   0  0  0  0  0  0  0  0  0  0  0  0
   91.3648   94.8937  -44.5000 C   0  0  0  0  0  0  0  0  0  0  0  0
   91.0663   95.1233  -45.8354 C   0  0  0  0  0  0  0  0  0  0  0  0
   90.9912   94.0570  -46.6807 C   0  0  0  0  0  0  0  0  0  0  0  0
   91.2114   92.7865  -46.1952 C   0  0  0  0  0  0  0  0  0  0  0  0
   91.5035   92.5559  -44.8911 C   0  0  0  0  0  0  0  0  0  0  0  0
   92.1356   92.5632  -41.8393 C   0  0  0  0  0  0  0  0  0  0  0  0
   91.1085   91.6896  -47.1887 C   0  0  0  0  0  0  0  0  0  0  0  0
   91.1545   90.3396  -46.9401 C   0  0  0  0  0  0  0  0  0  0  0  0
   91.0409   89.5197  -47.9953 C   0  0  0  0  0  0  0  0  0  0  0  0
   90.8892   90.0960  -49.2267 C   0  0  0  0  0  0  0  0  0  0  0  0
   90.9095   91.7631  -48.8765 S   0  0  0  0  0  0  0  0  0  0  0  0
   91.0719   88.0005  -47.8932 C   0  0  0  0  0  0  0  0  0  0  0  0
   93.6123   92.2746  -41.7303 C   0  0  0  0  0  0  0  0  0  0  0  0
   90.1121   99.5330  -41.6956 N   0  0  0  0  0  4  0  0  0  0  0  0
   90.1427  100.7812  -40.9531 C   0  0  0  0  0  0  0  0  0  0  0  0
  1  2  1  0
  1  9  1  0
  1 15  1  0
  2  3  2  0
  2  7  1  0
  3  4  1  0
  3 10  1  0
  4  5  2  0
  5  6  1  0
  5  8  1  0
  6  7  2  0
  8 23  1  0
  9 10  2  0
  9 14  1  0
 10 11  1  0
 11 12  2  0
 12 13  1  0
 13 14  2  0
 13 16  1  0
 15 22  1  0
 16 17  2  0
 16 20  1  0
 17 18  1  0
 18 19  2  0
 18 21  1  0
 19 20  1  0
 23 24  1  0
M  CHG  1  23   1
M  END
$$$$
