
     RDKit          3D

 24 27  0  0  0  0  0  0  0  0999 V2000
   91.6132   96.7067  -42.8064 N   0  0  0  0  0  0  0  0  0  0  0  0
   91.0118   97.3006  -43.8449 C   0  0  0  0  0  0  0  0  0  0  0  0
   90.7081   96.3118  -44.7460 C   0  0  0  0  0  0  0  0  0  0  0  0
   90.0698   96.5928  -45.9503 C   0  0  0  0  0  0  0  0  0  0  0  0
   89.7408   97.9223  -46.2246 C   0  0  0  0  0  0  0  0  0  0  0  0
   90.0350   98.9319  -45.3364 C   0  0  0  0  0  0  0  0  0  0  0  0
   90.6670   98.6147  -44.1554 C   0  0  0  0  0  0  0  0  0  0  0  0
   89.0688   98.2148  -47.4934 C   0  0  0  0  0  0  0  0  0  0  0  0
   91.6968   95.3796  -43.0262 C   0  0  0  0  0  0  0  0  0  0  0  0
   91.1307   95.0813  -44.2543 C   0  0  0  0  0  0  0  0  0  0  0  0
   91.0724   93.7868  -44.7503 C   0  0  0  0  0  0  0  0  0  0  0  0
   91.5919   92.7755  -43.9991 C   0  0  0  0  0  0  0  0  0  0  0  0
   92.1582   93.0580  -42.7753 C   0  0  0  0  0  0  0  0  0  0  0  0
   92.2180   94.3211  -42.2853 C   0  0  0  0  0  0  0  0  0  0  0  0
   92.1069   97.3637  -41.6194 C   0  0  0  0  0  0  0  0  0  0  0  0
   92.6970   91.8940  -42.0298 C   0  0  0  0  0  0  0  0  0  0  0  0
   92.5796   90.5677  -42.3671 C   0  0  0  0  0  0  0  0  0  0  0  0
   93.1481   89.6750  -41.5435 C   0  0  0  0  0  0  0  0  0  0  0  0
   93.7950   90.1598  -40.4399 C   0  0  0  0  0  0  0  0  0  0  0  0
   93.5913   91.8451  -40.5837 S   0  0  0  0  0  0  0  0  0  0  0  0
   93.1103   88.1698  -41.7716 C   0  0  0  0  0  0  0  0  0  0  0  0
   90.9991   97.9419  -40.7743 C   0  0  0  0  0  0  0  0  0  0  0  0
   87.6870   98.5294  -47.2279 N   0  0  0  0  0  4  0  0  0  0  0  0
   87.0751   98.9250  -48.4846 C   0  0  0  0  0  0  0  0  0  0  0  0
  1  2  1  0
  1  9  1  0
  1 15  1  0
  2  3  2  0
  2  7  1  0
  3  4  1  0
  3 10  1  0
  4  5  2  0
  5  6  1  0
  5  8  1  0
  6  7  2  0
  8 23  1  0
  9 10  2  0
  9 14  1  0
 10 11  1  0
 11 12  2  0
 12 13  1  0
 13 14  2  0
 13 16  1  0
 15 22  1  0
 16 17  2  0
 16 20  1  0
 17 18  1  0
 18 19  2  0
 18 21  1  0
 19 20  1  0
 23 24  1  0
M  CHG  1  23   1
M  END
$$$$
