
     RDKit          3D

 24 27  0  0  0  0  0  0  0  0999 V2000
   91.9930   94.0888  -42.8803 N   0  0  0  0  0  0  0  0  0  0  0  0
   91.8083   95.3491  -42.4674 C   0  0  0  0  0  0  0  0  0  0  0  0
   91.2121   96.0225  -43.5032 C   0  0  0  0  0  0  0  0  0  0  0  0
   90.8797   97.3702  -43.4023 C   0  0  0  0  0  0  0  0  0  0  0  0
   91.1708   98.0306  -42.2064 C   0  0  0  0  0  0  0  0  0  0  0  0
   91.7686   97.3766  -41.1530 C   0  0  0  0  0  0  0  0  0  0  0  0
   92.0825   96.0435  -41.2906 C   0  0  0  0  0  0  0  0  0  0  0  0
   90.8196   99.4494  -42.1033 C   0  0  0  0  0  0  0  0  0  0  0  0
   91.5329   93.9497  -44.1394 C   0  0  0  0  0  0  0  0  0  0  0  0
   91.0244   95.1607  -44.5785 C   0  0  0  0  0  0  0  0  0  0  0  0
   90.4787   95.3218  -45.8440 C   0  0  0  0  0  0  0  0  0  0  0  0
   90.4437   94.2476  -46.6818 C   0  0  0  0  0  0  0  0  0  0  0  0
   90.9462   93.0368  -46.2579 C   0  0  0  0  0  0  0  0  0  0  0  0
   91.4806   92.8732  -45.0223 C   0  0  0  0  0  0  0  0  0  0  0  0
   92.5914   93.0214  -42.1141 C   0  0  0  0  0  0  0  0  0  0  0  0
   90.8649   91.9261  -47.2380 C   0  0  0  0  0  0  0  0  0  0  0  0
   91.6337   90.7882  -47.2663 C   0  0  0  0  0  0  0  0  0  0  0  0
   91.3885   89.9093  -48.2490 C   0  0  0  0  0  0  0  0  0  0  0  0
   90.3959   90.2197  -49.1378 C   0  0  0  0  0  0  0  0  0  0  0  0
   89.8346   91.7272  -48.5768 S   0  0  0  0  0  0  0  0  0  0  0  0
   92.1487   88.6013  -48.4231 C   0  0  0  0  0  0  0  0  0  0  0  0
   91.5674   92.1882  -41.3840 C   0  0  0  0  0  0  0  0  0  0  0  0
   92.0313  100.2306  -42.0943 N   0  0  0  0  0  4  0  0  0  0  0  0
   91.6559  101.6257  -41.9420 C   0  0  0  0  0  0  0  0  0  0  0  0
  1  2  1  0
  1  9  1  0
  1 15  1  0
  2  3  2  0
  2  7  1  0
  3  4  1  0
  3 10  1  0
  4  5  2  0
  5  6  1  0
  5  8  1  0
  6  7  2  0
  8 23  1  0
  9 10  2  0
  9 14  1  0
 10 11  1  0
 11 12  2  0
 12 13  1  0
 13 14  2  0
 13 16  1  0
 15 22  1  0
 16 17  2  0
 16 20  1  0
 17 18  1  0
 18 19  2  0
 18 21  1  0
 19 20  1  0
 23 24  1  0
M  CHG  1  23   1
M  END
$$$$
