
     RDKit          3D

 24 27  0  0  0  0  0  0  0  0999 V2000
   91.8351   93.5657  -42.7823 N   0  0  0  0  0  0  0  0  0  0  0  0
   91.6715   94.8014  -42.2931 C   0  0  0  0  0  0  0  0  0  0  0  0
   91.1542   95.5648  -43.3087 C   0  0  0  0  0  0  0  0  0  0  0  0
   90.8627   96.9142  -43.1317 C   0  0  0  0  0  0  0  0  0  0  0  0
   91.1121   97.4811  -41.8798 C   0  0  0  0  0  0  0  0  0  0  0  0
   91.6307   96.7358  -40.8452 C   0  0  0  0  0  0  0  0  0  0  0  0
   91.9061   95.4042  -41.0587 C   0  0  0  0  0  0  0  0  0  0  0  0
   90.8041   98.9020  -41.6967 C   0  0  0  0  0  0  0  0  0  0  0  0
   91.4380   93.5290  -44.0697 C   0  0  0  0  0  0  0  0  0  0  0  0
   90.9949   94.7850  -44.4492 C   0  0  0  0  0  0  0  0  0  0  0  0
   90.5229   95.0512  -45.7265 C   0  0  0  0  0  0  0  0  0  0  0  0
   90.4961   94.0380  -46.6374 C   0  0  0  0  0  0  0  0  0  0  0  0
   90.9341   92.7834  -46.2733 C   0  0  0  0  0  0  0  0  0  0  0  0
   91.3964   92.5172  -45.0265 C   0  0  0  0  0  0  0  0  0  0  0  0
   92.3555   92.4276  -42.0625 C   0  0  0  0  0  0  0  0  0  0  0  0
   90.8675   91.7450  -47.3308 C   0  0  0  0  0  0  0  0  0  0  0  0
   90.1425   91.7948  -48.4963 C   0  0  0  0  0  0  0  0  0  0  0  0
   90.2293   90.7366  -49.3156 C   0  0  0  0  0  0  0  0  0  0  0  0
   91.0305   89.7000  -48.9220 C   0  0  0  0  0  0  0  0  0  0  0  0
   91.6386   90.2315  -47.4220 S   0  0  0  0  0  0  0  0  0  0  0  0
   89.4911   90.6323  -50.6435 C   0  0  0  0  0  0  0  0  0  0  0  0
   93.8621   92.3596  -42.0974 C   0  0  0  0  0  0  0  0  0  0  0  0
   91.9850   99.6766  -41.9869 N   0  0  0  0  0  4  0  0  0  0  0  0
   91.6579  101.0760  -41.7751 C   0  0  0  0  0  0  0  0  0  0  0  0
  1  2  1  0
  1  9  1  0
  1 15  1  0
  2  3  2  0
  2  7  1  0
  3  4  1  0
  3 10  1  0
  4  5  2  0
  5  6  1  0
  5  8  1  0
  6  7  2  0
  8 23  1  0
  9 10  2  0
  9 14  1  0
 10 11  1  0
 11 12  2  0
 12 13  1  0
 13 14  2  0
 13 16  1  0
 15 22  1  0
 16 17  2  0
 16 20  1  0
 17 18  1  0
 18 19  2  0
 18 21  1  0
 19 20  1  0
 23 24  1  0
M  CHG  1  23   1
M  END
$$$$
