
     RDKit          3D

 24 27  0  0  0  0  0  0  0  0999 V2000
   91.6918   94.1513  -42.6045 N   0  0  0  0  0  0  0  0  0  0  0  0
   91.5062   95.4515  -42.3439 C   0  0  0  0  0  0  0  0  0  0  0  0
   91.1528   96.0469  -43.5282 C   0  0  0  0  0  0  0  0  0  0  0  0
   90.8854   97.4104  -43.6082 C   0  0  0  0  0  0  0  0  0  0  0  0
   90.9863   98.1691  -42.4398 C   0  0  0  0  0  0  0  0  0  0  0  0
   91.3390   97.5946  -41.2397 C   0  0  0  0  0  0  0  0  0  0  0  0
   91.5959   96.2428  -41.2002 C   0  0  0  0  0  0  0  0  0  0  0  0
   90.7041   99.6042  -42.5274 C   0  0  0  0  0  0  0  0  0  0  0  0
   91.4669   93.9118  -43.9116 C   0  0  0  0  0  0  0  0  0  0  0  0
   91.1194   95.0951  -44.5417 C   0  0  0  0  0  0  0  0  0  0  0  0
   90.8291   95.1572  -45.8970 C   0  0  0  0  0  0  0  0  0  0  0  0
   90.8890   94.0105  -46.6311 C   0  0  0  0  0  0  0  0  0  0  0  0
   91.2334   92.8262  -46.0170 C   0  0  0  0  0  0  0  0  0  0  0  0
   91.5182   92.7594  -44.6928 C   0  0  0  0  0  0  0  0  0  0  0  0
   92.0748   93.1382  -41.6498 C   0  0  0  0  0  0  0  0  0  0  0  0
   91.2724   91.6316  -46.8958 C   0  0  0  0  0  0  0  0  0  0  0  0
   90.6423   91.4724  -48.1058 C   0  0  0  0  0  0  0  0  0  0  0  0
   90.8154   90.3010  -48.7355 C   0  0  0  0  0  0  0  0  0  0  0  0
   91.6030   89.3665  -48.1208 C   0  0  0  0  0  0  0  0  0  0  0  0
   92.0783   90.1487  -46.6839 S   0  0  0  0  0  0  0  0  0  0  0  0
   90.1882   89.9635  -50.0815 C   0  0  0  0  0  0  0  0  0  0  0  0
   93.5701   92.9577  -41.5653 C   0  0  0  0  0  0  0  0  0  0  0  0
   89.3892   99.8549  -41.9919 N   0  0  0  0  0  4  0  0  0  0  0  0
   89.1706  101.2909  -42.0123 C   0  0  0  0  0  0  0  0  0  0  0  0
  1  2  1  0
  1  9  1  0
  1 15  1  0
  2  3  2  0
  2  7  1  0
  3  4  1  0
  3 10  1  0
  4  5  2  0
  5  6  1  0
  5  8  1  0
  6  7  2  0
  8 23  1  0
  9 10  2  0
  9 14  1  0
 10 11  1  0
 11 12  2  0
 12 13  1  0
 13 14  2  0
 13 16  1  0
 15 22  1  0
 16 17  2  0
 16 20  1  0
 17 18  1  0
 18 19  2  0
 18 21  1  0
 19 20  1  0
 23 24  1  0
M  CHG  1  23   1
M  END
$$$$
