
     RDKit          3D

 24 27  0  0  0  0  0  0  0  0999 V2000
   91.8520   93.8142  -42.8480 N   0  0  0  0  0  0  0  0  0  0  0  0
   91.7970   95.1081  -42.5075 C   0  0  0  0  0  0  0  0  0  0  0  0
   91.5057   95.8072  -43.6513 C   0  0  0  0  0  0  0  0  0  0  0  0
   91.3758   97.1929  -43.6466 C   0  0  0  0  0  0  0  0  0  0  0  0
   91.5512   97.8647  -42.4347 C   0  0  0  0  0  0  0  0  0  0  0  0
   91.8441   97.1855  -41.2738 C   0  0  0  0  0  0  0  0  0  0  0  0
   91.9647   95.8150  -41.3183 C   0  0  0  0  0  0  0  0  0  0  0  0
   91.4138   99.3235  -42.4330 C   0  0  0  0  0  0  0  0  0  0  0  0
   91.6051   93.6790  -44.1660 C   0  0  0  0  0  0  0  0  0  0  0  0
   91.3779   94.9273  -44.7208 C   0  0  0  0  0  0  0  0  0  0  0  0
   91.0961   95.1009  -46.0682 C   0  0  0  0  0  0  0  0  0  0  0  0
   91.0416   94.0011  -46.8712 C   0  0  0  0  0  0  0  0  0  0  0  0
   91.2656   92.7530  -46.3324 C   0  0  0  0  0  0  0  0  0  0  0  0
   91.5415   92.5771  -45.0164 C   0  0  0  0  0  0  0  0  0  0  0  0
   92.1313   92.7115  -41.9590 C   0  0  0  0  0  0  0  0  0  0  0  0
   91.1856   91.6166  -47.2827 C   0  0  0  0  0  0  0  0  0  0  0  0
   91.1351   90.2795  -46.9727 C   0  0  0  0  0  0  0  0  0  0  0  0
   91.0651   89.4169  -47.9972 C   0  0  0  0  0  0  0  0  0  0  0  0
   91.0500   89.9406  -49.2609 C   0  0  0  0  0  0  0  0  0  0  0  0
   91.1338   91.6193  -48.9829 S   0  0  0  0  0  0  0  0  0  0  0  0
   91.0024   87.9048  -47.8271 C   0  0  0  0  0  0  0  0  0  0  0  0
   93.6096   92.4992  -41.7462 C   0  0  0  0  0  0  0  0  0  0  0  0
   90.0413   99.6627  -42.1508 N   0  0  0  0  0  4  0  0  0  0  0  0
   89.9588  101.1084  -42.0344 C   0  0  0  0  0  0  0  0  0  0  0  0
  1  2  1  0
  1  9  1  0
  1 15  1  0
  2  3  2  0
  2  7  1  0
  3  4  1  0
  3 10  1  0
  4  5  2  0
  5  6  1  0
  5  8  1  0
  6  7  2  0
  8 23  1  0
  9 10  2  0
  9 14  1  0
 10 11  1  0
 11 12  2  0
 12 13  1  0
 13 14  2  0
 13 16  1  0
 15 22  1  0
 16 17  2  0
 16 20  1  0
 17 18  1  0
 18 19  2  0
 18 21  1  0
 19 20  1  0
 23 24  1  0
M  CHG  1  23   1
M  END
$$$$
