
     RDKit          3D

 24 27  0  0  0  0  0  0  0  0999 V2000
   91.7322   93.6497  -42.7404 N   0  0  0  0  0  0  0  0  0  0  0  0
   91.5634   94.8947  -42.2771 C   0  0  0  0  0  0  0  0  0  0  0  0
   91.0482   95.6358  -43.3102 C   0  0  0  0  0  0  0  0  0  0  0  0
   90.7525   96.9877  -43.1619 C   0  0  0  0  0  0  0  0  0  0  0  0
   90.9953   97.5808  -41.9209 C   0  0  0  0  0  0  0  0  0  0  0  0
   91.5117   96.8581  -40.8692 C   0  0  0  0  0  0  0  0  0  0  0  0
   91.7915   95.5231  -41.0544 C   0  0  0  0  0  0  0  0  0  0  0  0
   90.6829   99.0042  -41.7680 C   0  0  0  0  0  0  0  0  0  0  0  0
   91.3404   93.5857  -44.0283 C   0  0  0  0  0  0  0  0  0  0  0  0
   90.8954   94.8325  -44.4351 C   0  0  0  0  0  0  0  0  0  0  0  0
   90.4280   95.0714  -45.7195 C   0  0  0  0  0  0  0  0  0  0  0  0
   90.4075   94.0397  -46.6096 C   0  0  0  0  0  0  0  0  0  0  0  0
   90.8472   92.7940  -46.2183 C   0  0  0  0  0  0  0  0  0  0  0  0
   91.3052   92.5545  -44.9645 C   0  0  0  0  0  0  0  0  0  0  0  0
   92.2526   92.5279  -41.9955 C   0  0  0  0  0  0  0  0  0  0  0  0
   90.7876   91.7341  -47.2546 C   0  0  0  0  0  0  0  0  0  0  0  0
   90.1566   91.8010  -48.4727 C   0  0  0  0  0  0  0  0  0  0  0  0
   90.2304   90.7175  -49.2596 C   0  0  0  0  0  0  0  0  0  0  0  0
   90.9262   89.6402  -48.7834 C   0  0  0  0  0  0  0  0  0  0  0  0
   91.4564   90.1701  -47.2535 S   0  0  0  0  0  0  0  0  0  0  0  0
   89.5876   90.6272  -50.6372 C   0  0  0  0  0  0  0  0  0  0  0  0
   93.7604   92.4800  -41.9984 C   0  0  0  0  0  0  0  0  0  0  0  0
   91.8857   99.7710  -41.9775 N   0  0  0  0  0  4  0  0  0  0  0  0
   91.5413  101.1764  -41.8482 C   0  0  0  0  0  0  0  0  0  0  0  0
  1  2  1  0
  1  9  1  0
  1 15  1  0
  2  3  2  0
  2  7  1  0
  3  4  1  0
  3 10  1  0
  4  5  2  0
  5  6  1  0
  5  8  1  0
  6  7  2  0
  8 23  1  0
  9 10  2  0
  9 14  1  0
 10 11  1  0
 11 12  2  0
 12 13  1  0
 13 14  2  0
 13 16  1  0
 15 22  1  0
 16 17  2  0
 16 20  1  0
 17 18  1  0
 18 19  2  0
 18 21  1  0
 19 20  1  0
 23 24  1  0
M  CHG  1  23   1
M  END
$$$$
