
     RDKit          3D

 24 27  0  0  0  0  0  0  0  0999 V2000
   91.8579   94.5083  -42.4168 N   0  0  0  0  0  0  0  0  0  0  0  0
   91.5553   95.8125  -42.4349 C   0  0  0  0  0  0  0  0  0  0  0  0
   91.2666   96.1347  -43.7368 C   0  0  0  0  0  0  0  0  0  0  0  0
   90.9086   97.4278  -44.1064 C   0  0  0  0  0  0  0  0  0  0  0  0
   90.8490   98.4033  -43.1086 C   0  0  0  0  0  0  0  0  0  0  0  0
   91.1341   98.1046  -41.7954 C   0  0  0  0  0  0  0  0  0  0  0  0
   91.4844   96.8142  -41.4686 C   0  0  0  0  0  0  0  0  0  0  0  0
   90.4717   99.7637  -43.5010 C   0  0  0  0  0  0  0  0  0  0  0  0
   91.7687   94.0025  -43.6628 C   0  0  0  0  0  0  0  0  0  0  0  0
   91.3935   95.0063  -44.5399 C   0  0  0  0  0  0  0  0  0  0  0  0
   91.2216   94.7799  -45.8979 C   0  0  0  0  0  0  0  0  0  0  0  0
   91.4305   93.5234  -46.3823 C   0  0  0  0  0  0  0  0  0  0  0  0
   91.8041   92.5151  -45.5209 C   0  0  0  0  0  0  0  0  0  0  0  0
   91.9736   92.7303  -44.1927 C   0  0  0  0  0  0  0  0  0  0  0  0
   92.2269   93.7365  -41.2539 C   0  0  0  0  0  0  0  0  0  0  0  0
   92.0086   91.1819  -46.1386 C   0  0  0  0  0  0  0  0  0  0  0  0
   91.6651   90.7971  -47.4116 C   0  0  0  0  0  0  0  0  0  0  0  0
   91.9443   89.5338  -47.7645 C   0  0  0  0  0  0  0  0  0  0  0  0
   92.5461   88.7374  -46.8291 C   0  0  0  0  0  0  0  0  0  0  0  0
   92.7045   89.7736  -45.4860 S   0  0  0  0  0  0  0  0  0  0  0  0
   91.6296   88.9492  -49.1351 C   0  0  0  0  0  0  0  0  0  0  0  0
   93.7213   93.6502  -41.0664 C   0  0  0  0  0  0  0  0  0  0  0  0
   89.0394   99.8969  -43.4050 N   0  0  0  0  0  4  0  0  0  0  0  0
   88.7064  101.2859  -43.6698 C   0  0  0  0  0  0  0  0  0  0  0  0
  1  2  1  0
  1  9  1  0
  1 15  1  0
  2  3  2  0
  2  7  1  0
  3  4  1  0
  3 10  1  0
  4  5  2  0
  5  6  1  0
  5  8  1  0
  6  7  2  0
  8 23  1  0
  9 10  2  0
  9 14  1  0
 10 11  1  0
 11 12  2  0
 12 13  1  0
 13 14  2  0
 13 16  1  0
 15 22  1  0
 16 17  2  0
 16 20  1  0
 17 18  1  0
 18 19  2  0
 18 21  1  0
 19 20  1  0
 23 24  1  0
M  CHG  1  23   1
M  END
$$$$
