
     RDKit          3D

 24 27  0  0  0  0  0  0  0  0999 V2000
   91.9721   93.9048  -42.7826 N   0  0  0  0  0  0  0  0  0  0  0  0
   91.8463   95.1800  -42.3940 C   0  0  0  0  0  0  0  0  0  0  0  0
   91.4742   95.8975  -43.5024 C   0  0  0  0  0  0  0  0  0  0  0  0
   91.2570   97.2710  -43.4436 C   0  0  0  0  0  0  0  0  0  0  0  0
   91.4287   97.9110  -42.2141 C   0  0  0  0  0  0  0  0  0  0  0  0
   91.8017   97.2128  -41.0879 C   0  0  0  0  0  0  0  0  0  0  0  0
   92.0074   95.8552  -41.1856 C   0  0  0  0  0  0  0  0  0  0  0  0
   91.1993   99.3570  -42.1555 C   0  0  0  0  0  0  0  0  0  0  0  0
   91.6915   93.7990  -44.0966 C   0  0  0  0  0  0  0  0  0  0  0  0
   91.3678   95.0483  -44.5987 C   0  0  0  0  0  0  0  0  0  0  0  0
   91.0317   95.2493  -45.9298 C   0  0  0  0  0  0  0  0  0  0  0  0
   91.0210   94.1764  -46.7700 C   0  0  0  0  0  0  0  0  0  0  0  0
   91.3411   92.9277  -46.2837 C   0  0  0  0  0  0  0  0  0  0  0  0
   91.6703   92.7251  -44.9839 C   0  0  0  0  0  0  0  0  0  0  0  0
   92.3495   92.7927  -41.9429 C   0  0  0  0  0  0  0  0  0  0  0  0
   91.3024   91.8215  -47.2716 C   0  0  0  0  0  0  0  0  0  0  0  0
   90.6331   91.8048  -48.4708 C   0  0  0  0  0  0  0  0  0  0  0  0
   90.7362   90.6925  -49.2129 C   0  0  0  0  0  0  0  0  0  0  0  0
   91.4975   89.6713  -48.7136 C   0  0  0  0  0  0  0  0  0  0  0  0
   92.0463   90.2925  -47.2252 S   0  0  0  0  0  0  0  0  0  0  0  0
   90.0581   90.5113  -50.5643 C   0  0  0  0  0  0  0  0  0  0  0  0
   93.8452   92.6201  -41.8479 C   0  0  0  0  0  0  0  0  0  0  0  0
   89.8496   99.5976  -41.7095 N   0  0  0  0  0  4  0  0  0  0  0  0
   89.6985  101.0289  -41.5123 C   0  0  0  0  0  0  0  0  0  0  0  0
  1  2  1  0
  1  9  1  0
  1 15  1  0
  2  3  2  0
  2  7  1  0
  3  4  1  0
  3 10  1  0
  4  5  2  0
  5  6  1  0
  5  8  1  0
  6  7  2  0
  8 23  1  0
  9 10  2  0
  9 14  1  0
 10 11  1  0
 11 12  2  0
 12 13  1  0
 13 14  2  0
 13 16  1  0
 15 22  1  0
 16 17  2  0
 16 20  1  0
 17 18  1  0
 18 19  2  0
 18 21  1  0
 19 20  1  0
 23 24  1  0
M  CHG  1  23   1
M  END
$$$$
