
     RDKit          3D

 24 27  0  0  0  0  0  0  0  0999 V2000
   91.0620   96.3327  -42.2608 N   0  0  0  0  0  0  0  0  0  0  0  0
   90.5811   97.2436  -43.1163 C   0  0  0  0  0  0  0  0  0  0  0  0
   90.5863   96.6624  -44.3589 C   0  0  0  0  0  0  0  0  0  0  0  0
   90.1431   97.3470  -45.4867 C   0  0  0  0  0  0  0  0  0  0  0  0
   89.6868   98.6569  -45.3226 C   0  0  0  0  0  0  0  0  0  0  0  0
   89.6719   99.2617  -44.0862 C   0  0  0  0  0  0  0  0  0  0  0  0
   90.1182   98.5524  -42.9942 C   0  0  0  0  0  0  0  0  0  0  0  0
   89.2209   99.3749  -46.5119 C   0  0  0  0  0  0  0  0  0  0  0  0
   91.3682   95.2007  -42.9250 C   0  0  0  0  0  0  0  0  0  0  0  0
   91.0805   95.3655  -44.2696 C   0  0  0  0  0  0  0  0  0  0  0  0
   91.2940   94.3614  -45.2030 C   0  0  0  0  0  0  0  0  0  0  0  0
   91.8052   93.1719  -44.7776 C   0  0  0  0  0  0  0  0  0  0  0  0
   92.0960   92.9943  -43.4427 C   0  0  0  0  0  0  0  0  0  0  0  0
   91.8895   93.9719  -42.5257 C   0  0  0  0  0  0  0  0  0  0  0  0
   91.2365   96.5097  -40.8386 C   0  0  0  0  0  0  0  0  0  0  0  0
   92.6483   91.6677  -43.0739 C   0  0  0  0  0  0  0  0  0  0  0  0
   93.1060   91.2748  -41.8400 C   0  0  0  0  0  0  0  0  0  0  0  0
   93.5661   90.0199  -41.7299 C   0  0  0  0  0  0  0  0  0  0  0  0
   93.5405   89.2395  -42.8532 C   0  0  0  0  0  0  0  0  0  0  0  0
   92.8761   90.2785  -44.0286 S   0  0  0  0  0  0  0  0  0  0  0  0
   94.1079   89.4281  -40.4356 C   0  0  0  0  0  0  0  0  0  0  0  0
   92.6129   97.0140  -40.4824 C   0  0  0  0  0  0  0  0  0  0  0  0
   87.8041   99.6115  -46.3890 N   0  0  0  0  0  4  0  0  0  0  0  0
   87.3819  100.3761  -47.5498 C   0  0  0  0  0  0  0  0  0  0  0  0
  1  2  1  0
  1  9  1  0
  1 15  1  0
  2  3  2  0
  2  7  1  0
  3  4  1  0
  3 10  1  0
  4  5  2  0
  5  6  1  0
  5  8  1  0
  6  7  2  0
  8 23  1  0
  9 10  2  0
  9 14  1  0
 10 11  1  0
 11 12  2  0
 12 13  1  0
 13 14  2  0
 13 16  1  0
 15 22  1  0
 16 17  2  0
 16 20  1  0
 17 18  1  0
 18 19  2  0
 18 21  1  0
 19 20  1  0
 23 24  1  0
M  CHG  1  23   1
M  END
$$$$
