
     RDKit          3D

 24 27  0  0  0  0  0  0  0  0999 V2000
   92.1133   93.9643  -42.8857 N   0  0  0  0  0  0  0  0  0  0  0  0
   91.8667   95.1995  -42.4314 C   0  0  0  0  0  0  0  0  0  0  0  0
   91.2367   95.8764  -43.4447 C   0  0  0  0  0  0  0  0  0  0  0  0
   90.8379   97.2019  -43.2994 C   0  0  0  0  0  0  0  0  0  0  0  0
   91.0971   97.8360  -42.0822 C   0  0  0  0  0  0  0  0  0  0  0  0
   91.7278   97.1780  -41.0506 C   0  0  0  0  0  0  0  0  0  0  0  0
   92.1073   95.8673  -41.2321 C   0  0  0  0  0  0  0  0  0  0  0  0
   90.6760   99.2314  -41.9324 C   0  0  0  0  0  0  0  0  0  0  0  0
   91.6593   93.8443  -44.1489 C   0  0  0  0  0  0  0  0  0  0  0  0
   91.0909   95.0424  -44.5481 C   0  0  0  0  0  0  0  0  0  0  0  0
   90.5366   95.2180  -45.8078 C   0  0  0  0  0  0  0  0  0  0  0  0
   90.5540   94.1717  -46.6808 C   0  0  0  0  0  0  0  0  0  0  0  0
   91.1164   92.9740  -46.2969 C   0  0  0  0  0  0  0  0  0  0  0  0
   91.6596   92.7963  -45.0671 C   0  0  0  0  0  0  0  0  0  0  0  0
   92.7647   92.9032  -42.1549 C   0  0  0  0  0  0  0  0  0  0  0  0
   91.0894   91.8936  -47.3132 C   0  0  0  0  0  0  0  0  0  0  0  0
   90.4008   91.8912  -48.5016 C   0  0  0  0  0  0  0  0  0  0  0  0
   90.5197   90.8018  -49.2747 C   0  0  0  0  0  0  0  0  0  0  0  0
   91.3148   89.7878  -48.8151 C   0  0  0  0  0  0  0  0  0  0  0  0
   91.8725   90.3836  -47.3197 S   0  0  0  0  0  0  0  0  0  0  0  0
   89.8240   90.6388  -50.6195 C   0  0  0  0  0  0  0  0  0  0  0  0
   91.7832   91.9796  -41.4771 C   0  0  0  0  0  0  0  0  0  0  0  0
   91.8368  100.0816  -42.0245 N   0  0  0  0  0  4  0  0  0  0  0  0
   91.3893  101.4564  -41.8835 C   0  0  0  0  0  0  0  0  0  0  0  0
  1  2  1  0
  1  9  1  0
  1 15  1  0
  2  3  2  0
  2  7  1  0
  3  4  1  0
  3 10  1  0
  4  5  2  0
  5  6  1  0
  5  8  1  0
  6  7  2  0
  8 23  1  0
  9 10  2  0
  9 14  1  0
 10 11  1  0
 11 12  2  0
 12 13  1  0
 13 14  2  0
 13 16  1  0
 15 22  1  0
 16 17  2  0
 16 20  1  0
 17 18  1  0
 18 19  2  0
 18 21  1  0
 19 20  1  0
 23 24  1  0
M  CHG  1  23   1
M  END
$$$$
