
     RDKit          3D

 26 28  0  0  0  0  0  0  0  0999 V2000
   20.8132   23.9359   22.0190 C   0  0  0  0  0  0  0  0  0  0  0  0
   21.7787   24.3262   22.9086 C   0  0  0  0  0  0  0  0  0  0  0  0
   22.4267   23.3904   23.6865 C   0  0  0  0  0  0  0  0  0  0  0  0
   22.0652   22.0673   23.5310 C   0  0  0  0  0  0  0  0  0  0  0  0
   21.0910   21.6682   22.6341 C   0  0  0  0  0  0  0  0  0  0  0  0
   20.4535   22.6135   21.8652 C   0  0  0  0  0  0  0  0  0  0  0  0
   19.4106   22.2573   20.8932 C   0  0  0  0  0  0  0  0  0  0  0  0
   18.2329   22.9535   20.8216 C   0  0  0  0  0  0  0  0  0  0  0  0
   19.5856   21.2028   20.0114 C   0  0  0  0  0  0  0  0  0  0  0  0
   18.5993   20.8878   19.1089 C   0  0  0  0  0  0  0  0  0  0  0  0
   17.4131   21.6001   19.0472 C   0  0  0  0  0  0  0  0  0  0  0  0
   16.5078   21.2138   18.1428 F   0  0  0  0  0  0  0  0  0  0  0  0
   17.2142   22.6401   19.9002 C   0  0  0  0  0  0  0  0  0  0  0  0
   16.0155   23.4465   19.8886 C   0  0  0  0  0  0  0  0  0  0  0  0
   16.1311   24.7083   19.7111 O   0  0  0  0  0  0  0  0  0  0  0  0
   14.6945   22.9785   20.0546 N   0  0  0  0  0  0  0  0  0  0  0  0
   13.6034   23.8231   19.8001 N   0  0  0  0  0  0  0  0  0  0  0  0
   12.5713   23.9594   21.1744 S   0  0  2  0  0  6  0  0  0  0  0  0
   11.6008   25.0770   20.9367 O   0  0  0  0  0  0  0  0  0  0  0  0
   13.3684   24.2375   22.4164 O   0  0  0  0  0  0  0  0  0  0  0  0
   11.7498   22.4348   21.4076 C   0  0  0  0  0  0  0  0  0  0  0  0
   10.6890   22.0391   20.6209 C   0  0  0  0  0  0  0  0  0  0  0  0
   10.0615   20.8296   20.8313 C   0  0  0  0  0  0  0  0  0  0  0  0
   10.5048   20.0009   21.8490 C   0  0  0  0  0  0  0  0  0  0  0  0
   11.5577   20.3859   22.6352 C   0  0  0  0  0  0  0  0  0  0  0  0
   12.1804   21.6064   22.4123 C   0  0  0  0  0  0  0  0  0  0  0  0
  1  2  2  0
  1  6  1  0
  2  3  1  0
  3  4  2  0
  4  5  1  0
  5  6  2  0
  6  7  1  0
  7  8  2  0
  7  9  1  0
  8 13  1  0
  9 10  2  0
 10 11  1  0
 11 12  1  0
 11 13  2  0
 13 14  1  0
 14 15  2  0
 14 16  1  0
 16 17  1  0
 18 17  1  6
 18 19  2  0
 18 20  2  0
 18 21  1  0
 21 22  2  0
 21 26  1  0
 22 23  1  0
 23 24  2  0
 24 25  1  0
 25 26  2  0
M  END
$$$$
