
     RDKit          3D

 26 28  0  0  0  0  0  0  0  0999 V2000
   19.2206   26.1784   23.8163 C   0  0  0  0  0  0  0  0  0  0  0  0
   20.4265   26.4828   24.4017 C   0  0  0  0  0  0  0  0  0  0  0  0
   20.4588   26.8804   25.7260 C   0  0  0  0  0  0  0  0  0  0  0  0
   19.2962   26.9720   26.4552 C   0  0  0  0  0  0  0  0  0  0  0  0
   18.0985   26.6570   25.8314 C   0  0  0  0  0  0  0  0  0  0  0  0
   18.0394   26.2597   24.5178 C   0  0  0  0  0  0  0  0  0  0  0  0
   16.7671   25.9276   23.8620 C   0  0  0  0  0  0  0  0  0  0  0  0
   16.5983   24.8036   23.1319 C   0  0  0  0  0  0  0  0  0  0  0  0
   15.7053   26.8064   24.0037 C   0  0  0  0  0  0  0  0  0  0  0  0
   14.5018   26.5234   23.4019 C   0  0  0  0  0  0  0  0  0  0  0  0
   14.3614   25.3581   22.6568 C   0  0  0  0  0  0  0  0  0  0  0  0
   13.1692   25.1514   22.0756 F   0  0  0  0  0  0  0  0  0  0  0  0
   15.3875   24.4919   22.5109 C   0  0  0  0  0  0  0  0  0  0  0  0
   15.3098   23.2221   21.7666 C   0  0  0  0  0  0  0  0  0  0  0  0
   14.7839   22.2466   22.4076 O   0  0  0  0  0  0  0  0  0  0  0  0
   15.7629   23.0415   20.4465 N   0  0  0  0  0  0  0  0  0  0  0  0
   15.7909   21.8879   19.7680 N   0  0  0  0  0  0  0  0  0  0  0  0
   17.0096   20.7777   19.7401 S   0  0  2  0  0  6  0  0  0  0  0  0
   16.6459   19.5307   18.9212 O   0  0  0  0  0  0  0  0  0  0  0  0
   17.3286   20.2475   21.1204 O   0  0  0  0  0  0  0  0  0  0  0  0
   18.4514   21.4092   18.9806 C   0  0  0  0  0  0  0  0  0  0  0  0
   19.5261   21.8476   19.7706 C   0  0  0  0  0  0  0  0  0  0  0  0
   20.6456   22.3823   19.1733 C   0  0  0  0  0  0  0  0  0  0  0  0
   20.7727   22.5144   17.8099 C   0  0  0  0  0  0  0  0  0  0  0  0
   19.7340   22.0919   17.0291 C   0  0  0  0  0  0  0  0  0  0  0  0
   18.5981   21.5499   17.6276 C   0  0  0  0  0  0  0  0  0  0  0  0
  1  2  2  0
  1  6  1  0
  2  3  1  0
  3  4  2  0
  4  5  1  0
  5  6  2  0
  6  7  1  0
  7  8  2  0
  7  9  1  0
  8 13  1  0
  9 10  2  0
 10 11  1  0
 11 12  1  0
 11 13  2  0
 13 14  1  0
 14 15  2  0
 14 16  1  0
 16 17  1  0
 18 17  1  1
 18 19  2  0
 18 20  2  0
 18 21  1  0
 21 22  2  0
 21 26  1  0
 22 23  1  0
 23 24  2  0
 24 25  1  0
 25 26  2  0
M  END
$$$$
