
     RDKit          3D

 26 28  0  0  0  0  0  0  0  0999 V2000
   22.2445   25.5428   24.7475 C   0  0  0  0  0  0  0  0  0  0  0  0
   23.6020   25.7566   24.7193 C   0  0  0  0  0  0  0  0  0  0  0  0
   24.2135   26.0912   23.5248 C   0  0  0  0  0  0  0  0  0  0  0  0
   23.4732   26.2102   22.3718 C   0  0  0  0  0  0  0  0  0  0  0  0
   22.1061   25.9874   22.4384 C   0  0  0  0  0  0  0  0  0  0  0  0
   21.4749   25.6539   23.6119 C   0  0  0  0  0  0  0  0  0  0  0  0
   20.0260   25.4185   23.6763 C   0  0  0  0  0  0  0  0  0  0  0  0
   19.3533   24.7614   22.7065 C   0  0  0  0  0  0  0  0  0  0  0  0
   19.3313   25.8918   24.7779 C   0  0  0  0  0  0  0  0  0  0  0  0
   17.9745   25.6873   24.8671 C   0  0  0  0  0  0  0  0  0  0  0  0
   17.3122   25.0074   23.8511 C   0  0  0  0  0  0  0  0  0  0  0  0
   15.9847   24.8611   23.9865 F   0  0  0  0  0  0  0  0  0  0  0  0
   17.9766   24.5397   22.7721 C   0  0  0  0  0  0  0  0  0  0  0  0
   17.3545   23.7824   21.6712 C   0  0  0  0  0  0  0  0  0  0  0  0
   18.0909   22.8732   21.1517 O   0  0  0  0  0  0  0  0  0  0  0  0
   16.0503   24.0004   21.1895 N   0  0  0  0  0  0  0  0  0  0  0  0
   15.6526   23.9244   19.9135 N   0  0  0  0  0  0  0  0  0  0  0  0
   15.1603   22.5762   19.1020 S   0  0  2  0  0  6  0  0  0  0  0  0
   13.9860   22.8604   18.1543 O   0  0  0  0  0  0  0  0  0  0  0  0
   14.6446   21.5050   20.0373 O   0  0  0  0  0  0  0  0  0  0  0  0
   16.4209   21.9347   18.0755 C   0  0  0  0  0  0  0  0  0  0  0  0
   16.7999   22.6265   16.9140 C   0  0  0  0  0  0  0  0  0  0  0  0
   17.7647   22.1007   16.0842 C   0  0  0  0  0  0  0  0  0  0  0  0
   18.3943   20.9039   16.3366 C   0  0  0  0  0  0  0  0  0  0  0  0
   18.0348   20.2200   17.4636 C   0  0  0  0  0  0  0  0  0  0  0  0
   17.0588   20.7468   18.3075 C   0  0  0  0  0  0  0  0  0  0  0  0
  1  2  2  0
  1  6  1  0
  2  3  1  0
  3  4  2  0
  4  5  1  0
  5  6  2  0
  6  7  1  0
  7  8  2  0
  7  9  1  0
  8 13  1  0
  9 10  2  0
 10 11  1  0
 11 12  1  0
 11 13  2  0
 13 14  1  0
 14 15  2  0
 14 16  1  0
 16 17  1  0
 18 17  1  1
 18 19  2  0
 18 20  2  0
 18 21  1  0
 21 22  2  0
 21 26  1  0
 22 23  1  0
 23 24  2  0
 24 25  1  0
 25 26  2  0
M  END
$$$$
