
     RDKit          3D

 26 28  0  0  0  0  0  0  0  0999 V2000
   17.1467   24.6863   15.6667 C   0  0  0  0  0  0  0  0  0  0  0  0
   17.4228   25.5026   14.6022 C   0  0  0  0  0  0  0  0  0  0  0  0
   16.4495   25.7762   13.6648 C   0  0  0  0  0  0  0  0  0  0  0  0
   15.2076   25.2009   13.8445 C   0  0  0  0  0  0  0  0  0  0  0  0
   14.9239   24.3760   14.9178 C   0  0  0  0  0  0  0  0  0  0  0  0
   15.9053   24.1126   15.8444 C   0  0  0  0  0  0  0  0  0  0  0  0
   15.6702   23.2461   17.0076 C   0  0  0  0  0  0  0  0  0  0  0  0
   16.3080   23.4627   18.2005 C   0  0  0  0  0  0  0  0  0  0  0  0
   14.7899   22.1782   16.9371 C   0  0  0  0  0  0  0  0  0  0  0  0
   14.5825   21.3818   18.0367 C   0  0  0  0  0  0  0  0  0  0  0  0
   15.2342   21.6121   19.2369 C   0  0  0  0  0  0  0  0  0  0  0  0
   14.9761   20.7780   20.2491 F   0  0  0  0  0  0  0  0  0  0  0  0
   16.1033   22.6531   19.3352 C   0  0  0  0  0  0  0  0  0  0  0  0
   16.8081   22.9747   20.5547 C   0  0  0  0  0  0  0  0  0  0  0  0
   16.6355   22.2226   21.5753 O   0  0  0  0  0  0  0  0  0  0  0  0
   17.6923   24.0579   20.7454 N   0  0  0  0  0  0  0  0  0  0  0  0
   18.2366   24.3173   22.0124 N   0  0  0  0  0  0  0  0  0  0  0  0
   17.6738   25.8166   22.6509 S   0  0  2  0  0  6  0  0  0  0  0  0
   17.5801   26.8097   21.5318 O   0  0  0  0  0  0  0  0  0  0  0  0
   18.6081   26.3324   23.7076 O   0  0  0  0  0  0  0  0  0  0  0  0
   16.1204   25.5525   23.4064 C   0  0  0  0  0  0  0  0  0  0  0  0
   14.9319   25.8629   22.7803 C   0  0  0  0  0  0  0  0  0  0  0  0
   13.7223   25.6430   23.4043 C   0  0  0  0  0  0  0  0  0  0  0  0
   13.7027   25.1019   24.6794 C   0  0  0  0  0  0  0  0  0  0  0  0
   14.8783   24.7907   25.3087 C   0  0  0  0  0  0  0  0  0  0  0  0
   16.0892   25.0173   24.6688 C   0  0  0  0  0  0  0  0  0  0  0  0
  1  2  2  0
  1  6  1  0
  2  3  1  0
  3  4  2  0
  4  5  1  0
  5  6  2  0
  6  7  1  0
  7  8  2  0
  7  9  1  0
  8 13  1  0
  9 10  2  0
 10 11  1  0
 11 12  1  0
 11 13  2  0
 13 14  1  0
 14 15  2  0
 14 16  1  0
 16 17  1  0
 18 17  1  6
 18 19  2  0
 18 20  2  0
 18 21  1  0
 21 22  2  0
 21 26  1  0
 22 23  1  0
 23 24  2  0
 24 25  1  0
 25 26  2  0
M  END
$$$$
