
     RDKit          3D

 26 28  0  0  0  0  0  0  0  0999 V2000
   15.8324   21.8118   17.6490 C   0  0  0  0  0  0  0  0  0  0  0  0
   16.1741   21.3893   16.3864 C   0  0  0  0  0  0  0  0  0  0  0  0
   17.5021   21.4035   16.0002 C   0  0  0  0  0  0  0  0  0  0  0  0
   18.4764   21.8363   16.8692 C   0  0  0  0  0  0  0  0  0  0  0  0
   18.0944   22.2551   18.1347 C   0  0  0  0  0  0  0  0  0  0  0  0
   16.7827   22.2508   18.5425 C   0  0  0  0  0  0  0  0  0  0  0  0
   16.3839   22.6961   19.8847 C   0  0  0  0  0  0  0  0  0  0  0  0
   17.0395   23.6714   20.5509 C   0  0  0  0  0  0  0  0  0  0  0  0
   15.2920   22.0871   20.4821 C   0  0  0  0  0  0  0  0  0  0  0  0
   14.8942   22.4819   21.7377 C   0  0  0  0  0  0  0  0  0  0  0  0
   15.5912   23.4886   22.3963 C   0  0  0  0  0  0  0  0  0  0  0  0
   15.1674   23.8117   23.6284 F   0  0  0  0  0  0  0  0  0  0  0  0
   16.6567   24.0916   21.8258 C   0  0  0  0  0  0  0  0  0  0  0  0
   17.4267   25.1866   22.4429 C   0  0  0  0  0  0  0  0  0  0  0  0
   18.1862   24.8386   23.4131 O   0  0  0  0  0  0  0  0  0  0  0  0
   17.3702   26.5318   22.0333 N   0  0  0  0  0  0  0  0  0  0  0  0
   18.1103   27.5390   22.5127 N   0  0  0  0  0  0  0  0  0  0  0  0
   18.6284   28.8726   21.6931 S   0  0  2  0  0  6  0  0  0  0  0  0
   19.2714   28.5170   20.3448 O   0  0  0  0  0  0  0  0  0  0  0  0
   19.7077   29.6194   22.4449 O   0  0  0  0  0  0  0  0  0  0  0  0
   17.3092   29.9465   21.2923 C   0  0  0  0  0  0  0  0  0  0  0  0
   16.7912   30.8155   22.2659 C   0  0  0  0  0  0  0  0  0  0  0  0
   15.7256   31.6327   21.9615 C   0  0  0  0  0  0  0  0  0  0  0  0
   15.1245   31.6451   20.7241 C   0  0  0  0  0  0  0  0  0  0  0  0
   15.6185   30.8041   19.7673 C   0  0  0  0  0  0  0  0  0  0  0  0
   16.6968   29.9744   20.0691 C   0  0  0  0  0  0  0  0  0  0  0  0
  1  2  2  0
  1  6  1  0
  2  3  1  0
  3  4  2  0
  4  5  1  0
  5  6  2  0
  6  7  1  0
  7  8  2  0
  7  9  1  0
  8 13  1  0
  9 10  2  0
 10 11  1  0
 11 12  1  0
 11 13  2  0
 13 14  1  0
 14 15  2  0
 14 16  1  0
 16 17  1  0
 18 17  1  1
 18 19  2  0
 18 20  2  0
 18 21  1  0
 21 22  2  0
 21 26  1  0
 22 23  1  0
 23 24  2  0
 24 25  1  0
 25 26  2  0
M  END
$$$$
