
     RDKit          3D

 26 28  0  0  0  0  0  0  0  0999 V2000
   19.9494   22.5428   21.0779 C   0  0  0  0  0  0  0  0  0  0  0  0
   20.9248   22.5138   22.0461 C   0  0  0  0  0  0  0  0  0  0  0  0
   21.9637   21.6073   21.9382 C   0  0  0  0  0  0  0  0  0  0  0  0
   22.0247   20.7400   20.8725 C   0  0  0  0  0  0  0  0  0  0  0  0
   21.0232   20.7982   19.9151 C   0  0  0  0  0  0  0  0  0  0  0  0
   19.9809   21.6889   19.9992 C   0  0  0  0  0  0  0  0  0  0  0  0
   18.9222   21.7456   18.9818 C   0  0  0  0  0  0  0  0  0  0  0  0
   17.6399   22.0440   19.2840 C   0  0  0  0  0  0  0  0  0  0  0  0
   19.2615   21.4820   17.6644 C   0  0  0  0  0  0  0  0  0  0  0  0
   18.2931   21.5273   16.6893 C   0  0  0  0  0  0  0  0  0  0  0  0
   16.9824   21.8372   17.0342 C   0  0  0  0  0  0  0  0  0  0  0  0
   16.0802   21.8421   16.0402 F   0  0  0  0  0  0  0  0  0  0  0  0
   16.6375   22.0972   18.3140 C   0  0  0  0  0  0  0  0  0  0  0  0
   15.2800   22.4650   18.7554 C   0  0  0  0  0  0  0  0  0  0  0  0
   14.6825   23.3251   18.0191 O   0  0  0  0  0  0  0  0  0  0  0  0
   14.6402   21.9379   19.8926 N   0  0  0  0  0  0  0  0  0  0  0  0
   13.3893   22.1988   20.2917 N   0  0  0  0  0  0  0  0  0  0  0  0
   12.8097   23.6236   20.8854 S   0  0  2  0  0  6  0  0  0  0  0  0
   11.6008   23.4228   21.8107 O   0  0  0  0  0  0  0  0  0  0  0  0
   12.3030   24.5336   19.7885 O   0  0  0  0  0  0  0  0  0  0  0  0
   13.9942   24.4524   21.8674 C   0  0  0  0  0  0  0  0  0  0  0  0
   14.3590   23.9289   23.1181 C   0  0  0  0  0  0  0  0  0  0  0  0
   15.2621   24.6031   23.9091 C   0  0  0  0  0  0  0  0  0  0  0  0
   15.8418   25.7924   23.5322 C   0  0  0  0  0  0  0  0  0  0  0  0
   15.4955   26.3133   22.3174 C   0  0  0  0  0  0  0  0  0  0  0  0
   14.5818   25.6357   21.5122 C   0  0  0  0  0  0  0  0  0  0  0  0
  1  2  2  0
  1  6  1  0
  2  3  1  0
  3  4  2  0
  4  5  1  0
  5  6  2  0
  6  7  1  0
  7  8  2  0
  7  9  1  0
  8 13  1  0
  9 10  2  0
 10 11  1  0
 11 12  1  0
 11 13  2  0
 13 14  1  0
 14 15  2  0
 14 16  1  0
 16 17  1  0
 18 17  1  6
 18 19  2  0
 18 20  2  0
 18 21  1  0
 21 22  2  0
 21 26  1  0
 22 23  1  0
 23 24  2  0
 24 25  1  0
 25 26  2  0
M  END
$$$$
