
     RDKit          3D

 26 28  0  0  0  0  0  0  0  0999 V2000
   20.5974   23.3785   21.6119 C   0  0  0  0  0  0  0  0  0  0  0  0
   21.2806   22.4922   20.8222 C   0  0  0  0  0  0  0  0  0  0  0  0
   22.6524   22.3918   20.9157 C   0  0  0  0  0  0  0  0  0  0  0  0
   23.2939   23.2097   21.8240 C   0  0  0  0  0  0  0  0  0  0  0  0
   22.6085   24.1061   22.6236 C   0  0  0  0  0  0  0  0  0  0  0  0
   21.2401   24.1945   22.5188 C   0  0  0  0  0  0  0  0  0  0  0  0
   20.4515   25.1246   23.3386 C   0  0  0  0  0  0  0  0  0  0  0  0
   19.3856   25.8093   22.8172 C   0  0  0  0  0  0  0  0  0  0  0  0
   20.7594   25.3391   24.6726 C   0  0  0  0  0  0  0  0  0  0  0  0
   20.0080   26.2109   25.4221 C   0  0  0  0  0  0  0  0  0  0  0  0
   18.9326   26.8967   24.8822 C   0  0  0  0  0  0  0  0  0  0  0  0
   18.2667   27.7315   25.6862 F   0  0  0  0  0  0  0  0  0  0  0  0
   18.6073   26.7057   23.5759 C   0  0  0  0  0  0  0  0  0  0  0  0
   17.4899   27.3654   22.9407 C   0  0  0  0  0  0  0  0  0  0  0  0
   17.4155   28.6409   23.0093 O   0  0  0  0  0  0  0  0  0  0  0  0
   16.4441   26.7367   22.2317 N   0  0  0  0  0  0  0  0  0  0  0  0
   15.2904   27.4542   21.8813 N   0  0  0  0  0  0  0  0  0  0  0  0
   13.9252   26.9538   22.8075 S   0  0  2  0  0  6  0  0  0  0  0  0
   12.8281   27.9593   22.6268 O   0  0  0  0  0  0  0  0  0  0  0  0
   14.2772   26.8458   24.2635 O   0  0  0  0  0  0  0  0  0  0  0  0
   13.4361   25.3660   22.2660 C   0  0  0  0  0  0  0  0  0  0  0  0
   12.3824   25.1734   21.3979 C   0  0  0  0  0  0  0  0  0  0  0  0
   12.0210   23.9070   20.9901 C   0  0  0  0  0  0  0  0  0  0  0  0
   12.7283   22.8127   21.4606 C   0  0  0  0  0  0  0  0  0  0  0  0
   13.7761   22.9947   22.3230 C   0  0  0  0  0  0  0  0  0  0  0  0
   14.1294   24.2754   22.7255 C   0  0  0  0  0  0  0  0  0  0  0  0
  1  2  2  0
  1  6  1  0
  2  3  1  0
  3  4  2  0
  4  5  1  0
  5  6  2  0
  6  7  1  0
  7  8  2  0
  7  9  1  0
  8 13  1  0
  9 10  2  0
 10 11  1  0
 11 12  1  0
 11 13  2  0
 13 14  1  0
 14 15  2  0
 14 16  1  0
 16 17  1  0
 18 17  1  6
 18 19  2  0
 18 20  2  0
 18 21  1  0
 21 22  2  0
 21 26  1  0
 22 23  1  0
 23 24  2  0
 24 25  1  0
 25 26  2  0
M  END
$$$$
