
     RDKit          3D

 26 28  0  0  0  0  0  0  0  0999 V2000
   19.8142   20.6831   20.2287 C   0  0  0  0  0  0  0  0  0  0  0  0
   21.0501   20.3733   20.7312 C   0  0  0  0  0  0  0  0  0  0  0  0
   22.1721   20.4892   19.9385 C   0  0  0  0  0  0  0  0  0  0  0  0
   21.9967   20.9234   18.6400 C   0  0  0  0  0  0  0  0  0  0  0  0
   20.7509   21.2375   18.1280 C   0  0  0  0  0  0  0  0  0  0  0  0
   19.6412   21.1169   18.9312 C   0  0  0  0  0  0  0  0  0  0  0  0
   18.2895   21.4347   18.4504 C   0  0  0  0  0  0  0  0  0  0  0  0
   17.3974   22.1228   19.2297 C   0  0  0  0  0  0  0  0  0  0  0  0
   17.8715   21.0498   17.1865 C   0  0  0  0  0  0  0  0  0  0  0  0
   16.6047   21.3591   16.7553 C   0  0  0  0  0  0  0  0  0  0  0  0
   15.7126   22.0554   17.5537 C   0  0  0  0  0  0  0  0  0  0  0  0
   14.4983   22.3019   17.0522 F   0  0  0  0  0  0  0  0  0  0  0  0
   16.0957   22.4461   18.7985 C   0  0  0  0  0  0  0  0  0  0  0  0
   15.2347   23.1927   19.6865 C   0  0  0  0  0  0  0  0  0  0  0  0
   15.7731   23.9859   20.5338 O   0  0  0  0  0  0  0  0  0  0  0  0
   13.8247   23.1409   19.7190 N   0  0  0  0  0  0  0  0  0  0  0  0
   13.1049   23.9264   20.6320 N   0  0  0  0  0  0  0  0  0  0  0  0
   11.8883   23.0090   21.4385 S   0  0  2  0  0  6  0  0  0  0  0  0
   11.0737   23.9361   22.2897 O   0  0  0  0  0  0  0  0  0  0  0  0
   12.5043   21.9431   22.2986 O   0  0  0  0  0  0  0  0  0  0  0  0
   10.9038   22.2101   20.2360 C   0  0  0  0  0  0  0  0  0  0  0  0
    9.9750   22.8861   19.4735 C   0  0  0  0  0  0  0  0  0  0  0  0
    9.2130   22.2261   18.5330 C   0  0  0  0  0  0  0  0  0  0  0  0
    9.3845   20.8633   18.3527 C   0  0  0  0  0  0  0  0  0  0  0  0
   10.3047   20.1840   19.1056 C   0  0  0  0  0  0  0  0  0  0  0  0
   11.0653   20.8610   20.0491 C   0  0  0  0  0  0  0  0  0  0  0  0
  1  2  2  0
  1  6  1  0
  2  3  1  0
  3  4  2  0
  4  5  1  0
  5  6  2  0
  6  7  1  0
  7  8  2  0
  7  9  1  0
  8 13  1  0
  9 10  2  0
 10 11  1  0
 11 12  1  0
 11 13  2  0
 13 14  1  0
 14 15  2  0
 14 16  1  0
 16 17  1  0
 18 17  1  6
 18 19  2  0
 18 20  2  0
 18 21  1  0
 21 22  2  0
 21 26  1  0
 22 23  1  0
 23 24  2  0
 24 25  1  0
 25 26  2  0
M  END
$$$$
