
     RDKit          3D

 26 28  0  0  0  0  0  0  0  0999 V2000
   19.6224   20.7904   20.2218 C   0  0  0  0  0  0  0  0  0  0  0  0
   20.7827   20.4912   20.8853 C   0  0  0  0  0  0  0  0  0  0  0  0
   21.9996   20.6172   20.2496 C   0  0  0  0  0  0  0  0  0  0  0  0
   21.9956   21.0504   18.9390 C   0  0  0  0  0  0  0  0  0  0  0  0
   20.8267   21.3537   18.2648 C   0  0  0  0  0  0  0  0  0  0  0  0
   19.6207   21.2230   18.9124 C   0  0  0  0  0  0  0  0  0  0  0  0
   18.3427   21.5292   18.2550 C   0  0  0  0  0  0  0  0  0  0  0  0
   17.2862   22.0502   18.9543 C   0  0  0  0  0  0  0  0  0  0  0  0
   18.1639   21.3027   16.8996 C   0  0  0  0  0  0  0  0  0  0  0  0
   16.9622   21.5982   16.3038 C   0  0  0  0  0  0  0  0  0  0  0  0
   15.9020   22.1246   17.0229 C   0  0  0  0  0  0  0  0  0  0  0  0
   14.7681   22.3708   16.3592 F   0  0  0  0  0  0  0  0  0  0  0  0
   16.0490   22.3575   18.3544 C   0  0  0  0  0  0  0  0  0  0  0  0
   15.0012   22.9228   19.1728 C   0  0  0  0  0  0  0  0  0  0  0  0
   14.5771   24.0975   18.8950 O   0  0  0  0  0  0  0  0  0  0  0  0
   14.3768   22.3002   20.2747 N   0  0  0  0  0  0  0  0  0  0  0  0
   13.2453   22.8775   20.8708 N   0  0  0  0  0  0  0  0  0  0  0  0
   13.6237   23.5903   22.3943 S   0  0  2  0  0  6  0  0  0  0  0  0
   15.0445   23.2589   22.7394 O   0  0  0  0  0  0  0  0  0  0  0  0
   12.7091   23.0744   23.4680 O   0  0  0  0  0  0  0  0  0  0  0  0
   13.3772   25.3164   22.2786 C   0  0  0  0  0  0  0  0  0  0  0  0
   14.4252   26.2111   22.2329 C   0  0  0  0  0  0  0  0  0  0  0  0
   14.1970   27.5677   22.1423 C   0  0  0  0  0  0  0  0  0  0  0  0
   12.8944   28.0372   22.0966 C   0  0  0  0  0  0  0  0  0  0  0  0
   11.8475   27.1557   22.1414 C   0  0  0  0  0  0  0  0  0  0  0  0
   12.0917   25.7922   22.2326 C   0  0  0  0  0  0  0  0  0  0  0  0
  1  2  2  0
  1  6  1  0
  2  3  1  0
  3  4  2  0
  4  5  1  0
  5  6  2  0
  6  7  1  0
  7  8  2  0
  7  9  1  0
  8 13  1  0
  9 10  2  0
 10 11  1  0
 11 12  1  0
 11 13  2  0
 13 14  1  0
 14 15  2  0
 14 16  1  0
 16 17  1  0
 18 17  1  6
 18 19  2  0
 18 20  2  0
 18 21  1  0
 21 22  2  0
 21 26  1  0
 22 23  1  0
 23 24  2  0
 24 25  1  0
 25 26  2  0
M  END
$$$$
