
     RDKit          3D

 26 28  0  0  0  0  0  0  0  0999 V2000
   23.2520   27.0450   24.9268 C   0  0  0  0  0  0  0  0  0  0  0  0
   24.5712   27.3984   24.8234 C   0  0  0  0  0  0  0  0  0  0  0  0
   25.3223   26.9750   23.7476 C   0  0  0  0  0  0  0  0  0  0  0  0
   24.6962   26.1935   22.7974 C   0  0  0  0  0  0  0  0  0  0  0  0
   23.3645   25.8340   22.8974 C   0  0  0  0  0  0  0  0  0  0  0  0
   22.6285   26.2642   23.9765 C   0  0  0  0  0  0  0  0  0  0  0  0
   21.2099   25.9192   24.1431 C   0  0  0  0  0  0  0  0  0  0  0  0
   20.3435   25.9261   23.0819 C   0  0  0  0  0  0  0  0  0  0  0  0
   20.6998   25.5714   25.3837 C   0  0  0  0  0  0  0  0  0  0  0  0
   19.3713   25.2498   25.5175 C   0  0  0  0  0  0  0  0  0  0  0  0
   18.5061   25.2609   24.4360 C   0  0  0  0  0  0  0  0  0  0  0  0
   17.2280   24.9432   24.6650 F   0  0  0  0  0  0  0  0  0  0  0  0
   18.9790   25.5980   23.2066 C   0  0  0  0  0  0  0  0  0  0  0  0
   18.1493   25.6148   22.0240 C   0  0  0  0  0  0  0  0  0  0  0  0
   18.1233   26.6778   21.3124 O   0  0  0  0  0  0  0  0  0  0  0  0
   17.3440   24.5547   21.5556 N   0  0  0  0  0  0  0  0  0  0  0  0
   16.4678   24.7497   20.4773 N   0  0  0  0  0  0  0  0  0  0  0  0
   14.9220   24.0490   20.7799 S   0  0  2  0  0  6  0  0  0  0  0  0
   15.1133   22.6127   21.1645 O   0  0  0  0  0  0  0  0  0  0  0  0
   14.0484   24.1339   19.5612 O   0  0  0  0  0  0  0  0  0  0  0  0
   14.1387   24.9553   22.0521 C   0  0  0  0  0  0  0  0  0  0  0  0
   14.0353   24.4798   23.3421 C   0  0  0  0  0  0  0  0  0  0  0  0
   13.4101   25.2195   24.3233 C   0  0  0  0  0  0  0  0  0  0  0  0
   12.8784   26.4589   24.0065 C   0  0  0  0  0  0  0  0  0  0  0  0
   12.9766   26.9389   22.7279 C   0  0  0  0  0  0  0  0  0  0  0  0
   13.6087   26.1836   21.7497 C   0  0  0  0  0  0  0  0  0  0  0  0
  1  2  2  0
  1  6  1  0
  2  3  1  0
  3  4  2  0
  4  5  1  0
  5  6  2  0
  6  7  1  0
  7  8  2  0
  7  9  1  0
  8 13  1  0
  9 10  2  0
 10 11  1  0
 11 12  1  0
 11 13  2  0
 13 14  1  0
 14 15  2  0
 14 16  1  0
 16 17  1  0
 18 17  1  6
 18 19  2  0
 18 20  2  0
 18 21  1  0
 21 22  2  0
 21 26  1  0
 22 23  1  0
 23 24  2  0
 24 25  1  0
 25 26  2  0
M  END
$$$$
