
     RDKit          3D

 26 28  0  0  0  0  0  0  0  0999 V2000
   19.9155   29.5798   21.1595 C   0  0  0  0  0  0  0  0  0  0  0  0
   20.3878   30.4891   20.2431 C   0  0  0  0  0  0  0  0  0  0  0  0
   21.7303   30.8213   20.2439 C   0  0  0  0  0  0  0  0  0  0  0  0
   22.5898   30.2490   21.1525 C   0  0  0  0  0  0  0  0  0  0  0  0
   22.0777   29.3358   22.0618 C   0  0  0  0  0  0  0  0  0  0  0  0
   20.7487   28.9890   22.0818 C   0  0  0  0  0  0  0  0  0  0  0  0
   20.2118   28.0210   23.0481 C   0  0  0  0  0  0  0  0  0  0  0  0
   19.3441   27.0478   22.6950 C   0  0  0  0  0  0  0  0  0  0  0  0
   20.6169   28.1174   24.3697 C   0  0  0  0  0  0  0  0  0  0  0  0
   20.1320   27.2261   25.2976 C   0  0  0  0  0  0  0  0  0  0  0  0
   19.2397   26.2363   24.9012 C   0  0  0  0  0  0  0  0  0  0  0  0
   18.7853   25.4126   25.8588 F   0  0  0  0  0  0  0  0  0  0  0  0
   18.8368   26.1299   23.6164 C   0  0  0  0  0  0  0  0  0  0  0  0
   17.9215   25.0910   23.1110 C   0  0  0  0  0  0  0  0  0  0  0  0
   17.0352   24.6937   23.9451 O   0  0  0  0  0  0  0  0  0  0  0  0
   17.9726   24.5437   21.8155 N   0  0  0  0  0  0  0  0  0  0  0  0
   17.1327   23.6352   21.3042 N   0  0  0  0  0  0  0  0  0  0  0  0
   15.6845   23.9196   20.5693 S   0  0  2  0  0  6  0  0  0  0  0  0
   15.2270   22.7381   19.7017 O   0  0  0  0  0  0  0  0  0  0  0  0
   15.7507   25.0906   19.6141 O   0  0  0  0  0  0  0  0  0  0  0  0
   14.3974   24.1501   21.7290 C   0  0  0  0  0  0  0  0  0  0  0  0
   13.8684   25.4327   21.9444 C   0  0  0  0  0  0  0  0  0  0  0  0
   12.8824   25.6206   22.8870 C   0  0  0  0  0  0  0  0  0  0  0  0
   12.3737   24.5947   23.6493 C   0  0  0  0  0  0  0  0  0  0  0  0
   12.8799   23.3413   23.4501 C   0  0  0  0  0  0  0  0  0  0  0  0
   13.8781   23.1445   22.4976 C   0  0  0  0  0  0  0  0  0  0  0  0
  1  2  2  0
  1  6  1  0
  2  3  1  0
  3  4  2  0
  4  5  1  0
  5  6  2  0
  6  7  1  0
  7  8  2  0
  7  9  1  0
  8 13  1  0
  9 10  2  0
 10 11  1  0
 11 12  1  0
 11 13  2  0
 13 14  1  0
 14 15  2  0
 14 16  1  0
 16 17  1  0
 18 17  1  1
 18 19  2  0
 18 20  2  0
 18 21  1  0
 21 22  2  0
 21 26  1  0
 22 23  1  0
 23 24  2  0
 24 25  1  0
 25 26  2  0
M  END
$$$$
