
     RDKit          3D

 26 28  0  0  0  0  0  0  0  0999 V2000
   23.3543   27.0070   22.5618 C   0  0  0  0  0  0  0  0  0  0  0  0
   24.7052   27.0155   22.3076 C   0  0  0  0  0  0  0  0  0  0  0  0
   25.5801   26.5272   23.2609 C   0  0  0  0  0  0  0  0  0  0  0  0
   25.1069   26.0361   24.4554 C   0  0  0  0  0  0  0  0  0  0  0  0
   23.7380   26.0435   24.6769 C   0  0  0  0  0  0  0  0  0  0  0  0
   22.8483   26.5228   23.7465 C   0  0  0  0  0  0  0  0  0  0  0  0
   21.3988   26.5283   23.9870 C   0  0  0  0  0  0  0  0  0  0  0  0
   20.5000   26.2679   23.0127 C   0  0  0  0  0  0  0  0  0  0  0  0
   20.9454   26.8122   25.2653 C   0  0  0  0  0  0  0  0  0  0  0  0
   19.5947   26.8250   25.5219 C   0  0  0  0  0  0  0  0  0  0  0  0
   18.6962   26.5531   24.4964 C   0  0  0  0  0  0  0  0  0  0  0  0
   17.3910   26.6044   24.8060 F   0  0  0  0  0  0  0  0  0  0  0  0
   19.1237   26.2739   23.2459 C   0  0  0  0  0  0  0  0  0  0  0  0
   18.2388   25.9434   22.1144 C   0  0  0  0  0  0  0  0  0  0  0  0
   17.6717   26.9462   21.5559 O   0  0  0  0  0  0  0  0  0  0  0  0
   18.0016   24.6396   21.6409 N   0  0  0  0  0  0  0  0  0  0  0  0
   16.9724   24.2466   20.8803 N   0  0  0  0  0  0  0  0  0  0  0  0
   15.5780   23.5264   21.3857 S   0  0  2  0  0  6  0  0  0  0  0  0
   15.8401   22.3344   22.3176 O   0  0  0  0  0  0  0  0  0  0  0  0
   14.7883   22.9438   20.2346 O   0  0  0  0  0  0  0  0  0  0  0  0
   14.5812   24.6163   22.3200 C   0  0  0  0  0  0  0  0  0  0  0  0
   14.5180   24.4867   23.7166 C   0  0  0  0  0  0  0  0  0  0  0  0
   13.7015   25.3194   24.4484 C   0  0  0  0  0  0  0  0  0  0  0  0
   12.9237   26.2969   23.8722 C   0  0  0  0  0  0  0  0  0  0  0  0
   12.9754   26.4338   22.5137 C   0  0  0  0  0  0  0  0  0  0  0  0
   13.7998   25.5939   21.7672 C   0  0  0  0  0  0  0  0  0  0  0  0
  1  2  2  0
  1  6  1  0
  2  3  1  0
  3  4  2  0
  4  5  1  0
  5  6  2  0
  6  7  1  0
  7  8  2  0
  7  9  1  0
  8 13  1  0
  9 10  2  0
 10 11  1  0
 11 12  1  0
 11 13  2  0
 13 14  1  0
 14 15  2  0
 14 16  1  0
 16 17  1  0
 18 17  1  6
 18 19  2  0
 18 20  2  0
 18 21  1  0
 21 22  2  0
 21 26  1  0
 22 23  1  0
 23 24  2  0
 24 25  1  0
 25 26  2  0
M  END
$$$$
