
     RDKit          3D

 26 28  0  0  0  0  0  0  0  0999 V2000
   20.2501   30.3896   21.1881 C   0  0  0  0  0  0  0  0  0  0  0  0
   20.8461   31.4745   20.5904 C   0  0  0  0  0  0  0  0  0  0  0  0
   22.1515   31.7975   20.9134 C   0  0  0  0  0  0  0  0  0  0  0  0
   22.8517   31.0420   21.8249 C   0  0  0  0  0  0  0  0  0  0  0  0
   22.2180   29.9548   22.4076 C   0  0  0  0  0  0  0  0  0  0  0  0
   20.9227   29.6132   22.1040 C   0  0  0  0  0  0  0  0  0  0  0  0
   20.2564   28.4601   22.7249 C   0  0  0  0  0  0  0  0  0  0  0  0
   19.3272   27.7234   22.0780 C   0  0  0  0  0  0  0  0  0  0  0  0
   20.6009   28.1227   24.0240 C   0  0  0  0  0  0  0  0  0  0  0  0
   19.9949   27.0489   24.6325 C   0  0  0  0  0  0  0  0  0  0  0  0
   19.0420   26.3116   23.9387 C   0  0  0  0  0  0  0  0  0  0  0  0
   18.4706   25.2903   24.5964 F   0  0  0  0  0  0  0  0  0  0  0  0
   18.6970   26.6284   22.6718 C   0  0  0  0  0  0  0  0  0  0  0  0
   17.7224   25.8788   21.8588 C   0  0  0  0  0  0  0  0  0  0  0  0
   16.8477   26.5959   21.2592 O   0  0  0  0  0  0  0  0  0  0  0  0
   17.7110   24.4788   21.7161 N   0  0  0  0  0  0  0  0  0  0  0  0
   16.7282   23.7437   21.1817 N   0  0  0  0  0  0  0  0  0  0  0  0
   15.3829   23.1730   21.9451 S   0  0  2  0  0  6  0  0  0  0  0  0
   15.7011   22.5804   23.3255 O   0  0  0  0  0  0  0  0  0  0  0  0
   14.7340   22.0384   21.1837 O   0  0  0  0  0  0  0  0  0  0  0  0
   14.2215   24.4410   22.2576 C   0  0  0  0  0  0  0  0  0  0  0  0
   13.8254   24.7208   23.5753 C   0  0  0  0  0  0  0  0  0  0  0  0
   12.8805   25.6924   23.8178 C   0  0  0  0  0  0  0  0  0  0  0  0
   12.2874   26.4233   22.8147 C   0  0  0  0  0  0  0  0  0  0  0  0
   12.6633   26.1611   21.5275 C   0  0  0  0  0  0  0  0  0  0  0  0
   13.6192   25.1787   21.2753 C   0  0  0  0  0  0  0  0  0  0  0  0
  1  2  2  0
  1  6  1  0
  2  3  1  0
  3  4  2  0
  4  5  1  0
  5  6  2  0
  6  7  1  0
  7  8  2  0
  7  9  1  0
  8 13  1  0
  9 10  2  0
 10 11  1  0
 11 12  1  0
 11 13  2  0
 13 14  1  0
 14 15  2  0
 14 16  1  0
 16 17  1  0
 18 17  1  6
 18 19  2  0
 18 20  2  0
 18 21  1  0
 21 22  2  0
 21 26  1  0
 22 23  1  0
 23 24  2  0
 24 25  1  0
 25 26  2  0
M  END
$$$$
