
     RDKit          3D

 26 28  0  0  0  0  0  0  0  0999 V2000
   21.3759   24.5486   20.8885 C   0  0  0  0  0  0  0  0  0  0  0  0
   22.2662   25.0468   21.8097 C   0  0  0  0  0  0  0  0  0  0  0  0
   22.2932   24.5156   23.0864 C   0  0  0  0  0  0  0  0  0  0  0  0
   21.4378   23.4968   23.4360 C   0  0  0  0  0  0  0  0  0  0  0  0
   20.5534   23.0195   22.4805 C   0  0  0  0  0  0  0  0  0  0  0  0
   20.5067   23.5299   21.2061 C   0  0  0  0  0  0  0  0  0  0  0  0
   19.5671   23.0203   20.1979 C   0  0  0  0  0  0  0  0  0  0  0  0
   18.3080   22.6396   20.5055 C   0  0  0  0  0  0  0  0  0  0  0  0
   19.9975   22.9305   18.8838 C   0  0  0  0  0  0  0  0  0  0  0  0
   19.1414   22.4575   17.9174 C   0  0  0  0  0  0  0  0  0  0  0  0
   17.8519   22.0736   18.2676 C   0  0  0  0  0  0  0  0  0  0  0  0
   17.0734   21.5985   17.2825 F   0  0  0  0  0  0  0  0  0  0  0  0
   17.4185   22.1564   19.5442 C   0  0  0  0  0  0  0  0  0  0  0  0
   16.0592   21.8014   19.9900 C   0  0  0  0  0  0  0  0  0  0  0  0
   16.0033   21.0879   21.0515 O   0  0  0  0  0  0  0  0  0  0  0  0
   14.8766   22.1936   19.3356 N   0  0  0  0  0  0  0  0  0  0  0  0
   13.6266   21.8897   19.7059 N   0  0  0  0  0  0  0  0  0  0  0  0
   12.6113   22.8028   20.6299 S   0  0  2  0  0  6  0  0  0  0  0  0
   13.3677   23.8053   21.5136 O   0  0  0  0  0  0  0  0  0  0  0  0
   11.8155   21.9617   21.6032 O   0  0  0  0  0  0  0  0  0  0  0  0
   11.5424   23.7820   19.6536 C   0  0  0  0  0  0  0  0  0  0  0  0
   11.8061   25.1502   19.4810 C   0  0  0  0  0  0  0  0  0  0  0  0
   10.9419   25.9297   18.7451 C   0  0  0  0  0  0  0  0  0  0  0  0
    9.8048   25.4293   18.1544 C   0  0  0  0  0  0  0  0  0  0  0  0
    9.5359   24.0993   18.3147 C   0  0  0  0  0  0  0  0  0  0  0  0
   10.4066   23.3049   19.0585 C   0  0  0  0  0  0  0  0  0  0  0  0
  1  2  2  0
  1  6  1  0
  2  3  1  0
  3  4  2  0
  4  5  1  0
  5  6  2  0
  6  7  1  0
  7  8  2  0
  7  9  1  0
  8 13  1  0
  9 10  2  0
 10 11  1  0
 11 12  1  0
 11 13  2  0
 13 14  1  0
 14 15  2  0
 14 16  1  0
 16 17  1  0
 18 17  1  6
 18 19  2  0
 18 20  2  0
 18 21  1  0
 21 22  2  0
 21 26  1  0
 22 23  1  0
 23 24  2  0
 24 25  1  0
 25 26  2  0
M  END
$$$$
