
     RDKit          3D

 26 28  0  0  0  0  0  0  0  0999 V2000
   22.3132   24.6721   22.2502 C   0  0  0  0  0  0  0  0  0  0  0  0
   23.3703   23.9358   21.7852 C   0  0  0  0  0  0  0  0  0  0  0  0
   24.5547   23.8975   22.4898 C   0  0  0  0  0  0  0  0  0  0  0  0
   24.6254   24.6214   23.6631 C   0  0  0  0  0  0  0  0  0  0  0  0
   23.5609   25.3665   24.1367 C   0  0  0  0  0  0  0  0  0  0  0  0
   22.3860   25.3946   23.4226 C   0  0  0  0  0  0  0  0  0  0  0  0
   21.2172   26.1647   23.8697 C   0  0  0  0  0  0  0  0  0  0  0  0
   19.9410   25.7128   23.6603 C   0  0  0  0  0  0  0  0  0  0  0  0
   21.3677   27.3775   24.5231 C   0  0  0  0  0  0  0  0  0  0  0  0
   20.2621   28.0805   24.9352 C   0  0  0  0  0  0  0  0  0  0  0  0
   18.9772   27.6119   24.7170 C   0  0  0  0  0  0  0  0  0  0  0  0
   17.9629   28.3702   25.1449 F   0  0  0  0  0  0  0  0  0  0  0  0
   18.7994   26.4247   24.0785 C   0  0  0  0  0  0  0  0  0  0  0  0
   17.4953   25.8551   23.8292 C   0  0  0  0  0  0  0  0  0  0  0  0
   16.5338   26.6427   23.5255 O   0  0  0  0  0  0  0  0  0  0  0  0
   17.1595   24.4855   23.8845 N   0  0  0  0  0  0  0  0  0  0  0  0
   15.8230   24.0754   23.7651 N   0  0  0  0  0  0  0  0  0  0  0  0
   15.3635   23.8794   22.1151 S   0  0  2  0  0  6  0  0  0  0  0  0
   15.2853   25.2327   21.4748 O   0  0  0  0  0  0  0  0  0  0  0  0
   14.0324   23.1920   22.0085 O   0  0  0  0  0  0  0  0  0  0  0  0
   16.5446   22.8627   21.3246 C   0  0  0  0  0  0  0  0  0  0  0  0
   17.0151   23.1258   20.0556 C   0  0  0  0  0  0  0  0  0  0  0  0
   17.9470   22.3032   19.4593 C   0  0  0  0  0  0  0  0  0  0  0  0
   18.4166   21.1961   20.1470 C   0  0  0  0  0  0  0  0  0  0  0  0
   17.9548   20.9272   21.4077 C   0  0  0  0  0  0  0  0  0  0  0  0
   17.0165   21.7639   21.9962 C   0  0  0  0  0  0  0  0  0  0  0  0
  1  2  2  0
  1  6  1  0
  2  3  1  0
  3  4  2  0
  4  5  1  0
  5  6  2  0
  6  7  1  0
  7  8  2  0
  7  9  1  0
  8 13  1  0
  9 10  2  0
 10 11  1  0
 11 12  1  0
 11 13  2  0
 13 14  1  0
 14 15  2  0
 14 16  1  0
 16 17  1  0
 18 17  1  1
 18 19  2  0
 18 20  2  0
 18 21  1  0
 21 22  2  0
 21 26  1  0
 22 23  1  0
 23 24  2  0
 24 25  1  0
 25 26  2  0
M  END
$$$$
