
     RDKit          3D

 26 28  0  0  0  0  0  0  0  0999 V2000
   24.0778   29.2891   10.0583 C   0  0  0  0  0  0  0  0  0  0  0  0
   24.8962   30.2797    9.5700 C   0  0  0  0  0  0  0  0  0  0  0  0
   24.5185   31.6032    9.7062 C   0  0  0  0  0  0  0  0  0  0  0  0
   23.3342   31.9303   10.3246 C   0  0  0  0  0  0  0  0  0  0  0  0
   22.5343   30.9044   10.8048 C   0  0  0  0  0  0  0  0  0  0  0  0
   22.8866   29.5825   10.6821 C   0  0  0  0  0  0  0  0  0  0  0  0
   22.0347   28.4997   11.1927 C   0  0  0  0  0  0  0  0  0  0  0  0
   20.7180   28.4138   10.9032 C   0  0  0  0  0  0  0  0  0  0  0  0
   22.6125   27.5339   12.0009 C   0  0  0  0  0  0  0  0  0  0  0  0
   21.8414   26.5079   12.4943 C   0  0  0  0  0  0  0  0  0  0  0  0
   20.4889   26.4491   12.1775 C   0  0  0  0  0  0  0  0  0  0  0  0
   19.7864   25.4364   12.7094 F   0  0  0  0  0  0  0  0  0  0  0  0
   19.9124   27.3830   11.3902 C   0  0  0  0  0  0  0  0  0  0  0  0
   18.4961   27.3733   10.9821 C   0  0  0  0  0  0  0  0  0  0  0  0
   18.0534   26.2417   10.5790 O   0  0  0  0  0  0  0  0  0  0  0  0
   17.6480   28.4959   11.0157 N   0  0  0  0  0  0  0  0  0  0  0  0
   16.3595   28.5280   10.6541 N   0  0  0  0  0  0  0  0  0  0  0  0
   15.7290   29.1613    9.2685 S   0  0  2  0  0  6  0  0  0  0  0  0
   14.4505   29.9721    9.5252 O   0  0  0  0  0  0  0  0  0  0  0  0
   15.3087   28.0864    8.2907 O   0  0  0  0  0  0  0  0  0  0  0  0
   16.8280   30.2853    8.5047 C   0  0  0  0  0  0  0  0  0  0  0  0
   17.4762   29.9312    7.3107 C   0  0  0  0  0  0  0  0  0  0  0  0
   18.3725   30.8007    6.7307 C   0  0  0  0  0  0  0  0  0  0  0  0
   18.6761   32.0291    7.2703 C   0  0  0  0  0  0  0  0  0  0  0  0
   18.0527   32.3863    8.4324 C   0  0  0  0  0  0  0  0  0  0  0  0
   17.1445   31.5105    9.0246 C   0  0  0  0  0  0  0  0  0  0  0  0
  1  2  2  0
  1  6  1  0
  2  3  1  0
  3  4  2  0
  4  5  1  0
  5  6  2  0
  6  7  1  0
  7  8  2  0
  7  9  1  0
  8 13  1  0
  9 10  2  0
 10 11  1  0
 11 12  1  0
 11 13  2  0
 13 14  1  0
 14 15  2  0
 14 16  1  0
 16 17  1  0
 18 17  1  1
 18 19  2  0
 18 20  2  0
 18 21  1  0
 21 22  2  0
 21 26  1  0
 22 23  1  0
 23 24  2  0
 24 25  1  0
 25 26  2  0
M  END
$$$$
