
     RDKit          3D

 26 28  0  0  0  0  0  0  0  0999 V2000
   16.4020   27.2856   12.1166 C   0  0  0  0  0  0  0  0  0  0  0  0
   17.0841   28.0784   11.2246 C   0  0  0  0  0  0  0  0  0  0  0  0
   18.4657   28.1224   11.2715 C   0  0  0  0  0  0  0  0  0  0  0  0
   19.1558   27.3805   12.2016 C   0  0  0  0  0  0  0  0  0  0  0  0
   18.4342   26.5922   13.0853 C   0  0  0  0  0  0  0  0  0  0  0  0
   17.0622   26.5311   13.0594 C   0  0  0  0  0  0  0  0  0  0  0  0
   16.3030   25.6942   13.9987 C   0  0  0  0  0  0  0  0  0  0  0  0
   16.7960   25.3193   15.1992 C   0  0  0  0  0  0  0  0  0  0  0  0
   15.0334   25.2786   13.6307 C   0  0  0  0  0  0  0  0  0  0  0  0
   14.2980   24.4945   14.4880 C   0  0  0  0  0  0  0  0  0  0  0  0
   14.8351   24.1259   15.7163 C   0  0  0  0  0  0  0  0  0  0  0  0
   14.0765   23.3407   16.4973 F   0  0  0  0  0  0  0  0  0  0  0  0
   16.0709   24.5244   16.0885 C   0  0  0  0  0  0  0  0  0  0  0  0
   16.6972   24.2045   17.3839 C   0  0  0  0  0  0  0  0  0  0  0  0
   17.9748   24.1246   17.3659 O   0  0  0  0  0  0  0  0  0  0  0  0
   15.9900   23.9953   18.5825 N   0  0  0  0  0  0  0  0  0  0  0  0
   16.5224   23.7346   19.7828 N   0  0  0  0  0  0  0  0  0  0  0  0
   16.7933   22.2523   20.4519 S   0  0  2  0  0  6  0  0  0  0  0  0
   15.7097   21.2326   20.0725 O   0  0  0  0  0  0  0  0  0  0  0  0
   16.7633   22.2957   21.9636 O   0  0  0  0  0  0  0  0  0  0  0  0
   18.2906   21.5462   19.8913 C   0  0  0  0  0  0  0  0  0  0  0  0
   18.2762   20.3159   19.2149 C   0  0  0  0  0  0  0  0  0  0  0  0
   19.4594   19.7404   18.8090 C   0  0  0  0  0  0  0  0  0  0  0  0
   20.6867   20.3190   19.0353 C   0  0  0  0  0  0  0  0  0  0  0  0
   20.7153   21.5163   19.6928 C   0  0  0  0  0  0  0  0  0  0  0  0
   19.5211   22.1040   20.1065 C   0  0  0  0  0  0  0  0  0  0  0  0
  1  2  2  0
  1  6  1  0
  2  3  1  0
  3  4  2  0
  4  5  1  0
  5  6  2  0
  6  7  1  0
  7  8  2  0
  7  9  1  0
  8 13  1  0
  9 10  2  0
 10 11  1  0
 11 12  1  0
 11 13  2  0
 13 14  1  0
 14 15  2  0
 14 16  1  0
 16 17  1  0
 18 17  1  6
 18 19  2  0
 18 20  2  0
 18 21  1  0
 21 22  2  0
 21 26  1  0
 22 23  1  0
 23 24  2  0
 24 25  1  0
 25 26  2  0
M  END
$$$$
