
     RDKit          3D

 26 28  0  0  0  0  0  0  0  0999 V2000
   18.8843   20.5844   17.3836 C   0  0  0  0  0  0  0  0  0  0  0  0
   19.0859   20.1692   16.0940 C   0  0  0  0  0  0  0  0  0  0  0  0
   18.0502   20.1969   15.1845 C   0  0  0  0  0  0  0  0  0  0  0  0
   16.8239   20.6534   15.6243 C   0  0  0  0  0  0  0  0  0  0  0  0
   16.6153   21.0736   16.9253 C   0  0  0  0  0  0  0  0  0  0  0  0
   17.6584   21.0401   17.8208 C   0  0  0  0  0  0  0  0  0  0  0  0
   17.5049   21.4727   19.2167 C   0  0  0  0  0  0  0  0  0  0  0  0
   16.7688   22.5805   19.5446 C   0  0  0  0  0  0  0  0  0  0  0  0
   18.1000   20.7700   20.2523 C   0  0  0  0  0  0  0  0  0  0  0  0
   17.9421   21.1898   21.5505 C   0  0  0  0  0  0  0  0  0  0  0  0
   17.1950   22.3119   21.8680 C   0  0  0  0  0  0  0  0  0  0  0  0
   17.1061   22.6491   23.1584 F   0  0  0  0  0  0  0  0  0  0  0  0
   16.5994   23.0207   20.8722 C   0  0  0  0  0  0  0  0  0  0  0  0
   15.7873   24.1900   21.1184 C   0  0  0  0  0  0  0  0  0  0  0  0
   15.3597   24.8580   20.1144 O   0  0  0  0  0  0  0  0  0  0  0  0
   15.4031   24.6868   22.3822 N   0  0  0  0  0  0  0  0  0  0  0  0
   14.6136   25.8424   22.4822 N   0  0  0  0  0  0  0  0  0  0  0  0
   14.1211   26.1367   24.1079 S   0  0  2  0  0  6  0  0  0  0  0  0
   13.5084   24.8839   24.6579 O   0  0  0  0  0  0  0  0  0  0  0  0
   13.1228   27.2570   24.1699 O   0  0  0  0  0  0  0  0  0  0  0  0
   15.5196   26.6272   25.0337 C   0  0  0  0  0  0  0  0  0  0  0  0
   15.9927   25.8949   26.1019 C   0  0  0  0  0  0  0  0  0  0  0  0
   17.0988   26.3098   26.8127 C   0  0  0  0  0  0  0  0  0  0  0  0
   17.7432   27.4803   26.4469 C   0  0  0  0  0  0  0  0  0  0  0  0
   17.2802   28.2138   25.3874 C   0  0  0  0  0  0  0  0  0  0  0  0
   16.1654   27.7845   24.6803 C   0  0  0  0  0  0  0  0  0  0  0  0
  1  2  2  0
  1  6  1  0
  2  3  1  0
  3  4  2  0
  4  5  1  0
  5  6  2  0
  6  7  1  0
  7  8  2  0
  7  9  1  0
  8 13  1  0
  9 10  2  0
 10 11  1  0
 11 12  1  0
 11 13  2  0
 13 14  1  0
 14 15  2  0
 14 16  1  0
 16 17  1  0
 18 17  1  6
 18 19  2  0
 18 20  2  0
 18 21  1  0
 21 22  2  0
 21 26  1  0
 22 23  1  0
 23 24  2  0
 24 25  1  0
 25 26  2  0
M  END
$$$$
