
     RDKit          3D

 26 28  0  0  0  0  0  0  0  0999 V2000
    5.9065   13.3330   17.0707 C   0  0  0  0  0  0  0  0  0  0  0  0
    5.7332   12.7531   18.2994 C   0  0  0  0  0  0  0  0  0  0  0  0
    6.7974   12.6319   19.1675 C   0  0  0  0  0  0  0  0  0  0  0  0
    8.0224   13.1123   18.7499 C   0  0  0  0  0  0  0  0  0  0  0  0
    8.2024   13.6985   17.5103 C   0  0  0  0  0  0  0  0  0  0  0  0
    7.1311   13.8123   16.6555 C   0  0  0  0  0  0  0  0  0  0  0  0
    7.2534   14.4249   15.3256 C   0  0  0  0  0  0  0  0  0  0  0  0
    6.2988   15.2806   14.8425 C   0  0  0  0  0  0  0  0  0  0  0  0
    8.3442   14.1585   14.5135 C   0  0  0  0  0  0  0  0  0  0  0  0
    8.4407   14.7435   13.2746 C   0  0  0  0  0  0  0  0  0  0  0  0
    7.4680   15.6070   12.7984 C   0  0  0  0  0  0  0  0  0  0  0  0
    7.6432   16.1202   11.5766 F   0  0  0  0  0  0  0  0  0  0  0  0
    6.3868   15.8868   13.5738 C   0  0  0  0  0  0  0  0  0  0  0  0
    5.3383   16.7913   13.1616 C   0  0  0  0  0  0  0  0  0  0  0  0
    5.0342   17.7650   13.9338 O   0  0  0  0  0  0  0  0  0  0  0  0
    4.5945   16.7148   11.9646 N   0  0  0  0  0  0  0  0  0  0  0  0
    3.3387   17.3331   11.8667 N   0  0  0  0  0  0  0  0  0  0  0  0
    2.1882   16.3145   11.0850 S   0  0  2  0  0  6  0  0  0  0  0  0
    0.8778   17.0389   11.0116 O   0  0  0  0  0  0  0  0  0  0  0  0
    2.0131   15.0279   11.8395 O   0  0  0  0  0  0  0  0  0  0  0  0
    2.7896   15.9131    9.4941 C   0  0  0  0  0  0  0  0  0  0  0  0
    3.0737   16.8742    8.5473 C   0  0  0  0  0  0  0  0  0  0  0  0
    3.5464   16.5244    7.3003 C   0  0  0  0  0  0  0  0  0  0  0  0
    3.7382   15.1866    6.9959 C   0  0  0  0  0  0  0  0  0  0  0  0
    3.4586   14.2254    7.9302 C   0  0  0  0  0  0  0  0  0  0  0  0
    2.9832   14.5917    9.1819 C   0  0  0  0  0  0  0  0  0  0  0  0
  1  2  2  0
  1  6  1  0
  2  3  1  0
  3  4  2  0
  4  5  1  0
  5  6  2  0
  6  7  1  0
  7  8  2  0
  7  9  1  0
  8 13  1  0
  9 10  2  0
 10 11  1  0
 11 12  1  0
 11 13  2  0
 13 14  1  0
 14 15  2  0
 14 16  1  0
 16 17  1  0
 18 17  1  1
 18 19  2  0
 18 20  2  0
 18 21  1  0
 21 22  2  0
 21 26  1  0
 22 23  1  0
 23 24  2  0
 24 25  1  0
 25 26  2  0
M  END
$$$$
