
     RDKit          3D

 26 28  0  0  0  0  0  0  0  0999 V2000
    8.2075   14.6901   12.1184 C   0  0  0  0  0  0  0  0  0  0  0  0
    9.3410   15.0584   11.4434 C   0  0  0  0  0  0  0  0  0  0  0  0
    9.2814   16.0191   10.4564 C   0  0  0  0  0  0  0  0  0  0  0  0
    8.0508   16.5823   10.1844 C   0  0  0  0  0  0  0  0  0  0  0  0
    6.9035   16.2138   10.8631 C   0  0  0  0  0  0  0  0  0  0  0  0
    6.9791   15.2540   11.8451 C   0  0  0  0  0  0  0  0  0  0  0  0
    5.7993   14.8174   12.6044 C   0  0  0  0  0  0  0  0  0  0  0  0
    4.5751   14.6787   12.0053 C   0  0  0  0  0  0  0  0  0  0  0  0
    5.8866   14.5276   13.9567 C   0  0  0  0  0  0  0  0  0  0  0  0
    4.7723   14.1185   14.6476 C   0  0  0  0  0  0  0  0  0  0  0  0
    3.5404   13.9826   14.0293 C   0  0  0  0  0  0  0  0  0  0  0  0
    2.5108   13.5884   14.7852 F   0  0  0  0  0  0  0  0  0  0  0  0
    3.4252   14.2598   12.7032 C   0  0  0  0  0  0  0  0  0  0  0  0
    2.1829   14.1245   11.9781 C   0  0  0  0  0  0  0  0  0  0  0  0
    1.0847   14.2834   12.6149 O   0  0  0  0  0  0  0  0  0  0  0  0
    2.0474   13.8298   10.6046 N   0  0  0  0  0  0  0  0  0  0  0  0
    0.7863   13.8654    9.9905 N   0  0  0  0  0  0  0  0  0  0  0  0
    0.9171   13.8926    8.2716 S   0  0  2  0  0  6  0  0  0  0  0  0
    2.0091   14.8456    7.8886 O   0  0  0  0  0  0  0  0  0  0  0  0
   -0.3761   14.3267    7.6436 O   0  0  0  0  0  0  0  0  0  0  0  0
    1.2546   12.2717    7.7128 C   0  0  0  0  0  0  0  0  0  0  0  0
    0.2561   11.3883    7.3612 C   0  0  0  0  0  0  0  0  0  0  0  0
    0.5557   10.1154    6.9246 C   0  0  0  0  0  0  0  0  0  0  0  0
    1.8805    9.7197    6.8384 C   0  0  0  0  0  0  0  0  0  0  0  0
    2.8786   10.5905    7.1855 C   0  0  0  0  0  0  0  0  0  0  0  0
    2.5628   11.8693    7.6236 C   0  0  0  0  0  0  0  0  0  0  0  0
  1  2  2  0
  1  6  1  0
  2  3  1  0
  3  4  2  0
  4  5  1  0
  5  6  2  0
  6  7  1  0
  7  8  2  0
  7  9  1  0
  8 13  1  0
  9 10  2  0
 10 11  1  0
 11 12  1  0
 11 13  2  0
 13 14  1  0
 14 15  2  0
 14 16  1  0
 16 17  1  0
 18 17  1  1
 18 19  2  0
 18 20  2  0
 18 21  1  0
 21 22  2  0
 21 26  1  0
 22 23  1  0
 23 24  2  0
 24 25  1  0
 25 26  2  0
M  END
$$$$
