
     RDKit          3D

 26 28  0  0  0  0  0  0  0  0999 V2000
   23.3201   27.0166   22.6409 C   0  0  0  0  0  0  0  0  0  0  0  0
   24.6635   26.7639   22.4962 C   0  0  0  0  0  0  0  0  0  0  0  0
   25.3339   26.0622   23.4815 C   0  0  0  0  0  0  0  0  0  0  0  0
   24.6659   25.6189   24.5992 C   0  0  0  0  0  0  0  0  0  0  0  0
   23.3110   25.8923   24.7109 C   0  0  0  0  0  0  0  0  0  0  0  0
   22.6223   26.5870   23.7467 C   0  0  0  0  0  0  0  0  0  0  0  0
   21.1866   26.8741   23.8708 C   0  0  0  0  0  0  0  0  0  0  0  0
   20.2646   26.3382   23.0416 C   0  0  0  0  0  0  0  0  0  0  0  0
   20.7716   27.7279   24.8802 C   0  0  0  0  0  0  0  0  0  0  0  0
   19.4347   28.0161   25.0220 C   0  0  0  0  0  0  0  0  0  0  0  0
   18.5115   27.4480   24.1513 C   0  0  0  0  0  0  0  0  0  0  0  0
   17.2248   27.7876   24.3279 F   0  0  0  0  0  0  0  0  0  0  0  0
   18.9015   26.6135   23.1635 C   0  0  0  0  0  0  0  0  0  0  0  0
   17.9840   25.9463   22.2223 C   0  0  0  0  0  0  0  0  0  0  0  0
   17.2653   26.7330   21.5127 O   0  0  0  0  0  0  0  0  0  0  0  0
   17.8688   24.5517   22.0731 N   0  0  0  0  0  0  0  0  0  0  0  0
   17.0453   23.9085   21.2364 N   0  0  0  0  0  0  0  0  0  0  0  0
   15.5813   23.2410   21.5964 S   0  0  2  0  0  6  0  0  0  0  0  0
   15.7152   21.8906   22.3150 O   0  0  0  0  0  0  0  0  0  0  0  0
   14.7747   22.9333   20.3543 O   0  0  0  0  0  0  0  0  0  0  0  0
   14.6579   24.2428   22.6911 C   0  0  0  0  0  0  0  0  0  0  0  0
   13.5427   24.9538   22.2200 C   0  0  0  0  0  0  0  0  0  0  0  0
   12.8395   25.7744   23.0733 C   0  0  0  0  0  0  0  0  0  0  0  0
   13.1780   25.9406   24.3963 C   0  0  0  0  0  0  0  0  0  0  0  0
   14.2615   25.2547   24.8679 C   0  0  0  0  0  0  0  0  0  0  0  0
   14.9775   24.4226   24.0092 C   0  0  0  0  0  0  0  0  0  0  0  0
  1  2  2  0
  1  6  1  0
  2  3  1  0
  3  4  2  0
  4  5  1  0
  5  6  2  0
  6  7  1  0
  7  8  2  0
  7  9  1  0
  8 13  1  0
  9 10  2  0
 10 11  1  0
 11 12  1  0
 11 13  2  0
 13 14  1  0
 14 15  2  0
 14 16  1  0
 16 17  1  0
 18 17  1  6
 18 19  2  0
 18 20  2  0
 18 21  1  0
 21 22  2  0
 21 26  1  0
 22 23  1  0
 23 24  2  0
 24 25  1  0
 25 26  2  0
M  END
$$$$
