
     RDKit          3D

 26 28  0  0  0  0  0  0  0  0999 V2000
   17.2422   22.1241   16.3396 C   0  0  0  0  0  0  0  0  0  0  0  0
   17.8438   21.9222   15.1202 C   0  0  0  0  0  0  0  0  0  0  0  0
   18.7822   20.9156   14.9828 C   0  0  0  0  0  0  0  0  0  0  0  0
   19.1141   20.1205   16.0549 C   0  0  0  0  0  0  0  0  0  0  0  0
   18.4867   20.3534   17.2695 C   0  0  0  0  0  0  0  0  0  0  0  0
   17.5517   21.3464   17.4320 C   0  0  0  0  0  0  0  0  0  0  0  0
   16.8905   21.5887   18.7217 C   0  0  0  0  0  0  0  0  0  0  0  0
   15.7786   22.3472   18.8364 C   0  0  0  0  0  0  0  0  0  0  0  0
   17.4351   21.0128   19.8582 C   0  0  0  0  0  0  0  0  0  0  0  0
   16.8392   21.2211   21.0798 C   0  0  0  0  0  0  0  0  0  0  0  0
   15.6958   22.0075   21.1633 C   0  0  0  0  0  0  0  0  0  0  0  0
   15.1759   22.1914   22.3872 F   0  0  0  0  0  0  0  0  0  0  0  0
   15.1535   22.5744   20.0637 C   0  0  0  0  0  0  0  0  0  0  0  0
   13.9272   23.3922   20.0636 C   0  0  0  0  0  0  0  0  0  0  0  0
   14.0565   24.5674   20.5547 O   0  0  0  0  0  0  0  0  0  0  0  0
   12.6812   22.9626   19.5701 N   0  0  0  0  0  0  0  0  0  0  0  0
   11.4866   23.1809   20.1334 N   0  0  0  0  0  0  0  0  0  0  0  0
   10.2695   22.0887   20.3433 S   0  0  2  0  0  6  0  0  0  0  0  0
   10.0710   21.1909   19.1135 O   0  0  0  0  0  0  0  0  0  0  0  0
    8.9295   22.7609   20.5448 O   0  0  0  0  0  0  0  0  0  0  0  0
   10.6019   20.9844   21.6566 C   0  0  0  0  0  0  0  0  0  0  0  0
   10.3598   19.6107   21.4967 C   0  0  0  0  0  0  0  0  0  0  0  0
   10.5836   18.7463   22.5448 C   0  0  0  0  0  0  0  0  0  0  0  0
   11.0432   19.1648   23.7720 C   0  0  0  0  0  0  0  0  0  0  0  0
   11.2827   20.4993   23.9415 C   0  0  0  0  0  0  0  0  0  0  0  0
   11.0580   21.3795   22.8845 C   0  0  0  0  0  0  0  0  0  0  0  0
  1  2  2  0
  1  6  1  0
  2  3  1  0
  3  4  2  0
  4  5  1  0
  5  6  2  0
  6  7  1  0
  7  8  2  0
  7  9  1  0
  8 13  1  0
  9 10  2  0
 10 11  1  0
 11 12  1  0
 11 13  2  0
 13 14  1  0
 14 15  2  0
 14 16  1  0
 16 17  1  0
 18 17  1  6
 18 19  2  0
 18 20  2  0
 18 21  1  0
 21 22  2  0
 21 26  1  0
 22 23  1  0
 23 24  2  0
 24 25  1  0
 25 26  2  0
M  END
$$$$
