
     RDKit          3D

 26 28  0  0  0  0  0  0  0  0999 V2000
   14.5386   22.1454   16.9608 C   0  0  0  0  0  0  0  0  0  0  0  0
   13.4319   22.1915   16.1468 C   0  0  0  0  0  0  0  0  0  0  0  0
   13.5928   22.1207   14.7750 C   0  0  0  0  0  0  0  0  0  0  0  0
   14.8483   22.0050   14.2251 C   0  0  0  0  0  0  0  0  0  0  0  0
   15.9413   21.9614   15.0773 C   0  0  0  0  0  0  0  0  0  0  0  0
   15.8084   22.0300   16.4428 C   0  0  0  0  0  0  0  0  0  0  0  0
   16.9705   21.9837   17.3408 C   0  0  0  0  0  0  0  0  0  0  0  0
   16.9593   22.5394   18.5720 C   0  0  0  0  0  0  0  0  0  0  0  0
   18.1173   21.3431   16.8996 C   0  0  0  0  0  0  0  0  0  0  0  0
   19.2214   21.2831   17.7169 C   0  0  0  0  0  0  0  0  0  0  0  0
   19.1769   21.8657   18.9785 C   0  0  0  0  0  0  0  0  0  0  0  0
   20.2948   21.7932   19.7182 F   0  0  0  0  0  0  0  0  0  0  0  0
   18.0657   22.4926   19.4220 C   0  0  0  0  0  0  0  0  0  0  0  0
   17.9276   23.1050   20.7556 C   0  0  0  0  0  0  0  0  0  0  0  0
   18.9074   23.8445   21.1191 O   0  0  0  0  0  0  0  0  0  0  0  0
   16.8208   22.9250   21.6059 N   0  0  0  0  0  0  0  0  0  0  0  0
   16.7525   23.2580   22.9007 N   0  0  0  0  0  0  0  0  0  0  0  0
   17.2261   24.6787   23.5904 S   0  0  2  0  0  6  0  0  0  0  0  0
   16.4712   24.9761   24.8941 O   0  0  0  0  0  0  0  0  0  0  0  0
   16.9355   25.8679   22.7020 O   0  0  0  0  0  0  0  0  0  0  0  0
   18.9137   24.6540   24.0443 C   0  0  0  0  0  0  0  0  0  0  0  0
   19.9070   24.7766   23.0596 C   0  0  0  0  0  0  0  0  0  0  0  0
   21.2366   24.7166   23.4126 C   0  0  0  0  0  0  0  0  0  0  0  0
   21.6566   24.5385   24.7104 C   0  0  0  0  0  0  0  0  0  0  0  0
   20.7003   24.4174   25.6787 C   0  0  0  0  0  0  0  0  0  0  0  0
   19.3528   24.4771   25.3279 C   0  0  0  0  0  0  0  0  0  0  0  0
  1  2  2  0
  1  6  1  0
  2  3  1  0
  3  4  2  0
  4  5  1  0
  5  6  2  0
  6  7  1  0
  7  8  2  0
  7  9  1  0
  8 13  1  0
  9 10  2  0
 10 11  1  0
 11 12  1  0
 11 13  2  0
 13 14  1  0
 14 15  2  0
 14 16  1  0
 16 17  1  0
 18 17  1  6
 18 19  2  0
 18 20  2  0
 18 21  1  0
 21 22  2  0
 21 26  1  0
 22 23  1  0
 23 24  2  0
 24 25  1  0
 25 26  2  0
M  END
$$$$
