
     RDKit          3D

 26 28  0  0  0  0  0  0  0  0999 V2000
   18.6557   27.6519   23.8422 C   0  0  0  0  0  0  0  0  0  0  0  0
   19.0648   28.7042   24.6263 C   0  0  0  0  0  0  0  0  0  0  0  0
   20.0959   28.5193   25.5292 C   0  0  0  0  0  0  0  0  0  0  0  0
   20.7101   27.2941   25.6452 C   0  0  0  0  0  0  0  0  0  0  0  0
   20.2708   26.2558   24.8378 C   0  0  0  0  0  0  0  0  0  0  0  0
   19.2490   26.4134   23.9335 C   0  0  0  0  0  0  0  0  0  0  0  0
   18.7875   25.3093   23.0808 C   0  0  0  0  0  0  0  0  0  0  0  0
   17.5014   25.1848   22.6867 C   0  0  0  0  0  0  0  0  0  0  0  0
   19.7140   24.3645   22.6697 C   0  0  0  0  0  0  0  0  0  0  0  0
   19.3129   23.3194   21.8713 C   0  0  0  0  0  0  0  0  0  0  0  0
   17.9813   23.2203   21.4838 C   0  0  0  0  0  0  0  0  0  0  0  0
   17.6492   22.1646   20.7241 F   0  0  0  0  0  0  0  0  0  0  0  0
   17.0676   24.1343   21.8762 C   0  0  0  0  0  0  0  0  0  0  0  0
   15.6473   24.1184   21.4823 C   0  0  0  0  0  0  0  0  0  0  0  0
   15.0826   25.2664   21.4349 O   0  0  0  0  0  0  0  0  0  0  0  0
   14.9188   22.9559   21.1687 N   0  0  0  0  0  0  0  0  0  0  0  0
   13.6903   22.6481   21.6024 N   0  0  0  0  0  0  0  0  0  0  0  0
   12.3020   23.5009   21.3502 S   0  0  2  0  0  6  0  0  0  0  0  0
   11.0708   22.8034   21.9466 O   0  0  0  0  0  0  0  0  0  0  0  0
   11.9822   23.6463   19.8789 O   0  0  0  0  0  0  0  0  0  0  0  0
   12.3484   25.0681   22.1224 C   0  0  0  0  0  0  0  0  0  0  0  0
   12.3006   26.2356   21.3440 C   0  0  0  0  0  0  0  0  0  0  0  0
   12.3779   27.4697   21.9497 C   0  0  0  0  0  0  0  0  0  0  0  0
   12.5027   27.6263   23.3106 C   0  0  0  0  0  0  0  0  0  0  0  0
   12.5507   26.4983   24.0802 C   0  0  0  0  0  0  0  0  0  0  0  0
   12.4731   25.2462   23.4732 C   0  0  0  0  0  0  0  0  0  0  0  0
  1  2  2  0
  1  6  1  0
  2  3  1  0
  3  4  2  0
  4  5  1  0
  5  6  2  0
  6  7  1  0
  7  8  2  0
  7  9  1  0
  8 13  1  0
  9 10  2  0
 10 11  1  0
 11 12  1  0
 11 13  2  0
 13 14  1  0
 14 15  2  0
 14 16  1  0
 16 17  1  0
 18 17  1  6
 18 19  2  0
 18 20  2  0
 18 21  1  0
 21 22  2  0
 21 26  1  0
 22 23  1  0
 23 24  2  0
 24 25  1  0
 25 26  2  0
M  END
$$$$
