
     RDKit          3D

 26 28  0  0  0  0  0  0  0  0999 V2000
   21.0968   32.1392   18.3037 C   0  0  0  0  0  0  0  0  0  0  0  0
   22.1738   31.4816   18.8361 C   0  0  0  0  0  0  0  0  0  0  0  0
   22.5131   30.2238   18.3849 C   0  0  0  0  0  0  0  0  0  0  0  0
   21.7330   29.6679   17.3910 C   0  0  0  0  0  0  0  0  0  0  0  0
   20.6445   30.3279   16.8503 C   0  0  0  0  0  0  0  0  0  0  0  0
   20.3187   31.5821   17.3108 C   0  0  0  0  0  0  0  0  0  0  0  0
   19.1762   32.3379   16.7792 C   0  0  0  0  0  0  0  0  0  0  0  0
   17.9875   31.7236   16.4854 C   0  0  0  0  0  0  0  0  0  0  0  0
   19.2628   33.7034   16.5590 C   0  0  0  0  0  0  0  0  0  0  0  0
   18.1823   34.3917   16.0639 C   0  0  0  0  0  0  0  0  0  0  0  0
   16.9861   33.7580   15.7710 C   0  0  0  0  0  0  0  0  0  0  0  0
   15.9934   34.5088   15.2835 F   0  0  0  0  0  0  0  0  0  0  0  0
   16.8724   32.4190   15.9774 C   0  0  0  0  0  0  0  0  0  0  0  0
   15.6553   31.6853   15.7175 C   0  0  0  0  0  0  0  0  0  0  0  0
   14.5731   32.0831   16.2723 O   0  0  0  0  0  0  0  0  0  0  0  0
   15.5282   30.5469   14.8932 N   0  0  0  0  0  0  0  0  0  0  0  0
   14.2800   29.9297   14.7201 N   0  0  0  0  0  0  0  0  0  0  0  0
   14.1707   29.1342   13.1944 S   0  0  2  0  0  6  0  0  0  0  0  0
   13.1101   28.0781   13.2789 O   0  0  0  0  0  0  0  0  0  0  0  0
   15.4829   28.5044   12.8244 O   0  0  0  0  0  0  0  0  0  0  0  0
   13.7955   30.3242   11.9711 C   0  0  0  0  0  0  0  0  0  0  0  0
   12.5083   30.7552   11.7296 C   0  0  0  0  0  0  0  0  0  0  0  0
   12.2453   31.6954   10.7561 C   0  0  0  0  0  0  0  0  0  0  0  0
   13.2914   32.2137   10.0103 C   0  0  0  0  0  0  0  0  0  0  0  0
   14.5729   31.7914   10.2434 C   0  0  0  0  0  0  0  0  0  0  0  0
   14.8235   30.8441   11.2267 C   0  0  0  0  0  0  0  0  0  0  0  0
  1  2  2  0
  1  6  1  0
  2  3  1  0
  3  4  2  0
  4  5  1  0
  5  6  2  0
  6  7  1  0
  7  8  2  0
  7  9  1  0
  8 13  1  0
  9 10  2  0
 10 11  1  0
 11 12  1  0
 11 13  2  0
 13 14  1  0
 14 15  2  0
 14 16  1  0
 16 17  1  0
 18 17  1  1
 18 19  2  0
 18 20  2  0
 18 21  1  0
 21 22  2  0
 21 26  1  0
 22 23  1  0
 23 24  2  0
 24 25  1  0
 25 26  2  0
M  END
$$$$
