
     RDKit          3D

 26 28  0  0  0  0  0  0  0  0999 V2000
   19.5278   25.6812   26.4802 C   0  0  0  0  0  0  0  0  0  0  0  0
   19.7537   25.8018   27.8308 C   0  0  0  0  0  0  0  0  0  0  0  0
   20.3802   26.9348   28.3173 C   0  0  0  0  0  0  0  0  0  0  0  0
   20.7758   27.9353   27.4604 C   0  0  0  0  0  0  0  0  0  0  0  0
   20.5313   27.7789   26.1044 C   0  0  0  0  0  0  0  0  0  0  0  0
   19.9110   26.6637   25.5961 C   0  0  0  0  0  0  0  0  0  0  0  0
   19.6549   26.5035   24.1581 C   0  0  0  0  0  0  0  0  0  0  0  0
   18.4901   26.0164   23.6779 C   0  0  0  0  0  0  0  0  0  0  0  0
   20.6520   26.8689   23.2680 C   0  0  0  0  0  0  0  0  0  0  0  0
   20.4425   26.7307   21.9161 C   0  0  0  0  0  0  0  0  0  0  0  0
   19.2321   26.2257   21.4548 C   0  0  0  0  0  0  0  0  0  0  0  0
   19.0988   26.0935   20.1255 F   0  0  0  0  0  0  0  0  0  0  0  0
   18.2510   25.8663   22.3108 C   0  0  0  0  0  0  0  0  0  0  0  0
   16.9306   25.3549   21.9013 C   0  0  0  0  0  0  0  0  0  0  0  0
   15.9575   26.1717   22.0597 O   0  0  0  0  0  0  0  0  0  0  0  0
   16.7013   24.0730   21.3678 N   0  0  0  0  0  0  0  0  0  0  0  0
   15.5386   23.6058   20.8969 N   0  0  0  0  0  0  0  0  0  0  0  0
   14.1503   23.3483   21.7482 S   0  0  2  0  0  6  0  0  0  0  0  0
   14.3904   22.5283   23.0241 O   0  0  0  0  0  0  0  0  0  0  0  0
   13.1409   22.5420   20.9613 O   0  0  0  0  0  0  0  0  0  0  0  0
   13.4372   24.8443   22.3033 C   0  0  0  0  0  0  0  0  0  0  0  0
   13.5389   25.2111   23.6547 C   0  0  0  0  0  0  0  0  0  0  0  0
   12.9424   26.3696   24.0997 C   0  0  0  0  0  0  0  0  0  0  0  0
   12.2338   27.2094   23.2720 C   0  0  0  0  0  0  0  0  0  0  0  0
   12.1267   26.8643   21.9543 C   0  0  0  0  0  0  0  0  0  0  0  0
   12.7281   25.6928   21.4977 C   0  0  0  0  0  0  0  0  0  0  0  0
  1  2  2  0
  1  6  1  0
  2  3  1  0
  3  4  2  0
  4  5  1  0
  5  6  2  0
  6  7  1  0
  7  8  2  0
  7  9  1  0
  8 13  1  0
  9 10  2  0
 10 11  1  0
 11 12  1  0
 11 13  2  0
 13 14  1  0
 14 15  2  0
 14 16  1  0
 16 17  1  0
 18 17  1  6
 18 19  2  0
 18 20  2  0
 18 21  1  0
 21 22  2  0
 21 26  1  0
 22 23  1  0
 23 24  2  0
 24 25  1  0
 25 26  2  0
M  END
$$$$
