
     RDKit          3D

 26 28  0  0  0  0  0  0  0  0999 V2000
   20.1321   21.7228   21.5195 C   0  0  0  0  0  0  0  0  0  0  0  0
   21.1202   21.8868   22.4537 C   0  0  0  0  0  0  0  0  0  0  0  0
   22.3887   22.2622   22.0656 C   0  0  0  0  0  0  0  0  0  0  0  0
   22.6135   22.4613   20.7182 C   0  0  0  0  0  0  0  0  0  0  0  0
   21.6191   22.2969   19.7712 C   0  0  0  0  0  0  0  0  0  0  0  0
   20.3588   21.9223   20.1740 C   0  0  0  0  0  0  0  0  0  0  0  0
   19.2575   21.7312   19.2202 C   0  0  0  0  0  0  0  0  0  0  0  0
   17.9597   22.0052   19.5630 C   0  0  0  0  0  0  0  0  0  0  0  0
   19.4962   21.2680   17.9361 C   0  0  0  0  0  0  0  0  0  0  0  0
   18.4529   21.0987   17.0591 C   0  0  0  0  0  0  0  0  0  0  0  0
   17.1453   21.3797   17.4188 C   0  0  0  0  0  0  0  0  0  0  0  0
   16.1952   21.1745   16.5011 F   0  0  0  0  0  0  0  0  0  0  0  0
   16.8814   21.8358   18.6722 C   0  0  0  0  0  0  0  0  0  0  0  0
   15.5498   22.1715   19.1212 C   0  0  0  0  0  0  0  0  0  0  0  0
   14.6929   21.2296   19.2462 O   0  0  0  0  0  0  0  0  0  0  0  0
   15.0807   23.4619   19.4473 N   0  0  0  0  0  0  0  0  0  0  0  0
   13.7403   23.6606   19.8113 N   0  0  0  0  0  0  0  0  0  0  0  0
   13.5478   25.0738   20.7800 S   0  0  2  0  0  6  0  0  0  0  0  0
   12.1078   25.1879   21.1812 O   0  0  0  0  0  0  0  0  0  0  0  0
   13.9601   26.3025   20.0213 O   0  0  0  0  0  0  0  0  0  0  0  0
   14.5937   24.9409   22.1735 C   0  0  0  0  0  0  0  0  0  0  0  0
   14.2969   24.1260   23.2452 C   0  0  0  0  0  0  0  0  0  0  0  0
   15.1431   24.0441   24.3305 C   0  0  0  0  0  0  0  0  0  0  0  0
   16.3088   24.7925   24.3427 C   0  0  0  0  0  0  0  0  0  0  0  0
   16.6115   25.6045   23.2825 C   0  0  0  0  0  0  0  0  0  0  0  0
   15.7505   25.6775   22.1961 C   0  0  0  0  0  0  0  0  0  0  0  0
  1  2  2  0
  1  6  1  0
  2  3  1  0
  3  4  2  0
  4  5  1  0
  5  6  2  0
  6  7  1  0
  7  8  2  0
  7  9  1  0
  8 13  1  0
  9 10  2  0
 10 11  1  0
 11 12  1  0
 11 13  2  0
 13 14  1  0
 14 15  2  0
 14 16  1  0
 16 17  1  0
 18 17  1  6
 18 19  2  0
 18 20  2  0
 18 21  1  0
 21 22  2  0
 21 26  1  0
 22 23  1  0
 23 24  2  0
 24 25  1  0
 25 26  2  0
M  END
$$$$
