
     RDKit          3D

 26 28  0  0  0  0  0  0  0  0999 V2000
   20.2584   18.7064   33.3793 C   0  0  0  0  0  0  0  0  0  0  0  0
   20.8711   19.1936   32.2554 C   0  0  0  0  0  0  0  0  0  0  0  0
   20.1958   19.2263   31.0539 C   0  0  0  0  0  0  0  0  0  0  0  0
   18.8986   18.7545   31.0354 C   0  0  0  0  0  0  0  0  0  0  0  0
   18.2756   18.2616   32.1675 C   0  0  0  0  0  0  0  0  0  0  0  0
   18.9624   18.2356   33.3586 C   0  0  0  0  0  0  0  0  0  0  0  0
   18.3595   17.7260   34.5979 C   0  0  0  0  0  0  0  0  0  0  0  0
   18.6418   18.2897   35.8142 C   0  0  0  0  0  0  0  0  0  0  0  0
   17.4798   16.6555   34.5773 C   0  0  0  0  0  0  0  0  0  0  0  0
   16.9253   16.1960   35.7468 C   0  0  0  0  0  0  0  0  0  0  0  0
   17.2195   16.7754   36.9699 C   0  0  0  0  0  0  0  0  0  0  0  0
   16.6394   16.2535   38.0553 F   0  0  0  0  0  0  0  0  0  0  0  0
   18.0792   17.8275   37.0204 C   0  0  0  0  0  0  0  0  0  0  0  0
   18.4237   18.5014   38.2510 C   0  0  0  0  0  0  0  0  0  0  0  0
   17.4885   19.0576   38.9241 O   0  0  0  0  0  0  0  0  0  0  0  0
   19.7162   18.6131   38.8065 N   0  0  0  0  0  0  0  0  0  0  0  0
   19.8968   19.1707   40.0814 N   0  0  0  0  0  0  0  0  0  0  0  0
   21.2837   20.1933   40.1370 S   0  0  2  0  0  6  0  0  0  0  0  0
   22.4226   19.4945   39.4573 O   0  0  0  0  0  0  0  0  0  0  0  0
   21.6590   20.5089   41.5565 O   0  0  0  0  0  0  0  0  0  0  0  0
   20.8946   21.7033   39.3482 C   0  0  0  0  0  0  0  0  0  0  0  0
   21.5762   22.1540   38.2377 C   0  0  0  0  0  0  0  0  0  0  0  0
   21.2451   23.3508   37.6389 C   0  0  0  0  0  0  0  0  0  0  0  0
   20.2117   24.1107   38.1621 C   0  0  0  0  0  0  0  0  0  0  0  0
   19.5294   23.6707   39.2648 C   0  0  0  0  0  0  0  0  0  0  0  0
   19.8733   22.4637   39.8578 C   0  0  0  0  0  0  0  0  0  0  0  0
  1  2  2  0
  1  6  1  0
  2  3  1  0
  3  4  2  0
  4  5  1  0
  5  6  2  0
  6  7  1  0
  7  8  2  0
  7  9  1  0
  8 13  1  0
  9 10  2  0
 10 11  1  0
 11 12  1  0
 11 13  2  0
 13 14  1  0
 14 15  2  0
 14 16  1  0
 16 17  1  0
 18 17  1  1
 18 19  2  0
 18 20  2  0
 18 21  1  0
 21 22  2  0
 21 26  1  0
 22 23  1  0
 23 24  2  0
 24 25  1  0
 25 26  2  0
M  END
$$$$
