
     RDKit          3D

 26 28  0  0  0  0  0  0  0  0999 V2000
   20.9038   20.1082   17.1621 C   0  0  0  0  0  0  0  0  0  0  0  0
   22.0698   19.3854   17.2482 C   0  0  0  0  0  0  0  0  0  0  0  0
   22.2512   18.5096   18.3030 C   0  0  0  0  0  0  0  0  0  0  0  0
   21.2753   18.3597   19.2606 C   0  0  0  0  0  0  0  0  0  0  0  0
   20.1122   19.1052   19.1410 C   0  0  0  0  0  0  0  0  0  0  0  0
   19.9078   19.9817   18.1033 C   0  0  0  0  0  0  0  0  0  0  0  0
   18.6733   20.7693   17.9821 C   0  0  0  0  0  0  0  0  0  0  0  0
   18.0397   21.2957   19.0527 C   0  0  0  0  0  0  0  0  0  0  0  0
   18.1463   20.9753   16.7172 C   0  0  0  0  0  0  0  0  0  0  0  0
   16.9922   21.7082   16.5711 C   0  0  0  0  0  0  0  0  0  0  0  0
   16.3645   22.2358   17.6938 C   0  0  0  0  0  0  0  0  0  0  0  0
   15.2292   22.9213   17.4862 F   0  0  0  0  0  0  0  0  0  0  0  0
   16.8672   22.0438   18.9327 C   0  0  0  0  0  0  0  0  0  0  0  0
   16.2812   22.5962   20.1672 C   0  0  0  0  0  0  0  0  0  0  0  0
   15.0179   22.4303   20.2917 O   0  0  0  0  0  0  0  0  0  0  0  0
   17.0113   23.2633   21.1684 N   0  0  0  0  0  0  0  0  0  0  0  0
   16.5416   23.6738   22.3528 N   0  0  0  0  0  0  0  0  0  0  0  0
   15.9228   25.1574   22.7194 S   0  0  2  0  0  6  0  0  0  0  0  0
   16.6836   26.2961   22.0246 O   0  0  0  0  0  0  0  0  0  0  0  0
   16.0317   25.4712   24.1951 O   0  0  0  0  0  0  0  0  0  0  0  0
   14.2692   25.3272   22.1797 C   0  0  0  0  0  0  0  0  0  0  0  0
   13.2615   24.5287   22.7438 C   0  0  0  0  0  0  0  0  0  0  0  0
   11.9657   24.6341   22.2902 C   0  0  0  0  0  0  0  0  0  0  0  0
   11.5941   25.5009   21.2887 C   0  0  0  0  0  0  0  0  0  0  0  0
   12.5649   26.2838   20.7306 C   0  0  0  0  0  0  0  0  0  0  0  0
   13.8784   26.1817   21.1853 C   0  0  0  0  0  0  0  0  0  0  0  0
  1  2  2  0
  1  6  1  0
  2  3  1  0
  3  4  2  0
  4  5  1  0
  5  6  2  0
  6  7  1  0
  7  8  2  0
  7  9  1  0
  8 13  1  0
  9 10  2  0
 10 11  1  0
 11 12  1  0
 11 13  2  0
 13 14  1  0
 14 15  2  0
 14 16  1  0
 16 17  1  0
 18 17  1  1
 18 19  2  0
 18 20  2  0
 18 21  1  0
 21 22  2  0
 21 26  1  0
 22 23  1  0
 23 24  2  0
 24 25  1  0
 25 26  2  0
M  END
$$$$
