
     RDKit          3D

 26 28  0  0  0  0  0  0  0  0999 V2000
   20.6804   20.4292   18.6352 C   0  0  0  0  0  0  0  0  0  0  0  0
   21.8252   20.2189   19.3571 C   0  0  0  0  0  0  0  0  0  0  0  0
   22.1454   21.0486   20.4105 C   0  0  0  0  0  0  0  0  0  0  0  0
   21.2763   22.0816   20.6991 C   0  0  0  0  0  0  0  0  0  0  0  0
   20.1192   22.2981   19.9732 C   0  0  0  0  0  0  0  0  0  0  0  0
   19.8135   21.4617   18.9253 C   0  0  0  0  0  0  0  0  0  0  0  0
   18.6004   21.6353   18.1144 C   0  0  0  0  0  0  0  0  0  0  0  0
   17.4464   22.1391   18.6539 C   0  0  0  0  0  0  0  0  0  0  0  0
   18.5842   21.2961   16.7709 C   0  0  0  0  0  0  0  0  0  0  0  0
   17.4406   21.4685   16.0300 C   0  0  0  0  0  0  0  0  0  0  0  0
   16.2804   21.9791   16.5883 C   0  0  0  0  0  0  0  0  0  0  0  0
   15.2143   22.1017   15.7913 F   0  0  0  0  0  0  0  0  0  0  0  0
   16.2675   22.3208   17.9042 C   0  0  0  0  0  0  0  0  0  0  0  0
   15.1065   22.8783   18.5590 C   0  0  0  0  0  0  0  0  0  0  0  0
   14.0245   22.9957   17.8862 O   0  0  0  0  0  0  0  0  0  0  0  0
   15.0355   23.3174   19.8983 N   0  0  0  0  0  0  0  0  0  0  0  0
   13.8148   23.7434   20.4435 N   0  0  0  0  0  0  0  0  0  0  0  0
   13.8497   23.7302   22.1671 S   0  0  2  0  0  6  0  0  0  0  0  0
   14.1842   22.3440   22.6297 O   0  0  0  0  0  0  0  0  0  0  0  0
   12.5215   24.1449   22.7322 O   0  0  0  0  0  0  0  0  0  0  0  0
   15.0373   24.8918   22.7094 C   0  0  0  0  0  0  0  0  0  0  0  0
   16.2696   24.5148   23.1994 C   0  0  0  0  0  0  0  0  0  0  0  0
   17.1845   25.4564   23.6201 C   0  0  0  0  0  0  0  0  0  0  0  0
   16.8591   26.8011   23.5487 C   0  0  0  0  0  0  0  0  0  0  0  0
   15.6374   27.1844   23.0634 C   0  0  0  0  0  0  0  0  0  0  0  0
   14.7256   26.2258   22.6432 C   0  0  0  0  0  0  0  0  0  0  0  0
  1  2  2  0
  1  6  1  0
  2  3  1  0
  3  4  2  0
  4  5  1  0
  5  6  2  0
  6  7  1  0
  7  8  2  0
  7  9  1  0
  8 13  1  0
  9 10  2  0
 10 11  1  0
 11 12  1  0
 11 13  2  0
 13 14  1  0
 14 15  2  0
 14 16  1  0
 16 17  1  0
 18 17  1  6
 18 19  2  0
 18 20  2  0
 18 21  1  0
 21 22  2  0
 21 26  1  0
 22 23  1  0
 23 24  2  0
 24 25  1  0
 25 26  2  0
M  END
$$$$
