
     RDKit          3D

 26 28  0  0  0  0  0  0  0  0999 V2000
   16.4377   22.6527   17.1576 C   0  0  0  0  0  0  0  0  0  0  0  0
   15.8708   22.7672   15.9161 C   0  0  0  0  0  0  0  0  0  0  0  0
   15.2128   21.6958   15.3506 C   0  0  0  0  0  0  0  0  0  0  0  0
   15.1524   20.5245   16.0787 C   0  0  0  0  0  0  0  0  0  0  0  0
   15.7232   20.4040   17.3326 C   0  0  0  0  0  0  0  0  0  0  0  0
   16.3762   21.4817   17.8834 C   0  0  0  0  0  0  0  0  0  0  0  0
   17.0034   21.4212   19.2108 C   0  0  0  0  0  0  0  0  0  0  0  0
   17.0043   22.5035   20.0506 C   0  0  0  0  0  0  0  0  0  0  0  0
   17.6150   20.2618   19.6602 C   0  0  0  0  0  0  0  0  0  0  0  0
   18.1933   20.2254   20.9055 C   0  0  0  0  0  0  0  0  0  0  0  0
   18.1870   21.3273   21.7446 C   0  0  0  0  0  0  0  0  0  0  0  0
   18.7836   21.2003   22.9341 F   0  0  0  0  0  0  0  0  0  0  0  0
   17.5938   22.4783   21.3300 C   0  0  0  0  0  0  0  0  0  0  0  0
   17.5255   23.6657   22.1502 C   0  0  0  0  0  0  0  0  0  0  0  0
   17.4065   23.5261   23.4165 O   0  0  0  0  0  0  0  0  0  0  0  0
   17.5793   24.9994   21.6921 N   0  0  0  0  0  0  0  0  0  0  0  0
   17.8335   26.0494   22.5874 N   0  0  0  0  0  0  0  0  0  0  0  0
   16.6789   27.3190   22.4220 S   0  0  2  0  0  6  0  0  0  0  0  0
   16.2379   27.3829   20.9906 O   0  0  0  0  0  0  0  0  0  0  0  0
   17.2722   28.6377   22.8276 O   0  0  0  0  0  0  0  0  0  0  0  0
   15.3369   26.9948   23.4932 C   0  0  0  0  0  0  0  0  0  0  0  0
   14.1263   26.5175   23.0376 C   0  0  0  0  0  0  0  0  0  0  0  0
   13.0865   26.2726   23.9091 C   0  0  0  0  0  0  0  0  0  0  0  0
   13.2624   26.5102   25.2625 C   0  0  0  0  0  0  0  0  0  0  0  0
   14.4614   26.9842   25.7237 C   0  0  0  0  0  0  0  0  0  0  0  0
   15.5000   27.2265   24.8352 C   0  0  0  0  0  0  0  0  0  0  0  0
  1  2  2  0
  1  6  1  0
  2  3  1  0
  3  4  2  0
  4  5  1  0
  5  6  2  0
  6  7  1  0
  7  8  2  0
  7  9  1  0
  8 13  1  0
  9 10  2  0
 10 11  1  0
 11 12  1  0
 11 13  2  0
 13 14  1  0
 14 15  2  0
 14 16  1  0
 16 17  1  0
 18 17  1  6
 18 19  2  0
 18 20  2  0
 18 21  1  0
 21 22  2  0
 21 26  1  0
 22 23  1  0
 23 24  2  0
 24 25  1  0
 25 26  2  0
M  END
$$$$
