
     RDKit          3D

 26 28  0  0  0  0  0  0  0  0999 V2000
   22.1172   25.7663   25.0837 C   0  0  0  0  0  0  0  0  0  0  0  0
   23.4815   25.9244   25.1388 C   0  0  0  0  0  0  0  0  0  0  0  0
   24.2602   25.4885   24.0822 C   0  0  0  0  0  0  0  0  0  0  0  0
   23.6784   24.9010   22.9830 C   0  0  0  0  0  0  0  0  0  0  0  0
   22.2992   24.7583   22.9625 C   0  0  0  0  0  0  0  0  0  0  0  0
   21.5037   25.1827   23.9988 C   0  0  0  0  0  0  0  0  0  0  0  0
   20.0428   25.0284   23.9716 C   0  0  0  0  0  0  0  0  0  0  0  0
   19.3106   25.2426   22.8567 C   0  0  0  0  0  0  0  0  0  0  0  0
   19.3999   24.6480   25.1386 C   0  0  0  0  0  0  0  0  0  0  0  0
   18.0334   24.4953   25.1450 C   0  0  0  0  0  0  0  0  0  0  0  0
   17.3094   24.7241   23.9804 C   0  0  0  0  0  0  0  0  0  0  0  0
   15.9769   24.5810   24.0584 F   0  0  0  0  0  0  0  0  0  0  0  0
   17.9227   25.0945   22.8354 C   0  0  0  0  0  0  0  0  0  0  0  0
   17.2319   25.3234   21.5536 C   0  0  0  0  0  0  0  0  0  0  0  0
   17.5781   26.3872   20.9310 O   0  0  0  0  0  0  0  0  0  0  0  0
   16.2581   24.4667   21.0075 N   0  0  0  0  0  0  0  0  0  0  0  0
   15.6001   24.6455   19.8555 N   0  0  0  0  0  0  0  0  0  0  0  0
   14.4143   23.6881   19.2264 S   0  0  2  0  0  6  0  0  0  0  0  0
   14.8494   22.2203   19.1077 O   0  0  0  0  0  0  0  0  0  0  0  0
   14.0449   24.0914   17.8161 O   0  0  0  0  0  0  0  0  0  0  0  0
   12.9934   23.6546   20.2435 C   0  0  0  0  0  0  0  0  0  0  0  0
   11.9610   24.5836   20.0377 C   0  0  0  0  0  0  0  0  0  0  0  0
   10.8601   24.5829   20.8647 C   0  0  0  0  0  0  0  0  0  0  0  0
   10.7117   23.6994   21.9087 C   0  0  0  0  0  0  0  0  0  0  0  0
   11.7092   22.7900   22.1205 C   0  0  0  0  0  0  0  0  0  0  0  0
   12.8263   22.7857   21.2870 C   0  0  0  0  0  0  0  0  0  0  0  0
  1  2  2  0
  1  6  1  0
  2  3  1  0
  3  4  2  0
  4  5  1  0
  5  6  2  0
  6  7  1  0
  7  8  2  0
  7  9  1  0
  8 13  1  0
  9 10  2  0
 10 11  1  0
 11 12  1  0
 11 13  2  0
 13 14  1  0
 14 15  2  0
 14 16  1  0
 16 17  1  0
 18 17  1  1
 18 19  2  0
 18 20  2  0
 18 21  1  0
 21 22  2  0
 21 26  1  0
 22 23  1  0
 23 24  2  0
 24 25  1  0
 25 26  2  0
M  END
$$$$
