
     RDKit          3D

 26 28  0  0  0  0  0  0  0  0999 V2000
   18.0681   21.8201   18.3069 C   0  0  0  0  0  0  0  0  0  0  0  0
   18.9695   21.2393   17.4548 C   0  0  0  0  0  0  0  0  0  0  0  0
   18.5533   20.7326   16.2421 C   0  0  0  0  0  0  0  0  0  0  0  0
   17.2122   20.8353   15.9315 C   0  0  0  0  0  0  0  0  0  0  0  0
   16.2982   21.4209   16.7885 C   0  0  0  0  0  0  0  0  0  0  0  0
   16.7288   21.9217   17.9947 C   0  0  0  0  0  0  0  0  0  0  0  0
   15.8108   22.5565   18.9504 C   0  0  0  0  0  0  0  0  0  0  0  0
   16.2487   23.4977   19.8444 C   0  0  0  0  0  0  0  0  0  0  0  0
   14.4656   22.2248   18.9776 C   0  0  0  0  0  0  0  0  0  0  0  0
   13.6238   22.8318   19.8773 C   0  0  0  0  0  0  0  0  0  0  0  0
   14.0799   23.7820   20.7758 C   0  0  0  0  0  0  0  0  0  0  0  0
   13.1886   24.3108   21.6201 F   0  0  0  0  0  0  0  0  0  0  0  0
   15.3950   24.1273   20.7716 C   0  0  0  0  0  0  0  0  0  0  0  0
   15.9479   25.1228   21.6607 C   0  0  0  0  0  0  0  0  0  0  0  0
   15.1892   26.0723   22.0606 O   0  0  0  0  0  0  0  0  0  0  0  0
   17.2710   25.1601   22.1505 N   0  0  0  0  0  0  0  0  0  0  0  0
   17.6405   26.0932   23.1310 N   0  0  0  0  0  0  0  0  0  0  0  0
   18.2314   25.3194   24.5538 S   0  0  2  0  0  6  0  0  0  0  0  0
   17.2116   24.3229   25.0167 O   0  0  0  0  0  0  0  0  0  0  0  0
   18.4874   26.3230   25.6413 O   0  0  0  0  0  0  0  0  0  0  0  0
   19.7553   24.5512   24.1784 C   0  0  0  0  0  0  0  0  0  0  0  0
   20.2849   23.5418   24.9541 C   0  0  0  0  0  0  0  0  0  0  0  0
   21.4906   22.9565   24.6309 C   0  0  0  0  0  0  0  0  0  0  0  0
   22.1789   23.3902   23.5097 C   0  0  0  0  0  0  0  0  0  0  0  0
   21.6603   24.3921   22.7336 C   0  0  0  0  0  0  0  0  0  0  0  0
   20.4453   24.9727   23.0705 C   0  0  0  0  0  0  0  0  0  0  0  0
  1  2  2  0
  1  6  1  0
  2  3  1  0
  3  4  2  0
  4  5  1  0
  5  6  2  0
  6  7  1  0
  7  8  2  0
  7  9  1  0
  8 13  1  0
  9 10  2  0
 10 11  1  0
 11 12  1  0
 11 13  2  0
 13 14  1  0
 14 15  2  0
 14 16  1  0
 16 17  1  0
 18 17  1  6
 18 19  2  0
 18 20  2  0
 18 21  1  0
 21 22  2  0
 21 26  1  0
 22 23  1  0
 23 24  2  0
 24 25  1  0
 25 26  2  0
M  END
$$$$
