
     RDKit          3D

 26 28  0  0  0  0  0  0  0  0999 V2000
   27.6696   25.3736   32.2827 C   0  0  0  0  0  0  0  0  0  0  0  0
   27.8546   25.5441   30.9313 C   0  0  0  0  0  0  0  0  0  0  0  0
   28.8286   26.4175   30.4827 C   0  0  0  0  0  0  0  0  0  0  0  0
   29.6082   27.1121   31.3779 C   0  0  0  0  0  0  0  0  0  0  0  0
   29.3932   26.9146   32.7336 C   0  0  0  0  0  0  0  0  0  0  0  0
   28.4326   26.0532   33.2047 C   0  0  0  0  0  0  0  0  0  0  0  0
   28.2090   25.8483   34.6424 C   0  0  0  0  0  0  0  0  0  0  0  0
   27.9989   24.6260   35.1777 C   0  0  0  0  0  0  0  0  0  0  0  0
   28.2161   26.9571   35.4735 C   0  0  0  0  0  0  0  0  0  0  0  0
   28.0099   26.7979   36.8235 C   0  0  0  0  0  0  0  0  0  0  0  0
   27.7961   25.5258   37.3423 C   0  0  0  0  0  0  0  0  0  0  0  0
   27.5778   25.4402   38.6641 F   0  0  0  0  0  0  0  0  0  0  0  0
   27.7873   24.4361   36.5443 C   0  0  0  0  0  0  0  0  0  0  0  0
   27.6011   23.0534   37.0200 C   0  0  0  0  0  0  0  0  0  0  0  0
   28.0354   22.8211   38.2017 O   0  0  0  0  0  0  0  0  0  0  0  0
   26.9948   22.0269   36.2723 N   0  0  0  0  0  0  0  0  0  0  0  0
   25.9530   21.2772   36.6528 N   0  0  0  0  0  0  0  0  0  0  0  0
   25.2553   21.2254   38.1458 S   0  0  2  0  0  6  0  0  0  0  0  0
   26.2938   21.1431   39.2739 O   0  0  0  0  0  0  0  0  0  0  0  0
   24.3945   19.9953   38.3298 O   0  0  0  0  0  0  0  0  0  0  0  0
   24.3347   22.6712   38.4872 C   0  0  0  0  0  0  0  0  0  0  0  0
   24.8722   23.6648   39.3209 C   0  0  0  0  0  0  0  0  0  0  0  0
   24.1305   24.7851   39.6222 C   0  0  0  0  0  0  0  0  0  0  0  0
   22.8589   24.9901   39.1392 C   0  0  0  0  0  0  0  0  0  0  0  0
   22.3234   24.0308   38.3268 C   0  0  0  0  0  0  0  0  0  0  0  0
   23.0690   22.8945   38.0182 C   0  0  0  0  0  0  0  0  0  0  0  0
  1  2  2  0
  1  6  1  0
  2  3  1  0
  3  4  2  0
  4  5  1  0
  5  6  2  0
  6  7  1  0
  7  8  2  0
  7  9  1  0
  8 13  1  0
  9 10  2  0
 10 11  1  0
 11 12  1  0
 11 13  2  0
 13 14  1  0
 14 15  2  0
 14 16  1  0
 16 17  1  0
 18 17  1  6
 18 19  2  0
 18 20  2  0
 18 21  1  0
 21 22  2  0
 21 26  1  0
 22 23  1  0
 23 24  2  0
 24 25  1  0
 25 26  2  0
M  END
$$$$
