
     RDKit          3D

 26 28  0  0  0  0  0  0  0  0999 V2000
    8.8834   14.5654   12.0328 C   0  0  0  0  0  0  0  0  0  0  0  0
    9.6763   14.0792   11.0274 C   0  0  0  0  0  0  0  0  0  0  0  0
    9.3945   14.3809    9.7120 C   0  0  0  0  0  0  0  0  0  0  0  0
    8.2978   15.1801    9.4590 C   0  0  0  0  0  0  0  0  0  0  0  0
    7.4942   15.6735   10.4707 C   0  0  0  0  0  0  0  0  0  0  0  0
    7.7882   15.3637   11.7779 C   0  0  0  0  0  0  0  0  0  0  0  0
    6.9764   15.8553   12.8997 C   0  0  0  0  0  0  0  0  0  0  0  0
    6.6730   15.0529   13.9678 C   0  0  0  0  0  0  0  0  0  0  0  0
    6.4909   17.1532   12.9158 C   0  0  0  0  0  0  0  0  0  0  0  0
    5.7360   17.5938   13.9753 C   0  0  0  0  0  0  0  0  0  0  0  0
    5.4367   16.7717   15.0490 C   0  0  0  0  0  0  0  0  0  0  0  0
    4.6871   17.2855   16.0292 F   0  0  0  0  0  0  0  0  0  0  0  0
    5.9000   15.4935   15.0601 C   0  0  0  0  0  0  0  0  0  0  0  0
    5.6508   14.5778   16.1495 C   0  0  0  0  0  0  0  0  0  0  0  0
    4.4520   14.4526   16.5787 O   0  0  0  0  0  0  0  0  0  0  0  0
    6.6139   13.7834   16.8075 N   0  0  0  0  0  0  0  0  0  0  0  0
    6.2336   12.6047   17.4669 N   0  0  0  0  0  0  0  0  0  0  0  0
    6.0884   12.8467   19.1677 S   0  0  2  0  0  6  0  0  0  0  0  0
    6.1878   11.5165   19.8518 O   0  0  0  0  0  0  0  0  0  0  0  0
    4.7753   13.4923   19.5059 O   0  0  0  0  0  0  0  0  0  0  0  0
    7.3564   13.9315   19.6864 C   0  0  0  0  0  0  0  0  0  0  0  0
    7.1263   15.2654   19.9487 C   0  0  0  0  0  0  0  0  0  0  0  0
    8.1490   16.0955   20.3559 C   0  0  0  0  0  0  0  0  0  0  0  0
    9.4263   15.5799   20.5031 C   0  0  0  0  0  0  0  0  0  0  0  0
    9.6639   14.2564   20.2447 C   0  0  0  0  0  0  0  0  0  0  0  0
    8.6249   13.4318   19.8355 C   0  0  0  0  0  0  0  0  0  0  0  0
  1  2  2  0
  1  6  1  0
  2  3  1  0
  3  4  2  0
  4  5  1  0
  5  6  2  0
  6  7  1  0
  7  8  2  0
  7  9  1  0
  8 13  1  0
  9 10  2  0
 10 11  1  0
 11 12  1  0
 11 13  2  0
 13 14  1  0
 14 15  2  0
 14 16  1  0
 16 17  1  0
 18 17  1  6
 18 19  2  0
 18 20  2  0
 18 21  1  0
 21 22  2  0
 21 26  1  0
 22 23  1  0
 23 24  2  0
 24 25  1  0
 25 26  2  0
M  END
$$$$
