
     RDKit          3D

 26 28  0  0  0  0  0  0  0  0999 V2000
   21.4226   29.1610   12.8740 C   0  0  0  0  0  0  0  0  0  0  0  0
   22.1926   28.4789   13.7783 C   0  0  0  0  0  0  0  0  0  0  0  0
   23.2515   27.7078   13.3483 C   0  0  0  0  0  0  0  0  0  0  0  0
   23.4958   27.6554   11.9907 C   0  0  0  0  0  0  0  0  0  0  0  0
   22.7212   28.3423   11.0737 C   0  0  0  0  0  0  0  0  0  0  0  0
   21.6684   29.1073   11.5181 C   0  0  0  0  0  0  0  0  0  0  0  0
   20.8070   29.8623   10.5977 C   0  0  0  0  0  0  0  0  0  0  0  0
   19.4434   29.8575   10.7293 C   0  0  0  0  0  0  0  0  0  0  0  0
   21.3477   30.6094    9.5634 C   0  0  0  0  0  0  0  0  0  0  0  0
   20.5250   31.3101    8.7157 C   0  0  0  0  0  0  0  0  0  0  0  0
   19.1476   31.2965    8.8601 C   0  0  0  0  0  0  0  0  0  0  0  0
   18.4281   32.0009    7.9810 F   0  0  0  0  0  0  0  0  0  0  0  0
   18.5894   30.5722    9.8663 C   0  0  0  0  0  0  0  0  0  0  0  0
   17.1644   30.5205   10.0991 C   0  0  0  0  0  0  0  0  0  0  0  0
   16.3811   30.5118    9.0875 O   0  0  0  0  0  0  0  0  0  0  0  0
   16.5265   30.4752   11.3572 N   0  0  0  0  0  0  0  0  0  0  0  0
   15.1269   30.4282   11.4437 N   0  0  0  0  0  0  0  0  0  0  0  0
   14.6052   29.5284   12.8188 S   0  0  2  0  0  6  0  0  0  0  0  0
   13.1733   29.8708   13.1012 O   0  0  0  0  0  0  0  0  0  0  0  0
   15.4482   29.8497   14.0194 O   0  0  0  0  0  0  0  0  0  0  0  0
   14.8029   27.8259   12.4784 C   0  0  0  0  0  0  0  0  0  0  0  0
   14.0056   26.8597   13.0543 C   0  0  0  0  0  0  0  0  0  0  0  0
   14.1878   25.5240   12.7653 C   0  0  0  0  0  0  0  0  0  0  0  0
   15.1876   25.1489   11.8827 C   0  0  0  0  0  0  0  0  0  0  0  0
   15.9841   26.1018   11.3061 C   0  0  0  0  0  0  0  0  0  0  0  0
   15.7896   27.4432   11.6060 C   0  0  0  0  0  0  0  0  0  0  0  0
  1  2  2  0
  1  6  1  0
  2  3  1  0
  3  4  2  0
  4  5  1  0
  5  6  2  0
  6  7  1  0
  7  8  2  0
  7  9  1  0
  8 13  1  0
  9 10  2  0
 10 11  1  0
 11 12  1  0
 11 13  2  0
 13 14  1  0
 14 15  2  0
 14 16  1  0
 16 17  1  0
 18 17  1  6
 18 19  2  0
 18 20  2  0
 18 21  1  0
 21 22  2  0
 21 26  1  0
 22 23  1  0
 23 24  2  0
 24 25  1  0
 25 26  2  0
M  END
$$$$
