
     RDKit          3D

 26 28  0  0  0  0  0  0  0  0999 V2000
   16.8008   21.6891   18.8481 C   0  0  0  0  0  0  0  0  0  0  0  0
   17.9051   21.3856   18.0968 C   0  0  0  0  0  0  0  0  0  0  0  0
   17.8060   21.2807   16.7257 C   0  0  0  0  0  0  0  0  0  0  0  0
   16.5668   21.4913   16.1553 C   0  0  0  0  0  0  0  0  0  0  0  0
   15.4488   21.7980   16.9095 C   0  0  0  0  0  0  0  0  0  0  0  0
   15.5637   21.8992   18.2761 C   0  0  0  0  0  0  0  0  0  0  0  0
   14.4165   22.2226   19.1355 C   0  0  0  0  0  0  0  0  0  0  0  0
   13.1667   21.7253   18.8760 C   0  0  0  0  0  0  0  0  0  0  0  0
   14.5619   23.0426   20.2431 C   0  0  0  0  0  0  0  0  0  0  0  0
   13.4772   23.3305   21.0350 C   0  0  0  0  0  0  0  0  0  0  0  0
   12.2188   22.8209   20.7610 C   0  0  0  0  0  0  0  0  0  0  0  0
   11.2218   23.1644   21.5824 F   0  0  0  0  0  0  0  0  0  0  0  0
   12.0468   22.0132   19.6809 C   0  0  0  0  0  0  0  0  0  0  0  0
   10.7733   21.4242   19.3362 C   0  0  0  0  0  0  0  0  0  0  0  0
    9.7045   22.0358   19.6835 O   0  0  0  0  0  0  0  0  0  0  0  0
   10.5766   20.2145   18.6365 N   0  0  0  0  0  0  0  0  0  0  0  0
    9.2906   19.6682   18.5077 N   0  0  0  0  0  0  0  0  0  0  0  0
    9.1560   18.1591   19.3304 S   0  0  2  0  0  6  0  0  0  0  0  0
   10.2889   17.2760   18.9012 O   0  0  0  0  0  0  0  0  0  0  0  0
    7.8478   17.4926   19.0146 O   0  0  0  0  0  0  0  0  0  0  0  0
    9.1916   18.4577   21.0517 C   0  0  0  0  0  0  0  0  0  0  0  0
    8.1539   19.0764   21.7160 C   0  0  0  0  0  0  0  0  0  0  0  0
    8.2132   19.2981   23.0755 C   0  0  0  0  0  0  0  0  0  0  0  0
    9.3330   18.8925   23.7830 C   0  0  0  0  0  0  0  0  0  0  0  0
   10.3683   18.2773   23.1313 C   0  0  0  0  0  0  0  0  0  0  0  0
   10.2955   18.0603   21.7622 C   0  0  0  0  0  0  0  0  0  0  0  0
  1  2  2  0
  1  6  1  0
  2  3  1  0
  3  4  2  0
  4  5  1  0
  5  6  2  0
  6  7  1  0
  7  8  2  0
  7  9  1  0
  8 13  1  0
  9 10  2  0
 10 11  1  0
 11 12  1  0
 11 13  2  0
 13 14  1  0
 14 15  2  0
 14 16  1  0
 16 17  1  0
 18 17  1  6
 18 19  2  0
 18 20  2  0
 18 21  1  0
 21 22  2  0
 21 26  1  0
 22 23  1  0
 23 24  2  0
 24 25  1  0
 25 26  2  0
M  END
$$$$
