
     RDKit          3D

 26 28  0  0  0  0  0  0  0  0999 V2000
   19.5833   26.6398   22.8618 C   0  0  0  0  0  0  0  0  0  0  0  0
   20.3016   27.7275   23.2982 C   0  0  0  0  0  0  0  0  0  0  0  0
   19.8513   28.4467   24.3903 C   0  0  0  0  0  0  0  0  0  0  0  0
   18.6945   28.0801   25.0378 C   0  0  0  0  0  0  0  0  0  0  0  0
   17.9963   26.9773   24.5696 C   0  0  0  0  0  0  0  0  0  0  0  0
   18.4221   26.2466   23.4872 C   0  0  0  0  0  0  0  0  0  0  0  0
   17.6778   25.0791   22.9953 C   0  0  0  0  0  0  0  0  0  0  0  0
   16.3312   25.0687   22.8884 C   0  0  0  0  0  0  0  0  0  0  0  0
   18.3928   23.9501   22.6290 C   0  0  0  0  0  0  0  0  0  0  0  0
   17.7248   22.8415   22.1649 C   0  0  0  0  0  0  0  0  0  0  0  0
   16.3381   22.8636   22.0675 C   0  0  0  0  0  0  0  0  0  0  0  0
   15.7443   21.7421   21.6297 F   0  0  0  0  0  0  0  0  0  0  0  0
   15.6283   23.9573   22.4201 C   0  0  0  0  0  0  0  0  0  0  0  0
   14.1625   24.0718   22.3155 C   0  0  0  0  0  0  0  0  0  0  0  0
   13.5843   24.6023   23.3271 O   0  0  0  0  0  0  0  0  0  0  0  0
   13.4057   23.6476   21.2075 N   0  0  0  0  0  0  0  0  0  0  0  0
   12.0898   23.8203   21.0322 N   0  0  0  0  0  0  0  0  0  0  0  0
   10.8729   22.8889   21.6405 S   0  0  2  0  0  6  0  0  0  0  0  0
    9.5975   23.6990   21.9141 O   0  0  0  0  0  0  0  0  0  0  0  0
   11.2339   22.2829   22.9786 O   0  0  0  0  0  0  0  0  0  0  0  0
   10.3812   21.6422   20.5186 C   0  0  0  0  0  0  0  0  0  0  0  0
   11.0488   20.4071   20.5054 C   0  0  0  0  0  0  0  0  0  0  0  0
   10.6877   19.4399   19.5944 C   0  0  0  0  0  0  0  0  0  0  0  0
    9.6831   19.6213   18.6723 C   0  0  0  0  0  0  0  0  0  0  0  0
    9.0253   20.8189   18.6739 C   0  0  0  0  0  0  0  0  0  0  0  0
    9.3861   21.8020   19.5934 C   0  0  0  0  0  0  0  0  0  0  0  0
  1  2  2  0
  1  6  1  0
  2  3  1  0
  3  4  2  0
  4  5  1  0
  5  6  2  0
  6  7  1  0
  7  8  2  0
  7  9  1  0
  8 13  1  0
  9 10  2  0
 10 11  1  0
 11 12  1  0
 11 13  2  0
 13 14  1  0
 14 15  2  0
 14 16  1  0
 16 17  1  0
 18 17  1  6
 18 19  2  0
 18 20  2  0
 18 21  1  0
 21 22  2  0
 21 26  1  0
 22 23  1  0
 23 24  2  0
 24 25  1  0
 25 26  2  0
M  END
$$$$
