
     RDKit          3D

 26 28  0  0  0  0  0  0  0  0999 V2000
   18.6557   20.5655   16.3840 C   0  0  0  0  0  0  0  0  0  0  0  0
   18.5407   19.5346   15.4820 C   0  0  0  0  0  0  0  0  0  0  0  0
   17.8727   18.3806   15.8490 C   0  0  0  0  0  0  0  0  0  0  0  0
   17.3262   18.2608   17.1055 C   0  0  0  0  0  0  0  0  0  0  0  0
   17.4618   19.3212   17.9888 C   0  0  0  0  0  0  0  0  0  0  0  0
   18.1204   20.4777   17.6488 C   0  0  0  0  0  0  0  0  0  0  0  0
   18.2613   21.5979   18.5892 C   0  0  0  0  0  0  0  0  0  0  0  0
   17.3308   21.8802   19.5270 C   0  0  0  0  0  0  0  0  0  0  0  0
   19.3954   22.3895   18.5038 C   0  0  0  0  0  0  0  0  0  0  0  0
   19.5561   23.4453   19.3698 C   0  0  0  0  0  0  0  0  0  0  0  0
   18.5791   23.7089   20.3233 C   0  0  0  0  0  0  0  0  0  0  0  0
   18.7842   24.7674   21.1229 F   0  0  0  0  0  0  0  0  0  0  0  0
   17.4691   22.9453   20.4187 C   0  0  0  0  0  0  0  0  0  0  0  0
   16.4055   23.1384   21.4207 C   0  0  0  0  0  0  0  0  0  0  0  0
   16.8053   23.5424   22.5679 O   0  0  0  0  0  0  0  0  0  0  0  0
   15.0366   22.9124   21.1855 N   0  0  0  0  0  0  0  0  0  0  0  0
   14.0405   23.0931   22.0614 N   0  0  0  0  0  0  0  0  0  0  0  0
   13.1684   24.4705   22.3082 S   0  0  2  0  0  6  0  0  0  0  0  0
   11.8014   24.1900   22.9489 O   0  0  0  0  0  0  0  0  0  0  0  0
   12.8435   25.1788   21.0118 O   0  0  0  0  0  0  0  0  0  0  0  0
   13.9683   25.5607   23.4155 C   0  0  0  0  0  0  0  0  0  0  0  0
   14.0547   26.9291   23.1133 C   0  0  0  0  0  0  0  0  0  0  0  0
   14.7200   27.7811   23.9661 C   0  0  0  0  0  0  0  0  0  0  0  0
   15.3205   27.3548   25.1281 C   0  0  0  0  0  0  0  0  0  0  0  0
   15.2443   26.0254   25.4342 C   0  0  0  0  0  0  0  0  0  0  0  0
   14.5724   25.1578   24.5750 C   0  0  0  0  0  0  0  0  0  0  0  0
  1  2  2  0
  1  6  1  0
  2  3  1  0
  3  4  2  0
  4  5  1  0
  5  6  2  0
  6  7  1  0
  7  8  2  0
  7  9  1  0
  8 13  1  0
  9 10  2  0
 10 11  1  0
 11 12  1  0
 11 13  2  0
 13 14  1  0
 14 15  2  0
 14 16  1  0
 16 17  1  0
 18 17  1  6
 18 19  2  0
 18 20  2  0
 18 21  1  0
 21 22  2  0
 21 26  1  0
 22 23  1  0
 23 24  2  0
 24 25  1  0
 25 26  2  0
M  END
$$$$
