
     RDKit          3D

 26 28  0  0  0  0  0  0  0  0999 V2000
   23.8571   22.1445   21.8396 C   0  0  0  0  0  0  0  0  0  0  0  0
   24.9411   22.5234   22.5952 C   0  0  0  0  0  0  0  0  0  0  0  0
   24.8595   23.6585   23.3811 C   0  0  0  0  0  0  0  0  0  0  0  0
   23.7049   24.4055   23.4095 C   0  0  0  0  0  0  0  0  0  0  0  0
   22.6317   23.9927   22.6343 C   0  0  0  0  0  0  0  0  0  0  0  0
   22.6873   22.8696   21.8455 C   0  0  0  0  0  0  0  0  0  0  0  0
   21.5470   22.4373   21.0259 C   0  0  0  0  0  0  0  0  0  0  0  0
   20.2736   22.4771   21.4749 C   0  0  0  0  0  0  0  0  0  0  0  0
   21.7968   21.9730   19.7444 C   0  0  0  0  0  0  0  0  0  0  0  0
   20.7505   21.5613   18.9530 C   0  0  0  0  0  0  0  0  0  0  0  0
   19.4516   21.6147   19.4458 C   0  0  0  0  0  0  0  0  0  0  0  0
   18.4775   21.1766   18.6326 F   0  0  0  0  0  0  0  0  0  0  0  0
   19.1932   22.0658   20.6924 C   0  0  0  0  0  0  0  0  0  0  0  0
   17.8446   22.1842   21.2754 C   0  0  0  0  0  0  0  0  0  0  0  0
   17.6755   21.5695   22.3856 O   0  0  0  0  0  0  0  0  0  0  0  0
   16.7858   22.9090   20.6972 N   0  0  0  0  0  0  0  0  0  0  0  0
   15.5243   22.9619   21.1420 N   0  0  0  0  0  0  0  0  0  0  0  0
   14.2645   23.7858   20.4695 S   0  0  2  0  0  6  0  0  0  0  0  0
   14.4334   25.3077   20.5841 O   0  0  0  0  0  0  0  0  0  0  0  0
   12.9551   23.4940   21.1685 O   0  0  0  0  0  0  0  0  0  0  0  0
   14.1229   23.4774   18.7551 C   0  0  0  0  0  0  0  0  0  0  0  0
   14.7118   24.3572   17.8329 C   0  0  0  0  0  0  0  0  0  0  0  0
   14.5659   24.1362   16.4817 C   0  0  0  0  0  0  0  0  0  0  0  0
   13.8566   23.0735   15.9718 C   0  0  0  0  0  0  0  0  0  0  0  0
   13.2780   22.2095   16.8582 C   0  0  0  0  0  0  0  0  0  0  0  0
   13.4218   22.4278   18.2272 C   0  0  0  0  0  0  0  0  0  0  0  0
  1  2  2  0
  1  6  1  0
  2  3  1  0
  3  4  2  0
  4  5  1  0
  5  6  2  0
  6  7  1  0
  7  8  2  0
  7  9  1  0
  8 13  1  0
  9 10  2  0
 10 11  1  0
 11 12  1  0
 11 13  2  0
 13 14  1  0
 14 15  2  0
 14 16  1  0
 16 17  1  0
 18 17  1  1
 18 19  2  0
 18 20  2  0
 18 21  1  0
 21 22  2  0
 21 26  1  0
 22 23  1  0
 23 24  2  0
 24 25  1  0
 25 26  2  0
M  END
$$$$
