
     RDKit          3D

 40 43  0  0  0  0  0  0  0  0999 V2000
   70.2437   56.8722   14.0659 C   0  0  0  0  0  0  0  0  0  0  0  0
   74.0193   59.5944   19.6421 C   0  0  1  0  0  0  0  0  0  0  0  0
   75.0326   60.5006   19.0322 C   0  0  0  0  0  0  0  0  0  0  0  0
   72.9441   60.5367   20.0712 C   0  0  2  0  0  0  0  0  0  0  0  0
   72.0248   60.9707   18.9685 C   0  0  0  0  0  0  0  0  0  0  0  0
   66.3613   52.0975   13.1717 C   0  0  0  0  0  0  0  0  0  0  0  0
   67.3366   51.6733   14.0475 C   0  0  0  0  0  0  0  0  0  0  0  0
   68.1215   52.5611   14.7502 C   0  0  0  0  0  0  0  0  0  0  0  0
   67.9587   53.9410   14.6018 C   0  0  0  0  0  0  0  0  0  0  0  0
   66.9805   54.3522   13.7232 C   0  0  0  0  0  0  0  0  0  0  0  0
   66.1892   53.4558   13.0148 C   0  0  0  0  0  0  0  0  0  0  0  0
   71.4743   54.8615   14.6008 C   0  0  0  0  0  0  0  0  0  0  0  0
   72.6928   55.5528   14.0756 C   0  0  2  0  0  0  0  0  0  0  0  0
   71.2344   57.8245   14.6550 C   0  0  2  0  0  0  0  0  0  0  0  0
   70.9772   58.1310   16.0996 C   0  0  2  0  0  0  0  0  0  0  0  0
   72.3860   58.6693   18.0989 C   0  0  0  0  0  0  0  0  0  0  0  0
   73.7492   61.7966   20.3197 C   0  0  1  0  0  0  0  0  0  0  0  0
   72.2425   62.4701   18.9218 C   0  0  0  0  0  0  0  0  0  0  0  0
   69.9856   59.1866   16.3862 C   0  0  0  0  0  0  0  0  0  0  0  0
   69.4807   59.1731   17.8061 C   0  0  0  0  0  0  0  0  0  0  0  0
   69.5920   60.3031   18.5608 C   0  0  0  0  0  0  0  0  0  0  0  0
   69.1387   60.3062   19.8556 C   0  0  0  0  0  0  0  0  0  0  0  0
   68.5654   59.1787   20.4199 C   0  0  0  0  0  0  0  0  0  0  0  0
   68.4624   58.0452   19.6376 C   0  0  0  0  0  0  0  0  0  0  0  0
   68.9186   58.0554   18.3473 C   0  0  0  0  0  0  0  0  0  0  0  0
   66.3961   50.0772   11.7309 C   0  0  0  0  0  0  0  0  0  0  0  0
   65.5129   51.1180   12.4157 C   0  0  2  0  0  0  0  0  0  0  0  0
   73.4399   54.7166   13.0580 C   0  0  0  0  0  0  0  0  0  0  0  0
   73.5837   56.1440   15.1226 C   0  0  0  0  0  0  0  0  0  0  0  0
   70.2624   55.5500   14.5663 N   0  0  0  0  0  0  0  0  0  0  0  0
   72.2440   58.5089   16.6934 N   0  0  0  0  0  0  0  0  0  0  0  0
   68.0890   56.2098   15.9626 O   0  0  0  0  0  0  0  0  0  0  0  0
   69.4612   54.3907   16.7590 O   0  0  0  0  0  0  0  0  0  0  0  0
   71.4634   58.9610   13.8923 O   0  0  0  0  0  0  0  0  0  0  0  0
   71.3385   58.9024   18.7454 O   0  0  0  0  0  0  0  0  0  0  0  0
   73.5714   58.5858   18.7664 O   0  0  0  0  0  0  0  0  0  0  0  0
   74.7241   61.8082   19.3278 O   0  0  0  0  0  0  0  0  0  0  0  0
   72.8541   62.8203   20.1259 O   0  0  0  0  0  0  0  0  0  0  0  0
   64.7146   51.7581   11.4801 O   0  0  0  0  0  0  0  0  0  0  0  0
   68.9744   55.0567   15.5054 S   0  0  1  0  0  6  0  0  0  0  0  0
  1 14  1  0
 30  1  1  0
  2  3  1  0
  2  4  1  0
  2 36  1  6
  3 37  1  0
  4  5  1  6
  4 17  1  0
  5 18  1  0
  7  6  2  0
 11  6  1  0
  6 27  1  0
  8  7  1  0
  9  8  2  0
  9 10  1  0
 40  9  1  0
 10 11  2  0
 12 13  1  0
 30 12  1  0
 13 28  1  1
 13 29  1  0
 14 15  1  0
 14 34  1  6
 15 19  1  6
 15 31  1  0
 31 16  1  0
 16 35  2  0
 16 36  1  0
 17 37  1  6
 17 38  1  0
 38 18  1  0
 19 20  1  0
 20 21  2  0
 20 25  1  0
 21 22  1  0
 22 23  2  0
 24 23  1  0
 25 24  2  0
 27 26  1  6
 27 39  1  0
 40 30  1  6
 40 32  2  0
 40 33  2  0
M  END
$$$$
