
     RDKit          3D

 40 43  0  0  0  0  0  0  0  0999 V2000
   71.4682   58.8217   15.9772 C   0  0  0  0  0  0  0  0  0  0  0  0
   67.5873   53.0104   14.1815 C   0  0  1  0  0  0  0  0  0  0  0  0
   66.6749   52.8033   13.0221 C   0  0  0  0  0  0  0  0  0  0  0  0
   68.7714   52.1729   13.8283 C   0  0  2  0  0  0  0  0  0  0  0  0
   69.7153   52.8144   12.8552 C   0  0  0  0  0  0  0  0  0  0  0  0
   74.9905   60.7390   20.4562 C   0  0  0  0  0  0  0  0  0  0  0  0
   73.9389   60.0535   21.0240 C   0  0  0  0  0  0  0  0  0  0  0  0
   73.2046   59.1280   20.3153 C   0  0  0  0  0  0  0  0  0  0  0  0
   73.4995   58.8441   18.9792 C   0  0  0  0  0  0  0  0  0  0  0  0
   74.5530   59.5363   18.4233 C   0  0  0  0  0  0  0  0  0  0  0  0
   75.2931   60.4697   19.1390 C   0  0  0  0  0  0  0  0  0  0  0  0
   69.9726   58.2918   17.8009 C   0  0  0  0  0  0  0  0  0  0  0  0
   69.0224   59.4225   17.5617 C   0  0  2  0  0  0  0  0  0  0  0  0
   70.6505   58.1207   14.9402 C   0  0  2  0  0  0  0  0  0  0  0  0
   70.7584   56.6272   15.0081 C   0  0  2  0  0  0  0  0  0  0  0  0
   69.0910   54.7598   14.9455 C   0  0  0  0  0  0  0  0  0  0  0  0
   68.1215   51.1035   12.9732 C   0  0  1  0  0  0  0  0  0  0  0  0
   69.6712   51.8675   11.6723 C   0  0  0  0  0  0  0  0  0  0  0  0
   71.3266   55.9498   13.8258 C   0  0  0  0  0  0  0  0  0  0  0  0
   71.8671   54.5738   14.1183 C   0  0  0  0  0  0  0  0  0  0  0  0
   72.1843   54.2446   15.4028 C   0  0  0  0  0  0  0  0  0  0  0  0
   72.6790   52.9965   15.6849 C   0  0  0  0  0  0  0  0  0  0  0  0
   72.8659   52.0541   14.6872 C   0  0  0  0  0  0  0  0  0  0  0  0
   72.5380   52.4086   13.3933 C   0  0  0  0  0  0  0  0  0  0  0  0
   72.0453   53.6571   13.1253 C   0  0  0  0  0  0  0  0  0  0  0  0
   74.8885   62.4218   22.2773 C   0  0  0  0  0  0  0  0  0  0  0  0
   75.7822   61.7421   21.2421 C   0  0  2  0  0  0  0  0  0  0  0  0
   69.1586   60.5218   18.5941 C   0  0  0  0  0  0  0  0  0  0  0  0
   67.6036   59.0137   17.3177 C   0  0  0  0  0  0  0  0  0  0  0  0
   71.2746   58.4145   17.3172 N   0  0  0  0  0  0  0  0  0  0  0  0
   69.4265   56.1080   15.2467 N   0  0  0  0  0  0  0  0  0  0  0  0
   73.4900   56.9423   17.1356 O   0  0  0  0  0  0  0  0  0  0  0  0
   72.0405   56.6123   19.0373 O   0  0  0  0  0  0  0  0  0  0  0  0
   70.8050   58.6172   13.6535 O   0  0  0  0  0  0  0  0  0  0  0  0
   69.9631   53.8956   15.1950 O   0  0  0  0  0  0  0  0  0  0  0  0
   67.9005   54.3644   14.4124 O   0  0  0  0  0  0  0  0  0  0  0  0
   67.1373   51.7653   12.2468 O   0  0  0  0  0  0  0  0  0  0  0  0
   69.1253   50.6721   12.1407 O   0  0  0  0  0  0  0  0  0  0  0  0
   76.3605   62.6908   20.4127 O   0  0  0  0  0  0  0  0  0  0  0  0
   72.5465   57.6621   18.0918 S   0  0  1  0  0  6  0  0  0  0  0  0
  1 14  1  0
 30  1  1  0
  2  3  1  0
  2  4  1  0
  2 36  1  6
  3 37  1  0
  4  5  1  6
  4 17  1  0
  5 18  1  0
  7  6  2  0
 11  6  1  0
  6 27  1  0
  8  7  1  0
  9  8  2  0
  9 10  1  0
 40  9  1  0
 10 11  2  0
 12 13  1  0
 30 12  1  0
 13 28  1  1
 13 29  1  0
 14 15  1  0
 14 34  1  6
 15 19  1  6
 15 31  1  0
 31 16  1  0
 16 35  2  0
 16 36  1  0
 17 37  1  6
 17 38  1  0
 38 18  1  0
 19 20  1  0
 20 21  2  0
 20 25  1  0
 21 22  1  0
 22 23  2  0
 24 23  1  0
 25 24  2  0
 27 26  1  1
 27 39  1  0
 40 30  1  6
 40 32  2  0
 40 33  2  0
M  END
$$$$
