
     RDKit          3D

 40 43  0  0  0  0  0  0  0  0999 V2000
   70.4725   55.5828   16.3674 C   0  0  0  0  0  0  0  0  0  0  0  0
   74.9101   60.6240   18.5337 C   0  0  1  0  0  0  0  0  0  0  0  0
   74.5549   61.9445   17.9421 C   0  0  0  0  0  0  0  0  0  0  0  0
   74.0905   60.5856   19.7807 C   0  0  2  0  0  0  0  0  0  0  0  0
   72.6555   60.2055   19.5670 C   0  0  0  0  0  0  0  0  0  0  0  0
   66.7994   52.5030   12.5874 C   0  0  0  0  0  0  0  0  0  0  0  0
   67.6709   53.3560   11.9465 C   0  0  0  0  0  0  0  0  0  0  0  0
   68.1967   54.4656   12.5713 C   0  0  0  0  0  0  0  0  0  0  0  0
   67.8642   54.7737   13.8931 C   0  0  0  0  0  0  0  0  0  0  0  0
   66.9917   53.9132   14.5226 C   0  0  0  0  0  0  0  0  0  0  0  0
   66.4619   52.7941   13.8915 C   0  0  0  0  0  0  0  0  0  0  0  0
   71.0802   55.6865   14.0300 C   0  0  0  0  0  0  0  0  0  0  0  0
   72.4948   55.4081   14.4299 C   0  0  2  0  0  0  0  0  0  0  0  0
   71.6763   56.2393   16.9635 C   0  0  2  0  0  0  0  0  0  0  0  0
   71.4228   57.6454   17.4168 C   0  0  2  0  0  0  0  0  0  0  0  0
   73.6758   58.6347   17.8825 C   0  0  0  0  0  0  0  0  0  0  0  0
   73.9778   62.0639   20.0955 C   0  0  1  0  0  0  0  0  0  0  0  0
   71.9089   61.4357   20.0435 C   0  0  0  0  0  0  0  0  0  0  0  0
   70.1945   58.2920   16.9138 C   0  0  0  0  0  0  0  0  0  0  0  0
   69.3415   58.8973   17.9987 C   0  0  0  0  0  0  0  0  0  0  0  0
   68.1648   59.4975   17.6606 C   0  0  0  0  0  0  0  0  0  0  0  0
   67.3781   60.0546   18.6366 C   0  0  0  0  0  0  0  0  0  0  0  0
   67.7535   60.0220   19.9694 C   0  0  0  0  0  0  0  0  0  0  0  0
   68.9490   59.4091   20.2895 C   0  0  0  0  0  0  0  0  0  0  0  0
   69.7247   58.8571   19.3062 C   0  0  0  0  0  0  0  0  0  0  0  0
   64.7353   51.4682   11.6776 C   0  0  0  0  0  0  0  0  0  0  0  0
   66.2373   51.2971   11.8939 C   0  0  2  0  0  0  0  0  0  0  0  0
   73.0183   54.1136   13.8441 C   0  0  0  0  0  0  0  0  0  0  0  0
   72.7771   55.5512   15.8926 C   0  0  0  0  0  0  0  0  0  0  0  0
   70.1505   55.9397   15.0378 N   0  0  0  0  0  0  0  0  0  0  0  0
   72.5655   58.4415   17.0158 N   0  0  0  0  0  0  0  0  0  0  0  0
   68.3248   57.3771   13.7304 O   0  0  0  0  0  0  0  0  0  0  0  0
   67.7632   56.5126   15.9129 O   0  0  0  0  0  0  0  0  0  0  0  0
   72.8333   56.1139   16.2076 O   0  0  0  0  0  0  0  0  0  0  0  0
   73.7201   57.9141   18.9064 O   0  0  0  0  0  0  0  0  0  0  0  0
   74.6716   59.5399   17.6662 O   0  0  0  0  0  0  0  0  0  0  0  0
   73.8544   62.6916   18.8606 O   0  0  0  0  0  0  0  0  0  0  0  0
   72.8101   62.1750   20.8102 O   0  0  0  0  0  0  0  0  0  0  0  0
   66.4882   50.1384   12.6129 O   0  0  0  0  0  0  0  0  0  0  0  0
   68.5435   56.1976   14.6703 S   0  0  1  0  0  6  0  0  0  0  0  0
  1 14  1  0
 30  1  1  0
  2  3  1  0
  2  4  1  0
  2 36  1  6
  3 37  1  0
  4  5  1  6
  4 17  1  0
  5 18  1  0
  7  6  2  0
 11  6  1  0
  6 27  1  0
  8  7  1  0
  9  8  2  0
  9 10  1  0
 40  9  1  0
 10 11  2  0
 12 13  1  0
 30 12  1  0
 13 28  1  1
 13 29  1  0
 14 15  1  0
 14 34  1  6
 15 19  1  6
 15 31  1  0
 31 16  1  0
 16 35  2  0
 16 36  1  0
 17 37  1  6
 17 38  1  0
 38 18  1  0
 19 20  1  0
 20 21  2  0
 20 25  1  0
 21 22  1  0
 22 23  2  0
 24 23  1  0
 25 24  2  0
 27 26  1  1
 27 39  1  0
 40 30  1  1
 40 32  2  0
 40 33  2  0
M  END
$$$$
