
     RDKit          3D

 40 43  0  0  0  0  0  0  0  0999 V2000
   71.4668   56.1815   15.0857 C   0  0  0  0  0  0  0  0  0  0  0  0
   74.2646   59.6012   18.9019 C   0  0  1  0  0  0  0  0  0  0  0  0
   75.1899   60.7068   18.5262 C   0  0  0  0  0  0  0  0  0  0  0  0
   73.2379   60.2938   19.7351 C   0  0  2  0  0  0  0  0  0  0  0  0
   72.1909   61.0237   18.9475 C   0  0  0  0  0  0  0  0  0  0  0  0
   66.8369   51.8325   12.9020 C   0  0  0  0  0  0  0  0  0  0  0  0
   67.6850   51.4191   13.9059 C   0  0  0  0  0  0  0  0  0  0  0  0
   68.4042   52.3142   14.6672 C   0  0  0  0  0  0  0  0  0  0  0  0
   68.3015   53.6908   14.4501 C   0  0  0  0  0  0  0  0  0  0  0  0
   67.4505   54.0911   13.4434 C   0  0  0  0  0  0  0  0  0  0  0  0
   66.7254   53.1874   12.6759 C   0  0  0  0  0  0  0  0  0  0  0  0
   71.4963   53.8655   14.3938 C   0  0  0  0  0  0  0  0  0  0  0  0
   72.9803   53.9994   14.2575 C   0  0  2  0  0  0  0  0  0  0  0  0
   70.6759   57.4475   15.0008 C   0  0  2  0  0  0  0  0  0  0  0  0
   70.3933   58.0621   16.3384 C   0  0  2  0  0  0  0  0  0  0  0  0
   72.4200   58.5383   17.7302 C   0  0  0  0  0  0  0  0  0  0  0  0
   74.0538   61.4374   20.3038 C   0  0  1  0  0  0  0  0  0  0  0  0
   72.3865   62.4623   19.3834 C   0  0  0  0  0  0  0  0  0  0  0  0
   69.1631   58.8709   16.4489 C   0  0  0  0  0  0  0  0  0  0  0  0
   68.8440   59.2977   17.8586 C   0  0  0  0  0  0  0  0  0  0  0  0
   68.8706   60.6242   18.1725 C   0  0  0  0  0  0  0  0  0  0  0  0
   68.5842   61.0284   19.4518 C   0  0  0  0  0  0  0  0  0  0  0  0
   68.2659   60.1131   20.4414 C   0  0  0  0  0  0  0  0  0  0  0  0
   68.2448   58.7747   20.1016 C   0  0  0  0  0  0  0  0  0  0  0  0
   68.5324   58.3847   18.8216 C   0  0  0  0  0  0  0  0  0  0  0  0
   67.0048   49.8319   11.4432 C   0  0  0  0  0  0  0  0  0  0  0  0
   66.0585   50.8453   12.0832 C   0  0  2  0  0  0  0  0  0  0  0  0
   73.3813   54.7569   13.0092 C   0  0  0  0  0  0  0  0  0  0  0  0
   73.7489   52.7300   14.4505 C   0  0  0  0  0  0  0  0  0  0  0  0
   70.7716   54.9816   14.8098 N   0  0  0  0  0  0  0  0  0  0  0  0
   71.5295   58.8940   16.6806 N   0  0  0  0  0  0  0  0  0  0  0  0
   68.4584   56.1281   15.4754 O   0  0  0  0  0  0  0  0  0  0  0  0
   69.2857   54.3225   16.8471 O   0  0  0  0  0  0  0  0  0  0  0  0
   69.5513   57.3699   14.1915 O   0  0  0  0  0  0  0  0  0  0  0  0
   71.9496   57.8270   18.6479 O   0  0  0  0  0  0  0  0  0  0  0  0
   73.7271   58.9199   17.7921 O   0  0  0  0  0  0  0  0  0  0  0  0
   74.9052   61.8253   19.2747 O   0  0  0  0  0  0  0  0  0  0  0  0
   73.1319   62.4223   20.5621 O   0  0  0  0  0  0  0  0  0  0  0  0
   65.3065   51.4805   11.1068 O   0  0  0  0  0  0  0  0  0  0  0  0
   69.2319   54.8158   15.4308 S   0  0  1  0  0  6  0  0  0  0  0  0
  1 14  1  0
 30  1  1  0
  2  3  1  0
  2  4  1  0
  2 36  1  6
  3 37  1  0
  4  5  1  6
  4 17  1  0
  5 18  1  0
  7  6  2  0
 11  6  1  0
  6 27  1  0
  8  7  1  0
  9  8  2  0
  9 10  1  0
 40  9  1  0
 10 11  2  0
 12 13  1  0
 30 12  1  0
 13 28  1  6
 13 29  1  0
 14 15  1  0
 14 34  1  1
 15 19  1  6
 15 31  1  0
 31 16  1  0
 16 35  2  0
 16 36  1  0
 17 37  1  6
 17 38  1  0
 38 18  1  0
 19 20  1  0
 20 21  2  0
 20 25  1  0
 21 22  1  0
 22 23  2  0
 24 23  1  0
 25 24  2  0
 27 26  1  6
 27 39  1  0
 40 30  1  6
 40 32  2  0
 40 33  2  0
M  END
$$$$
