
     RDKit          3D

 40 43  0  0  0  0  0  0  0  0999 V2000
   70.0836   56.0376   14.1227 C   0  0  0  0  0  0  0  0  0  0  0  0
   73.1154   61.3603   18.0243 C   0  0  1  0  0  0  0  0  0  0  0  0
   73.0204   62.7128   18.6417 C   0  0  0  0  0  0  0  0  0  0  0  0
   73.6113   60.5138   19.1493 C   0  0  2  0  0  0  0  0  0  0  0  0
   72.5503   60.0941   20.1227 C   0  0  0  0  0  0  0  0  0  0  0  0
   66.7957   52.0352   12.1913 C   0  0  0  0  0  0  0  0  0  0  0  0
   67.5146   51.4720   13.2229 C   0  0  0  0  0  0  0  0  0  0  0  0
   68.0230   52.2292   14.2555 C   0  0  0  0  0  0  0  0  0  0  0  0
   67.8281   53.6122   14.2991 C   0  0  0  0  0  0  0  0  0  0  0  0
   67.1079   54.1630   13.2618 C   0  0  0  0  0  0  0  0  0  0  0  0
   66.5955   53.3983   12.2205 C   0  0  0  0  0  0  0  0  0  0  0  0
   71.0525   55.0938   16.1262 C   0  0  0  0  0  0  0  0  0  0  0  0
   72.3871   54.6308   15.6333 C   0  0  2  0  0  0  0  0  0  0  0  0
   70.3933   57.4640   14.4466 C   0  0  2  0  0  0  0  0  0  0  0  0
   71.0345   57.6424   15.7897 C   0  0  2  0  0  0  0  0  0  0  0  0
   71.6454   59.5926   17.2372 C   0  0  0  0  0  0  0  0  0  0  0  0
   74.3879   61.5352   19.9560 C   0  0  1  0  0  0  0  0  0  0  0  0
   73.0183   60.7235   21.4199 C   0  0  0  0  0  0  0  0  0  0  0  0
   70.2886   57.1242   16.9536 C   0  0  0  0  0  0  0  0  0  0  0  0
   70.1547   58.1187   18.0781 C   0  0  0  0  0  0  0  0  0  0  0  0
   71.1533   58.2151   19.0013 C   0  0  0  0  0  0  0  0  0  0  0  0
   71.0453   59.1143   20.0317 C   0  0  0  0  0  0  0  0  0  0  0  0
   69.9362   59.9341   20.1581 C   0  0  0  0  0  0  0  0  0  0  0  0
   68.9366   59.8200   19.2119 C   0  0  0  0  0  0  0  0  0  0  0  0
   69.0567   58.9188   18.1888 C   0  0  0  0  0  0  0  0  0  0  0  0
   64.7806   50.8619   11.3421 C   0  0  0  0  0  0  0  0  0  0  0  0
   66.2465   51.1966   11.0751 C   0  0  2  0  0  0  0  0  0  0  0  0
   72.2968   53.3454   14.8380 C   0  0  0  0  0  0  0  0  0  0  0  0
   73.4695   54.6111   16.6666 C   0  0  0  0  0  0  0  0  0  0  0  0
   69.9977   55.1449   15.2157 N   0  0  0  0  0  0  0  0  0  0  0  0
   71.2602   59.0618   15.9758 N   0  0  0  0  0  0  0  0  0  0  0  0
   67.4848   55.6617   15.9415 O   0  0  0  0  0  0  0  0  0  0  0  0
   68.5705   53.7108   16.8588 O   0  0  0  0  0  0  0  0  0  0  0  0
   69.3440   58.3448   14.2257 O   0  0  0  0  0  0  0  0  0  0  0  0
   71.7509   58.7754   18.1809 O   0  0  0  0  0  0  0  0  0  0  0  0
   71.9000   60.9110   17.4712 O   0  0  0  0  0  0  0  0  0  0  0  0
   73.6492   62.7100   19.8652 O   0  0  0  0  0  0  0  0  0  0  0  0
   74.3630   61.0496   21.2406 O   0  0  0  0  0  0  0  0  0  0  0  0
   66.9807   50.0320   10.9100 O   0  0  0  0  0  0  0  0  0  0  0  0
   68.4893   54.5604   15.6244 S   0  0  1  0  0  6  0  0  0  0  0  0
  1 14  1  0
 30  1  1  0
  2  3  1  0
  2  4  1  0
  2 36  1  1
  3 37  1  0
  4  5  1  1
  4 17  1  0
  5 18  1  0
  7  6  2  0
 11  6  1  0
  6 27  1  0
  8  7  1  0
  9  8  2  0
  9 10  1  0
 40  9  1  0
 10 11  2  0
 12 13  1  0
 30 12  1  0
 13 28  1  1
 13 29  1  0
 14 15  1  0
 14 34  1  1
 15 19  1  1
 15 31  1  0
 31 16  1  0
 16 35  2  0
 16 36  1  0
 17 37  1  1
 17 38  1  0
 38 18  1  0
 19 20  1  0
 20 21  2  0
 20 25  1  0
 21 22  1  0
 22 23  2  0
 24 23  1  0
 25 24  2  0
 27 26  1  1
 27 39  1  0
 40 30  1  6
 40 32  2  0
 40 33  2  0
M  END
$$$$
