
     RDKit          3D

 40 43  0  0  0  0  0  0  0  0999 V2000
   70.1506   57.0841   14.3526 C   0  0  0  0  0  0  0  0  0  0  0  0
   73.8786   59.9447   19.5405 C   0  0  1  0  0  0  0  0  0  0  0  0
   74.4865   60.3560   18.2440 C   0  0  0  0  0  0  0  0  0  0  0  0
   73.5691   61.2510   20.1934 C   0  0  2  0  0  0  0  0  0  0  0  0
   72.3096   61.9035   19.7063 C   0  0  0  0  0  0  0  0  0  0  0  0
   66.6337   52.3152   12.5202 C   0  0  0  0  0  0  0  0  0  0  0  0
   66.1225   52.9429   13.6349 C   0  0  0  0  0  0  0  0  0  0  0  0
   66.9155   53.6880   14.4799 C   0  0  0  0  0  0  0  0  0  0  0  0
   68.2835   53.8388   14.2383 C   0  0  0  0  0  0  0  0  0  0  0  0
   68.7823   53.2062   13.1208 C   0  0  0  0  0  0  0  0  0  0  0  0
   67.9816   52.4547   12.2690 C   0  0  0  0  0  0  0  0  0  0  0  0
   71.6621   55.2028   14.2126 C   0  0  0  0  0  0  0  0  0  0  0  0
   72.6220   55.1134   15.3568 C   0  0  2  0  0  0  0  0  0  0  0  0
   71.0786   57.9805   15.1080 C   0  0  2  0  0  0  0  0  0  0  0  0
   70.6601   58.2067   16.5295 C   0  0  2  0  0  0  0  0  0  0  0  0
   72.4831   58.4485   18.2295 C   0  0  0  0  0  0  0  0  0  0  0  0
   74.6359   62.1371   19.5818 C   0  0  1  0  0  0  0  0  0  0  0  0
   72.8140   63.2053   19.1156 C   0  0  0  0  0  0  0  0  0  0  0  0
   69.3662   58.8862   16.7388 C   0  0  0  0  0  0  0  0  0  0  0  0
   69.0445   59.1418   18.1888 C   0  0  0  0  0  0  0  0  0  0  0  0
   68.6789   58.0948   18.9820 C   0  0  0  0  0  0  0  0  0  0  0  0
   68.3813   58.3115   20.3035 C   0  0  0  0  0  0  0  0  0  0  0  0
   68.4437   59.5798   20.8565 C   0  0  0  0  0  0  0  0  0  0  0  0
   68.8164   60.6257   20.0352 C   0  0  0  0  0  0  0  0  0  0  0  0
   69.1107   60.3960   18.7185 C   0  0  0  0  0  0  0  0  0  0  0  0
   65.1112   50.3605   12.3802 C   0  0  0  0  0  0  0  0  0  0  0  0
   65.7565   51.5093   11.6082 C   0  0  2  0  0  0  0  0  0  0  0  0
   74.0658   55.0881   14.9010 C   0  0  0  0  0  0  0  0  0  0  0  0
   72.3031   54.0566   16.3672 C   0  0  0  0  0  0  0  0  0  0  0  0
   70.3820   55.6939   14.4661 N   0  0  0  0  0  0  0  0  0  0  0  0
   71.7029   58.9842   17.1686 N   0  0  0  0  0  0  0  0  0  0  0  0
   68.3384   55.6422   16.1776 O   0  0  0  0  0  0  0  0  0  0  0  0
   69.9827   53.8789   16.2936 O   0  0  0  0  0  0  0  0  0  0  0  0
   71.4086   59.1552   14.4468 O   0  0  0  0  0  0  0  0  0  0  0  0
   72.9389   57.2935   18.0627 O   0  0  0  0  0  0  0  0  0  0  0  0
   72.7560   59.1067   19.3914 O   0  0  0  0  0  0  0  0  0  0  0  0
   74.7597   61.7040   18.2660 O   0  0  0  0  0  0  0  0  0  0  0  0
   74.0986   63.4006   19.6236 O   0  0  0  0  0  0  0  0  0  0  0  0
   66.4700   51.0172   10.5260 O   0  0  0  0  0  0  0  0  0  0  0  0
   69.2783   54.7910   15.3323 S   0  0  1  0  0  6  0  0  0  0  0  0
  1 14  1  0
 30  1  1  0
  2  3  1  0
  2  4  1  0
  2 36  1  6
  3 37  1  0
  4  5  1  6
  4 17  1  0
  5 18  1  0
  7  6  2  0
 11  6  1  0
  6 27  1  0
  8  7  1  0
  9  8  2  0
  9 10  1  0
 40  9  1  0
 10 11  2  0
 12 13  1  0
 30 12  1  0
 13 28  1  6
 13 29  1  0
 14 15  1  0
 14 34  1  6
 15 19  1  6
 15 31  1  0
 31 16  1  0
 16 35  2  0
 16 36  1  0
 17 37  1  6
 17 38  1  0
 38 18  1  0
 19 20  1  0
 20 21  2  0
 20 25  1  0
 21 22  1  0
 22 23  2  0
 24 23  1  0
 25 24  2  0
 27 26  1  1
 27 39  1  0
 40 30  1  6
 40 32  2  0
 40 33  2  0
M  END
$$$$
