
     RDKit          3D

 40 43  0  0  0  0  0  0  0  0999 V2000
   71.4558   56.3697   15.1753 C   0  0  0  0  0  0  0  0  0  0  0  0
   74.1589   59.5958   19.5464 C   0  0  1  0  0  0  0  0  0  0  0  0
   74.7638   60.4417   18.4795 C   0  0  0  0  0  0  0  0  0  0  0  0
   73.3415   60.5731   20.3240 C   0  0  2  0  0  0  0  0  0  0  0  0
   72.0148   60.9009   19.7060 C   0  0  0  0  0  0  0  0  0  0  0  0
   66.7305   52.1685   12.7364 C   0  0  0  0  0  0  0  0  0  0  0  0
   66.4623   53.5077   12.9170 C   0  0  0  0  0  0  0  0  0  0  0  0
   67.2438   54.3052   13.7240 C   0  0  0  0  0  0  0  0  0  0  0  0
   68.3508   53.7833   14.3983 C   0  0  0  0  0  0  0  0  0  0  0  0
   68.6080   52.4431   14.2095 C   0  0  0  0  0  0  0  0  0  0  0  0
   67.8191   51.6393   13.3953 C   0  0  0  0  0  0  0  0  0  0  0  0
   71.2650   54.5352   13.6128 C   0  0  0  0  0  0  0  0  0  0  0  0
   72.7000   54.1440   13.7753 C   0  0  2  0  0  0  0  0  0  0  0  0
   70.8301   57.7271   15.2112 C   0  0  2  0  0  0  0  0  0  0  0  0
   70.6054   58.2412   16.6012 C   0  0  2  0  0  0  0  0  0  0  0  0
   72.1704   58.6580   18.5114 C   0  0  0  0  0  0  0  0  0  0  0  0
   74.1203   61.8515   20.0866 C   0  0  1  0  0  0  0  0  0  0  0  0
   72.1268   62.3895   19.4429 C   0  0  0  0  0  0  0  0  0  0  0  0
   69.6436   59.3514   16.7493 C   0  0  0  0  0  0  0  0  0  0  0  0
   69.1156   59.5115   18.1518 C   0  0  0  0  0  0  0  0  0  0  0  0
   69.0870   60.7541   18.7123 C   0  0  0  0  0  0  0  0  0  0  0  0
   68.6109   60.9160   19.9886 C   0  0  0  0  0  0  0  0  0  0  0  0
   68.1544   59.8378   20.7285 C   0  0  0  0  0  0  0  0  0  0  0  0
   68.1923   58.5883   20.1414 C   0  0  0  0  0  0  0  0  0  0  0  0
   68.6697   58.4404   18.8673 C   0  0  0  0  0  0  0  0  0  0  0  0
   65.2145   50.2047   12.6713 C   0  0  0  0  0  0  0  0  0  0  0  0
   65.8712   51.3137   11.8521 C   0  0  2  0  0  0  0  0  0  0  0  0
   72.8616   52.8186   14.4895 C   0  0  0  0  0  0  0  0  0  0  0  0
   73.5899   55.2187   14.3161 C   0  0  0  0  0  0  0  0  0  0  0  0
   70.6862   55.3334   14.5986 N   0  0  0  0  0  0  0  0  0  0  0  0
   71.8909   58.6671   17.1175 N   0  0  0  0  0  0  0  0  0  0  0  0
   68.4454   55.9643   15.8985 O   0  0  0  0  0  0  0  0  0  0  0  0
   69.7267   54.0678   16.6652 O   0  0  0  0  0  0  0  0  0  0  0  0
   69.7171   57.8691   14.3945 O   0  0  0  0  0  0  0  0  0  0  0  0
   71.1915   58.7980   19.2806 O   0  0  0  0  0  0  0  0  0  0  0  0
   73.4158   58.5091   19.0449 O   0  0  0  0  0  0  0  0  0  0  0  0
   74.5611   61.7710   18.7700 O   0  0  0  0  0  0  0  0  0  0  0  0
   73.1884   62.8517   20.2212 O   0  0  0  0  0  0  0  0  0  0  0  0
   66.6049   50.7681   10.8098 O   0  0  0  0  0  0  0  0  0  0  0  0
   69.3325   54.8183   15.4269 S   0  0  1  0  0  6  0  0  0  0  0  0
  1 14  1  0
 30  1  1  0
  2  3  1  0
  2  4  1  0
  2 36  1  6
  3 37  1  0
  4  5  1  6
  4 17  1  0
  5 18  1  0
  7  6  2  0
 11  6  1  0
  6 27  1  0
  8  7  1  0
  9  8  2  0
  9 10  1  0
 40  9  1  0
 10 11  2  0
 12 13  1  0
 30 12  1  0
 13 28  1  1
 13 29  1  0
 14 15  1  0
 14 34  1  1
 15 19  1  6
 15 31  1  0
 31 16  1  0
 16 35  2  0
 16 36  1  0
 17 37  1  6
 17 38  1  0
 38 18  1  0
 19 20  1  0
 20 21  2  0
 20 25  1  0
 21 22  1  0
 22 23  2  0
 24 23  1  0
 25 24  2  0
 27 26  1  1
 27 39  1  0
 40 30  1  6
 40 32  2  0
 40 33  2  0
M  END
$$$$
