
     RDKit          3D

 40 43  0  0  0  0  0  0  0  0999 V2000
   71.5435   56.6510   14.5869 C   0  0  0  0  0  0  0  0  0  0  0  0
   74.1981   59.7534   19.0085 C   0  0  1  0  0  0  0  0  0  0  0  0
   75.3187   60.7310   18.9166 C   0  0  0  0  0  0  0  0  0  0  0  0
   73.2202   60.4491   19.8961 C   0  0  2  0  0  0  0  0  0  0  0  0
   72.3818   61.4822   19.2039 C   0  0  0  0  0  0  0  0  0  0  0  0
   66.8053   52.2040   13.3704 C   0  0  0  0  0  0  0  0  0  0  0  0
   67.7308   51.8966   14.3435 C   0  0  0  0  0  0  0  0  0  0  0  0
   68.4936   52.8664   14.9564 C   0  0  0  0  0  0  0  0  0  0  0  0
   68.3583   54.2140   14.6127 C   0  0  0  0  0  0  0  0  0  0  0  0
   67.4298   54.5082   13.6383 C   0  0  0  0  0  0  0  0  0  0  0  0
   66.6608   53.5292   13.0206 C   0  0  0  0  0  0  0  0  0  0  0  0
   71.6661   54.2504   14.8431 C   0  0  0  0  0  0  0  0  0  0  0  0
   73.1361   54.3682   14.5907 C   0  0  2  0  0  0  0  0  0  0  0  0
   70.7425   57.8794   14.8781 C   0  0  2  0  0  0  0  0  0  0  0  0
   70.4595   58.0719   16.3374 C   0  0  2  0  0  0  0  0  0  0  0  0
   72.5236   58.6605   17.6277 C   0  0  0  0  0  0  0  0  0  0  0  0
   74.1498   61.3089   20.7289 C   0  0  1  0  0  0  0  0  0  0  0  0
   72.7612   62.7598   19.9262 C   0  0  0  0  0  0  0  0  0  0  0  0
   69.0957   58.5097   16.6954 C   0  0  0  0  0  0  0  0  0  0  0  0
   68.9798   59.0393   18.1016 C   0  0  0  0  0  0  0  0  0  0  0  0
   69.0460   60.3848   18.3116 C   0  0  0  0  0  0  0  0  0  0  0  0
   68.9438   60.8822   19.5859 C   0  0  0  0  0  0  0  0  0  0  0  0
   68.7735   60.0430   20.6745 C   0  0  0  0  0  0  0  0  0  0  0  0
   68.7089   58.6837   20.4390 C   0  0  0  0  0  0  0  0  0  0  0  0
   68.8122   58.2003   19.1628 C   0  0  0  0  0  0  0  0  0  0  0  0
   65.1117   51.7452   11.6154 C   0  0  0  0  0  0  0  0  0  0  0  0
   65.9804   51.1366   12.7141 C   0  0  2  0  0  0  0  0  0  0  0  0
   73.8567   53.0444   14.7363 C   0  0  0  0  0  0  0  0  0  0  0  0
   73.8124   55.4913   15.3124 C   0  0  0  0  0  0  0  0  0  0  0  0
   70.8950   55.4107   14.7869 N   0  0  0  0  0  0  0  0  0  0  0  0
   71.4077   59.0477   16.8365 N   0  0  0  0  0  0  0  0  0  0  0  0
   68.6462   56.7767   15.2177 O   0  0  0  0  0  0  0  0  0  0  0  0
   69.3639   55.1848   16.8841 O   0  0  0  0  0  0  0  0  0  0  0  0
   69.6158   58.0332   14.0827 O   0  0  0  0  0  0  0  0  0  0  0  0
   72.4266   57.5715   18.2394 O   0  0  0  0  0  0  0  0  0  0  0  0
   73.6667   59.3919   17.7548 O   0  0  0  0  0  0  0  0  0  0  0  0
   75.1456   61.7251   19.8516 O   0  0  0  0  0  0  0  0  0  0  0  0
   73.3757   62.3748   21.1180 O   0  0  0  0  0  0  0  0  0  0  0  0
   65.1878   50.4717   13.6373 O   0  0  0  0  0  0  0  0  0  0  0  0
   69.3452   55.4354   15.4046 S   0  0  1  0  0  6  0  0  0  0  0  0
  1 14  1  0
 30  1  1  0
  2  3  1  0
  2  4  1  0
  2 36  1  6
  3 37  1  0
  4  5  1  6
  4 17  1  0
  5 18  1  0
  7  6  2  0
 11  6  1  0
  6 27  1  0
  8  7  1  0
  9  8  2  0
  9 10  1  0
 40  9  1  0
 10 11  2  0
 12 13  1  0
 30 12  1  0
 13 28  1  1
 13 29  1  0
 14 15  1  0
 14 34  1  6
 15 19  1  6
 15 31  1  0
 31 16  1  0
 16 35  2  0
 16 36  1  0
 17 37  1  6
 17 38  1  0
 38 18  1  0
 19 20  1  0
 20 21  2  0
 20 25  1  0
 21 22  1  0
 22 23  2  0
 24 23  1  0
 25 24  2  0
 27 26  1  6
 27 39  1  0
 40 30  1  6
 40 32  2  0
 40 33  2  0
M  END
$$$$
