
     RDKit          3D

 40 43  0  0  0  0  0  0  0  0999 V2000
   70.1150   56.9245   14.4758 C   0  0  0  0  0  0  0  0  0  0  0  0
   73.7432   59.2803   19.3368 C   0  0  1  0  0  0  0  0  0  0  0  0
   74.2083   59.5962   17.9571 C   0  0  0  0  0  0  0  0  0  0  0  0
   73.3954   60.6234   19.8875 C   0  0  2  0  0  0  0  0  0  0  0  0
   72.0551   61.1409   19.4570 C   0  0  0  0  0  0  0  0  0  0  0  0
   68.6530   51.6501   12.2717 C   0  0  0  0  0  0  0  0  0  0  0  0
   69.2285   52.8781   12.0296 C   0  0  0  0  0  0  0  0  0  0  0  0
   69.1632   53.9068   12.9438 C   0  0  0  0  0  0  0  0  0  0  0  0
   68.5044   53.7446   14.1654 C   0  0  0  0  0  0  0  0  0  0  0  0
   67.9332   52.5122   14.3953 C   0  0  0  0  0  0  0  0  0  0  0  0
   67.9995   51.4752   13.4724 C   0  0  0  0  0  0  0  0  0  0  0  0
   70.7104   55.7630   16.5104 C   0  0  0  0  0  0  0  0  0  0  0  0
   70.7980   56.9481   17.4195 C   0  0  2  0  0  0  0  0  0  0  0  0
   70.8463   58.1157   15.0063 C   0  0  2  0  0  0  0  0  0  0  0  0
   70.4607   58.4728   16.4101 C   0  0  2  0  0  0  0  0  0  0  0  0
   72.0712   57.8994   18.2402 C   0  0  0  0  0  0  0  0  0  0  0  0
   74.3394   61.5096   19.0998 C   0  0  1  0  0  0  0  0  0  0  0  0
   72.4117   62.4058   18.7014 C   0  0  0  0  0  0  0  0  0  0  0  0
   69.5655   59.6351   16.5757 C   0  0  0  0  0  0  0  0  0  0  0  0
   69.1293   59.8650   17.9998 C   0  0  0  0  0  0  0  0  0  0  0  0
   68.8262   58.7906   18.7826 C   0  0  0  0  0  0  0  0  0  0  0  0
   68.4259   58.9835   20.0805 C   0  0  0  0  0  0  0  0  0  0  0  0
   68.3212   60.2549   20.6199 C   0  0  0  0  0  0  0  0  0  0  0  0
   68.6331   61.3288   19.8094 C   0  0  0  0  0  0  0  0  0  0  0  0
   69.0312   61.1226   18.5162 C   0  0  0  0  0  0  0  0  0  0  0  0
   69.8288   49.5505   11.6651 C   0  0  0  0  0  0  0  0  0  0  0  0
   68.7350   50.5390   11.2669 C   0  0  2  0  0  0  0  0  0  0  0  0
   71.5145   56.6323   18.7155 C   0  0  0  0  0  0  0  0  0  0  0  0
   69.5116   57.6859   17.6204 C   0  0  0  0  0  0  0  0  0  0  0  0
   69.8987   55.8601   15.3810 N   0  0  0  0  0  0  0  0  0  0  0  0
   71.6850   58.7198   17.1452 N   0  0  0  0  0  0  0  0  0  0  0  0
   67.2806   55.9788   14.8910 O   0  0  0  0  0  0  0  0  0  0  0  0
   68.0555   54.5434   16.6701 O   0  0  0  0  0  0  0  0  0  0  0  0
   70.8590   59.2099   14.1529 O   0  0  0  0  0  0  0  0  0  0  0  0
   71.8290   56.6747   18.1362 O   0  0  0  0  0  0  0  0  0  0  0  0
   72.6762   58.3611   19.3710 O   0  0  0  0  0  0  0  0  0  0  0  0
   74.3833   60.9543   17.8255 O   0  0  0  0  0  0  0  0  0  0  0  0
   73.7169   62.7337   19.0696 O   0  0  0  0  0  0  0  0  0  0  0  0
   68.9733   51.0280    9.9916 O   0  0  0  0  0  0  0  0  0  0  0  0
   68.4294   55.0722   15.3164 S   0  0  1  0  0  6  0  0  0  0  0  0
  1 14  1  0
 30  1  1  0
  2  3  1  0
  2  4  1  0
  2 36  1  6
  3 37  1  0
  4  5  1  6
  4 17  1  0
  5 18  1  0
  7  6  2  0
 11  6  1  0
  6 27  1  0
  8  7  1  0
  9  8  2  0
  9 10  1  0
 40  9  1  0
 10 11  2  0
 12 13  1  0
 30 12  1  0
 13 28  1  1
 13 29  1  0
 14 15  1  0
 14 34  1  6
 15 19  1  6
 15 31  1  0
 31 16  1  0
 16 35  2  0
 16 36  1  0
 17 37  1  6
 17 38  1  0
 38 18  1  0
 19 20  1  0
 20 21  2  0
 20 25  1  0
 21 22  1  0
 22 23  2  0
 24 23  1  0
 25 24  2  0
 27 26  1  1
 27 39  1  0
 40 30  1  1
 40 32  2  0
 40 33  2  0
M  END
$$$$
