
     RDKit          3D

 40 43  0  0  0  0  0  0  0  0999 V2000
   71.3166   56.3270   14.8494 C   0  0  0  0  0  0  0  0  0  0  0  0
   73.5994   59.7318   19.6854 C   0  0  1  0  0  0  0  0  0  0  0  0
   74.6657   60.4875   18.9701 C   0  0  0  0  0  0  0  0  0  0  0  0
   72.7111   60.8150   20.2010 C   0  0  2  0  0  0  0  0  0  0  0  0
   71.7598   61.3720   19.1841 C   0  0  0  0  0  0  0  0  0  0  0  0
   66.5554   51.9935   12.9767 C   0  0  0  0  0  0  0  0  0  0  0  0
   67.4578   51.5864   13.9347 C   0  0  0  0  0  0  0  0  0  0  0  0
   68.2195   52.4861   14.6478 C   0  0  0  0  0  0  0  0  0  0  0  0
   68.1064   53.8612   14.4263 C   0  0  0  0  0  0  0  0  0  0  0  0
   67.2008   54.2552   13.4658 C   0  0  0  0  0  0  0  0  0  0  0  0
   66.4330   53.3468   12.7469 C   0  0  0  0  0  0  0  0  0  0  0  0
   71.3160   53.9768   14.2836 C   0  0  0  0  0  0  0  0  0  0  0  0
   72.7742   54.1198   13.9806 C   0  0  2  0  0  0  0  0  0  0  0  0
   70.4968   57.5740   14.9406 C   0  0  2  0  0  0  0  0  0  0  0  0
   70.3913   58.1148   16.3346 C   0  0  2  0  0  0  0  0  0  0  0  0
   71.9531   59.1526   17.9945 C   0  0  0  0  0  0  0  0  0  0  0  0
   73.7031   61.9505   20.3548 C   0  0  1  0  0  0  0  0  0  0  0  0
   72.1778   62.8265   19.0962 C   0  0  0  0  0  0  0  0  0  0  0  0
   69.4706   59.2513   16.5360 C   0  0  0  0  0  0  0  0  0  0  0  0
   69.0217   59.4206   17.9647 C   0  0  0  0  0  0  0  0  0  0  0  0
   68.8318   60.6781   18.4561 C   0  0  0  0  0  0  0  0  0  0  0  0
   68.4249   60.8488   19.7550 C   0  0  0  0  0  0  0  0  0  0  0  0
   68.2005   59.7645   20.5871 C   0  0  0  0  0  0  0  0  0  0  0  0
   68.3989   58.4998   20.0689 C   0  0  0  0  0  0  0  0  0  0  0  0
   68.8049   58.3433   18.7712 C   0  0  0  0  0  0  0  0  0  0  0  0
   66.6310   50.1507   11.3162 C   0  0  0  0  0  0  0  0  0  0  0  0
   65.7314   51.0013   12.2102 C   0  0  2  0  0  0  0  0  0  0  0  0
   73.0423   54.3146   12.5030 C   0  0  0  0  0  0  0  0  0  0  0  0
   73.6539   53.0851   14.6091 C   0  0  0  0  0  0  0  0  0  0  0  0
   70.6091   55.1171   14.6631 N   0  0  0  0  0  0  0  0  0  0  0  0
   71.7222   58.5157   16.7446 N   0  0  0  0  0  0  0  0  0  0  0  0
   68.3417   56.3182   15.3874 O   0  0  0  0  0  0  0  0  0  0  0  0
   69.1904   54.5305   16.7694 O   0  0  0  0  0  0  0  0  0  0  0  0
   69.2722   57.5060   14.2915 O   0  0  0  0  0  0  0  0  0  0  0  0
   71.1917   60.1029   18.2889 O   0  0  0  0  0  0  0  0  0  0  0  0
   72.9345   58.7948   18.8701 O   0  0  0  0  0  0  0  0  0  0  0  0
   74.5710   61.8255   19.2753 O   0  0  0  0  0  0  0  0  0  0  0  0
   72.9441   63.0888   20.2322 O   0  0  0  0  0  0  0  0  0  0  0  0
   64.7598   51.6328   11.4489 O   0  0  0  0  0  0  0  0  0  0  0  0
   69.0914   54.9920   15.3449 S   0  0  1  0  0  6  0  0  0  0  0  0
  1 14  1  0
 30  1  1  0
  2  3  1  0
  2  4  1  0
  2 36  1  6
  3 37  1  0
  4  5  1  6
  4 17  1  0
  5 18  1  0
  7  6  2  0
 11  6  1  0
  6 27  1  0
  8  7  1  0
  9  8  2  0
  9 10  1  0
 40  9  1  0
 10 11  2  0
 12 13  1  0
 30 12  1  0
 13 28  1  6
 13 29  1  0
 14 15  1  0
 14 34  1  1
 15 19  1  6
 15 31  1  0
 31 16  1  0
 16 35  2  0
 16 36  1  0
 17 37  1  6
 17 38  1  0
 38 18  1  0
 19 20  1  0
 20 21  2  0
 20 25  1  0
 21 22  1  0
 22 23  2  0
 24 23  1  0
 25 24  2  0
 27 26  1  6
 27 39  1  0
 40 30  1  6
 40 32  2  0
 40 33  2  0
M  END
$$$$
