
     RDKit          3D

 40 43  0  0  0  0  0  0  0  0999 V2000
   71.0660   56.8316   14.3399 C   0  0  0  0  0  0  0  0  0  0  0  0
   73.8826   59.2645   18.8069 C   0  0  1  0  0  0  0  0  0  0  0  0
   74.4494   60.0277   17.6598 C   0  0  0  0  0  0  0  0  0  0  0  0
   73.5292   60.3390   19.7809 C   0  0  2  0  0  0  0  0  0  0  0  0
   72.2346   61.0378   19.4892 C   0  0  0  0  0  0  0  0  0  0  0  0
   72.0082   50.2007   14.2948 C   0  0  0  0  0  0  0  0  0  0  0  0
   71.0971   50.6282   15.2355 C   0  0  0  0  0  0  0  0  0  0  0  0
   71.0123   51.9482   15.6210 C   0  0  0  0  0  0  0  0  0  0  0  0
   71.8548   52.9161   15.0680 C   0  0  0  0  0  0  0  0  0  0  0  0
   72.7614   52.4757   14.1288 C   0  0  0  0  0  0  0  0  0  0  0  0
   72.8462   51.1440   13.7406 C   0  0  0  0  0  0  0  0  0  0  0  0
   70.0501   54.7973   13.5197 C   0  0  0  0  0  0  0  0  0  0  0  0
   68.6190   55.1920   13.3336 C   0  0  2  0  0  0  0  0  0  0  0  0
   70.0305   57.7850   14.8441 C   0  0  2  0  0  0  0  0  0  0  0  0
   70.3800   58.3965   16.1672 C   0  0  2  0  0  0  0  0  0  0  0  0
   72.6254   57.9605   17.1870 C   0  0  0  0  0  0  0  0  0  0  0  0
   74.5462   61.4021   19.4165 C   0  0  1  0  0  0  0  0  0  0  0  0
   72.6725   62.4704   19.2571 C   0  0  0  0  0  0  0  0  0  0  0  0
   69.7338   59.6832   16.4935 C   0  0  0  0  0  0  0  0  0  0  0  0
   69.3446   59.8144   17.9435 C   0  0  0  0  0  0  0  0  0  0  0  0
   68.7618   60.9701   18.3722 C   0  0  0  0  0  0  0  0  0  0  0  0
   68.4034   61.1055   19.6895 C   0  0  0  0  0  0  0  0  0  0  0  0
   68.6212   60.0874   20.6028 C   0  0  0  0  0  0  0  0  0  0  0  0
   69.2126   58.9255   20.1471 C   0  0  0  0  0  0  0  0  0  0  0  0
   69.5655   58.8032   18.8304 C   0  0  0  0  0  0  0  0  0  0  0  0
   73.1022   48.0205   14.7519 C   0  0  0  0  0  0  0  0  0  0  0  0
   72.0865   48.7599   13.8837 C   0  0  2  0  0  0  0  0  0  0  0  0
   67.7619   54.8457   14.5330 C   0  0  0  0  0  0  0  0  0  0  0  0
   68.0120   54.7700   12.0324 C   0  0  0  0  0  0  0  0  0  0  0  0
   70.7903   55.4544   14.5017 N   0  0  0  0  0  0  0  0  0  0  0  0
   71.8176   58.5779   16.1933 N   0  0  0  0  0  0  0  0  0  0  0  0
   71.1788   54.6004   16.9973 O   0  0  0  0  0  0  0  0  0  0  0  0
   73.1056   55.1935   15.6699 O   0  0  0  0  0  0  0  0  0  0  0  0
   68.7311   57.3001   14.7976 O   0  0  0  0  0  0  0  0  0  0  0  0
   73.2104   56.9030   16.8569 O   0  0  0  0  0  0  0  0  0  0  0  0
   72.7943   58.4441   18.4501 O   0  0  0  0  0  0  0  0  0  0  0  0
   74.6651   61.3342   18.0325 O   0  0  0  0  0  0  0  0  0  0  0  0
   73.9564   62.5847   19.7910 O   0  0  0  0  0  0  0  0  0  0  0  0
   72.4210   48.6344   12.5440 O   0  0  0  0  0  0  0  0  0  0  0  0
   71.7325   54.5949   15.5775 S   0  0  1  0  0  6  0  0  0  0  0  0
  1 14  1  0
 30  1  1  0
  2  3  1  0
  2  4  1  0
  2 36  1  6
  3 37  1  0
  4  5  1  6
  4 17  1  0
  5 18  1  0
  7  6  2  0
 11  6  1  0
  6 27  1  0
  8  7  1  0
  9  8  2  0
  9 10  1  0
 40  9  1  0
 10 11  2  0
 12 13  1  0
 30 12  1  0
 13 28  1  1
 13 29  1  0
 14 15  1  0
 14 34  1  1
 15 19  1  6
 15 31  1  0
 31 16  1  0
 16 35  2  0
 16 36  1  0
 17 37  1  6
 17 38  1  0
 38 18  1  0
 19 20  1  0
 20 21  2  0
 20 25  1  0
 21 22  1  0
 22 23  2  0
 24 23  1  0
 25 24  2  0
 27 26  1  1
 27 39  1  0
 40 30  1  6
 40 32  2  0
 40 33  2  0
M  END
$$$$
