
     RDKit          3D

 40 43  0  0  0  0  0  0  0  0999 V2000
   71.1895   56.0048   15.1538 C   0  0  0  0  0  0  0  0  0  0  0  0
   74.0601   59.7520   19.4766 C   0  0  1  0  0  0  0  0  0  0  0  0
   74.8659   60.5281   18.4927 C   0  0  0  0  0  0  0  0  0  0  0  0
   73.1735   60.7923   20.0766 C   0  0  2  0  0  0  0  0  0  0  0  0
   71.9793   61.1451   19.2405 C   0  0  0  0  0  0  0  0  0  0  0  0
   66.3700   51.7505   12.9681 C   0  0  0  0  0  0  0  0  0  0  0  0
   66.3439   53.1057   12.7213 C   0  0  0  0  0  0  0  0  0  0  0  0
   67.1052   53.9939   13.4490 C   0  0  0  0  0  0  0  0  0  0  0  0
   67.9429   53.5522   14.4765 C   0  0  0  0  0  0  0  0  0  0  0  0
   67.9599   52.1951   14.7133 C   0  0  0  0  0  0  0  0  0  0  0  0
   67.1915   51.2999   13.9788 C   0  0  0  0  0  0  0  0  0  0  0  0
   70.8367   54.1478   13.6469 C   0  0  0  0  0  0  0  0  0  0  0  0
   72.2743   53.7492   13.7615 C   0  0  2  0  0  0  0  0  0  0  0  0
   70.7258   57.4255   15.1078 C   0  0  2  0  0  0  0  0  0  0  0  0
   70.5971   58.0525   16.4632 C   0  0  2  0  0  0  0  0  0  0  0  0
   72.1788   58.8403   18.2379 C   0  0  0  0  0  0  0  0  0  0  0  0
   74.0372   62.0283   19.9235 C   0  0  1  0  0  0  0  0  0  0  0  0
   72.1992   62.6159   18.9467 C   0  0  0  0  0  0  0  0  0  0  0  0
   69.7472   59.2560   16.5581 C   0  0  0  0  0  0  0  0  0  0  0  0
   69.1694   59.4819   17.9315 C   0  0  0  0  0  0  0  0  0  0  0  0
   69.1404   60.7469   18.4395 C   0  0  0  0  0  0  0  0  0  0  0  0
   68.6192   60.9686   19.6889 C   0  0  0  0  0  0  0  0  0  0  0  0
   68.1171   59.9289   20.4540 C   0  0  0  0  0  0  0  0  0  0  0  0
   68.1562   58.6558   19.9201 C   0  0  0  0  0  0  0  0  0  0  0  0
   68.6789   58.4482   18.6724 C   0  0  0  0  0  0  0  0  0  0  0  0
   66.4012   49.6442   11.6562 C   0  0  0  0  0  0  0  0  0  0  0  0
   65.5368   50.7957   12.1651 C   0  0  2  0  0  0  0  0  0  0  0  0
   73.2085   54.9409   13.7505 C   0  0  0  0  0  0  0  0  0  0  0  0
   72.7017   52.6551   12.8343 C   0  0  0  0  0  0  0  0  0  0  0  0
   70.3251   55.0387   14.5896 N   0  0  0  0  0  0  0  0  0  0  0  0
   71.9333   58.3898   16.9120 N   0  0  0  0  0  0  0  0  0  0  0  0
   68.0382   55.9374   15.6244 O   0  0  0  0  0  0  0  0  0  0  0  0
   69.1896   54.1446   16.7586 O   0  0  0  0  0  0  0  0  0  0  0  0
   69.6165   57.6426   14.3027 O   0  0  0  0  0  0  0  0  0  0  0  0
   71.2336   59.4254   18.8155 O   0  0  0  0  0  0  0  0  0  0  0  0
   73.3587   58.6749   18.9000 O   0  0  0  0  0  0  0  0  0  0  0  0
   74.6795   61.8753   18.6995 O   0  0  0  0  0  0  0  0  0  0  0  0
   73.1420   63.0687   19.8700 O   0  0  0  0  0  0  0  0  0  0  0  0
   64.9186   51.4359   11.1019 O   0  0  0  0  0  0  0  0  0  0  0  0
   68.9031   54.7037   15.3957 S   0  0  1  0  0  6  0  0  0  0  0  0
  1 14  1  0
 30  1  1  0
  2  3  1  0
  2  4  1  0
  2 36  1  6
  3 37  1  0
  4  5  1  6
  4 17  1  0
  5 18  1  0
  7  6  2  0
 11  6  1  0
  6 27  1  0
  8  7  1  0
  9  8  2  0
  9 10  1  0
 40  9  1  0
 10 11  2  0
 12 13  1  0
 30 12  1  0
 13 28  1  6
 13 29  1  0
 14 15  1  0
 14 34  1  1
 15 19  1  6
 15 31  1  0
 31 16  1  0
 16 35  2  0
 16 36  1  0
 17 37  1  6
 17 38  1  0
 38 18  1  0
 19 20  1  0
 20 21  2  0
 20 25  1  0
 21 22  1  0
 22 23  2  0
 24 23  1  0
 25 24  2  0
 27 26  1  6
 27 39  1  0
 40 30  1  6
 40 32  2  0
 40 33  2  0
M  END
$$$$
