
     RDKit          3D

 40 43  0  0  0  0  0  0  0  0999 V2000
   70.3833   56.4070   13.9970 C   0  0  0  0  0  0  0  0  0  0  0  0
   73.9643   59.5546   19.2171 C   0  0  1  0  0  0  0  0  0  0  0  0
   74.7882   60.5238   18.4415 C   0  0  0  0  0  0  0  0  0  0  0  0
   72.9365   60.4275   19.8573 C   0  0  2  0  0  0  0  0  0  0  0  0
   71.8006   60.8100   18.9557 C   0  0  0  0  0  0  0  0  0  0  0  0
   66.6437   51.9478   12.7064 C   0  0  0  0  0  0  0  0  0  0  0  0
   67.4973   51.4527   13.6678 C   0  0  0  0  0  0  0  0  0  0  0  0
   68.2102   52.2815   14.5063 C   0  0  0  0  0  0  0  0  0  0  0  0
   68.0951   53.6711   14.4149 C   0  0  0  0  0  0  0  0  0  0  0  0
   67.2387   54.1534   13.4496 C   0  0  0  0  0  0  0  0  0  0  0  0
   66.5201   53.3166   12.6042 C   0  0  0  0  0  0  0  0  0  0  0  0
   71.6618   54.7133   15.1547 C   0  0  0  0  0  0  0  0  0  0  0  0
   72.7971   54.7623   14.1815 C   0  0  2  0  0  0  0  0  0  0  0  0
   71.1399   57.5699   14.5544 C   0  0  2  0  0  0  0  0  0  0  0  0
   70.7486   57.9147   15.9597 C   0  0  2  0  0  0  0  0  0  0  0  0
   72.1523   58.5800   17.9240 C   0  0  0  0  0  0  0  0  0  0  0  0
   73.6985   61.7328   19.9696 C   0  0  1  0  0  0  0  0  0  0  0  0
   71.9169   62.3201   18.8933 C   0  0  0  0  0  0  0  0  0  0  0  0
   69.4990   58.6822   16.1298 C   0  0  0  0  0  0  0  0  0  0  0  0
   69.1243   58.9168   17.5706 C   0  0  0  0  0  0  0  0  0  0  0  0
   69.1131   60.1915   18.0543 C   0  0  0  0  0  0  0  0  0  0  0  0
   68.7759   60.4213   19.3640 C   0  0  0  0  0  0  0  0  0  0  0  0
   68.4435   59.3801   20.2148 C   0  0  0  0  0  0  0  0  0  0  0  0
   68.4611   58.0970   19.7040 C   0  0  0  0  0  0  0  0  0  0  0  0
   68.7994   57.8815   18.3955 C   0  0  0  0  0  0  0  0  0  0  0  0
   66.7807   49.9199   11.2826 C   0  0  0  0  0  0  0  0  0  0  0  0
   65.8724   51.0320   11.8025 C   0  0  2  0  0  0  0  0  0  0  0  0
   72.6557   53.7387   13.0746 C   0  0  0  0  0  0  0  0  0  0  0  0
   74.1593   54.7780   14.8010 C   0  0  0  0  0  0  0  0  0  0  0  0
   70.4242   55.2083   14.7457 N   0  0  0  0  0  0  0  0  0  0  0  0
   71.8412   58.6698   16.5397 N   0  0  0  0  0  0  0  0  0  0  0  0
   68.1108   55.8674   15.8955 O   0  0  0  0  0  0  0  0  0  0  0  0
   69.3279   53.9711   16.7609 O   0  0  0  0  0  0  0  0  0  0  0  0
   71.1905   58.6768   13.7189 O   0  0  0  0  0  0  0  0  0  0  0  0
   71.1822   58.5516   18.7162 O   0  0  0  0  0  0  0  0  0  0  0  0
   73.4185   58.5249   18.4255 O   0  0  0  0  0  0  0  0  0  0  0  0
   74.4650   61.8087   18.8116 O   0  0  0  0  0  0  0  0  0  0  0  0
   72.7242   62.7010   19.9655 O   0  0  0  0  0  0  0  0  0  0  0  0
   65.3099   51.7254   10.7418 O   0  0  0  0  0  0  0  0  0  0  0  0
   69.0176   54.7108   15.4925 S   0  0  1  0  0  6  0  0  0  0  0  0
  1 14  1  0
 30  1  1  0
  2  3  1  0
  2  4  1  0
  2 36  1  6
  3 37  1  0
  4  5  1  6
  4 17  1  0
  5 18  1  0
  7  6  2  0
 11  6  1  0
  6 27  1  0
  8  7  1  0
  9  8  2  0
  9 10  1  0
 40  9  1  0
 10 11  2  0
 12 13  1  0
 30 12  1  0
 13 28  1  6
 13 29  1  0
 14 15  1  0
 14 34  1  6
 15 19  1  6
 15 31  1  0
 31 16  1  0
 16 35  2  0
 16 36  1  0
 17 37  1  6
 17 38  1  0
 38 18  1  0
 19 20  1  0
 20 21  2  0
 20 25  1  0
 21 22  1  0
 22 23  2  0
 24 23  1  0
 25 24  2  0
 27 26  1  6
 27 39  1  0
 40 30  1  6
 40 32  2  0
 40 33  2  0
M  END
$$$$
