
     RDKit          3D

 40 43  0  0  0  0  0  0  0  0999 V2000
   70.3669   55.6450   15.4915 C   0  0  0  0  0  0  0  0  0  0  0  0
   74.0958   59.6942   19.2086 C   0  0  1  0  0  0  0  0  0  0  0  0
   75.1548   60.7062   18.9360 C   0  0  0  0  0  0  0  0  0  0  0  0
   73.0277   60.4991   19.8716 C   0  0  2  0  0  0  0  0  0  0  0  0
   72.1644   61.2805   18.9263 C   0  0  0  0  0  0  0  0  0  0  0  0
   71.5449   50.2064   12.3790 C   0  0  0  0  0  0  0  0  0  0  0  0
   70.3238   50.5676   12.9049 C   0  0  0  0  0  0  0  0  0  0  0  0
   69.9800   51.8857   13.1112 C   0  0  0  0  0  0  0  0  0  0  0  0
   70.8643   52.9196   12.7922 C   0  0  0  0  0  0  0  0  0  0  0  0
   72.0818   52.5452   12.2674 C   0  0  0  0  0  0  0  0  0  0  0  0
   72.4277   51.2153   12.0597 C   0  0  0  0  0  0  0  0  0  0  0  0
   68.4110   54.3917   14.8229 C   0  0  0  0  0  0  0  0  0  0  0  0
   67.6417   55.1467   15.8605 C   0  0  2  0  0  0  0  0  0  0  0  0
   70.2718   57.1050   15.1838 C   0  0  2  0  0  0  0  0  0  0  0  0
   70.4354   57.9784   16.3910 C   0  0  2  0  0  0  0  0  0  0  0  0
   72.3457   58.7314   17.8248 C   0  0  0  0  0  0  0  0  0  0  0  0
   73.8530   61.5940   20.5176 C   0  0  1  0  0  0  0  0  0  0  0  0
   72.4207   62.7142   19.3464 C   0  0  0  0  0  0  0  0  0  0  0  0
   69.8597   59.3355   16.3095 C   0  0  0  0  0  0  0  0  0  0  0  0
   69.4584   59.9038   17.6464 C   0  0  0  0  0  0  0  0  0  0  0  0
   68.7504   59.1250   18.5131 C   0  0  0  0  0  0  0  0  0  0  0  0
   68.3762   59.6285   19.7331 C   0  0  0  0  0  0  0  0  0  0  0  0
   68.7031   60.9208   20.1091 C   0  0  0  0  0  0  0  0  0  0  0  0
   69.4206   61.6922   19.2160 C   0  0  0  0  0  0  0  0  0  0  0  0
   69.7878   61.1778   18.0020 C   0  0  0  0  0  0  0  0  0  0  0  0
   73.3792   48.6440   11.7851 C   0  0  0  0  0  0  0  0  0  0  0  0
   71.9033   48.7665   12.1580 C   0  0  2  0  0  0  0  0  0  0  0  0
   67.7794   54.5384   17.2404 C   0  0  0  0  0  0  0  0  0  0  0  0
   66.2256   55.4609   15.4922 C   0  0  0  0  0  0  0  0  0  0  0  0
   69.7331   54.7648   14.5846 N   0  0  0  0  0  0  0  0  0  0  0  0
   71.8562   58.0906   16.6539 N   0  0  0  0  0  0  0  0  0  0  0  0
   71.6549   55.4465   12.8669 O   0  0  0  0  0  0  0  0  0  0  0  0
   69.4372   55.0321   12.0089 O   0  0  0  0  0  0  0  0  0  0  0  0
   69.1801   57.4584   14.4033 O   0  0  0  0  0  0  0  0  0  0  0  0
   71.4951   59.0456   18.6893 O   0  0  0  0  0  0  0  0  0  0  0  0
   73.6588   59.0165   18.0534 O   0  0  0  0  0  0  0  0  0  0  0  0
   74.8669   61.8720   19.6071 O   0  0  0  0  0  0  0  0  0  0  0  0
   72.9918   62.6595   20.6182 O   0  0  0  0  0  0  0  0  0  0  0  0
   71.1121   48.1944   11.1736 O   0  0  0  0  0  0  0  0  0  0  0  0
   70.4069   54.5952   13.0676 S   0  0  1  0  0  6  0  0  0  0  0  0
  1 14  1  0
 30  1  1  0
  2  3  1  0
  2  4  1  0
  2 36  1  6
  3 37  1  0
  4  5  1  6
  4 17  1  0
  5 18  1  0
  7  6  2  0
 11  6  1  0
  6 27  1  0
  8  7  1  0
  9  8  2  0
  9 10  1  0
 40  9  1  0
 10 11  2  0
 12 13  1  0
 30 12  1  0
 13 28  1  1
 13 29  1  0
 14 15  1  0
 14 34  1  1
 15 19  1  6
 15 31  1  0
 31 16  1  0
 16 35  2  0
 16 36  1  0
 17 37  1  6
 17 38  1  0
 38 18  1  0
 19 20  1  0
 20 21  2  0
 20 25  1  0
 21 22  1  0
 22 23  2  0
 24 23  1  0
 25 24  2  0
 27 26  1  6
 27 39  1  0
 40 30  1  1
 40 32  2  0
 40 33  2  0
M  END
$$$$
