
     RDKit          3D

 40 43  0  0  0  0  0  0  0  0999 V2000
   70.6377   56.3370   15.6413 C   0  0  0  0  0  0  0  0  0  0  0  0
   71.0443   59.9208   20.0710 C   0  0  1  0  0  0  0  0  0  0  0  0
   71.3803   59.8720   21.5216 C   0  0  0  0  0  0  0  0  0  0  0  0
   71.6287   61.2238   19.6366 C   0  0  2  0  0  0  0  0  0  0  0  0
   73.1068   61.1864   19.3854 C   0  0  0  0  0  0  0  0  0  0  0  0
   64.8197   55.5805   18.3044 C   0  0  0  0  0  0  0  0  0  0  0  0
   66.0627   55.5917   18.8986 C   0  0  0  0  0  0  0  0  0  0  0  0
   67.1475   56.2021   18.3081 C   0  0  0  0  0  0  0  0  0  0  0  0
   67.0299   56.8408   17.0708 C   0  0  0  0  0  0  0  0  0  0  0  0
   65.7821   56.8224   16.4871 C   0  0  0  0  0  0  0  0  0  0  0  0
   64.6885   56.2063   17.0836 C   0  0  0  0  0  0  0  0  0  0  0  0
   68.5749   55.5274   14.6755 C   0  0  0  0  0  0  0  0  0  0  0  0
   69.3682   54.3987   14.0964 C   0  0  2  0  0  0  0  0  0  0  0  0
   71.5734   57.2218   14.8817 C   0  0  2  0  0  0  0  0  0  0  0  0
   72.4528   58.0541   15.7653 C   0  0  2  0  0  0  0  0  0  0  0  0
   71.9921   58.9208   18.0693 C   0  0  0  0  0  0  0  0  0  0  0  0
   71.5516   62.0167   20.9260 C   0  0  1  0  0  0  0  0  0  0  0  0
   73.6442   62.1736   20.4025 C   0  0  0  0  0  0  0  0  0  0  0  0
   73.9034   57.7881   15.6955 C   0  0  0  0  0  0  0  0  0  0  0  0
   74.6414   58.1208   16.9667 C   0  0  0  0  0  0  0  0  0  0  0  0
   74.8778   57.1319   17.8751 C   0  0  0  0  0  0  0  0  0  0  0  0
   75.5469   57.4192   19.0377 C   0  0  0  0  0  0  0  0  0  0  0  0
   75.9920   58.7014   19.3137 C   0  0  0  0  0  0  0  0  0  0  0  0
   75.7420   59.6877   18.3799 C   0  0  0  0  0  0  0  0  0  0  0  0
   75.0734   59.3878   17.2240 C   0  0  0  0  0  0  0  0  0  0  0  0
   62.3463   55.5702   18.5058 C   0  0  0  0  0  0  0  0  0  0  0  0
   63.6475   54.9135   18.9615 C   0  0  2  0  0  0  0  0  0  0  0  0
   69.1522   54.2439   12.6057 C   0  0  0  0  0  0  0  0  0  0  0  0
   69.2671   53.1069   14.8451 C   0  0  0  0  0  0  0  0  0  0  0  0
   69.2574   56.5115   15.3894 N   0  0  0  0  0  0  0  0  0  0  0  0
   72.0080   57.8537   17.1300 N   0  0  0  0  0  0  0  0  0  0  0  0
   67.9239   58.8148   15.5474 O   0  0  0  0  0  0  0  0  0  0  0  0
   69.3217   58.1636   17.4043 O   0  0  0  0  0  0  0  0  0  0  0  0
   70.9750   57.9553   13.8670 O   0  0  0  0  0  0  0  0  0  0  0  0
   72.4386   60.0226   17.6740 O   0  0  0  0  0  0  0  0  0  0  0  0
   71.5289   58.8138   19.3467 O   0  0  0  0  0  0  0  0  0  0  0  0
   71.8368   61.1023   21.9343 O   0  0  0  0  0  0  0  0  0  0  0  0
   72.5589   62.9446   20.8196 O   0  0  0  0  0  0  0  0  0  0  0  0
   63.7489   54.9610   20.3435 O   0  0  0  0  0  0  0  0  0  0  0  0
   68.4286   57.6102   16.3328 S   0  0  1  0  0  6  0  0  0  0  0  0
  1 14  1  0
 30  1  1  0
  2  3  1  0
  2  4  1  0
  2 36  1  6
  3 37  1  0
  4  5  1  1
  4 17  1  0
  5 18  1  0
  7  6  2  0
 11  6  1  0
  6 27  1  0
  8  7  1  0
  9  8  2  0
  9 10  1  0
 40  9  1  0
 10 11  2  0
 12 13  1  0
 30 12  1  0
 13 28  1  6
 13 29  1  0
 14 15  1  0
 14 34  1  6
 15 19  1  1
 15 31  1  0
 31 16  1  0
 16 35  2  0
 16 36  1  0
 17 37  1  1
 17 38  1  0
 38 18  1  0
 19 20  1  0
 20 21  2  0
 20 25  1  0
 21 22  1  0
 22 23  2  0
 24 23  1  0
 25 24  2  0
 27 26  1  1
 27 39  1  0
 40 30  1  6
 40 32  2  0
 40 33  2  0
M  END
$$$$
