
     RDKit          3D

 40 43  0  0  0  0  0  0  0  0999 V2000
   70.8797   56.3902   15.3666 C   0  0  0  0  0  0  0  0  0  0  0  0
   73.6786   60.2503   19.4346 C   0  0  1  0  0  0  0  0  0  0  0  0
   74.2107   61.0586   18.3018 C   0  0  0  0  0  0  0  0  0  0  0  0
   73.2721   61.2905   20.4249 C   0  0  2  0  0  0  0  0  0  0  0  0
   71.9462   61.9313   20.1409 C   0  0  0  0  0  0  0  0  0  0  0  0
   67.2420   51.5868   12.3188 C   0  0  0  0  0  0  0  0  0  0  0  0
   67.3812   52.8439   11.7726 C   0  0  0  0  0  0  0  0  0  0  0  0
   67.7885   53.9243   12.5243 C   0  0  0  0  0  0  0  0  0  0  0  0
   68.0798   53.7875   13.8841 C   0  0  0  0  0  0  0  0  0  0  0  0
   67.9365   52.5256   14.4181 C   0  0  0  0  0  0  0  0  0  0  0  0
   67.5255   51.4365   13.6590 C   0  0  0  0  0  0  0  0  0  0  0  0
   70.8916   54.8297   13.5205 C   0  0  0  0  0  0  0  0  0  0  0  0
   72.2904   54.4277   13.8673 C   0  0  2  0  0  0  0  0  0  0  0  0
   70.6961   57.8673   15.2262 C   0  0  2  0  0  0  0  0  0  0  0  0
   70.3580   58.5493   16.5175 C   0  0  2  0  0  0  0  0  0  0  0  0
   72.4839   58.9213   17.7879 C   0  0  0  0  0  0  0  0  0  0  0  0
   74.2378   62.4069   20.0810 C   0  0  1  0  0  0  0  0  0  0  0  0
   72.3154   63.3868   19.9337 C   0  0  0  0  0  0  0  0  0  0  0  0
   69.1393   59.3826   16.5271 C   0  0  0  0  0  0  0  0  0  0  0  0
   68.6966   59.7916   17.9084 C   0  0  0  0  0  0  0  0  0  0  0  0
   68.7052   61.1130   18.2440 C   0  0  0  0  0  0  0  0  0  0  0  0
   68.3068   61.5011   19.4980 C   0  0  0  0  0  0  0  0  0  0  0  0
   67.8923   60.5744   20.4402 C   0  0  0  0  0  0  0  0  0  0  0  0
   67.8914   59.2414   20.0792 C   0  0  0  0  0  0  0  0  0  0  0  0
   68.2913   58.8675   18.8248 C   0  0  0  0  0  0  0  0  0  0  0  0
   66.7545   50.8138   10.0115 C   0  0  0  0  0  0  0  0  0  0  0  0
   66.7998   50.4197   11.4862 C   0  0  2  0  0  0  0  0  0  0  0  0
   72.3776   53.7346   15.2108 C   0  0  0  0  0  0  0  0  0  0  0  0
   73.3182   55.5006   13.6884 C   0  0  0  0  0  0  0  0  0  0  0  0
   70.1720   55.5751   14.4535 N   0  0  0  0  0  0  0  0  0  0  0  0
   71.4911   59.3777   16.8785 N   0  0  0  0  0  0  0  0  0  0  0  0
   67.6106   56.3098   14.5426 O   0  0  0  0  0  0  0  0  0  0  0  0
   68.4589   54.8759   16.2892 O   0  0  0  0  0  0  0  0  0  0  0  0
   69.8675   58.2470   14.1798 O   0  0  0  0  0  0  0  0  0  0  0  0
   73.2628   58.0339   17.3690 O   0  0  0  0  0  0  0  0  0  0  0  0
   72.6316   59.3848   19.0612 O   0  0  0  0  0  0  0  0  0  0  0  0
   74.3628   62.3676   18.6964 O   0  0  0  0  0  0  0  0  0  0  0  0
   73.5912   63.5536   20.4730 O   0  0  0  0  0  0  0  0  0  0  0  0
   65.5610   49.9490   11.8939 O   0  0  0  0  0  0  0  0  0  0  0  0
   68.5941   55.1807   14.8260 S   0  0  1  0  0  6  0  0  0  0  0  0
  1 14  1  0
 30  1  1  0
  2  3  1  0
  2  4  1  0
  2 36  1  6
  3 37  1  0
  4  5  1  6
  4 17  1  0
  5 18  1  0
  7  6  2  0
 11  6  1  0
  6 27  1  0
  8  7  1  0
  9  8  2  0
  9 10  1  0
 40  9  1  0
 10 11  2  0
 12 13  1  0
 30 12  1  0
 13 28  1  1
 13 29  1  0
 14 15  1  0
 14 34  1  6
 15 19  1  6
 15 31  1  0
 31 16  1  0
 16 35  2  0
 16 36  1  0
 17 37  1  6
 17 38  1  0
 38 18  1  0
 19 20  1  0
 20 21  2  0
 20 25  1  0
 21 22  1  0
 22 23  2  0
 24 23  1  0
 25 24  2  0
 27 26  1  6
 27 39  1  0
 40 30  1  1
 40 32  2  0
 40 33  2  0
M  END
$$$$
