
     RDKit          3D

 40 43  0  0  0  0  0  0  0  0999 V2000
   70.0036   56.6158   15.2809 C   0  0  0  0  0  0  0  0  0  0  0  0
   74.7036   59.4132   18.6375 C   0  0  1  0  0  0  0  0  0  0  0  0
   75.2458   60.4153   17.6776 C   0  0  0  0  0  0  0  0  0  0  0  0
   73.9350   60.2555   19.6008 C   0  0  2  0  0  0  0  0  0  0  0  0
   72.5748   60.6633   19.1184 C   0  0  0  0  0  0  0  0  0  0  0  0
   72.3339   50.6132   13.1460 C   0  0  0  0  0  0  0  0  0  0  0  0
   72.2157   51.6947   12.3008 C   0  0  0  0  0  0  0  0  0  0  0  0
   72.0965   52.9821   12.7768 C   0  0  0  0  0  0  0  0  0  0  0  0
   72.0908   53.2456   14.1491 C   0  0  0  0  0  0  0  0  0  0  0  0
   72.2095   52.1557   14.9833 C   0  0  0  0  0  0  0  0  0  0  0  0
   72.3296   50.8574   14.5023 C   0  0  0  0  0  0  0  0  0  0  0  0
   69.4266   54.7640   13.8383 C   0  0  0  0  0  0  0  0  0  0  0  0
   68.0258   55.2888   13.8049 C   0  0  2  0  0  0  0  0  0  0  0  0
   69.6279   56.6169   16.7281 C   0  0  2  0  0  0  0  0  0  0  0  0
   70.2849   57.7129   17.5116 C   0  0  2  0  0  0  0  0  0  0  0  0
   72.6221   58.5952   17.6869 C   0  0  0  0  0  0  0  0  0  0  0  0
   74.7006   61.5607   19.5147 C   0  0  1  0  0  0  0  0  0  0  0  0
   72.6735   62.1754   19.0778 C   0  0  0  0  0  0  0  0  0  0  0  0
   69.9322   59.0970   17.1381 C   0  0  0  0  0  0  0  0  0  0  0  0
   69.2953   59.8818   18.2560 C   0  0  0  0  0  0  0  0  0  0  0  0
   67.9376   60.0013   18.2934 C   0  0  0  0  0  0  0  0  0  0  0  0
   67.3430   60.7140   19.3036 C   0  0  0  0  0  0  0  0  0  0  0  0
   68.0954   61.3207   20.2956 C   0  0  0  0  0  0  0  0  0  0  0  0
   69.4688   61.1869   20.2385 C   0  0  0  0  0  0  0  0  0  0  0  0
   70.0495   60.4732   19.2252 C   0  0  0  0  0  0  0  0  0  0  0  0
   71.1240   48.4927   12.7003 C   0  0  0  0  0  0  0  0  0  0  0  0
   72.4654   49.2173   12.6121 C   0  0  2  0  0  0  0  0  0  0  0  0
   67.0577   54.4044   14.5623 C   0  0  0  0  0  0  0  0  0  0  0  0
   67.5306   55.6800   12.4480 C   0  0  0  0  0  0  0  0  0  0  0  0
   70.3316   55.3631   14.7134 N   0  0  0  0  0  0  0  0  0  0  0  0
   71.7177   57.5442   17.3730 N   0  0  0  0  0  0  0  0  0  0  0  0
   72.5541   54.9464   16.1261 O   0  0  0  0  0  0  0  0  0  0  0  0
   72.7608   55.8134   13.8829 O   0  0  0  0  0  0  0  0  0  0  0  0
   69.7198   55.3783   17.3470 O   0  0  0  0  0  0  0  0  0  0  0  0
   72.1638   59.7604   17.6463 O   0  0  0  0  0  0  0  0  0  0  0  0
   73.9303   58.4095   18.0215 O   0  0  0  0  0  0  0  0  0  0  0  0
   75.0628   61.6837   18.1775 O   0  0  0  0  0  0  0  0  0  0  0  0
   73.7799   62.5221   19.8537 O   0  0  0  0  0  0  0  0  0  0  0  0
   73.4397   48.5051   13.2948 O   0  0  0  0  0  0  0  0  0  0  0  0
   71.9334   54.8963   14.7352 S   0  0  1  0  0  6  0  0  0  0  0  0
  1 14  1  0
 30  1  1  0
  2  3  1  0
  2  4  1  0
  2 36  1  6
  3 37  1  0
  4  5  1  6
  4 17  1  0
  5 18  1  0
  7  6  2  0
 11  6  1  0
  6 27  1  0
  8  7  1  0
  9  8  2  0
  9 10  1  0
 40  9  1  0
 10 11  2  0
 12 13  1  0
 30 12  1  0
 13 28  1  6
 13 29  1  0
 14 15  1  0
 14 34  1  1
 15 19  1  6
 15 31  1  0
 31 16  1  0
 16 35  2  0
 16 36  1  0
 17 37  1  6
 17 38  1  0
 38 18  1  0
 19 20  1  0
 20 21  2  0
 20 25  1  0
 21 22  1  0
 22 23  2  0
 24 23  1  0
 25 24  2  0
 27 26  1  1
 27 39  1  0
 40 30  1  1
 40 32  2  0
 40 33  2  0
M  END
$$$$
