
     RDKit          3D

 40 43  0  0  0  0  0  0  0  0999 V2000
   71.3352   56.6925   14.9721 C   0  0  0  0  0  0  0  0  0  0  0  0
   68.8855   59.9071   19.2174 C   0  0  1  0  0  0  0  0  0  0  0  0
   68.4696   59.2610   20.4938 C   0  0  0  0  0  0  0  0  0  0  0  0
   69.8716   60.9330   19.6684 C   0  0  2  0  0  0  0  0  0  0  0  0
   71.2429   60.3932   19.9471 C   0  0  0  0  0  0  0  0  0  0  0  0
   66.3784   52.6661   13.2861 C   0  0  0  0  0  0  0  0  0  0  0  0
   66.4938   54.0258   13.0969 C   0  0  0  0  0  0  0  0  0  0  0  0
   67.3682   54.7929   13.8353 C   0  0  0  0  0  0  0  0  0  0  0  0
   68.1812   54.2173   14.8153 C   0  0  0  0  0  0  0  0  0  0  0  0
   68.0561   52.8572   14.9948 C   0  0  0  0  0  0  0  0  0  0  0  0
   67.1738   52.0843   14.2494 C   0  0  0  0  0  0  0  0  0  0  0  0
   71.4802   54.3211   14.5259 C   0  0  0  0  0  0  0  0  0  0  0  0
   72.5051   54.5182   13.4539 C   0  0  2  0  0  0  0  0  0  0  0  0
   72.4256   56.8631   15.9808 C   0  0  2  0  0  0  0  0  0  0  0  0
   72.5722   58.2745   16.4640 C   0  0  2  0  0  0  0  0  0  0  0  0
   70.5474   59.2459   17.5725 C   0  0  0  0  0  0  0  0  0  0  0  0
   69.3620   61.2260   21.0654 C   0  0  1  0  0  0  0  0  0  0  0  0
   71.4286   60.6964   21.4207 C   0  0  0  0  0  0  0  0  0  0  0  0
   73.9344   58.7114   16.8289 C   0  0  0  0  0  0  0  0  0  0  0  0
   73.9606   59.8739   17.7877 C   0  0  0  0  0  0  0  0  0  0  0  0
   73.5768   61.1059   17.3475 C   0  0  0  0  0  0  0  0  0  0  0  0
   73.5967   62.1744   18.2077 C   0  0  0  0  0  0  0  0  0  0  0  0
   74.0011   62.0306   19.5245 C   0  0  0  0  0  0  0  0  0  0  0  0
   74.3856   60.7740   19.9493 C   0  0  0  0  0  0  0  0  0  0  0  0
   74.3611   59.7163   19.0810 C   0  0  0  0  0  0  0  0  0  0  0  0
   66.1295   50.6046   11.9270 C   0  0  0  0  0  0  0  0  0  0  0  0
   65.4232   51.8441   12.4719 C   0  0  2  0  0  0  0  0  0  0  0  0
   72.3307   53.5520   12.3011 C   0  0  0  0  0  0  0  0  0  0  0  0
   73.9176   54.6088   13.9399 C   0  0  0  0  0  0  0  0  0  0  0  0
   70.7182   55.4216   14.9163 N   0  0  0  0  0  0  0  0  0  0  0  0
   71.7093   58.4279   17.6183 N   0  0  0  0  0  0  0  0  0  0  0  0
   68.5733   56.5283   16.0489 O   0  0  0  0  0  0  0  0  0  0  0  0
   69.5414   54.5732   17.0817 O   0  0  0  0  0  0  0  0  0  0  0  0
   73.6352   56.2843   15.6236 O   0  0  0  0  0  0  0  0  0  0  0  0
   70.6007   60.2549   16.8317 O   0  0  0  0  0  0  0  0  0  0  0  0
   69.4052   58.9990   18.2739 O   0  0  0  0  0  0  0  0  0  0  0  0
   68.9270   60.0009   21.5595 O   0  0  0  0  0  0  0  0  0  0  0  0
   70.4711   61.6552   21.7528 O   0  0  0  0  0  0  0  0  0  0  0  0
   64.8817   52.5827   11.4309 O   0  0  0  0  0  0  0  0  0  0  0  0
   69.2873   55.2157   15.7495 S   0  0  1  0  0  6  0  0  0  0  0  0
  1 14  1  0
 30  1  1  0
  2  3  1  0
  2  4  1  0
  2 36  1  6
  3 37  1  0
  4  5  1  1
  4 17  1  0
  5 18  1  0
  7  6  2  0
 11  6  1  0
  6 27  1  0
  8  7  1  0
  9  8  2  0
  9 10  1  0
 40  9  1  0
 10 11  2  0
 12 13  1  0
 30 12  1  0
 13 28  1  6
 13 29  1  0
 14 15  1  0
 14 34  1  6
 15 19  1  1
 15 31  1  0
 31 16  1  0
 16 35  2  0
 16 36  1  0
 17 37  1  1
 17 38  1  0
 38 18  1  0
 19 20  1  0
 20 21  2  0
 20 25  1  0
 21 22  1  0
 22 23  2  0
 24 23  1  0
 25 24  2  0
 27 26  1  6
 27 39  1  0
 40 30  1  6
 40 32  2  0
 40 33  2  0
M  END
$$$$
