
     RDKit          3D

 17 19  0  0  0  0  0  0  0  0999 V2000
  -22.6123   20.6301  -11.1759 C   0  0  0  0  0  0  0  0  0  0  0  0
  -24.8051   20.6970  -11.2633 C   0  0  0  0  0  0  0  0  0  0  0  0
  -19.3905   17.7849  -13.5253 C   0  0  0  0  0  0  0  0  0  0  0  0
  -17.2570   16.7456  -14.3915 N   0  0  0  0  0  0  0  0  0  0  0  0
  -18.0637   17.4100  -13.4327 C   0  0  0  0  0  0  0  0  0  0  0  0
  -17.6972   17.8291  -12.1846 N   0  0  0  0  0  0  0  0  0  0  0  0
  -18.7173   18.4086  -11.5748 N   0  0  0  0  0  0  0  0  0  0  0  0
  -19.8089   18.4118  -12.3645 C   0  0  0  0  0  0  0  0  0  0  0  0
  -21.1470   18.9412  -12.1155 C   0  0  0  0  0  0  0  0  0  0  0  0
  -22.2635   18.2812  -12.5804 C   0  0  0  0  0  0  0  0  0  0  0  0
  -23.5482   18.7676  -12.3598 C   0  0  0  0  0  0  0  0  0  0  0  0
  -23.7264   19.9385  -11.6598 C   0  0  0  0  0  0  0  0  0  0  0  0
  -23.0523   21.7417  -10.5282 N   0  0  0  0  0  0  0  0  0  0  0  0
  -24.3850   21.7926  -10.5750 C   0  0  0  0  0  0  0  0  0  0  0  0
  -21.3550   20.1123  -11.4172 C   0  0  0  0  0  0  0  0  0  0  0  0
  -20.2297   17.5534  -14.6926 C   0  0  0  0  0  0  0  0  0  0  0  0
  -20.8734   17.3720  -15.5882 N   0  0  0  0  0  0  0  0  0  0  0  0
  1 12  2  0
  1 13  1  0
 15  1  1  0
 12  2  1  0
  2 14  2  0
  3  5  2  0
  8  3  1  0
  3 16  1  0
  5  4  1  0
  6  5  1  0
  7  6  1  0
  8  7  2  0
  9  8  1  0
  9 10  1  0
  9 15  2  0
 10 11  2  0
 11 12  1  0
 13 14  1  0
 16 17  3  0
M  END
$$$$
