
     RDKit          3D

 17 19  0  0  0  0  0  0  0  0999 V2000
  -22.6927   20.0473  -11.7051 C   0  0  0  0  0  0  0  0  0  0  0  0
  -24.8976   20.2130  -11.5252 C   0  0  0  0  0  0  0  0  0  0  0  0
  -18.9809   18.1285  -13.2788 C   0  0  0  0  0  0  0  0  0  0  0  0
  -16.7136   17.2912  -13.8842 N   0  0  0  0  0  0  0  0  0  0  0  0
  -18.0463   17.1271  -13.4024 C   0  0  0  0  0  0  0  0  0  0  0  0
  -18.5979   15.9683  -12.9936 N   0  0  0  0  0  0  0  0  0  0  0  0
  -19.8368   16.2314  -12.6255 N   0  0  0  0  0  0  0  0  0  0  0  0
  -20.1210   17.5396  -12.7805 C   0  0  0  0  0  0  0  0  0  0  0  0
  -21.4077   18.1862  -12.4699 C   0  0  0  0  0  0  0  0  0  0  0  0
  -22.6041   17.4914  -12.6657 C   0  0  0  0  0  0  0  0  0  0  0  0
  -23.8194   18.0700  -12.3843 C   0  0  0  0  0  0  0  0  0  0  0  0
  -23.8874   19.3592  -11.8985 C   0  0  0  0  0  0  0  0  0  0  0  0
  -23.0328   21.2689  -11.2300 N   0  0  0  0  0  0  0  0  0  0  0  0
  -24.3443   21.4020  -11.1101 C   0  0  0  0  0  0  0  0  0  0  0  0
  -21.4833   19.4667  -11.9869 C   0  0  0  0  0  0  0  0  0  0  0  0
  -18.8527   19.5264  -13.5904 C   0  0  0  0  0  0  0  0  0  0  0  0
  -18.7308   20.6483  -13.8484 N   0  0  0  0  0  0  0  0  0  0  0  0
  1 12  2  0
  1 13  1  0
 15  1  1  0
 12  2  1  0
  2 14  2  0
  3  5  2  0
  8  3  1  0
  3 16  1  0
  5  4  1  0
  6  5  1  0
  7  6  1  0
  8  7  2  0
  9  8  1  0
  9 10  1  0
  9 15  2  0
 10 11  2  0
 11 12  1  0
 13 14  1  0
 16 17  3  0
M  END
$$$$
