
     RDKit          3D

 17 19  0  0  0  0  0  0  0  0999 V2000
  -22.8051   20.6958  -11.4833 C   0  0  0  0  0  0  0  0  0  0  0  0
  -25.0096   20.5871  -11.2605 C   0  0  0  0  0  0  0  0  0  0  0  0
  -19.5063   17.4766  -13.0872 C   0  0  0  0  0  0  0  0  0  0  0  0
  -17.3245   16.4885  -13.7744 N   0  0  0  0  0  0  0  0  0  0  0  0
  -18.2292   17.5758  -13.5880 C   0  0  0  0  0  0  0  0  0  0  0  0
  -17.9757   18.8677  -13.8725 N   0  0  0  0  0  0  0  0  0  0  0  0
  -19.0559   19.5575  -13.5615 N   0  0  0  0  0  0  0  0  0  0  0  0
  -20.0220   18.7528  -13.0764 C   0  0  0  0  0  0  0  0  0  0  0  0
  -21.3588   19.1812  -12.6297 C   0  0  0  0  0  0  0  0  0  0  0  0
  -22.4832   18.4205  -12.9607 C   0  0  0  0  0  0  0  0  0  0  0  0
  -23.7429   18.7963  -12.5572 C   0  0  0  0  0  0  0  0  0  0  0  0
  -23.9284   19.9413  -11.8107 C   0  0  0  0  0  0  0  0  0  0  0  0
  -23.2547   21.7485  -10.7600 N   0  0  0  0  0  0  0  0  0  0  0  0
  -24.5691   21.7148  -10.6075 C   0  0  0  0  0  0  0  0  0  0  0  0
  -21.5511   20.3174  -11.8877 C   0  0  0  0  0  0  0  0  0  0  0  0
  -20.2147   16.3053  -12.6470 C   0  0  0  0  0  0  0  0  0  0  0  0
  -20.7986   15.3651  -12.3073 N   0  0  0  0  0  0  0  0  0  0  0  0
  1 12  2  0
  1 13  1  0
 15  1  1  0
 12  2  1  0
  2 14  2  0
  3  5  2  0
  8  3  1  0
  3 16  1  0
  5  4  1  0
  6  5  1  0
  7  6  1  0
  8  7  2  0
  9  8  1  0
  9 10  1  0
  9 15  2  0
 10 11  2  0
 11 12  1  0
 13 14  1  0
 16 17  3  0
M  END
$$$$
