
     RDKit          3D

 17 19  0  0  0  0  0  0  0  0999 V2000
  -23.6853   18.9341  -11.5621 C   0  0  0  0  0  0  0  0  0  0  0  0
  -25.3710   20.3166  -11.1518 C   0  0  0  0  0  0  0  0  0  0  0  0
  -19.6278   17.7993  -12.8865 C   0  0  0  0  0  0  0  0  0  0  0  0
  -17.4188   16.8676  -13.5653 N   0  0  0  0  0  0  0  0  0  0  0  0
  -18.3641   17.9255  -13.4144 C   0  0  0  0  0  0  0  0  0  0  0  0
  -18.1682   19.2113  -13.7642 N   0  0  0  0  0  0  0  0  0  0  0  0
  -19.2705   19.8715  -13.4668 N   0  0  0  0  0  0  0  0  0  0  0  0
  -20.1951   19.0529  -12.9269 C   0  0  0  0  0  0  0  0  0  0  0  0
  -21.5408   19.4483  -12.4769 C   0  0  0  0  0  0  0  0  0  0  0  0
  -21.9388   20.7855  -12.5548 C   0  0  0  0  0  0  0  0  0  0  0  0
  -23.1888   21.1831  -12.1421 C   0  0  0  0  0  0  0  0  0  0  0  0
  -24.0864   20.2651  -11.6377 C   0  0  0  0  0  0  0  0  0  0  0  0
  -24.7329   18.2527  -11.0408 N   0  0  0  0  0  0  0  0  0  0  0  0
  -25.7584   19.0491  -10.7835 C   0  0  0  0  0  0  0  0  0  0  0  0
  -22.4381   18.5421  -11.9747 C   0  0  0  0  0  0  0  0  0  0  0  0
  -20.2806   16.6231  -12.3787 C   0  0  0  0  0  0  0  0  0  0  0  0
  -20.8082   15.6852  -11.9519 N   0  0  0  0  0  0  0  0  0  0  0  0
  1 12  2  0
  1 13  1  0
 15  1  1  0
 12  2  1  0
  2 14  2  0
  3  5  2  0
  8  3  1  0
  3 16  1  0
  5  4  1  0
  6  5  1  0
  7  6  1  0
  8  7  2  0
  9  8  1  0
  9 10  1  0
  9 15  2  0
 10 11  2  0
 11 12  1  0
 13 14  1  0
 16 17  3  0
M  END
$$$$
