
     RDKit          3D

 17 19  0  0  0  0  0  0  0  0999 V2000
  -22.7452   19.8506  -11.4415 C   0  0  0  0  0  0  0  0  0  0  0  0
  -24.9415   20.1629  -11.4466 C   0  0  0  0  0  0  0  0  0  0  0  0
  -19.0336   17.9831  -13.1214 C   0  0  0  0  0  0  0  0  0  0  0  0
  -16.7763   17.0967  -13.6935 N   0  0  0  0  0  0  0  0  0  0  0  0
  -18.1437   16.9522  -13.3132 C   0  0  0  0  0  0  0  0  0  0  0  0
  -18.7770   15.7860  -13.0826 N   0  0  0  0  0  0  0  0  0  0  0  0
  -20.0224   16.0732  -12.7570 N   0  0  0  0  0  0  0  0  0  0  0  0
  -20.2310   17.4046  -12.7660 C   0  0  0  0  0  0  0  0  0  0  0  0
  -21.5014   18.0814  -12.4528 C   0  0  0  0  0  0  0  0  0  0  0  0
  -22.7092   17.5451  -12.9066 C   0  0  0  0  0  0  0  0  0  0  0  0
  -23.9098   18.1555  -12.6293 C   0  0  0  0  0  0  0  0  0  0  0  0
  -23.9512   19.3202  -11.8914 C   0  0  0  0  0  0  0  0  0  0  0  0
  -23.0595   20.9746  -10.7549 N   0  0  0  0  0  0  0  0  0  0  0  0
  -24.3652   21.1915  -10.7380 C   0  0  0  0  0  0  0  0  0  0  0  0
  -21.5505   19.2388  -11.7203 C   0  0  0  0  0  0  0  0  0  0  0  0
  -18.8166   19.3986  -13.2507 C   0  0  0  0  0  0  0  0  0  0  0  0
  -18.6249   20.5346  -13.3652 N   0  0  0  0  0  0  0  0  0  0  0  0
  1 12  2  0
  1 13  1  0
 15  1  1  0
 12  2  1  0
  2 14  2  0
  3  5  2  0
  8  3  1  0
  3 16  1  0
  5  4  1  0
  6  5  1  0
  7  6  1  0
  8  7  2  0
  9  8  1  0
  9 10  1  0
  9 15  2  0
 10 11  2  0
 11 12  1  0
 13 14  1  0
 16 17  3  0
M  END
$$$$
