
     RDKit          3D

 17 19  0  0  0  0  0  0  0  0999 V2000
  -12.5987    8.2793  -28.1917 C   0  0  0  0  0  0  0  0  0  0  0  0
  -12.2089    9.0914  -30.1940 C   0  0  0  0  0  0  0  0  0  0  0  0
  -12.7766   10.4946  -23.8159 C   0  0  0  0  0  0  0  0  0  0  0  0
  -12.9780   10.9563  -21.3402 N   0  0  0  0  0  0  0  0  0  0  0  0
  -13.2381   10.2425  -22.5379 C   0  0  0  0  0  0  0  0  0  0  0  0
  -14.0141    9.1279  -22.6899 N   0  0  0  0  0  0  0  0  0  0  0  0
  -14.0208    8.7397  -23.9537 N   0  0  0  0  0  0  0  0  0  0  0  0
  -13.2625    9.5569  -24.7103 C   0  0  0  0  0  0  0  0  0  0  0  0
  -12.9829    9.5197  -26.1433 C   0  0  0  0  0  0  0  0  0  0  0  0
  -12.8359   10.6854  -26.8629 C   0  0  0  0  0  0  0  0  0  0  0  0
  -12.5736   10.6760  -28.2291 C   0  0  0  0  0  0  0  0  0  0  0  0
  -12.4545    9.4782  -28.8954 C   0  0  0  0  0  0  0  0  0  0  0  0
  -12.4390    7.2520  -29.0680 N   0  0  0  0  0  0  0  0  0  0  0  0
  -12.2012    7.7344  -30.2893 C   0  0  0  0  0  0  0  0  0  0  0  0
  -12.8586    8.3338  -26.8364 C   0  0  0  0  0  0  0  0  0  0  0  0
  -11.9009   11.6030  -24.1690 C   0  0  0  0  0  0  0  0  0  0  0  0
  -11.2299   12.4559  -24.4371 N   0  0  0  0  0  0  0  0  0  0  0  0
  1 12  2  0
  1 13  1  0
 15  1  1  0
 12  2  1  0
  2 14  2  0
  3  5  2  0
  8  3  1  0
  3 16  1  0
  5  4  1  0
  6  5  1  0
  7  6  1  0
  8  7  2  0
  9  8  1  0
  9 10  1  0
  9 15  2  0
 10 11  2  0
 11 12  1  0
 13 14  1  0
 16 17  3  0
M  END
$$$$
