
     RDKit          3D

 17 19  0  0  0  0  0  0  0  0999 V2000
  -22.9572   20.7132  -11.1719 C   0  0  0  0  0  0  0  0  0  0  0  0
  -25.1700   20.5684  -11.1112 C   0  0  0  0  0  0  0  0  0  0  0  0
  -19.4689   17.8019  -12.8641 C   0  0  0  0  0  0  0  0  0  0  0  0
  -17.2218   16.9396  -13.5086 N   0  0  0  0  0  0  0  0  0  0  0  0
  -18.1906   17.9734  -13.3416 C   0  0  0  0  0  0  0  0  0  0  0  0
  -18.0063   19.2773  -13.6245 N   0  0  0  0  0  0  0  0  0  0  0  0
  -19.1298   19.9046  -13.3351 N   0  0  0  0  0  0  0  0  0  0  0  0
  -20.0570   19.0465  -12.8660 C   0  0  0  0  0  0  0  0  0  0  0  0
  -21.4241   19.3981  -12.4449 C   0  0  0  0  0  0  0  0  0  0  0  0
  -22.5167   18.6973  -12.9622 C   0  0  0  0  0  0  0  0  0  0  0  0
  -23.8036   19.0039  -12.5870 C   0  0  0  0  0  0  0  0  0  0  0  0
  -24.0489   20.0178  -11.6845 C   0  0  0  0  0  0  0  0  0  0  0  0
  -23.4635   21.6394  -10.3238 N   0  0  0  0  0  0  0  0  0  0  0  0
  -24.7845   21.5807  -10.2634 C   0  0  0  0  0  0  0  0  0  0  0  0
  -21.6758   20.4042  -11.5487 C   0  0  0  0  0  0  0  0  0  0  0  0
  -20.1172   16.5925  -12.4341 C   0  0  0  0  0  0  0  0  0  0  0  0
  -20.6570   15.6271  -12.0926 N   0  0  0  0  0  0  0  0  0  0  0  0
  1 12  2  0
  1 13  1  0
 15  1  1  0
 12  2  1  0
  2 14  2  0
  3  5  2  0
  8  3  1  0
  3 16  1  0
  5  4  1  0
  6  5  1  0
  7  6  1  0
  8  7  2  0
  9  8  1  0
  9 10  1  0
  9 15  2  0
 10 11  2  0
 11 12  1  0
 13 14  1  0
 16 17  3  0
M  END
$$$$
