
     RDKit          3D

 17 19  0  0  0  0  0  0  0  0999 V2000
  -12.0224   10.0536  -28.0957 C   0  0  0  0  0  0  0  0  0  0  0  0
  -12.6180    9.8479  -30.2227 C   0  0  0  0  0  0  0  0  0  0  0  0
  -13.0409   10.4650  -23.7495 C   0  0  0  0  0  0  0  0  0  0  0  0
  -13.1793   10.6174  -21.2663 N   0  0  0  0  0  0  0  0  0  0  0  0
  -13.4393    9.9910  -22.5214 C   0  0  0  0  0  0  0  0  0  0  0  0
  -14.1143    8.8393  -22.7009 N   0  0  0  0  0  0  0  0  0  0  0  0
  -14.1398    8.5970  -23.9971 N   0  0  0  0  0  0  0  0  0  0  0  0
  -13.4966    9.5621  -24.6834 C   0  0  0  0  0  0  0  0  0  0  0  0
  -13.3288    9.6159  -26.1459 C   0  0  0  0  0  0  0  0  0  0  0  0
  -14.3872    9.2563  -26.9843 C   0  0  0  0  0  0  0  0  0  0  0  0
  -14.2589    9.2969  -28.3528 C   0  0  0  0  0  0  0  0  0  0  0  0
  -13.0740    9.6963  -28.9352 C   0  0  0  0  0  0  0  0  0  0  0  0
  -10.9936   10.3998  -28.9051 N   0  0  0  0  0  0  0  0  0  0  0  0
  -11.3154   10.2884  -30.1843 C   0  0  0  0  0  0  0  0  0  0  0  0
  -12.1547   10.0116  -26.7319 C   0  0  0  0  0  0  0  0  0  0  0  0
  -12.2970   11.6558  -24.0594 C   0  0  0  0  0  0  0  0  0  0  0  0
  -11.6866   12.6115  -24.2925 N   0  0  0  0  0  0  0  0  0  0  0  0
  1 12  2  0
  1 13  1  0
 15  1  1  0
 12  2  1  0
  2 14  2  0
  3  5  2  0
  8  3  1  0
  3 16  1  0
  5  4  1  0
  6  5  1  0
  7  6  1  0
  8  7  2  0
  9  8  1  0
  9 10  1  0
  9 15  2  0
 10 11  2  0
 11 12  1  0
 13 14  1  0
 16 17  3  0
M  END
$$$$
