
     RDKit          3D

 17 19  0  0  0  0  0  0  0  0999 V2000
  -23.6034   19.0048  -11.5435 C   0  0  0  0  0  0  0  0  0  0  0  0
  -24.6343   20.9361  -11.3769 C   0  0  0  0  0  0  0  0  0  0  0  0
  -19.0448   17.9772  -13.1092 C   0  0  0  0  0  0  0  0  0  0  0  0
  -16.9086   16.7747  -13.7201 N   0  0  0  0  0  0  0  0  0  0  0  0
  -18.2973   16.8649  -13.4466 C   0  0  0  0  0  0  0  0  0  0  0  0
  -19.2152   15.8525  -13.4604 N   0  0  0  0  0  0  0  0  0  0  0  0
  -20.4161   16.3147  -13.1566 N   0  0  0  0  0  0  0  0  0  0  0  0
  -20.3747   17.6415  -12.9255 C   0  0  0  0  0  0  0  0  0  0  0  0
  -21.4450   18.5649  -12.5583 C   0  0  0  0  0  0  0  0  0  0  0  0
  -21.3502   19.9069  -12.8553 C   0  0  0  0  0  0  0  0  0  0  0  0
  -22.3542   20.8069  -12.5121 C   0  0  0  0  0  0  0  0  0  0  0  0
  -23.4794   20.3610  -11.8580 C   0  0  0  0  0  0  0  0  0  0  0  0
  -24.7908   18.8248  -10.9060 N   0  0  0  0  0  0  0  0  0  0  0  0
  -25.4266   19.9932  -10.7991 C   0  0  0  0  0  0  0  0  0  0  0  0
  -22.5834   18.1456  -11.9023 C   0  0  0  0  0  0  0  0  0  0  0  0
  -18.4995   19.3194  -12.9628 C   0  0  0  0  0  0  0  0  0  0  0  0
  -18.0783   20.3490  -12.8530 N   0  0  0  0  0  0  0  0  0  0  0  0
  1 12  2  0
  1 13  1  0
 15  1  1  0
 12  2  1  0
  2 14  2  0
  3  5  2  0
  8  3  1  0
  3 16  1  0
  5  4  1  0
  6  5  1  0
  7  6  1  0
  8  7  2  0
  9  8  1  0
  9 10  1  0
  9 15  2  0
 10 11  2  0
 11 12  1  0
 13 14  1  0
 16 17  3  0
M  END
$$$$
