
     RDKit          3D

 17 19  0  0  0  0  0  0  0  0999 V2000
  -11.7484   11.2379  -28.6459 C   0  0  0  0  0  0  0  0  0  0  0  0
  -11.1148   10.4888  -30.6101 C   0  0  0  0  0  0  0  0  0  0  0  0
  -12.8091   10.6296  -24.3761 C   0  0  0  0  0  0  0  0  0  0  0  0
  -13.4128   10.8443  -21.9323 N   0  0  0  0  0  0  0  0  0  0  0  0
  -13.5383   10.3195  -23.2439 C   0  0  0  0  0  0  0  0  0  0  0  0
  -14.4229    9.3735  -23.6800 N   0  0  0  0  0  0  0  0  0  0  0  0
  -14.2430    9.1327  -24.9676 N   0  0  0  0  0  0  0  0  0  0  0  0
  -13.2441    9.8899  -25.4618 C   0  0  0  0  0  0  0  0  0  0  0  0
  -12.7033    9.9639  -26.8164 C   0  0  0  0  0  0  0  0  0  0  0  0
  -12.6056    8.8338  -27.5986 C   0  0  0  0  0  0  0  0  0  0  0  0
  -12.0901    8.8779  -28.8901 C   0  0  0  0  0  0  0  0  0  0  0  0
  -11.6616   10.0748  -29.4160 C   0  0  0  0  0  0  0  0  0  0  0  0
  -11.2654   12.2721  -29.3848 N   0  0  0  0  0  0  0  0  0  0  0  0
  -10.8771   11.8279  -30.5818 C   0  0  0  0  0  0  0  0  0  0  0  0
  -12.2665   11.1497  -27.3688 C   0  0  0  0  0  0  0  0  0  0  0  0
  -11.7318   11.6084  -24.4163 C   0  0  0  0  0  0  0  0  0  0  0  0
  -10.9069   12.3622  -24.4453 N   0  0  0  0  0  0  0  0  0  0  0  0
  1 12  2  0
  1 13  1  0
 15  1  1  0
 12  2  1  0
  2 14  2  0
  3  5  2  0
  8  3  1  0
  3 16  1  0
  5  4  1  0
  6  5  1  0
  7  6  1  0
  8  7  2  0
  9  8  1  0
  9 10  1  0
  9 15  2  0
 10 11  2  0
 11 12  1  0
 13 14  1  0
 16 17  3  0
M  END
$$$$
