
     RDKit          3D

 17 19  0  0  0  0  0  0  0  0999 V2000
  -11.9199   10.2280  -28.2386 C   0  0  0  0  0  0  0  0  0  0  0  0
  -12.2400    9.5605  -30.3056 C   0  0  0  0  0  0  0  0  0  0  0  0
  -12.6536   10.3147  -23.9090 C   0  0  0  0  0  0  0  0  0  0  0  0
  -12.7113   10.7462  -21.4204 N   0  0  0  0  0  0  0  0  0  0  0  0
  -12.9649   10.0004  -22.5998 C   0  0  0  0  0  0  0  0  0  0  0  0
  -13.5816    8.7848  -22.6986 N   0  0  0  0  0  0  0  0  0  0  0  0
  -13.6381    8.3977  -23.9615 N   0  0  0  0  0  0  0  0  0  0  0  0
  -13.0720    9.3151  -24.7698 C   0  0  0  0  0  0  0  0  0  0  0  0
  -12.9110    9.3165  -26.2214 C   0  0  0  0  0  0  0  0  0  0  0  0
  -13.5829    8.4044  -27.0056 C   0  0  0  0  0  0  0  0  0  0  0  0
  -13.4428    8.3829  -28.3896 C   0  0  0  0  0  0  0  0  0  0  0  0
  -12.6145    9.2906  -29.0083 C   0  0  0  0  0  0  0  0  0  0  0  0
  -11.1790   10.9995  -29.0779 N   0  0  0  0  0  0  0  0  0  0  0  0
  -11.3660   10.6024  -30.3381 C   0  0  0  0  0  0  0  0  0  0  0  0
  -12.0877   10.2145  -26.8679 C   0  0  0  0  0  0  0  0  0  0  0  0
  -11.9800   11.5378  -24.3220 C   0  0  0  0  0  0  0  0  0  0  0  0
  -11.4638   12.4783  -24.6356 N   0  0  0  0  0  0  0  0  0  0  0  0
  1 12  2  0
  1 13  1  0
 15  1  1  0
 12  2  1  0
  2 14  2  0
  3  5  2  0
  8  3  1  0
  3 16  1  0
  5  4  1  0
  6  5  1  0
  7  6  1  0
  8  7  2  0
  9  8  1  0
  9 10  1  0
  9 15  2  0
 10 11  2  0
 11 12  1  0
 13 14  1  0
 16 17  3  0
M  END
$$$$
