
     RDKit          3D

 17 19  0  0  0  0  0  0  0  0999 V2000
  -23.3496   19.4815  -11.1541 C   0  0  0  0  0  0  0  0  0  0  0  0
  -25.2742   20.4899  -11.4698 C   0  0  0  0  0  0  0  0  0  0  0  0
  -19.8289   17.3312  -13.0058 C   0  0  0  0  0  0  0  0  0  0  0  0
  -17.7191   16.0223  -13.4726 N   0  0  0  0  0  0  0  0  0  0  0  0
  -18.5212   17.1911  -13.4300 C   0  0  0  0  0  0  0  0  0  0  0  0
  -18.1669   18.4570  -13.8040 N   0  0  0  0  0  0  0  0  0  0  0  0
  -19.1761   19.2913  -13.6211 N   0  0  0  0  0  0  0  0  0  0  0  0
  -20.2479   18.6451  -13.1220 C   0  0  0  0  0  0  0  0  0  0  0  0
  -21.5712   19.1529  -12.7701 C   0  0  0  0  0  0  0  0  0  0  0  0
  -22.3437   19.8113  -13.7019 C   0  0  0  0  0  0  0  0  0  0  0  0
  -23.6053   20.3079  -13.3898 C   0  0  0  0  0  0  0  0  0  0  0  0
  -24.1105   20.1454  -12.1205 C   0  0  0  0  0  0  0  0  0  0  0  0
  -24.0641   19.4544   -9.9976 N   0  0  0  0  0  0  0  0  0  0  0  0
  -25.2369   20.0650  -10.1781 C   0  0  0  0  0  0  0  0  0  0  0  0
  -22.1023   19.0043  -11.5060 C   0  0  0  0  0  0  0  0  0  0  0  0
  -20.6525   16.2380  -12.5089 C   0  0  0  0  0  0  0  0  0  0  0  0
  -21.2819   15.3976  -12.1255 N   0  0  0  0  0  0  0  0  0  0  0  0
  1 12  2  0
  1 13  1  0
 15  1  1  0
 12  2  1  0
  2 14  2  0
  3  5  2  0
  8  3  1  0
  3 16  1  0
  5  4  1  0
  6  5  1  0
  7  6  1  0
  8  7  2  0
  9  8  1  0
  9 10  1  0
  9 15  2  0
 10 11  2  0
 11 12  1  0
 13 14  1  0
 16 17  3  0
M  END
$$$$
