
     RDKit          3D

 17 19  0  0  0  0  0  0  0  0999 V2000
  -11.9547   10.5360  -27.8785 C   0  0  0  0  0  0  0  0  0  0  0  0
  -13.0537   10.3720  -29.7721 C   0  0  0  0  0  0  0  0  0  0  0  0
  -13.2553   10.1040  -23.2434 C   0  0  0  0  0  0  0  0  0  0  0  0
  -13.2349    9.9471  -20.7221 N   0  0  0  0  0  0  0  0  0  0  0  0
  -12.8876   10.5125  -21.9755 C   0  0  0  0  0  0  0  0  0  0  0  0
  -12.1013   11.6063  -22.2052 N   0  0  0  0  0  0  0  0  0  0  0  0
  -12.0023   11.8387  -23.5030 N   0  0  0  0  0  0  0  0  0  0  0  0
  -12.7046   10.9301  -24.2076 C   0  0  0  0  0  0  0  0  0  0  0  0
  -12.8793   10.7914  -25.6509 C   0  0  0  0  0  0  0  0  0  0  0  0
  -14.1388   10.7701  -26.2092 C   0  0  0  0  0  0  0  0  0  0  0  0
  -14.3312   10.6347  -27.5805 C   0  0  0  0  0  0  0  0  0  0  0  0
  -13.2447   10.5177  -28.4163 C   0  0  0  0  0  0  0  0  0  0  0  0
  -11.0678   10.4047  -28.9007 N   0  0  0  0  0  0  0  0  0  0  0  0
  -11.7253   10.3042  -30.0576 C   0  0  0  0  0  0  0  0  0  0  0  0
  -11.8085   10.6723  -26.5120 C   0  0  0  0  0  0  0  0  0  0  0  0
  -14.1044    8.9543  -23.5218 C   0  0  0  0  0  0  0  0  0  0  0  0
  -14.7532    8.0697  -23.7366 N   0  0  0  0  0  0  0  0  0  0  0  0
  1 12  2  0
  1 13  1  0
 15  1  1  0
 12  2  1  0
  2 14  2  0
  3  5  2  0
  8  3  1  0
  3 16  1  0
  5  4  1  0
  6  5  1  0
  7  6  1  0
  8  7  2  0
  9  8  1  0
  9 10  1  0
  9 15  2  0
 10 11  2  0
 11 12  1  0
 13 14  1  0
 16 17  3  0
M  END
$$$$
