
     RDKit          3D

 17 19  0  0  0  0  0  0  0  0999 V2000
  -22.7193   20.8396  -11.1817 C   0  0  0  0  0  0  0  0  0  0  0  0
  -24.9030   20.7942  -10.9591 C   0  0  0  0  0  0  0  0  0  0  0  0
  -19.5832   17.5475  -12.9797 C   0  0  0  0  0  0  0  0  0  0  0  0
  -17.4844   16.3404  -13.7010 N   0  0  0  0  0  0  0  0  0  0  0  0
  -18.2943   17.4823  -13.4737 C   0  0  0  0  0  0  0  0  0  0  0  0
  -17.9681   18.7907  -13.6957 N   0  0  0  0  0  0  0  0  0  0  0  0
  -18.9757   19.5798  -13.3638 N   0  0  0  0  0  0  0  0  0  0  0  0
  -20.0187   18.8592  -12.9073 C   0  0  0  0  0  0  0  0  0  0  0  0
  -21.3297   19.2983  -12.4369 C   0  0  0  0  0  0  0  0  0  0  0  0
  -22.4710   18.6117  -12.7899 C   0  0  0  0  0  0  0  0  0  0  0  0
  -23.7313   19.0126  -12.3582 C   0  0  0  0  0  0  0  0  0  0  0  0
  -23.8594   20.1230  -11.5560 C   0  0  0  0  0  0  0  0  0  0  0  0
  -23.1111   21.8802  -10.3992 N   0  0  0  0  0  0  0  0  0  0  0  0
  -24.4378   21.8624  -10.2569 C   0  0  0  0  0  0  0  0  0  0  0  0
  -21.4875   20.4073  -11.6323 C   0  0  0  0  0  0  0  0  0  0  0  0
  -20.3744   16.3877  -12.5938 C   0  0  0  0  0  0  0  0  0  0  0  0
  -20.9805   15.4954  -12.3005 N   0  0  0  0  0  0  0  0  0  0  0  0
  1 12  2  0
  1 13  1  0
 15  1  1  0
 12  2  1  0
  2 14  2  0
  3  5  2  0
  8  3  1  0
  3 16  1  0
  5  4  1  0
  6  5  1  0
  7  6  1  0
  8  7  2  0
  9  8  1  0
  9 10  1  0
  9 15  2  0
 10 11  2  0
 11 12  1  0
 13 14  1  0
 16 17  3  0
M  END
$$$$
