
     RDKit          3D

 17 19  0  0  0  0  0  0  0  0999 V2000
  -22.7847   19.4665  -12.9756 C   0  0  0  0  0  0  0  0  0  0  0  0
  -24.6732   19.6915  -11.8785 C   0  0  0  0  0  0  0  0  0  0  0  0
  -18.6666   17.8742  -13.4259 C   0  0  0  0  0  0  0  0  0  0  0  0
  -16.3077   17.2996  -14.1244 N   0  0  0  0  0  0  0  0  0  0  0  0
  -17.6181   17.0070  -13.6675 C   0  0  0  0  0  0  0  0  0  0  0  0
  -18.1385   15.7804  -13.3639 N   0  0  0  0  0  0  0  0  0  0  0  0
  -19.3957   15.8971  -12.9717 N   0  0  0  0  0  0  0  0  0  0  0  0
  -19.7855   17.1867  -12.9892 C   0  0  0  0  0  0  0  0  0  0  0  0
  -21.0706   17.7845  -12.6368 C   0  0  0  0  0  0  0  0  0  0  0  0
  -21.8410   17.2533  -11.6256 C   0  0  0  0  0  0  0  0  0  0  0  0
  -23.0703   17.8020  -11.2743 C   0  0  0  0  0  0  0  0  0  0  0  0
  -23.5444   18.9057  -11.9450 C   0  0  0  0  0  0  0  0  0  0  0  0
  -23.4661   20.5335  -13.4716 N   0  0  0  0  0  0  0  0  0  0  0  0
  -24.6166   20.6799  -12.8115 C   0  0  0  0  0  0  0  0  0  0  0  0
  -21.5701   18.8905  -13.2921 C   0  0  0  0  0  0  0  0  0  0  0  0
  -18.5960   19.3177  -13.6035 C   0  0  0  0  0  0  0  0  0  0  0  0
  -18.5449   20.4257  -13.7422 N   0  0  0  0  0  0  0  0  0  0  0  0
  1 12  2  0
  1 13  1  0
 15  1  1  0
 12  2  1  0
  2 14  2  0
  3  5  2  0
  8  3  1  0
  3 16  1  0
  5  4  1  0
  6  5  1  0
  7  6  1  0
  8  7  2  0
  9  8  1  0
  9 10  1  0
  9 15  2  0
 10 11  2  0
 11 12  1  0
 13 14  1  0
 16 17  3  0
M  END
$$$$
