
     RDKit          3D

 17 19  0  0  0  0  0  0  0  0999 V2000
  -23.4240   19.8053  -11.7962 C   0  0  0  0  0  0  0  0  0  0  0  0
  -24.5784   21.2036  -10.5584 C   0  0  0  0  0  0  0  0  0  0  0  0
  -19.5970   17.8059  -12.8869 C   0  0  0  0  0  0  0  0  0  0  0  0
  -17.7599   16.3568  -13.8395 N   0  0  0  0  0  0  0  0  0  0  0  0
  -18.3732   17.5869  -13.4902 C   0  0  0  0  0  0  0  0  0  0  0  0
  -17.8760   18.8463  -13.6758 N   0  0  0  0  0  0  0  0  0  0  0  0
  -18.7282   19.7499  -13.2227 N   0  0  0  0  0  0  0  0  0  0  0  0
  -19.8279   19.1596  -12.7152 C   0  0  0  0  0  0  0  0  0  0  0  0
  -21.0204   19.7525  -12.1155 C   0  0  0  0  0  0  0  0  0  0  0  0
  -20.9196   20.8369  -11.2715 C   0  0  0  0  0  0  0  0  0  0  0  0
  -22.0401   21.4164  -10.6847 C   0  0  0  0  0  0  0  0  0  0  0  0
  -23.2907   20.9050  -10.9439 C   0  0  0  0  0  0  0  0  0  0  0  0
  -24.7451   19.4967  -11.8860 N   0  0  0  0  0  0  0  0  0  0  0  0
  -25.4570   20.3411  -11.1369 C   0  0  0  0  0  0  0  0  0  0  0  0
  -22.2859   19.2605  -12.3576 C   0  0  0  0  0  0  0  0  0  0  0  0
  -20.5185   16.7499  -12.4918 C   0  0  0  0  0  0  0  0  0  0  0  0
  -21.2237   15.9367  -12.1902 N   0  0  0  0  0  0  0  0  0  0  0  0
  1 12  2  0
  1 13  1  0
 15  1  1  0
 12  2  1  0
  2 14  2  0
  3  5  2  0
  8  3  1  0
  3 16  1  0
  5  4  1  0
  6  5  1  0
  7  6  1  0
  8  7  2  0
  9  8  1  0
  9 10  1  0
  9 15  2  0
 10 11  2  0
 11 12  1  0
 13 14  1  0
 16 17  3  0
M  END
$$$$
