
     RDKit          3D

 17 19  0  0  0  0  0  0  0  0999 V2000
  -22.7835   14.9399  -13.3162 C   0  0  0  0  0  0  0  0  0  0  0  0
  -24.9061   15.3004  -13.7459 C   0  0  0  0  0  0  0  0  0  0  0  0
  -19.0167   18.0958  -13.0547 C   0  0  0  0  0  0  0  0  0  0  0  0
  -16.7253   19.1094  -12.7307 N   0  0  0  0  0  0  0  0  0  0  0  0
  -17.6363   18.0566  -13.0010 C   0  0  0  0  0  0  0  0  0  0  0  0
  -17.3407   16.7507  -13.2750 N   0  0  0  0  0  0  0  0  0  0  0  0
  -18.4495   16.0595  -13.4768 N   0  0  0  0  0  0  0  0  0  0  0  0
  -19.5351   16.8477  -13.3526 C   0  0  0  0  0  0  0  0  0  0  0  0
  -20.9527   16.5218  -13.4836 C   0  0  0  0  0  0  0  0  0  0  0  0
  -21.8594   17.4742  -13.8949 C   0  0  0  0  0  0  0  0  0  0  0  0
  -23.2151   17.1893  -14.0232 C   0  0  0  0  0  0  0  0  0  0  0  0
  -23.6799   15.9268  -13.7357 C   0  0  0  0  0  0  0  0  0  0  0  0
  -23.4849   13.7957  -13.0979 N   0  0  0  0  0  0  0  0  0  0  0  0
  -24.7775   14.0034  -13.3563 C   0  0  0  0  0  0  0  0  0  0  0  0
  -21.4461   15.2650  -13.2021 C   0  0  0  0  0  0  0  0  0  0  0  0
  -19.8138   19.2921  -12.8226 C   0  0  0  0  0  0  0  0  0  0  0  0
  -20.4228   20.2125  -12.6458 N   0  0  0  0  0  0  0  0  0  0  0  0
  1 12  2  0
  1 13  1  0
 15  1  1  0
 12  2  1  0
  2 14  2  0
  3  5  2  0
  8  3  1  0
  3 16  1  0
  5  4  1  0
  6  5  1  0
  7  6  1  0
  8  7  2  0
  9  8  1  0
  9 10  1  0
  9 15  2  0
 10 11  2  0
 11 12  1  0
 13 14  1  0
 16 17  3  0
M  END
$$$$
