
     RDKit          3D

 17 19  0  0  0  0  0  0  0  0999 V2000
  -22.8851   19.7267  -11.1659 C   0  0  0  0  0  0  0  0  0  0  0  0
  -24.9174   20.4646  -11.6624 C   0  0  0  0  0  0  0  0  0  0  0  0
  -19.1058   18.2619  -13.8005 C   0  0  0  0  0  0  0  0  0  0  0  0
  -16.8728   17.3502  -14.4256 N   0  0  0  0  0  0  0  0  0  0  0  0
  -18.0583   17.3867  -13.6328 C   0  0  0  0  0  0  0  0  0  0  0  0
  -18.3376   16.5716  -12.5975 N   0  0  0  0  0  0  0  0  0  0  0  0
  -19.5201   16.9218  -12.1299 N   0  0  0  0  0  0  0  0  0  0  0  0
  -20.0331   17.9518  -12.8315 C   0  0  0  0  0  0  0  0  0  0  0  0
  -21.3334   18.5996  -12.5879 C   0  0  0  0  0  0  0  0  0  0  0  0
  -22.2729   18.6901  -13.6182 C   0  0  0  0  0  0  0  0  0  0  0  0
  -23.4945   19.2893  -13.4193 C   0  0  0  0  0  0  0  0  0  0  0  0
  -23.8244   19.8193  -12.1893 C   0  0  0  0  0  0  0  0  0  0  0  0
  -23.4475   20.3129  -10.0826 N   0  0  0  0  0  0  0  0  0  0  0  0
  -24.6636   20.7655  -10.3443 C   0  0  0  0  0  0  0  0  0  0  0  0
  -21.6684   19.1284  -11.3686 C   0  0  0  0  0  0  0  0  0  0  0  0
  -19.2595   19.3101  -14.7727 C   0  0  0  0  0  0  0  0  0  0  0  0
  -19.3656   20.1621  -15.5492 N   0  0  0  0  0  0  0  0  0  0  0  0
  1 12  2  0
  1 13  1  0
 15  1  1  0
 12  2  1  0
  2 14  2  0
  3  5  2  0
  8  3  1  0
  3 16  1  0
  5  4  1  0
  6  5  1  0
  7  6  1  0
  8  7  2  0
  9  8  1  0
  9 10  1  0
  9 15  2  0
 10 11  2  0
 11 12  1  0
 13 14  1  0
 16 17  3  0
M  END
$$$$
