
     RDKit          3D

 17 19  0  0  0  0  0  0  0  0999 V2000
  -12.1545    9.5919  -26.5209 C   0  0  0  0  0  0  0  0  0  0  0  0
  -13.0714   11.5717  -26.9219 C   0  0  0  0  0  0  0  0  0  0  0  0
  -10.0431    5.9149  -28.0933 C   0  0  0  0  0  0  0  0  0  0  0  0
   -8.9728    3.7030  -28.5063 N   0  0  0  0  0  0  0  0  0  0  0  0
  -10.0562    4.6284  -28.5794 C   0  0  0  0  0  0  0  0  0  0  0  0
  -11.2596    4.3883  -29.1347 N   0  0  0  0  0  0  0  0  0  0  0  0
  -11.9789    5.4859  -29.0026 N   0  0  0  0  0  0  0  0  0  0  0  0
  -11.2803    6.4504  -28.3717 C   0  0  0  0  0  0  0  0  0  0  0  0
  -11.7690    7.8034  -28.0548 C   0  0  0  0  0  0  0  0  0  0  0  0
  -12.3327    8.5956  -29.0584 C   0  0  0  0  0  0  0  0  0  0  0  0
  -12.7970    9.8621  -28.7914 C   0  0  0  0  0  0  0  0  0  0  0  0
  -12.7169   10.3849  -27.5174 C   0  0  0  0  0  0  0  0  0  0  0  0
  -12.1951   10.3273  -25.3847 N   0  0  0  0  0  0  0  0  0  0  0  0
  -12.7376   11.5174  -25.5885 C   0  0  0  0  0  0  0  0  0  0  0  0
  -11.6929    8.3297  -26.7916 C   0  0  0  0  0  0  0  0  0  0  0  0
   -8.9822    6.6151  -27.4211 C   0  0  0  0  0  0  0  0  0  0  0  0
   -8.1329    7.1692  -26.8627 N   0  0  0  0  0  0  0  0  0  0  0  0
  1 12  2  0
  1 13  1  0
 15  1  1  0
 12  2  1  0
  2 14  2  0
  3  5  2  0
  8  3  1  0
  3 16  1  0
  5  4  1  0
  6  5  1  0
  7  6  1  0
  8  7  2  0
  9  8  1  0
  9 10  1  0
  9 15  2  0
 10 11  2  0
 11 12  1  0
 13 14  1  0
 16 17  3  0
M  END
$$$$
