
     RDKit          3D

 17 19  0  0  0  0  0  0  0  0999 V2000
  -22.8496   21.4345  -11.4484 C   0  0  0  0  0  0  0  0  0  0  0  0
  -25.0084   21.4138  -10.9380 C   0  0  0  0  0  0  0  0  0  0  0  0
  -19.8895   17.7446  -12.8793 C   0  0  0  0  0  0  0  0  0  0  0  0
  -17.8269   16.5449  -13.5968 N   0  0  0  0  0  0  0  0  0  0  0  0
  -18.5404   17.6934  -13.1417 C   0  0  0  0  0  0  0  0  0  0  0  0
  -18.0063   18.9057  -12.8978 N   0  0  0  0  0  0  0  0  0  0  0  0
  -18.9856   19.6925  -12.4958 N   0  0  0  0  0  0  0  0  0  0  0  0
  -20.1589   19.0301  -12.4671 C   0  0  0  0  0  0  0  0  0  0  0  0
  -21.4597   19.5951  -12.0687 C   0  0  0  0  0  0  0  0  0  0  0  0
  -22.5725   18.7606  -11.9354 C   0  0  0  0  0  0  0  0  0  0  0  0
  -23.7988   19.2605  -11.5649 C   0  0  0  0  0  0  0  0  0  0  0  0
  -23.9612   20.6072  -11.3142 C   0  0  0  0  0  0  0  0  0  0  0  0
  -23.2719   22.6861  -11.1508 N   0  0  0  0  0  0  0  0  0  0  0  0
  -24.5586   22.7102  -10.8409 C   0  0  0  0  0  0  0  0  0  0  0  0
  -21.6289   20.9319  -11.8180 C   0  0  0  0  0  0  0  0  0  0  0  0
  -20.8715   16.7005  -12.9935 C   0  0  0  0  0  0  0  0  0  0  0  0
  -21.6756   15.8735  -13.0918 N   0  0  0  0  0  0  0  0  0  0  0  0
  1 12  2  0
  1 13  1  0
 15  1  1  0
 12  2  1  0
  2 14  2  0
  3  5  2  0
  8  3  1  0
  3 16  1  0
  5  4  1  0
  6  5  1  0
  7  6  1  0
  8  7  2  0
  9  8  1  0
  9 10  1  0
  9 15  2  0
 10 11  2  0
 11 12  1  0
 13 14  1  0
 16 17  3  0
M  END
$$$$
