
     RDKit          3D

 17 19  0  0  0  0  0  0  0  0999 V2000
  -22.9031   20.0954  -11.5990 C   0  0  0  0  0  0  0  0  0  0  0  0
  -25.1135   20.2793  -11.6374 C   0  0  0  0  0  0  0  0  0  0  0  0
  -19.2822   17.6064  -12.8598 C   0  0  0  0  0  0  0  0  0  0  0  0
  -17.0190   16.6981  -13.3709 N   0  0  0  0  0  0  0  0  0  0  0  0
  -18.1858   17.4598  -13.6771 C   0  0  0  0  0  0  0  0  0  0  0  0
  -18.3969   18.1536  -14.8121 N   0  0  0  0  0  0  0  0  0  0  0  0
  -19.5851   18.7173  -14.7125 N   0  0  0  0  0  0  0  0  0  0  0  0
  -20.1686   18.4137  -13.5363 C   0  0  0  0  0  0  0  0  0  0  0  0
  -21.4956   18.8696  -13.0878 C   0  0  0  0  0  0  0  0  0  0  0  0
  -22.6421   18.4720  -13.7806 C   0  0  0  0  0  0  0  0  0  0  0  0
  -23.8934   18.8822  -13.3845 C   0  0  0  0  0  0  0  0  0  0  0  0
  -24.0482   19.7020  -12.2860 C   0  0  0  0  0  0  0  0  0  0  0  0
  -23.3248   20.8820  -10.5807 N   0  0  0  0  0  0  0  0  0  0  0  0
  -24.6420   21.0133  -10.5739 C   0  0  0  0  0  0  0  0  0  0  0  0
  -21.6575   19.6841  -11.9974 C   0  0  0  0  0  0  0  0  0  0  0  0
  -19.5143   17.0535  -11.5529 C   0  0  0  0  0  0  0  0  0  0  0  0
  -19.6988   16.6267  -10.4927 N   0  0  0  0  0  0  0  0  0  0  0  0
  1 12  2  0
  1 13  1  0
 15  1  1  0
 12  2  1  0
  2 14  2  0
  3  5  2  0
  8  3  1  0
  3 16  1  0
  5  4  1  0
  6  5  1  0
  7  6  1  0
  8  7  2  0
  9  8  1  0
  9 10  1  0
  9 15  2  0
 10 11  2  0
 11 12  1  0
 13 14  1  0
 16 17  3  0
M  END
$$$$
