
     RDKit          3D

 17 19  0  0  0  0  0  0  0  0999 V2000
  -23.0726   19.6440  -10.9036 C   0  0  0  0  0  0  0  0  0  0  0  0
  -25.0126   20.6526  -11.1028 C   0  0  0  0  0  0  0  0  0  0  0  0
  -19.7052   17.3906  -12.8743 C   0  0  0  0  0  0  0  0  0  0  0  0
  -17.6369   16.0489  -13.4258 N   0  0  0  0  0  0  0  0  0  0  0  0
  -18.4497   17.2111  -13.4230 C   0  0  0  0  0  0  0  0  0  0  0  0
  -18.1606   18.4295  -13.9706 N   0  0  0  0  0  0  0  0  0  0  0  0
  -19.1580   19.2737  -13.7695 N   0  0  0  0  0  0  0  0  0  0  0  0
  -20.1572   18.6813  -13.0868 C   0  0  0  0  0  0  0  0  0  0  0  0
  -21.4427   19.2182  -12.6483 C   0  0  0  0  0  0  0  0  0  0  0  0
  -22.2900   19.8358  -13.5422 C   0  0  0  0  0  0  0  0  0  0  0  0
  -23.5174   20.3589  -13.1480 C   0  0  0  0  0  0  0  0  0  0  0  0
  -23.9114   20.2652  -11.8331 C   0  0  0  0  0  0  0  0  0  0  0  0
  -23.6841   19.6817   -9.6898 N   0  0  0  0  0  0  0  0  0  0  0  0
  -24.8653   20.2931   -9.7991 C   0  0  0  0  0  0  0  0  0  0  0  0
  -21.8628   19.1384  -11.3371 C   0  0  0  0  0  0  0  0  0  0  0  0
  -20.4503   16.3551  -12.1724 C   0  0  0  0  0  0  0  0  0  0  0  0
  -21.0249   15.5627  -11.6326 N   0  0  0  0  0  0  0  0  0  0  0  0
  1 12  2  0
  1 13  1  0
 15  1  1  0
 12  2  1  0
  2 14  2  0
  3  5  2  0
  8  3  1  0
  3 16  1  0
  5  4  1  0
  6  5  1  0
  7  6  1  0
  8  7  2  0
  9  8  1  0
  9 10  1  0
  9 15  2  0
 10 11  2  0
 11 12  1  0
 13 14  1  0
 16 17  3  0
M  END
$$$$
