
     RDKit          3D

 17 19  0  0  0  0  0  0  0  0999 V2000
  -11.7982   10.0729  -28.2182 C   0  0  0  0  0  0  0  0  0  0  0  0
  -12.3587    9.5426  -30.2737 C   0  0  0  0  0  0  0  0  0  0  0  0
  -12.7331   10.6829  -23.9227 C   0  0  0  0  0  0  0  0  0  0  0  0
  -12.7500   11.2304  -21.4564 N   0  0  0  0  0  0  0  0  0  0  0  0
  -13.0074   10.4228  -22.5935 C   0  0  0  0  0  0  0  0  0  0  0  0
  -13.5914    9.1875  -22.6212 N   0  0  0  0  0  0  0  0  0  0  0  0
  -13.6637    8.7395  -23.8630 N   0  0  0  0  0  0  0  0  0  0  0  0
  -13.1412    9.6325  -24.7261 C   0  0  0  0  0  0  0  0  0  0  0  0
  -13.0113    9.5695  -26.1794 C   0  0  0  0  0  0  0  0  0  0  0  0
  -13.9669    8.9382  -26.9453 C   0  0  0  0  0  0  0  0  0  0  0  0
  -13.8634    8.8611  -28.3306 C   0  0  0  0  0  0  0  0  0  0  0  0
  -12.7836    9.4258  -28.9691 C   0  0  0  0  0  0  0  0  0  0  0  0
  -10.8503   10.5382  -29.0748 N   0  0  0  0  0  0  0  0  0  0  0  0
  -11.1811   10.2213  -30.3282 C   0  0  0  0  0  0  0  0  0  0  0  0
  -11.9398   10.1265  -26.8455 C   0  0  0  0  0  0  0  0  0  0  0  0
  -12.1035   11.9031  -24.4076 C   0  0  0  0  0  0  0  0  0  0  0  0
  -11.6212   12.8415  -24.7768 N   0  0  0  0  0  0  0  0  0  0  0  0
  1 12  2  0
  1 13  1  0
 15  1  1  0
 12  2  1  0
  2 14  2  0
  3  5  2  0
  8  3  1  0
  3 16  1  0
  5  4  1  0
  6  5  1  0
  7  6  1  0
  8  7  2  0
  9  8  1  0
  9 10  1  0
  9 15  2  0
 10 11  2  0
 11 12  1  0
 13 14  1  0
 16 17  3  0
M  END
$$$$
