
     RDKit          3D

 17 19  0  0  0  0  0  0  0  0999 V2000
  -12.6196    8.2082  -28.2649 C   0  0  0  0  0  0  0  0  0  0  0  0
  -12.1695    8.9924  -30.2906 C   0  0  0  0  0  0  0  0  0  0  0  0
  -12.4126   10.4291  -23.8647 C   0  0  0  0  0  0  0  0  0  0  0  0
  -12.5925   10.7674  -21.4027 N   0  0  0  0  0  0  0  0  0  0  0  0
  -12.8208   10.0420  -22.6097 C   0  0  0  0  0  0  0  0  0  0  0  0
  -13.4705    8.8664  -22.7100 N   0  0  0  0  0  0  0  0  0  0  0  0
  -13.4712    8.5256  -23.9841 N   0  0  0  0  0  0  0  0  0  0  0  0
  -12.8362    9.4486  -24.7332 C   0  0  0  0  0  0  0  0  0  0  0  0
  -12.6468    9.3942  -26.1930 C   0  0  0  0  0  0  0  0  0  0  0  0
  -12.2981   10.5504  -26.8959 C   0  0  0  0  0  0  0  0  0  0  0  0
  -12.1149   10.5290  -28.2586 C   0  0  0  0  0  0  0  0  0  0  0  0
  -12.2721    9.3574  -28.9696 C   0  0  0  0  0  0  0  0  0  0  0  0
  -12.7095    7.2155  -29.1814 N   0  0  0  0  0  0  0  0  0  0  0  0
  -12.4464    7.6498  -30.4039 C   0  0  0  0  0  0  0  0  0  0  0  0
  -12.8012    8.2341  -26.9063 C   0  0  0  0  0  0  0  0  0  0  0  0
  -11.6871   11.6079  -24.2544 C   0  0  0  0  0  0  0  0  0  0  0  0
  -11.1060   12.5520  -24.5875 N   0  0  0  0  0  0  0  0  0  0  0  0
  1 12  2  0
  1 13  1  0
 15  1  1  0
 12  2  1  0
  2 14  2  0
  3  5  2  0
  8  3  1  0
  3 16  1  0
  5  4  1  0
  6  5  1  0
  7  6  1  0
  8  7  2  0
  9  8  1  0
  9 10  1  0
  9 15  2  0
 10 11  2  0
 11 12  1  0
 13 14  1  0
 16 17  3  0
M  END
$$$$
