
     RDKit          3D

 17 19  0  0  0  0  0  0  0  0999 V2000
  -23.5359   19.4215  -11.8473 C   0  0  0  0  0  0  0  0  0  0  0  0
  -24.8105   20.7893  -10.6963 C   0  0  0  0  0  0  0  0  0  0  0  0
  -19.5538   17.6730  -12.8021 C   0  0  0  0  0  0  0  0  0  0  0  0
  -17.5989   16.3235  -13.6620 N   0  0  0  0  0  0  0  0  0  0  0  0
  -18.3090   17.5188  -13.3820 C   0  0  0  0  0  0  0  0  0  0  0  0
  -17.9070   18.8018  -13.6272 N   0  0  0  0  0  0  0  0  0  0  0  0
  -18.8317   19.6587  -13.2289 N   0  0  0  0  0  0  0  0  0  0  0  0
  -19.8897   19.0118  -12.7021 C   0  0  0  0  0  0  0  0  0  0  0  0
  -21.1318   19.5405  -12.1447 C   0  0  0  0  0  0  0  0  0  0  0  0
  -21.1260   20.6732  -11.3602 C   0  0  0  0  0  0  0  0  0  0  0  0
  -22.2952   21.1936  -10.8145 C   0  0  0  0  0  0  0  0  0  0  0  0
  -23.4990   20.5724  -11.0551 C   0  0  0  0  0  0  0  0  0  0  0  0
  -24.8278   19.0058  -11.9304 N   0  0  0  0  0  0  0  0  0  0  0  0
  -25.6122   19.8307  -11.2338 C   0  0  0  0  0  0  0  0  0  0  0  0
  -22.3522   18.9384  -12.3695 C   0  0  0  0  0  0  0  0  0  0  0  0
  -20.3970   16.5704  -12.3621 C   0  0  0  0  0  0  0  0  0  0  0  0
  -21.0413   15.7224  -12.0227 N   0  0  0  0  0  0  0  0  0  0  0  0
  1 12  2  0
  1 13  1  0
 15  1  1  0
 12  2  1  0
  2 14  2  0
  3  5  2  0
  8  3  1  0
  3 16  1  0
  5  4  1  0
  6  5  1  0
  7  6  1  0
  8  7  2  0
  9  8  1  0
  9 10  1  0
  9 15  2  0
 10 11  2  0
 11 12  1  0
 13 14  1  0
 16 17  3  0
M  END
$$$$
