
     RDKit          3D

 17 19  0  0  0  0  0  0  0  0999 V2000
  -23.3409   19.3958  -11.2029 C   0  0  0  0  0  0  0  0  0  0  0  0
  -25.2088   20.5673  -11.4475 C   0  0  0  0  0  0  0  0  0  0  0  0
  -19.6109   17.5683  -12.9145 C   0  0  0  0  0  0  0  0  0  0  0  0
  -17.4257   16.4876  -13.4293 N   0  0  0  0  0  0  0  0  0  0  0  0
  -18.3028   17.6089  -13.3372 C   0  0  0  0  0  0  0  0  0  0  0  0
  -17.9886   18.8811  -13.6489 N   0  0  0  0  0  0  0  0  0  0  0  0
  -19.0620   19.6156  -13.4299 N   0  0  0  0  0  0  0  0  0  0  0  0
  -20.0828   18.8599  -12.9795 C   0  0  0  0  0  0  0  0  0  0  0  0
  -21.4293   19.3462  -12.6323 C   0  0  0  0  0  0  0  0  0  0  0  0
  -22.0769   20.2634  -13.4641 C   0  0  0  0  0  0  0  0  0  0  0  0
  -23.3337   20.7343  -13.1648 C   0  0  0  0  0  0  0  0  0  0  0  0
  -23.9902   20.3096  -12.0284 C   0  0  0  0  0  0  0  0  0  0  0  0
  -24.1869   19.1474  -10.1752 N   0  0  0  0  0  0  0  0  0  0  0  0
  -25.3141   19.8318  -10.2899 C   0  0  0  0  0  0  0  0  0  0  0  0
  -22.0879   18.9289  -11.5050 C   0  0  0  0  0  0  0  0  0  0  0  0
  -20.3845   16.4367  -12.4801 C   0  0  0  0  0  0  0  0  0  0  0  0
  -20.9966   15.5139  -12.1429 N   0  0  0  0  0  0  0  0  0  0  0  0
  1 12  2  0
  1 13  1  0
 15  1  1  0
 12  2  1  0
  2 14  2  0
  3  5  2  0
  8  3  1  0
  3 16  1  0
  5  4  1  0
  6  5  1  0
  7  6  1  0
  8  7  2  0
  9  8  1  0
  9 10  1  0
  9 15  2  0
 10 11  2  0
 11 12  1  0
 13 14  1  0
 16 17  3  0
M  END
$$$$
