
     RDKit          3D

 17 19  0  0  0  0  0  0  0  0999 V2000
  -11.9884    9.8260  -27.5275 C   0  0  0  0  0  0  0  0  0  0  0  0
  -12.8757   10.2611  -29.5136 C   0  0  0  0  0  0  0  0  0  0  0  0
  -13.3563   10.1511  -22.9703 C   0  0  0  0  0  0  0  0  0  0  0  0
  -13.3527   10.1235  -20.4788 N   0  0  0  0  0  0  0  0  0  0  0  0
  -12.8227   10.4948  -21.7502 C   0  0  0  0  0  0  0  0  0  0  0  0
  -11.7188   11.2389  -21.9553 N   0  0  0  0  0  0  0  0  0  0  0  0
  -11.5632   11.3592  -23.2595 N   0  0  0  0  0  0  0  0  0  0  0  0
  -12.5392   10.7115  -23.9259 C   0  0  0  0  0  0  0  0  0  0  0  0
  -12.6802   10.6344  -25.3902 C   0  0  0  0  0  0  0  0  0  0  0  0
  -13.6992   11.3428  -26.0323 C   0  0  0  0  0  0  0  0  0  0  0  0
  -13.8545   11.2894  -27.3975 C   0  0  0  0  0  0  0  0  0  0  0  0
  -13.0021   10.5299  -28.1717 C   0  0  0  0  0  0  0  0  0  0  0  0
  -11.3059    9.1733  -28.4979 N   0  0  0  0  0  0  0  0  0  0  0  0
  -11.8099    9.4113  -29.6985 C   0  0  0  0  0  0  0  0  0  0  0  0
  -11.8372    9.8821  -26.1661 C   0  0  0  0  0  0  0  0  0  0  0  0
  -14.5279    9.3675  -23.2547 C   0  0  0  0  0  0  0  0  0  0  0  0
  -15.4818    8.7536  -23.4853 N   0  0  0  0  0  0  0  0  0  0  0  0
  1 12  2  0
  1 13  1  0
 15  1  1  0
 12  2  1  0
  2 14  2  0
  3  5  2  0
  8  3  1  0
  3 16  1  0
  5  4  1  0
  6  5  1  0
  7  6  1  0
  8  7  2  0
  9  8  1  0
  9 10  1  0
  9 15  2  0
 10 11  2  0
 11 12  1  0
 13 14  1  0
 16 17  3  0
M  END
$$$$
