
     RDKit          3D

 17 19  0  0  0  0  0  0  0  0999 V2000
  -22.7360   19.9824  -10.8410 C   0  0  0  0  0  0  0  0  0  0  0  0
  -24.4699   21.2867  -11.3032 C   0  0  0  0  0  0  0  0  0  0  0  0
  -19.0513   18.0993  -13.1728 C   0  0  0  0  0  0  0  0  0  0  0  0
  -17.0244   16.7698  -13.7493 N   0  0  0  0  0  0  0  0  0  0  0  0
  -18.3539   16.9167  -13.2534 C   0  0  0  0  0  0  0  0  0  0  0  0
  -19.1338   15.9224  -12.7870 N   0  0  0  0  0  0  0  0  0  0  0  0
  -20.2823   16.4610  -12.4255 N   0  0  0  0  0  0  0  0  0  0  0  0
  -20.2831   17.7912  -12.6412 C   0  0  0  0  0  0  0  0  0  0  0  0
  -21.3972   18.7115  -12.3551 C   0  0  0  0  0  0  0  0  0  0  0  0
  -22.1921   19.1921  -13.3989 C   0  0  0  0  0  0  0  0  0  0  0  0
  -23.2385   20.0521  -13.1612 C   0  0  0  0  0  0  0  0  0  0  0  0
  -23.5308   20.4640  -11.8776 C   0  0  0  0  0  0  0  0  0  0  0  0
  -23.2259   20.5298   -9.7035 N   0  0  0  0  0  0  0  0  0  0  0  0
  -24.2637   21.3156   -9.9435 C   0  0  0  0  0  0  0  0  0  0  0  0
  -21.6938   19.1252  -11.0825 C   0  0  0  0  0  0  0  0  0  0  0  0
  -18.6324   19.4218  -13.5513 C   0  0  0  0  0  0  0  0  0  0  0  0
  -18.2974   20.4814  -13.8755 N   0  0  0  0  0  0  0  0  0  0  0  0
  1 12  2  0
  1 13  1  0
 15  1  1  0
 12  2  1  0
  2 14  2  0
  3  5  2  0
  8  3  1  0
  3 16  1  0
  5  4  1  0
  6  5  1  0
  7  6  1  0
  8  7  2  0
  9  8  1  0
  9 10  1  0
  9 15  2  0
 10 11  2  0
 11 12  1  0
 13 14  1  0
 16 17  3  0
M  END
$$$$
