
     RDKit          3D

 17 19  0  0  0  0  0  0  0  0999 V2000
  -18.9187   18.0423  -13.3865 C   0  0  0  0  0  0  0  0  0  0  0  0
  -18.6506   16.8200  -15.2183 C   0  0  0  0  0  0  0  0  0  0  0  0
  -22.5946   19.9373  -10.9996 C   0  0  0  0  0  0  0  0  0  0  0  0
  -23.9462   21.2315   -9.3544 N   0  0  0  0  0  0  0  0  0  0  0  0
  -22.8920   21.0862  -10.3046 C   0  0  0  0  0  0  0  0  0  0  0  0
  -22.0240   22.0492  -10.6698 N   0  0  0  0  0  0  0  0  0  0  0  0
  -21.2086   21.5244  -11.5638 N   0  0  0  0  0  0  0  0  0  0  0  0
  -21.5153   20.2337  -11.8010 C   0  0  0  0  0  0  0  0  0  0  0  0
  -20.8162   19.3385  -12.7390 C   0  0  0  0  0  0  0  0  0  0  0  0
  -21.4450   18.9348  -13.9197 C   0  0  0  0  0  0  0  0  0  0  0  0
  -20.8164   18.0999  -14.8134 C   0  0  0  0  0  0  0  0  0  0  0  0
  -19.5410   17.6374  -14.5642 C   0  0  0  0  0  0  0  0  0  0  0  0
  -17.6971   17.4581  -13.3844 N   0  0  0  0  0  0  0  0  0  0  0  0
  -17.5035   16.7196  -14.4657 C   0  0  0  0  0  0  0  0  0  0  0  0
  -19.5490   18.8749  -12.4983 C   0  0  0  0  0  0  0  0  0  0  0  0
  -23.2430   18.6551  -10.9436 C   0  0  0  0  0  0  0  0  0  0  0  0
  -23.7490   17.6153  -10.8888 N   0  0  0  0  0  0  0  0  0  0  0  0
  1 12  2  0
  1 13  1  0
 15  1  1  0
 12  2  1  0
  2 14  2  0
  3  5  2  0
  8  3  1  0
  3 16  1  0
  5  4  1  0
  6  5  1  0
  7  6  1  0
  8  7  2  0
  9  8  1  0
  9 10  1  0
  9 15  2  0
 10 11  2  0
 11 12  1  0
 13 14  1  0
 16 17  3  0
M  END
$$$$
