
     RDKit          3D

 17 19  0  0  0  0  0  0  0  0999 V2000
  -23.4844   19.6710  -11.6895 C   0  0  0  0  0  0  0  0  0  0  0  0
  -24.6911   21.0777  -10.4704 C   0  0  0  0  0  0  0  0  0  0  0  0
  -19.5835   17.6569  -12.6360 C   0  0  0  0  0  0  0  0  0  0  0  0
  -17.6288   16.4023  -13.5380 N   0  0  0  0  0  0  0  0  0  0  0  0
  -18.3356   17.5977  -13.2111 C   0  0  0  0  0  0  0  0  0  0  0  0
  -17.8930   18.8536  -13.4137 N   0  0  0  0  0  0  0  0  0  0  0  0
  -18.8301   19.6747  -12.9810 N   0  0  0  0  0  0  0  0  0  0  0  0
  -19.8859   18.9924  -12.4952 C   0  0  0  0  0  0  0  0  0  0  0  0
  -21.1106   19.5847  -11.9302 C   0  0  0  0  0  0  0  0  0  0  0  0
  -21.0226   20.6742  -11.0597 C   0  0  0  0  0  0  0  0  0  0  0  0
  -22.1490   21.2470  -10.5175 C   0  0  0  0  0  0  0  0  0  0  0  0
  -23.4018   20.7566  -10.8218 C   0  0  0  0  0  0  0  0  0  0  0  0
  -24.8027   19.3909  -11.8199 N   0  0  0  0  0  0  0  0  0  0  0  0
  -25.5533   20.2132  -11.1040 C   0  0  0  0  0  0  0  0  0  0  0  0
  -22.3588   19.1030  -12.2278 C   0  0  0  0  0  0  0  0  0  0  0  0
  -20.4467   16.5775  -12.2393 C   0  0  0  0  0  0  0  0  0  0  0  0
  -21.1282   15.7030  -11.9060 N   0  0  0  0  0  0  0  0  0  0  0  0
  1 12  2  0
  1 13  1  0
 15  1  1  0
 12  2  1  0
  2 14  2  0
  3  5  2  0
  8  3  1  0
  3 16  1  0
  5  4  1  0
  6  5  1  0
  7  6  1  0
  8  7  2  0
  9  8  1  0
  9 10  1  0
  9 15  2  0
 10 11  2  0
 11 12  1  0
 13 14  1  0
 16 17  3  0
M  END
$$$$
