
     RDKit          3D

 17 19  0  0  0  0  0  0  0  0999 V2000
  -23.0179   19.1043  -11.3741 C   0  0  0  0  0  0  0  0  0  0  0  0
  -24.5471   20.5603  -11.9760 C   0  0  0  0  0  0  0  0  0  0  0  0
  -18.9645   17.5317  -13.5494 C   0  0  0  0  0  0  0  0  0  0  0  0
  -16.7793   16.3695  -14.0561 N   0  0  0  0  0  0  0  0  0  0  0  0
  -18.0949   16.4578  -13.5338 C   0  0  0  0  0  0  0  0  0  0  0  0
  -18.8023   15.4802  -12.8920 N   0  0  0  0  0  0  0  0  0  0  0  0
  -19.9985   15.9266  -12.5487 N   0  0  0  0  0  0  0  0  0  0  0  0
  -20.1609   17.2075  -12.9338 C   0  0  0  0  0  0  0  0  0  0  0  0
  -21.3038   18.1012  -12.7661 C   0  0  0  0  0  0  0  0  0  0  0  0
  -21.7907   18.8293  -13.8297 C   0  0  0  0  0  0  0  0  0  0  0  0
  -22.8751   19.6903  -13.6942 C   0  0  0  0  0  0  0  0  0  0  0  0
  -23.4899   19.8301  -12.4714 C   0  0  0  0  0  0  0  0  0  0  0  0
  -23.7863   19.4174  -10.2970 N   0  0  0  0  0  0  0  0  0  0  0  0
  -24.7201   20.3025  -10.6516 C   0  0  0  0  0  0  0  0  0  0  0  0
  -21.9390   18.2609  -11.5523 C   0  0  0  0  0  0  0  0  0  0  0  0
  -18.6558   18.8299  -14.1322 C   0  0  0  0  0  0  0  0  0  0  0  0
  -18.4168   19.8273  -14.5765 N   0  0  0  0  0  0  0  0  0  0  0  0
  1 12  2  0
  1 13  1  0
 15  1  1  0
 12  2  1  0
  2 14  2  0
  3  5  2  0
  8  3  1  0
  3 16  1  0
  5  4  1  0
  6  5  1  0
  7  6  1  0
  8  7  2  0
  9  8  1  0
  9 10  1  0
  9 15  2  0
 10 11  2  0
 11 12  1  0
 13 14  1  0
 16 17  3  0
M  END
$$$$
