
     RDKit          3D

 32 34  0  0  0  0  0  0  0  0999 V2000
  111.1713  -11.6769   -8.8839 C   0  0  2  0  0  0  0  0  0  0  0  0
  111.8952  -12.4872   -9.6351 O   0  0  0  0  0  0  0  0  0  0  0  0
  110.0840  -11.0322   -9.7580 C   0  0  2  0  0  0  0  0  0  0  0  0
  110.7473  -10.3232  -10.8538 N   0  0  0  0  0  4  0  0  0  0  0  0
  109.2225  -10.1234   -8.9457 C   0  0  0  0  0  0  0  0  0  0  0  0
  109.8619   -9.8972   -7.6158 C   0  0  2  0  0  0  0  0  0  0  0  0
  109.3016   -8.7183   -7.0718 O   0  0  0  0  0  0  0  0  0  0  0  0
  111.3288   -9.6784   -7.7251 C   0  0  2  0  0  0  0  0  0  0  0  0
  111.9919  -10.6163   -8.4913 O   0  0  0  0  0  0  0  0  0  0  0  0
  111.9115   -9.7916   -6.3094 C   0  0  0  0  0  0  0  0  0  0  0  0
  113.3168  -10.0619   -6.3549 N   0  0  0  0  0  4  0  0  0  0  0  0
  114.0526  -16.0214   -9.1362 C   0  0  2  0  0  0  0  0  0  0  0  0
  115.1923  -15.9059   -8.2758 N   0  0  0  0  0  4  0  0  0  0  0  0
  114.2083  -15.1084  -10.3178 C   0  0  0  0  0  0  0  0  0  0  0  0
  113.7827  -13.6971  -10.0751 C   0  0  2  0  0  0  0  0  0  0  0  0
  114.8384  -12.8854   -9.4950 N   0  0  0  0  0  4  0  0  0  0  0  0
  112.5264  -13.5670   -9.2381 C   0  0  2  0  0  0  0  0  0  0  0  0
  111.8443  -14.8904   -9.2350 C   0  0  2  0  0  0  0  0  0  0  0  0
  110.6155  -14.9153   -8.6316 O   0  0  0  0  0  0  0  0  0  0  0  0
  112.7509  -15.8160   -8.4044 C   0  0  1  0  0  0  0  0  0  0  0  0
  112.1171  -16.9743   -8.0405 O   0  0  0  0  0  0  0  0  0  0  0  0
  112.1050  -17.1785   -6.6620 C   0  0  2  0  0  0  0  0  0  0  0  0
  110.9517  -18.0082   -6.1905 C   0  0  2  0  0  0  0  0  0  0  0  0
  109.7564  -17.3194   -6.1346 O   0  0  0  0  0  0  0  0  0  0  0  0
  111.3205  -18.5327   -4.8030 C   0  0  1  0  0  0  0  0  0  0  0  0
  112.2008  -19.6545   -4.9329 N   0  0  0  0  0  4  0  0  0  0  0  0
  111.9807  -17.4230   -4.0589 C   0  0  2  0  0  0  0  0  0  0  0  0
  111.4598  -17.3840   -2.7591 O   0  0  0  0  0  0  0  0  0  0  0  0
  111.7567  -16.0572   -4.6693 C   0  0  2  0  0  0  0  0  0  0  0  0
  112.2271  -15.9803   -5.9720 O   0  0  0  0  0  0  0  0  0  0  0  0
  112.5598  -15.0722   -3.8417 C   0  0  0  0  0  0  0  0  0  0  0  0
  113.8696  -15.4951   -3.7962 O   0  0  0  0  0  0  0  0  0  0  0  0
  1  2  1  6
  1  3  1  0
  1  9  1  0
 17  2  1  6
  3  4  1  6
  3  5  1  0
  5  6  1  0
  6  7  1  6
  8  6  1  0
  9  8  1  0
  8 10  1  1
 10 11  1  0
 12 13  1  1
 14 12  1  0
 12 20  1  0
 15 14  1  0
 15 16  1  1
 15 17  1  0
 17 18  1  0
 18 19  1  1
 18 20  1  0
 20 21  1  6
 22 21  1  6
 22 23  1  0
 22 30  1  0
 23 24  1  1
 23 25  1  0
 25 26  1  6
 25 27  1  0
 27 28  1  1
 27 29  1  0
 29 30  1  0
 29 31  1  1
 31 32  1  0
M  CHG  5   4   1  11   1  13   1  16   1  26   1
M  END
$$$$
