
     RDKit          3D

 32 34  0  0  0  0  0  0  0  0999 V2000
  109.8021  -13.6160   -9.4303 C   0  0  2  0  0  0  0  0  0  0  0  0
  110.8013  -14.3337   -8.9489 O   0  0  0  0  0  0  0  0  0  0  0  0
  109.2943  -14.2787  -10.7206 C   0  0  2  0  0  0  0  0  0  0  0  0
  110.4162  -14.3609  -11.6576 N   0  0  0  0  0  4  0  0  0  0  0  0
  108.1457  -13.5147  -11.2906 C   0  0  0  0  0  0  0  0  0  0  0  0
  108.0410  -12.1951  -10.6004 C   0  0  2  0  0  0  0  0  0  0  0  0
  107.2878  -11.3387  -11.4363 O   0  0  0  0  0  0  0  0  0  0  0  0
  109.3691  -11.5575  -10.3979 C   0  0  2  0  0  0  0  0  0  0  0  0
  110.3225  -12.3855   -9.8395 O   0  0  0  0  0  0  0  0  0  0  0  0
  109.1716  -10.4017   -9.4071 C   0  0  0  0  0  0  0  0  0  0  0  0
  110.4228   -9.9896   -8.8460 N   0  0  0  0  0  4  0  0  0  0  0  0
  114.4583  -13.0658   -7.3956 C   0  0  2  0  0  0  0  0  0  0  0  0
  114.4711  -11.7085   -6.9374 N   0  0  0  0  0  4  0  0  0  0  0  0
  114.1445  -13.1079   -8.8632 C   0  0  0  0  0  0  0  0  0  0  0  0
  112.6874  -13.0671   -9.1904 C   0  0  2  0  0  0  0  0  0  0  0  0
  112.1684  -11.7128   -9.2682 N   0  0  0  0  0  4  0  0  0  0  0  0
  111.8222  -13.8878   -8.2556 C   0  0  2  0  0  0  0  0  0  0  0  0
  112.7130  -14.8276   -7.5208 C   0  0  2  0  0  0  0  0  0  0  0  0
  112.0737  -15.7412   -6.7263 O   0  0  0  0  0  0  0  0  0  0  0  0
  113.5487  -13.9454   -6.5764 C   0  0  1  0  0  0  0  0  0  0  0  0
  114.1876  -14.6774   -5.6111 O   0  0  0  0  0  0  0  0  0  0  0  0
  113.3477  -15.5886   -4.9736 C   0  0  2  0  0  0  0  0  0  0  0  0
  113.2282  -16.8961   -5.6927 C   0  0  2  0  0  0  0  0  0  0  0  0
  112.3999  -16.8508   -6.7964 O   0  0  0  0  0  0  0  0  0  0  0  0
  112.6993  -17.9121   -4.6808 C   0  0  1  0  0  0  0  0  0  0  0  0
  113.7720  -18.3587   -3.8442 N   0  0  0  0  0  4  0  0  0  0  0  0
  111.6410  -17.2408   -3.8743 C   0  0  2  0  0  0  0  0  0  0  0  0
  110.5531  -18.1143   -3.7479 O   0  0  0  0  0  0  0  0  0  0  0  0
  111.1168  -15.9637   -4.4925 C   0  0  2  0  0  0  0  0  0  0  0  0
  112.1168  -15.0201   -4.6769 O   0  0  0  0  0  0  0  0  0  0  0  0
  110.1217  -15.3788   -3.5086 C   0  0  0  0  0  0  0  0  0  0  0  0
  110.7464  -15.2105   -2.2929 O   0  0  0  0  0  0  0  0  0  0  0  0
  1  2  1  6
  1  3  1  0
  1  9  1  0
 17  2  1  6
  3  4  1  6
  3  5  1  0
  5  6  1  0
  6  7  1  6
  8  6  1  0
  9  8  1  0
  8 10  1  1
 10 11  1  0
 12 13  1  1
 14 12  1  0
 12 20  1  0
 15 14  1  0
 15 16  1  1
 15 17  1  0
 17 18  1  0
 18 19  1  1
 18 20  1  0
 20 21  1  1
 22 21  1  6
 22 23  1  0
 22 30  1  0
 23 24  1  6
 23 25  1  0
 25 26  1  1
 25 27  1  0
 27 28  1  6
 27 29  1  0
 29 30  1  0
 29 31  1  1
 31 32  1  0
M  CHG  5   4   1  11   1  13   1  16   1  26   1
M  END
$$$$
