
     RDKit          3D

 32 34  0  0  0  0  0  0  0  0999 V2000
  113.8719  -14.0940   -5.9797 C   0  0  2  0  0  0  0  0  0  0  0  0
  114.3517  -13.5466   -7.0820 O   0  0  0  0  0  0  0  0  0  0  0  0
  114.4620  -13.3592   -4.7657 C   0  0  2  0  0  0  0  0  0  0  0  0
  115.9205  -13.4601   -4.8422 N   0  0  0  0  0  4  0  0  0  0  0  0
  113.9291  -13.9282   -3.4928 C   0  0  0  0  0  0  0  0  0  0  0  0
  113.2265  -15.2129   -3.7839 C   0  0  2  0  0  0  0  0  0  0  0  0
  113.1494  -15.9373   -2.5719 O   0  0  0  0  0  0  0  0  0  0  0  0
  113.9729  -16.0565   -4.7550 C   0  0  2  0  0  0  0  0  0  0  0  0
  114.3802  -15.3927   -5.8952 O   0  0  0  0  0  0  0  0  0  0  0  0
  113.0181  -17.1643   -5.2218 C   0  0  0  0  0  0  0  0  0  0  0  0
  112.9684  -17.2278   -6.6513 N   0  0  0  0  0  4  0  0  0  0  0  0
  113.1319  -13.0409  -11.0381 C   0  0  2  0  0  0  0  0  0  0  0  0
  112.9658  -14.2613  -11.7697 N   0  0  0  0  0  4  0  0  0  0  0  0
  114.5555  -12.9079  -10.5803 C   0  0  0  0  0  0  0  0  0  0  0  0
  114.8696  -13.6217   -9.3060 C   0  0  2  0  0  0  0  0  0  0  0  0
  115.2219  -15.0150   -9.5165 N   0  0  0  0  0  4  0  0  0  0  0  0
  113.7763  -13.5284   -8.2612 C   0  0  2  0  0  0  0  0  0  0  0  0
  112.8711  -12.4121   -8.6502 C   0  0  2  0  0  0  0  0  0  0  0  0
  111.8978  -12.1017   -7.7386 O   0  0  0  0  0  0  0  0  0  0  0  0
  112.1389  -12.9000   -9.9128 C   0  0  1  0  0  0  0  0  0  0  0  0
  111.0489  -12.1268  -10.2129 O   0  0  0  0  0  0  0  0  0  0  0  0
  109.8482  -12.6873   -9.7813 C   0  0  2  0  0  0  0  0  0  0  0  0
  108.7118  -11.7135   -9.7477 C   0  0  2  0  0  0  0  0  0  0  0  0
  108.7431  -10.8585   -8.6641 O   0  0  0  0  0  0  0  0  0  0  0  0
  107.4235  -12.5358   -9.7303 C   0  0  1  0  0  0  0  0  0  0  0  0
  107.1253  -12.9878  -11.0558 N   0  0  0  0  0  4  0  0  0  0  0  0
  107.6336  -13.6894   -8.8105 C   0  0  2  0  0  0  0  0  0  0  0  0
  106.4987  -13.8288   -8.0012 O   0  0  0  0  0  0  0  0  0  0  0  0
  108.8213  -13.5291   -7.8876 C   0  0  2  0  0  0  0  0  0  0  0  0
  110.0104  -13.3707   -8.5842 O   0  0  0  0  0  0  0  0  0  0  0  0
  108.9331  -14.8158   -7.0925 C   0  0  0  0  0  0  0  0  0  0  0  0
  108.0953  -15.7560   -7.6499 O   0  0  0  0  0  0  0  0  0  0  0  0
  1  2  1  6
  1  3  1  0
  1  9  1  0
 17  2  1  1
  3  4  1  1
  3  5  1  0
  5  6  1  0
  6  7  1  1
  8  6  1  0
  9  8  1  0
  8 10  1  6
 10 11  1  0
 12 13  1  1
 14 12  1  0
 12 20  1  0
 15 14  1  0
 15 16  1  6
 15 17  1  0
 17 18  1  0
 18 19  1  1
 18 20  1  0
 20 21  1  6
 22 21  1  1
 22 23  1  0
 22 30  1  0
 23 24  1  1
 23 25  1  0
 25 26  1  6
 25 27  1  0
 27 28  1  1
 27 29  1  0
 29 30  1  0
 29 31  1  1
 31 32  1  0
M  CHG  5   4   1  11   1  13   1  16   1  26   1
M  END
$$$$
