
     RDKit          3D

 32 34  0  0  0  0  0  0  0  0999 V2000
  109.1474  -15.3501   -8.9812 C   0  0  2  0  0  0  0  0  0  0  0  0
  109.9119  -14.4078   -9.5035 O   0  0  0  0  0  0  0  0  0  0  0  0
  109.8169  -16.7141   -9.2121 C   0  0  2  0  0  0  0  0  0  0  0  0
  110.0002  -16.8886  -10.6541 N   0  0  0  0  0  4  0  0  0  0  0  0
  108.9995  -17.8118   -8.6164 C   0  0  0  0  0  0  0  0  0  0  0  0
  107.6548  -17.2793   -8.2465 C   0  0  2  0  0  0  0  0  0  0  0  0
  106.7789  -18.3836   -8.1327 O   0  0  0  0  0  0  0  0  0  0  0  0
  107.0971  -16.3802   -9.2917 C   0  0  2  0  0  0  0  0  0  0  0  0
  107.9663  -15.3992   -9.7260 O   0  0  0  0  0  0  0  0  0  0  0  0
  105.9003  -15.6477   -8.6690 C   0  0  0  0  0  0  0  0  0  0  0  0
  104.9678  -15.2427   -9.6772 N   0  0  0  0  0  4  0  0  0  0  0  0
  111.6699  -10.9140   -8.0554 C   0  0  2  0  0  0  0  0  0  0  0  0
  111.1636  -10.4742   -6.7894 N   0  0  0  0  0  4  0  0  0  0  0  0
  110.5639  -10.9329   -9.0706 C   0  0  0  0  0  0  0  0  0  0  0  0
  109.7313  -12.1734   -9.0621 C   0  0  2  0  0  0  0  0  0  0  0  0
  108.6466  -12.1135   -8.0981 N   0  0  0  0  0  4  0  0  0  0  0  0
  110.5247  -13.4472   -8.8527 C   0  0  2  0  0  0  0  0  0  0  0  0
  111.9566  -13.1389   -9.1198 C   0  0  2  0  0  0  0  0  0  0  0  0
  112.8008  -14.2168   -9.1063 O   0  0  0  0  0  0  0  0  0  0  0  0
  112.4020  -12.2282   -7.9619 C   0  0  1  0  0  0  0  0  0  0  0  0
  113.7647  -12.1131   -7.8860 O   0  0  0  0  0  0  0  0  0  0  0  0
  114.3095  -12.7981   -6.8016 C   0  0  2  0  0  0  0  0  0  0  0  0
  115.3783  -13.7732   -7.1861 C   0  0  2  0  0  0  0  0  0  0  0  0
  114.8927  -14.9463   -7.7285 O   0  0  0  0  0  0  0  0  0  0  0  0
  116.1812  -14.0730   -5.9206 C   0  0  1  0  0  0  0  0  0  0  0  0
  117.1054  -13.0072   -5.6753 N   0  0  0  0  0  4  0  0  0  0  0  0
  115.2168  -14.2097   -4.7927 C   0  0  2  0  0  0  0  0  0  0  0  0
  115.5769  -15.3275   -4.0290 O   0  0  0  0  0  0  0  0  0  0  0  0
  113.7840  -14.4142   -5.2327 C   0  0  2  0  0  0  0  0  0  0  0  0
  113.3188  -13.3651   -6.0119 O   0  0  0  0  0  0  0  0  0  0  0  0
  112.9409  -14.4475   -3.9724 C   0  0  0  0  0  0  0  0  0  0  0  0
  113.0349  -13.2260   -3.3433 O   0  0  0  0  0  0  0  0  0  0  0  0
  1  2  1  6
  1  3  1  0
  1  9  1  0
 17  2  1  6
  3  4  1  6
  3  5  1  0
  5  6  1  0
  6  7  1  6
  8  6  1  0
  9  8  1  0
  8 10  1  1
 10 11  1  0
 12 13  1  1
 14 12  1  0
 12 20  1  0
 15 14  1  0
 15 16  1  1
 15 17  1  0
 17 18  1  0
 18 19  1  1
 18 20  1  0
 20 21  1  6
 22 21  1  6
 22 23  1  0
 22 30  1  0
 23 24  1  1
 23 25  1  0
 25 26  1  1
 25 27  1  0
 27 28  1  1
 27 29  1  0
 29 30  1  0
 29 31  1  1
 31 32  1  0
M  CHG  5   4   1  11   1  13   1  16   1  26   1
M  END
$$$$
