
     RDKit          3D

 32 34  0  0  0  0  0  0  0  0999 V2000
  114.1208  -13.5825   -5.7368 C   0  0  2  0  0  0  0  0  0  0  0  0
  114.6242  -13.1313   -6.8717 O   0  0  0  0  0  0  0  0  0  0  0  0
  112.9978  -12.6363   -5.2835 C   0  0  2  0  0  0  0  0  0  0  0  0
  113.5678  -11.2955   -5.1398 N   0  0  0  0  0  4  0  0  0  0  0  0
  112.3800  -13.1192   -4.0134 C   0  0  0  0  0  0  0  0  0  0  0  0
  113.2336  -14.1956   -3.4288 C   0  0  2  0  0  0  0  0  0  0  0  0
  112.9030  -14.3004   -2.0579 O   0  0  0  0  0  0  0  0  0  0  0  0
  114.6829  -13.8723   -3.5093 C   0  0  2  0  0  0  0  0  0  0  0  0
  115.1094  -13.4618   -4.7568 O   0  0  0  0  0  0  0  0  0  0  0  0
  115.4539  -15.1622   -3.1956 C   0  0  0  0  0  0  0  0  0  0  0  0
  114.6769  -16.3169   -3.5314 N   0  0  0  0  0  4  0  0  0  0  0  0
  114.1360  -13.9587  -10.9302 C   0  0  2  0  0  0  0  0  0  0  0  0
  114.9447  -15.0354  -11.4190 N   0  0  0  0  0  4  0  0  0  0  0  0
  115.0116  -12.8594  -10.4020 C   0  0  0  0  0  0  0  0  0  0  0  0
  115.4694  -13.0500   -8.9928 C   0  0  2  0  0  0  0  0  0  0  0  0
  116.6748  -13.8550   -8.8994 N   0  0  0  0  0  4  0  0  0  0  0  0
  114.4091  -13.6177   -8.0713 C   0  0  2  0  0  0  0  0  0  0  0  0
  113.0890  -13.4452   -8.7380 C   0  0  2  0  0  0  0  0  0  0  0  0
  112.0006  -13.7855   -7.9803 O   0  0  0  0  0  0  0  0  0  0  0  0
  113.1035  -14.4163   -9.9318 C   0  0  1  0  0  0  0  0  0  0  0  0
  111.8542  -14.6113  -10.4583 O   0  0  0  0  0  0  0  0  0  0  0  0
  111.2200  -15.7435   -9.9503 C   0  0  2  0  0  0  0  0  0  0  0  0
  109.9166  -16.0497  -10.6200 C   0  0  2  0  0  0  0  0  0  0  0  0
  108.8763  -15.2396  -10.2103 O   0  0  0  0  0  0  0  0  0  0  0  0
  109.5943  -17.5124  -10.3152 C   0  0  1  0  0  0  0  0  0  0  0  0
  110.3521  -18.3614  -11.1841 N   0  0  0  0  0  4  0  0  0  0  0  0
  109.9423  -17.7662   -8.8886 C   0  0  2  0  0  0  0  0  0  0  0  0
  108.9064  -18.5028   -8.2996 O   0  0  0  0  0  0  0  0  0  0  0  0
  110.1166  -16.5082   -8.0669 C   0  0  2  0  0  0  0  0  0  0  0  0
  111.1175  -15.6883   -8.5672 O   0  0  0  0  0  0  0  0  0  0  0  0
  110.5460  -16.9483   -6.6805 C   0  0  0  0  0  0  0  0  0  0  0  0
  109.8600  -18.0948   -6.3466 O   0  0  0  0  0  0  0  0  0  0  0  0
  1  2  1  6
  1  3  1  0
  1  9  1  0
 17  2  1  1
  3  4  1  1
  3  5  1  0
  5  6  1  0
  6  7  1  1
  8  6  1  0
  9  8  1  0
  8 10  1  6
 10 11  1  0
 12 13  1  1
 14 12  1  0
 12 20  1  0
 15 14  1  0
 15 16  1  6
 15 17  1  0
 17 18  1  0
 18 19  1  1
 18 20  1  0
 20 21  1  6
 22 21  1  6
 22 23  1  0
 22 30  1  0
 23 24  1  1
 23 25  1  0
 25 26  1  6
 25 27  1  0
 27 28  1  1
 27 29  1  0
 29 30  1  0
 29 31  1  1
 31 32  1  0
M  CHG  5   4   1  11   1  13   1  16   1  26   1
M  END
$$$$
