
     RDKit          3D

 32 34  0  0  0  0  0  0  0  0999 V2000
  113.7287  -14.2584   -6.2808 C   0  0  2  0  0  0  0  0  0  0  0  0
  114.2358  -13.4285   -7.1748 O   0  0  0  0  0  0  0  0  0  0  0  0
  112.2025  -14.3015   -6.4561 C   0  0  2  0  0  0  0  0  0  0  0  0
  111.6912  -12.9389   -6.2966 N   0  0  0  0  0  4  0  0  0  0  0  0
  111.5848  -15.2473   -5.4805 C   0  0  0  0  0  0  0  0  0  0  0  0
  112.5992  -15.6274   -4.4533 C   0  0  2  0  0  0  0  0  0  0  0  0
  111.8984  -16.1191   -3.3278 O   0  0  0  0  0  0  0  0  0  0  0  0
  113.4039  -14.4628   -3.9973 C   0  0  2  0  0  0  0  0  0  0  0  0
  113.9293  -13.6953   -5.0178 O   0  0  0  0  0  0  0  0  0  0  0  0
  114.6038  -15.0177   -3.2168 C   0  0  0  0  0  0  0  0  0  0  0  0
  115.1856  -14.0067   -2.3866 N   0  0  0  0  0  4  0  0  0  0  0  0
  114.8340  -13.3532  -11.3016 C   0  0  2  0  0  0  0  0  0  0  0  0
  115.6209  -14.4379  -11.8082 N   0  0  0  0  0  4  0  0  0  0  0  0
  115.6416  -12.5464  -10.3264 C   0  0  0  0  0  0  0  0  0  0  0  0
  115.6541  -13.0840   -8.9326 C   0  0  2  0  0  0  0  0  0  0  0  0
  116.6833  -14.0883   -8.7286 N   0  0  0  0  0  4  0  0  0  0  0  0
  114.3177  -13.6275   -8.4692 C   0  0  2  0  0  0  0  0  0  0  0  0
  113.2709  -13.1023   -9.3886 C   0  0  2  0  0  0  0  0  0  0  0  0
  111.9805  -13.3895   -9.0328 O   0  0  0  0  0  0  0  0  0  0  0  0
  113.5149  -13.8102  -10.7332 C   0  0  1  0  0  0  0  0  0  0  0  0
  112.4537  -13.6794  -11.5893 O   0  0  0  0  0  0  0  0  0  0  0  0
  111.4756  -14.6532  -11.3967 C   0  0  2  0  0  0  0  0  0  0  0  0
  110.1450  -14.2869  -11.9766 C   0  0  2  0  0  0  0  0  0  0  0  0
  109.4382  -13.3762  -11.2169 O   0  0  0  0  0  0  0  0  0  0  0  0
  109.3492  -15.5845  -12.1152 C   0  0  1  0  0  0  0  0  0  0  0  0
  109.7767  -16.2862  -13.2878 N   0  0  0  0  0  4  0  0  0  0  0  0
  109.5920  -16.3989  -10.8910 C   0  0  2  0  0  0  0  0  0  0  0  0
  108.3688  -16.9217  -10.4516 O   0  0  0  0  0  0  0  0  0  0  0  0
  110.1798  -15.6140   -9.7392 C   0  0  2  0  0  0  0  0  0  0  0  0
  111.3981  -15.0360  -10.0648 O   0  0  0  0  0  0  0  0  0  0  0  0
  110.4365  -16.6058   -8.6209 C   0  0  0  0  0  0  0  0  0  0  0  0
  111.3866  -17.5105   -9.0397 O   0  0  0  0  0  0  0  0  0  0  0  0
  1  2  1  6
  1  3  1  0
  1  9  1  0
 17  2  1  1
  3  4  1  1
  3  5  1  0
  5  6  1  0
  6  7  1  1
  8  6  1  0
  9  8  1  0
  8 10  1  6
 10 11  1  0
 12 13  1  1
 14 12  1  0
 12 20  1  0
 15 14  1  0
 15 16  1  6
 15 17  1  0
 17 18  1  0
 18 19  1  1
 18 20  1  0
 20 21  1  6
 22 21  1  1
 22 23  1  0
 22 30  1  0
 23 24  1  1
 23 25  1  0
 25 26  1  6
 25 27  1  0
 27 28  1  1
 27 29  1  0
 29 30  1  0
 29 31  1  1
 31 32  1  0
M  CHG  5   4   1  11   1  13   1  16   1  26   1
M  END
$$$$
