
     RDKit          3D

 32 34  0  0  0  0  0  0  0  0999 V2000
  111.7617  -14.1691   -6.0011 C   0  0  2  0  0  0  0  0  0  0  0  0
  111.3699  -12.9694   -6.3913 O   0  0  0  0  0  0  0  0  0  0  0  0
  110.6285  -14.8204   -5.1927 C   0  0  2  0  0  0  0  0  0  0  0  0
  110.3210  -13.9450   -4.0602 N   0  0  0  0  0  4  0  0  0  0  0  0
  111.0162  -16.1918   -4.7488 C   0  0  0  0  0  0  0  0  0  0  0  0
  112.4795  -16.3862   -4.9720 C   0  0  2  0  0  0  0  0  0  0  0  0
  112.8948  -17.4575   -4.1477 O   0  0  0  0  0  0  0  0  0  0  0  0
  113.2738  -15.1925   -4.5771 C   0  0  2  0  0  0  0  0  0  0  0  0
  112.8033  -13.9981   -5.0857 O   0  0  0  0  0  0  0  0  0  0  0  0
  114.6857  -15.3765   -5.1510 C   0  0  0  0  0  0  0  0  0  0  0  0
  115.6122  -14.4815   -4.5262 N   0  0  0  0  0  4  0  0  0  0  0  0
  110.8022  -11.1016  -10.0769 C   0  0  2  0  0  0  0  0  0  0  0  0
  111.8823  -10.2545  -10.4867 N   0  0  0  0  0  4  0  0  0  0  0  0
  110.2182  -10.5996   -8.7881 C   0  0  0  0  0  0  0  0  0  0  0  0
  110.9363  -11.0544   -7.5595 C   0  0  2  0  0  0  0  0  0  0  0  0
  112.0566  -10.1964   -7.2154 N   0  0  0  0  0  4  0  0  0  0  0  0
  111.4007  -12.4956   -7.6146 C   0  0  2  0  0  0  0  0  0  0  0  0
  110.6552  -13.1709   -8.7123 C   0  0  2  0  0  0  0  0  0  0  0  0
  110.8571  -14.5212   -8.8140 O   0  0  0  0  0  0  0  0  0  0  0  0
  111.1972  -12.5550  -10.0143 C   0  0  1  0  0  0  0  0  0  0  0  0
  110.8475  -13.2848  -11.1193 O   0  0  0  0  0  0  0  0  0  0  0  0
  111.9434  -13.6548  -11.8967 C   0  0  2  0  0  0  0  0  0  0  0  0
  111.6273  -14.7071  -12.9133 C   0  0  2  0  0  0  0  0  0  0  0  0
  111.5273  -15.9790  -12.3856 O   0  0  0  0  0  0  0  0  0  0  0  0
  112.7390  -14.6596  -13.9612 C   0  0  1  0  0  0  0  0  0  0  0  0
  112.4995  -13.5755  -14.8654 N   0  0  0  0  0  4  0  0  0  0  0  0
  114.0320  -14.4765  -13.2433 C   0  0  2  0  0  0  0  0  0  0  0  0
  114.9785  -15.3484  -13.7969 O   0  0  0  0  0  0  0  0  0  0  0  0
  113.9597  -14.7800  -11.7632 C   0  0  2  0  0  0  0  0  0  0  0  0
  113.0381  -13.9775  -11.1067 O   0  0  0  0  0  0  0  0  0  0  0  0
  115.3255  -14.4626  -11.1852 C   0  0  0  0  0  0  0  0  0  0  0  0
  116.2316  -14.3618  -12.2174 O   0  0  0  0  0  0  0  0  0  0  0  0
  1  2  1  1
  1  3  1  0
  1  9  1  0
 17  2  1  1
  3  4  1  1
  3  5  1  0
  5  6  1  0
  6  7  1  1
  8  6  1  0
  9  8  1  0
  8 10  1  6
 10 11  1  0
 12 13  1  1
 14 12  1  0
 12 20  1  0
 15 14  1  0
 15 16  1  6
 15 17  1  0
 17 18  1  0
 18 19  1  6
 18 20  1  0
 20 21  1  6
 22 21  1  1
 22 23  1  0
 22 30  1  0
 23 24  1  1
 23 25  1  0
 25 26  1  6
 25 27  1  0
 27 28  1  6
 27 29  1  0
 29 30  1  0
 29 31  1  1
 31 32  1  0
M  CHG  5   4   1  11   1  13   1  16   1  26   1
M  END
$$$$
