
     RDKit          3D

 32 34  0  0  0  0  0  0  0  0999 V2000
  114.6727  -13.3150   -9.8740 C   0  0  2  0  0  0  0  0  0  0  0  0
  113.3541  -13.3408   -9.7970 O   0  0  0  0  0  0  0  0  0  0  0  0
  115.1150  -14.1761  -11.0676 C   0  0  2  0  0  0  0  0  0  0  0  0
  114.6007  -15.5313  -10.8617 N   0  0  0  0  0  4  0  0  0  0  0  0
  116.6007  -14.1586  -11.2105 C   0  0  0  0  0  0  0  0  0  0  0  0
  117.2061  -13.5581   -9.9851 C   0  0  2  0  0  0  0  0  0  0  0  0
  118.5590  -13.9668   -9.9375 O   0  0  0  0  0  0  0  0  0  0  0  0
  116.5551  -14.0426   -8.7388 C   0  0  2  0  0  0  0  0  0  0  0  0
  115.1760  -13.9743   -8.7496 O   0  0  0  0  0  0  0  0  0  0  0  0
  117.0208  -13.1272   -7.5978 C   0  0  0  0  0  0  0  0  0  0  0  0
  116.7493  -11.7544   -7.9003 N   0  0  0  0  0  4  0  0  0  0  0  0
  111.4916  -13.4793   -6.0680 C   0  0  2  0  0  0  0  0  0  0  0  0
  111.5427  -12.2513   -5.3319 N   0  0  0  0  0  4  0  0  0  0  0  0
  112.8833  -13.9807   -6.3248 C   0  0  0  0  0  0  0  0  0  0  0  0
  113.5499  -13.3836   -7.5211 C   0  0  2  0  0  0  0  0  0  0  0  0
  114.2155  -12.1275   -7.2229 N   0  0  0  0  0  4  0  0  0  0  0  0
  112.6307  -13.1992   -8.7115 C   0  0  2  0  0  0  0  0  0  0  0  0
  111.4224  -14.0393   -8.4860 C   0  0  2  0  0  0  0  0  0  0  0  0
  110.5430  -14.0946   -9.5339 O   0  0  0  0  0  0  0  0  0  0  0  0
  110.6677  -13.3675   -7.3252 C   0  0  1  0  0  0  0  0  0  0  0  0
  109.3839  -13.8292   -7.2037 O   0  0  0  0  0  0  0  0  0  0  0  0
  108.4647  -13.0815   -7.9373 C   0  0  2  0  0  0  0  0  0  0  0  0
  107.9947  -13.7666   -9.1825 C   0  0  2  0  0  0  0  0  0  0  0  0
  108.9070  -13.7267  -10.2181 O   0  0  0  0  0  0  0  0  0  0  0  0
  106.6944  -13.0814   -9.6019 C   0  0  1  0  0  0  0  0  0  0  0  0
  105.6129  -13.5760   -8.8045 N   0  0  0  0  0  4  0  0  0  0  0  0
  106.8707  -11.6145   -9.4064 C   0  0  2  0  0  0  0  0  0  0  0  0
  106.3597  -10.9490  -10.5282 O   0  0  0  0  0  0  0  0  0  0  0  0
  108.3131  -11.1855   -9.2532 C   0  0  2  0  0  0  0  0  0  0  0  0
  108.9304  -11.7950   -8.1707 O   0  0  0  0  0  0  0  0  0  0  0  0
  108.2983   -9.6934   -8.9817 C   0  0  0  0  0  0  0  0  0  0  0  0
  108.6931   -9.0309  -10.1226 O   0  0  0  0  0  0  0  0  0  0  0  0
  1  2  1  1
  1  3  1  0
  1  9  1  0
 17  2  1  6
  3  4  1  1
  3  5  1  0
  5  6  1  0
  6  7  1  1
  8  6  1  0
  9  8  1  0
  8 10  1  1
 10 11  1  0
 12 13  1  6
 14 12  1  0
 12 20  1  0
 15 14  1  0
 15 16  1  1
 15 17  1  0
 17 18  1  0
 18 19  1  6
 18 20  1  0
 20 21  1  1
 22 21  1  6
 22 23  1  0
 22 30  1  0
 23 24  1  6
 23 25  1  0
 25 26  1  1
 25 27  1  0
 27 28  1  6
 27 29  1  0
 29 30  1  0
 29 31  1  1
 31 32  1  0
M  CHG  5   4   1  11   1  13   1  16   1  26   1
M  END
$$$$
