
     RDKit          3D

 32 34  0  0  0  0  0  0  0  0999 V2000
   95.8142  -10.3421    1.7266 C   0  0  2  0  0  0  0  0  0  0  0  0
   95.9814   -9.1137    2.1830 O   0  0  0  0  0  0  0  0  0  0  0  0
   96.9327  -10.6515    0.7191 C   0  0  2  0  0  0  0  0  0  0  0  0
   96.8672   -9.6524   -0.3490 N   0  0  0  0  0  4  0  0  0  0  0  0
   96.7997  -12.0417    0.1920 C   0  0  0  0  0  0  0  0  0  0  0  0
   95.4659  -12.5894    0.5786 C   0  0  2  0  0  0  0  0  0  0  0  0
   95.1835  -13.6688   -0.2902 O   0  0  0  0  0  0  0  0  0  0  0  0
   94.3761  -11.5915    0.4105 C   0  0  2  0  0  0  0  0  0  0  0  0
   94.6377  -10.3579    0.9730 O   0  0  0  0  0  0  0  0  0  0  0  0
   93.1409  -12.1412    1.1377 C   0  0  0  0  0  0  0  0  0  0  0  0
   93.2540  -13.5538    1.3415 N   0  0  0  0  0  4  0  0  0  0  0  0
   93.9210   -6.5024    4.6988 C   0  0  2  0  0  0  0  0  0  0  0  0
   92.8237   -5.8212    4.0788 N   0  0  0  0  0  4  0  0  0  0  0  0
   95.2026   -6.1509    4.0002 C   0  0  0  0  0  0  0  0  0  0  0  0
   95.4905   -6.9638    2.7803 C   0  0  2  0  0  0  0  0  0  0  0  0
   94.8634   -6.4240    1.5865 N   0  0  0  0  0  4  0  0  0  0  0  0
   95.1366   -8.4305    2.9188 C   0  0  2  0  0  0  0  0  0  0  0  0
   94.9796   -8.7242    4.3700 C   0  0  2  0  0  0  0  0  0  0  0  0
   94.7891  -10.0432    4.6839 O   0  0  0  0  0  0  0  0  0  0  0  0
   93.6973   -7.9896    4.7997 C   0  0  1  0  0  0  0  0  0  0  0  0
   93.2405   -8.4120    6.0199 O   0  0  0  0  0  0  0  0  0  0  0  0
   92.0719   -9.1662    5.9325 C   0  0  2  0  0  0  0  0  0  0  0  0
   91.7345   -9.8945    7.1960 C   0  0  2  0  0  0  0  0  0  0  0  0
   92.4931  -11.0291    7.4043 O   0  0  0  0  0  0  0  0  0  0  0  0
   90.2530  -10.2615    7.1143 C   0  0  1  0  0  0  0  0  0  0  0  0
   89.4569   -9.1183    7.4452 N   0  0  0  0  0  4  0  0  0  0  0  0
   89.9744  -10.7179    5.7233 C   0  0  2  0  0  0  0  0  0  0  0  0
   89.1835  -11.8727    5.7812 O   0  0  0  0  0  0  0  0  0  0  0  0
   91.2157  -11.0680    4.9328 C   0  0  2  0  0  0  0  0  0  0  0  0
   92.0861   -9.9939    4.8184 O   0  0  0  0  0  0  0  0  0  0  0  0
   90.7552  -11.4256    3.5327 C   0  0  0  0  0  0  0  0  0  0  0  0
   90.6849  -10.2738    2.7810 O   0  0  0  0  0  0  0  0  0  0  0  0
  1  2  1  6
  1  3  1  0
  1  9  1  0
 17  2  1  1
  3  4  1  6
  3  5  1  0
  5  6  1  0
  6  7  1  6
  8  6  1  0
  9  8  1  0
  8 10  1  1
 10 11  1  0
 12 13  1  6
 14 12  1  0
 12 20  1  0
 15 14  1  0
 15 16  1  6
 15 17  1  0
 17 18  1  0
 18 19  1  6
 18 20  1  0
 20 21  1  1
 22 21  1  1
 22 23  1  0
 22 30  1  0
 23 24  1  6
 23 25  1  0
 25 26  1  6
 25 27  1  0
 27 28  1  1
 27 29  1  0
 29 30  1  0
 29 31  1  6
 31 32  1  0
M  CHG  5   4   1  11   1  13   1  16   1  26   1
M  END
$$$$
