
     RDKit          3D

 32 34  0  0  0  0  0  0  0  0999 V2000
  108.7779  -14.6117   -9.5282 C   0  0  2  0  0  0  0  0  0  0  0  0
  110.0592  -14.8066   -9.2724 O   0  0  0  0  0  0  0  0  0  0  0  0
  108.2424  -13.5319   -8.5746 C   0  0  2  0  0  0  0  0  0  0  0  0
  108.4676  -13.9895   -7.2023 N   0  0  0  0  0  4  0  0  0  0  0  0
  106.7995  -13.2587   -8.8422 C   0  0  0  0  0  0  0  0  0  0  0  0
  106.2564  -14.3186   -9.7424 C   0  0  2  0  0  0  0  0  0  0  0  0
  104.8491  -14.3105   -9.6049 O   0  0  0  0  0  0  0  0  0  0  0  0
  106.7286  -15.6769   -9.3635 C   0  0  2  0  0  0  0  0  0  0  0  0
  108.0926  -15.7763   -9.1729 O   0  0  0  0  0  0  0  0  0  0  0  0
  106.3889  -16.6171  -10.5286 C   0  0  0  0  0  0  0  0  0  0  0  0
  105.4927  -15.9864  -11.4500 N   0  0  0  0  0  4  0  0  0  0  0  0
  113.0255  -12.1342   -8.0669 C   0  0  2  0  0  0  0  0  0  0  0  0
  112.5343  -10.8730   -7.5973 N   0  0  0  0  0  4  0  0  0  0  0  0
  112.6200  -12.3411   -9.4976 C   0  0  0  0  0  0  0  0  0  0  0  0
  111.2458  -12.8975   -9.6816 C   0  0  2  0  0  0  0  0  0  0  0  0
  110.2214  -11.8679   -9.6939 N   0  0  0  0  0  4  0  0  0  0  0  0
  110.8745  -13.9689   -8.6764 C   0  0  2  0  0  0  0  0  0  0  0  0
  112.1321  -14.4509   -8.0417 C   0  0  2  0  0  0  0  0  0  0  0  0
  111.9909  -15.5207   -7.1991 O   0  0  0  0  0  0  0  0  0  0  0  0
  112.6267  -13.2806   -7.1732 C   0  0  1  0  0  0  0  0  0  0  0  0
  113.5928  -13.6667   -6.2824 O   0  0  0  0  0  0  0  0  0  0  0  0
  113.1835  -14.7092   -5.4531 C   0  0  2  0  0  0  0  0  0  0  0  0
  113.9644  -15.9712   -5.6493 C   0  0  2  0  0  0  0  0  0  0  0  0
  113.6030  -16.6798   -6.7778 O   0  0  0  0  0  0  0  0  0  0  0  0
  113.7472  -16.8258   -4.4009 C   0  0  1  0  0  0  0  0  0  0  0  0
  114.5895  -16.3534   -3.3438 N   0  0  0  0  0  4  0  0  0  0  0  0
  112.3097  -16.7193   -4.0223 C   0  0  2  0  0  0  0  0  0  0  0  0
  111.8342  -17.9986   -3.7066 O   0  0  0  0  0  0  0  0  0  0  0  0
  111.4250  -16.1745   -5.1217 C   0  0  2  0  0  0  0  0  0  0  0  0
  111.8114  -14.9053   -5.5266 O   0  0  0  0  0  0  0  0  0  0  0  0
  110.0292  -16.0563   -4.5404 C   0  0  0  0  0  0  0  0  0  0  0  0
  110.0342  -16.5755   -3.2649 O   0  0  0  0  0  0  0  0  0  0  0  0
  1  2  1  1
  1  3  1  0
  1  9  1  0
 17  2  1  6
  3  4  1  1
  3  5  1  0
  5  6  1  0
  6  7  1  1
  8  6  1  0
  9  8  1  0
  8 10  1  6
 10 11  1  0
 12 13  1  1
 14 12  1  0
 12 20  1  0
 15 14  1  0
 15 16  1  1
 15 17  1  0
 17 18  1  0
 18 19  1  1
 18 20  1  0
 20 21  1  6
 22 21  1  6
 22 23  1  0
 22 30  1  0
 23 24  1  6
 23 25  1  0
 25 26  1  1
 25 27  1  0
 27 28  1  6
 27 29  1  0
 29 30  1  0
 29 31  1  1
 31 32  1  0
M  CHG  5   4   1  11   1  13   1  16   1  26   1
M  END
$$$$
