
     RDKit          3D

 32 34  0  0  0  0  0  0  0  0999 V2000
  113.0370  -14.1874   -6.3564 C   0  0  2  0  0  0  0  0  0  0  0  0
  112.9986  -13.1551   -7.1798 O   0  0  0  0  0  0  0  0  0  0  0  0
  112.1467  -13.8834   -5.1411 C   0  0  2  0  0  0  0  0  0  0  0  0
  112.6432  -12.6578   -4.5129 N   0  0  0  0  0  4  0  0  0  0  0  0
  112.1388  -15.0342   -4.1904 C   0  0  0  0  0  0  0  0  0  0  0  0
  113.2206  -15.9915   -4.5672 C   0  0  2  0  0  0  0  0  0  0  0  0
  113.4925  -16.7908   -3.4328 O   0  0  0  0  0  0  0  0  0  0  0  0
  114.4850  -15.2988   -4.9318 C   0  0  2  0  0  0  0  0  0  0  0  0
  114.3328  -14.2702   -5.8403 O   0  0  0  0  0  0  0  0  0  0  0  0
  115.3929  -16.3364   -5.6070 C   0  0  0  0  0  0  0  0  0  0  0  0
  116.6149  -15.7358   -6.0496 N   0  0  0  0  0  4  0  0  0  0  0  0
  110.2884  -11.5620   -9.9203 C   0  0  2  0  0  0  0  0  0  0  0  0
  110.2965  -12.1989  -11.2035 N   0  0  0  0  0  4  0  0  0  0  0  0
  111.6364  -10.9650   -9.6364 C   0  0  0  0  0  0  0  0  0  0  0  0
  112.6338  -11.9206   -9.0674 C   0  0  2  0  0  0  0  0  0  0  0  0
  113.3431  -12.6663  -10.0923 N   0  0  0  0  0  4  0  0  0  0  0  0
  112.0552  -12.8832   -8.0503 C   0  0  2  0  0  0  0  0  0  0  0  0
  110.7425  -12.3388   -7.6061 C   0  0  2  0  0  0  0  0  0  0  0  0
  110.1412  -13.0207   -6.5823 O   0  0  0  0  0  0  0  0  0  0  0  0
  109.8096  -12.4768   -8.8222 C   0  0  1  0  0  0  0  0  0  0  0  0
  108.4913  -12.3170   -8.4867 O   0  0  0  0  0  0  0  0  0  0  0  0
  107.6297  -13.0513   -9.2994 C   0  0  2  0  0  0  0  0  0  0  0  0
  107.0666  -14.2661   -8.6301 C   0  0  2  0  0  0  0  0  0  0  0  0
  107.9530  -15.3220   -8.5555 O   0  0  0  0  0  0  0  0  0  0  0  0
  105.8274  -14.6764   -9.4253 C   0  0  1  0  0  0  0  0  0  0  0  0
  104.7236  -13.8420   -9.0574 N   0  0  0  0  0  4  0  0  0  0  0  0
  106.1470  -14.5264  -10.8732 C   0  0  2  0  0  0  0  0  0  0  0  0
  105.6744  -15.6553  -11.5549 O   0  0  0  0  0  0  0  0  0  0  0  0
  107.6269  -14.4168  -11.1662 C   0  0  2  0  0  0  0  0  0  0  0  0
  108.2097  -13.3312  -10.5290 O   0  0  0  0  0  0  0  0  0  0  0  0
  107.7605  -14.1875  -12.6594 C   0  0  0  0  0  0  0  0  0  0  0  0
  109.0718  -13.8787  -12.9453 O   0  0  0  0  0  0  0  0  0  0  0  0
  1  2  1  6
  1  3  1  0
  1  9  1  0
 17  2  1  1
  3  4  1  1
  3  5  1  0
  5  6  1  0
  6  7  1  1
  8  6  1  0
  9  8  1  0
  8 10  1  6
 10 11  1  0
 12 13  1  6
 14 12  1  0
 12 20  1  0
 15 14  1  0
 15 16  1  6
 15 17  1  0
 17 18  1  0
 18 19  1  1
 18 20  1  0
 20 21  1  1
 22 21  1  1
 22 23  1  0
 22 30  1  0
 23 24  1  6
 23 25  1  0
 25 26  1  1
 25 27  1  0
 27 28  1  6
 27 29  1  0
 29 30  1  0
 29 31  1  6
 31 32  1  0
M  CHG  5   4   1  11   1  13   1  16   1  26   1
M  END
$$$$
