
     RDKit          3D

 32 34  0  0  0  0  0  0  0  0999 V2000
  115.6131  -13.5184   -6.4055 C   0  0  2  0  0  0  0  0  0  0  0  0
  114.2950  -13.5800   -6.3449 O   0  0  0  0  0  0  0  0  0  0  0  0
  116.1924  -14.8668   -5.9490 C   0  0  2  0  0  0  0  0  0  0  0  0
  115.7141  -15.1266   -4.5900 N   0  0  0  0  0  4  0  0  0  0  0  0
  117.6832  -14.8541   -6.0233 C   0  0  0  0  0  0  0  0  0  0  0  0
  118.1539  -13.4528   -6.2318 C   0  0  2  0  0  0  0  0  0  0  0  0
  119.5118  -13.3998   -5.8410 O   0  0  0  0  0  0  0  0  0  0  0  0
  117.4137  -12.4776   -5.3876 C   0  0  2  0  0  0  0  0  0  0  0  0
  116.0395  -12.6001   -5.4426 O   0  0  0  0  0  0  0  0  0  0  0  0
  117.7408  -11.0755   -5.9205 C   0  0  0  0  0  0  0  0  0  0  0  0
  118.1529  -11.1324   -7.2905 N   0  0  0  0  0  4  0  0  0  0  0  0
  111.0819  -12.4760   -8.7638 C   0  0  2  0  0  0  0  0  0  0  0  0
  111.2573  -11.2333   -9.4548 N   0  0  0  0  0  4  0  0  0  0  0  0
  111.1268  -12.2480   -7.2806 C   0  0  0  0  0  0  0  0  0  0  0  0
  112.5017  -12.2089   -6.6974 C   0  0  2  0  0  0  0  0  0  0  0  0
  113.1039  -10.8892   -6.7702 N   0  0  0  0  0  4  0  0  0  0  0  0
  113.4512  -13.2317   -7.2875 C   0  0  2  0  0  0  0  0  0  0  0  0
  112.6331  -14.2556   -7.9942 C   0  0  2  0  0  0  0  0  0  0  0  0
  113.3288  -15.3324   -8.4747 O   0  0  0  0  0  0  0  0  0  0  0  0
  112.0498  -13.5362   -9.2233 C   0  0  1  0  0  0  0  0  0  0  0  0
  111.5360  -14.4118  -10.1426 O   0  0  0  0  0  0  0  0  0  0  0  0
  110.3528  -15.0140   -9.7190 C   0  0  2  0  0  0  0  0  0  0  0  0
  109.4074  -15.3266  -10.8368 C   0  0  2  0  0  0  0  0  0  0  0  0
  108.7200  -14.2262  -11.3088 O   0  0  0  0  0  0  0  0  0  0  0  0
  108.4255  -16.3718  -10.3081 C   0  0  1  0  0  0  0  0  0  0  0  0
  109.0403  -17.6646  -10.3359 N   0  0  0  0  0  4  0  0  0  0  0  0
  108.0599  -15.9876   -8.9154 C   0  0  2  0  0  0  0  0  0  0  0  0
  106.6749  -16.1303   -8.7609 O   0  0  0  0  0  0  0  0  0  0  0  0
  108.4016  -14.5564   -8.5645 C   0  0  2  0  0  0  0  0  0  0  0  0
  109.7575  -14.2933   -8.6929 O   0  0  0  0  0  0  0  0  0  0  0  0
  108.0426  -14.3675   -7.1031 C   0  0  0  0  0  0  0  0  0  0  0  0
  108.9002  -15.1227   -6.3344 O   0  0  0  0  0  0  0  0  0  0  0  0
  1  2  1  1
  1  3  1  0
  1  9  1  0
 17  2  1  1
  3  4  1  1
  3  5  1  0
  5  6  1  0
  6  7  1  1
  8  6  1  0
  9  8  1  0
  8 10  1  6
 10 11  1  0
 12 13  1  6
 14 12  1  0
 12 20  1  0
 15 14  1  0
 15 16  1  6
 15 17  1  0
 17 18  1  0
 18 19  1  6
 18 20  1  0
 20 21  1  6
 22 21  1  6
 22 23  1  0
 22 30  1  0
 23 24  1  1
 23 25  1  0
 25 26  1  1
 25 27  1  0
 27 28  1  6
 27 29  1  0
 29 30  1  0
 29 31  1  1
 31 32  1  0
M  CHG  5   4   1  11   1  13   1  16   1  26   1
M  END
$$$$
