
     RDKit          3D

 32 34  0  0  0  0  0  0  0  0999 V2000
  113.4350  -13.2324   -7.8478 C   0  0  2  0  0  0  0  0  0  0  0  0
  112.4641  -13.4595   -8.7143 O   0  0  0  0  0  0  0  0  0  0  0  0
  114.6303  -12.6193   -8.5944 C   0  0  2  0  0  0  0  0  0  0  0  0
  115.0355  -13.5560   -9.6440 N   0  0  0  0  0  4  0  0  0  0  0  0
  115.7473  -12.3218   -7.6500 C   0  0  0  0  0  0  0  0  0  0  0  0
  115.4715  -12.9792   -6.3384 C   0  0  2  0  0  0  0  0  0  0  0  0
  116.7016  -13.0795   -5.6482 O   0  0  0  0  0  0  0  0  0  0  0  0
  114.9425  -14.3598   -6.4995 C   0  0  2  0  0  0  0  0  0  0  0  0
  113.8938  -14.4705   -7.3909 O   0  0  0  0  0  0  0  0  0  0  0  0
  114.3932  -14.7978   -5.1346 C   0  0  0  0  0  0  0  0  0  0  0  0
  114.1029  -16.1997   -5.1262 N   0  0  0  0  0  4  0  0  0  0  0  0
  109.6986  -16.5814   -8.7173 C   0  0  2  0  0  0  0  0  0  0  0  0
  109.3930  -17.1063   -7.4199 N   0  0  0  0  0  4  0  0  0  0  0  0
  111.1599  -16.7608   -9.0112 C   0  0  0  0  0  0  0  0  0  0  0  0
  112.0429  -15.6904   -8.4576 C   0  0  2  0  0  0  0  0  0  0  0  0
  112.4384  -15.9455   -7.0835 N   0  0  0  0  0  4  0  0  0  0  0  0
  111.4630  -14.2948   -8.5665 C   0  0  2  0  0  0  0  0  0  0  0  0
  110.3553  -14.3401   -9.5605 C   0  0  2  0  0  0  0  0  0  0  0  0
  109.8054  -13.1280   -9.8811 O   0  0  0  0  0  0  0  0  0  0  0  0
  109.2367  -15.1569   -8.8897 C   0  0  1  0  0  0  0  0  0  0  0  0
  108.0372  -15.0251   -9.5374 O   0  0  0  0  0  0  0  0  0  0  0  0
  107.3204  -13.9006   -9.1325 C   0  0  2  0  0  0  0  0  0  0  0  0
  106.6764  -13.1625  -10.2644 C   0  0  2  0  0  0  0  0  0  0  0  0
  107.5542  -12.3844  -10.9927 O   0  0  0  0  0  0  0  0  0  0  0  0
  105.5799  -12.2880   -9.6569 C   0  0  1  0  0  0  0  0  0  0  0  0
  104.4220  -13.0871   -9.3905 N   0  0  0  0  0  4  0  0  0  0  0  0
  106.1166  -11.6950   -8.3995 C   0  0  2  0  0  0  0  0  0  0  0  0
  105.7691  -10.3385   -8.3607 O   0  0  0  0  0  0  0  0  0  0  0  0
  107.6225  -11.7722   -8.2794 C   0  0  2  0  0  0  0  0  0  0  0  0
  108.0863  -13.0790   -8.3172 O   0  0  0  0  0  0  0  0  0  0  0  0
  107.9815  -11.2061   -6.9189 C   0  0  0  0  0  0  0  0  0  0  0  0
  107.0088  -11.5720   -6.0153 O   0  0  0  0  0  0  0  0  0  0  0  0
  1  2  1  6
  1  3  1  0
  1  9  1  0
 17  2  1  6
  3  4  1  6
  3  5  1  0
  5  6  1  0
  6  7  1  1
  8  6  1  0
  9  8  1  0
  8 10  1  1
 10 11  1  0
 12 13  1  1
 14 12  1  0
 12 20  1  0
 15 14  1  0
 15 16  1  1
 15 17  1  0
 17 18  1  0
 18 19  1  1
 18 20  1  0
 20 21  1  6
 22 21  1  6
 22 23  1  0
 22 30  1  0
 23 24  1  1
 23 25  1  0
 25 26  1  1
 25 27  1  0
 27 28  1  6
 27 29  1  0
 29 30  1  0
 29 31  1  1
 31 32  1  0
M  CHG  5   4   1  11   1  13   1  16   1  26   1
M  END
$$$$
