
     RDKit          3D

 35 39  0  0  0  0  0  0  0  0999 V2000
   10.9980   -0.0596   11.7087 C   0  0  0  0  0  0  0  0  0  0  0  0
   10.3396    1.1517    7.4590 C   0  0  0  0  0  0  0  0  0  0  0  0
   12.0689    1.2117    5.7266 C   0  0  0  0  0  0  0  0  0  0  0  0
   13.6413    1.2480    3.7242 C   0  0  0  0  0  0  0  0  0  0  0  0
   16.1019    1.3910    3.5263 C   0  0  0  0  0  0  0  0  0  0  0  0
    9.8015    1.0096    5.0951 C   0  0  0  0  0  0  0  0  0  0  0  0
    5.6519    5.1534   13.7665 Br  0  0  0  0  0  0  0  0  0  0  0  0
    6.9596    4.0936   14.6875 C   0  0  0  0  0  0  0  0  0  0  0  0
    8.2946    4.3850   14.6181 C   0  0  0  0  0  0  0  0  0  0  0  0
    9.2645    3.6241   15.2828 C   0  0  0  0  0  0  0  0  0  0  0  0
   10.9408    3.9975   15.1902 S   0  0  1  0  0  6  0  0  0  0  0  0
   11.7246    3.5716   13.7329 N   0  0  0  0  0  0  0  0  0  0  0  0
   11.5000    2.3558   13.0658 C   0  0  0  0  0  0  0  0  0  0  0  0
   11.6499    1.1376   13.6790 C   0  0  0  0  0  0  0  0  0  0  0  0
   11.4023   -0.0615   13.0097 C   0  0  0  0  0  0  0  0  0  0  0  0
   10.7479   -1.2341   11.0285 F   0  0  0  0  0  0  0  0  0  0  0  0
   10.8368    1.1459   11.0628 C   0  0  0  0  0  0  0  0  0  0  0  0
   10.4085    1.1597    9.6846 N   0  0  0  0  0  0  0  0  0  0  0  0
   11.1705    1.1171    8.5795 C   0  0  0  0  0  0  0  0  0  0  0  0
   10.7555    1.1245    6.0623 C   0  0  0  0  0  0  0  0  0  0  0  0
   12.4437    1.1843    4.4011 C   0  0  0  0  0  0  0  0  0  0  0  0
   11.4187    1.0653    3.4651 C   0  0  0  0  0  0  0  0  0  0  0  0
   12.0218    1.0605    2.2567 N   0  0  0  0  0  0  0  0  0  0  0  0
   13.3190    1.1668    2.3989 N   0  0  0  0  0  0  0  0  0  0  0  0
   14.9030    1.3673    4.2358 O   0  0  0  0  0  0  0  0  0  0  0  0
   10.1194    0.9787    3.7893 N   0  0  0  0  0  0  0  0  0  0  0  0
    9.1001    1.2143    7.9451 N   0  0  0  0  0  0  0  0  0  0  0  0
    9.1546    1.2184    9.2787 N   0  0  0  0  0  0  0  0  0  0  0  0
   11.0826    2.3167   11.7283 C   0  0  0  0  0  0  0  0  0  0  0  0
   10.9358    3.5253   11.1282 F   0  0  0  0  0  0  0  0  0  0  0  0
   11.1889    5.4756   15.4849 O   0  0  0  0  0  0  0  0  0  0  0  0
   11.6395    3.1986   16.2895 O   0  0  0  0  0  0  0  0  0  0  0  0
    8.7625    2.5498   16.0181 C   0  0  0  0  0  0  0  0  0  0  0  0
    7.4198    2.2533   16.0904 C   0  0  0  0  0  0  0  0  0  0  0  0
    6.5046    3.0241   15.4244 C   0  0  0  0  0  0  0  0  0  0  0  0
  1 15  2  0
  1 16  1  0
 17  1  1  0
 19  2  2  0
  2 20  1  0
  2 27  1  0
 20  3  2  0
  3 21  1  0
 21  4  2  0
  4 24  1  0
  4 25  1  0
 25  5  1  0
 20  6  1  0
  6 26  2  0
  8  7  1  0
  9  8  2  0
  8 35  1  0
 10  9  1  0
 11 10  1  0
 10 33  2  0
 11 12  1  6
 11 31  2  0
 11 32  2  0
 13 12  1  0
 13 14  2  0
 29 13  1  0
 15 14  1  0
 18 17  1  0
 17 29  2  0
 18 19  1  0
 18 28  1  0
 21 22  1  0
 22 23  2  0
 22 26  1  0
 23 24  1  0
 27 28  2  0
 29 30  1  0
 33 34  1  0
 34 35  2  0
M  END
$$$$
