
     RDKit          3D

 35 39  0  0  0  0  0  0  0  0999 V2000
   10.3024    0.0391   11.4309 C   0  0  0  0  0  0  0  0  0  0  0  0
   12.0358    1.2803    7.5824 C   0  0  0  0  0  0  0  0  0  0  0  0
   13.0071    1.2923    5.3348 C   0  0  0  0  0  0  0  0  0  0  0  0
   13.7368    1.2495    2.8958 C   0  0  0  0  0  0  0  0  0  0  0  0
   15.9395    1.4984    1.8001 C   0  0  0  0  0  0  0  0  0  0  0  0
   10.6902    0.9117    5.5947 C   0  0  0  0  0  0  0  0  0  0  0  0
    4.6732    6.7860   14.7028 Br  0  0  0  0  0  0  0  0  0  0  0  0
    6.3780    6.3957   15.4921 C   0  0  0  0  0  0  0  0  0  0  0  0
    7.0648    5.2534   15.1831 C   0  0  0  0  0  0  0  0  0  0  0  0
    8.3100    4.9503   15.7482 C   0  0  0  0  0  0  0  0  0  0  0  0
    9.1667    3.5119   15.3542 S   0  0  1  0  0  6  0  0  0  0  0  0
    9.9381    3.4923   13.8297 N   0  0  0  0  0  0  0  0  0  0  0  0
   10.0654    2.3325   13.0471 C   0  0  0  0  0  0  0  0  0  0  0  0
    9.5415    1.1229   13.4277 C   0  0  0  0  0  0  0  0  0  0  0  0
    9.6572   -0.0159   12.6297 C   0  0  0  0  0  0  0  0  0  0  0  0
   10.4279   -1.0753   10.6266 F   0  0  0  0  0  0  0  0  0  0  0  0
   10.8397    1.2379   11.0179 C   0  0  0  0  0  0  0  0  0  0  0  0
   11.5250    1.3077    9.7496 N   0  0  0  0  0  0  0  0  0  0  0  0
   11.0169    1.1152    8.5214 C   0  0  0  0  0  0  0  0  0  0  0  0
   11.9171    1.1600    6.1347 C   0  0  0  0  0  0  0  0  0  0  0  0
   12.8762    1.1755    3.9684 C   0  0  0  0  0  0  0  0  0  0  0  0
   11.5950    0.9217    3.4837 C   0  0  0  0  0  0  0  0  0  0  0  0
   11.7166    0.8499    2.1405 N   0  0  0  0  0  0  0  0  0  0  0  0
   12.9634    1.0400    1.7891 N   0  0  0  0  0  0  0  0  0  0  0  0
   15.0837    1.4814    2.8995 O   0  0  0  0  0  0  0  0  0  0  0  0
   10.5139    0.7898    4.2676 N   0  0  0  0  0  0  0  0  0  0  0  0
   13.1245    1.5682    8.2955 N   0  0  0  0  0  0  0  0  0  0  0  0
   12.8058    1.5816    9.5915 N   0  0  0  0  0  0  0  0  0  0  0  0
   10.7210    2.3493   11.8084 C   0  0  0  0  0  0  0  0  0  0  0  0
   11.2362    3.5491   11.4380 F   0  0  0  0  0  0  0  0  0  0  0  0
   10.1837    3.1663   16.4402 O   0  0  0  0  0  0  0  0  0  0  0  0
    8.1449    2.3764   15.3202 O   0  0  0  0  0  0  0  0  0  0  0  0
    8.7918    5.9022   16.6473 C   0  0  0  0  0  0  0  0  0  0  0  0
    8.1035    7.0529   16.9608 C   0  0  0  0  0  0  0  0  0  0  0  0
    6.8881    7.3103   16.3848 C   0  0  0  0  0  0  0  0  0  0  0  0
  1 15  2  0
  1 16  1  0
 17  1  1  0
 19  2  2  0
  2 20  1  0
  2 27  1  0
 20  3  2  0
  3 21  1  0
 21  4  2  0
  4 24  1  0
  4 25  1  0
 25  5  1  0
 20  6  1  0
  6 26  2  0
  8  7  1  0
  9  8  2  0
  8 35  1  0
 10  9  1  0
 11 10  1  0
 10 33  2  0
 11 12  1  6
 11 31  2  0
 11 32  2  0
 13 12  1  0
 13 14  2  0
 29 13  1  0
 15 14  1  0
 18 17  1  0
 17 29  2  0
 18 19  1  0
 18 28  1  0
 21 22  1  0
 22 23  2  0
 22 26  1  0
 23 24  1  0
 27 28  2  0
 29 30  1  0
 33 34  1  0
 34 35  2  0
M  END
$$$$
