
     RDKit          3D

 35 39  0  0  0  0  0  0  0  0999 V2000
   13.5596    3.0639   11.0294 C   0  0  0  0  0  0  0  0  0  0  0  0
   11.1158    1.4993    7.8451 C   0  0  0  0  0  0  0  0  0  0  0  0
   12.3749    1.4411    5.7458 C   0  0  0  0  0  0  0  0  0  0  0  0
   13.4183    1.3293    3.4260 C   0  0  0  0  0  0  0  0  0  0  0  0
   15.7482    1.5316    2.6230 C   0  0  0  0  0  0  0  0  0  0  0  0
   10.0351    1.1182    5.7039 C   0  0  0  0  0  0  0  0  0  0  0  0
    6.6673    6.8512   14.2447 Br  0  0  0  0  0  0  0  0  0  0  0  0
    7.4175    5.1619   14.7596 C   0  0  0  0  0  0  0  0  0  0  0  0
    8.7541    5.0205   15.0148 C   0  0  0  0  0  0  0  0  0  0  0  0
    9.3209    3.7965   15.3918 C   0  0  0  0  0  0  0  0  0  0  0  0
   11.0025    3.6275   15.7108 S   0  0  1  0  0  6  0  0  0  0  0  0
   11.8173    2.4192   14.8189 N   0  0  0  0  0  0  0  0  0  0  0  0
   12.4009    2.6528   13.5624 C   0  0  0  0  0  0  0  0  0  0  0  0
   13.6163    3.2722   13.4156 C   0  0  0  0  0  0  0  0  0  0  0  0
   14.1936    3.4780   12.1620 C   0  0  0  0  0  0  0  0  0  0  0  0
   14.1131    3.2578    9.7801 F   0  0  0  0  0  0  0  0  0  0  0  0
   12.3380    2.4379   11.1405 C   0  0  0  0  0  0  0  0  0  0  0  0
   11.6578    1.9949    9.9472 N   0  0  0  0  0  0  0  0  0  0  0  0
   12.1002    2.0300    8.6797 C   0  0  0  0  0  0  0  0  0  0  0  0
   11.1860    1.3505    6.3969 C   0  0  0  0  0  0  0  0  0  0  0  0
   12.4223    1.2978    4.3765 C   0  0  0  0  0  0  0  0  0  0  0  0
   11.2101    1.0623    3.7314 C   0  0  0  0  0  0  0  0  0  0  0  0
   11.5059    0.9589    2.4176 N   0  0  0  0  0  0  0  0  0  0  0  0
   12.7925    1.1134    2.2307 N   0  0  0  0  0  0  0  0  0  0  0  0
   14.7583    1.5310    3.6035 O   0  0  0  0  0  0  0  0  0  0  0  0
   10.0322    0.9717    4.3677 N   0  0  0  0  0  0  0  0  0  0  0  0
   10.1130    1.1645    8.6568 N   0  0  0  0  0  0  0  0  0  0  0  0
   10.4496    1.4661    9.9127 N   0  0  0  0  0  0  0  0  0  0  0  0
   11.7801    2.2411   12.3750 C   0  0  0  0  0  0  0  0  0  0  0  0
   10.5785    1.6285   12.5278 F   0  0  0  0  0  0  0  0  0  0  0  0
   11.7286    4.9602   15.5377 O   0  0  0  0  0  0  0  0  0  0  0  0
   11.1425    3.2290   17.1793 O   0  0  0  0  0  0  0  0  0  0  0  0
    8.4173    2.7376   15.4857 C   0  0  0  0  0  0  0  0  0  0  0  0
    7.0714    2.8759   15.2297 C   0  0  0  0  0  0  0  0  0  0  0  0
    6.5586    4.0918   14.8636 C   0  0  0  0  0  0  0  0  0  0  0  0
  1 15  2  0
  1 16  1  0
 17  1  1  0
 19  2  2  0
  2 20  1  0
  2 27  1  0
 20  3  2  0
  3 21  1  0
 21  4  2  0
  4 24  1  0
  4 25  1  0
 25  5  1  0
 20  6  1  0
  6 26  2  0
  8  7  1  0
  9  8  2  0
  8 35  1  0
 10  9  1  0
 11 10  1  0
 10 33  2  0
 11 12  1  6
 11 31  2  0
 11 32  2  0
 13 12  1  0
 13 14  2  0
 29 13  1  0
 15 14  1  0
 18 17  1  0
 17 29  2  0
 18 19  1  0
 18 28  1  0
 21 22  1  0
 22 23  2  0
 22 26  1  0
 23 24  1  0
 27 28  2  0
 29 30  1  0
 33 34  1  0
 34 35  2  0
M  END
$$$$
