
     RDKit          3D

 35 39  0  0  0  0  0  0  0  0999 V2000
   10.9859   -0.0019   11.7104 C   0  0  0  0  0  0  0  0  0  0  0  0
   10.8542    1.1863    7.3742 C   0  0  0  0  0  0  0  0  0  0  0  0
   12.6426    1.3547    5.6665 C   0  0  0  0  0  0  0  0  0  0  0  0
   14.3318    1.5071    3.7667 C   0  0  0  0  0  0  0  0  0  0  0  0
   16.8037    1.7395    3.8259 C   0  0  0  0  0  0  0  0  0  0  0  0
   10.4145    1.0796    4.9336 C   0  0  0  0  0  0  0  0  0  0  0  0
    8.1888    2.3552   18.3521 Br  0  0  0  0  0  0  0  0  0  0  0  0
    9.1289    3.5326   17.1811 C   0  0  0  0  0  0  0  0  0  0  0  0
   10.3790    3.1848   16.7214 C   0  0  0  0  0  0  0  0  0  0  0  0
   11.0979    4.0151   15.8661 C   0  0  0  0  0  0  0  0  0  0  0  0
   12.6832    3.5835   15.2892 S   0  0  1  0  0  6  0  0  0  0  0  0
   12.6246    3.3354   13.6079 N   0  0  0  0  0  0  0  0  0  0  0  0
   12.0747    2.2108   12.9438 C   0  0  0  0  0  0  0  0  0  0  0  0
   11.8629    1.0632   13.6717 C   0  0  0  0  0  0  0  0  0  0  0  0
   11.3129   -0.0531   13.0458 C   0  0  0  0  0  0  0  0  0  0  0  0
   10.4457   -1.1166   11.1207 F   0  0  0  0  0  0  0  0  0  0  0  0
   11.1924    1.1546   10.9519 C   0  0  0  0  0  0  0  0  0  0  0  0
   10.8396    1.1638    9.5735 N   0  0  0  0  0  0  0  0  0  0  0  0
   11.6491    1.1858    8.4934 C   0  0  0  0  0  0  0  0  0  0  0  0
   11.3052    1.2067    5.9743 C   0  0  0  0  0  0  0  0  0  0  0  0
   13.1076    1.3788    4.3613 C   0  0  0  0  0  0  0  0  0  0  0  0
   12.1729    1.2477    3.3681 C   0  0  0  0  0  0  0  0  0  0  0  0
   12.8496    1.2998    2.2148 N   0  0  0  0  0  0  0  0  0  0  0  0
   14.1309    1.4530    2.4206 N   0  0  0  0  0  0  0  0  0  0  0  0
   15.5473    1.6623    4.3924 O   0  0  0  0  0  0  0  0  0  0  0  0
   10.8543    1.1018    3.6745 N   0  0  0  0  0  0  0  0  0  0  0  0
    9.5800    1.1649    7.7786 N   0  0  0  0  0  0  0  0  0  0  0  0
    9.6079    1.1519    9.0985 N   0  0  0  0  0  0  0  0  0  0  0  0
   11.7337    2.2208   11.6107 C   0  0  0  0  0  0  0  0  0  0  0  0
   11.9496    3.3580   10.9140 F   0  0  0  0  0  0  0  0  0  0  0  0
   13.7142    4.6016   15.6897 O   0  0  0  0  0  0  0  0  0  0  0  0
   13.0557    2.2908   15.9775 O   0  0  0  0  0  0  0  0  0  0  0  0
   10.5190    5.1982   15.4932 C   0  0  0  0  0  0  0  0  0  0  0  0
    9.2489    5.5405   15.9667 C   0  0  0  0  0  0  0  0  0  0  0  0
    8.5369    4.7253   16.8094 C   0  0  0  0  0  0  0  0  0  0  0  0
  1 15  2  0
  1 16  1  0
 17  1  1  0
 19  2  2  0
  2 20  1  0
  2 27  1  0
 20  3  2  0
  3 21  1  0
 21  4  2  0
  4 24  1  0
  4 25  1  0
  5 25  1  1
 20  6  1  0
  6 26  2  0
  8  7  1  0
  9  8  2  0
  8 35  1  0
 10  9  1  0
 11 10  1  0
 10 33  2  0
 11 12  1  6
 11 31  2  0
 11 32  2  0
 13 12  1  0
 13 14  2  0
 29 13  1  0
 15 14  1  0
 18 17  1  0
 17 29  2  0
 18 19  1  0
 18 28  1  0
 21 22  1  0
 22 23  2  0
 22 26  1  0
 23 24  1  0
 27 28  2  0
 29 30  1  0
 33 34  1  0
 34 35  2  0
M  END
$$$$
