
     RDKit          3D

 35 39  0  0  0  0  0  0  0  0999 V2000
    9.7184    0.2613   11.9587 C   0  0  0  0  0  0  0  0  0  0  0  0
   10.5709    0.4321    7.4443 C   0  0  0  0  0  0  0  0  0  0  0  0
   12.2583    1.1473    5.7756 C   0  0  0  0  0  0  0  0  0  0  0  0
   13.8510    1.8407    3.9132 C   0  0  0  0  0  0  0  0  0  0  0  0
   16.2016    2.6354    4.0180 C   0  0  0  0  0  0  0  0  0  0  0  0
   10.1455    0.4334    4.9988 C   0  0  0  0  0  0  0  0  0  0  0  0
    8.3338    6.5853   14.8781 Br  0  0  0  0  0  0  0  0  0  0  0  0
    9.5021    5.3704   15.7730 C   0  0  0  0  0  0  0  0  0  0  0  0
   10.6148    4.8875   15.1221 C   0  0  0  0  0  0  0  0  0  0  0  0
   11.4920    4.0000   15.7390 C   0  0  0  0  0  0  0  0  0  0  0  0
   12.8958    3.3794   14.9165 S   0  0  1  0  0  6  0  0  0  0  0  0
   12.5064    3.0678   13.2907 N   0  0  0  0  0  0  0  0  0  0  0  0
   11.5717    2.1124   12.8196 C   0  0  0  0  0  0  0  0  0  0  0  0
   10.7581    1.4892   13.7367 C   0  0  0  0  0  0  0  0  0  0  0  0
    9.8228    0.5544   13.2988 C   0  0  0  0  0  0  0  0  0  0  0  0
    8.7882   -0.6635   11.5566 F   0  0  0  0  0  0  0  0  0  0  0  0
   10.5353    0.8833   11.0094 C   0  0  0  0  0  0  0  0  0  0  0  0
   10.3934    0.5503    9.6333 N   0  0  0  0  0  0  0  0  0  0  0  0
   11.0417    1.0659    8.5672 C   0  0  0  0  0  0  0  0  0  0  0  0
   10.9929    0.6725    6.0558 C   0  0  0  0  0  0  0  0  0  0  0  0
   12.6939    1.3866    4.4820 C   0  0  0  0  0  0  0  0  0  0  0  0
   11.8049    1.1296    3.4715 C   0  0  0  0  0  0  0  0  0  0  0  0
   12.4416    1.4316    2.3339 N   0  0  0  0  0  0  0  0  0  0  0  0
   13.6558    1.8555    2.5653 N   0  0  0  0  0  0  0  0  0  0  0  0
   15.0044    2.2161    4.5626 O   0  0  0  0  0  0  0  0  0  0  0  0
   10.5574    0.6613    3.7507 N   0  0  0  0  0  0  0  0  0  0  0  0
    9.6491   -0.4551    7.8324 N   0  0  0  0  0  0  0  0  0  0  0  0
    9.5682   -0.3580    9.1466 N   0  0  0  0  0  0  0  0  0  0  0  0
   11.4353    1.7912   11.4885 C   0  0  0  0  0  0  0  0  0  0  0  0
   12.2439    2.4149   10.6040 F   0  0  0  0  0  0  0  0  0  0  0  0
   14.0755    4.2993   15.0642 O   0  0  0  0  0  0  0  0  0  0  0  0
   13.2623    2.0852   15.6048 O   0  0  0  0  0  0  0  0  0  0  0  0
   11.2118    3.6187   17.0236 C   0  0  0  0  0  0  0  0  0  0  0  0
   10.0787    4.1161   17.6743 C   0  0  0  0  0  0  0  0  0  0  0  0
    9.2118    4.9908   17.0702 C   0  0  0  0  0  0  0  0  0  0  0  0
  1 15  2  0
  1 16  1  0
 17  1  1  0
 19  2  2  0
  2 20  1  0
  2 27  1  0
 20  3  2  0
  3 21  1  0
 21  4  2  0
  4 24  1  0
  4 25  1  0
  5 25  1  1
 20  6  1  0
  6 26  2  0
  8  7  1  0
  9  8  2  0
  8 35  1  0
 10  9  1  0
 11 10  1  0
 10 33  2  0
 11 12  1  6
 11 31  2  0
 11 32  2  0
 13 12  1  0
 13 14  2  0
 29 13  1  0
 15 14  1  0
 18 17  1  0
 17 29  2  0
 18 19  1  0
 18 28  1  0
 21 22  1  0
 22 23  2  0
 22 26  1  0
 23 24  1  0
 27 28  2  0
 29 30  1  0
 33 34  1  0
 34 35  2  0
M  END
$$$$
