
     RDKit          3D

 35 39  0  0  0  0  0  0  0  0999 V2000
   13.9366    3.5634   10.1300 C   0  0  0  0  0  0  0  0  0  0  0  0
   12.4281    1.8915    6.4191 C   0  0  0  0  0  0  0  0  0  0  0  0
   12.1968    0.7727    4.2533 C   0  0  0  0  0  0  0  0  0  0  0  0
   12.1899   -0.2205    1.9088 C   0  0  0  0  0  0  0  0  0  0  0  0
   10.7614   -1.9123    0.8082 C   0  0  0  0  0  0  0  0  0  0  0  0
   13.8827    2.4021    4.5426 C   0  0  0  0  0  0  0  0  0  0  0  0
    7.1802    6.3976   13.7005 Br  0  0  0  0  0  0  0  0  0  0  0  0
    7.8111    4.5884   13.5992 C   0  0  0  0  0  0  0  0  0  0  0  0
    9.0543    4.2378   14.0501 C   0  0  0  0  0  0  0  0  0  0  0  0
    9.5332    2.9232   13.9850 C   0  0  0  0  0  0  0  0  0  0  0  0
   11.0976    2.4910   14.5542 S   0  0  1  0  0  6  0  0  0  0  0  0
   12.1060    1.6840   13.4357 N   0  0  0  0  0  0  0  0  0  0  0  0
   12.7133    2.3272   12.3443 C   0  0  0  0  0  0  0  0  0  0  0  0
   13.7235    3.2433   12.4948 C   0  0  0  0  0  0  0  0  0  0  0  0
   14.3320    3.8583   11.4000 C   0  0  0  0  0  0  0  0  0  0  0  0
   14.5251    4.1603    9.0336 F   0  0  0  0  0  0  0  0  0  0  0  0
   12.9254    2.6476    9.9426 C   0  0  0  0  0  0  0  0  0  0  0  0
   12.4988    2.3276    8.6015 N   0  0  0  0  0  0  0  0  0  0  0  0
   13.2538    2.2142    7.4966 C   0  0  0  0  0  0  0  0  0  0  0  0
   12.8393    1.6773    5.0372 C   0  0  0  0  0  0  0  0  0  0  0  0
   12.5991    0.5835    2.9494 C   0  0  0  0  0  0  0  0  0  0  0  0
   13.6711    1.3565    2.5086 C   0  0  0  0  0  0  0  0  0  0  0  0
   13.8782    1.0001    1.2225 N   0  0  0  0  0  0  0  0  0  0  0  0
   13.0180    0.0803    0.8645 N   0  0  0  0  0  0  0  0  0  0  0  0
   11.1755   -1.1361    1.8887 O   0  0  0  0  0  0  0  0  0  0  0  0
   14.3104    2.2517    3.2771 N   0  0  0  0  0  0  0  0  0  0  0  0
   11.1985    1.8241    6.9292 N   0  0  0  0  0  0  0  0  0  0  0  0
   11.2540    2.0871    8.2365 N   0  0  0  0  0  0  0  0  0  0  0  0
   12.3347    2.0501   11.0235 C   0  0  0  0  0  0  0  0  0  0  0  0
   11.3353    1.1426   10.8820 F   0  0  0  0  0  0  0  0  0  0  0  0
   11.8326    3.7088   15.1110 O   0  0  0  0  0  0  0  0  0  0  0  0
   10.8992    1.5183   15.7158 O   0  0  0  0  0  0  0  0  0  0  0  0
    8.6448    2.0039   13.4261 C   0  0  0  0  0  0  0  0  0  0  0  0
    7.3929    2.3529   12.9712 C   0  0  0  0  0  0  0  0  0  0  0  0
    6.9641    3.6508   13.0539 C   0  0  0  0  0  0  0  0  0  0  0  0
  1 15  2  0
  1 16  1  0
 17  1  1  0
 19  2  2  0
  2 20  1  0
  2 27  1  0
 20  3  2  0
  3 21  1  0
 21  4  2  0
  4 24  1  0
  4 25  1  0
 25  5  1  0
 20  6  1  0
  6 26  2  0
  8  7  1  0
  9  8  2  0
  8 35  1  0
 10  9  1  0
 11 10  1  0
 10 33  2  0
 11 12  1  6
 11 31  2  0
 11 32  2  0
 13 12  1  0
 13 14  2  0
 29 13  1  0
 15 14  1  0
 18 17  1  0
 17 29  2  0
 18 19  1  0
 18 28  1  0
 21 22  1  0
 22 23  2  0
 22 26  1  0
 23 24  1  0
 27 28  2  0
 29 30  1  0
 33 34  1  0
 34 35  2  0
M  END
$$$$
