
     RDKit          3D

 35 39  0  0  0  0  0  0  0  0999 V2000
   10.6081    2.9270   12.2088 C   0  0  0  0  0  0  0  0  0  0  0  0
   10.8565    1.3738    7.9413 C   0  0  0  0  0  0  0  0  0  0  0  0
   12.2883    1.5139    5.9231 C   0  0  0  0  0  0  0  0  0  0  0  0
   13.5888    1.6198    3.7359 C   0  0  0  0  0  0  0  0  0  0  0  0
   16.0025    2.0250    3.3153 C   0  0  0  0  0  0  0  0  0  0  0  0
    9.9858    1.0747    5.6362 C   0  0  0  0  0  0  0  0  0  0  0  0
   12.0852    2.5671   19.4002 Br  0  0  0  0  0  0  0  0  0  0  0  0
   13.2568    1.8971   18.0511 C   0  0  0  0  0  0  0  0  0  0  0  0
   13.7495    2.7494   17.0890 C   0  0  0  0  0  0  0  0  0  0  0  0
   14.6064    2.3009   16.0879 C   0  0  0  0  0  0  0  0  0  0  0  0
   15.2249    3.3736   14.8635 S   0  0  1  0  0  6  0  0  0  0  0  0
   14.6249    2.9024   13.3438 N   0  0  0  0  0  0  0  0  0  0  0  0
   13.2655    2.8945   12.9435 C   0  0  0  0  0  0  0  0  0  0  0  0
   12.3303    3.4246   13.8014 C   0  0  0  0  0  0  0  0  0  0  0  0
   10.9886    3.4395   13.4275 C   0  0  0  0  0  0  0  0  0  0  0  0
    9.2796    2.9552   11.8674 F   0  0  0  0  0  0  0  0  0  0  0  0
   11.5422    2.3836   11.3214 C   0  0  0  0  0  0  0  0  0  0  0  0
   11.1050    1.8645   10.0709 N   0  0  0  0  0  0  0  0  0  0  0  0
   11.6069    2.0924    8.8385 C   0  0  0  0  0  0  0  0  0  0  0  0
   11.0418    1.3195    6.4831 C   0  0  0  0  0  0  0  0  0  0  0  0
   12.5045    1.4707    4.5549 C   0  0  0  0  0  0  0  0  0  0  0  0
   11.4141    1.2230    3.7630 C   0  0  0  0  0  0  0  0  0  0  0  0
   11.8640    1.2291    2.5027 N   0  0  0  0  0  0  0  0  0  0  0  0
   13.1490    1.4617    2.4565 N   0  0  0  0  0  0  0  0  0  0  0  0
   14.8858    1.8803    4.1137 O   0  0  0  0  0  0  0  0  0  0  0  0
   10.1857    1.0315    4.3181 N   0  0  0  0  0  0  0  0  0  0  0  0
    9.9134    0.7210    8.6284 N   0  0  0  0  0  0  0  0  0  0  0  0
   10.0911    1.0369    9.8979 N   0  0  0  0  0  0  0  0  0  0  0  0
   12.8437    2.3921   11.7339 C   0  0  0  0  0  0  0  0  0  0  0  0
   13.7782    1.8762   10.9058 F   0  0  0  0  0  0  0  0  0  0  0  0
   14.9258    4.8114   15.1848 O   0  0  0  0  0  0  0  0  0  0  0  0
   16.7287    3.2262   14.8803 O   0  0  0  0  0  0  0  0  0  0  0  0
   14.9468    0.9750   16.0892 C   0  0  0  0  0  0  0  0  0  0  0  0
   14.4400    0.1191   17.0716 C   0  0  0  0  0  0  0  0  0  0  0  0
   13.5956    0.5568   18.0600 C   0  0  0  0  0  0  0  0  0  0  0  0
  1 15  2  0
  1 16  1  0
 17  1  1  0
 19  2  2  0
  2 20  1  0
  2 27  1  0
 20  3  2  0
  3 21  1  0
 21  4  2  0
  4 24  1  0
  4 25  1  0
  5 25  1  1
 20  6  1  0
  6 26  2  0
  8  7  1  0
  9  8  2  0
  8 35  1  0
 10  9  1  0
 11 10  1  0
 10 33  2  0
 11 12  1  6
 11 31  2  0
 11 32  2  0
 13 12  1  0
 13 14  2  0
 29 13  1  0
 15 14  1  0
 18 17  1  0
 17 29  2  0
 18 19  1  0
 18 28  1  0
 21 22  1  0
 22 23  2  0
 22 26  1  0
 23 24  1  0
 27 28  2  0
 29 30  1  0
 33 34  1  0
 34 35  2  0
M  END
$$$$
