
     RDKit          3D

 35 39  0  0  0  0  0  0  0  0999 V2000
   17.8086    3.0760    1.3934 C   0  0  0  0  0  0  0  0  0  0  0  0
   14.0792    1.2691    3.3496 C   0  0  0  0  0  0  0  0  0  0  0  0
   12.8957    1.3246    5.4924 C   0  0  0  0  0  0  0  0  0  0  0  0
   11.4162    1.3063    7.5646 C   0  0  0  0  0  0  0  0  0  0  0  0
   11.8847    1.6892    9.9621 C   0  0  0  0  0  0  0  0  0  0  0  0
   11.7059    0.7843    3.5243 C   0  0  0  0  0  0  0  0  0  0  0  0
   24.3642   -0.0818    1.2934 Br  0  0  0  0  0  0  0  0  0  0  0  0
   23.9419    1.7253    1.7807 C   0  0  0  0  0  0  0  0  0  0  0  0
   23.2180    2.0126    2.9055 C   0  0  0  0  0  0  0  0  0  0  0  0
   22.8994    3.3245    3.2784 C   0  0  0  0  0  0  0  0  0  0  0  0
   21.9888    3.6768    4.6943 S   0  0  1  0  0  6  0  0  0  0  0  0
   20.3927    3.0683    4.7301 N   0  0  0  0  0  0  0  0  0  0  0  0
   19.5362    3.0902    3.6167 C   0  0  0  0  0  0  0  0  0  0  0  0
   19.8981    3.6482    2.4166 C   0  0  0  0  0  0  0  0  0  0  0  0
   19.0447    3.6434    1.3127 C   0  0  0  0  0  0  0  0  0  0  0  0
   16.9493    3.0606    0.3135 F   0  0  0  0  0  0  0  0  0  0  0  0
   17.4134    2.5062    2.5831 C   0  0  0  0  0  0  0  0  0  0  0  0
   16.1062    1.9020    2.6796 N   0  0  0  0  0  0  0  0  0  0  0  0
   15.2070    2.0260    3.6695 C   0  0  0  0  0  0  0  0  0  0  0  0
   12.8690    1.1246    4.1490 C   0  0  0  0  0  0  0  0  0  0  0  0
   11.7421    1.1836    6.2322 C   0  0  0  0  0  0  0  0  0  0  0  0
   10.5899    0.8346    5.5310 C   0  0  0  0  0  0  0  0  0  0  0  0
    9.6065    0.7567    6.4535 N   0  0  0  0  0  0  0  0  0  0  0  0
   10.0802    1.0305    7.6430 N   0  0  0  0  0  0  0  0  0  0  0  0
   12.2295    1.6327    8.6133 O   0  0  0  0  0  0  0  0  0  0  0  0
   10.5560    0.6355    4.2044 N   0  0  0  0  0  0  0  0  0  0  0  0
   14.3528    0.7169    2.1678 N   0  0  0  0  0  0  0  0  0  0  0  0
   15.5692    1.1033    1.7773 N   0  0  0  0  0  0  0  0  0  0  0  0
   18.2581    2.5164    3.6603 C   0  0  0  0  0  0  0  0  0  0  0  0
   17.9069    1.9658    4.8502 F   0  0  0  0  0  0  0  0  0  0  0  0
   22.7317    3.2225    5.9493 O   0  0  0  0  0  0  0  0  0  0  0  0
   21.8586    5.1970    4.7770 O   0  0  0  0  0  0  0  0  0  0  0  0
   23.3772    4.3106    2.4147 C   0  0  0  0  0  0  0  0  0  0  0  0
   24.1060    4.0255    1.2817 C   0  0  0  0  0  0  0  0  0  0  0  0
   24.3954    2.7277    0.9540 C   0  0  0  0  0  0  0  0  0  0  0  0
  1 15  2  0
  1 16  1  0
 17  1  1  0
 19  2  2  0
  2 20  1  0
  2 27  1  0
 20  3  2  0
  3 21  1  0
 21  4  2  0
  4 24  1  0
  4 25  1  0
 25  5  1  0
 20  6  1  0
  6 26  2  0
  8  7  1  0
  9  8  2  0
  8 35  1  0
 10  9  1  0
 11 10  1  0
 10 33  2  0
 11 12  1  6
 11 31  2  0
 11 32  2  0
 13 12  1  0
 13 14  2  0
 29 13  1  0
 15 14  1  0
 18 17  1  0
 17 29  2  0
 18 19  1  0
 18 28  1  0
 21 22  1  0
 22 23  2  0
 22 26  1  0
 23 24  1  0
 27 28  2  0
 29 30  1  0
 33 34  1  0
 34 35  2  0
M  END
$$$$
