
     RDKit          3D

 35 39  0  0  0  0  0  0  0  0999 V2000
   13.1365    3.1916   10.3779 C   0  0  0  0  0  0  0  0  0  0  0  0
   10.8828    1.3852    7.1247 C   0  0  0  0  0  0  0  0  0  0  0  0
   12.2211    1.1052    5.0934 C   0  0  0  0  0  0  0  0  0  0  0  0
   13.3571    0.7199    2.8476 C   0  0  0  0  0  0  0  0  0  0  0  0
   15.6786    1.0521    2.0635 C   0  0  0  0  0  0  0  0  0  0  0  0
    9.9172    0.5848    5.0450 C   0  0  0  0  0  0  0  0  0  0  0  0
    6.7975    2.7874   18.3769 Br  0  0  0  0  0  0  0  0  0  0  0  0
    7.8728    3.2224   16.8484 C   0  0  0  0  0  0  0  0  0  0  0  0
    9.1542    2.7605   16.7202 C   0  0  0  0  0  0  0  0  0  0  0  0
    9.9551    3.0666   15.6127 C   0  0  0  0  0  0  0  0  0  0  0  0
   11.5652    2.4816   15.4594 S   0  0  1  0  0  6  0  0  0  0  0  0
   11.8959    1.5528   14.0639 N   0  0  0  0  0  0  0  0  0  0  0  0
   12.3093    2.1164   12.8452 C   0  0  0  0  0  0  0  0  0  0  0  0
   13.3667    2.9859   12.7539 C   0  0  0  0  0  0  0  0  0  0  0  0
   13.7794    3.5210   11.5331 C   0  0  0  0  0  0  0  0  0  0  0  0
   13.5287    3.7097    9.1603 F   0  0  0  0  0  0  0  0  0  0  0  0
   12.0711    2.3209   10.4333 C   0  0  0  0  0  0  0  0  0  0  0  0
   11.3830    1.9648    9.2156 N   0  0  0  0  0  0  0  0  0  0  0  0
   11.9157    1.6712    8.0183 C   0  0  0  0  0  0  0  0  0  0  0  0
   11.0192    1.0182    5.7207 C   0  0  0  0  0  0  0  0  0  0  0  0
   12.3314    0.7541    3.7659 C   0  0  0  0  0  0  0  0  0  0  0  0
   11.1669    0.3199    3.1363 C   0  0  0  0  0  0  0  0  0  0  0  0
   11.5194    0.0375    1.8635 N   0  0  0  0  0  0  0  0  0  0  0  0
   12.7960    0.2682    1.6866 N   0  0  0  0  0  0  0  0  0  0  0  0
   14.6694    1.0585    3.0242 O   0  0  0  0  0  0  0  0  0  0  0  0
    9.9765    0.2315    3.7494 N   0  0  0  0  0  0  0  0  0  0  0  0
    9.7613    1.5209    7.8322 N   0  0  0  0  0  0  0  0  0  0  0  0
   10.0740    1.8681    9.0824 N   0  0  0  0  0  0  0  0  0  0  0  0
   11.6739    1.8016   11.6361 C   0  0  0  0  0  0  0  0  0  0  0  0
   10.6292    0.9406   11.7338 F   0  0  0  0  0  0  0  0  0  0  0  0
   12.5739    3.6244   15.5573 O   0  0  0  0  0  0  0  0  0  0  0  0
   11.8210    1.5559   16.6479 O   0  0  0  0  0  0  0  0  0  0  0  0
    9.3442    3.8767   14.6550 C   0  0  0  0  0  0  0  0  0  0  0  0
    8.0549    4.3436   14.7805 C   0  0  0  0  0  0  0  0  0  0  0  0
    7.3063    4.0199   15.8806 C   0  0  0  0  0  0  0  0  0  0  0  0
  1 15  2  0
  1 16  1  0
 17  1  1  0
 19  2  2  0
  2 20  1  0
  2 27  1  0
 20  3  2  0
  3 21  1  0
 21  4  2  0
  4 24  1  0
  4 25  1  0
 25  5  1  0
 20  6  1  0
  6 26  2  0
  8  7  1  0
  9  8  2  0
  8 35  1  0
 10  9  1  0
 11 10  1  0
 10 33  2  0
 11 12  1  6
 11 31  2  0
 11 32  2  0
 13 12  1  0
 13 14  2  0
 29 13  1  0
 15 14  1  0
 18 17  1  0
 17 29  2  0
 18 19  1  0
 18 28  1  0
 21 22  1  0
 22 23  2  0
 22 26  1  0
 23 24  1  0
 27 28  2  0
 29 30  1  0
 33 34  1  0
 34 35  2  0
M  END
$$$$
