
     RDKit          3D

 35 39  0  0  0  0  0  0  0  0999 V2000
   13.0730    4.0260   10.5426 C   0  0  0  0  0  0  0  0  0  0  0  0
   11.5737    2.6347    6.5375 C   0  0  0  0  0  0  0  0  0  0  0  0
   12.8049    1.3410    4.8190 C   0  0  0  0  0  0  0  0  0  0  0  0
   13.9104    0.0479    2.9238 C   0  0  0  0  0  0  0  0  0  0  0  0
   16.1529   -1.0124    2.8038 C   0  0  0  0  0  0  0  0  0  0  0  0
   10.6992    2.2446    4.2475 C   0  0  0  0  0  0  0  0  0  0  0  0
   10.3567    5.0252   18.0861 Br  0  0  0  0  0  0  0  0  0  0  0  0
   10.0341    3.5300   16.9451 C   0  0  0  0  0  0  0  0  0  0  0  0
   11.0955    2.8611   16.3786 C   0  0  0  0  0  0  0  0  0  0  0  0
   10.9034    1.7661   15.5409 C   0  0  0  0  0  0  0  0  0  0  0  0
   12.2426    0.9225   14.8148 S   0  0  1  0  0  6  0  0  0  0  0  0
   12.0529    0.9093   13.1249 N   0  0  0  0  0  0  0  0  0  0  0  0
   12.3820    1.9619   12.2349 C   0  0  0  0  0  0  0  0  0  0  0  0
   13.1573    2.9955   12.7061 C   0  0  0  0  0  0  0  0  0  0  0  0
   13.5047    4.0370   11.8488 C   0  0  0  0  0  0  0  0  0  0  0  0
   13.4306    5.0651    9.7213 F   0  0  0  0  0  0  0  0  0  0  0  0
   12.2843    2.9851   10.0428 C   0  0  0  0  0  0  0  0  0  0  0  0
   11.8599    3.0138    8.6850 N   0  0  0  0  0  0  0  0  0  0  0  0
   12.2624    2.2374    7.6565 C   0  0  0  0  0  0  0  0  0  0  0  0
   11.6904    2.0685    5.1849 C   0  0  0  0  0  0  0  0  0  0  0  0
   12.9529    0.7913    3.5555 C   0  0  0  0  0  0  0  0  0  0  0  0
   11.9324    1.0007    2.6654 C   0  0  0  0  0  0  0  0  0  0  0  0
   12.2969    0.3855    1.5343 N   0  0  0  0  0  0  0  0  0  0  0  0
   13.4647   -0.1875    1.6584 N   0  0  0  0  0  0  0  0  0  0  0  0
   15.1043   -0.3892    3.4497 O   0  0  0  0  0  0  0  0  0  0  0  0
   10.8342    1.7187    3.0291 N   0  0  0  0  0  0  0  0  0  0  0  0
   10.7658    3.6397    6.8908 N   0  0  0  0  0  0  0  0  0  0  0  0
   10.9623    3.8402    8.1808 N   0  0  0  0  0  0  0  0  0  0  0  0
   11.9710    1.9886   10.9219 C   0  0  0  0  0  0  0  0  0  0  0  0
   11.2104    0.9637   10.4791 F   0  0  0  0  0  0  0  0  0  0  0  0
   13.5611    1.5020   15.2459 O   0  0  0  0  0  0  0  0  0  0  0  0
   12.1958   -0.4939   15.3391 O   0  0  0  0  0  0  0  0  0  0  0  0
    9.6158    1.3715   15.2954 C   0  0  0  0  0  0  0  0  0  0  0  0
    8.5460    2.0588   15.8767 C   0  0  0  0  0  0  0  0  0  0  0  0
    8.7307    3.1381   16.7027 C   0  0  0  0  0  0  0  0  0  0  0  0
  1 15  2  0
  1 16  1  0
 17  1  1  0
 19  2  2  0
  2 20  1  0
  2 27  1  0
 20  3  2  0
  3 21  1  0
 21  4  2  0
  4 24  1  0
  4 25  1  0
  5 25  1  1
 20  6  1  0
  6 26  2  0
  8  7  1  0
  9  8  2  0
  8 35  1  0
 10  9  1  0
 11 10  1  0
 10 33  2  0
 11 12  1  6
 11 31  2  0
 11 32  2  0
 13 12  1  0
 13 14  2  0
 29 13  1  0
 15 14  1  0
 18 17  1  0
 17 29  2  0
 18 19  1  0
 18 28  1  0
 21 22  1  0
 22 23  2  0
 22 26  1  0
 23 24  1  0
 27 28  2  0
 29 30  1  0
 33 34  1  0
 34 35  2  0
M  END
$$$$
