
     RDKit          3D

 35 39  0  0  0  0  0  0  0  0999 V2000
   10.4681    0.2515   11.6130 C   0  0  0  0  0  0  0  0  0  0  0  0
   10.5199    1.4149    7.2962 C   0  0  0  0  0  0  0  0  0  0  0  0
   12.3774    1.3855    5.6554 C   0  0  0  0  0  0  0  0  0  0  0  0
   14.1424    1.3317    3.8202 C   0  0  0  0  0  0  0  0  0  0  0  0
   16.6127    1.5475    3.9554 C   0  0  0  0  0  0  0  0  0  0  0  0
   10.1679    1.1631    4.8520 C   0  0  0  0  0  0  0  0  0  0  0  0
    7.5111    2.7076   18.4578 Br  0  0  0  0  0  0  0  0  0  0  0  0
    8.4362    3.8024   17.1979 C   0  0  0  0  0  0  0  0  0  0  0  0
    9.6965    3.4436   16.7763 C   0  0  0  0  0  0  0  0  0  0  0  0
   10.4049    4.2143   15.8588 C   0  0  0  0  0  0  0  0  0  0  0  0
   12.0031    3.7691   15.3296 S   0  0  1  0  0  6  0  0  0  0  0  0
   12.0020    3.5612   13.6418 N   0  0  0  0  0  0  0  0  0  0  0  0
   11.4885    2.4463   12.9336 C   0  0  0  0  0  0  0  0  0  0  0  0
   11.2499    1.2849   13.6306 C   0  0  0  0  0  0  0  0  0  0  0  0
   10.7345    0.1777   12.9607 C   0  0  0  0  0  0  0  0  0  0  0  0
    9.9610   -0.8548   10.9796 F   0  0  0  0  0  0  0  0  0  0  0  0
   10.7029    1.4222   10.8852 C   0  0  0  0  0  0  0  0  0  0  0  0
   10.4129    1.4546    9.4926 N   0  0  0  0  0  0  0  0  0  0  0  0
   11.2570    1.3081    8.4493 C   0  0  0  0  0  0  0  0  0  0  0  0
   11.0238    1.3197    5.9175 C   0  0  0  0  0  0  0  0  0  0  0  0
   12.8919    1.2998    4.3715 C   0  0  0  0  0  0  0  0  0  0  0  0
   11.9900    1.1444    3.3518 C   0  0  0  0  0  0  0  0  0  0  0  0
   12.7115    1.0873    2.2262 N   0  0  0  0  0  0  0  0  0  0  0  0
   13.9900    1.1957    2.4736 N   0  0  0  0  0  0  0  0  0  0  0  0
   15.3395    1.4735    4.4834 O   0  0  0  0  0  0  0  0  0  0  0  0
   10.6554    1.0798    3.6132 N   0  0  0  0  0  0  0  0  0  0  0  0
    9.2459    1.6235    7.6439 N   0  0  0  0  0  0  0  0  0  0  0  0
    9.2178    1.6415    8.9637 N   0  0  0  0  0  0  0  0  0  0  0  0
   11.2083    2.4788   11.5868 C   0  0  0  0  0  0  0  0  0  0  0  0
   11.4497    3.6292   10.9208 F   0  0  0  0  0  0  0  0  0  0  0  0
   13.0351    4.7600   15.7912 O   0  0  0  0  0  0  0  0  0  0  0  0
   12.3292    2.4547   15.9999 O   0  0  0  0  0  0  0  0  0  0  0  0
    9.8050    5.3497   15.3847 C   0  0  0  0  0  0  0  0  0  0  0  0
    8.5245    5.7037   15.8203 C   0  0  0  0  0  0  0  0  0  0  0  0
    7.8229    4.9472   16.7241 C   0  0  0  0  0  0  0  0  0  0  0  0
  1 15  2  0
  1 16  1  0
 17  1  1  0
 19  2  2  0
  2 20  1  0
  2 27  1  0
 20  3  2  0
  3 21  1  0
 21  4  2  0
  4 24  1  0
  4 25  1  0
  5 25  1  1
 20  6  1  0
  6 26  2  0
  8  7  1  0
  9  8  2  0
  8 35  1  0
 10  9  1  0
 11 10  1  0
 10 33  2  0
 11 12  1  6
 11 31  2  0
 11 32  2  0
 13 12  1  0
 13 14  2  0
 29 13  1  0
 15 14  1  0
 18 17  1  0
 17 29  2  0
 18 19  1  0
 18 28  1  0
 21 22  1  0
 22 23  2  0
 22 26  1  0
 23 24  1  0
 27 28  2  0
 29 30  1  0
 33 34  1  0
 34 35  2  0
M  END
$$$$
