
     RDKit          3D

 35 39  0  0  0  0  0  0  0  0999 V2000
   10.8156    3.0436    9.2344 C   0  0  0  0  0  0  0  0  0  0  0  0
   12.3307    2.0701    5.0588 C   0  0  0  0  0  0  0  0  0  0  0  0
   13.7779    0.5851    3.7566 C   0  0  0  0  0  0  0  0  0  0  0  0
   15.0603   -0.9652    2.1962 C   0  0  0  0  0  0  0  0  0  0  0  0
   17.3716   -1.8417    2.2589 C   0  0  0  0  0  0  0  0  0  0  0  0
   11.6534    1.1721    2.9064 C   0  0  0  0  0  0  0  0  0  0  0  0
    9.6222    1.5450   16.3255 Br  0  0  0  0  0  0  0  0  0  0  0  0
   10.9452    0.8054   15.1490 C   0  0  0  0  0  0  0  0  0  0  0  0
   11.9805    1.5614   14.6709 C   0  0  0  0  0  0  0  0  0  0  0  0
   12.9560    1.0404   13.8115 C   0  0  0  0  0  0  0  0  0  0  0  0
   14.2543    1.9979   13.2150 S   0  0  1  0  0  6  0  0  0  0  0  0
   14.2725    2.2694   11.5282 N   0  0  0  0  0  0  0  0  0  0  0  0
   13.1114    2.5146   10.7762 C   0  0  0  0  0  0  0  0  0  0  0  0
   11.9053    2.8170   11.3561 C   0  0  0  0  0  0  0  0  0  0  0  0
   10.7653    3.0795   10.5955 C   0  0  0  0  0  0  0  0  0  0  0  0
    9.6998    3.3000    8.4637 F   0  0  0  0  0  0  0  0  0  0  0  0
   12.0107    2.7439    8.6195 C   0  0  0  0  0  0  0  0  0  0  0  0
   12.0754    2.7035    7.1782 N   0  0  0  0  0  0  0  0  0  0  0  0
   12.3949    1.6627    6.3919 C   0  0  0  0  0  0  0  0  0  0  0  0
   12.6020    1.2538    3.8822 C   0  0  0  0  0  0  0  0  0  0  0  0
   14.0173   -0.1818    2.6374 C   0  0  0  0  0  0  0  0  0  0  0  0
   13.0060   -0.2212    1.6800 C   0  0  0  0  0  0  0  0  0  0  0  0
   13.4635   -1.0222    0.6935 N   0  0  0  0  0  0  0  0  0  0  0  0
   14.6618   -1.4607    0.9868 N   0  0  0  0  0  0  0  0  0  0  0  0
   16.2550   -1.2167    2.8104 O   0  0  0  0  0  0  0  0  0  0  0  0
   11.8422    0.4366    1.7972 N   0  0  0  0  0  0  0  0  0  0  0  0
   11.9711    3.3528    5.1026 N   0  0  0  0  0  0  0  0  0  0  0  0
   11.8213    3.7202    6.3769 N   0  0  0  0  0  0  0  0  0  0  0  0
   13.1233    2.4877    9.3748 C   0  0  0  0  0  0  0  0  0  0  0  0
   14.3197    2.1885    8.8080 F   0  0  0  0  0  0  0  0  0  0  0  0
   14.3250    3.3383   13.9440 O   0  0  0  0  0  0  0  0  0  0  0  0
   15.5471    1.2475   13.5316 O   0  0  0  0  0  0  0  0  0  0  0  0
   12.7882   -0.3054   13.4834 C   0  0  0  0  0  0  0  0  0  0  0  0
   11.7477   -1.0694   13.9626 C   0  0  0  0  0  0  0  0  0  0  0  0
   10.8151   -0.5197   14.8013 C   0  0  0  0  0  0  0  0  0  0  0  0
  1 15  2  0
  1 16  1  0
 17  1  1  0
 19  2  2  0
  2 20  1  0
  2 27  1  0
 20  3  2  0
  3 21  1  0
 21  4  2  0
  4 24  1  0
  4 25  1  0
 25  5  1  0
 20  6  1  0
  6 26  2  0
  8  7  1  0
  9  8  2  0
  8 35  1  0
 10  9  1  0
 11 10  1  0
 10 33  2  0
 11 12  1  6
 11 31  2  0
 11 32  2  0
 13 12  1  0
 13 14  2  0
 29 13  1  0
 15 14  1  0
 18 17  1  0
 17 29  2  0
 18 19  1  0
 18 28  1  0
 21 22  1  0
 22 23  2  0
 22 26  1  0
 23 24  1  0
 27 28  2  0
 29 30  1  0
 33 34  1  0
 34 35  2  0
M  END
$$$$
