
     RDKit          3D

 35 39  0  0  0  0  0  0  0  0999 V2000
   12.8701    1.8777   11.9313 C   0  0  0  0  0  0  0  0  0  0  0  0
   10.8399    1.4707    8.0818 C   0  0  0  0  0  0  0  0  0  0  0  0
   12.3025    1.3620    6.0838 C   0  0  0  0  0  0  0  0  0  0  0  0
   13.6326    1.2283    3.9161 C   0  0  0  0  0  0  0  0  0  0  0  0
   16.0851    1.2742    3.5281 C   0  0  0  0  0  0  0  0  0  0  0  0
    9.9677    1.1876    5.7752 C   0  0  0  0  0  0  0  0  0  0  0  0
    6.3460    0.8183   16.2604 Br  0  0  0  0  0  0  0  0  0  0  0  0
    6.9472    2.6277   16.1819 C   0  0  0  0  0  0  0  0  0  0  0  0
    8.2932    2.8968   16.0776 C   0  0  0  0  0  0  0  0  0  0  0  0
    8.7729    4.2021   16.0177 C   0  0  0  0  0  0  0  0  0  0  0  0
   10.4752    4.5474   15.8948 S   0  0  1  0  0  6  0  0  0  0  0  0
   10.8986    4.7279   14.2577 N   0  0  0  0  0  0  0  0  0  0  0  0
   11.5566    3.7674   13.4499 C   0  0  0  0  0  0  0  0  0  0  0  0
   12.7424    3.2375   13.9023 C   0  0  0  0  0  0  0  0  0  0  0  0
   13.4037    2.2831   13.1328 C   0  0  0  0  0  0  0  0  0  0  0  0
   13.5436    0.9362   11.1949 F   0  0  0  0  0  0  0  0  0  0  0  0
   11.6658    2.4030   11.4527 C   0  0  0  0  0  0  0  0  0  0  0  0
   11.1498    1.9551   10.2047 N   0  0  0  0  0  0  0  0  0  0  0  0
   11.7105    2.0370    8.9793 C   0  0  0  0  0  0  0  0  0  0  0  0
   11.0350    1.3383    6.6299 C   0  0  0  0  0  0  0  0  0  0  0  0
   12.5285    1.2405    4.7220 C   0  0  0  0  0  0  0  0  0  0  0  0
   11.4260    1.0931    3.9218 C   0  0  0  0  0  0  0  0  0  0  0  0
   11.8887    0.9970    2.6698 N   0  0  0  0  0  0  0  0  0  0  0  0
   13.1927    1.0740    2.6363 N   0  0  0  0  0  0  0  0  0  0  0  0
   14.9468    1.3480    4.3054 O   0  0  0  0  0  0  0  0  0  0  0  0
   10.1770    1.0700    4.4631 N   0  0  0  0  0  0  0  0  0  0  0  0
    9.7671    1.0529    8.7617 N   0  0  0  0  0  0  0  0  0  0  0  0
    9.9857    1.3583   10.0274 N   0  0  0  0  0  0  0  0  0  0  0  0
   11.0566    3.3349   12.2430 C   0  0  0  0  0  0  0  0  0  0  0  0
    9.8905    3.8677   11.8170 F   0  0  0  0  0  0  0  0  0  0  0  0
   10.8601    5.7380   16.7281 O   0  0  0  0  0  0  0  0  0  0  0  0
   11.2003    3.3555   16.4752 O   0  0  0  0  0  0  0  0  0  0  0  0
    7.8575    5.2188   16.0662 C   0  0  0  0  0  0  0  0  0  0  0  0
    6.4930    4.9330   16.1721 C   0  0  0  0  0  0  0  0  0  0  0  0
    6.0160    3.6483   16.2314 C   0  0  0  0  0  0  0  0  0  0  0  0
  1 15  2  0
  1 16  1  0
 17  1  1  0
 19  2  2  0
  2 20  1  0
  2 27  1  0
 20  3  2  0
  3 21  1  0
 21  4  2  0
  4 24  1  0
  4 25  1  0
  5 25  1  1
 20  6  1  0
  6 26  2  0
  8  7  1  0
  9  8  2  0
  8 35  1  0
 10  9  1  0
 11 10  1  0
 10 33  2  0
 11 12  1  6
 11 31  2  0
 11 32  2  0
 13 12  1  0
 13 14  2  0
 29 13  1  0
 15 14  1  0
 18 17  1  0
 17 29  2  0
 18 19  1  0
 18 28  1  0
 21 22  1  0
 22 23  2  0
 22 26  1  0
 23 24  1  0
 27 28  2  0
 29 30  1  0
 33 34  1  0
 34 35  2  0
M  END
$$$$
