
     RDKit          3D

 35 39  0  0  0  0  0  0  0  0999 V2000
   10.5818   -0.0963   11.9939 C   0  0  0  0  0  0  0  0  0  0  0  0
   10.7459    0.9598    7.5344 C   0  0  0  0  0  0  0  0  0  0  0  0
   12.5299    1.5122    5.9508 C   0  0  0  0  0  0  0  0  0  0  0  0
   14.1773    2.0510    4.0857 C   0  0  0  0  0  0  0  0  0  0  0  0
   16.5990    2.5505    4.0839 C   0  0  0  0  0  0  0  0  0  0  0  0
   10.3636    1.0364    5.1374 C   0  0  0  0  0  0  0  0  0  0  0  0
    7.0968    5.8234   13.8951 Br  0  0  0  0  0  0  0  0  0  0  0  0
    8.3292    4.8551   15.0020 C   0  0  0  0  0  0  0  0  0  0  0  0
    9.6570    4.7646   14.6849 C   0  0  0  0  0  0  0  0  0  0  0  0
   10.5723    4.0628   15.4794 C   0  0  0  0  0  0  0  0  0  0  0  0
   12.2401    3.9541   15.0734 S   0  0  1  0  0  6  0  0  0  0  0  0
   12.5977    3.2693   13.5494 N   0  0  0  0  0  0  0  0  0  0  0  0
   11.9392    2.1371   13.0414 C   0  0  0  0  0  0  0  0  0  0  0  0
   11.5470    1.0908   13.8376 C   0  0  0  0  0  0  0  0  0  0  0  0
   10.8745   -0.0178   13.3222 C   0  0  0  0  0  0  0  0  0  0  0  0
    9.9174   -1.1837   11.4639 F   0  0  0  0  0  0  0  0  0  0  0  0
   10.9604    0.9369   11.1660 C   0  0  0  0  0  0  0  0  0  0  0  0
   10.6551    0.8643    9.7572 N   0  0  0  0  0  0  0  0  0  0  0  0
   11.4465    1.1837    8.7202 C   0  0  0  0  0  0  0  0  0  0  0  0
   11.2332    1.1765    6.1780 C   0  0  0  0  0  0  0  0  0  0  0  0
   12.9730    1.7133    4.6620 C   0  0  0  0  0  0  0  0  0  0  0  0
   12.0324    1.5539    3.6467 C   0  0  0  0  0  0  0  0  0  0  0  0
   12.6906    1.7982    2.4929 N   0  0  0  0  0  0  0  0  0  0  0  0
   13.9430    2.0891    2.7402 N   0  0  0  0  0  0  0  0  0  0  0  0
   15.3732    2.3020    4.6979 O   0  0  0  0  0  0  0  0  0  0  0  0
   10.7503    1.2225    3.8635 N   0  0  0  0  0  0  0  0  0  0  0  0
    9.5501    0.5105    7.9148 N   0  0  0  0  0  0  0  0  0  0  0  0
    9.5081    0.4578    9.2478 N   0  0  0  0  0  0  0  0  0  0  0  0
   11.6201    2.0200   11.6815 C   0  0  0  0  0  0  0  0  0  0  0  0
   12.0104    3.0587   10.9000 F   0  0  0  0  0  0  0  0  0  0  0  0
   12.9208    5.3166   15.1881 O   0  0  0  0  0  0  0  0  0  0  0  0
   12.8944    3.0385   16.1069 O   0  0  0  0  0  0  0  0  0  0  0  0
   10.0240    3.4660   16.6152 C   0  0  0  0  0  0  0  0  0  0  0  0
    8.6883    3.5548   16.9377 C   0  0  0  0  0  0  0  0  0  0  0  0
    7.8274    4.2516   16.1323 C   0  0  0  0  0  0  0  0  0  0  0  0
  1 15  2  0
  1 16  1  0
 17  1  1  0
 19  2  2  0
  2 20  1  0
  2 27  1  0
 20  3  2  0
  3 21  1  0
 21  4  2  0
  4 24  1  0
  4 25  1  0
 25  5  1  0
 20  6  1  0
  6 26  2  0
  8  7  1  0
  9  8  2  0
  8 35  1  0
 10  9  1  0
 11 10  1  0
 10 33  2  0
 11 12  1  6
 11 31  2  0
 11 32  2  0
 13 12  1  0
 13 14  2  0
 29 13  1  0
 15 14  1  0
 18 17  1  0
 17 29  2  0
 18 19  1  0
 18 28  1  0
 21 22  1  0
 22 23  2  0
 22 26  1  0
 23 24  1  0
 27 28  2  0
 29 30  1  0
 33 34  1  0
 34 35  2  0
M  END
$$$$
