
     RDKit          3D

 35 39  0  0  0  0  0  0  0  0999 V2000
   13.6256    2.3789   11.7242 C   0  0  0  0  0  0  0  0  0  0  0  0
   11.1220    1.5268    8.2532 C   0  0  0  0  0  0  0  0  0  0  0  0
   12.3194    1.3263    6.0923 C   0  0  0  0  0  0  0  0  0  0  0  0
   13.3637    1.0960    3.7810 C   0  0  0  0  0  0  0  0  0  0  0  0
   15.7439    1.1602    3.0753 C   0  0  0  0  0  0  0  0  0  0  0  0
    9.9631    1.1684    6.0876 C   0  0  0  0  0  0  0  0  0  0  0  0
    8.4307   -0.1171   17.1433 Br  0  0  0  0  0  0  0  0  0  0  0  0
    8.4705    1.5798   16.2712 C   0  0  0  0  0  0  0  0  0  0  0  0
    9.5946    2.3690   16.3627 C   0  0  0  0  0  0  0  0  0  0  0  0
    9.6643    3.6129   15.7416 C   0  0  0  0  0  0  0  0  0  0  0  0
   11.0808    4.6186   15.8622 S   0  0  1  0  0  6  0  0  0  0  0  0
   11.6413    4.9948   14.3014 N   0  0  0  0  0  0  0  0  0  0  0  0
   12.3000    4.1115   13.4103 C   0  0  0  0  0  0  0  0  0  0  0  0
   13.6066    3.7733   13.6749 C   0  0  0  0  0  0  0  0  0  0  0  0
   14.2737    2.8978   12.8211 C   0  0  0  0  0  0  0  0  0  0  0  0
   14.3078    1.5192   10.9010 F   0  0  0  0  0  0  0  0  0  0  0  0
   12.2976    2.7091   11.4367 C   0  0  0  0  0  0  0  0  0  0  0  0
   11.6657    2.1491   10.2915 N   0  0  0  0  0  0  0  0  0  0  0  0
   12.0437    2.2203    8.9974 C   0  0  0  0  0  0  0  0  0  0  0  0
   11.1310    1.3381    6.7944 C   0  0  0  0  0  0  0  0  0  0  0  0
   12.3705    1.1514    4.7186 C   0  0  0  0  0  0  0  0  0  0  0  0
   11.1747    0.9874    4.0701 C   0  0  0  0  0  0  0  0  0  0  0  0
   11.4745    0.8392    2.7744 N   0  0  0  0  0  0  0  0  0  0  0  0
   12.7644    0.8993    2.5738 N   0  0  0  0  0  0  0  0  0  0  0  0
   14.7174    1.2144    3.9965 O   0  0  0  0  0  0  0  0  0  0  0  0
   10.0039    0.9995    4.7651 N   0  0  0  0  0  0  0  0  0  0  0  0
   10.1998    1.0440    9.0922 N   0  0  0  0  0  0  0  0  0  0  0  0
   10.5556    1.4347   10.3021 N   0  0  0  0  0  0  0  0  0  0  0  0
   11.6880    3.5704   12.3030 C   0  0  0  0  0  0  0  0  0  0  0  0
   10.4043    3.9153   12.0613 F   0  0  0  0  0  0  0  0  0  0  0  0
   10.8214    5.8423   16.6960 O   0  0  0  0  0  0  0  0  0  0  0  0
   12.1257    3.8066   16.5917 O   0  0  0  0  0  0  0  0  0  0  0  0
    8.5714    4.0309   15.0312 C   0  0  0  0  0  0  0  0  0  0  0  0
    7.4355    3.2204   14.9454 C   0  0  0  0  0  0  0  0  0  0  0  0
    7.3626    1.9941   15.5556 C   0  0  0  0  0  0  0  0  0  0  0  0
  1 15  2  0
  1 16  1  0
 17  1  1  0
 19  2  2  0
  2 20  1  0
  2 27  1  0
 20  3  2  0
  3 21  1  0
 21  4  2  0
  4 24  1  0
  4 25  1  0
  5 25  1  1
 20  6  1  0
  6 26  2  0
  8  7  1  0
  9  8  2  0
  8 35  1  0
 10  9  1  0
 11 10  1  0
 10 33  2  0
 11 12  1  6
 11 31  2  0
 11 32  2  0
 13 12  1  0
 13 14  2  0
 29 13  1  0
 15 14  1  0
 18 17  1  0
 17 29  2  0
 18 19  1  0
 18 28  1  0
 21 22  1  0
 22 23  2  0
 22 26  1  0
 23 24  1  0
 27 28  2  0
 29 30  1  0
 33 34  1  0
 34 35  2  0
M  END
$$$$
