
     RDKit          3D

 35 39  0  0  0  0  0  0  0  0999 V2000
   18.6990    2.0984    5.5050 C   0  0  0  0  0  0  0  0  0  0  0  0
   14.2279    1.6341    4.5399 C   0  0  0  0  0  0  0  0  0  0  0  0
   12.1484    1.3415    5.7991 C   0  0  0  0  0  0  0  0  0  0  0  0
    9.8562    0.9685    6.8431 C   0  0  0  0  0  0  0  0  0  0  0  0
    9.0340    1.0889    9.1719 C   0  0  0  0  0  0  0  0  0  0  0  0
   12.1468    0.9978    3.4619 C   0  0  0  0  0  0  0  0  0  0  0  0
   18.4308    0.0457   13.8110 Br  0  0  0  0  0  0  0  0  0  0  0  0
   17.6494    1.3310   12.6198 C   0  0  0  0  0  0  0  0  0  0  0  0
   18.4104    2.2761   11.9877 C   0  0  0  0  0  0  0  0  0  0  0  0
   17.8593    3.2227   11.1148 C   0  0  0  0  0  0  0  0  0  0  0  0
   18.8234    4.4074   10.3242 S   0  0  1  0  0  6  0  0  0  0  0  0
   18.3643    4.8037    8.7269 N   0  0  0  0  0  0  0  0  0  0  0  0
   18.4908    3.9138    7.6472 C   0  0  0  0  0  0  0  0  0  0  0  0
   19.6964    3.3813    7.2656 C   0  0  0  0  0  0  0  0  0  0  0  0
   19.8036    2.4817    6.2044 C   0  0  0  0  0  0  0  0  0  0  0  0
   18.7832    1.2099    4.4522 F   0  0  0  0  0  0  0  0  0  0  0  0
   17.4726    2.6133    5.8618 C   0  0  0  0  0  0  0  0  0  0  0  0
   16.2958    2.2139    5.1279 N   0  0  0  0  0  0  0  0  0  0  0  0
   15.0550    2.0093    5.5993 C   0  0  0  0  0  0  0  0  0  0  0  0
   12.8068    1.3182    4.6110 C   0  0  0  0  0  0  0  0  0  0  0  0
   10.8050    1.0401    5.8475 C   0  0  0  0  0  0  0  0  0  0  0  0
   10.1929    0.7217    4.6371 C   0  0  0  0  0  0  0  0  0  0  0  0
    8.8999    0.4684    4.9335 N   0  0  0  0  0  0  0  0  0  0  0  0
    8.6949    0.6101    6.2188 N   0  0  0  0  0  0  0  0  0  0  0  0
   10.0077    1.1999    8.1815 O   0  0  0  0  0  0  0  0  0  0  0  0
   10.8367    0.6967    3.4600 N   0  0  0  0  0  0  0  0  0  0  0  0
   15.0168    1.6295    3.4656 N   0  0  0  0  0  0  0  0  0  0  0  0
   16.2523    1.9783    3.8306 N   0  0  0  0  0  0  0  0  0  0  0  0
   17.3782    3.4955    6.9043 C   0  0  0  0  0  0  0  0  0  0  0  0
   16.1890    4.0257    7.2875 F   0  0  0  0  0  0  0  0  0  0  0  0
   18.9118    5.6849   11.1569 O   0  0  0  0  0  0  0  0  0  0  0  0
   20.2385    3.8398   10.2238 O   0  0  0  0  0  0  0  0  0  0  0  0
   16.4782    3.1251   10.9423 C   0  0  0  0  0  0  0  0  0  0  0  0
   15.7089    2.1754   11.5767 C   0  0  0  0  0  0  0  0  0  0  0  0
   16.2889    1.2682   12.4227 C   0  0  0  0  0  0  0  0  0  0  0  0
  1 15  2  0
  1 16  1  0
 17  1  1  0
 19  2  2  0
  2 20  1  0
  2 27  1  0
 20  3  2  0
  3 21  1  0
 21  4  2  0
  4 24  1  0
  4 25  1  0
 25  5  1  0
 20  6  1  0
  6 26  2  0
  8  7  1  0
  9  8  2  0
  8 35  1  0
 10  9  1  0
 11 10  1  0
 10 33  2  0
 11 12  1  6
 11 31  2  0
 11 32  2  0
 13 12  1  0
 13 14  2  0
 29 13  1  0
 15 14  1  0
 18 17  1  0
 17 29  2  0
 18 19  1  0
 18 28  1  0
 21 22  1  0
 22 23  2  0
 22 26  1  0
 23 24  1  0
 27 28  2  0
 29 30  1  0
 33 34  1  0
 34 35  2  0
M  END
$$$$
