
     RDKit          3D

 35 39  0  0  0  0  0  0  0  0999 V2000
   13.1513    3.8639   10.8319 C   0  0  0  0  0  0  0  0  0  0  0  0
   11.1834    1.7736    7.5192 C   0  0  0  0  0  0  0  0  0  0  0  0
   12.5190    1.2541    5.4970 C   0  0  0  0  0  0  0  0  0  0  0  0
   13.7117    0.6794    3.3214 C   0  0  0  0  0  0  0  0  0  0  0  0
   16.1272    0.7382    2.7473 C   0  0  0  0  0  0  0  0  0  0  0  0
   10.1687    1.0637    5.3680 C   0  0  0  0  0  0  0  0  0  0  0  0
    7.0489    1.9391   14.5358 Br  0  0  0  0  0  0  0  0  0  0  0  0
    8.5651    2.8552   15.2453 C   0  0  0  0  0  0  0  0  0  0  0  0
    9.7903    2.2285   15.2743 C   0  0  0  0  0  0  0  0  0  0  0  0
   10.9208    2.8614   15.7834 C   0  0  0  0  0  0  0  0  0  0  0  0
   12.4708    2.0692   15.8304 S   0  0  1  0  0  6  0  0  0  0  0  0
   12.8708    1.5172   14.2725 N   0  0  0  0  0  0  0  0  0  0  0  0
   12.9471    2.3046   13.0967 C   0  0  0  0  0  0  0  0  0  0  0  0
   13.7160    3.4447   13.1244 C   0  0  0  0  0  0  0  0  0  0  0  0
   13.8171    4.2305   11.9787 C   0  0  0  0  0  0  0  0  0  0  0  0
   13.2694    4.6572    9.7189 F   0  0  0  0  0  0  0  0  0  0  0  0
   12.3646    2.7089   10.7817 C   0  0  0  0  0  0  0  0  0  0  0  0
   11.6934    2.3672    9.5746 N   0  0  0  0  0  0  0  0  0  0  0  0
   12.2221    2.0085    8.3853 C   0  0  0  0  0  0  0  0  0  0  0  0
   11.2876    1.3587    6.1118 C   0  0  0  0  0  0  0  0  0  0  0  0
   12.6597    0.8668    4.1738 C   0  0  0  0  0  0  0  0  0  0  0  0
   11.5091    0.5861    3.4848 C   0  0  0  0  0  0  0  0  0  0  0  0
   11.8928    0.2411    2.2502 N   0  0  0  0  0  0  0  0  0  0  0  0
   13.1927    0.2874    2.1247 N   0  0  0  0  0  0  0  0  0  0  0  0
   15.0481    0.8494    3.6009 O   0  0  0  0  0  0  0  0  0  0  0  0
   10.2957    0.6902    4.0938 N   0  0  0  0  0  0  0  0  0  0  0  0
   10.0424    1.9890    8.1820 N   0  0  0  0  0  0  0  0  0  0  0  0
   10.3841    2.3422    9.4074 N   0  0  0  0  0  0  0  0  0  0  0  0
   12.2975    1.9732   11.9298 C   0  0  0  0  0  0  0  0  0  0  0  0
   11.5477    0.8493   11.9238 F   0  0  0  0  0  0  0  0  0  0  0  0
   13.5294    2.9588   16.4202 O   0  0  0  0  0  0  0  0  0  0  0  0
   12.3239    0.8886   16.7620 O   0  0  0  0  0  0  0  0  0  0  0  0
   10.7755    4.1370   16.2586 C   0  0  0  0  0  0  0  0  0  0  0  0
    9.5260    4.7632   16.2237 C   0  0  0  0  0  0  0  0  0  0  0  0
    8.4096    4.1432   15.7229 C   0  0  0  0  0  0  0  0  0  0  0  0
  1 15  2  0
  1 16  1  0
 17  1  1  0
 19  2  2  0
  2 20  1  0
  2 27  1  0
 20  3  2  0
  3 21  1  0
 21  4  2  0
  4 24  1  0
  4 25  1  0
  5 25  1  1
 20  6  1  0
  6 26  2  0
  8  7  1  0
  9  8  2  0
  8 35  1  0
 10  9  1  0
 11 10  1  0
 10 33  2  0
 11 12  1  6
 11 31  2  0
 11 32  2  0
 13 12  1  0
 13 14  2  0
 29 13  1  0
 15 14  1  0
 18 17  1  0
 17 29  2  0
 18 19  1  0
 18 28  1  0
 21 22  1  0
 22 23  2  0
 22 26  1  0
 23 24  1  0
 27 28  2  0
 29 30  1  0
 33 34  1  0
 34 35  2  0
M  END
$$$$
