
     RDKit          3D

 35 39  0  0  0  0  0  0  0  0999 V2000
   11.3633    0.9669   12.2425 C   0  0  0  0  0  0  0  0  0  0  0  0
   10.7236    1.5714    7.7727 C   0  0  0  0  0  0  0  0  0  0  0  0
   12.1860    1.5444    5.8090 C   0  0  0  0  0  0  0  0  0  0  0  0
   13.4576    1.4552    3.6049 C   0  0  0  0  0  0  0  0  0  0  0  0
   15.8405    1.7774    3.0286 C   0  0  0  0  0  0  0  0  0  0  0  0
    9.8743    1.1395    5.5388 C   0  0  0  0  0  0  0  0  0  0  0  0
   17.9260    2.3874    8.4930 Br  0  0  0  0  0  0  0  0  0  0  0  0
   17.6352    2.0175   10.3532 C   0  0  0  0  0  0  0  0  0  0  0  0
   16.9237    2.8723   11.1500 C   0  0  0  0  0  0  0  0  0  0  0  0
   16.7005    2.6205   12.5096 C   0  0  0  0  0  0  0  0  0  0  0  0
   15.8048    3.7005   13.5042 S   0  0  1  0  0  6  0  0  0  0  0  0
   14.1924    3.9994   13.0244 N   0  0  0  0  0  0  0  0  0  0  0  0
   13.2630    2.9766   12.7722 C   0  0  0  0  0  0  0  0  0  0  0  0
   12.8900    2.0648   13.7272 C   0  0  0  0  0  0  0  0  0  0  0  0
   11.9492    1.0673   13.4685 C   0  0  0  0  0  0  0  0  0  0  0  0
   10.4307   -0.0121   11.9659 F   0  0  0  0  0  0  0  0  0  0  0  0
   11.7142    1.8665   11.2607 C   0  0  0  0  0  0  0  0  0  0  0  0
   11.0995    1.7695    9.9584 N   0  0  0  0  0  0  0  0  0  0  0  0
   11.7011    1.6178    8.7673 C   0  0  0  0  0  0  0  0  0  0  0  0
   10.9421    1.4163    6.3400 C   0  0  0  0  0  0  0  0  0  0  0  0
   12.3739    1.3946    4.4525 C   0  0  0  0  0  0  0  0  0  0  0  0
   11.2405    1.1129    3.6928 C   0  0  0  0  0  0  0  0  0  0  0  0
   11.6685    1.0118    2.4159 N   0  0  0  0  0  0  0  0  0  0  0  0
   12.9613    1.2102    2.3557 N   0  0  0  0  0  0  0  0  0  0  0  0
   14.7657    1.7048    3.9123 O   0  0  0  0  0  0  0  0  0  0  0  0
   10.0090    0.9849    4.2103 N   0  0  0  0  0  0  0  0  0  0  0  0
    9.5636    1.6986    8.4168 N   0  0  0  0  0  0  0  0  0  0  0  0
    9.8020    1.8165    9.7247 N   0  0  0  0  0  0  0  0  0  0  0  0
   12.6385    2.8412   11.5247 C   0  0  0  0  0  0  0  0  0  0  0  0
   13.0117    3.7468   10.5850 F   0  0  0  0  0  0  0  0  0  0  0  0
   15.8225    3.2438   14.9617 O   0  0  0  0  0  0  0  0  0  0  0  0
   16.5144    5.0527   13.4504 O   0  0  0  0  0  0  0  0  0  0  0  0
   17.2594    1.4334   12.9841 C   0  0  0  0  0  0  0  0  0  0  0  0
   17.9760    0.5706   12.1854 C   0  0  0  0  0  0  0  0  0  0  0  0
   18.1707    0.8556   10.8601 C   0  0  0  0  0  0  0  0  0  0  0  0
  1 15  2  0
  1 16  1  0
 17  1  1  0
 19  2  2  0
  2 20  1  0
  2 27  1  0
 20  3  2  0
  3 21  1  0
 21  4  2  0
  4 24  1  0
  4 25  1  0
 25  5  1  0
 20  6  1  0
  6 26  2  0
  8  7  1  0
  9  8  2  0
  8 35  1  0
 10  9  1  0
 11 10  1  0
 10 33  2  0
 11 12  1  6
 11 31  2  0
 11 32  2  0
 13 12  1  0
 13 14  2  0
 29 13  1  0
 15 14  1  0
 18 17  1  0
 17 29  2  0
 18 19  1  0
 18 28  1  0
 21 22  1  0
 22 23  2  0
 22 26  1  0
 23 24  1  0
 27 28  2  0
 29 30  1  0
 33 34  1  0
 34 35  2  0
M  END
$$$$
