
     RDKit          3D

 35 39  0  0  0  0  0  0  0  0999 V2000
   10.7000    0.3324   11.9571 C   0  0  0  0  0  0  0  0  0  0  0  0
   10.4949    1.5066    7.6056 C   0  0  0  0  0  0  0  0  0  0  0  0
   12.3345    1.8260    6.0215 C   0  0  0  0  0  0  0  0  0  0  0  0
   14.0417    2.1176    4.1551 C   0  0  0  0  0  0  0  0  0  0  0  0
   16.4814    2.5203    4.1619 C   0  0  0  0  0  0  0  0  0  0  0  0
   10.1571    1.4152    5.2024 C   0  0  0  0  0  0  0  0  0  0  0  0
    5.7598    4.9250   14.0463 Br  0  0  0  0  0  0  0  0  0  0  0  0
    7.1397    4.3802   15.2630 C   0  0  0  0  0  0  0  0  0  0  0  0
    8.4643    4.5438   14.9623 C   0  0  0  0  0  0  0  0  0  0  0  0
    9.4863    4.1529   15.8366 C   0  0  0  0  0  0  0  0  0  0  0  0
   11.1493    4.3622   15.4507 S   0  0  1  0  0  6  0  0  0  0  0  0
   11.5970    4.0003   13.8420 N   0  0  0  0  0  0  0  0  0  0  0  0
   11.3144    2.7712   13.2231 C   0  0  0  0  0  0  0  0  0  0  0  0
   11.3021    1.5834   13.9097 C   0  0  0  0  0  0  0  0  0  0  0  0
   10.9984    0.3728   13.2858 C   0  0  0  0  0  0  0  0  0  0  0  0
   10.3969   -0.8542   11.3208 F   0  0  0  0  0  0  0  0  0  0  0  0
   10.7025    1.5066   11.2376 C   0  0  0  0  0  0  0  0  0  0  0  0
   10.3874    1.4755    9.8295 N   0  0  0  0  0  0  0  0  0  0  0  0
   11.2285    1.5949    8.7893 C   0  0  0  0  0  0  0  0  0  0  0  0
   11.0165    1.5861    6.2469 C   0  0  0  0  0  0  0  0  0  0  0  0
   12.8100    1.8979    4.7305 C   0  0  0  0  0  0  0  0  0  0  0  0
   11.8783    1.7139    3.7112 C   0  0  0  0  0  0  0  0  0  0  0  0
   12.5687    1.8270    2.5560 N   0  0  0  0  0  0  0  0  0  0  0  0
   13.8321    2.0626    2.8061 N   0  0  0  0  0  0  0  0  0  0  0  0
   15.2403    2.3458    4.7708 O   0  0  0  0  0  0  0  0  0  0  0  0
   10.5751    1.4766    3.9262 N   0  0  0  0  0  0  0  0  0  0  0  0
    9.2302    1.3359    7.9904 N   0  0  0  0  0  0  0  0  0  0  0  0
    9.1789    1.3190    9.3240 N   0  0  0  0  0  0  0  0  0  0  0  0
   11.0021    2.6890   11.8591 C   0  0  0  0  0  0  0  0  0  0  0  0
   11.0156    3.8677   11.1863 F   0  0  0  0  0  0  0  0  0  0  0  0
   11.6186    5.7729   15.8013 O   0  0  0  0  0  0  0  0  0  0  0  0
   11.9392    3.3957   16.3320 O   0  0  0  0  0  0  0  0  0  0  0  0
    9.0473    3.5858   17.0334 C   0  0  0  0  0  0  0  0  0  0  0  0
    7.7152    3.4195   17.3397 C   0  0  0  0  0  0  0  0  0  0  0  0
    6.7476    3.8160   16.4554 C   0  0  0  0  0  0  0  0  0  0  0  0
  1 15  2  0
  1 16  1  0
 17  1  1  0
 19  2  2  0
  2 20  1  0
  2 27  1  0
 20  3  2  0
  3 21  1  0
 21  4  2  0
  4 24  1  0
  4 25  1  0
 25  5  1  0
 20  6  1  0
  6 26  2  0
  8  7  1  0
  9  8  2  0
  8 35  1  0
 10  9  1  0
 11 10  1  0
 10 33  2  0
 11 12  1  6
 11 31  2  0
 11 32  2  0
 13 12  1  0
 13 14  2  0
 29 13  1  0
 15 14  1  0
 18 17  1  0
 17 29  2  0
 18 19  1  0
 18 28  1  0
 21 22  1  0
 22 23  2  0
 22 26  1  0
 23 24  1  0
 27 28  2  0
 29 30  1  0
 33 34  1  0
 34 35  2  0
M  END
$$$$
