
     RDKit          3D

 35 39  0  0  0  0  0  0  0  0999 V2000
   11.1075   -0.5128   11.2210 C   0  0  0  0  0  0  0  0  0  0  0  0
   10.6995    0.9617    7.0552 C   0  0  0  0  0  0  0  0  0  0  0  0
   12.5344    1.1119    5.3958 C   0  0  0  0  0  0  0  0  0  0  0  0
   14.2742    1.2578    3.5417 C   0  0  0  0  0  0  0  0  0  0  0  0
   16.7484    1.4333    3.6648 C   0  0  0  0  0  0  0  0  0  0  0  0
   10.3147    0.9650    4.6031 C   0  0  0  0  0  0  0  0  0  0  0  0
   15.2907    2.2479   18.1929 Br  0  0  0  0  0  0  0  0  0  0  0  0
   13.8437    3.3707   17.6570 C   0  0  0  0  0  0  0  0  0  0  0  0
   12.9484    2.9266   16.7103 C   0  0  0  0  0  0  0  0  0  0  0  0
   11.8796    3.7142   16.2920 C   0  0  0  0  0  0  0  0  0  0  0  0
   10.7500    3.1602   15.0881 S   0  0  1  0  0  6  0  0  0  0  0  0
   11.5766    2.8619   13.6322 N   0  0  0  0  0  0  0  0  0  0  0  0
   11.4210    1.7289   12.7954 C   0  0  0  0  0  0  0  0  0  0  0  0
   11.5735    0.4809   13.3530 C   0  0  0  0  0  0  0  0  0  0  0  0
   11.4146   -0.6498   12.5550 C   0  0  0  0  0  0  0  0  0  0  0  0
   10.9570   -1.6441   10.4596 F   0  0  0  0  0  0  0  0  0  0  0  0
   10.9477    0.7462   10.6339 C   0  0  0  0  0  0  0  0  0  0  0  0
   10.6299    0.8418    9.2503 N   0  0  0  0  0  0  0  0  0  0  0  0
   11.4650    0.8556    8.1897 C   0  0  0  0  0  0  0  0  0  0  0  0
   11.1847    1.0132    5.6676 C   0  0  0  0  0  0  0  0  0  0  0  0
   13.0315    1.1631    4.1033 C   0  0  0  0  0  0  0  0  0  0  0  0
   12.1162    1.1111    3.0850 C   0  0  0  0  0  0  0  0  0  0  0  0
   12.8223    1.1750    1.9501 N   0  0  0  0  0  0  0  0  0  0  0  0
   14.1038    1.2625    2.1904 N   0  0  0  0  0  0  0  0  0  0  0  0
   15.4798    1.3347    4.2001 O   0  0  0  0  0  0  0  0  0  0  0  0
   10.7854    1.0137    3.3559 N   0  0  0  0  0  0  0  0  0  0  0  0
    9.4174    1.0111    7.4311 N   0  0  0  0  0  0  0  0  0  0  0  0
    9.4122    0.9370    8.7493 N   0  0  0  0  0  0  0  0  0  0  0  0
   11.1136    1.8224   11.4574 C   0  0  0  0  0  0  0  0  0  0  0  0
   10.9679    3.0574   10.9295 F   0  0  0  0  0  0  0  0  0  0  0  0
    9.9708    1.9674   15.5676 O   0  0  0  0  0  0  0  0  0  0  0  0
    9.7545    4.2785   14.8833 O   0  0  0  0  0  0  0  0  0  0  0  0
   11.7450    4.9546   16.8554 C   0  0  0  0  0  0  0  0  0  0  0  0
   12.6606    5.3945   17.8160 C   0  0  0  0  0  0  0  0  0  0  0  0
   13.7150    4.6217   18.2312 C   0  0  0  0  0  0  0  0  0  0  0  0
  1 15  2  0
  1 16  1  0
 17  1  1  0
 19  2  2  0
  2 20  1  0
  2 27  1  0
 20  3  2  0
  3 21  1  0
 21  4  2  0
  4 24  1  0
  4 25  1  0
  5 25  1  1
 20  6  1  0
  6 26  2  0
  8  7  1  0
  9  8  2  0
  8 35  1  0
 10  9  1  0
 11 10  1  0
 10 33  2  0
 11 12  1  6
 11 31  2  0
 11 32  2  0
 13 12  1  0
 13 14  2  0
 29 13  1  0
 15 14  1  0
 18 17  1  0
 17 29  2  0
 18 19  1  0
 18 28  1  0
 21 22  1  0
 22 23  2  0
 22 26  1  0
 23 24  1  0
 27 28  2  0
 29 30  1  0
 33 34  1  0
 34 35  2  0
M  END
$$$$
