
     RDKit          3D

 35 39  0  0  0  0  0  0  0  0999 V2000
    9.6964    0.7016   12.1083 C   0  0  0  0  0  0  0  0  0  0  0  0
   11.2119    0.3951    7.8094 C   0  0  0  0  0  0  0  0  0  0  0  0
   12.8583    1.1534    6.1189 C   0  0  0  0  0  0  0  0  0  0  0  0
   14.4051    1.8953    4.2366 C   0  0  0  0  0  0  0  0  0  0  0  0
   16.7714    2.6463    4.3021 C   0  0  0  0  0  0  0  0  0  0  0  0
   10.7245    0.4659    5.3766 C   0  0  0  0  0  0  0  0  0  0  0  0
    7.6429    3.2783   17.2638 Br  0  0  0  0  0  0  0  0  0  0  0  0
    9.2871    4.2019   16.9717 C   0  0  0  0  0  0  0  0  0  0  0  0
   10.3512    3.5397   16.4024 C   0  0  0  0  0  0  0  0  0  0  0  0
   11.5673    4.1767   16.1724 C   0  0  0  0  0  0  0  0  0  0  0  0
   12.9189    3.3405   15.4609 S   0  0  1  0  0  6  0  0  0  0  0  0
   12.6411    3.1311   13.7963 N   0  0  0  0  0  0  0  0  0  0  0  0
   11.6561    2.2996   13.2076 C   0  0  0  0  0  0  0  0  0  0  0  0
   10.5710    1.9345   13.9698 C   0  0  0  0  0  0  0  0  0  0  0  0
    9.5827    1.1270   13.4117 C   0  0  0  0  0  0  0  0  0  0  0  0
    8.7076   -0.0927   11.5853 F   0  0  0  0  0  0  0  0  0  0  0  0
   10.7909    1.0612   11.3156 C   0  0  0  0  0  0  0  0  0  0  0  0
   10.8683    0.5989    9.9722 N   0  0  0  0  0  0  0  0  0  0  0  0
   11.3429    1.2402    8.8831 C   0  0  0  0  0  0  0  0  0  0  0  0
   11.5991    0.6735    6.4179 C   0  0  0  0  0  0  0  0  0  0  0  0
   13.2615    1.4280    4.8218 C   0  0  0  0  0  0  0  0  0  0  0  0
   12.3465    1.2011    3.8275 C   0  0  0  0  0  0  0  0  0  0  0  0
   12.9549    1.5336    2.6830 N   0  0  0  0  0  0  0  0  0  0  0  0
   14.1757    1.9484    2.8951 N   0  0  0  0  0  0  0  0  0  0  0  0
   15.5757    2.2501    4.8666 O   0  0  0  0  0  0  0  0  0  0  0  0
   11.1051    0.7277    4.1252 N   0  0  0  0  0  0  0  0  0  0  0  0
   10.6641   -0.7423    8.2495 N   0  0  0  0  0  0  0  0  0  0  0  0
   10.4718   -0.5861    9.5463 N   0  0  0  0  0  0  0  0  0  0  0  0
   11.7320    1.8530   11.9082 C   0  0  0  0  0  0  0  0  0  0  0  0
   12.8058    2.2233   11.1767 F   0  0  0  0  0  0  0  0  0  0  0  0
   14.2172    4.0416   15.7486 O   0  0  0  0  0  0  0  0  0  0  0  0
   12.9936    1.9897   16.1340 O   0  0  0  0  0  0  0  0  0  0  0  0
   11.6737    5.4930   16.5329 C   0  0  0  0  0  0  0  0  0  0  0  0
   10.5860    6.1550   17.1102 C   0  0  0  0  0  0  0  0  0  0  0  0
    9.3859    5.5312   17.3385 C   0  0  0  0  0  0  0  0  0  0  0  0
  1 15  2  0
  1 16  1  0
 17  1  1  0
 19  2  2  0
  2 20  1  0
  2 27  1  0
 20  3  2  0
  3 21  1  0
 21  4  2  0
  4 24  1  0
  4 25  1  0
  5 25  1  1
 20  6  1  0
  6 26  2  0
  8  7  1  0
  9  8  2  0
  8 35  1  0
 10  9  1  0
 11 10  1  0
 10 33  2  0
 11 12  1  6
 11 31  2  0
 11 32  2  0
 13 12  1  0
 13 14  2  0
 29 13  1  0
 15 14  1  0
 18 17  1  0
 17 29  2  0
 18 19  1  0
 18 28  1  0
 21 22  1  0
 22 23  2  0
 22 26  1  0
 23 24  1  0
 27 28  2  0
 29 30  1  0
 33 34  1  0
 34 35  2  0
M  END
$$$$
