
     RDKit          3D

 35 39  0  0  0  0  0  0  0  0999 V2000
   13.9988    3.2874   10.9171 C   0  0  0  0  0  0  0  0  0  0  0  0
   11.3671    2.0337    7.7035 C   0  0  0  0  0  0  0  0  0  0  0  0
   12.5966    1.6697    5.6176 C   0  0  0  0  0  0  0  0  0  0  0  0
   13.6067    1.2265    3.3228 C   0  0  0  0  0  0  0  0  0  0  0  0
   15.9226    1.3253    2.4617 C   0  0  0  0  0  0  0  0  0  0  0  0
   10.2518    1.3837    5.6465 C   0  0  0  0  0  0  0  0  0  0  0  0
   18.7191    0.1440   15.3606 Br  0  0  0  0  0  0  0  0  0  0  0  0
   16.8466   -0.2399   15.5283 C   0  0  0  0  0  0  0  0  0  0  0  0
   15.9233    0.7569   15.6884 C   0  0  0  0  0  0  0  0  0  0  0  0
   14.5526    0.4975   15.8126 C   0  0  0  0  0  0  0  0  0  0  0  0
   13.3985    1.7569   16.0136 S   0  0  1  0  0  6  0  0  0  0  0  0
   12.4276    2.1085   14.6524 N   0  0  0  0  0  0  0  0  0  0  0  0
   12.9553    2.5187   13.4167 C   0  0  0  0  0  0  0  0  0  0  0  0
   14.1890    3.1074   13.2986 C   0  0  0  0  0  0  0  0  0  0  0  0
   14.7094    3.4901   12.0617 C   0  0  0  0  0  0  0  0  0  0  0  0
   14.4951    3.6584    9.6838 F   0  0  0  0  0  0  0  0  0  0  0  0
   12.7569    2.6981   10.9992 C   0  0  0  0  0  0  0  0  0  0  0  0
   11.9956    2.4783    9.7929 N   0  0  0  0  0  0  0  0  0  0  0  0
   12.4514    2.1428    8.5750 C   0  0  0  0  0  0  0  0  0  0  0  0
   11.4154    1.6885    6.2883 C   0  0  0  0  0  0  0  0  0  0  0  0
   12.6233    1.3411    4.2800 C   0  0  0  0  0  0  0  0  0  0  0  0
   11.3991    1.0407    3.6866 C   0  0  0  0  0  0  0  0  0  0  0  0
   11.6755    0.7549    2.3959 N   0  0  0  0  0  0  0  0  0  0  0  0
   12.9616    0.8610    2.1751 N   0  0  0  0  0  0  0  0  0  0  0  0
   14.9519    1.4278    3.4561 O   0  0  0  0  0  0  0  0  0  0  0  0
   10.2286    1.0572    4.3427 N   0  0  0  0  0  0  0  0  0  0  0  0
   10.2944    2.3117    8.4443 N   0  0  0  0  0  0  0  0  0  0  0  0
   10.6838    2.5762    9.6932 N   0  0  0  0  0  0  0  0  0  0  0  0
   12.2553    2.3267   12.2176 C   0  0  0  0  0  0  0  0  0  0  0  0
   11.0360    1.7432   12.3418 F   0  0  0  0  0  0  0  0  0  0  0  0
   12.5006    1.4882   17.2197 O   0  0  0  0  0  0  0  0  0  0  0  0
   14.1785    3.0363   16.3125 O   0  0  0  0  0  0  0  0  0  0  0  0
   14.2056   -0.8529   15.7601 C   0  0  0  0  0  0  0  0  0  0  0  0
   15.1318   -1.8589   15.5990 C   0  0  0  0  0  0  0  0  0  0  0  0
   16.4632   -1.5607   15.4815 C   0  0  0  0  0  0  0  0  0  0  0  0
  1 15  2  0
  1 16  1  0
 17  1  1  0
 19  2  2  0
  2 20  1  0
  2 27  1  0
 20  3  2  0
  3 21  1  0
 21  4  2  0
  4 24  1  0
  4 25  1  0
 25  5  1  0
 20  6  1  0
  6 26  2  0
  8  7  1  0
  9  8  2  0
  8 35  1  0
 10  9  1  0
 11 10  1  0
 10 33  2  0
 11 12  1  6
 11 31  2  0
 11 32  2  0
 13 12  1  0
 13 14  2  0
 29 13  1  0
 15 14  1  0
 18 17  1  0
 17 29  2  0
 18 19  1  0
 18 28  1  0
 21 22  1  0
 22 23  2  0
 22 26  1  0
 23 24  1  0
 27 28  2  0
 29 30  1  0
 33 34  1  0
 34 35  2  0
M  END
$$$$
