
     RDKit          3D

 35 39  0  0  0  0  0  0  0  0999 V2000
   12.8600    2.4244   11.2203 C   0  0  0  0  0  0  0  0  0  0  0  0
   11.0497    1.1571    7.5209 C   0  0  0  0  0  0  0  0  0  0  0  0
   12.5894    1.3793    5.5914 C   0  0  0  0  0  0  0  0  0  0  0  0
   14.0076    1.5725    3.4849 C   0  0  0  0  0  0  0  0  0  0  0  0
   16.4260    2.0672    3.2125 C   0  0  0  0  0  0  0  0  0  0  0  0
   10.3096    0.9380    5.1617 C   0  0  0  0  0  0  0  0  0  0  0  0
    8.0149    5.9810   20.0389 Br  0  0  0  0  0  0  0  0  0  0  0  0
    8.5055    5.7883   18.2049 C   0  0  0  0  0  0  0  0  0  0  0  0
    9.2011    4.6725   17.7971 C   0  0  0  0  0  0  0  0  0  0  0  0
    9.5778    4.4937   16.4690 C   0  0  0  0  0  0  0  0  0  0  0  0
   10.4656    3.0883   15.9503 S   0  0  1  0  0  6  0  0  0  0  0  0
   10.0906    2.7506   14.3264 N   0  0  0  0  0  0  0  0  0  0  0  0
   11.0139    2.6400   13.2570 C   0  0  0  0  0  0  0  0  0  0  0  0
   12.3213    3.0013   13.4846 C   0  0  0  0  0  0  0  0  0  0  0  0
   13.2516    2.8915   12.4537 C   0  0  0  0  0  0  0  0  0  0  0  0
   13.7980    2.3269   10.2240 F   0  0  0  0  0  0  0  0  0  0  0  0
   11.5363    2.0513   10.9674 C   0  0  0  0  0  0  0  0  0  0  0  0
   11.1747    1.5732    9.6769 N   0  0  0  0  0  0  0  0  0  0  0  0
   11.7408    1.8505    8.4831 C   0  0  0  0  0  0  0  0  0  0  0  0
   11.3155    1.1574    6.0741 C   0  0  0  0  0  0  0  0  0  0  0  0
   12.8810    1.3875    4.2366 C   0  0  0  0  0  0  0  0  0  0  0  0
   11.8379    1.1629    3.3771 C   0  0  0  0  0  0  0  0  0  0  0  0
   12.3565    1.2178    2.1447 N   0  0  0  0  0  0  0  0  0  0  0  0
   13.6403    1.4591    2.1782 N   0  0  0  0  0  0  0  0  0  0  0  0
   15.2799    1.8263    3.9430 O   0  0  0  0  0  0  0  0  0  0  0  0
   10.5822    0.9444    3.8560 N   0  0  0  0  0  0  0  0  0  0  0  0
   10.0783    0.4703    8.1310 N   0  0  0  0  0  0  0  0  0  0  0  0
   10.1821    0.7420    9.4189 N   0  0  0  0  0  0  0  0  0  0  0  0
   10.6632    2.1775   12.0094 C   0  0  0  0  0  0  0  0  0  0  0  0
    9.3741    1.8276   11.8068 F   0  0  0  0  0  0  0  0  0  0  0  0
   11.9420    3.2491   16.1833 O   0  0  0  0  0  0  0  0  0  0  0  0
   10.0081    1.9426   16.8228 O   0  0  0  0  0  0  0  0  0  0  0  0
    9.2328    5.4697   15.5733 C   0  0  0  0  0  0  0  0  0  0  0  0
    8.5262    6.5983   15.9994 C   0  0  0  0  0  0  0  0  0  0  0  0
    8.1529    6.7785   17.3070 C   0  0  0  0  0  0  0  0  0  0  0  0
  1 15  2  0
  1 16  1  0
 17  1  1  0
 19  2  2  0
  2 20  1  0
  2 27  1  0
 20  3  2  0
  3 21  1  0
 21  4  2  0
  4 24  1  0
  4 25  1  0
  5 25  1  1
 20  6  1  0
  6 26  2  0
  8  7  1  0
  9  8  2  0
  8 35  1  0
 10  9  1  0
 11 10  1  0
 10 33  2  0
 11 12  1  6
 11 31  2  0
 11 32  2  0
 13 12  1  0
 13 14  2  0
 29 13  1  0
 15 14  1  0
 18 17  1  0
 17 29  2  0
 18 19  1  0
 18 28  1  0
 21 22  1  0
 22 23  2  0
 22 26  1  0
 23 24  1  0
 27 28  2  0
 29 30  1  0
 33 34  1  0
 34 35  2  0
M  END
$$$$
