
     RDKit          3D

 35 39  0  0  0  0  0  0  0  0999 V2000
   10.6733   -0.1011   11.8385 C   0  0  0  0  0  0  0  0  0  0  0  0
   10.7271    0.9832    7.4262 C   0  0  0  0  0  0  0  0  0  0  0  0
   12.4738    1.3524    5.7069 C   0  0  0  0  0  0  0  0  0  0  0  0
   14.1204    1.7042    3.7961 C   0  0  0  0  0  0  0  0  0  0  0  0
   16.5633    2.1491    3.8372 C   0  0  0  0  0  0  0  0  0  0  0  0
   10.2653    0.9247    4.9881 C   0  0  0  0  0  0  0  0  0  0  0  0
    8.0407    5.7962   14.4974 Br  0  0  0  0  0  0  0  0  0  0  0  0
    9.2144    4.6374   15.4572 C   0  0  0  0  0  0  0  0  0  0  0  0
   10.5068    4.4576   15.0186 C   0  0  0  0  0  0  0  0  0  0  0  0
   11.3945    3.6213   15.6897 C   0  0  0  0  0  0  0  0  0  0  0  0
   13.0274    3.3839   15.1334 S   0  0  1  0  0  6  0  0  0  0  0  0
   13.0063    2.9397   13.4921 N   0  0  0  0  0  0  0  0  0  0  0  0
   12.2219    1.9128   12.9103 C   0  0  0  0  0  0  0  0  0  0  0  0
   11.7865    0.8882   13.7179 C   0  0  0  0  0  0  0  0  0  0  0  0
   11.0044   -0.1278   13.1736 C   0  0  0  0  0  0  0  0  0  0  0  0
    9.9019   -1.1153   11.3301 F   0  0  0  0  0  0  0  0  0  0  0  0
   11.1051    0.9310   10.9996 C   0  0  0  0  0  0  0  0  0  0  0  0
   10.7392    0.9192    9.6246 N   0  0  0  0  0  0  0  0  0  0  0  0
   11.5274    1.0657    8.5384 C   0  0  0  0  0  0  0  0  0  0  0  0
   11.1566    1.0872    6.0232 C   0  0  0  0  0  0  0  0  0  0  0  0
   12.9182    1.4580    4.3986 C   0  0  0  0  0  0  0  0  0  0  0  0
   11.9839    1.2863    3.4111 C   0  0  0  0  0  0  0  0  0  0  0  0
   12.6391    1.4317    2.2534 N   0  0  0  0  0  0  0  0  0  0  0  0
   13.9067    1.6801    2.4511 N   0  0  0  0  0  0  0  0  0  0  0  0
   15.3277    1.9350    4.4142 O   0  0  0  0  0  0  0  0  0  0  0  0
   10.6854    1.0249    3.7260 N   0  0  0  0  0  0  0  0  0  0  0  0
    9.4709    0.7892    7.8406 N   0  0  0  0  0  0  0  0  0  0  0  0
    9.5144    0.7561    9.1597 N   0  0  0  0  0  0  0  0  0  0  0  0
   11.8686    1.9024   11.5803 C   0  0  0  0  0  0  0  0  0  0  0  0
   12.3064    2.9180   10.8045 F   0  0  0  0  0  0  0  0  0  0  0  0
   13.8829    4.5917   15.3964 O   0  0  0  0  0  0  0  0  0  0  0  0
   13.6031    2.2538   15.9548 O   0  0  0  0  0  0  0  0  0  0  0  0
   10.9390    2.9775   16.8086 C   0  0  0  0  0  0  0  0  0  0  0  0
    9.6243    3.1681   17.2444 C   0  0  0  0  0  0  0  0  0  0  0  0
    8.7464    3.9912   16.5862 C   0  0  0  0  0  0  0  0  0  0  0  0
  1 15  2  0
  1 16  1  0
 17  1  1  0
 19  2  2  0
  2 20  1  0
  2 27  1  0
 20  3  2  0
  3 21  1  0
 21  4  2  0
  4 24  1  0
  4 25  1  0
  5 25  1  1
 20  6  1  0
  6 26  2  0
  8  7  1  0
  9  8  2  0
  8 35  1  0
 10  9  1  0
 11 10  1  0
 10 33  2  0
 11 12  1  6
 11 31  2  0
 11 32  2  0
 13 12  1  0
 13 14  2  0
 29 13  1  0
 15 14  1  0
 18 17  1  0
 17 29  2  0
 18 19  1  0
 18 28  1  0
 21 22  1  0
 22 23  2  0
 22 26  1  0
 23 24  1  0
 27 28  2  0
 29 30  1  0
 33 34  1  0
 34 35  2  0
M  END
$$$$
