
     RDKit          3D

 35 39  0  0  0  0  0  0  0  0999 V2000
   16.9677    1.8942   10.6581 C   0  0  0  0  0  0  0  0  0  0  0  0
   14.9977    2.0095    6.5825 C   0  0  0  0  0  0  0  0  0  0  0  0
   12.7319    1.5084    5.7119 C   0  0  0  0  0  0  0  0  0  0  0  0
   10.4910    0.9665    4.6299 C   0  0  0  0  0  0  0  0  0  0  0  0
    8.2168    0.8291    5.6182 C   0  0  0  0  0  0  0  0  0  0  0  0
   14.5505    1.4470    4.2067 C   0  0  0  0  0  0  0  0  0  0  0  0
   11.1276   -0.1787   15.7481 Br  0  0  0  0  0  0  0  0  0  0  0  0
   11.2629    1.5252   14.8997 C   0  0  0  0  0  0  0  0  0  0  0  0
   12.4483    2.2231   14.9532 C   0  0  0  0  0  0  0  0  0  0  0  0
   12.5885    3.4687   14.3477 C   0  0  0  0  0  0  0  0  0  0  0  0
   14.0832    4.3592   14.4205 S   0  0  1  0  0  6  0  0  0  0  0  0
   14.6701    4.6082   12.8440 N   0  0  0  0  0  0  0  0  0  0  0  0
   15.4449    3.6978   12.0830 C   0  0  0  0  0  0  0  0  0  0  0  0
   16.4098    2.9626   12.7311 C   0  0  0  0  0  0  0  0  0  0  0  0
   17.1777    2.0524   12.0085 C   0  0  0  0  0  0  0  0  0  0  0  0
   17.7390    0.9904    9.9723 F   0  0  0  0  0  0  0  0  0  0  0  0
   15.9919    2.6310    9.9795 C   0  0  0  0  0  0  0  0  0  0  0  0
   15.8083    2.4356    8.5822 N   0  0  0  0  0  0  0  0  0  0  0  0
   14.6913    2.0674    7.9193 C   0  0  0  0  0  0  0  0  0  0  0  0
   14.0860    1.6507    5.4853 C   0  0  0  0  0  0  0  0  0  0  0  0
   11.8403    1.1717    4.7058 C   0  0  0  0  0  0  0  0  0  0  0  0
   12.3625    0.9816    3.4534 C   0  0  0  0  0  0  0  0  0  0  0  0
   11.3271    0.6705    2.6649 N   0  0  0  0  0  0  0  0  0  0  0  0
   10.2055    0.6541    3.3352 N   0  0  0  0  0  0  0  0  0  0  0  0
    9.5782    1.0541    5.6556 O   0  0  0  0  0  0  0  0  0  0  0  0
   13.6987    1.1226    3.2327 N   0  0  0  0  0  0  0  0  0  0  0  0
   16.2859    2.3396    6.4443 N   0  0  0  0  0  0  0  0  0  0  0  0
   16.7395    2.5881    7.6589 N   0  0  0  0  0  0  0  0  0  0  0  0
   15.2664    3.5096   10.7316 C   0  0  0  0  0  0  0  0  0  0  0  0
   14.3132    4.2414   10.1143 F   0  0  0  0  0  0  0  0  0  0  0  0
   13.9270    5.6408   15.1905 O   0  0  0  0  0  0  0  0  0  0  0  0
   15.0590    3.5020   15.1928 O   0  0  0  0  0  0  0  0  0  0  0  0
   11.5025    3.9828   13.6919 C   0  0  0  0  0  0  0  0  0  0  0  0
   10.3039    3.2645   13.6443 C   0  0  0  0  0  0  0  0  0  0  0  0
   10.1614    2.0369   14.2395 C   0  0  0  0  0  0  0  0  0  0  0  0
  1 15  2  0
  1 16  1  0
 17  1  1  0
 19  2  2  0
  2 20  1  0
  2 27  1  0
 20  3  2  0
  3 21  1  0
 21  4  2  0
  4 24  1  0
  4 25  1  0
  5 25  1  1
 20  6  1  0
  6 26  2  0
  8  7  1  0
  9  8  2  0
  8 35  1  0
 10  9  1  0
 11 10  1  0
 10 33  2  0
 11 12  1  6
 11 31  2  0
 11 32  2  0
 13 12  1  0
 13 14  2  0
 29 13  1  0
 15 14  1  0
 18 17  1  0
 17 29  2  0
 18 19  1  0
 18 28  1  0
 21 22  1  0
 22 23  2  0
 22 26  1  0
 23 24  1  0
 27 28  2  0
 29 30  1  0
 33 34  1  0
 34 35  2  0
M  END
$$$$
