
     RDKit          3D

 35 39  0  0  0  0  0  0  0  0999 V2000
   10.5259    0.4297   11.8152 C   0  0  0  0  0  0  0  0  0  0  0  0
   11.9991    1.3182    7.8106 C   0  0  0  0  0  0  0  0  0  0  0  0
   12.8069    1.1631    5.4726 C   0  0  0  0  0  0  0  0  0  0  0  0
   13.4422    0.9534    3.0152 C   0  0  0  0  0  0  0  0  0  0  0  0
   15.6329    1.2597    1.8862 C   0  0  0  0  0  0  0  0  0  0  0  0
   10.5264    0.7258    5.9024 C   0  0  0  0  0  0  0  0  0  0  0  0
   13.8088   -0.2492   18.3358 Br  0  0  0  0  0  0  0  0  0  0  0  0
   13.7507    1.4006   17.3786 C   0  0  0  0  0  0  0  0  0  0  0  0
   12.5356    1.9530   17.0420 C   0  0  0  0  0  0  0  0  0  0  0  0
   12.4496    3.1545   16.3443 C   0  0  0  0  0  0  0  0  0  0  0  0
   10.9149    3.8523   15.9084 S   0  0  1  0  0  6  0  0  0  0  0  0
   10.7474    3.8370   14.2162 N   0  0  0  0  0  0  0  0  0  0  0  0
   10.6892    2.6880   13.3886 C   0  0  0  0  0  0  0  0  0  0  0  0
   10.0733    1.5610   13.8805 C   0  0  0  0  0  0  0  0  0  0  0  0
    9.9925    0.4216   13.0833 C   0  0  0  0  0  0  0  0  0  0  0  0
   10.4314   -0.7070   11.0529 F   0  0  0  0  0  0  0  0  0  0  0  0
   11.1560    1.5647   11.2953 C   0  0  0  0  0  0  0  0  0  0  0  0
   11.6937    1.5294    9.9785 N   0  0  0  0  0  0  0  0  0  0  0  0
   11.0762    1.2106    8.8210 C   0  0  0  0  0  0  0  0  0  0  0  0
   11.7711    1.0654    6.3796 C   0  0  0  0  0  0  0  0  0  0  0  0
   12.6334    0.9330    4.1171 C   0  0  0  0  0  0  0  0  0  0  0  0
   11.3712    0.5983    3.7022 C   0  0  0  0  0  0  0  0  0  0  0  0
   11.4510    0.4278    2.3773 N   0  0  0  0  0  0  0  0  0  0  0  0
   12.6664    0.6318    1.9429 N   0  0  0  0  0  0  0  0  0  0  0  0
   14.7869    1.2418    2.9768 O   0  0  0  0  0  0  0  0  0  0  0  0
   10.3513    0.5026    4.5990 N   0  0  0  0  0  0  0  0  0  0  0  0
   13.1592    1.6978    8.3561 N   0  0  0  0  0  0  0  0  0  0  0  0
   12.9409    1.8147    9.6529 N   0  0  0  0  0  0  0  0  0  0  0  0
   11.2096    2.6550   12.1152 C   0  0  0  0  0  0  0  0  0  0  0  0
   11.8102    3.7726   11.6511 F   0  0  0  0  0  0  0  0  0  0  0  0
    9.7758    3.1669   16.6102 O   0  0  0  0  0  0  0  0  0  0  0  0
   10.9349    5.2808   16.4007 O   0  0  0  0  0  0  0  0  0  0  0  0
   13.6201    3.7752   16.0002 C   0  0  0  0  0  0  0  0  0  0  0  0
   14.8482    3.2045   16.3478 C   0  0  0  0  0  0  0  0  0  0  0  0
   14.9376    2.0209   17.0353 C   0  0  0  0  0  0  0  0  0  0  0  0
  1 15  2  0
  1 16  1  0
 17  1  1  0
 19  2  2  0
  2 20  1  0
  2 27  1  0
 20  3  2  0
  3 21  1  0
 21  4  2  0
  4 24  1  0
  4 25  1  0
  5 25  1  1
 20  6  1  0
  6 26  2  0
  8  7  1  0
  9  8  2  0
  8 35  1  0
 10  9  1  0
 11 10  1  0
 10 33  2  0
 11 12  1  6
 11 31  2  0
 11 32  2  0
 13 12  1  0
 13 14  2  0
 29 13  1  0
 15 14  1  0
 18 17  1  0
 17 29  2  0
 18 19  1  0
 18 28  1  0
 21 22  1  0
 22 23  2  0
 22 26  1  0
 23 24  1  0
 27 28  2  0
 29 30  1  0
 33 34  1  0
 34 35  2  0
M  END
$$$$
