
     RDKit          3D

 35 39  0  0  0  0  0  0  0  0999 V2000
   18.5875    1.6719    5.8990 C   0  0  0  0  0  0  0  0  0  0  0  0
   14.0972    1.6171    5.0413 C   0  0  0  0  0  0  0  0  0  0  0  0
   12.0522    1.1918    6.3190 C   0  0  0  0  0  0  0  0  0  0  0  0
    9.7939    0.6878    7.3815 C   0  0  0  0  0  0  0  0  0  0  0  0
    9.0166    0.6494    9.7285 C   0  0  0  0  0  0  0  0  0  0  0  0
   12.0222    0.9519    3.9690 C   0  0  0  0  0  0  0  0  0  0  0  0
   24.7451    5.1569    8.7495 Br  0  0  0  0  0  0  0  0  0  0  0  0
   23.2622    5.4268    9.9369 C   0  0  0  0  0  0  0  0  0  0  0  0
   22.1569    4.6215    9.8958 C   0  0  0  0  0  0  0  0  0  0  0  0
   21.0645    4.8020   10.7536 C   0  0  0  0  0  0  0  0  0  0  0  0
   19.6787    3.7849   10.6953 S   0  0  1  0  0  6  0  0  0  0  0  0
   18.6108    4.0469    9.3876 N   0  0  0  0  0  0  0  0  0  0  0  0
   18.6190    3.2661    8.2197 C   0  0  0  0  0  0  0  0  0  0  0  0
   19.7538    2.6586    7.7447 C   0  0  0  0  0  0  0  0  0  0  0  0
   19.7423    1.8681    6.5949 C   0  0  0  0  0  0  0  0  0  0  0  0
   18.5544    0.8938    4.7596 F   0  0  0  0  0  0  0  0  0  0  0  0
   17.4295    2.2666    6.3483 C   0  0  0  0  0  0  0  0  0  0  0  0
   16.2004    2.0651    5.6191 N   0  0  0  0  0  0  0  0  0  0  0  0
   15.0048    1.6859    6.0989 C   0  0  0  0  0  0  0  0  0  0  0  0
   12.6901    1.2456    5.1208 C   0  0  0  0  0  0  0  0  0  0  0  0
   10.7218    0.8386    6.3752 C   0  0  0  0  0  0  0  0  0  0  0  0
   10.1007    0.5514    5.1616 C   0  0  0  0  0  0  0  0  0  0  0  0
    8.8231    0.2371    5.4669 N   0  0  0  0  0  0  0  0  0  0  0  0
    8.6357    0.3142    6.7604 N   0  0  0  0  0  0  0  0  0  0  0  0
    9.9603    0.8653    8.7264 O   0  0  0  0  0  0  0  0  0  0  0  0
   10.7242    0.6024    3.9745 N   0  0  0  0  0  0  0  0  0  0  0  0
   14.7950    1.9620    3.9593 N   0  0  0  0  0  0  0  0  0  0  0  0
   16.0528    2.2279    4.3183 N   0  0  0  0  0  0  0  0  0  0  0  0
   17.4516    3.0405    7.4773 C   0  0  0  0  0  0  0  0  0  0  0  0
   16.3328    3.6439    7.9532 F   0  0  0  0  0  0  0  0  0  0  0  0
   20.0798    2.3116   10.7336 O   0  0  0  0  0  0  0  0  0  0  0  0
   18.8666    4.0607   11.9599 O   0  0  0  0  0  0  0  0  0  0  0  0
   21.1932    5.8640   11.6493 C   0  0  0  0  0  0  0  0  0  0  0  0
   22.3039    6.6766   11.6936 C   0  0  0  0  0  0  0  0  0  0  0  0
   23.3503    6.4648   10.8361 C   0  0  0  0  0  0  0  0  0  0  0  0
  1 15  2  0
  1 16  1  0
 17  1  1  0
 19  2  2  0
  2 20  1  0
  2 27  1  0
 20  3  2  0
  3 21  1  0
 21  4  2  0
  4 24  1  0
  4 25  1  0
 25  5  1  0
 20  6  1  0
  6 26  2  0
  8  7  1  0
  9  8  2  0
  8 35  1  0
 10  9  1  0
 11 10  1  0
 10 33  2  0
 11 12  1  6
 11 31  2  0
 11 32  2  0
 13 12  1  0
 13 14  2  0
 29 13  1  0
 15 14  1  0
 18 17  1  0
 17 29  2  0
 18 19  1  0
 18 28  1  0
 21 22  1  0
 22 23  2  0
 22 26  1  0
 23 24  1  0
 27 28  2  0
 29 30  1  0
 33 34  1  0
 34 35  2  0
M  END
$$$$
