
     RDKit          3D

 35 39  0  0  0  0  0  0  0  0999 V2000
   18.0661    0.0070    1.8370 C   0  0  0  0  0  0  0  0  0  0  0  0
   13.7653    0.7900    2.9900 C   0  0  0  0  0  0  0  0  0  0  0  0
   12.6394    1.0390    5.1840 C   0  0  0  0  0  0  0  0  0  0  0  0
   11.3019    1.2604    7.3400 C   0  0  0  0  0  0  0  0  0  0  0  0
   12.0646    1.6367    9.6732 C   0  0  0  0  0  0  0  0  0  0  0  0
   11.3089    0.5900    3.2853 C   0  0  0  0  0  0  0  0  0  0  0  0
   17.1641    4.2164    8.0536 Br  0  0  0  0  0  0  0  0  0  0  0  0
   18.6977    3.3584    7.3095 C   0  0  0  0  0  0  0  0  0  0  0  0
   19.2467    3.8339    6.1401 C   0  0  0  0  0  0  0  0  0  0  0  0
   20.3648    3.2370    5.5646 C   0  0  0  0  0  0  0  0  0  0  0  0
   21.0572    3.8294    4.0807 S   0  0  1  0  0  6  0  0  0  0  0  0
   19.9499    3.6025    2.8102 N   0  0  0  0  0  0  0  0  0  0  0  0
   19.2910    2.3929    2.4768 C   0  0  0  0  0  0  0  0  0  0  0  0
   20.0560    1.3244    2.0709 C   0  0  0  0  0  0  0  0  0  0  0  0
   19.4343    0.1204    1.7482 C   0  0  0  0  0  0  0  0  0  0  0  0
   17.4814   -1.1910    1.5129 F   0  0  0  0  0  0  0  0  0  0  0  0
   17.2695    1.0804    2.2476 C   0  0  0  0  0  0  0  0  0  0  0  0
   15.8580    0.9192    2.3255 N   0  0  0  0  0  0  0  0  0  0  0  0
   15.0518    1.0336    3.4023 C   0  0  0  0  0  0  0  0  0  0  0  0
   12.5552    0.8058    3.8261 C   0  0  0  0  0  0  0  0  0  0  0  0
   11.5238    1.0620    6.0058 C   0  0  0  0  0  0  0  0  0  0  0  0
   10.3103    0.8404    5.4093 C   0  0  0  0  0  0  0  0  0  0  0  0
    9.3998    0.9100    6.3875 N   0  0  0  0  0  0  0  0  0  0  0  0
    9.9589    1.1578    7.5423 N   0  0  0  0  0  0  0  0  0  0  0  0
   12.2436    1.5163    8.3098 O   0  0  0  0  0  0  0  0  0  0  0  0
   10.2302    0.6105    4.0697 N   0  0  0  0  0  0  0  0  0  0  0  0
   13.7989    0.5319    1.6786 N   0  0  0  0  0  0  0  0  0  0  0  0
   15.0649    0.6175    1.3141 N   0  0  0  0  0  0  0  0  0  0  0  0
   17.9258    2.2381    2.5524 C   0  0  0  0  0  0  0  0  0  0  0  0
   17.1929    3.2997    2.9535 F   0  0  0  0  0  0  0  0  0  0  0  0
   21.5057    5.2583    4.2109 O   0  0  0  0  0  0  0  0  0  0  0  0
   22.2967    3.0044    3.8233 O   0  0  0  0  0  0  0  0  0  0  0  0
   20.9062    2.1534    6.2023 C   0  0  0  0  0  0  0  0  0  0  0  0
   20.3398    1.6798    7.3895 C   0  0  0  0  0  0  0  0  0  0  0  0
   19.2382    2.2649    7.9601 C   0  0  0  0  0  0  0  0  0  0  0  0
  1 15  2  0
  1 16  1  0
 17  1  1  0
 19  2  2  0
  2 20  1  0
  2 27  1  0
 20  3  2  0
  3 21  1  0
 21  4  2  0
  4 24  1  0
  4 25  1  0
  5 25  1  1
 20  6  1  0
  6 26  2  0
  8  7  1  0
  9  8  2  0
  8 35  1  0
 10  9  1  0
 11 10  1  0
 10 33  2  0
 11 12  1  6
 11 31  2  0
 11 32  2  0
 13 12  1  0
 13 14  2  0
 29 13  1  0
 15 14  1  0
 18 17  1  0
 17 29  2  0
 18 19  1  0
 18 28  1  0
 21 22  1  0
 22 23  2  0
 22 26  1  0
 23 24  1  0
 27 28  2  0
 29 30  1  0
 33 34  1  0
 34 35  2  0
M  END
$$$$
