
     RDKit          3D

 35 39  0  0  0  0  0  0  0  0999 V2000
   10.5254    4.0367   11.9489 C   0  0  0  0  0  0  0  0  0  0  0  0
   10.8681    1.5682    8.2026 C   0  0  0  0  0  0  0  0  0  0  0  0
   12.3980    1.7175    6.2966 C   0  0  0  0  0  0  0  0  0  0  0  0
   13.7609    1.7642    4.1465 C   0  0  0  0  0  0  0  0  0  0  0  0
   16.0853    2.4445    3.6478 C   0  0  0  0  0  0  0  0  0  0  0  0
   10.2011    0.9166    5.9602 C   0  0  0  0  0  0  0  0  0  0  0  0
   11.1159   -0.7576   18.2791 Br  0  0  0  0  0  0  0  0  0  0  0  0
   11.6502    1.0752   18.0869 C   0  0  0  0  0  0  0  0  0  0  0  0
   12.5776    1.4563   17.1560 C   0  0  0  0  0  0  0  0  0  0  0  0
   12.9809    2.7884   17.0000 C   0  0  0  0  0  0  0  0  0  0  0  0
   14.1476    3.2589   15.8271 S   0  0  1  0  0  6  0  0  0  0  0  0
   13.8425    2.7568   14.2227 N   0  0  0  0  0  0  0  0  0  0  0  0
   12.7273    3.1833   13.4823 C   0  0  0  0  0  0  0  0  0  0  0  0
   11.9490    4.2466   13.8645 C   0  0  0  0  0  0  0  0  0  0  0  0
   10.8569    4.6723   13.1075 C   0  0  0  0  0  0  0  0  0  0  0  0
    9.4494    4.4416   11.1854 F   0  0  0  0  0  0  0  0  0  0  0  0
   11.2859    2.9657   11.5353 C   0  0  0  0  0  0  0  0  0  0  0  0
   10.9440    2.2852   10.3093 N   0  0  0  0  0  0  0  0  0  0  0  0
   11.5152    2.4174    9.1011 C   0  0  0  0  0  0  0  0  0  0  0  0
   11.1715    1.3998    6.7870 C   0  0  0  0  0  0  0  0  0  0  0  0
   12.6671    1.5518    4.9557 C   0  0  0  0  0  0  0  0  0  0  0  0
   11.6312    1.0541    4.1682 C   0  0  0  0  0  0  0  0  0  0  0  0
   12.1250    0.9802    2.9134 N   0  0  0  0  0  0  0  0  0  0  0  0
   13.3674    1.3927    2.8919 N   0  0  0  0  0  0  0  0  0  0  0  0
   14.9939    2.2433    4.4902 O   0  0  0  0  0  0  0  0  0  0  0  0
   10.4174    0.7382    4.6455 N   0  0  0  0  0  0  0  0  0  0  0  0
    9.9252    0.9556    8.9183 N   0  0  0  0  0  0  0  0  0  0  0  0
    9.9808    1.3933   10.1779 N   0  0  0  0  0  0  0  0  0  0  0  0
   12.3552    2.5558   12.2855 C   0  0  0  0  0  0  0  0  0  0  0  0
   13.1297    1.5052   11.9131 F   0  0  0  0  0  0  0  0  0  0  0  0
   14.3683    4.7701   15.8509 O   0  0  0  0  0  0  0  0  0  0  0  0
   15.4711    2.6070   16.2246 O   0  0  0  0  0  0  0  0  0  0  0  0
   12.3639    3.6917   17.8661 C   0  0  0  0  0  0  0  0  0  0  0  0
   11.4302    3.3121   18.8041 C   0  0  0  0  0  0  0  0  0  0  0  0
   11.0643    1.9978   18.9231 C   0  0  0  0  0  0  0  0  0  0  0  0
  1 15  2  0
  1 16  1  0
 17  1  1  0
 19  2  2  0
  2 20  1  0
  2 27  1  0
 20  3  2  0
  3 21  1  0
 21  4  2  0
  4 24  1  0
  4 25  1  0
 25  5  1  0
 20  6  1  0
  6 26  2  0
  8  7  1  0
  9  8  2  0
  8 35  1  0
 10  9  1  0
 11 10  1  0
 10 33  2  0
 11 12  1  6
 11 31  2  0
 11 32  2  0
 13 12  1  0
 13 14  2  0
 29 13  1  0
 15 14  1  0
 18 17  1  0
 17 29  2  0
 18 19  1  0
 18 28  1  0
 21 22  1  0
 22 23  2  0
 22 26  1  0
 23 24  1  0
 27 28  2  0
 29 30  1  0
 33 34  1  0
 34 35  2  0
M  END
$$$$
