
     RDKit          3D

 35 39  0  0  0  0  0  0  0  0999 V2000
   10.5867    0.2131   11.9628 C   0  0  0  0  0  0  0  0  0  0  0  0
   10.2767    1.3441    7.6379 C   0  0  0  0  0  0  0  0  0  0  0  0
   12.0720    1.5479    5.9413 C   0  0  0  0  0  0  0  0  0  0  0  0
   13.7699    1.7328    4.0521 C   0  0  0  0  0  0  0  0  0  0  0  0
   16.2355    2.0208    4.1268 C   0  0  0  0  0  0  0  0  0  0  0  0
    9.8558    1.2197    5.1948 C   0  0  0  0  0  0  0  0  0  0  0  0
    6.0839    5.8670   14.0231 Br  0  0  0  0  0  0  0  0  0  0  0  0
    7.2235    4.7704   15.0910 C   0  0  0  0  0  0  0  0  0  0  0  0
    8.5892    4.8540   14.9405 C   0  0  0  0  0  0  0  0  0  0  0  0
    9.4552    4.0718   15.6996 C   0  0  0  0  0  0  0  0  0  0  0  0
   11.1831    4.1676   15.5064 S   0  0  1  0  0  6  0  0  0  0  0  0
   11.5958    3.7668   13.9061 N   0  0  0  0  0  0  0  0  0  0  0  0
   11.2581    2.5699   13.2266 C   0  0  0  0  0  0  0  0  0  0  0  0
   11.2503    1.3947   13.9411 C   0  0  0  0  0  0  0  0  0  0  0  0
   10.9108    0.2057   13.2998 C   0  0  0  0  0  0  0  0  0  0  0  0
   10.2565   -0.9731   11.3578 F   0  0  0  0  0  0  0  0  0  0  0  0
   10.5881    1.3964   11.2177 C   0  0  0  0  0  0  0  0  0  0  0  0
   10.2463    1.3585    9.8370 N   0  0  0  0  0  0  0  0  0  0  0  0
   11.0611    1.4157    8.7621 C   0  0  0  0  0  0  0  0  0  0  0  0
   10.7364    1.3703    6.2408 C   0  0  0  0  0  0  0  0  0  0  0  0
   12.5451    1.5784    4.6391 C   0  0  0  0  0  0  0  0  0  0  0  0
   11.6201    1.4229    3.6403 C   0  0  0  0  0  0  0  0  0  0  0  0
   12.3031    1.4868    2.4913 N   0  0  0  0  0  0  0  0  0  0  0  0
   13.5792    1.6699    2.7049 N   0  0  0  0  0  0  0  0  0  0  0  0
   14.9773    1.9177    4.6852 O   0  0  0  0  0  0  0  0  0  0  0  0
   10.3033    1.2479    3.9385 N   0  0  0  0  0  0  0  0  0  0  0  0
    9.0036    1.2449    8.0340 N   0  0  0  0  0  0  0  0  0  0  0  0
    9.0219    1.2565    9.3540 N   0  0  0  0  0  0  0  0  0  0  0  0
   10.9277    2.5343   11.8913 C   0  0  0  0  0  0  0  0  0  0  0  0
   10.9413    3.6996   11.2079 F   0  0  0  0  0  0  0  0  0  0  0  0
   11.7130    5.5113   15.9228 O   0  0  0  0  0  0  0  0  0  0  0  0
   11.7801    3.1508   16.4514 O   0  0  0  0  0  0  0  0  0  0  0  0
    8.9023    3.2096   16.6078 C   0  0  0  0  0  0  0  0  0  0  0  0
    7.5137    3.1338   16.7516 C   0  0  0  0  0  0  0  0  0  0  0  0
    6.6569    3.9026   16.0059 C   0  0  0  0  0  0  0  0  0  0  0  0
  1 15  2  0
  1 16  1  0
 17  1  1  0
 19  2  2  0
  2 20  1  0
  2 27  1  0
 20  3  2  0
  3 21  1  0
 21  4  2  0
  4 24  1  0
  4 25  1  0
  5 25  1  1
 20  6  1  0
  6 26  2  0
  8  7  1  0
  9  8  2  0
  8 35  1  0
 10  9  1  0
 11 10  1  0
 10 33  2  0
 11 12  1  6
 11 31  2  0
 11 32  2  0
 13 12  1  0
 13 14  2  0
 29 13  1  0
 15 14  1  0
 18 17  1  0
 17 29  2  0
 18 19  1  0
 18 28  1  0
 21 22  1  0
 22 23  2  0
 22 26  1  0
 23 24  1  0
 27 28  2  0
 29 30  1  0
 33 34  1  0
 34 35  2  0
M  END
$$$$
