
     RDKit          3D

 35 39  0  0  0  0  0  0  0  0999 V2000
   10.9289    4.4927   11.8349 C   0  0  0  0  0  0  0  0  0  0  0  0
   11.9111    1.7249    8.6229 C   0  0  0  0  0  0  0  0  0  0  0  0
   12.6124    1.1551    6.3149 C   0  0  0  0  0  0  0  0  0  0  0  0
   13.1307    0.5577    3.8941 C   0  0  0  0  0  0  0  0  0  0  0  0
   15.3093    0.2573    2.7403 C   0  0  0  0  0  0  0  0  0  0  0  0
   10.3017    1.2736    6.7878 C   0  0  0  0  0  0  0  0  0  0  0  0
    5.5965    0.1930   14.8236 Br  0  0  0  0  0  0  0  0  0  0  0  0
    6.3833    1.7806   15.5322 C   0  0  0  0  0  0  0  0  0  0  0  0
    7.7135    1.7848   15.8864 C   0  0  0  0  0  0  0  0  0  0  0  0
    8.3255    2.9217   16.4067 C   0  0  0  0  0  0  0  0  0  0  0  0
   10.0055    2.9290   16.8646 S   0  0  1  0  0  6  0  0  0  0  0  0
   10.9604    2.5259   15.5164 N   0  0  0  0  0  0  0  0  0  0  0  0
   10.9496    3.1737   14.2561 C   0  0  0  0  0  0  0  0  0  0  0  0
   10.5306    4.4824   14.1994 C   0  0  0  0  0  0  0  0  0  0  0  0
   10.5211    5.1461   12.9748 C   0  0  0  0  0  0  0  0  0  0  0  0
   10.9089    5.1715   10.6429 F   0  0  0  0  0  0  0  0  0  0  0  0
   11.3590    3.1625   11.8699 C   0  0  0  0  0  0  0  0  0  0  0  0
   11.7725    2.5253   10.6668 N   0  0  0  0  0  0  0  0  0  0  0  0
   11.1168    2.4327    9.4903 C   0  0  0  0  0  0  0  0  0  0  0  0
   11.6010    1.3808    7.2267 C   0  0  0  0  0  0  0  0  0  0  0  0
   12.3621    0.8290    4.9915 C   0  0  0  0  0  0  0  0  0  0  0  0
   11.0482    0.7369    4.6140 C   0  0  0  0  0  0  0  0  0  0  0  0
   11.0589    0.4164    3.3148 N   0  0  0  0  0  0  0  0  0  0  0  0
   12.2793    0.3037    2.8617 N   0  0  0  0  0  0  0  0  0  0  0  0
   14.5047    0.5398    3.8258 O   0  0  0  0  0  0  0  0  0  0  0  0
   10.0526    0.9600    5.5155 N   0  0  0  0  0  0  0  0  0  0  0  0
   13.0325    1.3958    9.2722 N   0  0  0  0  0  0  0  0  0  0  0  0
   12.9162    1.8899   10.4910 N   0  0  0  0  0  0  0  0  0  0  0  0
   11.3497    2.5564   13.0931 C   0  0  0  0  0  0  0  0  0  0  0  0
   11.7579    1.2709   13.1707 F   0  0  0  0  0  0  0  0  0  0  0  0
   10.4039    4.2381   17.4869 O   0  0  0  0  0  0  0  0  0  0  0  0
   10.1666    1.8713   17.9316 O   0  0  0  0  0  0  0  0  0  0  0  0
    7.5575    4.0449   16.5569 C   0  0  0  0  0  0  0  0  0  0  0  0
    6.2075    4.0284   16.1936 C   0  0  0  0  0  0  0  0  0  0  0  0
    5.6006    2.9105   15.6804 C   0  0  0  0  0  0  0  0  0  0  0  0
  1 15  2  0
  1 16  1  0
 17  1  1  0
 19  2  2  0
  2 20  1  0
  2 27  1  0
 20  3  2  0
  3 21  1  0
 21  4  2  0
  4 24  1  0
  4 25  1  0
  5 25  1  1
 20  6  1  0
  6 26  2  0
  8  7  1  0
  9  8  2  0
  8 35  1  0
 10  9  1  0
 11 10  1  0
 10 33  2  0
 11 12  1  6
 11 31  2  0
 11 32  2  0
 13 12  1  0
 13 14  2  0
 29 13  1  0
 15 14  1  0
 18 17  1  0
 17 29  2  0
 18 19  1  0
 18 28  1  0
 21 22  1  0
 22 23  2  0
 22 26  1  0
 23 24  1  0
 27 28  2  0
 29 30  1  0
 33 34  1  0
 34 35  2  0
M  END
$$$$
