
     RDKit          3D

 35 39  0  0  0  0  0  0  0  0999 V2000
   18.2078    3.5465    2.7762 C   0  0  0  0  0  0  0  0  0  0  0  0
   14.1742    1.7029    3.6433 C   0  0  0  0  0  0  0  0  0  0  0  0
   12.4955    1.7780    5.4651 C   0  0  0  0  0  0  0  0  0  0  0  0
   10.6247    1.8187    7.1927 C   0  0  0  0  0  0  0  0  0  0  0  0
   10.7158    2.1178    9.6564 C   0  0  0  0  0  0  0  0  0  0  0  0
   11.7426    1.3821    3.2621 C   0  0  0  0  0  0  0  0  0  0  0  0
   16.6860    2.1268   10.4661 Br  0  0  0  0  0  0  0  0  0  0  0  0
   17.8619    3.4284    9.7147 C   0  0  0  0  0  0  0  0  0  0  0  0
   18.8920    3.0264    8.8948 C   0  0  0  0  0  0  0  0  0  0  0  0
   19.7716    3.9436    8.3267 C   0  0  0  0  0  0  0  0  0  0  0  0
   21.0816    3.4389    7.2964 S   0  0  1  0  0  6  0  0  0  0  0  0
   20.4824    2.4064    6.0852 N   0  0  0  0  0  0  0  0  0  0  0  0
   19.6915    2.7875    4.9728 C   0  0  0  0  0  0  0  0  0  0  0  0
   20.2345    3.6543    4.0533 C   0  0  0  0  0  0  0  0  0  0  0  0
   19.4824    4.0360    2.9447 C   0  0  0  0  0  0  0  0  0  0  0  0
   17.4907    3.9399    1.6748 F   0  0  0  0  0  0  0  0  0  0  0  0
   17.6365    2.6642    3.6985 C   0  0  0  0  0  0  0  0  0  0  0  0
   16.3150    2.1822    3.4851 N   0  0  0  0  0  0  0  0  0  0  0  0
   15.2191    2.3493    4.2556 C   0  0  0  0  0  0  0  0  0  0  0  0
   12.7870    1.6194    4.1253 C   0  0  0  0  0  0  0  0  0  0  0  0
   11.2027    1.7065    5.9590 C   0  0  0  0  0  0  0  0  0  0  0  0
   10.2049    1.4679    5.0507 C   0  0  0  0  0  0  0  0  0  0  0  0
    9.0654    1.4428    5.7520 N   0  0  0  0  0  0  0  0  0  0  0  0
    9.2840    1.6477    7.0239 N   0  0  0  0  0  0  0  0  0  0  0  0
   11.2600    2.0585    8.3892 O   0  0  0  0  0  0  0  0  0  0  0  0
   10.4953    1.3119    3.7297 N   0  0  0  0  0  0  0  0  0  0  0  0
   14.6384    1.1533    2.5163 N   0  0  0  0  0  0  0  0  0  0  0  0
   15.9211    1.4593    2.4530 N   0  0  0  0  0  0  0  0  0  0  0  0
   18.4134    2.3208    4.7674 C   0  0  0  0  0  0  0  0  0  0  0  0
   17.8989    1.4702    5.6822 F   0  0  0  0  0  0  0  0  0  0  0  0
   21.8307    4.6160    6.7367 O   0  0  0  0  0  0  0  0  0  0  0  0
   22.0517    2.6802    8.1719 O   0  0  0  0  0  0  0  0  0  0  0  0
   19.5795    5.2688    8.6109 C   0  0  0  0  0  0  0  0  0  0  0  0
   18.5297    5.6649    9.4449 C   0  0  0  0  0  0  0  0  0  0  0  0
   17.6606    4.7646   10.0067 C   0  0  0  0  0  0  0  0  0  0  0  0
  1 15  2  0
  1 16  1  0
 17  1  1  0
 19  2  2  0
  2 20  1  0
  2 27  1  0
 20  3  2  0
  3 21  1  0
 21  4  2  0
  4 24  1  0
  4 25  1  0
  5 25  1  1
 20  6  1  0
  6 26  2  0
  8  7  1  0
  9  8  2  0
  8 35  1  0
 10  9  1  0
 11 10  1  0
 10 33  2  0
 11 12  1  6
 11 31  2  0
 11 32  2  0
 13 12  1  0
 13 14  2  0
 29 13  1  0
 15 14  1  0
 18 17  1  0
 17 29  2  0
 18 19  1  0
 18 28  1  0
 21 22  1  0
 22 23  2  0
 22 26  1  0
 23 24  1  0
 27 28  2  0
 29 30  1  0
 33 34  1  0
 34 35  2  0
M  END
$$$$
