
     RDKit          3D

 34 38  0  0  0  0  0  0  0  0999 V2000
   27.7784  -12.0229   12.0226 O   0  0  0  0  0  0  0  0  0  0  0  0
   27.0260  -11.8400   11.0526 C   0  0  0  0  0  0  0  0  0  0  0  0
   25.9529  -12.7364   10.8176 N   0  0  0  0  0  0  0  0  0  0  0  0
   25.1701  -12.6650    9.5758 C   0  0  0  0  0  0  0  0  0  0  0  0
   25.4598  -13.9792    8.8368 C   0  0  0  0  0  0  0  0  0  0  0  0
   24.9813  -15.0169    9.7444 N   0  0  0  0  0  0  0  0  0  0  0  0
   24.0875  -15.9901    9.2286 C   0  0  0  0  0  0  0  0  0  0  0  0
   23.7116  -15.9760    7.9280 N   0  0  0  0  0  0  0  0  0  0  0  0
   22.8573  -16.8748    7.3919 C   0  0  0  0  0  0  0  0  0  0  0  0
   22.3395  -17.8554    8.2026 C   0  0  0  0  0  0  0  0  0  0  0  0
   22.7047  -17.8903    9.5226 C   0  0  0  0  0  0  0  0  0  0  0  0
   23.5575  -16.9712    9.9979 N   0  0  0  0  0  0  0  0  0  0  0  0
   25.3887  -15.0731   11.1246 C   0  0  0  0  0  0  0  0  0  0  0  0
   25.5583  -13.7461   11.7776 C   0  0  0  0  0  0  0  0  0  0  0  0
   27.2304  -10.7242   10.1631 C   0  0  0  0  0  0  0  0  0  0  0  0
   26.1314  -10.0289    9.6622 C   0  0  0  0  0  0  0  0  0  0  0  0
   26.2735   -8.9651    8.8069 C   0  0  0  0  0  0  0  0  0  0  0  0
   28.4742  -10.2891    9.7559 C   0  0  0  0  0  0  0  0  0  0  0  0
   28.6148   -9.2088    8.8875 C   0  0  0  0  0  0  0  0  0  0  0  0
   27.5340   -8.5258    8.3945 C   0  0  0  0  0  0  0  0  0  0  0  0
   27.6028   -7.3959    7.4527 C   0  0  0  0  0  0  0  0  0  0  0  0
   27.5995   -6.0456    8.0474 C   0  0  2  0  0  0  0  0  0  0  0  0
   28.9322   -5.4296    8.2732 C   0  0  0  0  0  0  0  0  0  0  0  0
   30.0632   -5.6901    7.8405 O   0  0  0  0  0  0  0  0  0  0  0  0
   27.0703   -5.9694    9.3583 O   0  0  0  0  0  0  0  0  0  0  0  0
   27.4718   -4.7198    9.8574 C   0  0  0  0  0  0  0  0  0  0  0  0
   26.9521   -3.8557   10.8139 C   0  0  0  0  0  0  0  0  0  0  0  0
   25.7519   -4.1624   11.5573 C   0  0  0  0  0  0  0  0  0  0  0  0
   25.2613   -3.2809   12.3413 O   0  0  0  0  0  0  0  0  0  0  0  0
   25.0873   -5.3911   11.4669 N   0  0  0  0  0  0  0  0  0  0  0  0
   28.6437   -4.3187    9.2152 C   0  0  0  0  0  0  0  0  0  0  0  0
   29.2534   -3.1256    9.5162 C   0  0  0  0  0  0  0  0  0  0  0  0
   28.7271   -2.2634   10.4757 C   0  0  0  0  0  0  0  0  0  0  0  0
   27.5844   -2.6507   11.1039 C   0  0  0  0  0  0  0  0  0  0  0  0
  1  2  2  0
  2  3  1  0
  2 15  1  0
  4  3  1  1
 14  3  1  1
  4  5  1  0
  5  6  1  6
  6  7  1  0
 13  6  1  1
  7  8  2  0
  7 12  1  0
  8  9  1  0
  9 10  2  0
 10 11  1  0
 11 12  2  0
 13 14  1  0
 15 16  2  0
 15 18  1  0
 16 17  1  0
 17 20  2  0
 18 19  2  0
 19 20  1  0
 21 20  1  1
 21 22  1  0
 22 23  1  0
 22 25  1  1
 23 24  2  0
 23 31  1  0
 25 26  1  0
 26 27  2  0
 26 31  1  0
 27 28  1  0
 27 34  1  0
 28 29  2  0
 28 30  1  0
 31 32  2  0
 32 33  1  0
 33 34  2  0
M  END
$$$$
