
     RDKit          3D

 34 38  0  0  0  0  0  0  0  0999 V2000
   21.5698  -10.3095    8.9265 O   0  0  0  0  0  0  0  0  0  0  0  0
   22.5738  -10.5302    9.6805 C   0  0  0  0  0  0  0  0  0  0  0  0
   22.8441  -11.8015   10.2135 N   0  0  0  0  0  0  0  0  0  0  0  0
   24.1430  -12.0947   10.7534 C   0  0  0  0  0  0  0  0  0  0  0  0
   24.0322  -12.7887   12.0816 C   0  0  0  0  0  0  0  0  0  0  0  0
   22.8496  -13.5978   12.2300 N   0  0  0  0  0  0  0  0  0  0  0  0
   22.9089  -14.8433   12.9084 C   0  0  0  0  0  0  0  0  0  0  0  0
   22.0856  -15.8559   12.6257 N   0  0  0  0  0  0  0  0  0  0  0  0
   22.1193  -17.0471   13.2531 C   0  0  0  0  0  0  0  0  0  0  0  0
   23.0440  -17.2421   14.2365 C   0  0  0  0  0  0  0  0  0  0  0  0
   23.9136  -16.2172   14.5577 C   0  0  0  0  0  0  0  0  0  0  0  0
   23.8198  -15.0666   13.8928 N   0  0  0  0  0  0  0  0  0  0  0  0
   21.5830  -13.1616   11.6965 C   0  0  0  0  0  0  0  0  0  0  0  0
   21.8266  -12.8111   10.2206 C   0  0  0  0  0  0  0  0  0  0  0  0
   23.4322   -9.3686    9.9570 C   0  0  0  0  0  0  0  0  0  0  0  0
   24.4788   -9.0050    9.1394 C   0  0  0  0  0  0  0  0  0  0  0  0
   25.2677   -7.8960    9.4321 C   0  0  0  0  0  0  0  0  0  0  0  0
   23.2002   -8.5853   11.0791 C   0  0  0  0  0  0  0  0  0  0  0  0
   23.9903   -7.4831   11.3630 C   0  0  0  0  0  0  0  0  0  0  0  0
   25.0362   -7.1189   10.5465 C   0  0  0  0  0  0  0  0  0  0  0  0
   25.8883   -5.9445   10.8376 C   0  0  0  0  0  0  0  0  0  0  0  0
   27.3586   -6.2111   10.6970 C   0  0  2  0  0  0  0  0  0  0  0  0
   28.0680   -5.3010   11.6591 C   0  0  0  0  0  0  0  0  0  0  0  0
   28.5720   -5.5429   12.7762 O   0  0  0  0  0  0  0  0  0  0  0  0
   27.7745   -5.6359    9.4574 O   0  0  0  0  0  0  0  0  0  0  0  0
   27.8630   -4.2412    9.6294 C   0  0  0  0  0  0  0  0  0  0  0  0
   27.7981   -3.2020    8.7202 C   0  0  0  0  0  0  0  0  0  0  0  0
   27.6060   -3.4673    7.3028 C   0  0  0  0  0  0  0  0  0  0  0  0
   27.7044   -2.5730    6.4354 O   0  0  0  0  0  0  0  0  0  0  0  0
   27.2964   -4.7860    6.8840 N   0  0  0  0  0  0  0  0  0  0  0  0
   28.0446   -4.0013   10.9785 C   0  0  0  0  0  0  0  0  0  0  0  0
   28.1666   -2.6944   11.4491 C   0  0  0  0  0  0  0  0  0  0  0  0
   28.1046   -1.6401   10.5576 C   0  0  0  0  0  0  0  0  0  0  0  0
   27.9220   -1.9271    9.2193 C   0  0  0  0  0  0  0  0  0  0  0  0
  1  2  2  0
  2  3  1  0
  2 15  1  0
  3  4  1  0
  3 14  1  0
  4  5  1  0
  5  6  1  0
  6  7  1  0
  6 13  1  0
  7  8  2  0
  7 12  1  0
  8  9  1  0
  9 10  2  0
 10 11  1  0
 11 12  2  0
 13 14  1  0
 15 16  2  0
 15 18  1  0
 16 17  1  0
 17 20  2  0
 18 19  2  0
 19 20  1  0
 20 21  1  0
 22 21  1  1
 22 23  1  0
 22 25  1  0
 23 24  2  0
 23 31  1  0
 25 26  1  0
 26 27  2  0
 26 31  1  0
 27 28  1  0
 27 34  1  0
 28 29  2  0
 28 30  1  0
 31 32  2  0
 32 33  1  0
 33 34  2  0
M  END
$$$$
