
     RDKit          3D

 34 38  0  0  0  0  0  0  0  0999 V2000
   27.7138  -12.9906   12.4944 O   0  0  0  0  0  0  0  0  0  0  0  0
   26.9781  -12.5072   11.5722 C   0  0  0  0  0  0  0  0  0  0  0  0
   25.8401  -13.1778   11.0942 N   0  0  0  0  0  0  0  0  0  0  0  0
   25.8322  -14.6121   11.0094 C   0  0  0  0  0  0  0  0  0  0  0  0
   24.5594  -15.1797   11.5715 C   0  0  0  0  0  0  0  0  0  0  0  0
   23.4148  -14.3157   11.4354 N   0  0  0  0  0  0  0  0  0  0  0  0
   22.1377  -14.8540   11.1289 C   0  0  0  0  0  0  0  0  0  0  0  0
   21.1787  -14.1379   10.5370 N   0  0  0  0  0  0  0  0  0  0  0  0
   19.9590  -14.6226   10.2353 C   0  0  0  0  0  0  0  0  0  0  0  0
   19.6752  -15.9195   10.5480 C   0  0  0  0  0  0  0  0  0  0  0  0
   20.6424  -16.6926   11.1616 C   0  0  0  0  0  0  0  0  0  0  0  0
   21.8262  -16.1432   11.4287 N   0  0  0  0  0  0  0  0  0  0  0  0
   23.5398  -12.8896   11.6085 C   0  0  0  0  0  0  0  0  0  0  0  0
   24.6833  -12.4350   10.6887 C   0  0  0  0  0  0  0  0  0  0  0  0
   27.3966  -11.2016   11.0402 C   0  0  0  0  0  0  0  0  0  0  0  0
   27.1645  -10.0181   11.7047 C   0  0  0  0  0  0  0  0  0  0  0  0
   27.5789   -8.8010   11.1708 C   0  0  0  0  0  0  0  0  0  0  0  0
   28.0578  -11.1279    9.8221 C   0  0  0  0  0  0  0  0  0  0  0  0
   28.4668   -9.9123    9.2980 C   0  0  0  0  0  0  0  0  0  0  0  0
   28.2355   -8.7292    9.9612 C   0  0  0  0  0  0  0  0  0  0  0  0
   28.6666   -7.4238    9.4132 C   0  0  0  0  0  0  0  0  0  0  0  0
   27.6290   -6.7491    8.5641 C   0  0  2  0  0  0  0  0  0  0  0  0
   28.2839   -5.5552    7.9292 C   0  0  0  0  0  0  0  0  0  0  0  0
   28.7144   -5.3936    6.7678 O   0  0  0  0  0  0  0  0  0  0  0  0
   26.7209   -6.0931    9.4502 O   0  0  0  0  0  0  0  0  0  0  0  0
   27.3438   -4.9251    9.9302 C   0  0  0  0  0  0  0  0  0  0  0  0
   27.1293   -4.1785   11.0737 C   0  0  0  0  0  0  0  0  0  0  0  0
   26.1053   -4.5662   12.0315 C   0  0  0  0  0  0  0  0  0  0  0  0
   25.5578   -3.7426   12.7955 O   0  0  0  0  0  0  0  0  0  0  0  0
   25.7095   -5.9256   12.1054 N   0  0  0  0  0  0  0  0  0  0  0  0
   28.3141   -4.5669    9.0134 C   0  0  0  0  0  0  0  0  0  0  0  0
   29.1003   -3.4355    9.2288 C   0  0  0  0  0  0  0  0  0  0  0  0
   28.9030   -2.6746   10.3655 C   0  0  0  0  0  0  0  0  0  0  0  0
   27.9224   -3.0702   11.2536 C   0  0  0  0  0  0  0  0  0  0  0  0
  1  2  2  0
  2  3  1  0
  2 15  1  0
  3  4  1  0
  3 14  1  0
  4  5  1  0
  5  6  1  0
  6  7  1  0
  6 13  1  0
  7  8  2  0
  7 12  1  0
  8  9  1  0
  9 10  2  0
 10 11  1  0
 11 12  2  0
 13 14  1  0
 15 16  2  0
 15 18  1  0
 16 17  1  0
 17 20  2  0
 18 19  2  0
 19 20  1  0
 20 21  1  0
 22 21  1  1
 22 23  1  0
 22 25  1  0
 23 24  2  0
 23 31  1  0
 25 26  1  0
 26 27  2  0
 26 31  1  0
 27 28  1  0
 27 34  1  0
 28 29  2  0
 28 30  1  0
 31 32  2  0
 32 33  1  0
 33 34  2  0
M  END
$$$$
