
     RDKit          3D

 34 38  0  0  0  0  0  0  0  0999 V2000
   22.0130  -12.0424    8.9444 O   0  0  0  0  0  0  0  0  0  0  0  0
   23.0362  -12.0077    9.7041 C   0  0  0  0  0  0  0  0  0  0  0  0
   23.5366  -13.1571   10.3380 N   0  0  0  0  0  0  0  0  0  0  0  0
   24.5233  -13.0353   11.3754 C   0  0  0  0  0  0  0  0  0  0  0  0
   24.1726  -13.8934   12.5582 C   0  0  0  0  0  0  0  0  0  0  0  0
   23.4323  -15.0840   12.2272 N   0  0  0  0  0  0  0  0  0  0  0  0
   23.6893  -16.3043   12.9052 C   0  0  0  0  0  0  0  0  0  0  0  0
   23.5650  -17.4952   12.3141 N   0  0  0  0  0  0  0  0  0  0  0  0
   23.8017  -18.6677   12.9329 C   0  0  0  0  0  0  0  0  0  0  0  0
   24.1915  -18.6502   14.2398 C   0  0  0  0  0  0  0  0  0  0  0  0
   24.3310  -17.4365   14.8860 C   0  0  0  0  0  0  0  0  0  0  0  0
   24.0791  -16.3180   14.2077 N   0  0  0  0  0  0  0  0  0  0  0  0
   22.4157  -15.0627   11.2047 C   0  0  0  0  0  0  0  0  0  0  0  0
   23.0664  -14.4551    9.9526 C   0  0  0  0  0  0  0  0  0  0  0  0
   23.6601  -10.6870    9.8750 C   0  0  0  0  0  0  0  0  0  0  0  0
   24.8278  -10.3277    9.2399 C   0  0  0  0  0  0  0  0  0  0  0  0
   25.3870   -9.0661    9.4236 C   0  0  0  0  0  0  0  0  0  0  0  0
   23.0689   -9.7415   10.7015 C   0  0  0  0  0  0  0  0  0  0  0  0
   23.6321   -8.4881   10.8787 C   0  0  0  0  0  0  0  0  0  0  0  0
   24.7988   -8.1281   10.2444 C   0  0  0  0  0  0  0  0  0  0  0  0
   25.4116   -6.7932   10.4246 C   0  0  0  0  0  0  0  0  0  0  0  0
   26.6338   -6.5673    9.5832 C   0  0  2  0  0  0  0  0  0  0  0  0
   27.7898   -6.3751   10.5233 C   0  0  0  0  0  0  0  0  0  0  0  0
   28.6972   -7.1655   10.8585 O   0  0  0  0  0  0  0  0  0  0  0  0
   26.5335   -5.2503    9.0395 O   0  0  0  0  0  0  0  0  0  0  0  0
   26.8474   -4.3305   10.0583 C   0  0  0  0  0  0  0  0  0  0  0  0
   26.5141   -2.9990   10.2225 C   0  0  0  0  0  0  0  0  0  0  0  0
   25.6969   -2.3117    9.2346 C   0  0  0  0  0  0  0  0  0  0  0  0
   25.4700   -1.0840    9.2914 O   0  0  0  0  0  0  0  0  0  0  0  0
   25.1352   -3.0556    8.1663 N   0  0  0  0  0  0  0  0  0  0  0  0
   27.6228   -4.9942   10.9904 C   0  0  0  0  0  0  0  0  0  0  0  0
   28.0862   -4.3250   12.1227 C   0  0  0  0  0  0  0  0  0  0  0  0
   27.7649   -2.9936   12.3069 C   0  0  0  0  0  0  0  0  0  0  0  0
   26.9880   -2.3713   11.3499 C   0  0  0  0  0  0  0  0  0  0  0  0
  1  2  2  0
  2  3  1  0
  2 15  1  0
  3  4  1  0
  3 14  1  0
  4  5  1  0
  5  6  1  0
  6  7  1  0
  6 13  1  0
  7  8  2  0
  7 12  1  0
  8  9  1  0
  9 10  2  0
 10 11  1  0
 11 12  2  0
 13 14  1  0
 15 16  2  0
 15 18  1  0
 16 17  1  0
 17 20  2  0
 18 19  2  0
 19 20  1  0
 20 21  1  0
 22 21  1  1
 22 23  1  0
 22 25  1  0
 23 24  2  0
 23 31  1  0
 25 26  1  0
 26 27  2  0
 26 31  1  0
 27 28  1  0
 27 34  1  0
 28 29  2  0
 28 30  1  0
 31 32  2  0
 32 33  1  0
 33 34  2  0
M  END
$$$$
