
     RDKit          3D

 34 38  0  0  0  0  0  0  0  0999 V2000
   28.4973   -9.9541    6.3216 O   0  0  0  0  0  0  0  0  0  0  0  0
   27.9449   -9.1353    7.0730 C   0  0  0  0  0  0  0  0  0  0  0  0
   28.1007   -7.7464    6.8338 N   0  0  0  0  0  0  0  0  0  0  0  0
   27.1648   -7.0227    5.9619 C   0  0  0  0  0  0  0  0  0  0  0  0
   26.4355   -6.0330    6.8815 C   0  0  0  0  0  0  0  0  0  0  0  0
   27.4955   -5.1762    7.4029 N   0  0  0  0  0  0  0  0  0  0  0  0
   27.3324   -3.7720    7.2861 C   0  0  0  0  0  0  0  0  0  0  0  0
   26.3028   -3.2427    6.5843 N   0  0  0  0  0  0  0  0  0  0  0  0
   26.1097   -1.9138    6.4369 C   0  0  0  0  0  0  0  0  0  0  0  0
   27.0004   -1.0499    7.0263 C   0  0  0  0  0  0  0  0  0  0  0  0
   28.0508   -1.5616    7.7417 C   0  0  0  0  0  0  0  0  0  0  0  0
   28.1905   -2.8905    7.8537 N   0  0  0  0  0  0  0  0  0  0  0  0
   28.6796   -5.7147    8.0210 C   0  0  0  0  0  0  0  0  0  0  0  0
   29.1828   -6.9748    7.4086 C   0  0  0  0  0  0  0  0  0  0  0  0
   27.1443   -9.5814    8.1858 C   0  0  0  0  0  0  0  0  0  0  0  0
   27.7651   -9.9841    9.3667 C   0  0  0  0  0  0  0  0  0  0  0  0
   27.0476  -10.4238   10.4508 C   0  0  0  0  0  0  0  0  0  0  0  0
   25.7670   -9.6462    8.1591 C   0  0  0  0  0  0  0  0  0  0  0  0
   25.0416  -10.0931    9.2615 C   0  0  0  0  0  0  0  0  0  0  0  0
   25.6523  -10.4897   10.4223 C   0  0  0  0  0  0  0  0  0  0  0  0
   24.9558  -10.9997   11.6153 C   0  0  0  0  0  0  0  0  0  0  0  0
   24.7409  -12.4581   11.6757 C   0  0  2  0  0  0  0  0  0  0  0  0
   23.6684  -12.9957   10.7998 C   0  0  0  0  0  0  0  0  0  0  0  0
   23.0650  -12.5269    9.8249 O   0  0  0  0  0  0  0  0  0  0  0  0
   24.3006  -12.9476   12.9290 O   0  0  0  0  0  0  0  0  0  0  0  0
   23.8305  -14.2480   12.6844 C   0  0  0  0  0  0  0  0  0  0  0  0
   23.7099  -15.3889   13.4688 C   0  0  0  0  0  0  0  0  0  0  0  0
   24.0941  -15.4098   14.8614 C   0  0  0  0  0  0  0  0  0  0  0  0
   24.4720  -14.3250   15.4206 O   0  0  0  0  0  0  0  0  0  0  0  0
   24.0774  -16.5706   15.6437 N   0  0  0  0  0  0  0  0  0  0  0  0
   23.4138  -14.3483   11.3567 C   0  0  0  0  0  0  0  0  0  0  0  0
   22.9081  -15.5208   10.8510 C   0  0  0  0  0  0  0  0  0  0  0  0
   22.7903  -16.6613   11.6425 C   0  0  0  0  0  0  0  0  0  0  0  0
   23.1958  -16.5677   12.9375 C   0  0  0  0  0  0  0  0  0  0  0  0
  1  2  2  0
  2  3  1  0
  2 15  1  0
  4  3  1  1
 14  3  1  1
  4  5  1  0
  5  6  1  6
  6  7  1  0
 13  6  1  1
  7  8  2  0
  7 12  1  0
  8  9  1  0
  9 10  2  0
 10 11  1  0
 11 12  2  0
 13 14  1  0
 15 16  2  0
 15 18  1  0
 16 17  1  0
 17 20  2  0
 18 19  2  0
 19 20  1  0
 21 20  1  1
 21 22  1  0
 22 23  1  0
 22 25  1  1
 23 24  2  0
 23 31  1  0
 25 26  1  0
 26 27  2  0
 26 31  1  0
 27 28  1  0
 27 34  1  0
 28 29  2  0
 28 30  1  0
 31 32  2  0
 32 33  1  0
 33 34  2  0
M  END
$$$$
