
     RDKit          3D

 34 38  0  0  0  0  0  0  0  0999 V2000
   24.1282  -11.6167    7.1573 O   0  0  0  0  0  0  0  0  0  0  0  0
   24.8710  -11.6066    8.1934 C   0  0  0  0  0  0  0  0  0  0  0  0
   24.8788  -12.6635    9.1187 N   0  0  0  0  0  0  0  0  0  0  0  0
   25.8739  -12.7064   10.1544 C   0  0  0  0  0  0  0  0  0  0  0  0
   25.2540  -13.0209   11.4867 C   0  0  0  0  0  0  0  0  0  0  0  0
   24.0724  -13.8415   11.4111 N   0  0  0  0  0  0  0  0  0  0  0  0
   23.8315  -14.8493   12.3813 C   0  0  0  0  0  0  0  0  0  0  0  0
   24.3067  -14.7763   13.6270 N   0  0  0  0  0  0  0  0  0  0  0  0
   24.0942  -15.7173   14.5668 C   0  0  0  0  0  0  0  0  0  0  0  0
   23.3517  -16.8132   14.2385 C   0  0  0  0  0  0  0  0  0  0  0  0
   22.8428  -16.9245   12.9584 C   0  0  0  0  0  0  0  0  0  0  0  0
   23.0952  -15.9527   12.0829 N   0  0  0  0  0  0  0  0  0  0  0  0
   23.1102  -13.6572   10.3531 C   0  0  0  0  0  0  0  0  0  0  0  0
   23.8957  -13.7031    9.0336 C   0  0  0  0  0  0  0  0  0  0  0  0
   25.7201  -10.4173    8.3586 C   0  0  0  0  0  0  0  0  0  0  0  0
   25.6256   -9.5809    9.4484 C   0  0  0  0  0  0  0  0  0  0  0  0
   26.4496   -8.4657    9.5718 C   0  0  0  0  0  0  0  0  0  0  0  0
   26.6673  -10.1012    7.3946 C   0  0  0  0  0  0  0  0  0  0  0  0
   27.4835   -8.9892    7.5254 C   0  0  0  0  0  0  0  0  0  0  0  0
   27.3899   -8.1529    8.6140 C   0  0  0  0  0  0  0  0  0  0  0  0
   28.2549   -6.9618    8.7665 C   0  0  0  0  0  0  0  0  0  0  0  0
   27.7580   -5.7521    8.0301 C   0  0  2  0  0  0  0  0  0  0  0  0
   28.8624   -4.7338    8.0544 C   0  0  0  0  0  0  0  0  0  0  0  0
   29.6761   -4.4046    7.1656 O   0  0  0  0  0  0  0  0  0  0  0  0
   26.8051   -5.1060    8.8756 O   0  0  0  0  0  0  0  0  0  0  0  0
   27.5082   -4.4221    9.8857 C   0  0  0  0  0  0  0  0  0  0  0  0
   27.1254   -4.0125   11.1493 C   0  0  0  0  0  0  0  0  0  0  0  0
   25.7813   -4.2765   11.6392 C   0  0  0  0  0  0  0  0  0  0  0  0
   25.2081   -3.5259   12.4576 O   0  0  0  0  0  0  0  0  0  0  0  0
   25.0914   -5.4249   11.1749 N   0  0  0  0  0  0  0  0  0  0  0  0
   28.7826   -4.1773    9.4097 C   0  0  0  0  0  0  0  0  0  0  0  0
   29.7120   -3.5066   10.2040 C   0  0  0  0  0  0  0  0  0  0  0  0
   29.3506   -3.0882   11.4706 C   0  0  0  0  0  0  0  0  0  0  0  0
   28.0671   -3.3544   11.9043 C   0  0  0  0  0  0  0  0  0  0  0  0
  1  2  2  0
  2  3  1  0
  2 15  1  0
  3  4  1  0
  3 14  1  0
  4  5  1  0
  5  6  1  0
  6  7  1  0
  6 13  1  0
  7  8  2  0
  7 12  1  0
  8  9  1  0
  9 10  2  0
 10 11  1  0
 11 12  2  0
 13 14  1  0
 15 16  2  0
 15 18  1  0
 16 17  1  0
 17 20  2  0
 18 19  2  0
 19 20  1  0
 20 21  1  0
 22 21  1  1
 22 23  1  0
 22 25  1  0
 23 24  2  0
 23 31  1  0
 25 26  1  0
 26 27  2  0
 26 31  1  0
 27 28  1  0
 27 34  1  0
 28 29  2  0
 28 30  1  0
 31 32  2  0
 32 33  1  0
 33 34  2  0
M  END
$$$$
