
     RDKit          3D

 34 38  0  0  0  0  0  0  0  0999 V2000
   22.1367  -10.4410    7.0883 O   0  0  0  0  0  0  0  0  0  0  0  0
   23.0968  -10.6036    7.9112 C   0  0  0  0  0  0  0  0  0  0  0  0
   23.6078  -11.8744    8.2230 N   0  0  0  0  0  0  0  0  0  0  0  0
   24.7895  -11.9969    9.0313 C   0  0  0  0  0  0  0  0  0  0  0  0
   24.6067  -13.0356   10.1017 C   0  0  0  0  0  0  0  0  0  0  0  0
   23.7100  -14.1044    9.7428 N   0  0  0  0  0  0  0  0  0  0  0  0
   23.9859  -15.4398   10.1373 C   0  0  0  0  0  0  0  0  0  0  0  0
   24.1112  -15.8002   11.4169 N   0  0  0  0  0  0  0  0  0  0  0  0
   24.3730  -17.0585   11.8192 C   0  0  0  0  0  0  0  0  0  0  0  0
   24.5208  -18.0299   10.8732 C   0  0  0  0  0  0  0  0  0  0  0  0
   24.3983  -17.6954    9.5379 C   0  0  0  0  0  0  0  0  0  0  0  0
   24.1384  -16.4289    9.2169 N   0  0  0  0  0  0  0  0  0  0  0  0
   22.5153  -13.8426    8.9791 C   0  0  0  0  0  0  0  0  0  0  0  0
   22.9540  -13.0534    7.7361 C   0  0  0  0  0  0  0  0  0  0  0  0
   23.6363   -9.3753    8.5137 C   0  0  0  0  0  0  0  0  0  0  0  0
   23.1125   -8.8153    9.6574 C   0  0  0  0  0  0  0  0  0  0  0  0
   23.6527   -7.6529   10.2007 C   0  0  0  0  0  0  0  0  0  0  0  0
   24.7198   -8.7336    7.9300 C   0  0  0  0  0  0  0  0  0  0  0  0
   25.2512   -7.5770    8.4774 C   0  0  0  0  0  0  0  0  0  0  0  0
   24.7287   -7.0167    9.6203 C   0  0  0  0  0  0  0  0  0  0  0  0
   25.2859   -5.7818   10.2157 C   0  0  0  0  0  0  0  0  0  0  0  0
   26.3107   -6.0312   11.2835 C   0  0  2  0  0  0  0  0  0  0  0  0
   26.4468   -4.7601   12.0727 C   0  0  0  0  0  0  0  0  0  0  0  0
   25.9873   -4.4526   13.1928 O   0  0  0  0  0  0  0  0  0  0  0  0
   27.5871   -6.0645   10.6431 O   0  0  0  0  0  0  0  0  0  0  0  0
   27.9618   -4.7407   10.3437 C   0  0  0  0  0  0  0  0  0  0  0  0
   28.8316   -4.2280    9.3995 C   0  0  0  0  0  0  0  0  0  0  0  0
   29.5483   -5.1122    8.4936 C   0  0  0  0  0  0  0  0  0  0  0  0
   30.4702   -4.7072    7.7534 O   0  0  0  0  0  0  0  0  0  0  0  0
   29.1932   -6.4840    8.4445 N   0  0  0  0  0  0  0  0  0  0  0  0
   27.2749   -3.9104   11.2094 C   0  0  0  0  0  0  0  0  0  0  0  0
   27.4499   -2.5285   11.1440 C   0  0  0  0  0  0  0  0  0  0  0  0
   28.3146   -1.9943   10.2075 C   0  0  0  0  0  0  0  0  0  0  0  0
   28.9794   -2.8617    9.3635 C   0  0  0  0  0  0  0  0  0  0  0  0
  1  2  2  0
  2  3  1  0
  2 15  1  0
  3  4  1  0
  3 14  1  0
  4  5  1  0
  5  6  1  0
  6  7  1  0
  6 13  1  0
  7  8  2  0
  7 12  1  0
  8  9  1  0
  9 10  2  0
 10 11  1  0
 11 12  2  0
 13 14  1  0
 15 16  2  0
 15 18  1  0
 16 17  1  0
 17 20  2  0
 18 19  2  0
 19 20  1  0
 20 21  1  0
 22 21  1  6
 22 23  1  0
 22 25  1  0
 23 24  2  0
 23 31  1  0
 25 26  1  0
 26 27  2  0
 26 31  1  0
 27 28  1  0
 27 34  1  0
 28 29  2  0
 28 30  1  0
 31 32  2  0
 32 33  1  0
 33 34  2  0
M  END
$$$$
