
     RDKit          3D

 34 38  0  0  0  0  0  0  0  0999 V2000
   24.9158  -12.0753    7.2764 O   0  0  0  0  0  0  0  0  0  0  0  0
   25.4167  -11.8532    8.4276 C   0  0  0  0  0  0  0  0  0  0  0  0
   25.2503  -12.7446    9.5004 N   0  0  0  0  0  0  0  0  0  0  0  0
   25.8555  -12.4612   10.7725 C   0  0  0  0  0  0  0  0  0  0  0  0
   24.8805  -12.6786   11.8951 C   0  0  0  0  0  0  0  0  0  0  0  0
   23.8926  -13.6936   11.6332 N   0  0  0  0  0  0  0  0  0  0  0  0
   23.4724  -14.5737   12.6646 C   0  0  0  0  0  0  0  0  0  0  0  0
   22.4265  -15.3927   12.5293 N   0  0  0  0  0  0  0  0  0  0  0  0
   22.0059  -16.2369   13.4906 C   0  0  0  0  0  0  0  0  0  0  0  0
   22.6799  -16.2657   14.6761 C   0  0  0  0  0  0  0  0  0  0  0  0
   23.7680  -15.4323   14.8539 C   0  0  0  0  0  0  0  0  0  0  0  0
   24.1247  -14.6243   13.8566 N   0  0  0  0  0  0  0  0  0  0  0  0
   23.3087  -13.8370   10.3225 C   0  0  0  0  0  0  0  0  0  0  0  0
   24.4778  -13.9399    9.3310 C   0  0  0  0  0  0  0  0  0  0  0  0
   26.1805  -10.6036    8.5613 C   0  0  0  0  0  0  0  0  0  0  0  0
   25.8268   -9.6058    9.4418 C   0  0  0  0  0  0  0  0  0  0  0  0
   26.5771   -8.4375    9.5430 C   0  0  0  0  0  0  0  0  0  0  0  0
   27.3110  -10.3944    7.7837 C   0  0  0  0  0  0  0  0  0  0  0  0
   28.0520   -9.2286    7.8908 C   0  0  0  0  0  0  0  0  0  0  0  0
   27.6996   -8.2310    8.7704 C   0  0  0  0  0  0  0  0  0  0  0  0
   28.4816   -6.9807    8.8950 C   0  0  0  0  0  0  0  0  0  0  0  0
   27.8784   -5.8124    8.1713 C   0  0  2  0  0  0  0  0  0  0  0  0
   28.9059   -4.7163    8.1653 C   0  0  0  0  0  0  0  0  0  0  0  0
   29.6695   -4.3311    7.2549 O   0  0  0  0  0  0  0  0  0  0  0  0
   26.9037   -5.2352    9.0414 O   0  0  0  0  0  0  0  0  0  0  0  0
   27.5817   -4.4992   10.0319 C   0  0  0  0  0  0  0  0  0  0  0  0
   27.2037   -4.1152   11.3050 C   0  0  0  0  0  0  0  0  0  0  0  0
   25.8960   -4.4751   11.8307 C   0  0  0  0  0  0  0  0  0  0  0  0
   25.3024   -3.7788   12.6820 O   0  0  0  0  0  0  0  0  0  0  0  0
   25.2668   -5.6570   11.3643 N   0  0  0  0  0  0  0  0  0  0  0  0
   28.8218   -4.1635    9.5219 C   0  0  0  0  0  0  0  0  0  0  0  0
   29.7206   -3.4246   10.2905 C   0  0  0  0  0  0  0  0  0  0  0  0
   29.3634   -3.0303   11.5660 C   0  0  0  0  0  0  0  0  0  0  0  0
   28.1146   -3.3882   12.0341 C   0  0  0  0  0  0  0  0  0  0  0  0
  1  2  2  0
  2  3  1  0
  2 15  1  0
  3  4  1  0
  3 14  1  0
  4  5  1  0
  5  6  1  0
  6  7  1  0
  6 13  1  0
  7  8  2  0
  7 12  1  0
  8  9  1  0
  9 10  2  0
 10 11  1  0
 11 12  2  0
 13 14  1  0
 15 16  2  0
 15 18  1  0
 16 17  1  0
 17 20  2  0
 18 19  2  0
 19 20  1  0
 20 21  1  0
 22 21  1  1
 22 23  1  0
 22 25  1  0
 23 24  2  0
 23 31  1  0
 25 26  1  0
 26 27  2  0
 26 31  1  0
 27 28  1  0
 27 34  1  0
 28 29  2  0
 28 30  1  0
 31 32  2  0
 32 33  1  0
 33 34  2  0
M  END
$$$$
