
     RDKit          3D

 34 38  0  0  0  0  0  0  0  0999 V2000
   23.3519  -11.2991    7.7634 O   0  0  0  0  0  0  0  0  0  0  0  0
   24.3053  -11.4580    8.5947 C   0  0  0  0  0  0  0  0  0  0  0  0
   24.4035  -12.5964    9.4118 N   0  0  0  0  0  0  0  0  0  0  0  0
   25.5492  -12.7771   10.2601 C   0  0  0  0  0  0  0  0  0  0  0  0
   25.1365  -13.1894   11.6450 C   0  0  0  0  0  0  0  0  0  0  0  0
   23.9142  -13.9499   11.6969 N   0  0  0  0  0  0  0  0  0  0  0  0
   23.7774  -15.0334   12.6036 C   0  0  0  0  0  0  0  0  0  0  0  0
   24.6007  -15.2124   13.6395 N   0  0  0  0  0  0  0  0  0  0  0  0
   24.4946  -16.2308   14.5144 C   0  0  0  0  0  0  0  0  0  0  0  0
   23.4913  -17.1387   14.3423 C   0  0  0  0  0  0  0  0  0  0  0  0
   22.6190  -16.9870   13.2812 C   0  0  0  0  0  0  0  0  0  0  0  0
   22.7873  -15.9538   12.4573 N   0  0  0  0  0  0  0  0  0  0  0  0
   22.8052  -13.6278   10.8333 C   0  0  0  0  0  0  0  0  0  0  0  0
   23.3630  -13.5821    9.4025 C   0  0  0  0  0  0  0  0  0  0  0  0
   25.2969  -10.3730    8.6440 C   0  0  0  0  0  0  0  0  0  0  0  0
   26.4461  -10.3800    7.8854 C   0  0  0  0  0  0  0  0  0  0  0  0
   27.3602   -9.3325    7.9564 C   0  0  0  0  0  0  0  0  0  0  0  0
   25.0917   -9.2823    9.4775 C   0  0  0  0  0  0  0  0  0  0  0  0
   26.0068   -8.2440    9.5420 C   0  0  0  0  0  0  0  0  0  0  0  0
   27.1552   -8.2499    8.7843 C   0  0  0  0  0  0  0  0  0  0  0  0
   28.1413   -7.1479    8.8433 C   0  0  0  0  0  0  0  0  0  0  0  0
   27.7479   -5.9377    8.0476 C   0  0  2  0  0  0  0  0  0  0  0  0
   28.9130   -4.9896    8.0777 C   0  0  0  0  0  0  0  0  0  0  0  0
   29.7764   -4.7444    7.2089 O   0  0  0  0  0  0  0  0  0  0  0  0
   26.8088   -5.2031    8.8343 O   0  0  0  0  0  0  0  0  0  0  0  0
   27.5181   -4.5274    9.8456 C   0  0  0  0  0  0  0  0  0  0  0  0
   27.1180   -4.0486   11.0791 C   0  0  0  0  0  0  0  0  0  0  0  0
   25.7436   -4.2107   11.5275 C   0  0  0  0  0  0  0  0  0  0  0  0
   25.2283   -3.4650   12.3879 O   0  0  0  0  0  0  0  0  0  0  0  0
   24.9551   -5.2498   10.9719 N   0  0  0  0  0  0  0  0  0  0  0  0
   28.8213   -4.3797    9.4091 C   0  0  0  0  0  0  0  0  0  0  0  0
   29.7629   -3.7391   10.2137 C   0  0  0  0  0  0  0  0  0  0  0  0
   29.3847   -3.2527   11.4508 C   0  0  0  0  0  0  0  0  0  0  0  0
   28.0725   -3.4228   11.8455 C   0  0  0  0  0  0  0  0  0  0  0  0
  1  2  2  0
  2  3  1  0
  2 15  1  0
  3  4  1  0
  3 14  1  0
  4  5  1  0
  5  6  1  0
  6  7  1  0
  6 13  1  0
  7  8  2  0
  7 12  1  0
  8  9  1  0
  9 10  2  0
 10 11  1  0
 11 12  2  0
 13 14  1  0
 15 16  2  0
 15 18  1  0
 16 17  1  0
 17 20  2  0
 18 19  2  0
 19 20  1  0
 20 21  1  0
 22 21  1  1
 22 23  1  0
 22 25  1  0
 23 24  2  0
 23 31  1  0
 25 26  1  0
 26 27  2  0
 26 31  1  0
 27 28  1  0
 27 34  1  0
 28 29  2  0
 28 30  1  0
 31 32  2  0
 32 33  1  0
 33 34  2  0
M  END
$$$$
