
     RDKit          3D

 34 38  0  0  0  0  0  0  0  0999 V2000
   25.5043   -8.3788    5.9577 O   0  0  0  0  0  0  0  0  0  0  0  0
   25.7378   -7.6349    6.9234 C   0  0  0  0  0  0  0  0  0  0  0  0
   26.5573   -6.4914    6.7467 N   0  0  0  0  0  0  0  0  0  0  0  0
   27.6599   -6.2044    7.6750 C   0  0  0  0  0  0  0  0  0  0  0  0
   28.9405   -6.3410    6.8393 C   0  0  0  0  0  0  0  0  0  0  0  0
   28.8028   -5.3270    5.7990 N   0  0  0  0  0  0  0  0  0  0  0  0
   29.8736   -4.4153    5.6140 C   0  0  0  0  0  0  0  0  0  0  0  0
   30.0250   -3.7399    4.4506 N   0  0  0  0  0  0  0  0  0  0  0  0
   31.0320   -2.8685    4.2231 C   0  0  0  0  0  0  0  0  0  0  0  0
   31.9531   -2.6526    5.2191 C   0  0  0  0  0  0  0  0  0  0  0  0
   31.8212   -3.3247    6.4056 C   0  0  0  0  0  0  0  0  0  0  0  0
   30.8001   -4.1773    6.5734 N   0  0  0  0  0  0  0  0  0  0  0  0
   27.6269   -5.2339    4.9727 C   0  0  0  0  0  0  0  0  0  0  0  0
   26.3495   -5.5442    5.6714 C   0  0  0  0  0  0  0  0  0  0  0  0
   25.1828   -7.9202    8.2229 C   0  0  0  0  0  0  0  0  0  0  0  0
   25.8626   -7.5137    9.3695 C   0  0  0  0  0  0  0  0  0  0  0  0
   25.3795   -7.7680   10.6286 C   0  0  0  0  0  0  0  0  0  0  0  0
   23.9947   -8.5936    8.4156 C   0  0  0  0  0  0  0  0  0  0  0  0
   23.5072   -8.8501    9.6952 C   0  0  0  0  0  0  0  0  0  0  0  0
   24.1761   -8.4509   10.8225 C   0  0  0  0  0  0  0  0  0  0  0  0
   23.7389   -8.7106   12.2045 C   0  0  0  0  0  0  0  0  0  0  0  0
   23.8398  -10.1061   12.6728 C   0  0  2  0  0  0  0  0  0  0  0  0
   25.2135  -10.6103   12.9281 C   0  0  0  0  0  0  0  0  0  0  0  0
   26.3033  -10.0414   13.0798 O   0  0  0  0  0  0  0  0  0  0  0  0
   23.3893  -11.0816   11.7509 O   0  0  0  0  0  0  0  0  0  0  0  0
   23.8832  -12.3078   12.2246 C   0  0  0  0  0  0  0  0  0  0  0  0
   23.4638  -13.6264   12.0951 C   0  0  0  0  0  0  0  0  0  0  0  0
   22.2924  -13.9902   11.3315 C   0  0  0  0  0  0  0  0  0  0  0  0
   21.7311  -15.1171   11.5491 O   0  0  0  0  0  0  0  0  0  0  0  0
   21.7309  -13.1652   10.3499 N   0  0  0  0  0  0  0  0  0  0  0  0
   25.0368  -12.0837   12.9766 C   0  0  0  0  0  0  0  0  0  0  0  0
   25.7241  -13.1195   13.5602 C   0  0  0  0  0  0  0  0  0  0  0  0
   25.2982  -14.4393   13.4271 C   0  0  0  0  0  0  0  0  0  0  0  0
   24.1737  -14.6619   12.6949 C   0  0  0  0  0  0  0  0  0  0  0  0
  1  2  2  0
  2  3  1  0
  2 15  1  0
  4  3  1  1
 14  3  1  1
  4  5  1  0
  5  6  1  6
  6  7  1  0
 13  6  1  1
  7  8  2  0
  7 12  1  0
  8  9  1  0
  9 10  2  0
 10 11  1  0
 11 12  2  0
 13 14  1  0
 15 16  2  0
 15 18  1  0
 16 17  1  0
 17 20  2  0
 18 19  2  0
 19 20  1  0
 21 20  1  1
 21 22  1  0
 22 23  1  0
 22 25  1  6
 23 24  2  0
 23 31  1  0
 25 26  1  0
 26 27  2  0
 26 31  1  0
 27 28  1  0
 27 34  1  0
 28 29  2  0
 28 30  1  0
 31 32  2  0
 32 33  1  0
 33 34  2  0
M  END
$$$$
