
     RDKit          3D

 34 38  0  0  0  0  0  0  0  0999 V2000
   25.9619  -13.0052    6.8239 O   0  0  0  0  0  0  0  0  0  0  0  0
   25.6203  -12.4935    7.9405 C   0  0  0  0  0  0  0  0  0  0  0  0
   24.7827  -13.1653    8.8463 N   0  0  0  0  0  0  0  0  0  0  0  0
   24.0531  -14.3292    8.4250 C   0  0  0  0  0  0  0  0  0  0  0  0
   24.1700  -15.4353    9.4355 C   0  0  0  0  0  0  0  0  0  0  0  0
   24.3338  -14.9823   10.7931 N   0  0  0  0  0  0  0  0  0  0  0  0
   23.6950  -15.6632   11.8622 C   0  0  0  0  0  0  0  0  0  0  0  0
   23.4846  -16.9818   11.8513 N   0  0  0  0  0  0  0  0  0  0  0  0
   22.8812  -17.6530   12.8508 C   0  0  0  0  0  0  0  0  0  0  0  0
   22.4558  -16.9558   13.9431 C   0  0  0  0  0  0  0  0  0  0  0  0
   22.6556  -15.5892   13.9910 C   0  0  0  0  0  0  0  0  0  0  0  0
   23.2604  -14.9947   12.9636 N   0  0  0  0  0  0  0  0  0  0  0  0
   25.1490  -13.8320   11.0958 C   0  0  0  0  0  0  0  0  0  0  0  0
   24.6516  -12.6927   10.1931 C   0  0  0  0  0  0  0  0  0  0  0  0
   26.1593  -11.1542    8.2206 C   0  0  0  0  0  0  0  0  0  0  0  0
   25.3546  -10.0545    8.4183 C   0  0  0  0  0  0  0  0  0  0  0  0
   25.9016   -8.8024    8.6850 C   0  0  0  0  0  0  0  0  0  0  0  0
   27.5315  -10.9604    8.2983 C   0  0  0  0  0  0  0  0  0  0  0  0
   28.0675   -9.7107    8.5642 C   0  0  0  0  0  0  0  0  0  0  0  0
   27.2643   -8.6113    8.7621 C   0  0  0  0  0  0  0  0  0  0  0  0
   27.8231   -7.2708    9.0466 C   0  0  0  0  0  0  0  0  0  0  0  0
   27.3750   -6.2093    8.0849 C   0  0  2  0  0  0  0  0  0  0  0  0
   28.5612   -5.3282    7.8130 C   0  0  0  0  0  0  0  0  0  0  0  0
   29.3270   -5.2875    6.8270 O   0  0  0  0  0  0  0  0  0  0  0  0
   26.5512   -5.2993    8.8154 O   0  0  0  0  0  0  0  0  0  0  0  0
   27.3884   -4.4844    9.6012 C   0  0  0  0  0  0  0  0  0  0  0  0
   27.1436   -3.7695   10.7587 C   0  0  0  0  0  0  0  0  0  0  0  0
   25.8250   -3.7812   11.3730 C   0  0  0  0  0  0  0  0  0  0  0  0
   25.4587   -2.9072   12.1877 O   0  0  0  0  0  0  0  0  0  0  0  0
   24.9180   -4.8186   11.0390 N   0  0  0  0  0  0  0  0  0  0  0  0
   28.6372   -4.4813    9.0089 C   0  0  0  0  0  0  0  0  0  0  0  0
   29.6809   -3.7497    9.5746 C   0  0  0  0  0  0  0  0  0  0  0  0
   29.4584   -3.0277   10.7319 C   0  0  0  0  0  0  0  0  0  0  0  0
   28.1952   -3.0601   11.2885 C   0  0  0  0  0  0  0  0  0  0  0  0
  1  2  2  0
  2  3  1  0
  2 15  1  0
  3  4  1  0
  3 14  1  0
  4  5  1  0
  5  6  1  0
  6  7  1  0
  6 13  1  0
  7  8  2  0
  7 12  1  0
  8  9  1  0
  9 10  2  0
 10 11  1  0
 11 12  2  0
 13 14  1  0
 15 16  2  0
 15 18  1  0
 16 17  1  0
 17 20  2  0
 18 19  2  0
 19 20  1  0
 20 21  1  0
 22 21  1  1
 22 23  1  0
 22 25  1  0
 23 24  2  0
 23 31  1  0
 25 26  1  0
 26 27  2  0
 26 31  1  0
 27 28  1  0
 27 34  1  0
 28 29  2  0
 28 30  1  0
 31 32  2  0
 32 33  1  0
 33 34  2  0
M  END
$$$$
