
     RDKit          3D

 34 38  0  0  0  0  0  0  0  0999 V2000
   26.1956  -12.0683    5.7805 O   0  0  0  0  0  0  0  0  0  0  0  0
   26.3311  -11.9262    7.0402 C   0  0  0  0  0  0  0  0  0  0  0  0
   26.0246  -12.9549    7.9463 N   0  0  0  0  0  0  0  0  0  0  0  0
   26.4122  -12.8390    9.3251 C   0  0  0  0  0  0  0  0  0  0  0  0
   25.2792  -13.2140   10.2383 C   0  0  0  0  0  0  0  0  0  0  0  0
   24.3765  -14.1938    9.6904 N   0  0  0  0  0  0  0  0  0  0  0  0
   23.8257  -15.2081   10.5167 C   0  0  0  0  0  0  0  0  0  0  0  0
   22.8139  -14.9798   11.3577 N   0  0  0  0  0  0  0  0  0  0  0  0
   22.2727  -15.9223   12.1528 C   0  0  0  0  0  0  0  0  0  0  0  0
   22.7794  -17.1878   12.1050 C   0  0  0  0  0  0  0  0  0  0  0  0
   23.8271  -17.4629   11.2468 C   0  0  0  0  0  0  0  0  0  0  0  0
   24.3101  -16.4783   10.4906 N   0  0  0  0  0  0  0  0  0  0  0  0
   24.0118  -14.1655    8.2956 C   0  0  0  0  0  0  0  0  0  0  0  0
   25.3254  -14.1238    7.5000 C   0  0  0  0  0  0  0  0  0  0  0  0
   26.8294  -10.6160    7.4850 C   0  0  0  0  0  0  0  0  0  0  0  0
   28.1452  -10.3969    7.8264 C   0  0  0  0  0  0  0  0  0  0  0  0
   28.5808   -9.1410    8.2399 C   0  0  0  0  0  0  0  0  0  0  0  0
   25.9618   -9.5360    7.5709 C   0  0  0  0  0  0  0  0  0  0  0  0
   26.4037   -8.2893    7.9834 C   0  0  0  0  0  0  0  0  0  0  0  0
   27.7183   -8.0693    8.3246 C   0  0  0  0  0  0  0  0  0  0  0  0
   28.2040   -6.7432    8.7670 C   0  0  0  0  0  0  0  0  0  0  0  0
   27.5411   -5.5905    8.0712 C   0  0  2  0  0  0  0  0  0  0  0  0
   28.5816   -4.5209    7.8960 C   0  0  0  0  0  0  0  0  0  0  0  0
   29.2377   -4.1912    6.8854 O   0  0  0  0  0  0  0  0  0  0  0  0
   26.6895   -4.9552    9.0259 O   0  0  0  0  0  0  0  0  0  0  0  0
   27.4957   -4.1969    9.8961 C   0  0  0  0  0  0  0  0  0  0  0  0
   27.2809   -3.7531   11.1876 C   0  0  0  0  0  0  0  0  0  0  0  0
   26.0391   -4.0597   11.8804 C   0  0  0  0  0  0  0  0  0  0  0  0
   25.6150   -3.3681   12.8310 O   0  0  0  0  0  0  0  0  0  0  0  0
   25.2777   -5.1819   11.4667 N   0  0  0  0  0  0  0  0  0  0  0  0
   28.6718   -3.9123    9.2281 C   0  0  0  0  0  0  0  0  0  0  0  0
   29.6707   -3.1655    9.8518 C   0  0  0  0  0  0  0  0  0  0  0  0
   29.4770   -2.7117   11.1428 C   0  0  0  0  0  0  0  0  0  0  0  0
   28.2868   -3.0200   11.7712 C   0  0  0  0  0  0  0  0  0  0  0  0
  1  2  2  0
  2  3  1  0
  2 15  1  0
  3  4  1  0
  3 14  1  0
  4  5  1  0
  5  6  1  0
  6  7  1  0
  6 13  1  0
  7  8  2  0
  7 12  1  0
  8  9  1  0
  9 10  2  0
 10 11  1  0
 11 12  2  0
 13 14  1  0
 15 16  2  0
 15 18  1  0
 16 17  1  0
 17 20  2  0
 18 19  2  0
 19 20  1  0
 20 21  1  0
 22 21  1  1
 22 23  1  0
 22 25  1  0
 23 24  2  0
 23 31  1  0
 25 26  1  0
 26 27  2  0
 26 31  1  0
 27 28  1  0
 27 34  1  0
 28 29  2  0
 28 30  1  0
 31 32  2  0
 32 33  1  0
 33 34  2  0
M  END
$$$$
