
     RDKit          3D

 34 38  0  0  0  0  0  0  0  0999 V2000
   23.0766   -9.6631   11.4020 O   0  0  0  0  0  0  0  0  0  0  0  0
   24.1584  -10.2512   11.0717 C   0  0  0  0  0  0  0  0  0  0  0  0
   24.4155  -11.5902   11.4101 N   0  0  0  0  0  0  0  0  0  0  0  0
   23.5815  -12.2639   12.3668 C   0  0  0  0  0  0  0  0  0  0  0  0
   23.1894  -13.6288   11.8754 C   0  0  0  0  0  0  0  0  0  0  0  0
   24.1614  -14.2491   11.0119 N   0  0  0  0  0  0  0  0  0  0  0  0
   24.4175  -15.6426   11.0988 C   0  0  0  0  0  0  0  0  0  0  0  0
   23.5166  -16.5116   11.5635 N   0  0  0  0  0  0  0  0  0  0  0  0
   23.7328  -17.8376   11.6574 C   0  0  0  0  0  0  0  0  0  0  0  0
   24.9388  -18.3332   11.2573 C   0  0  0  0  0  0  0  0  0  0  0  0
   25.8973  -17.4647   10.7706 C   0  0  0  0  0  0  0  0  0  0  0  0
   25.6102  -16.1653   10.7076 N   0  0  0  0  0  0  0  0  0  0  0  0
   24.8923  -13.4717   10.0420 C   0  0  0  0  0  0  0  0  0  0  0  0
   25.5101  -12.2893   10.8040 C   0  0  0  0  0  0  0  0  0  0  0  0
   25.1211   -9.4386   10.3130 C   0  0  0  0  0  0  0  0  0  0  0  0
   26.3972   -9.8699   10.0275 C   0  0  0  0  0  0  0  0  0  0  0  0
   27.2797   -9.0734    9.3031 C   0  0  0  0  0  0  0  0  0  0  0  0
   24.7558   -8.1823    9.8495 C   0  0  0  0  0  0  0  0  0  0  0  0
   25.6405   -7.3960    9.1292 C   0  0  0  0  0  0  0  0  0  0  0  0
   26.9158   -7.8262    8.8433 C   0  0  0  0  0  0  0  0  0  0  0  0
   27.8711   -6.9969    8.0753 C   0  0  0  0  0  0  0  0  0  0  0  0
   27.2664   -5.7499    7.4993 C   0  0  2  0  0  0  0  0  0  0  0  0
   28.3728   -4.7424    7.3642 C   0  0  0  0  0  0  0  0  0  0  0  0
   29.0133   -4.3777    6.3557 O   0  0  0  0  0  0  0  0  0  0  0  0
   26.4970   -5.1373    8.5352 O   0  0  0  0  0  0  0  0  0  0  0  0
   27.3859   -4.5075    9.4272 C   0  0  0  0  0  0  0  0  0  0  0  0
   27.2500   -4.1553   10.7570 C   0  0  0  0  0  0  0  0  0  0  0  0
   26.0156   -4.4320   11.4752 C   0  0  0  0  0  0  0  0  0  0  0  0
   25.1152   -5.1586   11.0028 O   0  0  0  0  0  0  0  0  0  0  0  0
   25.8211   -3.8599   12.7579 N   0  0  0  0  0  0  0  0  0  0  0  0
   28.5541   -4.2502    8.7346 C   0  0  0  0  0  0  0  0  0  0  0  0
   29.6252   -3.6250    9.3721 C   0  0  0  0  0  0  0  0  0  0  0  0
   29.5111   -3.2644   10.7014 C   0  0  0  0  0  0  0  0  0  0  0  0
   28.3257   -3.5410   11.3532 C   0  0  0  0  0  0  0  0  0  0  0  0
  1  2  2  0
  2  3  1  0
  2 15  1  0
  3  4  1  0
  3 14  1  0
  4  5  1  0
  5  6  1  0
  6  7  1  0
  6 13  1  0
  7  8  2  0
  7 12  1  0
  8  9  1  0
  9 10  2  0
 10 11  1  0
 11 12  2  0
 13 14  1  0
 15 16  2  0
 15 18  1  0
 16 17  1  0
 17 20  2  0
 18 19  2  0
 19 20  1  0
 20 21  1  0
 22 21  1  1
 22 23  1  0
 22 25  1  0
 23 24  2  0
 23 31  1  0
 25 26  1  0
 26 27  2  0
 26 31  1  0
 27 28  1  0
 27 34  1  0
 28 29  2  0
 28 30  1  0
 31 32  2  0
 32 33  1  0
 33 34  2  0
M  END
$$$$
