
     RDKit          3D

 34 38  0  0  0  0  0  0  0  0999 V2000
   27.9875  -12.5605   11.9450 O   0  0  0  0  0  0  0  0  0  0  0  0
   26.9842  -11.9060   11.5087 C   0  0  0  0  0  0  0  0  0  0  0  0
   25.6639  -12.3475   11.6963 N   0  0  0  0  0  0  0  0  0  0  0  0
   24.5704  -11.6114   11.1244 C   0  0  0  0  0  0  0  0  0  0  0  0
   23.5989  -12.5314   10.4402 C   0  0  0  0  0  0  0  0  0  0  0  0
   23.5246  -13.8493   11.0170 N   0  0  0  0  0  0  0  0  0  0  0  0
   22.2789  -14.5220   11.1196 C   0  0  0  0  0  0  0  0  0  0  0  0
   22.1292  -15.6571   11.8067 N   0  0  0  0  0  0  0  0  0  0  0  0
   20.9603  -16.3162   11.9201 C   0  0  0  0  0  0  0  0  0  0  0  0
   19.8581  -15.8038   11.3013 C   0  0  0  0  0  0  0  0  0  0  0  0
   19.9735  -14.6304   10.5805 C   0  0  0  0  0  0  0  0  0  0  0  0
   21.1634  -14.0351   10.5135 N   0  0  0  0  0  0  0  0  0  0  0  0
   24.7100  -14.5133   11.4999 C   0  0  0  0  0  0  0  0  0  0  0  0
   25.4018  -13.5325   12.4589 C   0  0  0  0  0  0  0  0  0  0  0  0
   27.2968  -10.6582   10.7959 C   0  0  0  0  0  0  0  0  0  0  0  0
   27.7977   -9.5438   11.4309 C   0  0  0  0  0  0  0  0  0  0  0  0
   28.0851   -8.3810   10.7216 C   0  0  0  0  0  0  0  0  0  0  0  0
   27.0923  -10.5714    9.4258 C   0  0  0  0  0  0  0  0  0  0  0  0
   27.3811   -9.4100    8.7276 C   0  0  0  0  0  0  0  0  0  0  0  0
   27.8818   -8.2960    9.3612 C   0  0  0  0  0  0  0  0  0  0  0  0
   28.1945   -7.0491    8.6281 C   0  0  0  0  0  0  0  0  0  0  0  0
   26.9858   -6.3452    8.0838 C   0  0  2  0  0  0  0  0  0  0  0  0
   27.4502   -5.0247    7.5381 C   0  0  0  0  0  0  0  0  0  0  0  0
   27.6538   -4.6655    6.3591 O   0  0  0  0  0  0  0  0  0  0  0  0
   26.2199   -5.8964    9.2029 O   0  0  0  0  0  0  0  0  0  0  0  0
   26.8566   -4.7629    9.7435 C   0  0  0  0  0  0  0  0  0  0  0  0
   26.8138   -4.2063   11.0081 C   0  0  0  0  0  0  0  0  0  0  0  0
   26.0026   -4.8067   12.0558 C   0  0  0  0  0  0  0  0  0  0  0  0
   25.5450   -4.1430   13.0107 O   0  0  0  0  0  0  0  0  0  0  0  0
   25.7169   -6.1942   11.9967 N   0  0  0  0  0  0  0  0  0  0  0  0
   27.6241   -4.2016    8.7403 C   0  0  0  0  0  0  0  0  0  0  0  0
   28.3751   -3.0535    8.9898 C   0  0  0  0  0  0  0  0  0  0  0  0
   28.3471   -2.4803   10.2470 C   0  0  0  0  0  0  0  0  0  0  0  0
   27.5664   -3.0752   11.2182 C   0  0  0  0  0  0  0  0  0  0  0  0
  1  2  2  0
  2  3  1  0
  2 15  1  0
  3  4  1  0
  3 14  1  0
  4  5  1  0
  5  6  1  0
  6  7  1  0
  6 13  1  0
  7  8  2  0
  7 12  1  0
  8  9  1  0
  9 10  2  0
 10 11  1  0
 11 12  2  0
 13 14  1  0
 15 16  2  0
 15 18  1  0
 16 17  1  0
 17 20  2  0
 18 19  2  0
 19 20  1  0
 20 21  1  0
 22 21  1  1
 22 23  1  0
 22 25  1  0
 23 24  2  0
 23 31  1  0
 25 26  1  0
 26 27  2  0
 26 31  1  0
 27 28  1  0
 27 34  1  0
 28 29  2  0
 28 30  1  0
 31 32  2  0
 32 33  1  0
 33 34  2  0
M  END
$$$$
