
     RDKit          3D

 34 38  0  0  0  0  0  0  0  0999 V2000
   22.3749  -11.0030    8.3000 O   0  0  0  0  0  0  0  0  0  0  0  0
   23.1256  -11.0038    9.3305 C   0  0  0  0  0  0  0  0  0  0  0  0
   23.3825  -12.1715   10.0680 N   0  0  0  0  0  0  0  0  0  0  0  0
   24.4654  -12.2032   11.0119 C   0  0  0  0  0  0  0  0  0  0  0  0
   24.0293  -12.8130   12.3143 C   0  0  0  0  0  0  0  0  0  0  0  0
   22.9859  -13.7980   12.1870 N   0  0  0  0  0  0  0  0  0  0  0  0
   22.9949  -14.9659   12.9938 C   0  0  0  0  0  0  0  0  0  0  0  0
   23.6702  -15.0405   14.1432 N   0  0  0  0  0  0  0  0  0  0  0  0
   23.6967  -16.1350   14.9275 C   0  0  0  0  0  0  0  0  0  0  0  0
   22.9966  -17.2377   14.5350 C   0  0  0  0  0  0  0  0  0  0  0  0
   22.2852  -17.1988   13.3508 C   0  0  0  0  0  0  0  0  0  0  0  0
   22.3066  -16.0800   12.6280 N   0  0  0  0  0  0  0  0  0  0  0  0
   21.9115  -13.6196   11.2419 C   0  0  0  0  0  0  0  0  0  0  0  0
   22.5670  -13.3354    9.8818 C   0  0  0  0  0  0  0  0  0  0  0  0
   23.7062   -9.7037    9.6985 C   0  0  0  0  0  0  0  0  0  0  0  0
   24.8225   -9.1856    9.0809 C   0  0  0  0  0  0  0  0  0  0  0  0
   25.3415   -7.9490    9.4543 C   0  0  0  0  0  0  0  0  0  0  0  0
   23.1250   -8.9434   10.7037 C   0  0  0  0  0  0  0  0  0  0  0  0
   23.6480   -7.7135   11.0691 C   0  0  0  0  0  0  0  0  0  0  0  0
   24.7633   -7.1948   10.4525 C   0  0  0  0  0  0  0  0  0  0  0  0
   25.3328   -5.8829   10.8328 C   0  0  0  0  0  0  0  0  0  0  0  0
   26.4416   -5.9712   11.8404 C   0  0  2  0  0  0  0  0  0  0  0  0
   26.4668   -4.6676   12.5870 C   0  0  0  0  0  0  0  0  0  0  0  0
   26.0398   -4.3814   13.7255 O   0  0  0  0  0  0  0  0  0  0  0  0
   27.6725   -5.8707   11.1226 O   0  0  0  0  0  0  0  0  0  0  0  0
   27.8634   -4.5218   10.7668 C   0  0  0  0  0  0  0  0  0  0  0  0
   28.6064   -3.9389    9.7573 C   0  0  0  0  0  0  0  0  0  0  0  0
   29.3717   -4.7591    8.8312 C   0  0  0  0  0  0  0  0  0  0  0  0
   30.1981   -4.2709    8.0309 O   0  0  0  0  0  0  0  0  0  0  0  0
   29.1779   -6.1636    8.8320 N   0  0  0  0  0  0  0  0  0  0  0  0
   27.1319   -3.7528   11.6523 C   0  0  0  0  0  0  0  0  0  0  0  0
   27.1316   -2.3628   11.5409 C   0  0  0  0  0  0  0  0  0  0  0  0
   27.8675   -1.7589   10.5390 C   0  0  0  0  0  0  0  0  0  0  0  0
   28.5828   -2.5667    9.6774 C   0  0  0  0  0  0  0  0  0  0  0  0
  1  2  2  0
  2  3  1  0
  2 15  1  0
  3  4  1  0
  3 14  1  0
  4  5  1  0
  5  6  1  0
  6  7  1  0
  6 13  1  0
  7  8  2  0
  7 12  1  0
  8  9  1  0
  9 10  2  0
 10 11  1  0
 11 12  2  0
 13 14  1  0
 15 16  2  0
 15 18  1  0
 16 17  1  0
 17 20  2  0
 18 19  2  0
 19 20  1  0
 20 21  1  0
 22 21  1  6
 22 23  1  0
 22 25  1  0
 23 24  2  0
 23 31  1  0
 25 26  1  0
 26 27  2  0
 26 31  1  0
 27 28  1  0
 27 34  1  0
 28 29  2  0
 28 30  1  0
 31 32  2  0
 32 33  1  0
 33 34  2  0
M  END
$$$$
