
     RDKit          3D

 34 38  0  0  0  0  0  0  0  0999 V2000
   23.0354  -11.1012    8.1443 O   0  0  0  0  0  0  0  0  0  0  0  0
   24.1402  -10.9853    8.6978 C   0  0  0  0  0  0  0  0  0  0  0  0
   24.5063  -11.8858    9.7300 N   0  0  0  0  0  0  0  0  0  0  0  0
   24.3461  -11.5165   11.1434 C   0  0  0  0  0  0  0  0  0  0  0  0
   23.2800  -12.4736   11.6950 C   0  0  0  0  0  0  0  0  0  0  0  0
   23.8622  -13.8007   11.5229 N   0  0  0  0  0  0  0  0  0  0  0  0
   23.9026  -14.6598   12.6509 C   0  0  0  0  0  0  0  0  0  0  0  0
   24.1395  -15.9855   12.5131 N   0  0  0  0  0  0  0  0  0  0  0  0
   24.1793  -16.8452   13.5544 C   0  0  0  0  0  0  0  0  0  0  0  0
   23.9689  -16.3556   14.8205 C   0  0  0  0  0  0  0  0  0  0  0  0
   23.7269  -15.0172   14.9856 C   0  0  0  0  0  0  0  0  0  0  0  0
   23.7000  -14.2123   13.9135 N   0  0  0  0  0  0  0  0  0  0  0  0
   24.3859  -14.2478   10.2580 C   0  0  0  0  0  0  0  0  0  0  0  0
   25.0676  -13.1928    9.4591 C   0  0  0  0  0  0  0  0  0  0  0  0
   25.0564   -9.9456    8.3008 C   0  0  0  0  0  0  0  0  0  0  0  0
   26.3658   -9.9586    8.7778 C   0  0  0  0  0  0  0  0  0  0  0  0
   27.2731   -8.9876    8.4351 C   0  0  0  0  0  0  0  0  0  0  0  0
   24.7148   -8.9045    7.4632 C   0  0  0  0  0  0  0  0  0  0  0  0
   25.6383   -7.9204    7.1173 C   0  0  0  0  0  0  0  0  0  0  0  0
   26.9255   -7.9331    7.5871 C   0  0  0  0  0  0  0  0  0  0  0  0
   27.9467   -6.9147    7.2894 C   0  0  0  0  0  0  0  0  0  0  0  0
   27.8577   -5.6546    8.0518 C   0  0  2  0  0  0  0  0  0  0  0  0
   29.1492   -5.0614    8.4835 C   0  0  0  0  0  0  0  0  0  0  0  0
   30.3215   -5.2522    8.1319 O   0  0  0  0  0  0  0  0  0  0  0  0
   27.2053   -5.7568    9.3041 O   0  0  0  0  0  0  0  0  0  0  0  0
   27.5304   -4.5801    9.9981 C   0  0  0  0  0  0  0  0  0  0  0  0
   26.9038   -3.8544   11.0043 C   0  0  0  0  0  0  0  0  0  0  0  0
   25.6457   -4.2674   11.5820 C   0  0  0  0  0  0  0  0  0  0  0  0
   25.1103   -3.5470   12.4912 O   0  0  0  0  0  0  0  0  0  0  0  0
   24.9711   -5.4319   11.1967 N   0  0  0  0  0  0  0  0  0  0  0  0
   28.7487   -4.0871    9.5299 C   0  0  0  0  0  0  0  0  0  0  0  0
   29.3010   -2.9384   10.0412 C   0  0  0  0  0  0  0  0  0  0  0  0
   28.6676   -2.2150   11.0495 C   0  0  0  0  0  0  0  0  0  0  0  0
   27.4794   -2.6922   11.5085 C   0  0  0  0  0  0  0  0  0  0  0  0
  1  2  2  0
  2  3  1  0
  2 15  1  0
  4  3  1  1
 14  3  1  1
  4  5  1  0
  5  6  1  6
  6  7  1  0
 13  6  1  1
  7  8  2  0
  7 12  1  0
  8  9  1  0
  9 10  2  0
 10 11  1  0
 11 12  2  0
 13 14  1  0
 15 16  2  0
 15 18  1  0
 16 17  1  0
 17 20  2  0
 18 19  2  0
 19 20  1  0
 21 20  1  1
 21 22  1  0
 22 23  1  0
 22 25  1  1
 23 24  2  0
 23 31  1  0
 25 26  1  0
 26 27  2  0
 26 31  1  0
 27 28  1  0
 27 34  1  0
 28 29  2  0
 28 30  1  0
 31 32  2  0
 32 33  1  0
 33 34  2  0
M  END
$$$$
