
     RDKit          3D

 34 38  0  0  0  0  0  0  0  0999 V2000
   27.3654  -11.9424   11.8634 O   0  0  0  0  0  0  0  0  0  0  0  0
   26.6806  -11.7796   10.8412 C   0  0  0  0  0  0  0  0  0  0  0  0
   25.7086  -12.7487   10.4856 N   0  0  0  0  0  0  0  0  0  0  0  0
   25.8911  -14.1634   10.8393 C   0  0  0  0  0  0  0  0  0  0  0  0
   24.7700  -14.4800   11.8393 C   0  0  0  0  0  0  0  0  0  0  0  0
   23.5403  -14.2416   11.0906 N   0  0  0  0  0  0  0  0  0  0  0  0
   22.5640  -15.2704   11.0716 C   0  0  0  0  0  0  0  0  0  0  0  0
   21.4150  -15.1324   10.3691 N   0  0  0  0  0  0  0  0  0  0  0  0
   20.4520  -16.0789   10.3267 C   0  0  0  0  0  0  0  0  0  0  0  0
   20.6419  -17.2431   11.0307 C   0  0  0  0  0  0  0  0  0  0  0  0
   21.7968  -17.4061   11.7495 C   0  0  0  0  0  0  0  0  0  0  0  0
   22.7173  -16.4312   11.7532 N   0  0  0  0  0  0  0  0  0  0  0  0
   23.3014  -13.0091   10.3848 C   0  0  0  0  0  0  0  0  0  0  0  0
   24.5080  -12.4123    9.7492 C   0  0  0  0  0  0  0  0  0  0  0  0
   26.8616  -10.6142   10.0124 C   0  0  0  0  0  0  0  0  0  0  0  0
   27.8448  -10.6140    9.0247 C   0  0  0  0  0  0  0  0  0  0  0  0
   28.0610   -9.5269    8.2155 C   0  0  0  0  0  0  0  0  0  0  0  0
   26.1123   -9.4631   10.1378 C   0  0  0  0  0  0  0  0  0  0  0  0
   26.3344   -8.3613    9.3147 C   0  0  0  0  0  0  0  0  0  0  0  0
   27.3017   -8.3611    8.3441 C   0  0  0  0  0  0  0  0  0  0  0  0
   27.6133   -7.2271    7.4578 C   0  0  0  0  0  0  0  0  0  0  0  0
   27.5546   -5.8842    8.0661 C   0  0  2  0  0  0  0  0  0  0  0  0
   28.8512   -5.1721    8.2001 C   0  0  0  0  0  0  0  0  0  0  0  0
   29.9632   -5.3454    7.6825 O   0  0  0  0  0  0  0  0  0  0  0  0
   27.1199   -5.8551    9.4132 O   0  0  0  0  0  0  0  0  0  0  0  0
   27.4641   -4.5819    9.8953 C   0  0  0  0  0  0  0  0  0  0  0  0
   26.9545   -3.7642   10.8970 C   0  0  0  0  0  0  0  0  0  0  0  0
   25.8386   -4.1635   11.7232 C   0  0  0  0  0  0  0  0  0  0  0  0
   25.3629   -3.3354   12.5718 O   0  0  0  0  0  0  0  0  0  0  0  0
   25.2416   -5.4274   11.6463 N   0  0  0  0  0  0  0  0  0  0  0  0
   28.5523   -4.0911    9.1731 C   0  0  0  0  0  0  0  0  0  0  0  0
   29.0930   -2.8576    9.4417 C   0  0  0  0  0  0  0  0  0  0  0  0
   28.5771   -2.0425   10.4469 C   0  0  0  0  0  0  0  0  0  0  0  0
   27.5159   -2.5172   11.1531 C   0  0  0  0  0  0  0  0  0  0  0  0
  1  2  2  0
  2  3  1  0
  2 15  1  0
  4  3  1  1
 14  3  1  1
  4  5  1  0
  5  6  1  6
  6  7  1  0
 13  6  1  1
  7  8  2  0
  7 12  1  0
  8  9  1  0
  9 10  2  0
 10 11  1  0
 11 12  2  0
 13 14  1  0
 15 16  2  0
 15 18  1  0
 16 17  1  0
 17 20  2  0
 18 19  2  0
 19 20  1  0
 21 20  1  1
 21 22  1  0
 22 23  1  0
 22 25  1  1
 23 24  2  0
 23 31  1  0
 25 26  1  0
 26 27  2  0
 26 31  1  0
 27 28  1  0
 27 34  1  0
 28 29  2  0
 28 30  1  0
 31 32  2  0
 32 33  1  0
 33 34  2  0
M  END
$$$$
