
     RDKit          3D

 34 38  0  0  0  0  0  0  0  0999 V2000
   26.0000  -13.4377    6.6834 O   0  0  0  0  0  0  0  0  0  0  0  0
   25.8171  -12.9825    7.8602 C   0  0  0  0  0  0  0  0  0  0  0  0
   25.4558  -13.8114    8.9352 N   0  0  0  0  0  0  0  0  0  0  0  0
   25.8183  -13.4487   10.2775 C   0  0  0  0  0  0  0  0  0  0  0  0
   24.6539  -13.6093   11.2138 C   0  0  0  0  0  0  0  0  0  0  0  0
   23.7290  -14.6471   10.8360 N   0  0  0  0  0  0  0  0  0  0  0  0
   23.1258  -15.4694   11.8232 C   0  0  0  0  0  0  0  0  0  0  0  0
   22.5954  -16.6617   11.5399 N   0  0  0  0  0  0  0  0  0  0  0  0
   22.0169  -17.4617   12.4558 C   0  0  0  0  0  0  0  0  0  0  0  0
   21.9638  -17.0401   13.7518 C   0  0  0  0  0  0  0  0  0  0  0  0
   22.5020  -15.8114   14.0841 C   0  0  0  0  0  0  0  0  0  0  0  0
   23.0581  -15.0755   13.1229 N   0  0  0  0  0  0  0  0  0  0  0  0
   23.3948  -14.8720    9.4514 C   0  0  0  0  0  0  0  0  0  0  0  0
   24.7254  -15.0216    8.6982 C   0  0  0  0  0  0  0  0  0  0  0  0
   26.0087  -11.5333    8.0211 C   0  0  0  0  0  0  0  0  0  0  0  0
   27.1774  -10.9858    8.5011 C   0  0  0  0  0  0  0  0  0  0  0  0
   27.3230   -9.6079    8.6363 C   0  0  0  0  0  0  0  0  0  0  0  0
   24.9885  -10.6560    7.6802 C   0  0  0  0  0  0  0  0  0  0  0  0
   25.1419   -9.2859    7.8179 C   0  0  0  0  0  0  0  0  0  0  0  0
   26.3094   -8.7379    8.2973 C   0  0  0  0  0  0  0  0  0  0  0  0
   26.4869   -7.2766    8.4497 C   0  0  0  0  0  0  0  0  0  0  0  0
   27.8630   -6.8751    8.8944 C   0  0  2  0  0  0  0  0  0  0  0  0
   28.0518   -7.4077   10.2865 C   0  0  0  0  0  0  0  0  0  0  0  0
   28.6844   -8.4067   10.6894 O   0  0  0  0  0  0  0  0  0  0  0  0
   27.8256   -5.4735    9.1670 O   0  0  0  0  0  0  0  0  0  0  0  0
   27.1779   -5.2846   10.4029 C   0  0  0  0  0  0  0  0  0  0  0  0
   26.5118   -4.1933   10.9286 C   0  0  0  0  0  0  0  0  0  0  0  0
   26.3897   -2.9607   10.1658 C   0  0  0  0  0  0  0  0  0  0  0  0
   26.3919   -1.8350   10.7087 O   0  0  0  0  0  0  0  0  0  0  0  0
   26.2639   -3.0323    8.7554 N   0  0  0  0  0  0  0  0  0  0  0  0
   27.2997   -6.4611   11.1180 C   0  0  0  0  0  0  0  0  0  0  0  0
   26.7475   -6.5676   12.3940 C   0  0  0  0  0  0  0  0  0  0  0  0
   26.0772   -5.4889   12.9390 C   0  0  0  0  0  0  0  0  0  0  0  0
   25.9801   -4.3340   12.1885 C   0  0  0  0  0  0  0  0  0  0  0  0
  1  2  2  0
  2  3  1  0
  2 15  1  0
  3  4  1  0
  3 14  1  0
  4  5  1  0
  5  6  1  0
  6  7  1  0
  6 13  1  0
  7  8  2  0
  7 12  1  0
  8  9  1  0
  9 10  2  0
 10 11  1  0
 11 12  2  0
 13 14  1  0
 15 16  2  0
 15 18  1  0
 16 17  1  0
 17 20  2  0
 18 19  2  0
 19 20  1  0
 20 21  1  0
 22 21  1  1
 22 23  1  0
 22 25  1  0
 23 24  2  0
 23 31  1  0
 25 26  1  0
 26 27  2  0
 26 31  1  0
 27 28  1  0
 27 34  1  0
 28 29  2  0
 28 30  1  0
 31 32  2  0
 32 33  1  0
 33 34  2  0
M  END
$$$$
