
     RDKit          3D

 34 38  0  0  0  0  0  0  0  0999 V2000
   25.4100   -8.2684    5.5558 O   0  0  0  0  0  0  0  0  0  0  0  0
   26.2291   -7.7464    6.3285 C   0  0  0  0  0  0  0  0  0  0  0  0
   27.1974   -6.8439    5.8203 N   0  0  0  0  0  0  0  0  0  0  0  0
   26.9987   -6.1763    4.5263 C   0  0  0  0  0  0  0  0  0  0  0  0
   26.8560   -4.6838    4.8568 C   0  0  0  0  0  0  0  0  0  0  0  0
   28.1256   -4.3298    5.4833 N   0  0  0  0  0  0  0  0  0  0  0  0
   28.8298   -3.2101    4.9709 C   0  0  0  0  0  0  0  0  0  0  0  0
   30.0012   -2.8093    5.5185 N   0  0  0  0  0  0  0  0  0  0  0  0
   30.7042   -1.7454    5.0724 C   0  0  0  0  0  0  0  0  0  0  0  0
   30.2103   -1.0290    4.0094 C   0  0  0  0  0  0  0  0  0  0  0  0
   29.0263   -1.4150    3.4384 C   0  0  0  0  0  0  0  0  0  0  0  0
   28.3733   -2.4805    3.9246 N   0  0  0  0  0  0  0  0  0  0  0  0
   28.6680   -5.0775    6.5881 C   0  0  0  0  0  0  0  0  0  0  0  0
   28.4272   -6.5452    6.5239 C   0  0  0  0  0  0  0  0  0  0  0  0
   26.2051   -8.0466    7.7383 C   0  0  0  0  0  0  0  0  0  0  0  0
   27.2939   -8.6863    8.3276 C   0  0  0  0  0  0  0  0  0  0  0  0
   27.3158   -9.0002    9.6635 C   0  0  0  0  0  0  0  0  0  0  0  0
   25.1452   -7.7424    8.5667 C   0  0  0  0  0  0  0  0  0  0  0  0
   25.1707   -8.0624    9.9224 C   0  0  0  0  0  0  0  0  0  0  0  0
   26.2412   -8.6921   10.5015 C   0  0  0  0  0  0  0  0  0  0  0  0
   26.3281   -9.0872   11.9174 C   0  0  0  0  0  0  0  0  0  0  0  0
   25.9740  -10.4847   12.2310 C   0  0  2  0  0  0  0  0  0  0  0  0
   26.4418  -11.5088   11.2621 C   0  0  0  0  0  0  0  0  0  0  0  0
   27.2914  -11.4878   10.3610 O   0  0  0  0  0  0  0  0  0  0  0  0
   24.5863  -10.7656   12.2318 O   0  0  0  0  0  0  0  0  0  0  0  0
   24.4828  -12.1656   12.1985 C   0  0  0  0  0  0  0  0  0  0  0  0
   23.5163  -13.0675   12.6277 C   0  0  0  0  0  0  0  0  0  0  0  0
   22.2866  -12.6385   13.2530 C   0  0  0  0  0  0  0  0  0  0  0  0
   21.4967  -13.5153   13.7424 O   0  0  0  0  0  0  0  0  0  0  0  0
   21.9053  -11.2952   13.3522 N   0  0  0  0  0  0  0  0  0  0  0  0
   25.6224  -12.7007   11.5972 C   0  0  0  0  0  0  0  0  0  0  0  0
   25.7792  -14.0557   11.4378 C   0  0  0  0  0  0  0  0  0  0  0  0
   24.8069  -14.9547   11.8707 C   0  0  0  0  0  0  0  0  0  0  0  0
   23.6945  -14.4370   12.4577 C   0  0  0  0  0  0  0  0  0  0  0  0
  1  2  2  0
  2  3  1  0
  2 15  1  0
  4  3  1  1
 14  3  1  1
  4  5  1  0
  5  6  1  6
  6  7  1  0
 13  6  1  1
  7  8  2  0
  7 12  1  0
  8  9  1  0
  9 10  2  0
 10 11  1  0
 11 12  2  0
 13 14  1  0
 15 16  2  0
 15 18  1  0
 16 17  1  0
 17 20  2  0
 18 19  2  0
 19 20  1  0
 21 20  1  1
 21 22  1  0
 22 23  1  0
 22 25  1  6
 23 24  2  0
 23 31  1  0
 25 26  1  0
 26 27  2  0
 26 31  1  0
 27 28  1  0
 27 34  1  0
 28 29  2  0
 28 30  1  0
 31 32  2  0
 32 33  1  0
 33 34  2  0
M  END
$$$$
