
     RDKit          3D

 34 38  0  0  0  0  0  0  0  0999 V2000
   25.0768  -11.1677   12.9179 O   0  0  0  0  0  0  0  0  0  0  0  0
   25.4636  -11.5316   11.7589 C   0  0  0  0  0  0  0  0  0  0  0  0
   25.2857  -12.8432   11.2884 N   0  0  0  0  0  0  0  0  0  0  0  0
   24.1026  -13.5796   11.6388 C   0  0  0  0  0  0  0  0  0  0  0  0
   23.5115  -14.2572   10.4349 C   0  0  0  0  0  0  0  0  0  0  0  0
   24.4760  -14.6290    9.4315 N   0  0  0  0  0  0  0  0  0  0  0  0
   24.3445  -15.8524    8.7237 C   0  0  0  0  0  0  0  0  0  0  0  0
   24.5645  -15.9504    7.4103 N   0  0  0  0  0  0  0  0  0  0  0  0
   24.4468  -17.0970    6.7139 C   0  0  0  0  0  0  0  0  0  0  0  0
   24.0822  -18.2310    7.3783 C   0  0  0  0  0  0  0  0  0  0  0  0
   23.8458  -18.1694    8.7385 C   0  0  0  0  0  0  0  0  0  0  0  0
   23.9826  -16.9986    9.3593 N   0  0  0  0  0  0  0  0  0  0  0  0
   25.5917  -13.7691    9.1232 C   0  0  0  0  0  0  0  0  0  0  0  0
   26.2827  -13.4525   10.4583 C   0  0  0  0  0  0  0  0  0  0  0  0
   26.1082  -10.4903   10.9448 C   0  0  0  0  0  0  0  0  0  0  0  0
   25.6211  -10.0964    9.7186 C   0  0  0  0  0  0  0  0  0  0  0  0
   26.2571   -9.1039    8.9779 C   0  0  0  0  0  0  0  0  0  0  0  0
   27.2543   -9.8582   11.4068 C   0  0  0  0  0  0  0  0  0  0  0  0
   27.8809   -8.8713   10.6631 C   0  0  0  0  0  0  0  0  0  0  0  0
   27.3949   -8.4768    9.4378 C   0  0  0  0  0  0  0  0  0  0  0  0
   28.0541   -7.4245    8.6327 C   0  0  0  0  0  0  0  0  0  0  0  0
   27.0969   -6.4727    7.9767 C   0  0  2  0  0  0  0  0  0  0  0  0
   27.9000   -5.2974    7.4961 C   0  0  0  0  0  0  0  0  0  0  0  0
   28.2979   -5.0072    6.3481 O   0  0  0  0  0  0  0  0  0  0  0  0
   26.3423   -5.8498    9.0173 O   0  0  0  0  0  0  0  0  0  0  0  0
   27.1599   -4.8827    9.6327 C   0  0  0  0  0  0  0  0  0  0  0  0
   27.1156   -4.3160   10.8928 C   0  0  0  0  0  0  0  0  0  0  0  0
   26.0878   -4.7058   11.8457 C   0  0  0  0  0  0  0  0  0  0  0  0
   25.7688   -3.9869   12.8169 O   0  0  0  0  0  0  0  0  0  0  0  0
   25.4201   -5.9443   11.6715 N   0  0  0  0  0  0  0  0  0  0  0  0
   28.1320   -4.5207    8.7192 C   0  0  0  0  0  0  0  0  0  0  0  0
   29.0932   -3.5685    9.0569 C   0  0  0  0  0  0  0  0  0  0  0  0
   29.0676   -2.9891   10.3113 C   0  0  0  0  0  0  0  0  0  0  0  0
   28.0785   -3.3813   11.1913 C   0  0  0  0  0  0  0  0  0  0  0  0
  1  2  2  0
  2  3  1  0
  2 15  1  0
  3  4  1  0
  3 14  1  0
  4  5  1  0
  5  6  1  0
  6  7  1  0
  6 13  1  0
  7  8  2  0
  7 12  1  0
  8  9  1  0
  9 10  2  0
 10 11  1  0
 11 12  2  0
 13 14  1  0
 15 16  2  0
 15 18  1  0
 16 17  1  0
 17 20  2  0
 18 19  2  0
 19 20  1  0
 20 21  1  0
 22 21  1  1
 22 23  1  0
 22 25  1  0
 23 24  2  0
 23 31  1  0
 25 26  1  0
 26 27  2  0
 26 31  1  0
 27 28  1  0
 27 34  1  0
 28 29  2  0
 28 30  1  0
 31 32  2  0
 32 33  1  0
 33 34  2  0
M  END
$$$$
