
     RDKit          3D

 34 38  0  0  0  0  0  0  0  0999 V2000
   25.4964  -12.0146    6.8155 O   0  0  0  0  0  0  0  0  0  0  0  0
   25.5902  -11.2294    7.7721 C   0  0  0  0  0  0  0  0  0  0  0  0
   24.9664  -11.5473    9.0051 N   0  0  0  0  0  0  0  0  0  0  0  0
   24.2211  -12.8031    9.1703 C   0  0  0  0  0  0  0  0  0  0  0  0
   25.0134  -13.6125   10.2067 C   0  0  0  0  0  0  0  0  0  0  0  0
   24.9907  -12.7828   11.4070 N   0  0  0  0  0  0  0  0  0  0  0  0
   24.5621  -13.3807   12.6198 C   0  0  0  0  0  0  0  0  0  0  0  0
   24.4207  -14.7229   12.7270 N   0  0  0  0  0  0  0  0  0  0  0  0
   24.0077  -15.3385   13.8564 C   0  0  0  0  0  0  0  0  0  0  0  0
   23.7141  -14.5689   14.9557 C   0  0  0  0  0  0  0  0  0  0  0  0
   23.8492  -13.2082   14.8718 C   0  0  0  0  0  0  0  0  0  0  0  0
   24.2639  -12.6538   13.7235 N   0  0  0  0  0  0  0  0  0  0  0  0
   25.3859  -11.3981   11.3872 C   0  0  0  0  0  0  0  0  0  0  0  0
   25.0093  -10.6614   10.1497 C   0  0  0  0  0  0  0  0  0  0  0  0
   26.3286   -9.9980    7.6435 C   0  0  0  0  0  0  0  0  0  0  0  0
   25.8157   -8.9624    6.8647 C   0  0  0  0  0  0  0  0  0  0  0  0
   26.4840   -7.7744    6.7051 C   0  0  0  0  0  0  0  0  0  0  0  0
   27.5463   -9.7701    8.2494 C   0  0  0  0  0  0  0  0  0  0  0  0
   28.2221   -8.5629    8.0853 C   0  0  0  0  0  0  0  0  0  0  0  0
   27.7179   -7.5449    7.3189 C   0  0  0  0  0  0  0  0  0  0  0  0
   28.3863   -6.2555    7.0760 C   0  0  0  0  0  0  0  0  0  0  0  0
   28.0780   -5.1683    8.0246 C   0  0  2  0  0  0  0  0  0  0  0  0
   29.2445   -4.5337    8.6901 C   0  0  0  0  0  0  0  0  0  0  0  0
   30.4583   -4.5378    8.4434 O   0  0  0  0  0  0  0  0  0  0  0  0
   27.3311   -5.5593    9.1620 O   0  0  0  0  0  0  0  0  0  0  0  0
   27.4484   -4.4993   10.0755 C   0  0  0  0  0  0  0  0  0  0  0  0
   26.6504   -4.0335   11.1137 C   0  0  0  0  0  0  0  0  0  0  0  0
   25.4033   -4.6695   11.4709 C   0  0  0  0  0  0  0  0  0  0  0  0
   24.6840   -4.1574   12.3943 O   0  0  0  0  0  0  0  0  0  0  0  0
   24.9329   -5.8347   10.8539 N   0  0  0  0  0  0  0  0  0  0  0  0
   28.6366   -3.8087    9.8345 C   0  0  0  0  0  0  0  0  0  0  0  0
   28.9984   -2.7201   10.5894 C   0  0  0  0  0  0  0  0  0  0  0  0
   28.1937   -2.2578   11.6285 C   0  0  0  0  0  0  0  0  0  0  0  0
   27.0343   -2.9281   11.8665 C   0  0  0  0  0  0  0  0  0  0  0  0
  1  2  2  0
  2  3  1  0
  2 15  1  0
  4  3  1  1
 14  3  1  1
  4  5  1  0
  5  6  1  6
  6  7  1  0
 13  6  1  1
  7  8  2  0
  7 12  1  0
  8  9  1  0
  9 10  2  0
 10 11  1  0
 11 12  2  0
 13 14  1  0
 15 16  2  0
 15 18  1  0
 16 17  1  0
 17 20  2  0
 18 19  2  0
 19 20  1  0
 21 20  1  1
 21 22  1  0
 22 23  1  0
 22 25  1  1
 23 24  2  0
 23 31  1  0
 25 26  1  0
 26 27  2  0
 26 31  1  0
 27 28  1  0
 27 34  1  0
 28 29  2  0
 28 30  1  0
 31 32  2  0
 32 33  1  0
 33 34  2  0
M  END
$$$$
