
     RDKit          3D

 34 38  0  0  0  0  0  0  0  0999 V2000
   28.2293  -12.5068   11.6526 O   0  0  0  0  0  0  0  0  0  0  0  0
   27.3275  -12.0459   10.9352 C   0  0  0  0  0  0  0  0  0  0  0  0
   26.0635  -12.6874   10.8973 N   0  0  0  0  0  0  0  0  0  0  0  0
   25.1223  -12.4325    9.7978 C   0  0  0  0  0  0  0  0  0  0  0  0
   24.9990  -13.7681    9.0507 C   0  0  0  0  0  0  0  0  0  0  0  0
   24.4639  -14.6908   10.0466 N   0  0  0  0  0  0  0  0  0  0  0  0
   23.3104  -15.4420    9.7043 C   0  0  0  0  0  0  0  0  0  0  0  0
   22.7546  -15.3496    8.4733 N   0  0  0  0  0  0  0  0  0  0  0  0
   21.6524  -16.0371    8.1024 C   0  0  0  0  0  0  0  0  0  0  0  0
   21.0601  -16.8740    9.0165 C   0  0  0  0  0  0  0  0  0  0  0  0
   21.6040  -16.9842   10.2691 C   0  0  0  0  0  0  0  0  0  0  0  0
   22.6999  -16.2768   10.5794 N   0  0  0  0  0  0  0  0  0  0  0  0
   25.0695  -14.8519   11.3433 C   0  0  0  0  0  0  0  0  0  0  0  0
   25.6239  -13.6015   11.9307 C   0  0  0  0  0  0  0  0  0  0  0  0
   27.5508  -10.8637   10.1411 C   0  0  0  0  0  0  0  0  0  0  0  0
   26.5605  -10.4211    9.2662 C   0  0  0  0  0  0  0  0  0  0  0  0
   26.7282   -9.3061    8.4838 C   0  0  0  0  0  0  0  0  0  0  0  0
   28.7135  -10.1231   10.1831 C   0  0  0  0  0  0  0  0  0  0  0  0
   28.8805   -8.9917    9.3875 C   0  0  0  0  0  0  0  0  0  0  0  0
   27.9068   -8.5571    8.5267 C   0  0  0  0  0  0  0  0  0  0  0  0
   28.0220   -7.3904    7.6357 C   0  0  0  0  0  0  0  0  0  0  0  0
   27.8965   -6.0649    8.2716 C   0  0  2  0  0  0  0  0  0  0  0  0
   29.1697   -5.3526    8.5504 C   0  0  0  0  0  0  0  0  0  0  0  0
   30.3277   -5.5079    8.1390 O   0  0  0  0  0  0  0  0  0  0  0  0
   27.3327   -6.0743    9.5702 O   0  0  0  0  0  0  0  0  0  0  0  0
   27.6209   -4.8137   10.1178 C   0  0  0  0  0  0  0  0  0  0  0  0
   27.0114   -4.0257   11.0869 C   0  0  0  0  0  0  0  0  0  0  0  0
   25.8229   -4.4512   11.7895 C   0  0  0  0  0  0  0  0  0  0  0  0
   25.2409   -3.6354   12.5820 O   0  0  0  0  0  0  0  0  0  0  0  0
   25.2659   -5.7279   11.6500 N   0  0  0  0  0  0  0  0  0  0  0  0
   28.7712   -4.2998    9.5186 C   0  0  0  0  0  0  0  0  0  0  0  0
   29.2759   -3.0724    9.8719 C   0  0  0  0  0  0  0  0  0  0  0  0
   28.6599   -2.2869   10.8438 C   0  0  0  0  0  0  0  0  0  0  0  0
   27.5379   -2.7843   11.4302 C   0  0  0  0  0  0  0  0  0  0  0  0
  1  2  2  0
  2  3  1  0
  2 15  1  0
  4  3  1  1
 14  3  1  1
  4  5  1  0
  5  6  1  6
  6  7  1  0
 13  6  1  1
  7  8  2  0
  7 12  1  0
  8  9  1  0
  9 10  2  0
 10 11  1  0
 11 12  2  0
 13 14  1  0
 15 16  2  0
 15 18  1  0
 16 17  1  0
 17 20  2  0
 18 19  2  0
 19 20  1  0
 21 20  1  1
 21 22  1  0
 22 23  1  0
 22 25  1  1
 23 24  2  0
 23 31  1  0
 25 26  1  0
 26 27  2  0
 26 31  1  0
 27 28  1  0
 27 34  1  0
 28 29  2  0
 28 30  1  0
 31 32  2  0
 32 33  1  0
 33 34  2  0
M  END
$$$$
