
     RDKit          3D

 34 38  0  0  0  0  0  0  0  0999 V2000
   26.9433  -12.8520   12.3418 O   0  0  0  0  0  0  0  0  0  0  0  0
   26.4131  -12.4631   11.2496 C   0  0  0  0  0  0  0  0  0  0  0  0
   25.4051  -13.1982   10.6039 N   0  0  0  0  0  0  0  0  0  0  0  0
   25.4981  -14.6297   10.5221 C   0  0  0  0  0  0  0  0  0  0  0  0
   24.1912  -15.2777   10.8832 C   0  0  0  0  0  0  0  0  0  0  0  0
   23.0304  -14.4838   10.5708 N   0  0  0  0  0  0  0  0  0  0  0  0
   21.8509  -15.0967   10.0729 C   0  0  0  0  0  0  0  0  0  0  0  0
   20.9507  -14.4351    9.3414 N   0  0  0  0  0  0  0  0  0  0  0  0
   19.8237  -14.9909    8.8570 C   0  0  0  0  0  0  0  0  0  0  0  0
   19.5766  -16.3056    9.1228 C   0  0  0  0  0  0  0  0  0  0  0  0
   20.4851  -17.0238    9.8770 C   0  0  0  0  0  0  0  0  0  0  0  0
   21.5780  -16.4052   10.3217 N   0  0  0  0  0  0  0  0  0  0  0  0
   23.0398  -13.0541   10.7578 C   0  0  0  0  0  0  0  0  0  0  0  0
   24.2811  -12.5243   10.0236 C   0  0  0  0  0  0  0  0  0  0  0  0
   26.9238  -11.1947   10.7081 C   0  0  0  0  0  0  0  0  0  0  0  0
   27.6637  -11.1246    9.5489 C   0  0  0  0  0  0  0  0  0  0  0  0
   28.1272   -9.9044    9.0650 C   0  0  0  0  0  0  0  0  0  0  0  0
   26.6623  -10.0024   11.3688 C   0  0  0  0  0  0  0  0  0  0  0  0
   27.1275   -8.7923   10.8802 C   0  0  0  0  0  0  0  0  0  0  0  0
   27.8668   -8.7211    9.7219 C   0  0  0  0  0  0  0  0  0  0  0  0
   28.3702   -7.4356    9.1887 C   0  0  0  0  0  0  0  0  0  0  0  0
   27.3918   -6.7205    8.3034 C   0  0  2  0  0  0  0  0  0  0  0  0
   28.1090   -5.5393    7.7137 C   0  0  0  0  0  0  0  0  0  0  0  0
   28.5956   -5.3771    6.5746 O   0  0  0  0  0  0  0  0  0  0  0  0
   26.4647   -6.0480    9.1568 O   0  0  0  0  0  0  0  0  0  0  0  0
   27.0994   -4.9049    9.6791 C   0  0  0  0  0  0  0  0  0  0  0  0
   26.8561   -4.1656   10.8216 C   0  0  0  0  0  0  0  0  0  0  0  0
   25.7794   -4.5337   11.7279 C   0  0  0  0  0  0  0  0  0  0  0  0
   25.2839   -3.7247   12.5415 O   0  0  0  0  0  0  0  0  0  0  0  0
   25.2693   -5.8560   11.6916 N   0  0  0  0  0  0  0  0  0  0  0  0
   28.1198   -4.5651    8.8108 C   0  0  0  0  0  0  0  0  0  0  0  0
   28.9284   -3.4602    9.0755 C   0  0  0  0  0  0  0  0  0  0  0  0
   28.7028   -2.7070   10.2121 C   0  0  0  0  0  0  0  0  0  0  0  0
   27.6725   -3.0836   11.0507 C   0  0  0  0  0  0  0  0  0  0  0  0
  1  2  2  0
  2  3  1  0
  2 15  1  0
  3  4  1  0
  3 14  1  0
  4  5  1  0
  5  6  1  0
  6  7  1  0
  6 13  1  0
  7  8  2  0
  7 12  1  0
  8  9  1  0
  9 10  2  0
 10 11  1  0
 11 12  2  0
 13 14  1  0
 15 16  2  0
 15 18  1  0
 16 17  1  0
 17 20  2  0
 18 19  2  0
 19 20  1  0
 20 21  1  0
 22 21  1  1
 22 23  1  0
 22 25  1  0
 23 24  2  0
 23 31  1  0
 25 26  1  0
 26 27  2  0
 26 31  1  0
 27 28  1  0
 27 34  1  0
 28 29  2  0
 28 30  1  0
 31 32  2  0
 32 33  1  0
 33 34  2  0
M  END
$$$$
