
     RDKit          3D

 34 38  0  0  0  0  0  0  0  0999 V2000
   27.1563  -12.6955   12.9060 O   0  0  0  0  0  0  0  0  0  0  0  0
   26.5437  -12.3383   11.8466 C   0  0  0  0  0  0  0  0  0  0  0  0
   25.4900  -13.0908   11.3019 N   0  0  0  0  0  0  0  0  0  0  0  0
   25.3388  -14.4763   11.6515 C   0  0  0  0  0  0  0  0  0  0  0  0
   23.9101  -14.7952   11.9912 C   0  0  0  0  0  0  0  0  0  0  0  0
   22.9416  -13.9847   11.2981 N   0  0  0  0  0  0  0  0  0  0  0  0
   21.7268  -14.5529   10.8331 C   0  0  0  0  0  0  0  0  0  0  0  0
   20.9251  -13.9271    9.9678 N   0  0  0  0  0  0  0  0  0  0  0  0
   19.7677  -14.4420    9.5107 C   0  0  0  0  0  0  0  0  0  0  0  0
   19.3815  -15.6740    9.9504 C   0  0  0  0  0  0  0  0  0  0  0  0
   20.1850  -16.3529   10.8467 C   0  0  0  0  0  0  0  0  0  0  0  0
   21.3161  -15.7790   11.2538 N   0  0  0  0  0  0  0  0  0  0  0  0
   23.1826  -12.5825   11.0634 C   0  0  0  0  0  0  0  0  0  0  0  0
   24.5623  -12.4809   10.3953 C   0  0  0  0  0  0  0  0  0  0  0  0
   27.0103  -11.0872   11.2303 C   0  0  0  0  0  0  0  0  0  0  0  0
   26.3102   -9.9052   11.3238 C   0  0  0  0  0  0  0  0  0  0  0  0
   26.7858   -8.7395   10.7298 C   0  0  0  0  0  0  0  0  0  0  0  0
   28.2036  -11.0652   10.5218 C   0  0  0  0  0  0  0  0  0  0  0  0
   28.6696   -9.9005    9.9336 C   0  0  0  0  0  0  0  0  0  0  0  0
   27.9709   -8.7189   10.0266 C   0  0  0  0  0  0  0  0  0  0  0  0
   28.4566   -7.4676    9.4033 C   0  0  0  0  0  0  0  0  0  0  0  0
   27.4628   -6.8225    8.4819 C   0  0  2  0  0  0  0  0  0  0  0  0
   28.1742   -5.7030    7.7764 C   0  0  0  0  0  0  0  0  0  0  0  0
   28.6351   -5.6438    6.6169 O   0  0  0  0  0  0  0  0  0  0  0  0
   26.5605   -6.0708    9.2950 O   0  0  0  0  0  0  0  0  0  0  0  0
   27.2153   -4.8927    9.7022 C   0  0  0  0  0  0  0  0  0  0  0  0
   27.0039   -4.0557   10.7819 C   0  0  0  0  0  0  0  0  0  0  0  0
   25.9461   -4.3347   11.7408 C   0  0  0  0  0  0  0  0  0  0  0  0
   25.4598   -3.4494   12.4768 O   0  0  0  0  0  0  0  0  0  0  0  0
   25.4444   -5.6563   11.8487 N   0  0  0  0  0  0  0  0  0  0  0  0
   28.2175   -4.6381    8.7849 C   0  0  0  0  0  0  0  0  0  0  0  0
   29.0397   -3.5218    8.9349 C   0  0  0  0  0  0  0  0  0  0  0  0
   28.8461   -2.6716   10.0071 C   0  0  0  0  0  0  0  0  0  0  0  0
   27.8330   -2.9653   10.8982 C   0  0  0  0  0  0  0  0  0  0  0  0
  1  2  2  0
  2  3  1  0
  2 15  1  0
  3  4  1  0
  3 14  1  0
  4  5  1  0
  5  6  1  0
  6  7  1  0
  6 13  1  0
  7  8  2  0
  7 12  1  0
  8  9  1  0
  9 10  2  0
 10 11  1  0
 11 12  2  0
 13 14  1  0
 15 16  2  0
 15 18  1  0
 16 17  1  0
 17 20  2  0
 18 19  2  0
 19 20  1  0
 20 21  1  0
 22 21  1  1
 22 23  1  0
 22 25  1  0
 23 24  2  0
 23 31  1  0
 25 26  1  0
 26 27  2  0
 26 31  1  0
 27 28  1  0
 27 34  1  0
 28 29  2  0
 28 30  1  0
 31 32  2  0
 32 33  1  0
 33 34  2  0
M  END
$$$$
