
     RDKit          3D

 34 38  0  0  0  0  0  0  0  0999 V2000
   27.7568  -13.1303    9.2626 O   0  0  0  0  0  0  0  0  0  0  0  0
   26.9850  -12.2591    9.7827 C   0  0  0  0  0  0  0  0  0  0  0  0
   25.8915  -12.6148   10.5896 N   0  0  0  0  0  0  0  0  0  0  0  0
   24.8423  -11.6654   10.8397 C   0  0  0  0  0  0  0  0  0  0  0  0
   23.4897  -12.2957   10.6626 C   0  0  0  0  0  0  0  0  0  0  0  0
   23.4487  -13.7040   10.9630 N   0  0  0  0  0  0  0  0  0  0  0  0
   22.3249  -14.2681   11.6217 C   0  0  0  0  0  0  0  0  0  0  0  0
   21.2372  -13.5556   11.9257 N   0  0  0  0  0  0  0  0  0  0  0  0
   20.1580  -14.0645   12.5501 C   0  0  0  0  0  0  0  0  0  0  0  0
   20.1650  -15.3835   12.8973 C   0  0  0  0  0  0  0  0  0  0  0  0
   21.2732  -16.1536   12.5996 C   0  0  0  0  0  0  0  0  0  0  0  0
   22.3034  -15.5796   11.9800 N   0  0  0  0  0  0  0  0  0  0  0  0
   24.5435  -14.5698   10.6011 C   0  0  0  0  0  0  0  0  0  0  0  0
   25.8178  -13.9246   11.1670 C   0  0  0  0  0  0  0  0  0  0  0  0
   27.3123  -10.8567    9.4845 C   0  0  0  0  0  0  0  0  0  0  0  0
   27.6618   -9.9503   10.4603 C   0  0  0  0  0  0  0  0  0  0  0  0
   27.9687   -8.6310   10.1389 C   0  0  0  0  0  0  0  0  0  0  0  0
   27.2796  -10.3997    8.1743 C   0  0  0  0  0  0  0  0  0  0  0  0
   27.5866   -9.0849    7.8632 C   0  0  0  0  0  0  0  0  0  0  0  0
   27.9360   -8.1784    8.8375 C   0  0  0  0  0  0  0  0  0  0  0  0
   28.2660   -6.7712    8.5197 C   0  0  0  0  0  0  0  0  0  0  0  0
   27.1182   -5.9930    7.9456 C   0  0  2  0  0  0  0  0  0  0  0  0
   27.6334   -4.6203    7.6178 C   0  0  0  0  0  0  0  0  0  0  0  0
   27.9565   -4.1208    6.5193 O   0  0  0  0  0  0  0  0  0  0  0  0
   26.2401   -5.6776    9.0272 O   0  0  0  0  0  0  0  0  0  0  0  0
   26.8152   -4.6260    9.7661 C   0  0  0  0  0  0  0  0  0  0  0  0
   26.6411   -4.2290   11.0787 C   0  0  0  0  0  0  0  0  0  0  0  0
   25.7276   -4.9454   11.9554 C   0  0  0  0  0  0  0  0  0  0  0  0
   25.3729   -4.4933   13.0652 O   0  0  0  0  0  0  0  0  0  0  0  0
   25.2176   -6.2018   11.5414 N   0  0  0  0  0  0  0  0  0  0  0  0
   27.6807   -3.9535    8.9240 C   0  0  0  0  0  0  0  0  0  0  0  0
   28.3994   -2.8527    9.3891 C   0  0  0  0  0  0  0  0  0  0  0  0
   28.2407   -2.4386   10.6980 C   0  0  0  0  0  0  0  0  0  0  0  0
   27.3655   -3.1404   11.5030 C   0  0  0  0  0  0  0  0  0  0  0  0
  1  2  2  0
  2  3  1  0
  2 15  1  0
  3  4  1  0
  3 14  1  0
  4  5  1  0
  5  6  1  0
  6  7  1  0
  6 13  1  0
  7  8  2  0
  7 12  1  0
  8  9  1  0
  9 10  2  0
 10 11  1  0
 11 12  2  0
 13 14  1  0
 15 16  2  0
 15 18  1  0
 16 17  1  0
 17 20  2  0
 18 19  2  0
 19 20  1  0
 20 21  1  0
 22 21  1  1
 22 23  1  0
 22 25  1  0
 23 24  2  0
 23 31  1  0
 25 26  1  0
 26 27  2  0
 26 31  1  0
 27 28  1  0
 27 34  1  0
 28 29  2  0
 28 30  1  0
 31 32  2  0
 32 33  1  0
 33 34  2  0
M  END
$$$$
