
     RDKit          3D

 34 38  0  0  0  0  0  0  0  0999 V2000
   26.8807  -12.0558    6.3816 O   0  0  0  0  0  0  0  0  0  0  0  0
   26.4397  -11.3232    7.3271 C   0  0  0  0  0  0  0  0  0  0  0  0
   25.5390  -11.8069    8.2905 N   0  0  0  0  0  0  0  0  0  0  0  0
   25.0541  -13.1570    8.2091 C   0  0  0  0  0  0  0  0  0  0  0  0
   25.1185  -13.8360    9.5482 C   0  0  0  0  0  0  0  0  0  0  0  0
   24.9667  -12.9464   10.6711 N   0  0  0  0  0  0  0  0  0  0  0  0
   24.2302  -13.3495   11.8156 C   0  0  0  0  0  0  0  0  0  0  0  0
   24.2351  -14.6058   12.2680 N   0  0  0  0  0  0  0  0  0  0  0  0
   23.5460  -15.0158   13.3500 C   0  0  0  0  0  0  0  0  0  0  0  0
   22.7956  -14.1033   14.0315 C   0  0  0  0  0  0  0  0  0  0  0  0
   22.7651  -12.7929   13.5935 C   0  0  0  0  0  0  0  0  0  0  0  0
   23.4734  -12.4623   12.5148 N   0  0  0  0  0  0  0  0  0  0  0  0
   25.5589  -11.6317   10.6586 C   0  0  0  0  0  0  0  0  0  0  0  0
   25.0995  -10.9565    9.3573 C   0  0  0  0  0  0  0  0  0  0  0  0
   26.9342   -9.9383    7.3457 C   0  0  0  0  0  0  0  0  0  0  0  0
   26.5852   -9.0105    6.3899 C   0  0  0  0  0  0  0  0  0  0  0  0
   27.0709   -7.7070    6.4427 C   0  0  0  0  0  0  0  0  0  0  0  0
   27.7865   -9.5190    8.3577 C   0  0  0  0  0  0  0  0  0  0  0  0
   28.2653   -8.2196    8.4027 C   0  0  0  0  0  0  0  0  0  0  0  0
   27.9171   -7.2917    7.4482 C   0  0  0  0  0  0  0  0  0  0  0  0
   28.4211   -5.9008    7.4837 C   0  0  0  0  0  0  0  0  0  0  0  0
   27.3530   -4.8629    7.2977 C   0  0  2  0  0  0  0  0  0  0  0  0
   27.8859   -3.5737    7.8558 C   0  0  0  0  0  0  0  0  0  0  0  0
   28.3527   -2.5733    7.2713 O   0  0  0  0  0  0  0  0  0  0  0  0
   26.3252   -5.1404    8.2501 O   0  0  0  0  0  0  0  0  0  0  0  0
   26.7717   -4.7106    9.5143 C   0  0  0  0  0  0  0  0  0  0  0  0
   26.4066   -5.0932   10.7915 C   0  0  0  0  0  0  0  0  0  0  0  0
   25.3905   -6.1136   10.9982 C   0  0  0  0  0  0  0  0  0  0  0  0
   25.1216   -6.9748   10.1335 O   0  0  0  0  0  0  0  0  0  0  0  0
   24.6764   -6.1373   12.2228 N   0  0  0  0  0  0  0  0  0  0  0  0
   27.7361   -3.7427    9.3056 C   0  0  0  0  0  0  0  0  0  0  0  0
   28.3627   -3.1303   10.3905 C   0  0  0  0  0  0  0  0  0  0  0  0
   28.0130   -3.4976   11.6761 C   0  0  0  0  0  0  0  0  0  0  0  0
   27.0447   -4.4687   11.8368 C   0  0  0  0  0  0  0  0  0  0  0  0
  1  2  2  0
  2  3  1  0
  2 15  1  0
  3  4  1  0
  3 14  1  0
  4  5  1  0
  5  6  1  0
  6  7  1  0
  6 13  1  0
  7  8  2  0
  7 12  1  0
  8  9  1  0
  9 10  2  0
 10 11  1  0
 11 12  2  0
 13 14  1  0
 15 16  2  0
 15 18  1  0
 16 17  1  0
 17 20  2  0
 18 19  2  0
 19 20  1  0
 20 21  1  0
 22 21  1  1
 22 23  1  0
 22 25  1  0
 23 24  2  0
 23 31  1  0
 25 26  1  0
 26 27  2  0
 26 31  1  0
 27 28  1  0
 27 34  1  0
 28 29  2  0
 28 30  1  0
 31 32  2  0
 32 33  1  0
 33 34  2  0
M  END
$$$$
