
     RDKit          3D

 34 38  0  0  0  0  0  0  0  0999 V2000
   26.9117  -12.6439    7.3776 O   0  0  0  0  0  0  0  0  0  0  0  0
   26.3384  -11.8707    8.2135 C   0  0  0  0  0  0  0  0  0  0  0  0
   25.2742  -12.3015    9.0231 N   0  0  0  0  0  0  0  0  0  0  0  0
   24.4153  -13.3640    8.5781 C   0  0  0  0  0  0  0  0  0  0  0  0
   24.1879  -14.3690    9.6719 C   0  0  0  0  0  0  0  0  0  0  0  0
   24.2359  -13.8177   11.0019 N   0  0  0  0  0  0  0  0  0  0  0  0
   23.3404  -14.2744   12.0042 C   0  0  0  0  0  0  0  0  0  0  0  0
   22.9751  -13.5168   13.0413 N   0  0  0  0  0  0  0  0  0  0  0  0
   22.1284  -13.9242   14.0060 C   0  0  0  0  0  0  0  0  0  0  0  0
   21.6073  -15.1824   13.9299 C   0  0  0  0  0  0  0  0  0  0  0  0
   21.9620  -15.9965   12.8710 C   0  0  0  0  0  0  0  0  0  0  0  0
   22.8053  -15.5234   11.9547 N   0  0  0  0  0  0  0  0  0  0  0  0
   25.1924  -12.7946   11.3446 C   0  0  0  0  0  0  0  0  0  0  0  0
   25.0401  -11.6832   10.2948 C   0  0  0  0  0  0  0  0  0  0  0  0
   26.8623  -10.4980    8.2770 C   0  0  0  0  0  0  0  0  0  0  0  0
   26.7622   -9.6139    7.2261 C   0  0  0  0  0  0  0  0  0  0  0  0
   27.2673   -8.3204    7.3247 C   0  0  0  0  0  0  0  0  0  0  0  0
   27.4853  -10.0454    9.4317 C   0  0  0  0  0  0  0  0  0  0  0  0
   27.9852   -8.7564    9.5214 C   0  0  0  0  0  0  0  0  0  0  0  0
   27.8856   -7.8721    8.4720 C   0  0  0  0  0  0  0  0  0  0  0  0
   28.4152   -6.4926    8.5537 C   0  0  0  0  0  0  0  0  0  0  0  0
   27.4522   -5.4433    8.0805 C   0  0  2  0  0  0  0  0  0  0  0  0
   28.2202   -4.1573    7.9636 C   0  0  0  0  0  0  0  0  0  0  0  0
   28.6744   -3.5776    6.9547 O   0  0  0  0  0  0  0  0  0  0  0  0
   26.6005   -5.1253    9.1823 O   0  0  0  0  0  0  0  0  0  0  0  0
   27.3242   -4.3119   10.0750 C   0  0  0  0  0  0  0  0  0  0  0  0
   27.1693   -4.0770   11.4285 C   0  0  0  0  0  0  0  0  0  0  0  0
   26.1051   -4.7276   12.1772 C   0  0  0  0  0  0  0  0  0  0  0  0
   25.5473   -4.1854   13.1553 O   0  0  0  0  0  0  0  0  0  0  0  0
   25.6809   -6.0232   11.7880 N   0  0  0  0  0  0  0  0  0  0  0  0
   28.3318   -3.6999    9.3534 C   0  0  0  0  0  0  0  0  0  0  0  0
   29.2171   -2.8269    9.9848 C   0  0  0  0  0  0  0  0  0  0  0  0
   29.0806   -2.5777   11.3373 C   0  0  0  0  0  0  0  0  0  0  0  0
   28.0597   -3.2111   12.0178 C   0  0  0  0  0  0  0  0  0  0  0  0
  1  2  2  0
  2  3  1  0
  2 15  1  0
  3  4  1  0
  3 14  1  0
  4  5  1  0
  5  6  1  0
  6  7  1  0
  6 13  1  0
  7  8  2  0
  7 12  1  0
  8  9  1  0
  9 10  2  0
 10 11  1  0
 11 12  2  0
 13 14  1  0
 15 16  2  0
 15 18  1  0
 16 17  1  0
 17 20  2  0
 18 19  2  0
 19 20  1  0
 20 21  1  0
 22 21  1  1
 22 23  1  0
 22 25  1  0
 23 24  2  0
 23 31  1  0
 25 26  1  0
 26 27  2  0
 26 31  1  0
 27 28  1  0
 27 34  1  0
 28 29  2  0
 28 30  1  0
 31 32  2  0
 32 33  1  0
 33 34  2  0
M  END
$$$$
