
     RDKit          3D

 34 38  0  0  0  0  0  0  0  0999 V2000
   27.4050  -12.5064    9.0938 O   0  0  0  0  0  0  0  0  0  0  0  0
   26.5411  -11.6662    8.7970 C   0  0  0  0  0  0  0  0  0  0  0  0
   25.1681  -11.9924    8.9337 N   0  0  0  0  0  0  0  0  0  0  0  0
   24.2125  -11.0163    9.4761 C   0  0  0  0  0  0  0  0  0  0  0  0
   23.2615  -10.6908    8.3156 C   0  0  0  0  0  0  0  0  0  0  0  0
   22.6368  -11.9691    7.9913 N   0  0  0  0  0  0  0  0  0  0  0  0
   21.2206  -12.0198    7.9301 C   0  0  0  0  0  0  0  0  0  0  0  0
   20.4603  -11.0536    8.4968 N   0  0  0  0  0  0  0  0  0  0  0  0
   19.1096  -11.0615    8.4730 C   0  0  0  0  0  0  0  0  0  0  0  0
   18.4686  -12.1008    7.8436 C   0  0  0  0  0  0  0  0  0  0  0  0
   19.2164  -13.0909    7.2628 C   0  0  0  0  0  0  0  0  0  0  0  0
   20.5546  -13.0286    7.3183 N   0  0  0  0  0  0  0  0  0  0  0  0
   23.4115  -13.1563    7.7371 C   0  0  0  0  0  0  0  0  0  0  0  0
   24.6370  -13.2898    8.5715 C   0  0  0  0  0  0  0  0  0  0  0  0
   26.9191  -10.3607    8.3164 C   0  0  0  0  0  0  0  0  0  0  0  0
   28.0175   -9.7097    8.8748 C   0  0  0  0  0  0  0  0  0  0  0  0
   28.4125   -8.4635    8.4570 C   0  0  0  0  0  0  0  0  0  0  0  0
   26.2450   -9.6889    7.3183 C   0  0  0  0  0  0  0  0  0  0  0  0
   26.6487   -8.4239    6.8966 C   0  0  0  0  0  0  0  0  0  0  0  0
   27.7283   -7.7836    7.4463 C   0  0  0  0  0  0  0  0  0  0  0  0
   28.1960   -6.4380    7.0737 C   0  0  0  0  0  0  0  0  0  0  0  0
   27.7228   -5.3228    7.9160 C   0  0  2  0  0  0  0  0  0  0  0  0
   28.7495   -4.3264    8.3152 C   0  0  0  0  0  0  0  0  0  0  0  0
   29.8857   -4.0738    7.8916 O   0  0  0  0  0  0  0  0  0  0  0  0
   27.2389   -5.6992    9.1921 O   0  0  0  0  0  0  0  0  0  0  0  0
   27.1767   -4.5119    9.9394 C   0  0  0  0  0  0  0  0  0  0  0  0
   26.4075   -4.0965   11.0199 C   0  0  0  0  0  0  0  0  0  0  0  0
   25.4200   -4.9524   11.6361 C   0  0  0  0  0  0  0  0  0  0  0  0
   24.7219   -4.5013   12.6064 O   0  0  0  0  0  0  0  0  0  0  0  0
   25.1832   -6.2692   11.2246 N   0  0  0  0  0  0  0  0  0  0  0  0
   28.1066   -3.5999    9.4392 C   0  0  0  0  0  0  0  0  0  0  0  0
   28.2532   -2.3508    9.9908 C   0  0  0  0  0  0  0  0  0  0  0  0
   27.4787   -1.9402   11.0736 C   0  0  0  0  0  0  0  0  0  0  0  0
   26.5707   -2.8263   11.5640 C   0  0  0  0  0  0  0  0  0  0  0  0
  1  2  2  0
  2  3  1  0
  2 15  1  0
  4  3  1  1
 14  3  1  1
  4  5  1  0
  5  6  1  6
  6  7  1  0
 13  6  1  1
  7  8  2  0
  7 12  1  0
  8  9  1  0
  9 10  2  0
 10 11  1  0
 11 12  2  0
 13 14  1  0
 15 16  2  0
 15 18  1  0
 16 17  1  0
 17 20  2  0
 18 19  2  0
 19 20  1  0
 21 20  1  1
 21 22  1  0
 22 23  1  0
 22 25  1  1
 23 24  2  0
 23 31  1  0
 25 26  1  0
 26 27  2  0
 26 31  1  0
 27 28  1  0
 27 34  1  0
 28 29  2  0
 28 30  1  0
 31 32  2  0
 32 33  1  0
 33 34  2  0
M  END
$$$$
