
     RDKit          3D

 34 38  0  0  0  0  0  0  0  0999 V2000
   27.3938  -12.9648    7.3350 O   0  0  0  0  0  0  0  0  0  0  0  0
   26.6850  -12.2497    8.1170 C   0  0  0  0  0  0  0  0  0  0  0  0
   25.5931  -12.7751    8.8276 N   0  0  0  0  0  0  0  0  0  0  0  0
   25.3802  -14.1954    8.8736 C   0  0  0  0  0  0  0  0  0  0  0  0
   25.0822  -14.6521   10.2739 C   0  0  0  0  0  0  0  0  0  0  0  0
   24.4171  -13.6679   11.0889 N   0  0  0  0  0  0  0  0  0  0  0  0
   23.4023  -14.0553   12.0026 C   0  0  0  0  0  0  0  0  0  0  0  0
   22.4279  -13.2278   12.3882 N   0  0  0  0  0  0  0  0  0  0  0  0
   21.4536  -13.5684   13.2533 C   0  0  0  0  0  0  0  0  0  0  0  0
   21.4519  -14.8296   13.7725 C   0  0  0  0  0  0  0  0  0  0  0  0
   22.4445  -15.7150   13.3974 C   0  0  0  0  0  0  0  0  0  0  0  0
   23.3750  -15.3055   12.5365 N   0  0  0  0  0  0  0  0  0  0  0  0
   24.7672  -12.2721   10.9965 C   0  0  0  0  0  0  0  0  0  0  0  0
   24.6870  -11.8978    9.5086 C   0  0  0  0  0  0  0  0  0  0  0  0
   27.0834  -10.8384    8.2284 C   0  0  0  0  0  0  0  0  0  0  0  0
   27.4718  -10.2664    9.4192 C   0  0  0  0  0  0  0  0  0  0  0  0
   27.8458   -8.9271    9.4848 C   0  0  0  0  0  0  0  0  0  0  0  0
   27.0812  -10.0255    7.1033 C   0  0  0  0  0  0  0  0  0  0  0  0
   27.4550   -8.6934    7.1776 C   0  0  0  0  0  0  0  0  0  0  0  0
   27.8433   -8.1210    8.3670 C   0  0  0  0  0  0  0  0  0  0  0  0
   28.2448   -6.6997    8.4609 C   0  0  0  0  0  0  0  0  0  0  0  0
   27.2279   -5.7437    7.9089 C   0  0  2  0  0  0  0  0  0  0  0  0
   27.8986   -4.4047    7.7874 C   0  0  0  0  0  0  0  0  0  0  0  0
   28.3562   -3.8197    6.7831 O   0  0  0  0  0  0  0  0  0  0  0  0
   26.3002   -5.4630    8.9581 O   0  0  0  0  0  0  0  0  0  0  0  0
   26.9130   -4.5699    9.8577 C   0  0  0  0  0  0  0  0  0  0  0  0
   26.6729   -4.3098   11.1940 C   0  0  0  0  0  0  0  0  0  0  0  0
   25.6265   -5.0211   11.9118 C   0  0  0  0  0  0  0  0  0  0  0  0
   25.1303   -4.5876   12.9737 O   0  0  0  0  0  0  0  0  0  0  0  0
   25.1479   -6.2507   11.3929 N   0  0  0  0  0  0  0  0  0  0  0  0
   27.9048   -3.9008    9.1655 C   0  0  0  0  0  0  0  0  0  0  0  0
   28.6870   -2.9430    9.8099 C   0  0  0  0  0  0  0  0  0  0  0  0
   28.4641   -2.6671   11.1456 C   0  0  0  0  0  0  0  0  0  0  0  0
   27.4628   -3.3598   11.7968 C   0  0  0  0  0  0  0  0  0  0  0  0
  1  2  2  0
  2  3  1  0
  2 15  1  0
  3  4  1  0
  3 14  1  0
  4  5  1  0
  5  6  1  0
  6  7  1  0
  6 13  1  0
  7  8  2  0
  7 12  1  0
  8  9  1  0
  9 10  2  0
 10 11  1  0
 11 12  2  0
 13 14  1  0
 15 16  2  0
 15 18  1  0
 16 17  1  0
 17 20  2  0
 18 19  2  0
 19 20  1  0
 20 21  1  0
 22 21  1  1
 22 23  1  0
 22 25  1  0
 23 24  2  0
 23 31  1  0
 25 26  1  0
 26 27  2  0
 26 31  1  0
 27 28  1  0
 27 34  1  0
 28 29  2  0
 28 30  1  0
 31 32  2  0
 32 33  1  0
 33 34  2  0
M  END
$$$$
