
     RDKit          3D

 34 38  0  0  0  0  0  0  0  0999 V2000
   28.6707  -10.5943    6.9261 O   0  0  0  0  0  0  0  0  0  0  0  0
   27.6764  -10.1036    6.3685 C   0  0  0  0  0  0  0  0  0  0  0  0
   26.9487  -10.8733    5.4260 N   0  0  0  0  0  0  0  0  0  0  0  0
   27.5869  -11.9866    4.7095 C   0  0  0  0  0  0  0  0  0  0  0  0
   26.8636  -13.2505    5.1958 C   0  0  0  0  0  0  0  0  0  0  0  0
   25.4745  -13.0476    4.7971 N   0  0  0  0  0  0  0  0  0  0  0  0
   24.8387  -14.0772    4.0570 C   0  0  0  0  0  0  0  0  0  0  0  0
   23.5870  -13.9165    3.5669 N   0  0  0  0  0  0  0  0  0  0  0  0
   22.9363  -14.8694    2.8643 C   0  0  0  0  0  0  0  0  0  0  0  0
   23.5715  -16.0651    2.6323 C   0  0  0  0  0  0  0  0  0  0  0  0
   24.8387  -16.2517    3.1184 C   0  0  0  0  0  0  0  0  0  0  0  0
   25.4342  -15.2685    3.8087 N   0  0  0  0  0  0  0  0  0  0  0  0
   24.7500  -11.8489    5.1320 C   0  0  0  0  0  0  0  0  0  0  0  0
   25.5632  -10.6023    5.1042 C   0  0  0  0  0  0  0  0  0  0  0  0
   27.2522   -8.7594    6.6705 C   0  0  0  0  0  0  0  0  0  0  0  0
   27.9711   -7.6775    6.1656 C   0  0  0  0  0  0  0  0  0  0  0  0
   27.6119   -6.3798    6.4308 C   0  0  0  0  0  0  0  0  0  0  0  0
   26.1566   -8.4614    7.4533 C   0  0  0  0  0  0  0  0  0  0  0  0
   25.7948   -7.1428    7.7206 C   0  0  0  0  0  0  0  0  0  0  0  0
   26.5022   -6.0792    7.2247 C   0  0  0  0  0  0  0  0  0  0  0  0
   26.1984   -4.6624    7.4871 C   0  0  0  0  0  0  0  0  0  0  0  0
   26.7516   -4.0927    8.7307 C   0  0  2  0  0  0  0  0  0  0  0  0
   28.2158   -3.8432    8.7383 C   0  0  0  0  0  0  0  0  0  0  0  0
   29.0610   -3.7696    7.8358 O   0  0  0  0  0  0  0  0  0  0  0  0
   26.6396   -4.9231    9.8718 O   0  0  0  0  0  0  0  0  0  0  0  0
   27.5090   -4.3732   10.8277 C   0  0  0  0  0  0  0  0  0  0  0  0
   27.5424   -4.3888   12.2170 C   0  0  0  0  0  0  0  0  0  0  0  0
   26.5503   -5.0853   13.0031 C   0  0  0  0  0  0  0  0  0  0  0  0
   26.5679   -4.9686   14.2753 O   0  0  0  0  0  0  0  0  0  0  0  0
   25.5567   -5.8950   12.4403 N   0  0  0  0  0  0  0  0  0  0  0  0
   28.5300   -3.6771   10.1799 C   0  0  0  0  0  0  0  0  0  0  0  0
   29.5207   -3.0384   10.8845 C   0  0  0  0  0  0  0  0  0  0  0  0
   29.5483   -3.0573   12.2773 C   0  0  0  0  0  0  0  0  0  0  0  0
   28.5544   -3.7346   12.9127 C   0  0  0  0  0  0  0  0  0  0  0  0
  1  2  2  0
  2  3  1  0
  2 15  1  0
  4  3  1  1
 14  3  1  1
  4  5  1  0
  5  6  1  6
  6  7  1  0
 13  6  1  1
  7  8  2  0
  7 12  1  0
  8  9  1  0
  9 10  2  0
 10 11  1  0
 11 12  2  0
 13 14  1  0
 15 16  2  0
 15 18  1  0
 16 17  1  0
 17 20  2  0
 18 19  2  0
 19 20  1  0
 21 20  1  1
 21 22  1  0
 22 23  1  0
 22 25  1  1
 23 24  2  0
 23 31  1  0
 25 26  1  0
 26 27  2  0
 26 31  1  0
 27 28  1  0
 27 34  1  0
 28 29  2  0
 28 30  1  0
 31 32  2  0
 32 33  1  0
 33 34  2  0
M  END
$$$$
