
     RDKit          3D

 34 38  0  0  0  0  0  0  0  0999 V2000
   26.9952   -9.3213    3.1782 O   0  0  0  0  0  0  0  0  0  0  0  0
   26.4276   -9.5205    4.3023 C   0  0  0  0  0  0  0  0  0  0  0  0
   25.5247  -10.5769    4.5077 N   0  0  0  0  0  0  0  0  0  0  0  0
   24.3909  -10.7341    3.6391 C   0  0  0  0  0  0  0  0  0  0  0  0
   24.2373  -12.1645    3.2047 C   0  0  0  0  0  0  0  0  0  0  0  0
   24.7110  -13.1289    4.1642 N   0  0  0  0  0  0  0  0  0  0  0  0
   24.0094  -14.3456    4.3697 C   0  0  0  0  0  0  0  0  0  0  0  0
   24.2797  -15.1688    5.3857 N   0  0  0  0  0  0  0  0  0  0  0  0
   23.6309  -16.3285    5.6041 C   0  0  0  0  0  0  0  0  0  0  0  0
   22.6378  -16.6941    4.7438 C   0  0  0  0  0  0  0  0  0  0  0  0
   22.3290  -15.8680    3.6797 C   0  0  0  0  0  0  0  0  0  0  0  0
   23.0148  -14.7360    3.5286 N   0  0  0  0  0  0  0  0  0  0  0  0
   25.9052  -12.8818    4.9336 C   0  0  0  0  0  0  0  0  0  0  0  0
   25.7296  -11.5011    5.5839 C   0  0  0  0  0  0  0  0  0  0  0  0
   26.7786   -8.5737    5.3715 C   0  0  0  0  0  0  0  0  0  0  0  0
   28.0167   -7.9778    5.4611 C   0  0  0  0  0  0  0  0  0  0  0  0
   28.3111   -7.0832    6.4862 C   0  0  0  0  0  0  0  0  0  0  0  0
   25.8429   -8.2451    6.3425 C   0  0  0  0  0  0  0  0  0  0  0  0
   26.1442   -7.3537    7.3595 C   0  0  0  0  0  0  0  0  0  0  0  0
   27.3810   -6.7576    7.4498 C   0  0  0  0  0  0  0  0  0  0  0  0
   27.7167   -5.8039    8.5306 C   0  0  0  0  0  0  0  0  0  0  0  0
   26.9156   -4.5354    8.4916 C   0  0  2  0  0  0  0  0  0  0  0  0
   27.8877   -3.3941    8.5901 C   0  0  0  0  0  0  0  0  0  0  0  0
   28.3291   -2.6314    7.7048 O   0  0  0  0  0  0  0  0  0  0  0  0
   26.2590   -4.4127    9.7542 O   0  0  0  0  0  0  0  0  0  0  0  0
   27.2100   -3.9926   10.7037 C   0  0  0  0  0  0  0  0  0  0  0  0
   27.2463   -4.1204   12.0797 C   0  0  0  0  0  0  0  0  0  0  0  0
   26.1680   -4.7892   12.7912 C   0  0  0  0  0  0  0  0  0  0  0  0
   25.3822   -5.5794   12.2255 O   0  0  0  0  0  0  0  0  0  0  0  0
   25.9974   -4.5401   14.1765 N   0  0  0  0  0  0  0  0  0  0  0  0
   28.2289   -3.3597   10.0168 C   0  0  0  0  0  0  0  0  0  0  0  0
   29.3207   -2.8345   10.7072 C   0  0  0  0  0  0  0  0  0  0  0  0
   29.3775   -2.9511   12.0832 C   0  0  0  0  0  0  0  0  0  0  0  0
   28.3373   -3.5912   12.7273 C   0  0  0  0  0  0  0  0  0  0  0  0
  1  2  2  0
  2  3  1  0
  2 15  1  0
  3  4  1  0
  3 14  1  0
  4  5  1  0
  5  6  1  0
  6  7  1  0
  6 13  1  0
  7  8  2  0
  7 12  1  0
  8  9  1  0
  9 10  2  0
 10 11  1  0
 11 12  2  0
 13 14  1  0
 15 16  2  0
 15 18  1  0
 16 17  1  0
 17 20  2  0
 18 19  2  0
 19 20  1  0
 20 21  1  0
 22 21  1  1
 22 23  1  0
 22 25  1  0
 23 24  2  0
 23 31  1  0
 25 26  1  0
 26 27  2  0
 26 31  1  0
 27 28  1  0
 27 34  1  0
 28 29  2  0
 28 30  1  0
 31 32  2  0
 32 33  1  0
 33 34  2  0
M  END
$$$$
