
     RDKit          3D

 34 38  0  0  0  0  0  0  0  0999 V2000
   23.6148  -10.4704   11.3772 O   0  0  0  0  0  0  0  0  0  0  0  0
   24.6903  -10.9118   10.8539 C   0  0  0  0  0  0  0  0  0  0  0  0
   25.0229  -12.2765   10.8658 N   0  0  0  0  0  0  0  0  0  0  0  0
   25.4795  -12.8958   12.0793 C   0  0  0  0  0  0  0  0  0  0  0  0
   24.7829  -14.2069   12.3122 C   0  0  0  0  0  0  0  0  0  0  0  0
   24.3896  -14.8907   11.1069 N   0  0  0  0  0  0  0  0  0  0  0  0
   24.4921  -16.3034   11.0135 C   0  0  0  0  0  0  0  0  0  0  0  0
   24.6070  -16.9403    9.8455 N   0  0  0  0  0  0  0  0  0  0  0  0
   24.7054  -18.2782    9.7276 C   0  0  0  0  0  0  0  0  0  0  0  0
   24.6878  -19.0374   10.8606 C   0  0  0  0  0  0  0  0  0  0  0  0
   24.5702  -18.4142   12.0885 C   0  0  0  0  0  0  0  0  0  0  0  0
   24.4774  -17.0858   12.1254 N   0  0  0  0  0  0  0  0  0  0  0  0
   23.8828  -14.1585    9.9727 C   0  0  0  0  0  0  0  0  0  0  0  0
   24.9091  -13.0564    9.6686 C   0  0  0  0  0  0  0  0  0  0  0  0
   25.5616   -9.9007   10.2363 C   0  0  0  0  0  0  0  0  0  0  0  0
   26.6148   -9.3175   10.9046 C   0  0  0  0  0  0  0  0  0  0  0  0
   27.4204   -8.3659   10.2852 C   0  0  0  0  0  0  0  0  0  0  0  0
   25.3400   -9.5004    8.9259 C   0  0  0  0  0  0  0  0  0  0  0  0
   26.1466   -8.5526    8.3171 C   0  0  0  0  0  0  0  0  0  0  0  0
   27.1994   -7.9693    8.9840 C   0  0  0  0  0  0  0  0  0  0  0  0
   28.0688   -6.9557    8.3463 C   0  0  0  0  0  0  0  0  0  0  0  0
   27.3190   -5.7978    7.7550 C   0  0  2  0  0  0  0  0  0  0  0  0
   28.3196   -4.7071    7.4972 C   0  0  0  0  0  0  0  0  0  0  0  0
   28.8588   -4.3422    6.4311 O   0  0  0  0  0  0  0  0  0  0  0  0
   26.5658   -5.2000    8.8112 O   0  0  0  0  0  0  0  0  0  0  0  0
   27.4499   -4.4494    9.6096 C   0  0  0  0  0  0  0  0  0  0  0  0
   27.3686   -4.0405   10.9276 C   0  0  0  0  0  0  0  0  0  0  0  0
   26.2126   -4.3843   11.7410 C   0  0  0  0  0  0  0  0  0  0  0  0
   25.8183   -3.6627   12.6821 O   0  0  0  0  0  0  0  0  0  0  0  0
   25.5033   -5.5795   11.4607 N   0  0  0  0  0  0  0  0  0  0  0  0
   28.5435   -4.1292    8.8273 C   0  0  0  0  0  0  0  0  0  0  0  0
   29.5929   -3.3810    9.3597 C   0  0  0  0  0  0  0  0  0  0  0  0
   29.5324   -2.9617   10.6752 C   0  0  0  0  0  0  0  0  0  0  0  0
   28.4209   -3.3049   11.4191 C   0  0  0  0  0  0  0  0  0  0  0  0
  1  2  2  0
  2  3  1  0
  2 15  1  0
  3  4  1  0
  3 14  1  0
  4  5  1  0
  5  6  1  0
  6  7  1  0
  6 13  1  0
  7  8  2  0
  7 12  1  0
  8  9  1  0
  9 10  2  0
 10 11  1  0
 11 12  2  0
 13 14  1  0
 15 16  2  0
 15 18  1  0
 16 17  1  0
 17 20  2  0
 18 19  2  0
 19 20  1  0
 20 21  1  0
 22 21  1  1
 22 23  1  0
 22 25  1  0
 23 24  2  0
 23 31  1  0
 25 26  1  0
 26 27  2  0
 26 31  1  0
 27 28  1  0
 27 34  1  0
 28 29  2  0
 28 30  1  0
 31 32  2  0
 32 33  1  0
 33 34  2  0
M  END
$$$$
