
     RDKit          3D

 34 38  0  0  0  0  0  0  0  0999 V2000
   20.7393   -9.9592    9.9733 O   0  0  0  0  0  0  0  0  0  0  0  0
   21.9377  -10.3088   10.2322 C   0  0  0  0  0  0  0  0  0  0  0  0
   22.2926  -11.6478   10.4657 N   0  0  0  0  0  0  0  0  0  0  0  0
   22.2141  -12.6096    9.4011 C   0  0  0  0  0  0  0  0  0  0  0  0
   23.4546  -13.4560    9.3451 C   0  0  0  0  0  0  0  0  0  0  0  0
   24.0956  -13.6524   10.6201 N   0  0  0  0  0  0  0  0  0  0  0  0
   24.6730  -14.9062   10.9511 C   0  0  0  0  0  0  0  0  0  0  0  0
   24.7175  -15.9267   10.0911 N   0  0  0  0  0  0  0  0  0  0  0  0
   25.2583  -17.1261   10.3784 C   0  0  0  0  0  0  0  0  0  0  0  0
   25.7948  -17.3216   11.6170 C   0  0  0  0  0  0  0  0  0  0  0  0
   25.7674  -16.2887   12.5348 C   0  0  0  0  0  0  0  0  0  0  0  0
   25.2152  -15.1302   12.1777 N   0  0  0  0  0  0  0  0  0  0  0  0
   24.1665  -12.5831   11.5849 C   0  0  0  0  0  0  0  0  0  0  0  0
   22.7332  -12.0603   11.7657 C   0  0  0  0  0  0  0  0  0  0  0  0
   22.9261   -9.2205   10.2706 C   0  0  0  0  0  0  0  0  0  0  0  0
   24.0206   -9.1793    9.4361 C   0  0  0  0  0  0  0  0  0  0  0  0
   24.9334   -8.1301    9.4994 C   0  0  0  0  0  0  0  0  0  0  0  0
   22.7742   -8.1763   11.1724 C   0  0  0  0  0  0  0  0  0  0  0  0
   23.6876   -7.1360   11.2287 C   0  0  0  0  0  0  0  0  0  0  0  0
   24.7814   -7.0938   10.3951 C   0  0  0  0  0  0  0  0  0  0  0  0
   25.7649   -5.9891   10.4445 C   0  0  0  0  0  0  0  0  0  0  0  0
   27.0417   -6.3437   11.1492 C   0  0  2  0  0  0  0  0  0  0  0  0
   27.3348   -5.2351   12.1200 C   0  0  0  0  0  0  0  0  0  0  0  0
   27.1740   -5.1830   13.3577 O   0  0  0  0  0  0  0  0  0  0  0  0
   28.1062   -6.1463   10.2174 O   0  0  0  0  0  0  0  0  0  0  0  0
   28.3424   -4.7626   10.1085 C   0  0  0  0  0  0  0  0  0  0  0  0
   28.9159   -4.0094    9.1011 C   0  0  0  0  0  0  0  0  0  0  0  0
   29.4011   -4.6438    7.8852 C   0  0  0  0  0  0  0  0  0  0  0  0
   30.1354   -4.0488    7.0676 O   0  0  0  0  0  0  0  0  0  0  0  0
   29.0315   -5.9851    7.6127 N   0  0  0  0  0  0  0  0  0  0  0  0
   27.8773   -4.1709   11.2679 C   0  0  0  0  0  0  0  0  0  0  0  0
   27.9800   -2.7912   11.4422 C   0  0  0  0  0  0  0  0  0  0  0  0
   28.5499   -2.0190   10.4478 C   0  0  0  0  0  0  0  0  0  0  0  0
   29.0007   -2.6528    9.3069 C   0  0  0  0  0  0  0  0  0  0  0  0
  1  2  2  0
  2  3  1  0
  2 15  1  0
  3  4  1  0
  3 14  1  0
  4  5  1  0
  5  6  1  0
  6  7  1  0
  6 13  1  0
  7  8  2  0
  7 12  1  0
  8  9  1  0
  9 10  2  0
 10 11  1  0
 11 12  2  0
 13 14  1  0
 15 16  2  0
 15 18  1  0
 16 17  1  0
 17 20  2  0
 18 19  2  0
 19 20  1  0
 20 21  1  0
 22 21  1  6
 22 23  1  0
 22 25  1  0
 23 24  2  0
 23 31  1  0
 25 26  1  0
 26 27  2  0
 26 31  1  0
 27 28  1  0
 27 34  1  0
 28 29  2  0
 28 30  1  0
 31 32  2  0
 32 33  1  0
 33 34  2  0
M  END
$$$$
