
     RDKit          3D

 34 38  0  0  0  0  0  0  0  0999 V2000
   27.0663  -11.6019   12.6580 O   0  0  0  0  0  0  0  0  0  0  0  0
   26.6909  -11.7818   11.4888 C   0  0  0  0  0  0  0  0  0  0  0  0
   26.2547  -13.0679   11.0814 N   0  0  0  0  0  0  0  0  0  0  0  0
   26.2217  -14.1881   12.0321 C   0  0  0  0  0  0  0  0  0  0  0  0
   24.7365  -14.5436   12.1897 C   0  0  0  0  0  0  0  0  0  0  0  0
   24.3138  -14.9320   10.8481 N   0  0  0  0  0  0  0  0  0  0  0  0
   23.6521  -16.1772   10.6944 C   0  0  0  0  0  0  0  0  0  0  0  0
   23.1204  -16.8235   11.7586 N   0  0  0  0  0  0  0  0  0  0  0  0
   22.4889  -18.0141   11.6651 C   0  0  0  0  0  0  0  0  0  0  0  0
   22.3777  -18.6048   10.4299 C   0  0  0  0  0  0  0  0  0  0  0  0
   22.9081  -17.9702    9.3377 C   0  0  0  0  0  0  0  0  0  0  0  0
   23.5234  -16.7890    9.4925 N   0  0  0  0  0  0  0  0  0  0  0  0
   24.5493  -14.0952    9.6999 C   0  0  0  0  0  0  0  0  0  0  0  0
   25.8406  -13.3550    9.7239 C   0  0  0  0  0  0  0  0  0  0  0  0
   26.6918  -10.6960   10.5406 C   0  0  0  0  0  0  0  0  0  0  0  0
   27.7678  -10.5403    9.6687 C   0  0  0  0  0  0  0  0  0  0  0  0
   27.8189   -9.5189    8.7536 C   0  0  0  0  0  0  0  0  0  0  0  0
   25.6755   -9.7693   10.4387 C   0  0  0  0  0  0  0  0  0  0  0  0
   25.7306   -8.7335    9.5086 C   0  0  0  0  0  0  0  0  0  0  0  0
   26.7890   -8.5802    8.6518 C   0  0  0  0  0  0  0  0  0  0  0  0
   26.9307   -7.4968    7.6646 C   0  0  0  0  0  0  0  0  0  0  0  0
   27.2872   -6.1676    8.1966 C   0  0  2  0  0  0  0  0  0  0  0  0
   28.7349   -5.9221    8.4206 C   0  0  0  0  0  0  0  0  0  0  0  0
   29.7569   -6.4982    8.0231 O   0  0  0  0  0  0  0  0  0  0  0  0
   26.7889   -5.8872    9.4918 O   0  0  0  0  0  0  0  0  0  0  0  0
   27.5089   -4.7683    9.9410 C   0  0  0  0  0  0  0  0  0  0  0  0
   27.2346   -3.7501   10.8463 C   0  0  0  0  0  0  0  0  0  0  0  0
   25.9909   -3.6856   11.5788 C   0  0  0  0  0  0  0  0  0  0  0  0
   25.7690   -2.6873   12.3445 O   0  0  0  0  0  0  0  0  0  0  0  0
   25.0012   -4.6722   11.4968 N   0  0  0  0  0  0  0  0  0  0  0  0
   28.7499   -4.7294    9.3047 C   0  0  0  0  0  0  0  0  0  0  0  0
   29.6564   -3.7306    9.5629 C   0  0  0  0  0  0  0  0  0  0  0  0
   29.3752   -2.7123   10.4712 C   0  0  0  0  0  0  0  0  0  0  0  0
   28.1661   -2.7465   11.0934 C   0  0  0  0  0  0  0  0  0  0  0  0
  1  2  2  0
  2  3  1  0
  2 15  1  0
  4  3  1  1
 14  3  1  1
  4  5  1  0
  5  6  1  6
  6  7  1  0
 13  6  1  1
  7  8  2  0
  7 12  1  0
  8  9  1  0
  9 10  2  0
 10 11  1  0
 11 12  2  0
 13 14  1  0
 15 16  2  0
 15 18  1  0
 16 17  1  0
 17 20  2  0
 18 19  2  0
 19 20  1  0
 21 20  1  1
 21 22  1  0
 22 23  1  0
 22 25  1  1
 23 24  2  0
 23 31  1  0
 25 26  1  0
 26 27  2  0
 26 31  1  0
 27 28  1  0
 27 34  1  0
 28 29  2  0
 28 30  1  0
 31 32  2  0
 32 33  1  0
 33 34  2  0
M  END
$$$$
