
     RDKit          3D

 34 38  0  0  0  0  0  0  0  0999 V2000
   27.7043  -12.4937   11.0425 O   0  0  0  0  0  0  0  0  0  0  0  0
   26.7369  -11.9475   10.4893 C   0  0  0  0  0  0  0  0  0  0  0  0
   25.4294  -12.4538   10.7006 N   0  0  0  0  0  0  0  0  0  0  0  0
   24.8621  -13.4715    9.8049 C   0  0  0  0  0  0  0  0  0  0  0  0
   24.6923  -14.7268   10.6723 C   0  0  0  0  0  0  0  0  0  0  0  0
   23.7624  -14.3186   11.7203 N   0  0  0  0  0  0  0  0  0  0  0  0
   22.6174  -15.1255   11.9438 C   0  0  0  0  0  0  0  0  0  0  0  0
   22.5243  -16.3696   11.4180 N   0  0  0  0  0  0  0  0  0  0  0  0
   21.4522  -17.1724   11.5949 C   0  0  0  0  0  0  0  0  0  0  0  0
   20.3991  -16.7084   12.3450 C   0  0  0  0  0  0  0  0  0  0  0  0
   20.4699  -15.4524   12.8874 C   0  0  0  0  0  0  0  0  0  0  0  0
   21.5607  -14.7013   12.6778 N   0  0  0  0  0  0  0  0  0  0  0  0
   23.9778  -13.1379   12.5164 C   0  0  0  0  0  0  0  0  0  0  0  0
   24.5822  -11.9935   11.7809 C   0  0  0  0  0  0  0  0  0  0  0  0
   26.9282  -10.8020    9.6354 C   0  0  0  0  0  0  0  0  0  0  0  0
   28.1854  -10.2070    9.5480 C   0  0  0  0  0  0  0  0  0  0  0  0
   28.4164   -9.1107    8.7554 C   0  0  0  0  0  0  0  0  0  0  0  0
   25.9223  -10.2330    8.8828 C   0  0  0  0  0  0  0  0  0  0  0  0
   26.1602   -9.1201    8.0792 C   0  0  0  0  0  0  0  0  0  0  0  0
   27.3963   -8.5348    7.9940 C   0  0  0  0  0  0  0  0  0  0  0  0
   27.7163   -7.3426    7.1910 C   0  0  0  0  0  0  0  0  0  0  0  0
   27.6513   -6.0448    7.8898 C   0  0  2  0  0  0  0  0  0  0  0  0
   28.9552   -5.3982    8.1866 C   0  0  0  0  0  0  0  0  0  0  0  0
   30.1017   -5.5804    7.7547 O   0  0  0  0  0  0  0  0  0  0  0  0
   27.1005   -6.0929    9.1932 O   0  0  0  0  0  0  0  0  0  0  0  0
   27.4453   -4.8723    9.7958 C   0  0  0  0  0  0  0  0  0  0  0  0
   26.8781   -4.1071   10.8080 C   0  0  0  0  0  0  0  0  0  0  0  0
   25.6802   -4.5172   11.5038 C   0  0  0  0  0  0  0  0  0  0  0  0
   25.1088   -3.6965   12.2989 O   0  0  0  0  0  0  0  0  0  0  0  0
   25.1031   -5.7838   11.3550 N   0  0  0  0  0  0  0  0  0  0  0  0
   28.6096   -4.3773    9.2077 C   0  0  0  0  0  0  0  0  0  0  0  0
   29.1674   -3.1893    9.6122 C   0  0  0  0  0  0  0  0  0  0  0  0
   28.5937   -2.4265   10.6271 C   0  0  0  0  0  0  0  0  0  0  0  0
   27.4582   -2.9055   11.2028 C   0  0  0  0  0  0  0  0  0  0  0  0
  1  2  2  0
  2  3  1  0
  2 15  1  0
  4  3  1  1
 14  3  1  1
  4  5  1  0
  5  6  1  6
  6  7  1  0
 13  6  1  1
  7  8  2  0
  7 12  1  0
  8  9  1  0
  9 10  2  0
 10 11  1  0
 11 12  2  0
 13 14  1  0
 15 16  2  0
 15 18  1  0
 16 17  1  0
 17 20  2  0
 18 19  2  0
 19 20  1  0
 21 20  1  1
 21 22  1  0
 22 23  1  0
 22 25  1  1
 23 24  2  0
 23 31  1  0
 25 26  1  0
 26 27  2  0
 26 31  1  0
 27 28  1  0
 27 34  1  0
 28 29  2  0
 28 30  1  0
 31 32  2  0
 32 33  1  0
 33 34  2  0
M  END
$$$$
