
     RDKit          3D

 34 38  0  0  0  0  0  0  0  0999 V2000
   28.6344  -12.9711    9.5088 O   0  0  0  0  0  0  0  0  0  0  0  0
   27.7079  -12.1703    9.7100 C   0  0  0  0  0  0  0  0  0  0  0  0
   26.6190  -12.5493   10.5352 N   0  0  0  0  0  0  0  0  0  0  0  0
   25.5602  -11.5879   10.8737 C   0  0  0  0  0  0  0  0  0  0  0  0
   24.2888  -12.1325   10.2072 C   0  0  0  0  0  0  0  0  0  0  0  0
   24.0847  -13.4363   10.8301 N   0  0  0  0  0  0  0  0  0  0  0  0
   22.8100  -13.7144   11.3866 C   0  0  0  0  0  0  0  0  0  0  0  0
   21.7101  -13.0298   10.9937 N   0  0  0  0  0  0  0  0  0  0  0  0
   20.4771  -13.2515   11.4994 C   0  0  0  0  0  0  0  0  0  0  0  0
   20.3249  -14.2194   12.4622 C   0  0  0  0  0  0  0  0  0  0  0  0
   21.4234  -14.9256   12.8765 C   0  0  0  0  0  0  0  0  0  0  0  0
   22.6222  -14.6612   12.3373 N   0  0  0  0  0  0  0  0  0  0  0  0
   25.1285  -14.4267   10.8907 C   0  0  0  0  0  0  0  0  0  0  0  0
   26.4961  -13.8771   11.0997 C   0  0  0  0  0  0  0  0  0  0  0  0
   27.7281  -10.8574    9.1151 C   0  0  0  0  0  0  0  0  0  0  0  0
   26.5756  -10.3516    8.5167 C   0  0  0  0  0  0  0  0  0  0  0  0
   26.5464   -9.1111    7.9305 C   0  0  0  0  0  0  0  0  0  0  0  0
   28.8435  -10.0467    9.0899 C   0  0  0  0  0  0  0  0  0  0  0  0
   28.8104   -8.7878    8.4939 C   0  0  0  0  0  0  0  0  0  0  0  0
   27.6772   -8.2910    7.9049 C   0  0  0  0  0  0  0  0  0  0  0  0
   27.5743   -6.9854    7.2317 C   0  0  0  0  0  0  0  0  0  0  0  0
   27.4888   -5.8011    8.1076 C   0  0  2  0  0  0  0  0  0  0  0  0
   28.7813   -5.1695    8.4776 C   0  0  0  0  0  0  0  0  0  0  0  0
   29.9252   -5.2594    8.0110 O   0  0  0  0  0  0  0  0  0  0  0  0
   26.9592   -6.0467    9.3974 O   0  0  0  0  0  0  0  0  0  0  0  0
   27.2839   -4.9148   10.1625 C   0  0  0  0  0  0  0  0  0  0  0  0
   26.7141   -4.3148   11.2791 C   0  0  0  0  0  0  0  0  0  0  0  0
   25.5370   -4.8496   11.9240 C   0  0  0  0  0  0  0  0  0  0  0  0
   24.9520   -4.1596   12.8261 O   0  0  0  0  0  0  0  0  0  0  0  0
   24.9946   -6.1019   11.6123 N   0  0  0  0  0  0  0  0  0  0  0  0
   28.4270   -4.3120    9.6367 C   0  0  0  0  0  0  0  0  0  0  0  0
   28.9624   -3.1789   10.1985 C   0  0  0  0  0  0  0  0  0  0  0  0
   28.3861   -2.5819   11.3176 C   0  0  0  0  0  0  0  0  0  0  0  0
   27.2712   -3.1664   11.8330 C   0  0  0  0  0  0  0  0  0  0  0  0
  1  2  2  0
  2  3  1  0
  2 15  1  0
  4  3  1  1
 14  3  1  1
  4  5  1  0
  5  6  1  6
  6  7  1  0
 13  6  1  1
  7  8  2  0
  7 12  1  0
  8  9  1  0
  9 10  2  0
 10 11  1  0
 11 12  2  0
 13 14  1  0
 15 16  2  0
 15 18  1  0
 16 17  1  0
 17 20  2  0
 18 19  2  0
 19 20  1  0
 21 20  1  1
 21 22  1  0
 22 23  1  0
 22 25  1  1
 23 24  2  0
 23 31  1  0
 25 26  1  0
 26 27  2  0
 26 31  1  0
 27 28  1  0
 27 34  1  0
 28 29  2  0
 28 30  1  0
 31 32  2  0
 32 33  1  0
 33 34  2  0
M  END
$$$$
