
     RDKit          3D

 24 26  0  0  0  0  0  0  0  0999 V2000
  -17.9784   16.2020   16.1772 O   0  0  0  0  0  0  0  0  0  0  0  0
  -18.3916   16.4534   14.8674 C   0  0  0  0  0  0  0  0  0  0  0  0
  -17.5854   16.1475   13.9575 O   0  0  0  0  0  0  0  0  0  0  0  0
  -19.6982   17.0439   14.5672 C   0  0  0  0  0  0  0  0  0  0  0  0
  -20.4920   17.4180   15.5047 N   0  0  0  0  0  0  0  0  0  0  0  0
  -20.0539   17.1862   13.1319 C   0  0  0  0  0  0  0  0  0  0  0  0
  -19.1018   18.0764   12.5838 O   0  0  0  0  0  0  0  0  0  0  0  0
  -21.3670   17.7812   12.9475 C   0  0  0  0  0  0  0  0  0  0  0  0
  -21.7982   17.9614   11.7801 O   0  0  0  0  0  0  0  0  0  0  0  0
  -22.1815   18.1675   14.0927 C   0  0  0  0  0  0  0  0  0  0  0  0
  -21.7616   17.9935   15.3386 C   0  0  0  0  0  0  0  0  0  0  0  0
  -22.6084   18.3952   16.4622 C   0  0  0  0  0  0  0  0  0  0  0  0
  -23.0526   17.4391   17.3463 C   0  0  0  0  0  0  0  0  0  0  0  0
  -22.6664   16.0216   17.1417 C   0  0  0  0  0  0  0  0  0  0  0  0
  -23.8682   17.7724   18.4448 C   0  0  0  0  0  0  0  0  0  0  0  0
  -22.9983   19.6965   16.7003 C   0  0  0  0  0  0  0  0  0  0  0  0
  -23.8117   20.0371   17.7937 C   0  0  0  0  0  0  0  0  0  0  0  0
  -24.2479   19.0726   18.6684 C   0  0  0  0  0  0  0  0  0  0  0  0
  -25.0971   19.3984   19.8175 C   0  0  0  0  0  0  0  0  0  0  0  0
  -26.1547   20.1939   19.8871 N   0  0  0  0  0  0  0  0  0  0  0  0
  -26.6136   20.1959   21.1158 O   0  0  0  0  0  0  0  0  0  0  0  0
  -25.8595   19.3995   21.8665 C   0  0  0  0  0  0  0  0  0  0  0  0
  -25.9926   19.1513   23.0916 O   0  0  0  0  0  0  0  0  0  0  0  0
  -24.9015   18.8953   21.0478 N   0  0  0  0  0  0  0  0  0  0  0  0
  1  2  1  0
  2  3  2  0
  2  4  1  0
  4  5  2  0
  4  6  1  0
  5 11  1  0
  6  7  1  0
  6  8  1  0
  8  9  2  0
  8 10  1  0
 10 11  2  0
 11 12  1  0
 12 13  2  0
 12 16  1  0
 14 13  1  6
 13 15  1  0
 15 18  2  0
 16 17  2  0
 17 18  1  0
 18 19  1  0
 19 20  2  0
 19 24  1  0
 20 21  1  0
 21 22  1  0
 22 23  2  0
 22 24  1  0
M  END
$$$$
