
     RDKit          3D

 24 26  0  0  0  0  0  0  0  0999 V2000
  -19.0020   15.3409   16.9417 O   0  0  0  0  0  0  0  0  0  0  0  0
  -18.8091   16.3830   16.0327 C   0  0  0  0  0  0  0  0  0  0  0  0
  -17.6209   16.6802   15.7654 O   0  0  0  0  0  0  0  0  0  0  0  0
  -19.9335   17.0951   15.4205 C   0  0  0  0  0  0  0  0  0  0  0  0
  -20.9480   17.4630   16.1166 N   0  0  0  0  0  0  0  0  0  0  0  0
  -19.8392   17.3672   13.9632 C   0  0  0  0  0  0  0  0  0  0  0  0
  -18.7201   18.2160   13.7998 O   0  0  0  0  0  0  0  0  0  0  0  0
  -21.0039   18.0760   13.4599 C   0  0  0  0  0  0  0  0  0  0  0  0
  -21.0588   18.3727   12.2393 O   0  0  0  0  0  0  0  0  0  0  0  0
  -22.0990   18.4429   14.3489 C   0  0  0  0  0  0  0  0  0  0  0  0
  -22.0778   18.1476   15.6417 C   0  0  0  0  0  0  0  0  0  0  0  0
  -23.1964   18.5340   16.5021 C   0  0  0  0  0  0  0  0  0  0  0  0
  -24.3865   17.8502   16.4070 C   0  0  0  0  0  0  0  0  0  0  0  0
  -24.5123   16.7377   15.4339 C   0  0  0  0  0  0  0  0  0  0  0  0
  -25.4933   18.1805   17.2126 C   0  0  0  0  0  0  0  0  0  0  0  0
  -23.1357   19.5590   17.4228 C   0  0  0  0  0  0  0  0  0  0  0  0
  -24.2353   19.8946   18.2300 C   0  0  0  0  0  0  0  0  0  0  0  0
  -25.4173   19.2037   18.1247 C   0  0  0  0  0  0  0  0  0  0  0  0
  -26.5807   19.5315   18.9535 C   0  0  0  0  0  0  0  0  0  0  0  0
  -27.8114   19.0415   18.9125 N   0  0  0  0  0  0  0  0  0  0  0  0
  -28.5374   19.6196   19.8393 O   0  0  0  0  0  0  0  0  0  0  0  0
  -27.7883   20.4968   20.4993 C   0  0  0  0  0  0  0  0  0  0  0  0
  -28.1381   21.2375   21.4528 O   0  0  0  0  0  0  0  0  0  0  0  0
  -26.5524   20.4421   19.9409 N   0  0  0  0  0  0  0  0  0  0  0  0
  1  2  1  0
  2  3  2  0
  2  4  1  0
  4  5  2  0
  4  6  1  0
  5 11  1  0
  6  7  1  0
  6  8  1  0
  8  9  2  0
  8 10  1  0
 10 11  2  0
 11 12  1  0
 12 13  2  0
 12 16  1  0
 14 13  1  6
 13 15  1  0
 15 18  2  0
 16 17  2  0
 17 18  1  0
 18 19  1  0
 19 20  2  0
 19 24  1  0
 20 21  1  0
 21 22  1  0
 22 23  2  0
 22 24  1  0
M  END
$$$$
