
     RDKit          3D

 24 26  0  0  0  0  0  0  0  0999 V2000
  -18.3893   16.3244   16.6516 O   0  0  0  0  0  0  0  0  0  0  0  0
  -18.5256   16.5405   15.2933 C   0  0  0  0  0  0  0  0  0  0  0  0
  -17.5695   16.3094   14.5460 O   0  0  0  0  0  0  0  0  0  0  0  0
  -19.8021   17.0449   14.7246 C   0  0  0  0  0  0  0  0  0  0  0  0
  -20.7965   17.2929   15.4728 N   0  0  0  0  0  0  0  0  0  0  0  0
  -19.8354   17.2335   13.2686 C   0  0  0  0  0  0  0  0  0  0  0  0
  -19.4297   16.0752   12.5914 O   0  0  0  0  0  0  0  0  0  0  0  0
  -21.1278   17.7284   12.8229 C   0  0  0  0  0  0  0  0  0  0  0  0
  -21.3900   17.9662   11.6034 O   0  0  0  0  0  0  0  0  0  0  0  0
  -22.2117   17.9828   13.7691 C   0  0  0  0  0  0  0  0  0  0  0  0
  -22.0656   17.7759   15.0595 C   0  0  0  0  0  0  0  0  0  0  0  0
  -23.1463   18.0259   16.0305 C   0  0  0  0  0  0  0  0  0  0  0  0
  -23.5590   16.9922   16.8687 C   0  0  0  0  0  0  0  0  0  0  0  0
  -22.9435   15.6657   16.8067 C   0  0  0  0  0  0  0  0  0  0  0  0
  -24.5817   17.2223   17.7894 C   0  0  0  0  0  0  0  0  0  0  0  0
  -23.7832   19.2322   16.1636 C   0  0  0  0  0  0  0  0  0  0  0  0
  -24.7932   19.4707   17.0684 C   0  0  0  0  0  0  0  0  0  0  0  0
  -25.1947   18.4480   17.8908 C   0  0  0  0  0  0  0  0  0  0  0  0
  -26.2698   18.7065   18.8519 C   0  0  0  0  0  0  0  0  0  0  0  0
  -26.5200   17.9972   19.9809 N   0  0  0  0  0  0  0  0  0  0  0  0
  -27.5525   18.5233   20.5770 O   0  0  0  0  0  0  0  0  0  0  0  0
  -27.9830   19.5325   19.8961 C   0  0  0  0  0  0  0  0  0  0  0  0
  -28.9767   20.2413   20.2316 O   0  0  0  0  0  0  0  0  0  0  0  0
  -27.1962   19.6684   18.8102 N   0  0  0  0  0  0  0  0  0  0  0  0
  1  2  1  0
  2  3  2  0
  2  4  1  0
  4  5  2  0
  4  6  1  0
  5 11  1  0
  6  7  1  0
  6  8  1  0
  8  9  2  0
  8 10  1  0
 10 11  2  0
 11 12  1  0
 12 13  2  0
 12 16  1  0
 13 14  1  0
 13 15  1  0
 15 18  2  0
 16 17  2  0
 17 18  1  0
 18 19  1  0
 19 20  2  0
 19 24  1  0
 20 21  1  0
 21 22  1  0
 22 23  2  0
 22 24  1  0
M  END
$$$$
