
     RDKit          3D

 24 26  0  0  0  0  0  0  0  0999 V2000
  -22.4315   19.0625   13.7967 O   0  0  0  0  0  0  0  0  0  0  0  0
  -21.2712   18.4869   13.2753 C   0  0  0  0  0  0  0  0  0  0  0  0
  -21.0535   18.6730   12.0548 O   0  0  0  0  0  0  0  0  0  0  0  0
  -20.3528   17.7054   14.1071 C   0  0  0  0  0  0  0  0  0  0  0  0
  -20.6652   17.3636   15.3048 N   0  0  0  0  0  0  0  0  0  0  0  0
  -19.0510   17.3319   13.4969 C   0  0  0  0  0  0  0  0  0  0  0  0
  -19.3639   16.5013   12.3961 O   0  0  0  0  0  0  0  0  0  0  0  0
  -18.2193   16.5605   14.4053 C   0  0  0  0  0  0  0  0  0  0  0  0
  -17.0861   16.1758   14.0194 O   0  0  0  0  0  0  0  0  0  0  0  0
  -18.6822   16.2316   15.7476 C   0  0  0  0  0  0  0  0  0  0  0  0
  -19.8705   16.6192   16.1909 C   0  0  0  0  0  0  0  0  0  0  0  0
  -20.3000   16.2681   17.5449 C   0  0  0  0  0  0  0  0  0  0  0  0
  -20.3840   17.2536   18.5014 C   0  0  0  0  0  0  0  0  0  0  0  0
  -20.0359   18.6499   18.1418 C   0  0  0  0  0  0  0  0  0  0  0  0
  -20.7931   16.9698   19.8186 C   0  0  0  0  0  0  0  0  0  0  0  0
  -20.6348   14.9882   17.9343 C   0  0  0  0  0  0  0  0  0  0  0  0
  -21.0437   14.6971   19.2463 C   0  0  0  0  0  0  0  0  0  0  0  0
  -21.1231   15.6903   20.1910 C   0  0  0  0  0  0  0  0  0  0  0  0
  -21.5465   15.4162   21.5671 C   0  0  0  0  0  0  0  0  0  0  0  0
  -21.5739   14.2685   22.2292 N   0  0  0  0  0  0  0  0  0  0  0  0
  -22.0258   14.4804   23.4421 O   0  0  0  0  0  0  0  0  0  0  0  0
  -22.3001   15.7726   23.5881 C   0  0  0  0  0  0  0  0  0  0  0  0
  -22.7501   16.3485   24.6109 O   0  0  0  0  0  0  0  0  0  0  0  0
  -21.9979   16.3646   22.4048 N   0  0  0  0  0  0  0  0  0  0  0  0
  1  2  1  0
  2  3  2  0
  2  4  1  0
  4  5  2  0
  4  6  1  0
  5 11  1  0
  6  7  1  0
  6  8  1  0
  8  9  2  0
  8 10  1  0
 10 11  2  0
 11 12  1  0
 12 13  2  0
 12 16  1  0
 14 13  1  6
 13 15  1  0
 15 18  2  0
 16 17  2  0
 17 18  1  0
 18 19  1  0
 19 20  2  0
 19 24  1  0
 20 21  1  0
 21 22  1  0
 22 23  2  0
 22 24  1  0
M  END
$$$$
