
     RDKit          3D

 24 26  0  0  0  0  0  0  0  0999 V2000
  -21.5562   20.2108   12.3773 O   0  0  0  0  0  0  0  0  0  0  0  0
  -20.6990   19.1253   12.5680 C   0  0  0  0  0  0  0  0  0  0  0  0
  -19.7374   19.0242   11.7701 O   0  0  0  0  0  0  0  0  0  0  0  0
  -20.9083   18.1525   13.6431 C   0  0  0  0  0  0  0  0  0  0  0  0
  -21.8956   18.2606   14.4571 N   0  0  0  0  0  0  0  0  0  0  0  0
  -19.9258   17.0427   13.7416 C   0  0  0  0  0  0  0  0  0  0  0  0
  -20.0488   16.3093   12.5389 O   0  0  0  0  0  0  0  0  0  0  0  0
  -20.2262   16.1383   14.8389 C   0  0  0  0  0  0  0  0  0  0  0  0
  -19.4748   15.1504   15.0403 O   0  0  0  0  0  0  0  0  0  0  0  0
  -21.3800   16.3637   15.7004 C   0  0  0  0  0  0  0  0  0  0  0  0
  -22.1955   17.3938   15.5199 C   0  0  0  0  0  0  0  0  0  0  0  0
  -23.3443   17.5856   16.4056 C   0  0  0  0  0  0  0  0  0  0  0  0
  -23.1300   17.8532   17.7381 C   0  0  0  0  0  0  0  0  0  0  0  0
  -21.7404   17.9399   18.2498 C   0  0  0  0  0  0  0  0  0  0  0  0
  -24.2000   18.0474   18.6327 C   0  0  0  0  0  0  0  0  0  0  0  0
  -24.6558   17.5158   15.9847 C   0  0  0  0  0  0  0  0  0  0  0  0
  -25.7285   17.7082   16.8708 C   0  0  0  0  0  0  0  0  0  0  0  0
  -25.5003   17.9748   18.1983 C   0  0  0  0  0  0  0  0  0  0  0  0
  -26.5994   18.1800   19.1457 C   0  0  0  0  0  0  0  0  0  0  0  0
  -26.5572   18.4872   20.4342 N   0  0  0  0  0  0  0  0  0  0  0  0
  -27.7810   18.5751   20.8976 O   0  0  0  0  0  0  0  0  0  0  0  0
  -28.6406   18.3258   19.9151 C   0  0  0  0  0  0  0  0  0  0  0  0
  -29.8960   18.3185   19.9802 O   0  0  0  0  0  0  0  0  0  0  0  0
  -27.8957   18.0762   18.8083 N   0  0  0  0  0  0  0  0  0  0  0  0
  1  2  1  0
  2  3  2  0
  2  4  1  0
  4  5  2  0
  4  6  1  0
  5 11  1  0
  6  7  1  0
  6  8  1  0
  8  9  2  0
  8 10  1  0
 10 11  2  0
 11 12  1  0
 12 13  2  0
 12 16  1  0
 14 13  1  6
 13 15  1  0
 15 18  2  0
 16 17  2  0
 17 18  1  0
 18 19  1  0
 19 20  2  0
 19 24  1  0
 20 21  1  0
 21 22  1  0
 22 23  2  0
 22 24  1  0
M  END
$$$$
