
     RDKit          3D

 24 26  0  0  0  0  0  0  0  0999 V2000
  -18.9333   15.9344   16.7618 O   0  0  0  0  0  0  0  0  0  0  0  0
  -18.9046   16.3711   15.4508 C   0  0  0  0  0  0  0  0  0  0  0  0
  -17.9231   16.1088   14.7482 O   0  0  0  0  0  0  0  0  0  0  0  0
  -20.0348   17.1483   14.8799 C   0  0  0  0  0  0  0  0  0  0  0  0
  -21.0883   17.3590   15.5551 N   0  0  0  0  0  0  0  0  0  0  0  0
  -19.8550   17.6461   13.5101 C   0  0  0  0  0  0  0  0  0  0  0  0
  -19.4861   16.6160   12.6338 O   0  0  0  0  0  0  0  0  0  0  0  0
  -21.0181   18.3898   13.0543 C   0  0  0  0  0  0  0  0  0  0  0  0
  -21.0902   18.9148   11.9003 O   0  0  0  0  0  0  0  0  0  0  0  0
  -22.1855   18.5762   13.9132 C   0  0  0  0  0  0  0  0  0  0  0  0
  -22.2341   18.0813   15.1305 C   0  0  0  0  0  0  0  0  0  0  0  0
  -23.4020   18.2577   16.0126 C   0  0  0  0  0  0  0  0  0  0  0  0
  -23.2894   19.0784   17.1329 C   0  0  0  0  0  0  0  0  0  0  0  0
  -22.0388   19.7688   17.4523 C   0  0  0  0  0  0  0  0  0  0  0  0
  -24.3909   19.2491   17.9720 C   0  0  0  0  0  0  0  0  0  0  0  0
  -24.6137   17.6545   15.7975 C   0  0  0  0  0  0  0  0  0  0  0  0
  -25.7073   17.8156   16.6184 C   0  0  0  0  0  0  0  0  0  0  0  0
  -25.5892   18.6254   17.7201 C   0  0  0  0  0  0  0  0  0  0  0  0
  -26.7555   18.7937   18.5907 C   0  0  0  0  0  0  0  0  0  0  0  0
  -26.7291   19.1074   19.9102 N   0  0  0  0  0  0  0  0  0  0  0  0
  -27.9566   19.1699   20.3429 O   0  0  0  0  0  0  0  0  0  0  0  0
  -28.7742   18.9142   19.3767 C   0  0  0  0  0  0  0  0  0  0  0  0
  -30.0341   18.9022   19.4992 O   0  0  0  0  0  0  0  0  0  0  0  0
  -28.0466   18.6751   18.2677 N   0  0  0  0  0  0  0  0  0  0  0  0
  1  2  1  0
  2  3  2  0
  2  4  1  0
  4  5  2  0
  4  6  1  0
  5 11  1  0
  6  7  1  0
  6  8  1  0
  8  9  2  0
  8 10  1  0
 10 11  2  0
 11 12  1  0
 12 13  2  0
 12 16  1  0
 13 14  1  0
 13 15  1  0
 15 18  2  0
 16 17  2  0
 17 18  1  0
 18 19  1  0
 19 20  2  0
 19 24  1  0
 20 21  1  0
 21 22  1  0
 22 23  2  0
 22 24  1  0
M  END
$$$$
