
     RDKit          3D

 24 26  0  0  0  0  0  0  0  0999 V2000
  -22.6681   18.9634   13.5826 O   0  0  0  0  0  0  0  0  0  0  0  0
  -21.4587   18.4614   13.0981 C   0  0  0  0  0  0  0  0  0  0  0  0
  -21.2568   18.5792   11.8665 O   0  0  0  0  0  0  0  0  0  0  0  0
  -20.4738   17.8292   13.9792 C   0  0  0  0  0  0  0  0  0  0  0  0
  -20.7048   17.6714   15.2325 N   0  0  0  0  0  0  0  0  0  0  0  0
  -19.2034   17.3836   13.3514 C   0  0  0  0  0  0  0  0  0  0  0  0
  -19.5637   16.3897   12.4123 O   0  0  0  0  0  0  0  0  0  0  0  0
  -18.3004   16.7720   14.3120 C   0  0  0  0  0  0  0  0  0  0  0  0
  -17.1844   16.3476   13.9179 O   0  0  0  0  0  0  0  0  0  0  0  0
  -18.6732   16.6471   15.7155 C   0  0  0  0  0  0  0  0  0  0  0  0
  -19.8408   17.0824   16.1693 C   0  0  0  0  0  0  0  0  0  0  0  0
  -20.1789   16.9380   17.5855 C   0  0  0  0  0  0  0  0  0  0  0  0
  -20.7555   15.7683   18.0243 C   0  0  0  0  0  0  0  0  0  0  0  0
  -21.0246   14.6794   17.0536 C   0  0  0  0  0  0  0  0  0  0  0  0
  -21.0989   15.5773   19.3765 C   0  0  0  0  0  0  0  0  0  0  0  0
  -19.9519   17.9164   18.5306 C   0  0  0  0  0  0  0  0  0  0  0  0
  -20.2917   17.7336   19.8813 C   0  0  0  0  0  0  0  0  0  0  0  0
  -20.8667   16.5610   20.3056 C   0  0  0  0  0  0  0  0  0  0  0  0
  -21.2315   16.3422   21.7080 C   0  0  0  0  0  0  0  0  0  0  0  0
  -21.3678   15.2067   22.3776 N   0  0  0  0  0  0  0  0  0  0  0  0
  -21.7070   15.4736   23.6161 O   0  0  0  0  0  0  0  0  0  0  0  0
  -21.7968   16.7905   23.7718 C   0  0  0  0  0  0  0  0  0  0  0  0
  -22.0981   17.4185   24.8182 O   0  0  0  0  0  0  0  0  0  0  0  0
  -21.4967   17.3401   22.5676 N   0  0  0  0  0  0  0  0  0  0  0  0
  1  2  1  0
  2  3  2  0
  2  4  1  0
  4  5  2  0
  4  6  1  0
  5 11  1  0
  6  7  1  0
  6  8  1  0
  8  9  2  0
  8 10  1  0
 10 11  2  0
 11 12  1  0
 12 13  2  0
 12 16  1  0
 14 13  1  6
 13 15  1  0
 15 18  2  0
 16 17  2  0
 17 18  1  0
 18 19  1  0
 19 20  2  0
 19 24  1  0
 20 21  1  0
 21 22  1  0
 22 23  2  0
 22 24  1  0
M  END
$$$$
