
     RDKit          3D

 24 26  0  0  0  0  0  0  0  0999 V2000
  -18.5417   16.6811   16.8519 O   0  0  0  0  0  0  0  0  0  0  0  0
  -18.7088   16.7768   15.4689 C   0  0  0  0  0  0  0  0  0  0  0  0
  -17.7479   16.3934   14.7610 O   0  0  0  0  0  0  0  0  0  0  0  0
  -19.9409   17.2975   14.8717 C   0  0  0  0  0  0  0  0  0  0  0  0
  -20.9368   17.6526   15.6005 N   0  0  0  0  0  0  0  0  0  0  0  0
  -19.9776   17.3923   13.3897 C   0  0  0  0  0  0  0  0  0  0  0  0
  -18.9666   18.3155   13.0360 O   0  0  0  0  0  0  0  0  0  0  0  0
  -21.2418   17.9196   12.9038 C   0  0  0  0  0  0  0  0  0  0  0  0
  -21.4126   18.0544   11.6653 O   0  0  0  0  0  0  0  0  0  0  0  0
  -22.3040   18.2904   13.8303 C   0  0  0  0  0  0  0  0  0  0  0  0
  -22.1618   18.1629   15.1427 C   0  0  0  0  0  0  0  0  0  0  0  0
  -23.2514   18.5471   16.0406 C   0  0  0  0  0  0  0  0  0  0  0  0
  -24.2403   17.6348   16.3283 C   0  0  0  0  0  0  0  0  0  0  0  0
  -24.1833   16.2824   15.7216 C   0  0  0  0  0  0  0  0  0  0  0  0
  -25.3100   17.9530   17.1871 C   0  0  0  0  0  0  0  0  0  0  0  0
  -23.3547   19.7889   16.6315 C   0  0  0  0  0  0  0  0  0  0  0  0
  -24.4186   20.1140   17.4892 C   0  0  0  0  0  0  0  0  0  0  0  0
  -25.3989   19.1937   17.7679 C   0  0  0  0  0  0  0  0  0  0  0  0
  -26.5203   19.5046   18.6587 C   0  0  0  0  0  0  0  0  0  0  0  0
  -27.2735   18.6901   19.3838 N   0  0  0  0  0  0  0  0  0  0  0  0
  -28.1667   19.3946   20.0366 O   0  0  0  0  0  0  0  0  0  0  0  0
  -28.0080   20.6816   19.7456 C   0  0  0  0  0  0  0  0  0  0  0  0
  -28.6776   21.6526   20.1802 O   0  0  0  0  0  0  0  0  0  0  0  0
  -26.9686   20.7524   18.8755 N   0  0  0  0  0  0  0  0  0  0  0  0
  1  2  1  0
  2  3  2  0
  2  4  1  0
  4  5  2  0
  4  6  1  0
  5 11  1  0
  6  7  1  0
  6  8  1  0
  8  9  2  0
  8 10  1  0
 10 11  2  0
 11 12  1  0
 12 13  2  0
 12 16  1  0
 14 13  1  6
 13 15  1  0
 15 18  2  0
 16 17  2  0
 17 18  1  0
 18 19  1  0
 19 20  2  0
 19 24  1  0
 20 21  1  0
 21 22  1  0
 22 23  2  0
 22 24  1  0
M  END
$$$$
