
     RDKit          3D

 24 26  0  0  0  0  0  0  0  0999 V2000
  -18.5330   17.0757   17.2913 O   0  0  0  0  0  0  0  0  0  0  0  0
  -18.5267   17.1129   15.9097 C   0  0  0  0  0  0  0  0  0  0  0  0
  -17.4588   16.9661   15.3064 O   0  0  0  0  0  0  0  0  0  0  0  0
  -19.7830   17.3263   15.1458 C   0  0  0  0  0  0  0  0  0  0  0  0
  -20.8706   17.5960   15.7413 N   0  0  0  0  0  0  0  0  0  0  0  0
  -19.6840   17.2068   13.6855 C   0  0  0  0  0  0  0  0  0  0  0  0
  -19.0900   15.9943   13.3087 O   0  0  0  0  0  0  0  0  0  0  0  0
  -20.9678   17.4342   13.0421 C   0  0  0  0  0  0  0  0  0  0  0  0
  -21.1251   17.3823   11.7831 O   0  0  0  0  0  0  0  0  0  0  0  0
  -22.1653   17.7394   13.8218 C   0  0  0  0  0  0  0  0  0  0  0  0
  -22.1335   17.8213   15.1338 C   0  0  0  0  0  0  0  0  0  0  0  0
  -23.3299   18.1277   15.9388 C   0  0  0  0  0  0  0  0  0  0  0  0
  -24.1315   19.2095   15.5799 C   0  0  0  0  0  0  0  0  0  0  0  0
  -23.8123   20.0466   14.4224 C   0  0  0  0  0  0  0  0  0  0  0  0
  -25.2648   19.5050   16.3380 C   0  0  0  0  0  0  0  0  0  0  0  0
  -23.7110   17.4036   17.0383 C   0  0  0  0  0  0  0  0  0  0  0  0
  -24.8270   17.6858   17.7936 C   0  0  0  0  0  0  0  0  0  0  0  0
  -25.6119   18.7527   17.4344 C   0  0  0  0  0  0  0  0  0  0  0  0
  -26.7984   19.0492   18.2412 C   0  0  0  0  0  0  0  0  0  0  0  0
  -27.9423   19.6277   17.7973 N   0  0  0  0  0  0  0  0  0  0  0  0
  -28.7683   19.7284   18.8001 O   0  0  0  0  0  0  0  0  0  0  0  0
  -28.2218   19.2473   19.8666 C   0  0  0  0  0  0  0  0  0  0  0  0
  -28.7884   19.2102   20.9980 O   0  0  0  0  0  0  0  0  0  0  0  0
  -26.9868   18.8151   19.5430 N   0  0  0  0  0  0  0  0  0  0  0  0
  1  2  1  0
  2  3  2  0
  2  4  1  0
  4  5  2  0
  4  6  1  0
  5 11  1  0
  6  7  1  0
  6  8  1  0
  8  9  2  0
  8 10  1  0
 10 11  2  0
 11 12  1  0
 12 13  2  0
 12 16  1  0
 13 14  1  0
 13 15  1  0
 15 18  2  0
 16 17  2  0
 17 18  1  0
 18 19  1  0
 19 20  2  0
 19 24  1  0
 20 21  1  0
 21 22  1  0
 22 23  2  0
 22 24  1  0
M  END
$$$$
