
     RDKit          3D

 24 26  0  0  0  0  0  0  0  0999 V2000
  -17.4819   16.3058   14.4821 O   0  0  0  0  0  0  0  0  0  0  0  0
  -18.6187   16.5854   15.2432 C   0  0  0  0  0  0  0  0  0  0  0  0
  -18.5526   16.3203   16.4666 O   0  0  0  0  0  0  0  0  0  0  0  0
  -19.8280   17.1588   14.6474 C   0  0  0  0  0  0  0  0  0  0  0  0
  -20.8416   17.4747   15.3697 N   0  0  0  0  0  0  0  0  0  0  0  0
  -19.8201   17.3541   13.1749 C   0  0  0  0  0  0  0  0  0  0  0  0
  -18.7908   18.2879   12.9139 O   0  0  0  0  0  0  0  0  0  0  0  0
  -21.0646   17.9269   12.6897 C   0  0  0  0  0  0  0  0  0  0  0  0
  -21.1976   18.1470   11.4589 O   0  0  0  0  0  0  0  0  0  0  0  0
  -22.1503   18.2457   13.6083 C   0  0  0  0  0  0  0  0  0  0  0  0
  -22.0480   18.0282   14.9125 C   0  0  0  0  0  0  0  0  0  0  0  0
  -23.1600   18.3628   15.8027 C   0  0  0  0  0  0  0  0  0  0  0  0
  -23.5991   17.4283   16.7122 C   0  0  0  0  0  0  0  0  0  0  0  0
  -22.9387   16.1014   16.7705 C   0  0  0  0  0  0  0  0  0  0  0  0
  -24.6642   17.6997   17.5926 C   0  0  0  0  0  0  0  0  0  0  0  0
  -23.8105   19.5788   15.7918 C   0  0  0  0  0  0  0  0  0  0  0  0
  -24.8736   19.8572   16.6667 C   0  0  0  0  0  0  0  0  0  0  0  0
  -25.3017   18.9153   17.5695 C   0  0  0  0  0  0  0  0  0  0  0  0
  -26.4080   19.1777   18.4942 C   0  0  0  0  0  0  0  0  0  0  0  0
  -26.6655   18.6383   19.6771 N   0  0  0  0  0  0  0  0  0  0  0  0
  -27.7633   19.1666   20.1629 O   0  0  0  0  0  0  0  0  0  0  0  0
  -28.2382   20.0602   19.3012 C   0  0  0  0  0  0  0  0  0  0  0  0
  -29.2713   20.7659   19.4222 O   0  0  0  0  0  0  0  0  0  0  0  0
  -27.3832   20.0681   18.2471 N   0  0  0  0  0  0  0  0  0  0  0  0
  1  2  1  0
  2  3  2  0
  2  4  1  0
  4  5  2  0
  4  6  1  0
  5 11  1  0
  6  7  1  0
  6  8  1  0
  8  9  2  0
  8 10  1  0
 10 11  2  0
 11 12  1  0
 12 13  2  0
 12 16  1  0
 14 13  1  6
 13 15  1  0
 15 18  2  0
 16 17  2  0
 17 18  1  0
 18 19  1  0
 19 20  2  0
 19 24  1  0
 20 21  1  0
 21 22  1  0
 22 23  2  0
 22 24  1  0
M  END
$$$$
