
     RDKit          3D

 24 26  0  0  0  0  0  0  0  0999 V2000
  -18.8966   15.8156   16.6309 O   0  0  0  0  0  0  0  0  0  0  0  0
  -18.8924   16.2092   15.3061 C   0  0  0  0  0  0  0  0  0  0  0  0
  -17.9197   15.9323   14.5968 O   0  0  0  0  0  0  0  0  0  0  0  0
  -20.0383   16.9578   14.7282 C   0  0  0  0  0  0  0  0  0  0  0  0
  -21.0904   17.1653   15.4066 N   0  0  0  0  0  0  0  0  0  0  0  0
  -19.8754   17.4317   13.3478 C   0  0  0  0  0  0  0  0  0  0  0  0
  -19.4965   16.3907   12.4889 O   0  0  0  0  0  0  0  0  0  0  0  0
  -21.0529   18.1485   12.8860 C   0  0  0  0  0  0  0  0  0  0  0  0
  -21.1408   18.6500   11.7227 O   0  0  0  0  0  0  0  0  0  0  0  0
  -22.2173   18.3336   13.7492 C   0  0  0  0  0  0  0  0  0  0  0  0
  -22.2500   17.8616   14.9761 C   0  0  0  0  0  0  0  0  0  0  0  0
  -23.4146   18.0371   15.8628 C   0  0  0  0  0  0  0  0  0  0  0  0
  -23.2548   18.7194   17.0671 C   0  0  0  0  0  0  0  0  0  0  0  0
  -21.9580   19.2655   17.4702 C   0  0  0  0  0  0  0  0  0  0  0  0
  -24.3530   18.8884   17.9109 C   0  0  0  0  0  0  0  0  0  0  0  0
  -24.6675   17.5628   15.5733 C   0  0  0  0  0  0  0  0  0  0  0  0
  -25.7581   17.7236   16.3980 C   0  0  0  0  0  0  0  0  0  0  0  0
  -25.5936   18.3967   17.5827 C   0  0  0  0  0  0  0  0  0  0  0  0
  -26.7570   18.5653   18.4570 C   0  0  0  0  0  0  0  0  0  0  0  0
  -26.7325   18.9785   19.7489 N   0  0  0  0  0  0  0  0  0  0  0  0
  -27.9563   19.0054   20.1955 O   0  0  0  0  0  0  0  0  0  0  0  0
  -28.7697   18.6326   19.2644 C   0  0  0  0  0  0  0  0  0  0  0  0
  -30.0253   18.5600   19.4079 O   0  0  0  0  0  0  0  0  0  0  0  0
  -28.0430   18.3512   18.1647 N   0  0  0  0  0  0  0  0  0  0  0  0
  1  2  1  0
  2  3  2  0
  2  4  1  0
  4  5  2  0
  4  6  1  0
  5 11  1  0
  6  7  1  0
  6  8  1  0
  8  9  2  0
  8 10  1  0
 10 11  2  0
 11 12  1  0
 12 13  2  0
 12 16  1  0
 13 14  1  0
 13 15  1  0
 15 18  2  0
 16 17  2  0
 17 18  1  0
 18 19  1  0
 19 20  2  0
 19 24  1  0
 20 21  1  0
 21 22  1  0
 22 23  2  0
 22 24  1  0
M  END
$$$$
