
     RDKit          3D

 24 26  0  0  0  0  0  0  0  0999 V2000
  -19.1458   15.6585   17.1542 O   0  0  0  0  0  0  0  0  0  0  0  0
  -18.9828   16.0464   15.8377 C   0  0  0  0  0  0  0  0  0  0  0  0
  -17.9508   15.7288   15.2378 O   0  0  0  0  0  0  0  0  0  0  0  0
  -20.0292   16.8369   15.1394 C   0  0  0  0  0  0  0  0  0  0  0  0
  -21.1406   17.0858   15.6989 N   0  0  0  0  0  0  0  0  0  0  0  0
  -19.6982   17.3013   13.7861 C   0  0  0  0  0  0  0  0  0  0  0  0
  -19.2675   16.2448   12.9717 O   0  0  0  0  0  0  0  0  0  0  0  0
  -20.7899   18.0615   13.1996 C   0  0  0  0  0  0  0  0  0  0  0  0
  -20.7307   18.5634   12.0347 O   0  0  0  0  0  0  0  0  0  0  0  0
  -22.0339   18.2926   13.9306 C   0  0  0  0  0  0  0  0  0  0  0  0
  -22.2187   17.8248   15.1456 C   0  0  0  0  0  0  0  0  0  0  0  0
  -23.4658   18.0464   15.8998 C   0  0  0  0  0  0  0  0  0  0  0  0
  -23.3986   18.6032   17.1753 C   0  0  0  0  0  0  0  0  0  0  0  0
  -22.1186   18.9728   17.7816 C   0  0  0  0  0  0  0  0  0  0  0  0
  -24.5752   18.8150   17.8944 C   0  0  0  0  0  0  0  0  0  0  0  0
  -24.7102   17.7336   15.4179 C   0  0  0  0  0  0  0  0  0  0  0  0
  -25.8778   17.9381   16.1184 C   0  0  0  0  0  0  0  0  0  0  0  0
  -25.8041   18.4869   17.3741 C   0  0  0  0  0  0  0  0  0  0  0  0
  -27.0491   18.7026   18.1156 C   0  0  0  0  0  0  0  0  0  0  0  0
  -28.2085   18.0187   17.9467 N   0  0  0  0  0  0  0  0  0  0  0  0
  -29.0901   18.4909   18.7821 O   0  0  0  0  0  0  0  0  0  0  0  0
  -28.5649   19.4413   19.4808 C   0  0  0  0  0  0  0  0  0  0  0  0
  -29.1846   20.0890   20.3747 O   0  0  0  0  0  0  0  0  0  0  0  0
  -27.2864   19.5937   19.0825 N   0  0  0  0  0  0  0  0  0  0  0  0
  1  2  1  0
  2  3  2  0
  2  4  1  0
  4  5  2  0
  4  6  1  0
  5 11  1  0
  6  7  1  0
  6  8  1  0
  8  9  2  0
  8 10  1  0
 10 11  2  0
 11 12  1  0
 12 13  2  0
 12 16  1  0
 13 14  1  0
 13 15  1  0
 15 18  2  0
 16 17  2  0
 17 18  1  0
 18 19  1  0
 19 20  2  0
 19 24  1  0
 20 21  1  0
 21 22  1  0
 22 23  2  0
 22 24  1  0
M  END
$$$$
