
     RDKit          3D

 24 26  0  0  0  0  0  0  0  0999 V2000
  -18.5797   16.3868   16.4854 O   0  0  0  0  0  0  0  0  0  0  0  0
  -18.7102   16.6581   15.1220 C   0  0  0  0  0  0  0  0  0  0  0  0
  -17.7079   16.4245   14.4062 O   0  0  0  0  0  0  0  0  0  0  0  0
  -19.9516   17.1883   14.5530 C   0  0  0  0  0  0  0  0  0  0  0  0
  -20.9562   17.4782   15.2986 N   0  0  0  0  0  0  0  0  0  0  0  0
  -19.9871   17.3716   13.0793 C   0  0  0  0  0  0  0  0  0  0  0  0
  -18.9947   18.3352   12.7854 O   0  0  0  0  0  0  0  0  0  0  0  0
  -21.2609   17.9011   12.6218 C   0  0  0  0  0  0  0  0  0  0  0  0
  -21.4318   18.1068   11.3931 O   0  0  0  0  0  0  0  0  0  0  0  0
  -22.3326   18.1932   13.5654 C   0  0  0  0  0  0  0  0  0  0  0  0
  -22.1906   17.9897   14.8681 C   0  0  0  0  0  0  0  0  0  0  0  0
  -23.2899   18.2964   15.7838 C   0  0  0  0  0  0  0  0  0  0  0  0
  -23.6516   17.3710   16.7356 C   0  0  0  0  0  0  0  0  0  0  0  0
  -22.9222   16.0817   16.8129 C   0  0  0  0  0  0  0  0  0  0  0  0
  -24.7010   17.6168   17.6419 C   0  0  0  0  0  0  0  0  0  0  0  0
  -24.0021   19.4771   15.7569 C   0  0  0  0  0  0  0  0  0  0  0  0
  -25.0501   19.7298   16.6575 C   0  0  0  0  0  0  0  0  0  0  0  0
  -25.4007   18.7973   17.6025 C   0  0  0  0  0  0  0  0  0  0  0  0
  -26.4894   19.0334   18.5547 C   0  0  0  0  0  0  0  0  0  0  0  0
  -26.6873   18.5120   19.7570 N   0  0  0  0  0  0  0  0  0  0  0  0
  -27.7925   19.0035   20.2643 O   0  0  0  0  0  0  0  0  0  0  0  0
  -28.3320   19.8544   19.3976 C   0  0  0  0  0  0  0  0  0  0  0  0
  -29.3914   20.5171   19.5343 O   0  0  0  0  0  0  0  0  0  0  0  0
  -27.5101   19.8741   18.3176 N   0  0  0  0  0  0  0  0  0  0  0  0
  1  2  1  0
  2  3  2  0
  2  4  1  0
  4  5  2  0
  4  6  1  0
  5 11  1  0
  6  7  1  0
  6  8  1  0
  8  9  2  0
  8 10  1  0
 10 11  2  0
 11 12  1  0
 12 13  2  0
 12 16  1  0
 14 13  1  6
 13 15  1  0
 15 18  2  0
 16 17  2  0
 17 18  1  0
 18 19  1  0
 19 20  2  0
 19 24  1  0
 20 21  1  0
 21 22  1  0
 22 23  2  0
 22 24  1  0
M  END
$$$$
