
     RDKit          3D

 24 26  0  0  0  0  0  0  0  0999 V2000
  -18.5415   15.7392   16.6581 O   0  0  0  0  0  0  0  0  0  0  0  0
  -18.8145   16.0075   15.3154 C   0  0  0  0  0  0  0  0  0  0  0  0
  -17.9494   15.6434   14.4844 O   0  0  0  0  0  0  0  0  0  0  0  0
  -20.0464   16.6794   14.8946 C   0  0  0  0  0  0  0  0  0  0  0  0
  -20.9091   17.0888   15.7532 N   0  0  0  0  0  0  0  0  0  0  0  0
  -20.2438   16.8609   13.4335 C   0  0  0  0  0  0  0  0  0  0  0  0
  -19.1897   17.6990   13.0020 O   0  0  0  0  0  0  0  0  0  0  0  0
  -21.4937   17.5363   13.1274 C   0  0  0  0  0  0  0  0  0  0  0  0
  -21.7912   17.7569   11.9258 O   0  0  0  0  0  0  0  0  0  0  0  0
  -22.3976   17.9566   14.1907 C   0  0  0  0  0  0  0  0  0  0  0  0
  -22.1190   17.7419   15.4694 C   0  0  0  0  0  0  0  0  0  0  0  0
  -23.0517   18.1798   16.5083 C   0  0  0  0  0  0  0  0  0  0  0  0
  -24.2688   17.5497   16.6296 C   0  0  0  0  0  0  0  0  0  0  0  0
  -24.6114   16.4418   15.7047 C   0  0  0  0  0  0  0  0  0  0  0  0
  -25.2020   17.9310   17.6129 C   0  0  0  0  0  0  0  0  0  0  0  0
  -22.7861   19.2031   17.3939 C   0  0  0  0  0  0  0  0  0  0  0  0
  -23.7117   19.5894   18.3774 C   0  0  0  0  0  0  0  0  0  0  0  0
  -24.9228   18.9518   18.4874 C   0  0  0  0  0  0  0  0  0  0  0  0
  -25.9077   19.3332   19.5034 C   0  0  0  0  0  0  0  0  0  0  0  0
  -27.2268   19.4207   19.4097 N   0  0  0  0  0  0  0  0  0  0  0  0
  -27.7177   19.7996   20.5653 O   0  0  0  0  0  0  0  0  0  0  0  0
  -26.7229   19.9650   21.4311 C   0  0  0  0  0  0  0  0  0  0  0  0
  -26.8063   20.3221   22.6334 O   0  0  0  0  0  0  0  0  0  0  0  0
  -25.5794   19.6707   20.7617 N   0  0  0  0  0  0  0  0  0  0  0  0
  1  2  1  0
  2  3  2  0
  2  4  1  0
  4  5  2  0
  4  6  1  0
  5 11  1  0
  6  7  1  0
  6  8  1  0
  8  9  2  0
  8 10  1  0
 10 11  2  0
 11 12  1  0
 12 13  2  0
 12 16  1  0
 14 13  1  6
 13 15  1  0
 15 18  2  0
 16 17  2  0
 17 18  1  0
 18 19  1  0
 19 20  2  0
 19 24  1  0
 20 21  1  0
 21 22  1  0
 22 23  2  0
 22 24  1  0
M  END
$$$$
