
     RDKit          3D

 24 26  0  0  0  0  0  0  0  0999 V2000
  -18.6349   16.4775   16.6852 O   0  0  0  0  0  0  0  0  0  0  0  0
  -18.6853   16.6205   15.3115 C   0  0  0  0  0  0  0  0  0  0  0  0
  -17.6882   16.3406   14.6382 O   0  0  0  0  0  0  0  0  0  0  0  0
  -19.9184   17.1045   14.6388 C   0  0  0  0  0  0  0  0  0  0  0  0
  -20.9629   17.3739   15.3070 N   0  0  0  0  0  0  0  0  0  0  0  0
  -19.8490   17.2474   13.1788 C   0  0  0  0  0  0  0  0  0  0  0  0
  -19.3970   16.0691   12.5686 O   0  0  0  0  0  0  0  0  0  0  0  0
  -21.1066   17.7256   12.6280 C   0  0  0  0  0  0  0  0  0  0  0  0
  -21.2822   17.9247   11.3862 O   0  0  0  0  0  0  0  0  0  0  0  0
  -22.2545   18.0075   13.4870 C   0  0  0  0  0  0  0  0  0  0  0  0
  -22.1996   17.8413   14.7904 C   0  0  0  0  0  0  0  0  0  0  0  0
  -23.3460   18.1195   15.6745 C   0  0  0  0  0  0  0  0  0  0  0  0
  -23.9038   17.0772   16.4120 C   0  0  0  0  0  0  0  0  0  0  0  0
  -23.3768   15.7142   16.3286 C   0  0  0  0  0  0  0  0  0  0  0  0
  -24.9892   17.3339   17.2502 C   0  0  0  0  0  0  0  0  0  0  0  0
  -23.9089   19.3607   15.8198 C   0  0  0  0  0  0  0  0  0  0  0  0
  -24.9797   19.6256   16.6437 C   0  0  0  0  0  0  0  0  0  0  0  0
  -25.5242   18.5943   17.3672 C   0  0  0  0  0  0  0  0  0  0  0  0
  -26.6635   18.8810   18.2425 C   0  0  0  0  0  0  0  0  0  0  0  0
  -27.4205   17.9638   18.8951 N   0  0  0  0  0  0  0  0  0  0  0  0
  -28.3370   18.5945   19.5736 O   0  0  0  0  0  0  0  0  0  0  0  0
  -28.2140   19.8675   19.3957 C   0  0  0  0  0  0  0  0  0  0  0  0
  -28.9667   20.7335   19.9307 O   0  0  0  0  0  0  0  0  0  0  0  0
  -27.1724   20.0735   18.5655 N   0  0  0  0  0  0  0  0  0  0  0  0
  1  2  1  0
  2  3  2  0
  2  4  1  0
  4  5  2  0
  4  6  1  0
  5 11  1  0
  6  7  1  0
  6  8  1  0
  8  9  2  0
  8 10  1  0
 10 11  2  0
 11 12  1  0
 12 13  2  0
 12 16  1  0
 13 14  1  0
 13 15  1  0
 15 18  2  0
 16 17  2  0
 17 18  1  0
 18 19  1  0
 19 20  2  0
 19 24  1  0
 20 21  1  0
 21 22  1  0
 22 23  2  0
 22 24  1  0
M  END
$$$$
