
     RDKit          3D

 24 26  0  0  0  0  0  0  0  0999 V2000
  -22.2131   19.5547   12.3278 O   0  0  0  0  0  0  0  0  0  0  0  0
  -21.1114   18.7240   12.5415 C   0  0  0  0  0  0  0  0  0  0  0  0
  -20.3045   18.6080   11.5892 O   0  0  0  0  0  0  0  0  0  0  0  0
  -20.9049   18.0225   13.8109 C   0  0  0  0  0  0  0  0  0  0  0  0
  -21.7026   18.1908   14.8030 N   0  0  0  0  0  0  0  0  0  0  0  0
  -19.7330   17.1130   13.8894 C   0  0  0  0  0  0  0  0  0  0  0  0
  -19.9648   16.0997   12.9308 O   0  0  0  0  0  0  0  0  0  0  0  0
  -19.6222   16.4702   15.1882 C   0  0  0  0  0  0  0  0  0  0  0  0
  -18.6735   15.6716   15.3963 O   0  0  0  0  0  0  0  0  0  0  0  0
  -20.5918   16.7402   16.2424 C   0  0  0  0  0  0  0  0  0  0  0  0
  -21.6056   17.5758   16.0613 C   0  0  0  0  0  0  0  0  0  0  0  0
  -22.5589   17.8200   17.1441 C   0  0  0  0  0  0  0  0  0  0  0  0
  -23.8876   17.5183   16.9523 C   0  0  0  0  0  0  0  0  0  0  0  0
  -24.3266   16.9542   15.6526 C   0  0  0  0  0  0  0  0  0  0  0  0
  -24.8456   17.7325   17.9619 C   0  0  0  0  0  0  0  0  0  0  0  0
  -22.2069   18.3424   18.3709 C   0  0  0  0  0  0  0  0  0  0  0  0
  -23.1566   18.5590   19.3830 C   0  0  0  0  0  0  0  0  0  0  0  0
  -24.4795   18.2533   19.1781 C   0  0  0  0  0  0  0  0  0  0  0  0
  -25.4922   18.4684   20.2154 C   0  0  0  0  0  0  0  0  0  0  0  0
  -25.3644   18.4611   21.5345 N   0  0  0  0  0  0  0  0  0  0  0  0
  -26.5316   18.7002   22.0828 O   0  0  0  0  0  0  0  0  0  0  0  0
  -27.4392   18.8671   21.1264 C   0  0  0  0  0  0  0  0  0  0  0  0
  -28.6640   19.1120   21.2681 O   0  0  0  0  0  0  0  0  0  0  0  0
  -26.7841   18.7210   19.9467 N   0  0  0  0  0  0  0  0  0  0  0  0
  1  2  1  0
  2  3  2  0
  2  4  1  0
  4  5  2  0
  4  6  1  0
  5 11  1  0
  6  7  1  0
  6  8  1  0
  8  9  2  0
  8 10  1  0
 10 11  2  0
 11 12  1  0
 12 13  2  0
 12 16  1  0
 14 13  1  6
 13 15  1  0
 15 18  2  0
 16 17  2  0
 17 18  1  0
 18 19  1  0
 19 20  2  0
 19 24  1  0
 20 21  1  0
 21 22  1  0
 22 23  2  0
 22 24  1  0
M  END
$$$$
