
     RDKit          3D

 24 26  0  0  0  0  0  0  0  0999 V2000
  -17.4945   15.9937   15.9320 O   0  0  0  0  0  0  0  0  0  0  0  0
  -18.1169   16.1837   14.6967 C   0  0  0  0  0  0  0  0  0  0  0  0
  -17.5915   15.6138   13.7114 O   0  0  0  0  0  0  0  0  0  0  0  0
  -19.3214   17.0053   14.5543 C   0  0  0  0  0  0  0  0  0  0  0  0
  -19.8486   17.5961   15.5652 N   0  0  0  0  0  0  0  0  0  0  0  0
  -19.8965   17.1182   13.1894 C   0  0  0  0  0  0  0  0  0  0  0  0
  -18.9084   17.7567   12.4048 O   0  0  0  0  0  0  0  0  0  0  0  0
  -21.0855   17.9534   13.1612 C   0  0  0  0  0  0  0  0  0  0  0  0
  -21.6781   18.1371   12.0675 O   0  0  0  0  0  0  0  0  0  0  0  0
  -21.5931   18.5747   14.3781 C   0  0  0  0  0  0  0  0  0  0  0  0
  -20.9961   18.4048   15.5500 C   0  0  0  0  0  0  0  0  0  0  0  0
  -21.5357   19.0462   16.7494 C   0  0  0  0  0  0  0  0  0  0  0  0
  -22.6055   18.4721   17.3967 C   0  0  0  0  0  0  0  0  0  0  0  0
  -23.1910   17.2171   16.8652 C   0  0  0  0  0  0  0  0  0  0  0  0
  -23.1618   19.0476   18.5553 C   0  0  0  0  0  0  0  0  0  0  0  0
  -21.0319   20.2122   17.2866 C   0  0  0  0  0  0  0  0  0  0  0  0
  -21.5812   20.7925   18.4419 C   0  0  0  0  0  0  0  0  0  0  0  0
  -22.6490   20.2088   19.0780 C   0  0  0  0  0  0  0  0  0  0  0  0
  -23.2426   20.7913   20.2847 C   0  0  0  0  0  0  0  0  0  0  0  0
  -23.8676   20.1957   21.2902 N   0  0  0  0  0  0  0  0  0  0  0  0
  -24.2394   21.1001   22.1642 O   0  0  0  0  0  0  0  0  0  0  0  0
  -23.8610   22.3014   21.7397 C   0  0  0  0  0  0  0  0  0  0  0  0
  -24.0418   23.4066   22.3105 O   0  0  0  0  0  0  0  0  0  0  0  0
  -23.2314   22.1077   20.5529 N   0  0  0  0  0  0  0  0  0  0  0  0
  1  2  1  0
  2  3  2  0
  2  4  1  0
  4  5  2  0
  4  6  1  0
  5 11  1  0
  6  7  1  0
  6  8  1  0
  8  9  2  0
  8 10  1  0
 10 11  2  0
 11 12  1  0
 12 13  2  0
 12 16  1  0
 14 13  1  6
 13 15  1  0
 15 18  2  0
 16 17  2  0
 17 18  1  0
 18 19  1  0
 19 20  2  0
 19 24  1  0
 20 21  1  0
 21 22  1  0
 22 23  2  0
 22 24  1  0
M  END
$$$$
