
     RDKit          3D

 24 26  0  0  0  0  0  0  0  0999 V2000
  -18.5319   16.1600   16.6063 O   0  0  0  0  0  0  0  0  0  0  0  0
  -18.6267   16.4081   15.2500 C   0  0  0  0  0  0  0  0  0  0  0  0
  -17.6531   16.1800   14.5248 O   0  0  0  0  0  0  0  0  0  0  0  0
  -19.8796   16.9431   14.6573 C   0  0  0  0  0  0  0  0  0  0  0  0
  -20.9132   17.1241   15.3708 N   0  0  0  0  0  0  0  0  0  0  0  0
  -19.8427   17.2424   13.2200 C   0  0  0  0  0  0  0  0  0  0  0  0
  -19.3889   16.1430   12.4782 O   0  0  0  0  0  0  0  0  0  0  0  0
  -21.1175   17.7583   12.7483 C   0  0  0  0  0  0  0  0  0  0  0  0
  -21.3216   18.0864   11.5387 O   0  0  0  0  0  0  0  0  0  0  0  0
  -22.2505   17.9297   13.6549 C   0  0  0  0  0  0  0  0  0  0  0  0
  -22.1662   17.6259   14.9316 C   0  0  0  0  0  0  0  0  0  0  0  0
  -23.2972   17.7910   15.8627 C   0  0  0  0  0  0  0  0  0  0  0  0
  -23.1955   17.2756   17.1532 C   0  0  0  0  0  0  0  0  0  0  0  0
  -21.9918   16.5754   17.6041 C   0  0  0  0  0  0  0  0  0  0  0  0
  -24.2626   17.4282   18.0390 C   0  0  0  0  0  0  0  0  0  0  0  0
  -24.4640   18.4304   15.5339 C   0  0  0  0  0  0  0  0  0  0  0  0
  -25.5232   18.5869   16.3995 C   0  0  0  0  0  0  0  0  0  0  0  0
  -25.4162   18.0767   17.6691 C   0  0  0  0  0  0  0  0  0  0  0  0
  -26.5459   18.2456   18.5865 C   0  0  0  0  0  0  0  0  0  0  0  0
  -26.6214   17.7742   19.8563 N   0  0  0  0  0  0  0  0  0  0  0  0
  -27.7739   18.1208   20.3560 O   0  0  0  0  0  0  0  0  0  0  0  0
  -28.4467   18.7897   19.4800 C   0  0  0  0  0  0  0  0  0  0  0  0
  -29.6053   19.2577   19.6830 O   0  0  0  0  0  0  0  0  0  0  0  0
  -27.6992   18.8819   18.3623 N   0  0  0  0  0  0  0  0  0  0  0  0
  1  2  1  0
  2  3  2  0
  2  4  1  0
  4  5  2  0
  4  6  1  0
  5 11  1  0
  6  7  1  0
  6  8  1  0
  8  9  2  0
  8 10  1  0
 10 11  2  0
 11 12  1  0
 12 13  2  0
 12 16  1  0
 13 14  1  0
 13 15  1  0
 15 18  2  0
 16 17  2  0
 17 18  1  0
 18 19  1  0
 19 20  2  0
 19 24  1  0
 20 21  1  0
 21 22  1  0
 22 23  2  0
 22 24  1  0
M  END
$$$$
