
     RDKit          3D

 24 26  0  0  0  0  0  0  0  0999 V2000
  -22.0695   19.8214   12.7154 O   0  0  0  0  0  0  0  0  0  0  0  0
  -21.1633   18.7779   12.7295 C   0  0  0  0  0  0  0  0  0  0  0  0
  -20.4523   18.5822   11.7385 O   0  0  0  0  0  0  0  0  0  0  0  0
  -21.0353   17.8936   13.9164 C   0  0  0  0  0  0  0  0  0  0  0  0
  -21.7579   18.0726   14.9440 N   0  0  0  0  0  0  0  0  0  0  0  0
  -20.0370   16.8206   13.8229 C   0  0  0  0  0  0  0  0  0  0  0  0
  -18.7798   17.3196   13.4549 O   0  0  0  0  0  0  0  0  0  0  0  0
  -19.9971   16.0201   15.0359 C   0  0  0  0  0  0  0  0  0  0  0  0
  -19.2096   15.0351   15.1845 O   0  0  0  0  0  0  0  0  0  0  0  0
  -20.8750   16.3103   16.1673 C   0  0  0  0  0  0  0  0  0  0  0  0
  -21.7356   17.3042   16.1373 C   0  0  0  0  0  0  0  0  0  0  0  0
  -22.6297   17.6139   17.2677 C   0  0  0  0  0  0  0  0  0  0  0  0
  -23.9887   17.3268   17.1574 C   0  0  0  0  0  0  0  0  0  0  0  0
  -24.5470   16.7248   15.9457 C   0  0  0  0  0  0  0  0  0  0  0  0
  -24.8402   17.6179   18.2236 C   0  0  0  0  0  0  0  0  0  0  0  0
  -22.2019   18.1769   18.4418 C   0  0  0  0  0  0  0  0  0  0  0  0
  -23.0328   18.4685   19.5002 C   0  0  0  0  0  0  0  0  0  0  0  0
  -24.3702   18.1831   19.3847 C   0  0  0  0  0  0  0  0  0  0  0  0
  -25.2504   18.4952   20.5135 C   0  0  0  0  0  0  0  0  0  0  0  0
  -26.3819   17.8281   20.8528 N   0  0  0  0  0  0  0  0  0  0  0  0
  -26.8925   18.3949   21.9092 O   0  0  0  0  0  0  0  0  0  0  0  0
  -26.1542   19.3905   22.2711 C   0  0  0  0  0  0  0  0  0  0  0  0
  -26.4019   20.1307   23.2678 O   0  0  0  0  0  0  0  0  0  0  0  0
  -25.1185   19.4747   21.4127 N   0  0  0  0  0  0  0  0  0  0  0  0
  1  2  1  0
  2  3  2  0
  2  4  1  0
  4  5  2  0
  4  6  1  0
  5 11  1  0
  6  7  1  0
  6  8  1  0
  8  9  2  0
  8 10  1  0
 10 11  2  0
 11 12  1  0
 12 13  2  0
 12 16  1  0
 13 14  1  0
 13 15  1  0
 15 18  2  0
 16 17  2  0
 17 18  1  0
 18 19  1  0
 19 20  2  0
 19 24  1  0
 20 21  1  0
 21 22  1  0
 22 23  2  0
 22 24  1  0
M  END
$$$$
