
     RDKit          3D

 24 26  0  0  0  0  0  0  0  0999 V2000
  -22.9088   18.6564   13.6198 O   0  0  0  0  0  0  0  0  0  0  0  0
  -21.6480   18.2548   13.1739 C   0  0  0  0  0  0  0  0  0  0  0  0
  -21.3726   18.5023   11.9763 O   0  0  0  0  0  0  0  0  0  0  0  0
  -20.6935   17.5790   14.0561 C   0  0  0  0  0  0  0  0  0  0  0  0
  -20.9836   17.3223   15.2804 N   0  0  0  0  0  0  0  0  0  0  0  0
  -19.3821   17.2092   13.4644 C   0  0  0  0  0  0  0  0  0  0  0  0
  -19.6693   16.2814   12.4366 O   0  0  0  0  0  0  0  0  0  0  0  0
  -18.5139   16.5462   14.4229 C   0  0  0  0  0  0  0  0  0  0  0  0
  -17.3690   16.1765   14.0575 O   0  0  0  0  0  0  0  0  0  0  0  0
  -18.9539   16.3079   15.7919 C   0  0  0  0  0  0  0  0  0  0  0  0
  -20.1536   16.6829   16.2148 C   0  0  0  0  0  0  0  0  0  0  0  0
  -20.5592   16.4250   17.5968 C   0  0  0  0  0  0  0  0  0  0  0  0
  -21.0880   15.1980   17.9256 C   0  0  0  0  0  0  0  0  0  0  0  0
  -21.2380   14.1634   16.8733 C   0  0  0  0  0  0  0  0  0  0  0  0
  -21.4927   14.8977   19.2405 C   0  0  0  0  0  0  0  0  0  0  0  0
  -20.4431   17.3489   18.6141 C   0  0  0  0  0  0  0  0  0  0  0  0
  -20.8445   17.0571   19.9282 C   0  0  0  0  0  0  0  0  0  0  0  0
  -21.3707   15.8283   20.2425 C   0  0  0  0  0  0  0  0  0  0  0  0
  -21.7978   15.4956   21.6043 C   0  0  0  0  0  0  0  0  0  0  0  0
  -22.4984   14.4583   22.0398 N   0  0  0  0  0  0  0  0  0  0  0  0
  -22.6539   14.5567   23.3384 O   0  0  0  0  0  0  0  0  0  0  0  0
  -22.0553   15.6624   23.7689 C   0  0  0  0  0  0  0  0  0  0  0  0
  -21.9928   16.0885   24.9499 O   0  0  0  0  0  0  0  0  0  0  0  0
  -21.5143   16.2563   22.6749 N   0  0  0  0  0  0  0  0  0  0  0  0
  1  2  1  0
  2  3  2  0
  2  4  1  0
  4  5  2  0
  4  6  1  0
  5 11  1  0
  6  7  1  0
  6  8  1  0
  8  9  2  0
  8 10  1  0
 10 11  2  0
 11 12  1  0
 12 13  2  0
 12 16  1  0
 14 13  1  6
 13 15  1  0
 15 18  2  0
 16 17  2  0
 17 18  1  0
 18 19  1  0
 19 20  2  0
 19 24  1  0
 20 21  1  0
 21 22  1  0
 22 23  2  0
 22 24  1  0
M  END
$$$$
