
     RDKit          3D

 24 26  0  0  0  0  0  0  0  0999 V2000
  -22.4793   19.7236   13.5173 O   0  0  0  0  0  0  0  0  0  0  0  0
  -21.5351   18.8251   13.0574 C   0  0  0  0  0  0  0  0  0  0  0  0
  -21.4518   18.6042   11.8449 O   0  0  0  0  0  0  0  0  0  0  0  0
  -20.6240   18.1256   13.9997 C   0  0  0  0  0  0  0  0  0  0  0  0
  -20.7182   18.3050   15.2523 N   0  0  0  0  0  0  0  0  0  0  0  0
  -19.6276   17.2308   13.3969 C   0  0  0  0  0  0  0  0  0  0  0  0
  -18.8855   17.8841   12.4033 O   0  0  0  0  0  0  0  0  0  0  0  0
  -18.7930   16.6017   14.4075 C   0  0  0  0  0  0  0  0  0  0  0  0
  -17.8617   15.7874   14.1211 O   0  0  0  0  0  0  0  0  0  0  0  0
  -18.9838   16.8768   15.8298 C   0  0  0  0  0  0  0  0  0  0  0  0
  -19.9150   17.7020   16.2553 C   0  0  0  0  0  0  0  0  0  0  0  0
  -20.1238   17.9934   17.6853 C   0  0  0  0  0  0  0  0  0  0  0  0
  -20.7130   17.0260   18.4968 C   0  0  0  0  0  0  0  0  0  0  0  0
  -21.1282   15.7286   17.9613 C   0  0  0  0  0  0  0  0  0  0  0  0
  -20.9137   17.2958   19.8508 C   0  0  0  0  0  0  0  0  0  0  0  0
  -19.7691   19.1769   18.2785 C   0  0  0  0  0  0  0  0  0  0  0  0
  -19.9623   19.4541   19.6133 C   0  0  0  0  0  0  0  0  0  0  0  0
  -20.5432   18.4967   20.4066 C   0  0  0  0  0  0  0  0  0  0  0  0
  -20.7467   18.7962   21.8263 C   0  0  0  0  0  0  0  0  0  0  0  0
  -21.1450   19.9857   22.3429 N   0  0  0  0  0  0  0  0  0  0  0  0
  -21.2137   19.8690   23.6389 O   0  0  0  0  0  0  0  0  0  0  0  0
  -20.8821   18.6709   23.9881 C   0  0  0  0  0  0  0  0  0  0  0  0
  -20.8559   18.2639   25.1865 O   0  0  0  0  0  0  0  0  0  0  0  0
  -20.5849   17.9785   22.8705 N   0  0  0  0  0  0  0  0  0  0  0  0
  1  2  1  0
  2  3  2  0
  2  4  1  0
  4  5  2  0
  4  6  1  0
  5 11  1  0
  6  7  1  0
  6  8  1  0
  8  9  2  0
  8 10  1  0
 10 11  2  0
 11 12  1  0
 12 13  2  0
 12 16  1  0
 13 14  1  0
 13 15  1  0
 15 18  2  0
 16 17  2  0
 17 18  1  0
 18 19  1  0
 19 20  2  0
 19 24  1  0
 20 21  1  0
 21 22  1  0
 22 23  2  0
 22 24  1  0
M  END
$$$$
