
     RDKit          3D

 24 26  0  0  0  0  0  0  0  0999 V2000
  -19.1199   15.1798   16.2849 O   0  0  0  0  0  0  0  0  0  0  0  0
  -19.1394   15.7519   15.0115 C   0  0  0  0  0  0  0  0  0  0  0  0
  -18.1945   15.4473   14.2461 O   0  0  0  0  0  0  0  0  0  0  0  0
  -20.2066   16.6615   14.5872 C   0  0  0  0  0  0  0  0  0  0  0  0
  -21.2075   16.9168   15.3501 N   0  0  0  0  0  0  0  0  0  0  0  0
  -20.0710   17.2684   13.2381 C   0  0  0  0  0  0  0  0  0  0  0  0
  -18.8983   18.0571   13.2848 O   0  0  0  0  0  0  0  0  0  0  0  0
  -21.1803   18.1512   12.9185 C   0  0  0  0  0  0  0  0  0  0  0  0
  -21.1962   18.7349   11.8049 O   0  0  0  0  0  0  0  0  0  0  0  0
  -22.2651   18.3646   13.8684 C   0  0  0  0  0  0  0  0  0  0  0  0
  -22.2840   17.7672   15.0523 C   0  0  0  0  0  0  0  0  0  0  0  0
  -23.3904   18.0078   15.9791 C   0  0  0  0  0  0  0  0  0  0  0  0
  -23.1145   18.3588   17.2805 C   0  0  0  0  0  0  0  0  0  0  0  0
  -21.7027   18.4841   17.7180 C   0  0  0  0  0  0  0  0  0  0  0  0
  -24.1418   18.6028   18.2122 C   0  0  0  0  0  0  0  0  0  0  0  0
  -24.7200   17.9054   15.6273 C   0  0  0  0  0  0  0  0  0  0  0  0
  -25.7505   18.1471   16.5508 C   0  0  0  0  0  0  0  0  0  0  0  0
  -25.4609   18.4968   17.8467 C   0  0  0  0  0  0  0  0  0  0  0  0
  -26.5149   18.7549   18.8316 C   0  0  0  0  0  0  0  0  0  0  0  0
  -26.4255   18.8971   20.1462 N   0  0  0  0  0  0  0  0  0  0  0  0
  -27.6209   19.1167   20.6392 O   0  0  0  0  0  0  0  0  0  0  0  0
  -28.5088   19.1207   19.6503 C   0  0  0  0  0  0  0  0  0  0  0  0
  -29.7501   19.2988   19.7373 O   0  0  0  0  0  0  0  0  0  0  0  0
  -27.8116   18.8924   18.5083 N   0  0  0  0  0  0  0  0  0  0  0  0
  1  2  1  0
  2  3  2  0
  2  4  1  0
  4  5  2  0
  4  6  1  0
  5 11  1  0
  6  7  1  0
  6  8  1  0
  8  9  2  0
  8 10  1  0
 10 11  2  0
 11 12  1  0
 12 13  2  0
 12 16  1  0
 14 13  1  6
 13 15  1  0
 15 18  2  0
 16 17  2  0
 17 18  1  0
 18 19  1  0
 19 20  2  0
 19 24  1  0
 20 21  1  0
 21 22  1  0
 22 23  2  0
 22 24  1  0
M  END
$$$$
