
     RDKit          3D

 24 26  0  0  0  0  0  0  0  0999 V2000
  -22.3705   19.6892   13.9218 O   0  0  0  0  0  0  0  0  0  0  0  0
  -21.5127   18.7107   13.4563 C   0  0  0  0  0  0  0  0  0  0  0  0
  -21.4273   18.5111   12.2402 O   0  0  0  0  0  0  0  0  0  0  0  0
  -20.6964   17.9003   14.3966 C   0  0  0  0  0  0  0  0  0  0  0  0
  -20.7866   18.0694   15.6510 N   0  0  0  0  0  0  0  0  0  0  0  0
  -19.7967   16.9108   13.7898 C   0  0  0  0  0  0  0  0  0  0  0  0
  -18.9743   17.4939   12.8158 O   0  0  0  0  0  0  0  0  0  0  0  0
  -19.0495   16.1778   14.7988 C   0  0  0  0  0  0  0  0  0  0  0  0
  -18.2098   15.2704   14.5090 O   0  0  0  0  0  0  0  0  0  0  0  0
  -19.2274   16.4498   16.2234 C   0  0  0  0  0  0  0  0  0  0  0  0
  -20.0677   17.3658   16.6525 C   0  0  0  0  0  0  0  0  0  0  0  0
  -20.2617   17.6559   18.0848 C   0  0  0  0  0  0  0  0  0  0  0  0
  -21.4266   17.2219   18.7141 C   0  0  0  0  0  0  0  0  0  0  0  0
  -22.4602   16.4850   17.9854 C   0  0  0  0  0  0  0  0  0  0  0  0
  -21.6164   17.4937   20.0694 C   0  0  0  0  0  0  0  0  0  0  0  0
  -19.3529   18.3381   18.8511 C   0  0  0  0  0  0  0  0  0  0  0  0
  -19.5295   18.6119   20.1888 C   0  0  0  0  0  0  0  0  0  0  0  0
  -20.6792   18.1815   20.8022 C   0  0  0  0  0  0  0  0  0  0  0  0
  -20.8626   18.4752   22.2258 C   0  0  0  0  0  0  0  0  0  0  0  0
  -21.7781   17.9042   23.0480 N   0  0  0  0  0  0  0  0  0  0  0  0
  -21.6391   18.4171   24.2378 O   0  0  0  0  0  0  0  0  0  0  0  0
  -20.6852   19.2874   24.2299 C   0  0  0  0  0  0  0  0  0  0  0  0
  -20.3217   19.9494   25.2458 O   0  0  0  0  0  0  0  0  0  0  0  0
  -20.1822   19.3426   22.9806 N   0  0  0  0  0  0  0  0  0  0  0  0
  1  2  1  0
  2  3  2  0
  2  4  1  0
  4  5  2  0
  4  6  1  0
  5 11  1  0
  6  7  1  0
  6  8  1  0
  8  9  2  0
  8 10  1  0
 10 11  2  0
 11 12  1  0
 12 13  2  0
 12 16  1  0
 13 14  1  0
 13 15  1  0
 15 18  2  0
 16 17  2  0
 17 18  1  0
 18 19  1  0
 19 20  2  0
 19 24  1  0
 20 21  1  0
 21 22  1  0
 22 23  2  0
 22 24  1  0
M  END
$$$$
