
     RDKit          3D

 24 26  0  0  0  0  0  0  0  0999 V2000
  -18.7202   16.1281   17.0613 O   0  0  0  0  0  0  0  0  0  0  0  0
  -18.8278   16.3768   15.7060 C   0  0  0  0  0  0  0  0  0  0  0  0
  -17.9130   16.0268   14.9533 O   0  0  0  0  0  0  0  0  0  0  0  0
  -20.0248   17.0565   15.1470 C   0  0  0  0  0  0  0  0  0  0  0  0
  -20.9959   17.3863   15.8941 N   0  0  0  0  0  0  0  0  0  0  0  0
  -20.0092   17.3159   13.7016 C   0  0  0  0  0  0  0  0  0  0  0  0
  -19.7321   16.1504   12.9738 O   0  0  0  0  0  0  0  0  0  0  0  0
  -21.2253   17.9823   13.2648 C   0  0  0  0  0  0  0  0  0  0  0  0
  -21.4354   18.3069   12.0552 O   0  0  0  0  0  0  0  0  0  0  0  0
  -22.2882   18.3199   14.2089 C   0  0  0  0  0  0  0  0  0  0  0  0
  -22.1909   18.0366   15.4893 C   0  0  0  0  0  0  0  0  0  0  0  0
  -23.2516   18.3683   16.4580 C   0  0  0  0  0  0  0  0  0  0  0  0
  -24.5459   17.9038   16.2337 C   0  0  0  0  0  0  0  0  0  0  0  0
  -24.8750   17.0946   15.0593 C   0  0  0  0  0  0  0  0  0  0  0  0
  -25.5543   18.2147   17.1465 C   0  0  0  0  0  0  0  0  0  0  0  0
  -23.0421   19.1185   17.5858 C   0  0  0  0  0  0  0  0  0  0  0  0
  -24.0292   19.4314   18.4932 C   0  0  0  0  0  0  0  0  0  0  0  0
  -25.3018   18.9706   18.2660 C   0  0  0  0  0  0  0  0  0  0  0  0
  -26.3488   19.3061   19.2343 C   0  0  0  0  0  0  0  0  0  0  0  0
  -27.5722   18.7265   19.3214 N   0  0  0  0  0  0  0  0  0  0  0  0
  -28.2238   19.2861   20.3013 O   0  0  0  0  0  0  0  0  0  0  0  0
  -27.4897   20.1947   20.8518 C   0  0  0  0  0  0  0  0  0  0  0  0
  -27.8591   20.9065   21.8313 O   0  0  0  0  0  0  0  0  0  0  0  0
  -26.3095   20.2271   20.2015 N   0  0  0  0  0  0  0  0  0  0  0  0
  1  2  1  0
  2  3  2  0
  2  4  1  0
  4  5  2  0
  4  6  1  0
  5 11  1  0
  6  7  1  0
  6  8  1  0
  8  9  2  0
  8 10  1  0
 10 11  2  0
 11 12  1  0
 12 13  2  0
 12 16  1  0
 13 14  1  0
 13 15  1  0
 15 18  2  0
 16 17  2  0
 17 18  1  0
 18 19  1  0
 19 20  2  0
 19 24  1  0
 20 21  1  0
 21 22  1  0
 22 23  2  0
 22 24  1  0
M  END
$$$$
