
     RDKit          3D

 24 26  0  0  0  0  0  0  0  0999 V2000
  -18.3608   16.3003   16.5972 O   0  0  0  0  0  0  0  0  0  0  0  0
  -18.5134   16.5294   15.2428 C   0  0  0  0  0  0  0  0  0  0  0  0
  -17.5818   16.2630   14.4766 O   0  0  0  0  0  0  0  0  0  0  0  0
  -19.7782   17.0893   14.7007 C   0  0  0  0  0  0  0  0  0  0  0  0
  -20.7526   17.3607   15.4670 N   0  0  0  0  0  0  0  0  0  0  0  0
  -19.8246   17.3033   13.2486 C   0  0  0  0  0  0  0  0  0  0  0  0
  -19.4709   16.1424   12.5470 O   0  0  0  0  0  0  0  0  0  0  0  0
  -21.1040   17.8522   12.8295 C   0  0  0  0  0  0  0  0  0  0  0  0
  -21.3741   18.1198   11.6179 O   0  0  0  0  0  0  0  0  0  0  0  0
  -22.1649   18.1300   13.7951 C   0  0  0  0  0  0  0  0  0  0  0  0
  -22.0087   17.8964   15.0798 C   0  0  0  0  0  0  0  0  0  0  0  0
  -23.0661   18.1692   16.0700 C   0  0  0  0  0  0  0  0  0  0  0  0
  -23.7326   17.0996   16.6644 C   0  0  0  0  0  0  0  0  0  0  0  0
  -23.4058   15.7131   16.3280 C   0  0  0  0  0  0  0  0  0  0  0  0
  -24.7347   17.3512   17.6020 C   0  0  0  0  0  0  0  0  0  0  0  0
  -23.4429   19.4310   16.4501 C   0  0  0  0  0  0  0  0  0  0  0  0
  -24.4300   19.6911   17.3740 C   0  0  0  0  0  0  0  0  0  0  0  0
  -25.0823   18.6329   17.9555 C   0  0  0  0  0  0  0  0  0  0  0  0
  -26.1320   18.9146   18.9380 C   0  0  0  0  0  0  0  0  0  0  0  0
  -26.6513   18.0321   19.8278 N   0  0  0  0  0  0  0  0  0  0  0  0
  -27.5600   18.6450   20.5326 O   0  0  0  0  0  0  0  0  0  0  0  0
  -27.6564   19.8739   20.1478 C   0  0  0  0  0  0  0  0  0  0  0  0
  -28.4585   20.7133   20.6522 O   0  0  0  0  0  0  0  0  0  0  0  0
  -26.7720   20.0683   19.1494 N   0  0  0  0  0  0  0  0  0  0  0  0
  1  2  1  0
  2  3  2  0
  2  4  1  0
  4  5  2  0
  4  6  1  0
  5 11  1  0
  6  7  1  0
  6  8  1  0
  8  9  2  0
  8 10  1  0
 10 11  2  0
 11 12  1  0
 12 13  2  0
 12 16  1  0
 13 14  1  0
 13 15  1  0
 15 18  2  0
 16 17  2  0
 17 18  1  0
 18 19  1  0
 19 20  2  0
 19 24  1  0
 20 21  1  0
 21 22  1  0
 22 23  2  0
 22 24  1  0
M  END
$$$$
