
     RDKit          3D

 24 26  0  0  0  0  0  0  0  0999 V2000
  -22.4398   19.8593   13.9382 O   0  0  0  0  0  0  0  0  0  0  0  0
  -21.5421   18.9297   13.4481 C   0  0  0  0  0  0  0  0  0  0  0  0
  -21.4598   18.7546   12.2280 O   0  0  0  0  0  0  0  0  0  0  0  0
  -20.6796   18.1428   14.3668 C   0  0  0  0  0  0  0  0  0  0  0  0
  -20.7424   18.3096   15.6231 N   0  0  0  0  0  0  0  0  0  0  0  0
  -19.7682   17.1789   13.7367 C   0  0  0  0  0  0  0  0  0  0  0  0
  -18.9878   17.7847   12.7423 O   0  0  0  0  0  0  0  0  0  0  0  0
  -18.9752   16.4674   14.7260 C   0  0  0  0  0  0  0  0  0  0  0  0
  -18.1179   15.5840   14.4143 O   0  0  0  0  0  0  0  0  0  0  0  0
  -19.1242   16.7346   16.1547 C   0  0  0  0  0  0  0  0  0  0  0  0
  -19.9786   17.6268   16.6056 C   0  0  0  0  0  0  0  0  0  0  0  0
  -20.1440   17.9115   18.0426 C   0  0  0  0  0  0  0  0  0  0  0  0
  -19.0565   18.3912   18.7696 C   0  0  0  0  0  0  0  0  0  0  0  0
  -17.7555   18.6187   18.1387 C   0  0  0  0  0  0  0  0  0  0  0  0
  -19.2064   18.6622   20.1300 C   0  0  0  0  0  0  0  0  0  0  0  0
  -21.3207   17.7309   18.7217 C   0  0  0  0  0  0  0  0  0  0  0  0
  -21.4802   17.9949   20.0636 C   0  0  0  0  0  0  0  0  0  0  0  0
  -20.4049   18.4671   20.7735 C   0  0  0  0  0  0  0  0  0  0  0  0
  -20.5794   18.7465   22.2011 C   0  0  0  0  0  0  0  0  0  0  0  0
  -19.7418   19.4746   22.9811 N   0  0  0  0  0  0  0  0  0  0  0  0
  -20.2266   19.5036   24.1903 O   0  0  0  0  0  0  0  0  0  0  0  0
  -21.3303   18.8349   24.2347 C   0  0  0  0  0  0  0  0  0  0  0  0
  -22.0281   18.6882   25.2808 O   0  0  0  0  0  0  0  0  0  0  0  0
  -21.5737   18.3502   23.0009 N   0  0  0  0  0  0  0  0  0  0  0  0
  1  2  1  0
  2  3  2  0
  2  4  1  0
  4  5  2  0
  4  6  1  0
  5 11  1  0
  6  7  1  0
  6  8  1  0
  8  9  2  0
  8 10  1  0
 10 11  2  0
 11 12  1  0
 12 13  2  0
 12 16  1  0
 13 14  1  0
 13 15  1  0
 15 18  2  0
 16 17  2  0
 17 18  1  0
 18 19  1  0
 19 20  2  0
 19 24  1  0
 20 21  1  0
 21 22  1  0
 22 23  2  0
 22 24  1  0
M  END
$$$$
