
     RDKit          3D

 26 30  0  0  0  0  0  0  0  0999 V2000
   -5.2477  -13.1204   29.7246 C   0  0  0  0  0  0  0  0  0  0  0  0
   -4.8573  -14.4065   29.3350 C   0  0  0  0  0  0  0  0  0  0  0  0
   -4.7066  -14.6597   27.9904 C   0  0  0  0  0  0  0  0  0  0  0  0
   -4.7915  -16.6767   29.1421 C   0  0  2  0  0  0  0  0  0  0  0  0
   -6.8224  -17.3645   27.8514 C   0  0  0  0  0  0  0  0  0  0  0  0
   -4.8606  -16.6124   26.6320 C   0  0  0  0  0  0  0  0  0  0  0  0
   -4.7161  -16.9526   24.2697 C   0  0  0  0  0  0  0  0  0  0  0  0
   -6.6305  -17.6769   25.4238 C   0  0  0  0  0  0  0  0  0  0  0  0
   -4.0854  -18.1067   31.0704 C   0  0  0  0  0  0  0  0  0  0  0  0
   -3.6399  -19.4910   31.4395 C   0  0  0  0  0  0  0  0  0  0  0  0
   -4.8704  -19.0993   28.9636 C   0  0  0  0  0  0  0  0  0  0  0  0
   -3.6784  -21.5370   30.1662 C   0  0  0  0  0  0  0  0  0  0  0  0
   -5.4848  -12.1073   28.8187 C   0  0  0  0  0  0  0  0  0  0  0  0
   -5.3292  -12.3784   27.4754 C   0  0  0  0  0  0  0  0  0  0  0  0
   -4.9442  -13.6457   27.0888 C   0  0  0  0  0  0  0  0  0  0  0  0
   -4.5649  -15.5881   30.0860 N   0  0  0  0  0  0  0  0  0  0  0  0
   -4.2837  -16.1038   27.8700 C   0  0  1  0  0  0  0  0  0  0  0  0
   -6.2219  -16.8822   29.0521 N   0  0  0  0  0  0  0  0  0  0  0  0
   -6.0882  -17.2102   26.6053 C   0  0  0  0  0  0  0  0  0  0  0  0
   -4.1689  -16.4839   25.4477 C   0  0  0  0  0  0  0  0  0  0  0  0
   -5.9475  -17.5544   24.2278 C   0  0  0  0  0  0  0  0  0  0  0  0
   -7.9413  -17.8979   27.8900 O   0  0  0  0  0  0  0  0  0  0  0  0
   -4.1157  -17.9445   29.5854 C   0  0  1  0  0  0  0  0  0  0  0  0
   -4.4461  -20.5370   30.8883 N   0  0  2  0  0  4  0  0  0  0  0  0
   -5.4612  -20.0292   29.9869 C   0  0  0  0  0  0  0  0  0  0  0  0
   -2.7095  -17.9905   29.0727 C   0  0  0  0  0  0  0  0  0  0  0  0
  2  1  2  0
  1 13  1  0
  3  2  1  0
 16  2  1  0
  3 15  2  0
 17  3  1  1
  4 16  1  1
  4 17  1  0
  4 18  1  0
 23  4  1  0
 18  5  1  0
  5 19  1  0
  5 22  2  0
 17  6  1  0
  6 19  2  0
  6 20  1  0
 20  7  2  0
  7 21  1  0
 19  8  1  0
  8 21  2  0
  9 10  1  0
  9 23  1  0
 10 24  1  0
 23 11  1  0
 11 25  1  0
 24 12  1  6
 13 14  2  0
 14 15  1  0
 23 26  1  6
 24 25  1  0
M  CHG  1  24   1
M  END
$$$$
