
     RDKit          3D

 26 30  0  0  0  0  0  0  0  0999 V2000
   -1.4021  -20.9203   32.8964 C   0  0  0  0  0  0  0  0  0  0  0  0
   -1.1926  -19.5368   32.9069 C   0  0  0  0  0  0  0  0  0  0  0  0
   -0.2072  -19.0356   33.7273 C   0  0  0  0  0  0  0  0  0  0  0  0
   -1.5846  -17.2952   33.0377 C   0  0  2  0  0  0  0  0  0  0  0  0
   -2.1908  -16.7917   35.4131 C   0  0  0  0  0  0  0  0  0  0  0  0
    0.1581  -16.9451   34.8125 C   0  0  0  0  0  0  0  0  0  0  0  0
    1.8358  -16.1886   36.3389 C   0  0  0  0  0  0  0  0  0  0  0  0
   -0.4285  -16.0422   36.9494 C   0  0  0  0  0  0  0  0  0  0  0  0
   -1.5009  -16.1666   30.8059 C   0  0  0  0  0  0  0  0  0  0  0  0
   -1.9476  -14.9432   30.0610 C   0  0  0  0  0  0  0  0  0  0  0  0
   -3.1988  -15.5664   32.4783 C   0  0  0  0  0  0  0  0  0  0  0  0
   -3.5525  -13.2476   30.6596 C   0  0  0  0  0  0  0  0  0  0  0  0
   -0.6643  -21.7914   33.6710 C   0  0  0  0  0  0  0  0  0  0  0  0
    0.3189  -21.2724   34.4871 C   0  0  0  0  0  0  0  0  0  0  0  0
    0.5274  -19.9085   34.4992 C   0  0  0  0  0  0  0  0  0  0  0  0
   -1.8269  -18.4659   32.2022 N   0  0  0  0  0  0  0  0  0  0  0  0
   -0.2060  -17.5388   33.5323 C   0  0  1  0  0  0  0  0  0  0  0  0
   -2.5196  -17.3492   34.1419 N   0  0  0  0  0  0  0  0  0  0  0  0
   -0.7862  -16.5922   35.7339 C   0  0  0  0  0  0  0  0  0  0  0  0
    1.4844  -16.7390   35.1223 C   0  0  0  0  0  0  0  0  0  0  0  0
    0.8988  -15.8300   37.2736 C   0  0  0  0  0  0  0  0  0  0  0  0
   -3.0930  -16.4919   36.2094 O   0  0  0  0  0  0  0  0  0  0  0  0
   -1.7696  -16.0169   32.2680 C   0  0  1  0  0  0  0  0  0  0  0  0
   -3.3306  -14.6190   30.2341 N   0  0  2  0  0  4  0  0  0  0  0  0
   -3.9805  -15.4866   31.1963 C   0  0  0  0  0  0  0  0  0  0  0  0
   -0.8708  -14.9490   32.8104 C   0  0  0  0  0  0  0  0  0  0  0  0
  2  1  2  0
  1 13  1  0
  3  2  1  0
 16  2  1  0
  3 15  2  0
 17  3  1  1
  4 16  1  6
  4 17  1  0
  4 18  1  0
 23  4  1  0
 18  5  1  0
  5 19  1  0
  5 22  2  0
 17  6  1  0
  6 19  2  0
  6 20  1  0
 20  7  2  0
  7 21  1  0
 19  8  1  0
  8 21  2  0
  9 10  1  0
  9 23  1  0
 10 24  1  0
 23 11  1  0
 11 25  1  0
 24 12  1  1
 13 14  2  0
 14 15  1  0
 23 26  1  1
 24 25  1  0
M  CHG  1  24   1
M  END
$$$$
