
     RDKit          3D

 26 30  0  0  0  0  0  0  0  0999 V2000
   -4.7772  -15.4611   25.0189 C   0  0  0  0  0  0  0  0  0  0  0  0
   -4.6787  -16.1842   26.2129 C   0  0  0  0  0  0  0  0  0  0  0  0
   -5.3050  -17.4080   26.2843 C   0  0  0  0  0  0  0  0  0  0  0  0
   -4.7465  -16.7101   28.4297 C   0  0  2  0  0  0  0  0  0  0  0  0
   -7.1565  -16.7478   29.1035 C   0  0  0  0  0  0  0  0  0  0  0  0
   -6.2030  -18.7227   28.0582 C   0  0  0  0  0  0  0  0  0  0  0  0
   -7.4025  -20.7908   28.0892 C   0  0  0  0  0  0  0  0  0  0  0  0
   -8.3528  -18.8918   29.0952 C   0  0  0  0  0  0  0  0  0  0  0  0
   -2.5152  -16.5013   29.5432 C   0  0  0  0  0  0  0  0  0  0  0  0
   -1.8391  -16.4716   30.8822 C   0  0  0  0  0  0  0  0  0  0  0  0
   -4.6010  -16.0754   30.7713 C   0  0  0  0  0  0  0  0  0  0  0  0
   -2.7656  -16.2573   33.0968 C   0  0  0  0  0  0  0  0  0  0  0  0
   -5.4725  -15.9259   23.9217 C   0  0  0  0  0  0  0  0  0  0  0  0
   -6.0941  -17.1538   24.0105 C   0  0  0  0  0  0  0  0  0  0  0  0
   -5.9983  -17.8687   25.1868 C   0  0  0  0  0  0  0  0  0  0  0  0
   -4.0250  -15.9018   27.4533 N   0  0  0  0  0  0  0  0  0  0  0  0
   -5.0305  -17.9511   27.6657 C   0  0  1  0  0  0  0  0  0  0  0  0
   -5.9854  -16.0238   28.7306 N   0  0  0  0  0  0  0  0  0  0  0  0
   -7.2408  -18.1537   28.7397 C   0  0  0  0  0  0  0  0  0  0  0  0
   -6.2884  -20.0579   27.7309 C   0  0  0  0  0  0  0  0  0  0  0  0
   -8.4519  -20.2327   28.7729 C   0  0  0  0  0  0  0  0  0  0  0  0
   -8.0672  -16.1759   29.7211 O   0  0  0  0  0  0  0  0  0  0  0  0
   -3.9466  -16.9046   29.6879 C   0  0  1  0  0  0  0  0  0  0  0  0
   -2.4577  -15.6031   31.8366 N   0  0  2  0  0  4  0  0  0  0  0  0
   -3.6865  -15.0223   31.3331 C   0  0  0  0  0  0  0  0  0  0  0  0
   -3.9961  -18.3380   30.1187 C   0  0  0  0  0  0  0  0  0  0  0  0
  2  1  2  0
  1 13  1  0
  3  2  1  0
 16  2  1  0
  3 15  2  0
 17  3  1  6
  4 16  1  6
  4 17  1  0
  4 18  1  0
 23  4  1  0
 18  5  1  0
  5 19  1  0
  5 22  2  0
 17  6  1  0
  6 19  2  0
  6 20  1  0
 20  7  2  0
  7 21  1  0
 19  8  1  0
  8 21  2  0
  9 10  1  0
  9 23  1  0
 10 24  1  0
 23 11  1  0
 11 25  1  0
 24 12  1  1
 13 14  2  0
 14 15  1  0
 23 26  1  1
 24 25  1  0
M  CHG  1  24   1
M  END
$$$$
