
     RDKit          3D

 26 30  0  0  0  0  0  0  0  0999 V2000
   -1.9193  -13.5224   29.4355 C   0  0  0  0  0  0  0  0  0  0  0  0
   -2.6616  -14.6886   29.2180 C   0  0  0  0  0  0  0  0  0  0  0  0
   -2.8415  -15.1110   27.9203 C   0  0  0  0  0  0  0  0  0  0  0  0
   -4.3463  -16.2216   29.3001 C   0  0  2  0  0  0  0  0  0  0  0  0
   -6.2733  -15.2661   28.0205 C   0  0  0  0  0  0  0  0  0  0  0  0
   -4.5048  -16.3989   26.7995 C   0  0  0  0  0  0  0  0  0  0  0  0
   -4.8202  -16.9826   24.5024 C   0  0  0  0  0  0  0  0  0  0  0  0
   -6.5409  -15.8749   25.6571 C   0  0  0  0  0  0  0  0  0  0  0  0
   -5.7576  -18.2700   29.0284 C   0  0  0  0  0  0  0  0  0  0  0  0
   -6.0022  -19.6424   29.5830 C   0  0  0  0  0  0  0  0  0  0  0  0
   -3.6180  -18.3434   30.2353 C   0  0  0  0  0  0  0  0  0  0  0  0
   -4.6993  -20.9609   31.1236 C   0  0  0  0  0  0  0  0  0  0  0  0
   -1.3669  -12.7882   28.4064 C   0  0  0  0  0  0  0  0  0  0  0  0
   -1.5570  -13.2257   27.1124 C   0  0  0  0  0  0  0  0  0  0  0  0
   -2.2885  -14.3753   26.8954 C   0  0  0  0  0  0  0  0  0  0  0  0
   -3.3152  -15.5900   30.1157 N   0  0  0  0  0  0  0  0  0  0  0  0
   -3.6646  -16.3745   27.9901 C   0  0  1  0  0  0  0  0  0  0  0  0
   -5.4400  -15.2806   29.1781 N   0  0  0  0  0  0  0  0  0  0  0  0
   -5.7585  -15.8574   26.7952 C   0  0  0  0  0  0  0  0  0  0  0  0
   -4.0333  -16.9678   25.6370 C   0  0  0  0  0  0  0  0  0  0  0  0
   -6.0803  -16.4423   24.4833 C   0  0  0  0  0  0  0  0  0  0  0  0
   -7.4033  -14.7583   28.0776 O   0  0  0  0  0  0  0  0  0  0  0  0
   -4.8351  -17.5021   29.9182 C   0  0  1  0  0  0  0  0  0  0  0  0
   -4.8166  -20.4190   29.7806 N   0  0  2  0  0  4  0  0  0  0  0  0
   -3.6125  -19.6596   29.5082 C   0  0  0  0  0  0  0  0  0  0  0  0
   -5.5425  -17.2200   31.2076 C   0  0  0  0  0  0  0  0  0  0  0  0
  2  1  2  0
  1 13  1  0
  3  2  1  0
 16  2  1  0
  3 15  2  0
 17  3  1  6
  4 16  1  1
  4 17  1  0
  4 18  1  0
 23  4  1  0
 18  5  1  0
  5 19  1  0
  5 22  2  0
 17  6  1  0
  6 19  2  0
  6 20  1  0
 20  7  2  0
  7 21  1  0
 19  8  1  0
  8 21  2  0
  9 10  1  0
  9 23  1  0
 10 24  1  0
 23 11  1  0
 11 25  1  0
 24 12  1  1
 13 14  2  0
 14 15  1  0
 23 26  1  1
 24 25  1  0
M  CHG  1  24   1
M  END
$$$$
