
     RDKit          3D

 26 30  0  0  0  0  0  0  0  0999 V2000
   -0.5267  -14.2114   29.2488 C   0  0  0  0  0  0  0  0  0  0  0  0
   -1.1819  -15.2232   29.9595 C   0  0  0  0  0  0  0  0  0  0  0  0
   -2.5573  -15.2604   29.9166 C   0  0  0  0  0  0  0  0  0  0  0  0
   -1.8112  -16.6093   31.6560 C   0  0  2  0  0  0  0  0  0  0  0  0
   -3.0666  -15.2184   33.3152 C   0  0  0  0  0  0  0  0  0  0  0  0
   -4.2514  -16.0821   31.3782 C   0  0  0  0  0  0  0  0  0  0  0  0
   -6.6393  -15.9906   31.2967 C   0  0  0  0  0  0  0  0  0  0  0  0
   -5.5163  -15.1358   33.1755 C   0  0  0  0  0  0  0  0  0  0  0  0
   -2.5836  -18.2043   33.4227 C   0  0  0  0  0  0  0  0  0  0  0  0
   -2.5821  -19.6515   33.8181 C   0  0  0  0  0  0  0  0  0  0  0  0
   -1.9615  -18.9876   31.1778 C   0  0  0  0  0  0  0  0  0  0  0  0
   -1.9869  -21.6164   32.5555 C   0  0  0  0  0  0  0  0  0  0  0  0
   -1.2026  -13.2593   28.5141 C   0  0  0  0  0  0  0  0  0  0  0  0
   -2.5804  -13.3113   28.4821 C   0  0  0  0  0  0  0  0  0  0  0  0
   -3.2288  -14.3080   29.1820 C   0  0  0  0  0  0  0  0  0  0  0  0
   -0.6938  -16.2932   30.7735 N   0  0  0  0  0  0  0  0  0  0  0  0
   -2.9817  -16.4393   30.7584 C   0  0  1  0  0  0  0  0  0  0  0  0
   -1.8400  -15.6035   32.6970 N   0  0  0  0  0  0  0  0  0  0  0  0
   -4.3076  -15.4816   32.6036 C   0  0  0  0  0  0  0  0  0  0  0  0
   -5.4339  -16.3383   30.7199 C   0  0  0  0  0  0  0  0  0  0  0  0
   -6.7108  -15.3869   32.5258 C   0  0  0  0  0  0  0  0  0  0  0  0
   -3.0539  -14.6751   34.4299 O   0  0  0  0  0  0  0  0  0  0  0  0
   -1.6674  -17.9766   32.2646 C   0  0  1  0  0  0  0  0  0  0  0  0
   -2.9513  -20.5507   32.7678 N   0  0  2  0  0  4  0  0  0  0  0  0
   -3.1360  -19.8687   31.5023 C   0  0  0  0  0  0  0  0  0  0  0  0
   -0.2584  -18.1963   32.7219 C   0  0  0  0  0  0  0  0  0  0  0  0
  2  1  2  0
  1 13  1  0
  3  2  1  0
 16  2  1  0
  3 15  2  0
 17  3  1  6
  4 16  1  6
  4 17  1  0
  4 18  1  0
 23  4  1  0
 18  5  1  0
  5 19  1  0
  5 22  2  0
 17  6  1  0
  6 19  2  0
  6 20  1  0
 20  7  2  0
  7 21  1  0
 19  8  1  0
  8 21  2  0
  9 10  1  0
  9 23  1  0
 10 24  1  0
 23 11  1  0
 11 25  1  0
 24 12  1  6
 13 14  2  0
 14 15  1  0
 23 26  1  1
 24 25  1  0
M  CHG  1  24   1
M  END
$$$$
