
     RDKit          3D

 26 30  0  0  0  0  0  0  0  0999 V2000
   -5.0485  -18.5090   24.2462 C   0  0  0  0  0  0  0  0  0  0  0  0
   -5.3508  -18.0705   25.5402 C   0  0  0  0  0  0  0  0  0  0  0  0
   -5.9768  -16.8529   25.6834 C   0  0  0  0  0  0  0  0  0  0  0  0
   -5.1251  -17.5199   27.7405 C   0  0  2  0  0  0  0  0  0  0  0  0
   -3.6858  -15.4749   27.8432 C   0  0  0  0  0  0  0  0  0  0  0  0
   -6.0620  -15.2126   27.4108 C   0  0  0  0  0  0  0  0  0  0  0  0
   -7.0694  -13.0478   27.5348 C   0  0  0  0  0  0  0  0  0  0  0  0
   -4.7665  -13.2727   27.9438 C   0  0  0  0  0  0  0  0  0  0  0  0
   -4.3783  -18.9707   29.6376 C   0  0  0  0  0  0  0  0  0  0  0  0
   -4.4992  -19.1660   31.1202 C   0  0  0  0  0  0  0  0  0  0  0  0
   -5.2680  -16.7134   30.0288 C   0  0  0  0  0  0  0  0  0  0  0  0
   -5.4036  -17.7154   32.8194 C   0  0  0  0  0  0  0  0  0  0  0  0
   -5.3521  -17.7722   23.1200 C   0  0  0  0  0  0  0  0  0  0  0  0
   -5.9792  -16.5546   23.2817 C   0  0  0  0  0  0  0  0  0  0  0  0
   -6.2783  -16.1201   24.5567 C   0  0  0  0  0  0  0  0  0  0  0  0
   -5.1315  -18.6564   26.8264 N   0  0  0  0  0  0  0  0  0  0  0  0
   -6.1772  -16.6445   27.1650 C   0  0  1  0  0  0  0  0  0  0  0  0
   -3.8331  -16.8768   27.6243 N   0  0  0  0  0  0  0  0  0  0  0  0
   -4.8661  -14.6329   27.7256 C   0  0  0  0  0  0  0  0  0  0  0  0
   -7.1751  -14.4069   27.3154 C   0  0  0  0  0  0  0  0  0  0  0  0
   -5.8755  -12.4521   27.8511 C   0  0  0  0  0  0  0  0  0  0  0  0
   -2.5729  -15.0061   28.1252 O   0  0  0  0  0  0  0  0  0  0  0  0
   -5.3604  -17.9501   29.1618 C   0  0  1  0  0  0  0  0  0  0  0  0
   -4.3175  -17.9729   31.8893 N   0  0  2  0  0  4  0  0  0  0  0  0
   -4.1699  -16.7988   31.0525 C   0  0  0  0  0  0  0  0  0  0  0  0
   -6.7407  -18.5107   29.3133 C   0  0  0  0  0  0  0  0  0  0  0  0
  2  1  2  0
  1 13  1  0
  3  2  1  0
 16  2  1  0
  3 15  2  0
 17  3  1  6
  4 16  1  6
  4 17  1  0
  4 18  1  0
 23  4  1  0
 18  5  1  0
  5 19  1  0
  5 22  2  0
 17  6  1  0
  6 19  2  0
  6 20  1  0
 20  7  2  0
  7 21  1  0
 19  8  1  0
  8 21  2  0
  9 10  1  0
  9 23  1  0
 10 24  1  0
 23 11  1  0
 11 25  1  0
 24 12  1  1
 13 14  2  0
 14 15  1  0
 23 26  1  6
 24 25  1  0
M  CHG  1  24   1
M  END
$$$$
