
     RDKit          3D

 26 30  0  0  0  0  0  0  0  0999 V2000
   -2.9791  -20.6174   33.8816 C   0  0  0  0  0  0  0  0  0  0  0  0
   -2.3084  -19.3929   33.7867 C   0  0  0  0  0  0  0  0  0  0  0  0
   -1.0273  -19.3142   34.2843 C   0  0  0  0  0  0  0  0  0  0  0  0
   -1.8476  -17.1663   33.9447 C   0  0  2  0  0  0  0  0  0  0  0  0
   -1.5728  -16.6427   36.3766 C   0  0  0  0  0  0  0  0  0  0  0  0
    0.3201  -17.5508   35.1542 C   0  0  0  0  0  0  0  0  0  0  0  0
    2.5029  -17.5159   36.1294 C   0  0  0  0  0  0  0  0  0  0  0  0
    0.6863  -16.6439   37.3380 C   0  0  0  0  0  0  0  0  0  0  0  0
   -1.8065  -16.0071   31.7274 C   0  0  0  0  0  0  0  0  0  0  0  0
   -1.9969  -14.6745   31.0649 C   0  0  0  0  0  0  0  0  0  0  0  0
   -2.9642  -15.0262   33.6607 C   0  0  0  0  0  0  0  0  0  0  0  0
   -2.9261  -12.6219   31.9208 C   0  0  0  0  0  0  0  0  0  0  0  0
   -2.4085  -21.7372   34.4505 C   0  0  0  0  0  0  0  0  0  0  0  0
   -1.1244  -21.6406   34.9442 C   0  0  0  0  0  0  0  0  0  0  0  0
   -0.4609  -20.4344   34.8517 C   0  0  0  0  0  0  0  0  0  0  0  0
   -2.6978  -18.1259   33.2493 N   0  0  0  0  0  0  0  0  0  0  0  0
   -0.5601  -17.8987   34.0459 C   0  0  1  0  0  0  0  0  0  0  0  0
   -2.4062  -16.9693   35.2659 N   0  0  0  0  0  0  0  0  0  0  0  0
   -0.1554  -16.9573   36.2886 C   0  0  0  0  0  0  0  0  0  0  0  0
    1.6664  -17.8318   35.0772 C   0  0  0  0  0  0  0  0  0  0  0  0
    2.0395  -16.9205   37.2743 C   0  0  0  0  0  0  0  0  0  0  0  0
   -2.0628  -16.1051   37.3810 O   0  0  0  0  0  0  0  0  0  0  0  0
   -1.7793  -15.8543   33.2135 C   0  0  1  0  0  0  0  0  0  0  0  0
   -3.1807  -13.9788   31.4681 N   0  0  2  0  0  4  0  0  0  0  0  0
   -3.8874  -14.6689   32.5289 C   0  0  0  0  0  0  0  0  0  0  0  0
   -0.5354  -15.1119   33.5930 C   0  0  0  0  0  0  0  0  0  0  0  0
  2  1  2  0
  1 13  1  0
  3  2  1  0
 16  2  1  0
  3 15  2  0
 17  3  1  1
  4 16  1  6
  4 17  1  0
  4 18  1  0
 23  4  1  0
 18  5  1  0
  5 19  1  0
  5 22  2  0
 17  6  1  0
  6 19  2  0
  6 20  1  0
 20  7  2  0
  7 21  1  0
 19  8  1  0
  8 21  2  0
  9 10  1  0
  9 23  1  0
 10 24  1  0
 23 11  1  0
 11 25  1  0
 24 12  1  1
 13 14  2  0
 14 15  1  0
 23 26  1  6
 24 25  1  0
M  CHG  1  24   1
M  END
$$$$
