
     RDKit          3D

 26 30  0  0  0  0  0  0  0  0999 V2000
   -5.6634  -15.5483   24.7804 C   0  0  0  0  0  0  0  0  0  0  0  0
   -5.3430  -16.0755   26.0364 C   0  0  0  0  0  0  0  0  0  0  0  0
   -5.4509  -17.4360   26.2161 C   0  0  0  0  0  0  0  0  0  0  0  0
   -5.2940  -16.4020   28.2917 C   0  0  2  0  0  0  0  0  0  0  0  0
   -7.5284  -17.3164   28.9513 C   0  0  0  0  0  0  0  0  0  0  0  0
   -5.8444  -18.8453   28.0978 C   0  0  0  0  0  0  0  0  0  0  0  0
   -6.1531  -21.2066   28.3113 C   0  0  0  0  0  0  0  0  0  0  0  0
   -7.8033  -19.7493   29.1327 C   0  0  0  0  0  0  0  0  0  0  0  0
   -3.0540  -16.2905   29.4015 C   0  0  0  0  0  0  0  0  0  0  0  0
   -2.3441  -15.7961   30.6273 C   0  0  0  0  0  0  0  0  0  0  0  0
   -4.8764  -14.7727   30.0461 C   0  0  0  0  0  0  0  0  0  0  0  0
   -3.0784  -14.2869   32.3572 C   0  0  0  0  0  0  0  0  0  0  0  0
   -6.0796  -16.3350   23.7263 C   0  0  0  0  0  0  0  0  0  0  0  0
   -6.1823  -17.6961   23.9238 C   0  0  0  0  0  0  0  0  0  0  0  0
   -5.8668  -18.2184   25.1613 C   0  0  0  0  0  0  0  0  0  0  0  0
   -4.9007  -15.4605   27.2495 N   0  0  0  0  0  0  0  0  0  0  0  0
   -5.0454  -17.7144   27.6432 C   0  0  1  0  0  0  0  0  0  0  0  0
   -6.7131  -16.2280   28.5205 N   0  0  0  0  0  0  0  0  0  0  0  0
   -7.0486  -18.6695   28.7177 C   0  0  0  0  0  0  0  0  0  0  0  0
   -5.3944  -20.1311   27.8941 C   0  0  0  0  0  0  0  0  0  0  0  0
   -7.3639  -21.0453   28.9344 C   0  0  0  0  0  0  0  0  0  0  0  0
   -8.6140  -17.0939   29.5081 O   0  0  0  0  0  0  0  0  0  0  0  0
   -4.5338  -16.1667   29.5673 C   0  0  1  0  0  0  0  0  0  0  0  0
   -2.6465  -14.4422   30.9787 N   0  0  2  0  0  4  0  0  0  0  0  0
   -3.6748  -13.8727   30.1308 C   0  0  0  0  0  0  0  0  0  0  0  0
   -4.9771  -17.1326   30.6223 C   0  0  0  0  0  0  0  0  0  0  0  0
  2  1  2  0
  1 13  1  0
  3  2  1  0
 16  2  1  0
  3 15  2  0
 17  3  1  6
  4 16  1  6
  4 17  1  0
  4 18  1  0
 23  4  1  0
 18  5  1  0
  5 19  1  0
  5 22  2  0
 17  6  1  0
  6 19  2  0
  6 20  1  0
 20  7  2  0
  7 21  1  0
 19  8  1  0
  8 21  2  0
  9 10  1  0
  9 23  1  0
 10 24  1  0
 23 11  1  0
 11 25  1  0
 24 12  1  1
 13 14  2  0
 14 15  1  0
 23 26  1  1
 24 25  1  0
M  CHG  1  24   1
M  END
$$$$
