
     RDKit          3D

 26 30  0  0  0  0  0  0  0  0999 V2000
   -5.4120  -16.0755   28.2903 C   0  0  0  0  0  0  0  0  0  0  0  0
   -4.5891  -16.4108   29.3713 C   0  0  0  0  0  0  0  0  0  0  0  0
   -3.5408  -17.2740   29.1457 C   0  0  0  0  0  0  0  0  0  0  0  0
   -3.9105  -17.1036   31.4340 C   0  0  2  0  0  0  0  0  0  0  0  0
   -4.3728  -19.5593   31.5741 C   0  0  0  0  0  0  0  0  0  0  0  0
   -2.3253  -18.8138   30.4998 C   0  0  0  0  0  0  0  0  0  0  0  0
   -0.5937  -20.3856   30.0021 C   0  0  0  0  0  0  0  0  0  0  0  0
   -2.5701  -21.1345   31.0290 C   0  0  0  0  0  0  0  0  0  0  0  0
   -1.9450  -16.5898   32.8950 C   0  0  0  0  0  0  0  0  0  0  0  0
   -1.5431  -15.9202   34.1761 C   0  0  0  0  0  0  0  0  0  0  0  0
   -4.0439  -15.3254   33.0855 C   0  0  0  0  0  0  0  0  0  0  0  0
   -2.7776  -14.4347   35.6178 C   0  0  0  0  0  0  0  0  0  0  0  0
   -5.2127  -16.5740   27.0195 C   0  0  0  0  0  0  0  0  0  0  0  0
   -4.1579  -17.4377   26.8113 C   0  0  0  0  0  0  0  0  0  0  0  0
   -3.3449  -17.7698   27.8755 C   0  0  0  0  0  0  0  0  0  0  0  0
   -4.6093  -16.0229   30.7477 N   0  0  0  0  0  0  0  0  0  0  0  0
   -2.8361  -17.4491   30.4691 C   0  0  1  0  0  0  0  0  0  0  0  0
   -4.8361  -18.2103   31.5558 N   0  0  0  0  0  0  0  0  0  0  0  0
   -3.0593  -19.8428   31.0170 C   0  0  0  0  0  0  0  0  0  0  0  0
   -1.0776  -19.0924   29.9872 C   0  0  0  0  0  0  0  0  0  0  0  0
   -1.3196  -21.4285   30.5176 C   0  0  0  0  0  0  0  0  0  0  0  0
   -5.0856  -20.4521   32.0565 O   0  0  0  0  0  0  0  0  0  0  0  0
   -3.4332  -16.6791   32.7950 C   0  0  1  0  0  0  0  0  0  0  0  0
   -2.0861  -14.6079   34.3518 N   0  0  2  0  0  4  0  0  0  0  0  0
   -3.0119  -14.2521   33.2949 C   0  0  0  0  0  0  0  0  0  0  0  0
   -3.9240  -17.6338   33.8391 C   0  0  0  0  0  0  0  0  0  0  0  0
  2  1  2  0
  1 13  1  0
  3  2  1  0
 16  2  1  0
  3 15  2  0
 17  3  1  6
  4 16  1  6
  4 17  1  0
  4 18  1  0
 23  4  1  0
 18  5  1  0
  5 19  1  0
  5 22  2  0
 17  6  1  0
  6 19  2  0
  6 20  1  0
 20  7  2  0
  7 21  1  0
 19  8  1  0
  8 21  2  0
  9 10  1  0
  9 23  1  0
 10 24  1  0
 23 11  1  0
 11 25  1  0
 24 12  1  1
 13 14  2  0
 14 15  1  0
 23 26  1  1
 24 25  1  0
M  CHG  1  24   1
M  END
$$$$
