
     RDKit          3D

 26 30  0  0  0  0  0  0  0  0999 V2000
   -5.2345  -12.7552   28.5225 C   0  0  0  0  0  0  0  0  0  0  0  0
   -5.0592  -14.1400   28.4243 C   0  0  0  0  0  0  0  0  0  0  0  0
   -4.8929  -14.6861   27.1717 C   0  0  0  0  0  0  0  0  0  0  0  0
   -5.3859  -16.3808   28.6839 C   0  0  2  0  0  0  0  0  0  0  0  0
   -7.4437  -16.9789   27.3911 C   0  0  0  0  0  0  0  0  0  0  0  0
   -5.3252  -16.8249   26.2123 C   0  0  0  0  0  0  0  0  0  0  0  0
   -5.1328  -17.6635   23.9815 C   0  0  0  0  0  0  0  0  0  0  0  0
   -7.1967  -17.8120   25.0948 C   0  0  0  0  0  0  0  0  0  0  0  0
   -3.6292  -17.4948   30.0748 C   0  0  0  0  0  0  0  0  0  0  0  0
   -3.3823  -18.6522   30.9971 C   0  0  0  0  0  0  0  0  0  0  0  0
   -6.0203  -17.9055   30.4672 C   0  0  0  0  0  0  0  0  0  0  0  0
   -4.9322  -20.1535   32.0709 C   0  0  0  0  0  0  0  0  0  0  0  0
   -5.2465  -11.9257   27.4202 C   0  0  0  0  0  0  0  0  0  0  0  0
   -5.0786  -12.4896   26.1728 C   0  0  0  0  0  0  0  0  0  0  0  0
   -4.9055  -13.8548   26.0734 C   0  0  0  0  0  0  0  0  0  0  0  0
   -5.0152  -15.1730   29.4126 N   0  0  0  0  0  0  0  0  0  0  0  0
   -4.7261  -16.1732   27.3701 C   0  0  1  0  0  0  0  0  0  0  0  0
   -6.8243  -16.3642   28.5195 N   0  0  0  0  0  0  0  0  0  0  0  0
   -6.6364  -17.2068   26.2028 C   0  0  0  0  0  0  0  0  0  0  0  0
   -4.5672  -17.0580   25.0860 C   0  0  0  0  0  0  0  0  0  0  0  0
   -6.4477  -18.0518   23.9576 C   0  0  0  0  0  0  0  0  0  0  0  0
   -8.6397  -17.3029   27.4417 O   0  0  0  0  0  0  0  0  0  0  0  0
   -4.9658  -17.6230   29.4194 C   0  0  1  0  0  0  0  0  0  0  0  0
   -4.3714  -18.8142   32.0185 N   0  0  2  0  0  4  0  0  0  0  0  0
   -5.4726  -17.8840   31.8674 C   0  0  0  0  0  0  0  0  0  0  0  0
   -4.9275  -18.7925   28.4848 C   0  0  0  0  0  0  0  0  0  0  0  0
  2  1  2  0
  1 13  1  0
  3  2  1  0
 16  2  1  0
  3 15  2  0
 17  3  1  6
  4 16  1  1
  4 17  1  0
  4 18  1  0
 23  4  1  0
 18  5  1  0
  5 19  1  0
  5 22  2  0
 17  6  1  0
  6 19  2  0
  6 20  1  0
 20  7  2  0
  7 21  1  0
 19  8  1  0
  8 21  2  0
  9 10  1  0
  9 23  1  0
 10 24  1  0
 23 11  1  0
 11 25  1  0
 24 12  1  6
 13 14  2  0
 14 15  1  0
 23 26  1  6
 24 25  1  0
M  CHG  1  24   1
M  END
$$$$
