
     RDKit          3D

 26 30  0  0  0  0  0  0  0  0999 V2000
   -3.3402  -13.5538   34.9409 C   0  0  0  0  0  0  0  0  0  0  0  0
   -3.0407  -14.7792   34.3352 C   0  0  0  0  0  0  0  0  0  0  0  0
   -2.2833  -15.6851   35.0427 C   0  0  0  0  0  0  0  0  0  0  0  0
   -2.3368  -16.3164   32.8065 C   0  0  2  0  0  0  0  0  0  0  0  0
    0.1538  -16.1197   32.6586 C   0  0  0  0  0  0  0  0  0  0  0  0
   -0.8101  -17.4598   34.4410 C   0  0  0  0  0  0  0  0  0  0  0  0
    0.5817  -18.9124   35.7330 C   0  0  0  0  0  0  0  0  0  0  0  0
    1.5408  -17.6164   34.0238 C   0  0  0  0  0  0  0  0  0  0  0  0
   -4.0818  -17.9269   32.0171 C   0  0  0  0  0  0  0  0  0  0  0  0
   -4.5563  -18.6904   30.8159 C   0  0  0  0  0  0  0  0  0  0  0  0
   -2.8004  -16.5533   30.4324 C   0  0  0  0  0  0  0  0  0  0  0  0
   -3.9517  -18.4819   28.4921 C   0  0  0  0  0  0  0  0  0  0  0  0
   -2.9079  -13.2242   36.2089 C   0  0  0  0  0  0  0  0  0  0  0  0
   -2.1500  -14.1435   36.9035 C   0  0  0  0  0  0  0  0  0  0  0  0
   -1.8534  -15.3525   36.3084 C   0  0  0  0  0  0  0  0  0  0  0  0
   -3.3751  -15.3226   33.0552 N   0  0  0  0  0  0  0  0  0  0  0  0
   -2.1239  -16.8967   34.1564 C   0  0  1  0  0  0  0  0  0  0  0  0
   -1.1482  -15.6057   32.3840 N   0  0  0  0  0  0  0  0  0  0  0  0
    0.2985  -17.0855   33.7366 C   0  0  0  0  0  0  0  0  0  0  0  0
   -0.6628  -18.3850   35.4507 C   0  0  0  0  0  0  0  0  0  0  0  0
    1.7032  -18.5457   35.0347 C   0  0  0  0  0  0  0  0  0  0  0  0
    1.1235  -15.7407   31.9849 O   0  0  0  0  0  0  0  0  0  0  0  0
   -2.7527  -17.2997   31.7478 C   0  0  1  0  0  0  0  0  0  0  0  0
   -4.6609  -17.9075   29.6226 N   0  0  2  0  0  4  0  0  0  0  0  0
   -4.1684  -16.5571   29.8083 C   0  0  0  0  0  0  0  0  0  0  0  0
   -1.7309  -18.3867   31.6181 C   0  0  0  0  0  0  0  0  0  0  0  0
  2  1  2  0
  1 13  1  0
  3  2  1  0
 16  2  1  0
  3 15  2  0
 17  3  1  1
  4 16  1  1
  4 17  1  0
  4 18  1  0
 23  4  1  0
 18  5  1  0
  5 19  1  0
  5 22  2  0
 17  6  1  0
  6 19  2  0
  6 20  1  0
 20  7  2  0
  7 21  1  0
 19  8  1  0
  8 21  2  0
  9 10  1  0
  9 23  1  0
 10 24  1  0
 23 11  1  0
 11 25  1  0
 24 12  1  6
 13 14  2  0
 14 15  1  0
 23 26  1  6
 24 25  1  0
M  CHG  1  24   1
M  END
$$$$
