
     RDKit          3D

 26 30  0  0  0  0  0  0  0  0999 V2000
   -6.1007  -16.0805   26.6914 C   0  0  0  0  0  0  0  0  0  0  0  0
   -5.2460  -16.3187   27.7735 C   0  0  0  0  0  0  0  0  0  0  0  0
   -4.4260  -17.4232   27.7222 C   0  0  0  0  0  0  0  0  0  0  0  0
   -4.4933  -16.6232   29.9033 C   0  0  2  0  0  0  0  0  0  0  0  0
   -5.4235  -18.8030   30.7076 C   0  0  0  0  0  0  0  0  0  0  0  0
   -3.4021  -18.8196   29.3603 C   0  0  0  0  0  0  0  0  0  0  0  0
   -2.0912  -20.8122   29.1931 C   0  0  0  0  0  0  0  0  0  0  0  0
   -4.0496  -20.8262   30.4916 C   0  0  0  0  0  0  0  0  0  0  0  0
   -2.9673  -14.8084   30.7028 C   0  0  0  0  0  0  0  0  0  0  0  0
   -2.5056  -14.0817   31.9316 C   0  0  0  0  0  0  0  0  0  0  0  0
   -4.8514  -15.5898   32.0738 C   0  0  0  0  0  0  0  0  0  0  0  0
   -3.3970  -14.0744   34.1709 C   0  0  0  0  0  0  0  0  0  0  0  0
   -6.1508  -16.9046   25.5862 C   0  0  0  0  0  0  0  0  0  0  0  0
   -5.3226  -18.0068   25.5513 C   0  0  0  0  0  0  0  0  0  0  0  0
   -4.4788  -18.2437   26.6170 C   0  0  0  0  0  0  0  0  0  0  0  0
   -5.0321  -15.6134   28.9992 N   0  0  0  0  0  0  0  0  0  0  0  0
   -3.6267  -17.4247   29.0027 C   0  0  1  0  0  0  0  0  0  0  0  0
   -5.6037  -17.4304   30.3634 N   0  0  0  0  0  0  0  0  0  0  0  0
   -4.2658  -19.5005   30.1699 C   0  0  0  0  0  0  0  0  0  0  0  0
   -2.3023  -19.4869   28.8679 C   0  0  0  0  0  0  0  0  0  0  0  0
   -2.9500  -21.5084   30.0043 C   0  0  0  0  0  0  0  0  0  0  0  0
   -6.2431  -19.3684   31.4470 O   0  0  0  0  0  0  0  0  0  0  0  0
   -3.7897  -15.9986   31.0761 C   0  0  1  0  0  0  0  0  0  0  0  0
   -3.5630  -13.6469   32.7923 N   0  0  2  0  0  4  0  0  0  0  0  0
   -4.8607  -14.1105   32.3432 C   0  0  0  0  0  0  0  0  0  0  0  0
   -2.9001  -17.0019   31.7429 C   0  0  0  0  0  0  0  0  0  0  0  0
  2  1  2  0
  1 13  1  0
  3  2  1  0
 16  2  1  0
  3 15  2  0
 17  3  1  6
  4 16  1  6
  4 17  1  0
  4 18  1  0
 23  4  1  0
 18  5  1  0
  5 19  1  0
  5 22  2  0
 17  6  1  0
  6 19  2  0
  6 20  1  0
 20  7  2  0
  7 21  1  0
 19  8  1  0
  8 21  2  0
  9 10  1  0
  9 23  1  0
 10 24  1  0
 23 11  1  0
 11 25  1  0
 24 12  1  1
 13 14  2  0
 14 15  1  0
 23 26  1  1
 24 25  1  0
M  CHG  1  24   1
M  END
$$$$
