
     RDKit          3D

 26 30  0  0  0  0  0  0  0  0999 V2000
   -4.7811  -13.5321   29.4627 C   0  0  0  0  0  0  0  0  0  0  0  0
   -4.7053  -14.8390   28.9683 C   0  0  0  0  0  0  0  0  0  0  0  0
   -4.5412  -15.0117   27.6125 C   0  0  0  0  0  0  0  0  0  0  0  0
   -5.2038  -17.0261   28.5638 C   0  0  2  0  0  0  0  0  0  0  0  0
   -7.2595  -17.0603   27.1367 C   0  0  0  0  0  0  0  0  0  0  0  0
   -5.1002  -16.7411   26.0703 C   0  0  0  0  0  0  0  0  0  0  0  0
   -4.9017  -16.9126   23.6937 C   0  0  0  0  0  0  0  0  0  0  0  0
   -7.0041  -17.2119   24.6996 C   0  0  0  0  0  0  0  0  0  0  0  0
   -4.2792  -18.6157   30.2608 C   0  0  0  0  0  0  0  0  0  0  0  0
   -4.2383  -20.0631   30.6540 C   0  0  0  0  0  0  0  0  0  0  0  0
   -6.2035  -19.2220   28.8573 C   0  0  0  0  0  0  0  0  0  0  0  0
   -5.5522  -21.9304   29.8819 C   0  0  0  0  0  0  0  0  0  0  0  0
   -4.6983  -12.4216   28.6484 C   0  0  0  0  0  0  0  0  0  0  0  0
   -4.5341  -12.6128   27.2925 C   0  0  0  0  0  0  0  0  0  0  0  0
   -4.4590  -13.9005   26.8026 C   0  0  0  0  0  0  0  0  0  0  0  0
   -4.7677  -16.1134   29.6146 N   0  0  0  0  0  0  0  0  0  0  0  0
   -4.4905  -16.5011   27.3721 C   0  0  1  0  0  0  0  0  0  0  0  0
   -6.6314  -16.8487   28.3998 N   0  0  0  0  0  0  0  0  0  0  0  0
   -6.4350  -16.9988   25.9399 C   0  0  0  0  0  0  0  0  0  0  0  0
   -4.3272  -16.6985   24.9309 C   0  0  0  0  0  0  0  0  0  0  0  0
   -6.2403  -17.1719   23.5477 C   0  0  0  0  0  0  0  0  0  0  0  0
   -8.4770  -17.2892   27.0815 O   0  0  0  0  0  0  0  0  0  0  0  0
   -4.8990  -18.4570   28.9106 C   0  0  1  0  0  0  0  0  0  0  0  0
   -5.5159  -20.7077   30.6659 N   0  0  2  0  0  4  0  0  0  0  0  0
   -6.5708  -19.8424   30.1768 C   0  0  0  0  0  0  0  0  0  0  0  0
   -3.9787  -19.0540   27.8912 C   0  0  0  0  0  0  0  0  0  0  0  0
  2  1  2  0
  1 13  1  0
  3  2  1  0
 16  2  1  0
  3 15  2  0
 17  3  1  1
  4 16  1  1
  4 17  1  0
  4 18  1  0
 23  4  1  0
 18  5  1  0
  5 19  1  0
  5 22  2  0
 17  6  1  0
  6 19  2  0
  6 20  1  0
 20  7  2  0
  7 21  1  0
 19  8  1  0
  8 21  2  0
  9 10  1  0
  9 23  1  0
 10 24  1  0
 23 11  1  0
 11 25  1  0
 24 12  1  6
 13 14  2  0
 14 15  1  0
 23 26  1  6
 24 25  1  0
M  CHG  1  24   1
M  END
$$$$
