
     RDKit          3D

 26 30  0  0  0  0  0  0  0  0999 V2000
    0.0663  -18.4233   36.0271 C   0  0  0  0  0  0  0  0  0  0  0  0
   -0.4161  -18.2942   34.7199 C   0  0  0  0  0  0  0  0  0  0  0  0
   -0.7015  -17.0303   34.2551 C   0  0  0  0  0  0  0  0  0  0  0  0
   -1.6718  -18.6003   32.8424 C   0  0  2  0  0  0  0  0  0  0  0  0
   -3.9459  -17.6699   33.3187 C   0  0  0  0  0  0  0  0  0  0  0  0
   -2.1861  -16.1526   32.6097 C   0  0  0  0  0  0  0  0  0  0  0  0
   -2.7258  -13.9195   31.9475 C   0  0  0  0  0  0  0  0  0  0  0  0
   -4.4447  -15.3631   32.6423 C   0  0  0  0  0  0  0  0  0  0  0  0
   -1.9810  -20.7269   31.5603 C   0  0  0  0  0  0  0  0  0  0  0  0
   -2.3064  -21.2739   30.2017 C   0  0  0  0  0  0  0  0  0  0  0  0
   -2.8870  -18.5956   30.7375 C   0  0  0  0  0  0  0  0  0  0  0  0
   -3.1730  -20.1738   28.2401 C   0  0  0  0  0  0  0  0  0  0  0  0
    0.2640  -17.3403   36.8585 C   0  0  0  0  0  0  0  0  0  0  0  0
   -0.0272  -16.0813   36.3768 C   0  0  0  0  0  0  0  0  0  0  0  0
   -0.5029  -15.9514   35.0881 C   0  0  0  0  0  0  0  0  0  0  0  0
   -0.6941  -19.2590   33.7012 N   0  0  0  0  0  0  0  0  0  0  0  0
   -1.1931  -17.1949   32.8373 C   0  0  1  0  0  0  0  0  0  0  0  0
   -2.9559  -18.6797   33.5066 N   0  0  0  0  0  0  0  0  0  0  0  0
   -3.5141  -16.3625   32.8495 C   0  0  0  0  0  0  0  0  0  0  0  0
   -1.7909  -14.9146   32.1529 C   0  0  0  0  0  0  0  0  0  0  0  0
   -4.0620  -14.1158   32.1844 C   0  0  0  0  0  0  0  0  0  0  0  0
   -5.1374  -17.9199   33.5546 O   0  0  0  0  0  0  0  0  0  0  0  0
   -1.7502  -19.2523   31.4899 C   0  0  1  0  0  0  0  0  0  0  0  0
   -3.4439  -20.6689   29.5789 N   0  0  2  0  0  4  0  0  0  0  0  0
   -3.9714  -19.5648   30.3557 C   0  0  0  0  0  0  0  0  0  0  0  0
   -0.4903  -19.0040   30.7195 C   0  0  0  0  0  0  0  0  0  0  0  0
  2  1  2  0
  1 13  1  0
  3  2  1  0
 16  2  1  0
  3 15  2  0
 17  3  1  1
  4 16  1  1
  4 17  1  0
  4 18  1  0
 23  4  1  0
 18  5  1  0
  5 19  1  0
  5 22  2  0
 17  6  1  0
  6 19  2  0
  6 20  1  0
 20  7  2  0
  7 21  1  0
 19  8  1  0
  8 21  2  0
  9 10  1  0
  9 23  1  0
 10 24  1  0
 23 11  1  0
 11 25  1  0
 24 12  1  6
 13 14  2  0
 14 15  1  0
 23 26  1  6
 24 25  1  0
M  CHG  1  24   1
M  END
$$$$
