
     RDKit          3D

 26 30  0  0  0  0  0  0  0  0999 V2000
   -1.0856  -18.1111   32.1764 C   0  0  0  0  0  0  0  0  0  0  0  0
   -1.6816  -16.9985   31.5721 C   0  0  0  0  0  0  0  0  0  0  0  0
   -2.8427  -17.1916   30.8584 C   0  0  0  0  0  0  0  0  0  0  0  0
   -1.9603  -15.1071   30.3310 C   0  0  2  0  0  0  0  0  0  0  0  0
   -1.7533  -15.7682   27.9261 C   0  0  0  0  0  0  0  0  0  0  0  0
   -3.8919  -16.0625   29.0402 C   0  0  0  0  0  0  0  0  0  0  0  0
   -5.8537  -16.5382   27.7589 C   0  0  0  0  0  0  0  0  0  0  0  0
   -3.7948  -16.2717   26.6585 C   0  0  0  0  0  0  0  0  0  0  0  0
   -3.1854  -13.0897   29.4999 C   0  0  0  0  0  0  0  0  0  0  0  0
   -3.4150  -11.6307   29.7634 C   0  0  0  0  0  0  0  0  0  0  0  0
   -2.3068  -13.1964   31.7926 C   0  0  0  0  0  0  0  0  0  0  0  0
   -2.8571  -10.2819   31.6814 C   0  0  0  0  0  0  0  0  0  0  0  0
   -1.6145  -19.3819   32.0836 C   0  0  0  0  0  0  0  0  0  0  0  0
   -2.7783  -19.5574   31.3646 C   0  0  0  0  0  0  0  0  0  0  0  0
   -3.3678  -18.4619   30.7678 C   0  0  0  0  0  0  0  0  0  0  0  0
   -1.3151  -15.6165   31.5358 N   0  0  0  0  0  0  0  0  0  0  0  0
   -3.2527  -15.8381   30.3306 C   0  0  1  0  0  0  0  0  0  0  0  0
   -1.1590  -15.5251   29.1999 N   0  0  0  0  0  0  0  0  0  0  0  0
   -3.1804  -16.0448   27.8746 C   0  0  0  0  0  0  0  0  0  0  0  0
   -5.2451  -16.3124   28.9776 C   0  0  0  0  0  0  0  0  0  0  0  0
   -5.1520  -16.5239   26.5809 C   0  0  0  0  0  0  0  0  0  0  0  0
   -1.0548  -15.7400   26.9017 O   0  0  0  0  0  0  0  0  0  0  0  0
   -2.0754  -13.6082   30.3551 C   0  0  1  0  0  0  0  0  0  0  0  0
   -3.7129  -11.3171   31.1275 N   0  0  2  0  0  4  0  0  0  0  0  0
   -3.6122  -12.4769   31.9909 C   0  0  0  0  0  0  0  0  0  0  0  0
   -0.7930  -12.9813   29.9023 C   0  0  0  0  0  0  0  0  0  0  0  0
  2  1  2  0
  1 13  1  0
  3  2  1  0
 16  2  1  0
  3 15  2  0
 17  3  1  6
  4 16  1  1
  4 17  1  0
  4 18  1  0
 23  4  1  0
 18  5  1  0
  5 19  1  0
  5 22  2  0
 17  6  1  0
  6 19  2  0
  6 20  1  0
 20  7  2  0
  7 21  1  0
 19  8  1  0
  8 21  2  0
  9 10  1  0
  9 23  1  0
 10 24  1  0
 23 11  1  0
 11 25  1  0
 24 12  1  1
 13 14  2  0
 14 15  1  0
 23 26  1  6
 24 25  1  0
M  CHG  1  24   1
M  END
$$$$
