
     RDKit          3D

 26 30  0  0  0  0  0  0  0  0999 V2000
   -3.6401  -20.1813   34.8937 C   0  0  0  0  0  0  0  0  0  0  0  0
   -2.7839  -19.1570   34.4741 C   0  0  0  0  0  0  0  0  0  0  0  0
   -1.4538  -19.2408   34.8187 C   0  0  0  0  0  0  0  0  0  0  0  0
   -1.9228  -17.0792   34.1049 C   0  0  2  0  0  0  0  0  0  0  0  0
   -1.2357  -16.1616   36.3297 C   0  0  0  0  0  0  0  0  0  0  0  0
    0.2866  -17.6475   35.1564 C   0  0  0  0  0  0  0  0  0  0  0  0
    2.5527  -17.8610   35.8884 C   0  0  0  0  0  0  0  0  0  0  0  0
    1.0966  -16.4277   37.0489 C   0  0  0  0  0  0  0  0  0  0  0  0
   -2.2274  -16.3167   31.7411 C   0  0  0  0  0  0  0  0  0  0  0  0
   -2.2407  -15.0997   30.8638 C   0  0  0  0  0  0  0  0  0  0  0  0
   -2.4586  -14.7573   33.6265 C   0  0  0  0  0  0  0  0  0  0  0  0
   -2.2926  -12.7594   31.4378 C   0  0  0  0  0  0  0  0  0  0  0  0
   -3.2035  -21.2611   35.6330 C   0  0  0  0  0  0  0  0  0  0  0  0
   -1.8678  -21.3291   35.9696 C   0  0  0  0  0  0  0  0  0  0  0  0
   -1.0216  -20.3204   35.5569 C   0  0  0  0  0  0  0  0  0  0  0  0
   -3.0138  -17.9658   33.7165 N   0  0  0  0  0  0  0  0  0  0  0  0
   -0.7820  -18.0201   34.2380 C   0  0  1  0  0  0  0  0  0  0  0  0
   -2.2552  -16.5236   35.4000 N   0  0  0  0  0  0  0  0  0  0  0  0
    0.0796  -16.7636   36.1767 C   0  0  0  0  0  0  0  0  0  0  0  0
    1.5399  -18.2008   35.0135 C   0  0  0  0  0  0  0  0  0  0  0  0
    2.3593  -16.9756   36.9174 C   0  0  0  0  0  0  0  0  0  0  0  0
   -1.4841  -15.3536   37.2371 O   0  0  0  0  0  0  0  0  0  0  0  0
   -1.7244  -15.9735   33.1055 C   0  0  1  0  0  0  0  0  0  0  0  0
   -3.0222  -14.0141   31.3723 N   0  0  2  0  0  4  0  0  0  0  0  0
   -3.5431  -14.2874   32.6970 C   0  0  0  0  0  0  0  0  0  0  0  0
   -0.2728  -15.6201   33.0028 C   0  0  0  0  0  0  0  0  0  0  0  0
  2  1  2  0
  1 13  1  0
  3  2  1  0
 16  2  1  0
  3 15  2  0
 17  3  1  1
  4 16  1  6
  4 17  1  0
  4 18  1  0
 23  4  1  0
 18  5  1  0
  5 19  1  0
  5 22  2  0
 17  6  1  0
  6 19  2  0
  6 20  1  0
 20  7  2  0
  7 21  1  0
 19  8  1  0
  8 21  2  0
  9 10  1  0
  9 23  1  0
 10 24  1  0
 23 11  1  0
 11 25  1  0
 24 12  1  1
 13 14  2  0
 14 15  1  0
 23 26  1  6
 24 25  1  0
M  CHG  1  24   1
M  END
$$$$
