
     RDKit          3D

 26 30  0  0  0  0  0  0  0  0999 V2000
   -5.4452  -15.4635   24.6910 C   0  0  0  0  0  0  0  0  0  0  0  0
   -5.1406  -16.0848   25.9073 C   0  0  0  0  0  0  0  0  0  0  0  0
   -5.4931  -17.4058   26.0677 C   0  0  0  0  0  0  0  0  0  0  0  0
   -4.9904  -16.4923   28.1449 C   0  0  2  0  0  0  0  0  0  0  0  0
   -7.3042  -16.9900   28.9589 C   0  0  0  0  0  0  0  0  0  0  0  0
   -6.0102  -18.7792   27.9459 C   0  0  0  0  0  0  0  0  0  0  0  0
   -6.7481  -21.0456   28.1357 C   0  0  0  0  0  0  0  0  0  0  0  0
   -8.0250  -19.3319   29.1126 C   0  0  0  0  0  0  0  0  0  0  0  0
   -3.3375  -15.1748   29.4842 C   0  0  0  0  0  0  0  0  0  0  0  0
   -2.6844  -15.0826   30.8318 C   0  0  0  0  0  0  0  0  0  0  0  0
   -4.9997  -16.6219   30.5719 C   0  0  0  0  0  0  0  0  0  0  0  0
   -3.2231  -16.1812   32.9084 C   0  0  0  0  0  0  0  0  0  0  0  0
   -6.0798  -16.1205   23.6572 C   0  0  0  0  0  0  0  0  0  0  0  0
   -6.4260  -17.4437   23.8349 C   0  0  0  0  0  0  0  0  0  0  0  0
   -6.1267  -18.0585   25.0333 C   0  0  0  0  0  0  0  0  0  0  0  0
   -4.5015  -15.6067   27.0942 N   0  0  0  0  0  0  0  0  0  0  0  0
   -5.0451  -17.8048   27.4529 C   0  0  1  0  0  0  0  0  0  0  0  0
   -6.3295  -16.0612   28.4875 N   0  0  0  0  0  0  0  0  0  0  0  0
   -7.1101  -18.4006   28.6615 C   0  0  0  0  0  0  0  0  0  0  0  0
   -5.8303  -20.1191   27.6820 C   0  0  0  0  0  0  0  0  0  0  0  0
   -7.8570  -20.6799   28.8547 C   0  0  0  0  0  0  0  0  0  0  0  0
   -8.2836  -16.5857   29.6032 O   0  0  0  0  0  0  0  0  0  0  0  0
   -4.1081  -16.4490   29.3615 C   0  0  1  0  0  0  0  0  0  0  0  0
   -3.5924  -15.1680   31.9346 N   0  0  2  0  0  4  0  0  0  0  0  0
   -4.9492  -15.4455   31.5071 C   0  0  0  0  0  0  0  0  0  0  0  0
   -3.1397  -17.5911   29.3422 C   0  0  0  0  0  0  0  0  0  0  0  0
  2  1  2  0
  1 13  1  0
  3  2  1  0
 16  2  1  0
  3 15  2  0
 17  3  1  6
  4 16  1  6
  4 17  1  0
  4 18  1  0
 23  4  1  0
 18  5  1  0
  5 19  1  0
  5 22  2  0
 17  6  1  0
  6 19  2  0
  6 20  1  0
 20  7  2  0
  7 21  1  0
 19  8  1  0
  8 21  2  0
  9 10  1  0
  9 23  1  0
 10 24  1  0
 23 11  1  0
 11 25  1  0
 24 12  1  1
 13 14  2  0
 14 15  1  0
 23 26  1  6
 24 25  1  0
M  CHG  1  24   1
M  END
$$$$
