
     RDKit          3D

 26 30  0  0  0  0  0  0  0  0999 V2000
   -8.0053  -13.9919   28.7231 C   0  0  0  0  0  0  0  0  0  0  0  0
   -7.0681  -15.0094   28.5123 C   0  0  0  0  0  0  0  0  0  0  0  0
   -6.4949  -15.1158   27.2653 C   0  0  0  0  0  0  0  0  0  0  0  0
   -6.0935  -17.0692   28.4590 C   0  0  2  0  0  0  0  0  0  0  0  0
   -7.3063  -18.4123   26.7301 C   0  0  0  0  0  0  0  0  0  0  0  0
   -5.5399  -16.9059   26.0143 C   0  0  0  0  0  0  0  0  0  0  0  0
   -4.6799  -17.0421   23.7875 C   0  0  0  0  0  0  0  0  0  0  0  0
   -6.3980  -18.5013   24.4509 C   0  0  0  0  0  0  0  0  0  0  0  0
   -4.2557  -17.3290   30.1372 C   0  0  0  0  0  0  0  0  0  0  0  0
   -3.4988  -18.3439   30.9423 C   0  0  0  0  0  0  0  0  0  0  0  0
   -5.9305  -19.0944   29.7929 C   0  0  0  0  0  0  0  0  0  0  0  0
   -3.9574  -20.6751   31.3478 C   0  0  0  0  0  0  0  0  0  0  0  0
   -8.3720  -13.1006   27.7361 C   0  0  0  0  0  0  0  0  0  0  0  0
   -7.7880  -13.2216   26.4926 C   0  0  0  0  0  0  0  0  0  0  0  0
   -6.8635  -14.2240   26.2822 C   0  0  0  0  0  0  0  0  0  0  0  0
   -6.5484  -16.0271   29.3725 N   0  0  0  0  0  0  0  0  0  0  0  0
   -5.5370  -16.2806   27.3307 C   0  0  1  0  0  0  0  0  0  0  0  0
   -7.2628  -17.8003   28.0179 N   0  0  0  0  0  0  0  0  0  0  0  0
   -6.3954  -17.9249   25.7061 C   0  0  0  0  0  0  0  0  0  0  0  0
   -4.6728  -16.4619   25.0404 C   0  0  0  0  0  0  0  0  0  0  0  0
   -5.5333  -18.0654   23.4639 C   0  0  0  0  0  0  0  0  0  0  0  0
   -8.1064  -19.3338   26.5095 O   0  0  0  0  0  0  0  0  0  0  0  0
   -5.1219  -18.0041   29.1241 C   0  0  1  0  0  0  0  0  0  0  0  0
   -4.3255  -19.2961   31.6190 N   0  0  2  0  0  4  0  0  0  0  0  0
   -5.7268  -19.1425   31.2819 C   0  0  0  0  0  0  0  0  0  0  0  0
   -4.2412  -18.6525   28.1011 C   0  0  0  0  0  0  0  0  0  0  0  0
  2  1  2  0
  1 13  1  0
  3  2  1  0
 16  2  1  0
  3 15  2  0
 17  3  1  6
  4 16  1  1
  4 17  1  0
  4 18  1  0
 23  4  1  0
 18  5  1  0
  5 19  1  0
  5 22  2  0
 17  6  1  0
  6 19  2  0
  6 20  1  0
 20  7  2  0
  7 21  1  0
 19  8  1  0
  8 21  2  0
  9 10  1  0
  9 23  1  0
 10 24  1  0
 23 11  1  0
 11 25  1  0
 24 12  1  6
 13 14  2  0
 14 15  1  0
 23 26  1  6
 24 25  1  0
M  CHG  1  24   1
M  END
$$$$
