
     RDKit          3D

 26 30  0  0  0  0  0  0  0  0999 V2000
   -1.0081  -20.7186   30.5822 C   0  0  0  0  0  0  0  0  0  0  0  0
   -1.4770  -19.4191   30.8047 C   0  0  0  0  0  0  0  0  0  0  0  0
   -1.0641  -18.7661   31.9440 C   0  0  0  0  0  0  0  0  0  0  0  0
   -2.8873  -17.6439   31.0393 C   0  0  2  0  0  0  0  0  0  0  0  0
   -4.1994  -18.0190   33.1373 C   0  0  0  0  0  0  0  0  0  0  0  0
   -1.9835  -17.0371   33.3031 C   0  0  0  0  0  0  0  0  0  0  0  0
   -1.2659  -16.0412   35.3550 C   0  0  0  0  0  0  0  0  0  0  0  0
   -3.4088  -16.9965   35.2247 C   0  0  0  0  0  0  0  0  0  0  0  0
   -2.6575  -15.9383   29.2228 C   0  0  0  0  0  0  0  0  0  0  0  0
   -3.4061  -14.8806   28.4665 C   0  0  0  0  0  0  0  0  0  0  0  0
   -4.8628  -16.7546   29.9376 C   0  0  0  0  0  0  0  0  0  0  0  0
   -5.7652  -14.3940   28.3809 C   0  0  0  0  0  0  0  0  0  0  0  0
   -0.1555  -21.3626   31.4550 C   0  0  0  0  0  0  0  0  0  0  0  0
    0.2481  -20.6938   32.5916 C   0  0  0  0  0  0  0  0  0  0  0  0
   -0.2128  -19.4123   32.8131 C   0  0  0  0  0  0  0  0  0  0  0  0
   -2.3508  -18.5734   30.0517 N   0  0  0  0  0  0  0  0  0  0  0  0
   -1.7150  -17.4044   31.9185 C   0  0  1  0  0  0  0  0  0  0  0  0
   -3.9198  -18.3419   31.7763 N   0  0  0  0  0  0  0  0  0  0  0  0
   -3.1705  -17.3381   33.9078 C   0  0  0  0  0  0  0  0  0  0  0  0
   -1.0219  -16.3804   34.0389 C   0  0  0  0  0  0  0  0  0  0  0  0
   -2.4525  -16.3374   35.9750 C   0  0  0  0  0  0  0  0  0  0  0  0
   -5.2962  -18.3193   33.6319 O   0  0  0  0  0  0  0  0  0  0  0  0
   -3.4595  -16.4144   30.3901 C   0  0  1  0  0  0  0  0  0  0  0  0
   -4.6918  -15.2927   27.9921 N   0  0  2  0  0  4  0  0  0  0  0  0
   -5.0452  -16.6213   28.4510 C   0  0  0  0  0  0  0  0  0  0  0  0
   -3.5594  -15.2998   31.3853 C   0  0  0  0  0  0  0  0  0  0  0  0
  2  1  2  0
  1 13  1  0
  3  2  1  0
 16  2  1  0
  3 15  2  0
 17  3  1  1
  4 16  1  6
  4 17  1  0
  4 18  1  0
 23  4  1  0
 18  5  1  0
  5 19  1  0
  5 22  2  0
 17  6  1  0
  6 19  2  0
  6 20  1  0
 20  7  2  0
  7 21  1  0
 19  8  1  0
  8 21  2  0
  9 10  1  0
  9 23  1  0
 10 24  1  0
 23 11  1  0
 11 25  1  0
 24 12  1  1
 13 14  2  0
 14 15  1  0
 23 26  1  1
 24 25  1  0
M  CHG  1  24   1
M  END
$$$$
