
     RDKit          3D

 45 44  0  0  0  0  0  0  0  0999 V2000
  -10.4995   11.1885   28.8773 C   0  0  0  0  0  0  0  0  0  0  0  0
  -10.5984   12.2365   29.5362 O   0  0  0  0  0  0  0  0  0  0  0  0
  -11.0471   11.2789   27.4770 C   0  0  0  0  0  0  0  0  0  0  0  0
   -9.9501    9.9870   29.3261 N   0  0  0  0  0  0  0  0  0  0  0  0
   -9.4042    9.8988   30.6534 C   0  0  2  0  0  0  0  0  0  0  0  0
   -7.8871    9.7612   30.5082 C   0  0  0  0  0  0  0  0  0  0  0  0
   -7.4205    8.6488   30.3161 O   0  0  0  0  0  0  0  0  0  0  0  0
   -9.7393    8.3257   30.9304 C   0  0  2  0  0  0  0  0  0  0  0  0
   -9.8337    7.5733   29.6512 C   0  0  0  0  0  0  0  0  0  0  0  0
  -11.1839    8.2853   31.5162 C   0  0  0  0  0  0  0  0  0  0  0  0
  -10.0177    6.0861   29.9887 C   0  0  0  0  0  0  0  0  0  0  0  0
   -7.1048   10.9125   30.6060 N   0  0  0  0  0  0  0  0  0  0  0  0
   -5.7483   10.9332   30.5135 C   0  0  2  0  0  0  0  0  0  0  0  0
   -5.0573   10.1440   31.5575 C   0  0  0  0  0  0  0  0  0  0  0  0
   -5.4641   10.1222   32.7625 O   0  0  0  0  0  0  0  0  0  0  0  0
   -4.9504   12.2190   30.4251 C   0  0  0  0  0  0  0  0  0  0  0  0
   -5.2560   13.1399   29.3336 C   0  0  0  0  0  0  0  0  0  0  0  0
   -4.5140   14.3954   29.2311 C   0  0  0  0  0  0  0  0  0  0  0  0
   -3.2811   14.3955   29.4994 O   0  0  0  0  0  0  0  0  0  0  0  0
   -5.0683   15.5051   28.8396 O   0  0  0  0  0  0  0  0  0  0  0  0
   -3.8200    9.4925   31.2701 N   0  0  0  0  0  0  0  0  0  0  0  0
   -2.9155    8.8643   32.1109 C   0  0  2  0  0  0  0  0  0  0  0  0
   -2.1325    9.4499   33.1536 C   0  0  0  0  0  0  0  0  0  0  0  0
   -1.0193    9.0363   33.4342 O   0  0  0  0  0  0  0  0  0  0  0  0
   -1.7166    8.3010   31.2242 C   0  0  0  0  0  0  0  0  0  0  0  0
   -2.2434    7.7663   29.9428 C   0  0  0  0  0  0  0  0  0  0  0  0
   -3.4132    6.8567   29.9642 C   0  0  0  0  0  0  0  0  0  0  0  0
   -3.4732    5.6552   29.7578 O   0  0  0  0  0  0  0  0  0  0  0  0
   -4.5751    7.5247   30.3514 O   0  0  0  0  0  0  0  0  0  0  0  0
   -2.6700   10.5609   33.8144 N   0  0  0  0  0  0  0  0  0  0  0  0
   -2.2881   11.0817   35.0416 C   0  0  2  0  0  0  0  0  0  0  0  0
   -3.3218   11.4862   35.9365 C   0  0  0  0  0  0  0  0  0  0  0  0
   -4.5247   11.2530   35.6606 O   0  0  0  0  0  0  0  0  0  0  0  0
   -1.0042   11.8146   35.0511 C   0  0  1  0  0  0  0  0  0  0  0  0
    0.1979   10.9067   34.8628 C   0  0  0  0  0  0  0  0  0  0  0  0
   -0.9670   13.1451   34.4469 C   0  0  0  0  0  0  0  0  0  0  0  0
   -3.0620   12.2240   37.1468 N   0  0  0  0  0  0  0  0  0  0  0  0
   -4.1476   12.6971   37.9587 C   0  0  2  0  0  0  0  0  0  0  0  0
   -4.4050   14.1432   37.9906 C   0  0  0  0  0  0  0  0  0  0  0  0
   -3.6660   15.1356   37.4539 O   0  0  0  0  0  0  0  0  0  0  0  0
   -4.1518   12.1097   39.3221 C   0  0  0  0  0  0  0  0  0  0  0  0
   -5.0919   10.9967   39.4538 C   0  0  0  0  0  0  0  0  0  0  0  0
   -5.4234   10.6349   40.7675 O   0  0  0  0  0  0  0  0  0  0  0  0
   -5.5890   10.3944   38.5021 O   0  0  0  0  0  0  0  0  0  0  0  0
   -5.4740   14.4619   38.6248 O   0  0  0  0  0  0  0  0  0  0  0  0
  1  2  2  0
  1  3  1  0
  1  4  1  0
  5  4  1  6
  5  6  1  0
  5  8  1  0
  6  7  2  0
  6 12  1  0
  8  9  1  0
  8 10  1  6
  9 11  1  0
 12 13  1  0
 13 14  1  0
 13 16  1  1
 14 15  2  0
 14 21  1  0
 16 17  1  0
 17 18  1  0
 18 19  2  0
 18 20  1  0
 21 22  1  0
 22 23  1  0
 22 25  1  6
 23 24  2  0
 23 30  1  0
 25 26  1  0
 26 27  1  0
 27 28  2  0
 27 29  1  0
 31 30  1  6
 31 32  1  0
 31 34  1  0
 32 33  2  0
 32 37  1  0
 34 35  1  6
 34 36  1  0
 37 38  1  0
 38 39  1  0
 38 41  1  1
 39 40  1  0
 39 45  2  0
 41 42  1  0
 42 43  1  0
 42 44  2  0
M  END
$$$$
