
     RDKit          3D

 45 44  0  0  0  0  0  0  0  0999 V2000
  -10.5833    7.5581   27.2250 C   0  0  0  0  0  0  0  0  0  0  0  0
  -11.6724    8.0675   27.5361 O   0  0  0  0  0  0  0  0  0  0  0  0
  -10.5102    7.0631   25.8043 C   0  0  0  0  0  0  0  0  0  0  0  0
   -9.4777    7.4116   28.0634 N   0  0  0  0  0  0  0  0  0  0  0  0
   -9.4602    8.0581   29.3477 C   0  0  2  0  0  0  0  0  0  0  0  0
   -8.3769    9.1376   29.2938 C   0  0  0  0  0  0  0  0  0  0  0  0
   -7.4124    8.9568   28.5665 O   0  0  0  0  0  0  0  0  0  0  0  0
   -8.6018    6.9295   30.1559 C   0  0  2  0  0  0  0  0  0  0  0  0
   -8.6031    7.2113   31.6161 C   0  0  0  0  0  0  0  0  0  0  0  0
   -7.1161    7.1195   29.7217 C   0  0  0  0  0  0  0  0  0  0  0  0
   -8.5703    5.8667   32.3581 C   0  0  0  0  0  0  0  0  0  0  0  0
   -8.5382   10.2782   30.0813 N   0  0  0  0  0  0  0  0  0  0  0  0
   -7.7492   11.3833   30.0086 C   0  0  2  0  0  0  0  0  0  0  0  0
   -6.2993   11.0999   30.0966 C   0  0  0  0  0  0  0  0  0  0  0  0
   -5.4684   11.5842   29.2641 O   0  0  0  0  0  0  0  0  0  0  0  0
   -7.9494   12.5956   30.8963 C   0  0  0  0  0  0  0  0  0  0  0  0
   -7.3588   13.8611   30.4693 C   0  0  0  0  0  0  0  0  0  0  0  0
   -7.2767   14.1636   29.0412 C   0  0  0  0  0  0  0  0  0  0  0  0
   -7.7686   13.3439   28.2178 O   0  0  0  0  0  0  0  0  0  0  0  0
   -6.7477   15.2624   28.5888 O   0  0  0  0  0  0  0  0  0  0  0  0
   -5.8048   10.1511   31.0418 N   0  0  0  0  0  0  0  0  0  0  0  0
   -4.8092   10.2667   31.9984 C   0  0  2  0  0  0  0  0  0  0  0  0
   -4.7134   11.2244   33.0553 C   0  0  0  0  0  0  0  0  0  0  0  0
   -5.3288   12.2777   33.0289 O   0  0  0  0  0  0  0  0  0  0  0  0
   -3.4423   10.6179   31.2575 C   0  0  0  0  0  0  0  0  0  0  0  0
   -3.0043    9.4644   30.4311 C   0  0  0  0  0  0  0  0  0  0  0  0
   -1.7937    9.5971   29.5867 C   0  0  0  0  0  0  0  0  0  0  0  0
   -1.3355   10.5796   29.0259 O   0  0  0  0  0  0  0  0  0  0  0  0
   -1.0815    8.3994   29.5197 O   0  0  0  0  0  0  0  0  0  0  0  0
   -3.9222   10.8860   34.1595 N   0  0  0  0  0  0  0  0  0  0  0  0
   -4.3290   10.7326   35.4764 C   0  0  2  0  0  0  0  0  0  0  0  0
   -3.3375   10.3695   36.4346 C   0  0  0  0  0  0  0  0  0  0  0  0
   -2.4286    9.5586   36.1283 O   0  0  0  0  0  0  0  0  0  0  0  0
   -5.7157   10.2551   35.6634 C   0  0  1  0  0  0  0  0  0  0  0  0
   -6.1257    9.2103   34.6412 C   0  0  0  0  0  0  0  0  0  0  0  0
   -6.2187   10.1206   37.0292 C   0  0  0  0  0  0  0  0  0  0  0  0
   -3.3543   10.8467   37.7943 N   0  0  0  0  0  0  0  0  0  0  0  0
   -2.4097   11.8361   38.2306 C   0  0  2  0  0  0  0  0  0  0  0  0
   -2.4829   12.2907   39.6257 C   0  0  0  0  0  0  0  0  0  0  0  0
   -3.5623   12.7257   40.3075 O   0  0  0  0  0  0  0  0  0  0  0  0
   -2.2870   12.9769   37.2885 C   0  0  0  0  0  0  0  0  0  0  0  0
   -1.1316   13.8260   37.5785 C   0  0  0  0  0  0  0  0  0  0  0  0
    0.0703   13.1491   37.8315 O   0  0  0  0  0  0  0  0  0  0  0  0
   -1.1655   15.0563   37.6020 O   0  0  0  0  0  0  0  0  0  0  0  0
   -1.3547   12.2619   40.2364 O   0  0  0  0  0  0  0  0  0  0  0  0
  1  2  2  0
  1  3  1  0
  1  4  1  0
  5  4  1  6
  5  6  1  0
  5  8  1  0
  6  7  2  0
  6 12  1  0
  8  9  1  0
  8 10  1  6
  9 11  1  0
 12 13  1  0
 13 14  1  0
 13 16  1  1
 14 15  2  0
 14 21  1  0
 16 17  1  0
 17 18  1  0
 18 19  2  0
 18 20  1  0
 21 22  1  0
 22 23  1  0
 22 25  1  6
 23 24  2  0
 23 30  1  0
 25 26  1  0
 26 27  1  0
 27 28  2  0
 27 29  1  0
 31 30  1  6
 31 32  1  0
 31 34  1  0
 32 33  2  0
 32 37  1  0
 34 35  1  1
 34 36  1  0
 37 38  1  0
 38 39  1  0
 38 41  1  6
 39 40  1  0
 39 45  2  0
 41 42  1  0
 42 43  1  0
 42 44  2  0
M  END
$$$$
