
     RDKit          3D

 45 44  0  0  0  0  0  0  0  0999 V2000
   -9.7665   12.4725   30.3862 C   0  0  0  0  0  0  0  0  0  0  0  0
  -10.9176   12.0207   30.2712 O   0  0  0  0  0  0  0  0  0  0  0  0
   -9.6439   13.6290   31.3434 C   0  0  0  0  0  0  0  0  0  0  0  0
   -8.6339   12.0104   29.7152 N   0  0  0  0  0  0  0  0  0  0  0  0
   -8.7076   10.8126   28.9231 C   0  0  2  0  0  0  0  0  0  0  0  0
   -7.8519    9.7554   29.6244 C   0  0  0  0  0  0  0  0  0  0  0  0
   -8.1331    9.4489   30.7729 O   0  0  0  0  0  0  0  0  0  0  0  0
   -7.6295   11.2365   27.7733 C   0  0  2  0  0  0  0  0  0  0  0  0
   -7.7159   10.3198   26.6056 C   0  0  0  0  0  0  0  0  0  0  0  0
   -6.2183   10.9667   28.3796 C   0  0  0  0  0  0  0  0  0  0  0  0
   -6.8148   10.8808   25.4952 C   0  0  0  0  0  0  0  0  0  0  0  0
   -6.7864    9.1922   28.9213 N   0  0  0  0  0  0  0  0  0  0  0  0
   -6.2057    8.0008   29.2254 C   0  0  2  0  0  0  0  0  0  0  0  0
   -5.3450    8.0355   30.4288 C   0  0  0  0  0  0  0  0  0  0  0  0
   -5.5272    7.2443   31.4080 O   0  0  0  0  0  0  0  0  0  0  0  0
   -5.4108    7.1935   28.2184 C   0  0  0  0  0  0  0  0  0  0  0  0
   -5.0845    5.8104   28.5552 C   0  0  0  0  0  0  0  0  0  0  0  0
   -4.5571    4.9286   27.5150 C   0  0  0  0  0  0  0  0  0  0  0  0
   -4.3200    3.7235   27.8038 O   0  0  0  0  0  0  0  0  0  0  0  0
   -4.3566    5.3298   26.2941 O   0  0  0  0  0  0  0  0  0  0  0  0
   -4.3663    9.0626   30.5876 N   0  0  0  0  0  0  0  0  0  0  0  0
   -3.6918    9.4981   31.7168 C   0  0  2  0  0  0  0  0  0  0  0  0
   -4.2442   10.0763   32.9017 C   0  0  0  0  0  0  0  0  0  0  0  0
   -4.9534   11.0686   32.8649 O   0  0  0  0  0  0  0  0  0  0  0  0
   -2.7476   10.7121   31.2981 C   0  0  0  0  0  0  0  0  0  0  0  0
   -2.2830   10.5321   29.8991 C   0  0  0  0  0  0  0  0  0  0  0  0
   -1.4188   11.5672   29.2844 C   0  0  0  0  0  0  0  0  0  0  0  0
   -1.4641   12.0626   28.1698 O   0  0  0  0  0  0  0  0  0  0  0  0
   -0.4768   12.0534   30.1913 O   0  0  0  0  0  0  0  0  0  0  0  0
   -3.9850    9.4273   34.1147 N   0  0  0  0  0  0  0  0  0  0  0  0
   -4.5016    9.7328   35.3649 C   0  0  2  0  0  0  0  0  0  0  0  0
   -3.9005   10.8090   36.0815 C   0  0  0  0  0  0  0  0  0  0  0  0
   -2.6797   11.0639   35.9334 O   0  0  0  0  0  0  0  0  0  0  0  0
   -5.0586    8.5908   36.1206 C   0  0  1  0  0  0  0  0  0  0  0  0
   -6.4247    8.1579   35.6192 C   0  0  0  0  0  0  0  0  0  0  0  0
   -4.1349    7.5588   36.5878 C   0  0  0  0  0  0  0  0  0  0  0  0
   -4.6211   11.6065   37.0414 N   0  0  0  0  0  0  0  0  0  0  0  0
   -3.9552   12.6517   37.7663 C   0  0  2  0  0  0  0  0  0  0  0  0
   -3.6411   12.4163   39.1821 C   0  0  0  0  0  0  0  0  0  0  0  0
   -2.7105   13.0261   39.9444 O   0  0  0  0  0  0  0  0  0  0  0  0
   -4.5700   13.9865   37.5563 C   0  0  0  0  0  0  0  0  0  0  0  0
   -4.4453   14.4540   36.1757 C   0  0  0  0  0  0  0  0  0  0  0  0
   -5.1404   13.7038   35.2162 O   0  0  0  0  0  0  0  0  0  0  0  0
   -3.7905   15.4392   35.8352 O   0  0  0  0  0  0  0  0  0  0  0  0
   -4.3605   11.5022   39.7239 O   0  0  0  0  0  0  0  0  0  0  0  0
  1  2  2  0
  1  3  1  0
  1  4  1  0
  5  4  1  1
  5  6  1  0
  5  8  1  0
  6  7  2  0
  6 12  1  0
  8  9  1  0
  8 10  1  1
  9 11  1  0
 12 13  1  0
 13 14  1  0
 13 16  1  6
 14 15  2  0
 14 21  1  0
 16 17  1  0
 17 18  1  0
 18 19  2  0
 18 20  1  0
 21 22  1  0
 22 23  1  0
 22 25  1  6
 23 24  2  0
 23 30  1  0
 25 26  1  0
 26 27  1  0
 27 28  2  0
 27 29  1  0
 31 30  1  6
 31 32  1  0
 31 34  1  0
 32 33  2  0
 32 37  1  0
 34 35  1  6
 34 36  1  0
 37 38  1  0
 38 39  1  0
 38 41  1  1
 39 40  1  0
 39 45  2  0
 41 42  1  0
 42 43  1  0
 42 44  2  0
M  END
$$$$
