
     RDKit          3D

 45 44  0  0  0  0  0  0  0  0999 V2000
  -13.9357    9.8525   32.2680 C   0  0  0  0  0  0  0  0  0  0  0  0
  -13.8289    8.6732   31.8937 O   0  0  0  0  0  0  0  0  0  0  0  0
  -15.2993   10.4542   32.0504 C   0  0  0  0  0  0  0  0  0  0  0  0
  -12.9251   10.6251   32.8412 N   0  0  0  0  0  0  0  0  0  0  0  0
  -11.6017   10.0822   32.9870 C   0  0  2  0  0  0  0  0  0  0  0  0
  -10.7692   10.6031   31.8134 C   0  0  0  0  0  0  0  0  0  0  0  0
  -11.3457   10.8954   30.7769 O   0  0  0  0  0  0  0  0  0  0  0  0
  -11.9034    8.5917   32.3944 C   0  0  2  0  0  0  0  0  0  0  0  0
  -12.6308    8.6760   31.1001 C   0  0  0  0  0  0  0  0  0  0  0  0
  -12.9219    7.9322   33.3739 C   0  0  0  0  0  0  0  0  0  0  0  0
  -12.0795    7.5809   30.1746 C   0  0  0  0  0  0  0  0  0  0  0  0
   -9.3885   10.7167   31.9791 N   0  0  0  0  0  0  0  0  0  0  0  0
   -8.5782   11.4795   31.1976 C   0  0  2  0  0  0  0  0  0  0  0  0
   -7.1367   11.3417   31.5028 C   0  0  0  0  0  0  0  0  0  0  0  0
   -6.2623   12.0973   30.9715 O   0  0  0  0  0  0  0  0  0  0  0  0
   -8.7819   12.9700   31.0116 C   0  0  0  0  0  0  0  0  0  0  0  0
   -8.5087   13.8447   32.1486 C   0  0  0  0  0  0  0  0  0  0  0  0
   -9.6165   14.2723   33.0016 C   0  0  0  0  0  0  0  0  0  0  0  0
  -10.4479   15.1044   32.5452 O   0  0  0  0  0  0  0  0  0  0  0  0
   -9.7982   13.8007   34.2002 O   0  0  0  0  0  0  0  0  0  0  0  0
   -6.6678   10.2541   32.2999 N   0  0  0  0  0  0  0  0  0  0  0  0
   -5.3900    9.9395   32.7335 C   0  0  2  0  0  0  0  0  0  0  0  0
   -4.5138   10.7349   33.5354 C   0  0  0  0  0  0  0  0  0  0  0  0
   -4.2615   11.8960   33.2578 O   0  0  0  0  0  0  0  0  0  0  0  0
   -4.4494    9.7956   31.4548 C   0  0  0  0  0  0  0  0  0  0  0  0
   -3.0755   10.2535   31.7836 C   0  0  0  0  0  0  0  0  0  0  0  0
   -2.5871   11.5366   31.2255 C   0  0  0  0  0  0  0  0  0  0  0  0
   -2.8881   12.6822   31.5199 O   0  0  0  0  0  0  0  0  0  0  0  0
   -1.5870   11.3344   30.2742 O   0  0  0  0  0  0  0  0  0  0  0  0
   -3.9908   10.1466   34.6931 N   0  0  0  0  0  0  0  0  0  0  0  0
   -3.5244   10.7876   35.8311 C   0  0  2  0  0  0  0  0  0  0  0  0
   -2.4213   11.6785   35.6805 C   0  0  0  0  0  0  0  0  0  0  0  0
   -2.4075   12.7769   36.2892 O   0  0  0  0  0  0  0  0  0  0  0  0
   -3.6674   10.0304   37.0927 C   0  0  1  0  0  0  0  0  0  0  0  0
   -3.1106   10.7714   38.2951 C   0  0  0  0  0  0  0  0  0  0  0  0
   -4.8700    9.2200   37.2762 C   0  0  0  0  0  0  0  0  0  0  0  0
   -1.3164   11.4099   34.7952 N   0  0  0  0  0  0  0  0  0  0  0  0
   -0.2796   12.3854   34.6078 C   0  0  2  0  0  0  0  0  0  0  0  0
   -0.6704   13.7993   34.5258 C   0  0  0  0  0  0  0  0  0  0  0  0
   -1.5696   14.3712   33.6990 O   0  0  0  0  0  0  0  0  0  0  0  0
    0.6758   12.0179   33.5326 C   0  0  0  0  0  0  0  0  0  0  0  0
    1.7893   11.2047   34.0213 C   0  0  0  0  0  0  0  0  0  0  0  0
    2.4361   11.6883   35.1678 O   0  0  0  0  0  0  0  0  0  0  0  0
    2.1626   10.1556   33.4966 O   0  0  0  0  0  0  0  0  0  0  0  0
   -0.0500   14.5539   35.3577 O   0  0  0  0  0  0  0  0  0  0  0  0
  1  2  2  0
  1  3  1  0
  1  4  1  0
  5  4  1  6
  5  6  1  0
  5  8  1  0
  6  7  2  0
  6 12  1  0
  8  9  1  0
  8 10  1  1
  9 11  1  0
 12 13  1  0
 13 14  1  0
 13 16  1  1
 14 15  2  0
 14 21  1  0
 16 17  1  0
 17 18  1  0
 18 19  2  0
 18 20  1  0
 21 22  1  0
 22 23  1  0
 22 25  1  6
 23 24  2  0
 23 30  1  0
 25 26  1  0
 26 27  1  0
 27 28  2  0
 27 29  1  0
 31 30  1  6
 31 32  1  0
 31 34  1  0
 32 33  2  0
 32 37  1  0
 34 35  1  1
 34 36  1  0
 37 38  1  0
 38 39  1  0
 38 41  1  6
 39 40  1  0
 39 45  2  0
 41 42  1  0
 42 43  1  0
 42 44  2  0
M  END
$$$$
