
     RDKit          3D

 45 44  0  0  0  0  0  0  0  0999 V2000
   -1.1315    9.2447   26.4120 C   0  0  0  0  0  0  0  0  0  0  0  0
   -1.8902    8.7463   25.5645 O   0  0  0  0  0  0  0  0  0  0  0  0
    0.0179   10.0288   25.8349 C   0  0  0  0  0  0  0  0  0  0  0  0
   -1.2591    9.1270   27.7964 N   0  0  0  0  0  0  0  0  0  0  0  0
   -2.3709    8.4072   28.3561 C   0  0  2  0  0  0  0  0  0  0  0  0
   -3.3881    9.4473   28.8305 C   0  0  0  0  0  0  0  0  0  0  0  0
   -2.9802   10.5505   29.1600 O   0  0  0  0  0  0  0  0  0  0  0  0
   -1.7113    8.0698   29.8104 C   0  0  2  0  0  0  0  0  0  0  0  0
   -2.5071    8.6846   30.9059 C   0  0  0  0  0  0  0  0  0  0  0  0
   -0.3439    8.8183   29.8519 C   0  0  0  0  0  0  0  0  0  0  0  0
   -1.8533    8.2976   32.2411 C   0  0  0  0  0  0  0  0  0  0  0  0
   -4.7356    9.0869   28.8690 N   0  0  0  0  0  0  0  0  0  0  0  0
   -5.7407    9.9035   29.2838 C   0  0  2  0  0  0  0  0  0  0  0  0
   -5.4549   10.6246   30.5442 C   0  0  0  0  0  0  0  0  0  0  0  0
   -5.2178   11.8741   30.5644 O   0  0  0  0  0  0  0  0  0  0  0  0
   -7.1726    9.4309   29.4380 C   0  0  0  0  0  0  0  0  0  0  0  0
   -8.2404   10.4058   29.2334 C   0  0  0  0  0  0  0  0  0  0  0  0
   -9.4002   10.0338   28.4245 C   0  0  0  0  0  0  0  0  0  0  0  0
   -9.4569    8.8683   27.9447 O   0  0  0  0  0  0  0  0  0  0  0  0
  -10.3926   10.8468   28.2101 O   0  0  0  0  0  0  0  0  0  0  0  0
   -5.2948    9.9058   31.7673 N   0  0  0  0  0  0  0  0  0  0  0  0
   -5.6667   10.2341   33.0610 C   0  0  2  0  0  0  0  0  0  0  0  0
   -5.0399    9.8369   34.2828 C   0  0  0  0  0  0  0  0  0  0  0  0
   -5.4959    8.9469   34.9820 O   0  0  0  0  0  0  0  0  0  0  0  0
   -7.1078    9.6127   33.3398 C   0  0  0  0  0  0  0  0  0  0  0  0
   -8.0855   10.6999   33.5997 C   0  0  0  0  0  0  0  0  0  0  0  0
   -8.2151   11.8059   32.6218 C   0  0  0  0  0  0  0  0  0  0  0  0
   -8.9958   11.9409   31.6932 O   0  0  0  0  0  0  0  0  0  0  0  0
   -7.3284   12.8455   32.9028 O   0  0  0  0  0  0  0  0  0  0  0  0
   -3.8420   10.4742   34.6274 N   0  0  0  0  0  0  0  0  0  0  0  0
   -3.2489   10.5407   35.8793 C   0  0  2  0  0  0  0  0  0  0  0  0
   -3.9918   11.1571   36.9287 C   0  0  0  0  0  0  0  0  0  0  0  0
   -4.5880   10.4523   37.7802 O   0  0  0  0  0  0  0  0  0  0  0  0
   -1.7750   10.6559   35.8807 C   0  0  1  0  0  0  0  0  0  0  0  0
   -1.1622   10.4048   37.2468 C   0  0  0  0  0  0  0  0  0  0  0  0
   -1.0475   10.1920   34.7009 C   0  0  0  0  0  0  0  0  0  0  0  0
   -4.1533   12.5850   37.0360 N   0  0  0  0  0  0  0  0  0  0  0  0
   -4.9262   13.1522   38.1050 C   0  0  2  0  0  0  0  0  0  0  0  0
   -6.3790   12.9335   38.0962 C   0  0  0  0  0  0  0  0  0  0  0  0
   -7.2449   13.1116   37.0775 O   0  0  0  0  0  0  0  0  0  0  0  0
   -4.5877   14.5719   38.3763 C   0  0  0  0  0  0  0  0  0  0  0  0
   -4.8984   14.9735   39.7483 C   0  0  0  0  0  0  0  0  0  0  0  0
   -5.2777   13.9364   40.6127 O   0  0  0  0  0  0  0  0  0  0  0  0
   -4.8372   16.1316   40.1610 O   0  0  0  0  0  0  0  0  0  0  0  0
   -6.8454   12.5286   39.2209 O   0  0  0  0  0  0  0  0  0  0  0  0
  1  2  2  0
  1  3  1  0
  1  4  1  0
  5  4  1  6
  5  6  1  0
  5  8  1  0
  6  7  2  0
  6 12  1  0
  8  9  1  0
  8 10  1  6
  9 11  1  0
 12 13  1  0
 13 14  1  0
 13 16  1  1
 14 15  2  0
 14 21  1  0
 16 17  1  0
 17 18  1  0
 18 19  2  0
 18 20  1  0
 21 22  1  0
 22 23  1  0
 22 25  1  1
 23 24  2  0
 23 30  1  0
 25 26  1  0
 26 27  1  0
 27 28  2  0
 27 29  1  0
 31 30  1  6
 31 32  1  0
 31 34  1  0
 32 33  2  0
 32 37  1  0
 34 35  1  1
 34 36  1  0
 37 38  1  0
 38 39  1  0
 38 41  1  6
 39 40  1  0
 39 45  2  0
 41 42  1  0
 42 43  1  0
 42 44  2  0
M  END
$$$$
