
     RDKit          3D

 45 44  0  0  0  0  0  0  0  0999 V2000
   -7.4390    7.2904   25.6015 C   0  0  0  0  0  0  0  0  0  0  0  0
   -8.6327    7.0041   25.4135 O   0  0  0  0  0  0  0  0  0  0  0  0
   -6.7613    7.9406   24.4239 C   0  0  0  0  0  0  0  0  0  0  0  0
   -6.7138    7.0546   26.7699 N   0  0  0  0  0  0  0  0  0  0  0  0
   -7.3864    6.5791   27.9486 C   0  0  2  0  0  0  0  0  0  0  0  0
   -7.2717    7.6783   29.0070 C   0  0  0  0  0  0  0  0  0  0  0  0
   -6.5859    8.6573   28.7557 O   0  0  0  0  0  0  0  0  0  0  0  0
   -6.1982    5.6118   28.5108 C   0  0  2  0  0  0  0  0  0  0  0  0
   -4.8684    6.2543   28.3371 C   0  0  0  0  0  0  0  0  0  0  0  0
   -6.1613    4.3730   27.5642 C   0  0  0  0  0  0  0  0  0  0  0  0
   -4.3828    6.7192   29.7184 C   0  0  0  0  0  0  0  0  0  0  0  0
   -7.9529    7.5105   30.2131 N   0  0  0  0  0  0  0  0  0  0  0  0
   -8.0000    8.4369   31.2075 C   0  0  2  0  0  0  0  0  0  0  0  0
   -6.7007    8.6776   31.8739 C   0  0  0  0  0  0  0  0  0  0  0  0
   -6.0873    7.7574   32.5022 O   0  0  0  0  0  0  0  0  0  0  0  0
   -8.9991    8.3705   32.3455 C   0  0  0  0  0  0  0  0  0  0  0  0
   -9.0601    9.5003   33.2688 C   0  0  0  0  0  0  0  0  0  0  0  0
  -10.2412    9.6674   34.1142 C   0  0  0  0  0  0  0  0  0  0  0  0
  -10.2427   10.5846   34.9806 O   0  0  0  0  0  0  0  0  0  0  0  0
  -11.3044    8.9296   33.9834 O   0  0  0  0  0  0  0  0  0  0  0  0
   -6.1629    9.9978   31.9526 N   0  0  0  0  0  0  0  0  0  0  0  0
   -5.0470   10.4782   32.6187 C   0  0  2  0  0  0  0  0  0  0  0  0
   -4.9630   10.9485   33.9660 C   0  0  0  0  0  0  0  0  0  0  0  0
   -5.8669   11.5825   34.4854 O   0  0  0  0  0  0  0  0  0  0  0  0
   -4.5643   11.8106   31.8891 C   0  0  0  0  0  0  0  0  0  0  0  0
   -4.2385   11.5201   30.4697 C   0  0  0  0  0  0  0  0  0  0  0  0
   -3.0667   10.6690   30.1554 C   0  0  0  0  0  0  0  0  0  0  0  0
   -2.3074   10.0763   30.9051 O   0  0  0  0  0  0  0  0  0  0  0  0
   -2.9043   10.5077   28.7793 O   0  0  0  0  0  0  0  0  0  0  0  0
   -3.8179   10.6074   34.6956 N   0  0  0  0  0  0  0  0  0  0  0  0
   -3.5460   10.8925   36.0253 C   0  0  2  0  0  0  0  0  0  0  0  0
   -3.6743   12.2480   36.4484 C   0  0  0  0  0  0  0  0  0  0  0  0
   -2.9196   13.1330   35.9743 O   0  0  0  0  0  0  0  0  0  0  0  0
   -2.5253   10.0353   36.6648 C   0  0  1  0  0  0  0  0  0  0  0  0
   -1.9276   10.6569   37.9143 C   0  0  0  0  0  0  0  0  0  0  0  0
   -2.7304    8.5882   36.6430 C   0  0  0  0  0  0  0  0  0  0  0  0
   -4.6074   12.6634   37.4649 N   0  0  0  0  0  0  0  0  0  0  0  0
   -4.7841   14.0561   37.7662 C   0  0  2  0  0  0  0  0  0  0  0  0
   -4.4457   15.0348   36.7240 C   0  0  0  0  0  0  0  0  0  0  0  0
   -5.0169   16.2332   36.4857 O   0  0  0  0  0  0  0  0  0  0  0  0
   -4.2190   14.4414   39.0837 C   0  0  0  0  0  0  0  0  0  0  0  0
   -3.5322   13.3338   39.7484 C   0  0  0  0  0  0  0  0  0  0  0  0
   -3.0132   13.6176   41.0199 O   0  0  0  0  0  0  0  0  0  0  0  0
   -3.4020   12.2097   39.2638 O   0  0  0  0  0  0  0  0  0  0  0  0
   -3.4845   14.6618   35.9601 O   0  0  0  0  0  0  0  0  0  0  0  0
  1  2  2  0
  1  3  1  0
  1  4  1  0
  5  4  1  6
  5  6  1  0
  5  8  1  0
  6  7  2  0
  6 12  1  0
  8  9  1  0
  8 10  1  6
  9 11  1  0
 12 13  1  0
 13 14  1  0
 13 16  1  1
 14 15  2  0
 14 21  1  0
 16 17  1  0
 17 18  1  0
 18 19  2  0
 18 20  1  0
 21 22  1  0
 22 23  1  0
 22 25  1  6
 23 24  2  0
 23 30  1  0
 25 26  1  0
 26 27  1  0
 27 28  2  0
 27 29  1  0
 31 30  1  6
 31 32  1  0
 31 34  1  0
 32 33  2  0
 32 37  1  0
 34 35  1  1
 34 36  1  0
 37 38  1  0
 38 39  1  0
 38 41  1  1
 39 40  1  0
 39 45  2  0
 41 42  1  0
 42 43  1  0
 42 44  2  0
M  END
$$$$
