
     RDKit          3D

 45 44  0  0  0  0  0  0  0  0999 V2000
   -6.6797    8.2512   28.6134 C   0  0  0  0  0  0  0  0  0  0  0  0
   -5.6521    8.9288   28.7785 O   0  0  0  0  0  0  0  0  0  0  0  0
   -6.4571    6.7619   28.6537 C   0  0  0  0  0  0  0  0  0  0  0  0
   -7.9642    8.7501   28.3949 N   0  0  0  0  0  0  0  0  0  0  0  0
   -8.3434   10.0227   28.9466 C   0  0  2  0  0  0  0  0  0  0  0  0
   -8.2106    9.9120   30.4671 C   0  0  0  0  0  0  0  0  0  0  0  0
   -7.8465   10.8965   31.0915 O   0  0  0  0  0  0  0  0  0  0  0  0
   -9.9620    9.8338   28.8559 C   0  0  2  0  0  0  0  0  0  0  0  0
  -10.4272    9.9389   27.4474 C   0  0  0  0  0  0  0  0  0  0  0  0
  -10.5852   11.0734   29.5678 C   0  0  0  0  0  0  0  0  0  0  0  0
  -11.9421    9.6851   27.4286 C   0  0  0  0  0  0  0  0  0  0  0  0
   -8.5078    8.6897   31.0710 N   0  0  0  0  0  0  0  0  0  0  0  0
   -8.5004    8.4707   32.4131 C   0  0  2  0  0  0  0  0  0  0  0  0
   -7.1488    8.3055   32.9929 C   0  0  0  0  0  0  0  0  0  0  0  0
   -6.9401    7.5746   34.0127 O   0  0  0  0  0  0  0  0  0  0  0  0
   -9.3273    7.3851   33.0729 C   0  0  0  0  0  0  0  0  0  0  0  0
  -10.7757    7.4221   32.8898 C   0  0  0  0  0  0  0  0  0  0  0  0
  -11.5628    8.4086   33.6280 C   0  0  0  0  0  0  0  0  0  0  0  0
  -12.8004    8.4932   33.3975 O   0  0  0  0  0  0  0  0  0  0  0  0
  -11.0427    9.1780   34.5387 O   0  0  0  0  0  0  0  0  0  0  0  0
   -6.0541    9.0820   32.5062 N   0  0  0  0  0  0  0  0  0  0  0  0
   -4.7887    9.2854   33.0327 C   0  0  2  0  0  0  0  0  0  0  0  0
   -4.3899   10.2434   34.0157 C   0  0  0  0  0  0  0  0  0  0  0  0
   -5.0191   11.2712   34.2072 O   0  0  0  0  0  0  0  0  0  0  0  0
   -3.8281    9.7647   31.8545 C   0  0  0  0  0  0  0  0  0  0  0  0
   -3.8478    8.7717   30.7504 C   0  0  0  0  0  0  0  0  0  0  0  0
   -2.7238    8.7400   29.7852 C   0  0  0  0  0  0  0  0  0  0  0  0
   -1.9409    7.8400   29.5260 O   0  0  0  0  0  0  0  0  0  0  0  0
   -2.6472    9.9220   29.0482 O   0  0  0  0  0  0  0  0  0  0  0  0
   -3.2704    9.9343   34.7974 N   0  0  0  0  0  0  0  0  0  0  0  0
   -2.6951   10.7077   35.7945 C   0  0  2  0  0  0  0  0  0  0  0  0
   -2.3514   12.0528   35.4696 C   0  0  0  0  0  0  0  0  0  0  0  0
   -3.0524   12.7066   34.6581 O   0  0  0  0  0  0  0  0  0  0  0  0
   -1.8661    9.9722   36.7729 C   0  0  1  0  0  0  0  0  0  0  0  0
   -1.2506   10.8758   37.8263 C   0  0  0  0  0  0  0  0  0  0  0  0
   -2.3009    8.6363   37.1766 C   0  0  0  0  0  0  0  0  0  0  0  0
   -1.1753   12.7048   35.9876 N   0  0  0  0  0  0  0  0  0  0  0  0
   -0.7853   13.9980   35.5006 C   0  0  2  0  0  0  0  0  0  0  0  0
    0.4452   14.5944   36.0381 C   0  0  0  0  0  0  0  0  0  0  0  0
    1.4987   13.9702   36.6035 O   0  0  0  0  0  0  0  0  0  0  0  0
   -1.9043   14.9734   35.4829 C   0  0  0  0  0  0  0  0  0  0  0  0
   -2.5984   15.0587   36.7678 C   0  0  0  0  0  0  0  0  0  0  0  0
   -3.1880   13.8689   37.2189 O   0  0  0  0  0  0  0  0  0  0  0  0
   -2.6779   16.0839   37.4446 O   0  0  0  0  0  0  0  0  0  0  0  0
    0.4802   15.8737   35.9454 O   0  0  0  0  0  0  0  0  0  0  0  0
  1  2  2  0
  1  3  1  0
  1  4  1  0
  5  4  1  6
  5  6  1  0
  5  8  1  0
  6  7  2  0
  6 12  1  0
  8  9  1  0
  8 10  1  1
  9 11  1  0
 12 13  1  0
 13 14  1  0
 13 16  1  6
 14 15  2  0
 14 21  1  0
 16 17  1  0
 17 18  1  0
 18 19  2  0
 18 20  1  0
 21 22  1  0
 22 23  1  0
 22 25  1  6
 23 24  2  0
 23 30  1  0
 25 26  1  0
 26 27  1  0
 27 28  2  0
 27 29  1  0
 31 30  1  6
 31 32  1  0
 31 34  1  0
 32 33  2  0
 32 37  1  0
 34 35  1  1
 34 36  1  0
 37 38  1  0
 38 39  1  0
 38 41  1  1
 39 40  1  0
 39 45  2  0
 41 42  1  0
 42 43  1  0
 42 44  2  0
M  END
$$$$
