
     RDKit          3D

 45 44  0  0  0  0  0  0  0  0999 V2000
   -8.5195    9.6789   31.3351 C   0  0  0  0  0  0  0  0  0  0  0  0
   -8.4718    9.8275   32.5671 O   0  0  0  0  0  0  0  0  0  0  0  0
   -8.9932   10.8926   30.5791 C   0  0  0  0  0  0  0  0  0  0  0  0
   -8.1886    8.5176   30.6361 N   0  0  0  0  0  0  0  0  0  0  0  0
   -7.6728    7.3767   31.3431 C   0  0  2  0  0  0  0  0  0  0  0  0
   -6.2447    7.1455   30.8442 C   0  0  0  0  0  0  0  0  0  0  0  0
   -5.9547    6.0440   30.4033 O   0  0  0  0  0  0  0  0  0  0  0  0
   -8.4023    6.2152   30.4585 C   0  0  2  0  0  0  0  0  0  0  0  0
   -8.3263    6.5314   29.0074 C   0  0  0  0  0  0  0  0  0  0  0  0
   -9.9219    6.2993   30.7987 C   0  0  0  0  0  0  0  0  0  0  0  0
   -9.0465    5.4122   28.2403 C   0  0  0  0  0  0  0  0  0  0  0  0
   -5.3372    8.2027   30.9193 N   0  0  0  0  0  0  0  0  0  0  0  0
   -4.0753    8.1733   30.4135 C   0  0  2  0  0  0  0  0  0  0  0  0
   -3.3301    9.4424   30.5689 C   0  0  0  0  0  0  0  0  0  0  0  0
   -2.1254    9.5660   30.1798 O   0  0  0  0  0  0  0  0  0  0  0  0
   -3.7680    7.7283   28.9974 C   0  0  0  0  0  0  0  0  0  0  0  0
   -3.1153    8.6840   28.1067 C   0  0  0  0  0  0  0  0  0  0  0  0
   -1.9171    8.2741   27.3759 C   0  0  0  0  0  0  0  0  0  0  0  0
   -2.0175    7.3644   26.5074 O   0  0  0  0  0  0  0  0  0  0  0  0
   -0.7588    8.8359   27.5614 O   0  0  0  0  0  0  0  0  0  0  0  0
   -3.9004   10.5305   31.2962 N   0  0  0  0  0  0  0  0  0  0  0  0
   -3.5681   11.0612   32.5322 C   0  0  2  0  0  0  0  0  0  0  0  0
   -3.6697   10.4349   33.8131 C   0  0  0  0  0  0  0  0  0  0  0  0
   -3.8114    9.2288   33.9319 O   0  0  0  0  0  0  0  0  0  0  0  0
   -4.5258   12.3031   32.8169 C   0  0  0  0  0  0  0  0  0  0  0  0
   -5.4429   11.9870   33.9414 C   0  0  0  0  0  0  0  0  0  0  0  0
   -6.4725   12.9770   34.3361 C   0  0  0  0  0  0  0  0  0  0  0  0
   -7.2745   13.5877   33.6477 O   0  0  0  0  0  0  0  0  0  0  0  0
   -6.5253   13.1378   35.7208 O   0  0  0  0  0  0  0  0  0  0  0  0
   -3.5461   11.2548   34.9411 N   0  0  0  0  0  0  0  0  0  0  0  0
   -2.8707   10.9758   36.1198 C   0  0  2  0  0  0  0  0  0  0  0  0
   -3.0187   11.8969   37.1981 C   0  0  0  0  0  0  0  0  0  0  0  0
   -2.5644   11.6180   38.3353 O   0  0  0  0  0  0  0  0  0  0  0  0
   -1.5905   10.2530   35.9648 C   0  0  1  0  0  0  0  0  0  0  0  0
   -0.9128    9.9567   37.2906 C   0  0  0  0  0  0  0  0  0  0  0  0
   -1.4862    9.2592   34.8979 C   0  0  0  0  0  0  0  0  0  0  0  0
   -3.7352   13.1406   37.0695 N   0  0  0  0  0  0  0  0  0  0  0  0
   -3.8901   14.0121   38.2000 C   0  0  2  0  0  0  0  0  0  0  0  0
   -5.0859   13.8483   39.0377 C   0  0  0  0  0  0  0  0  0  0  0  0
   -5.4534   14.5655   40.1192 O   0  0  0  0  0  0  0  0  0  0  0  0
   -3.6427   15.4386   37.8716 C   0  0  0  0  0  0  0  0  0  0  0  0
   -4.4452   15.9042   36.7405 C   0  0  0  0  0  0  0  0  0  0  0  0
   -4.7807   14.9274   35.7919 O   0  0  0  0  0  0  0  0  0  0  0  0
   -4.8283   17.0650   36.5952 O   0  0  0  0  0  0  0  0  0  0  0  0
   -5.8480   12.8858   38.6644 O   0  0  0  0  0  0  0  0  0  0  0  0
  1  2  2  0
  1  3  1  0
  1  4  1  0
  5  4  1  6
  5  6  1  0
  5  8  1  0
  6  7  2  0
  6 12  1  0
  8  9  1  0
  8 10  1  1
  9 11  1  0
 12 13  1  0
 13 14  1  0
 13 16  1  6
 14 15  2  0
 14 21  1  0
 16 17  1  0
 17 18  1  0
 18 19  2  0
 18 20  1  0
 21 22  1  0
 22 23  1  0
 22 25  1  1
 23 24  2  0
 23 30  1  0
 25 26  1  0
 26 27  1  0
 27 28  2  0
 27 29  1  0
 31 30  1  6
 31 32  1  0
 31 34  1  0
 32 33  2  0
 32 37  1  0
 34 35  1  1
 34 36  1  0
 37 38  1  0
 38 39  1  0
 38 41  1  6
 39 40  1  0
 39 45  2  0
 41 42  1  0
 42 43  1  0
 42 44  2  0
M  END
$$$$
