
     RDKit          3D

 45 44  0  0  0  0  0  0  0  0999 V2000
  -12.0625   11.1366   34.5485 C   0  0  0  0  0  0  0  0  0  0  0  0
  -11.0631   11.1083   35.2852 O   0  0  0  0  0  0  0  0  0  0  0  0
  -13.0218   12.2600   34.8428 C   0  0  0  0  0  0  0  0  0  0  0  0
  -12.3491   10.2372   33.5211 N   0  0  0  0  0  0  0  0  0  0  0  0
  -11.3359    9.3265   33.0609 C   0  0  2  0  0  0  0  0  0  0  0  0
  -10.7034    9.9490   31.8143 C   0  0  0  0  0  0  0  0  0  0  0  0
  -11.3922   10.6756   31.1146 O   0  0  0  0  0  0  0  0  0  0  0  0
  -12.3157    8.2656   32.3004 C   0  0  2  0  0  0  0  0  0  0  0  0
  -13.3075    8.9783   31.4520 C   0  0  0  0  0  0  0  0  0  0  0  0
  -13.1695    7.5863   33.4145 C   0  0  0  0  0  0  0  0  0  0  0  0
  -12.8884    8.8031   29.9845 C   0  0  0  0  0  0  0  0  0  0  0  0
   -9.3691    9.6550   31.5311 N   0  0  0  0  0  0  0  0  0  0  0  0
   -8.3757   10.5802   31.4516 C   0  0  2  0  0  0  0  0  0  0  0  0
   -7.1643   10.2373   32.2296 C   0  0  0  0  0  0  0  0  0  0  0  0
   -7.2097   10.0197   33.4820 O   0  0  0  0  0  0  0  0  0  0  0  0
   -8.5995   12.0524   31.7345 C   0  0  0  0  0  0  0  0  0  0  0  0
   -9.4549   12.8025   30.8188 C   0  0  0  0  0  0  0  0  0  0  0  0
   -9.7175   14.2159   31.0849 C   0  0  0  0  0  0  0  0  0  0  0  0
  -10.4645   14.8540   30.2930 O   0  0  0  0  0  0  0  0  0  0  0  0
   -9.2397   14.8318   32.1261 O   0  0  0  0  0  0  0  0  0  0  0  0
   -5.8757   10.2816   31.6169 N   0  0  0  0  0  0  0  0  0  0  0  0
   -4.6201   10.0139   32.1381 C   0  0  2  0  0  0  0  0  0  0  0  0
   -3.8506   10.8197   33.0335 C   0  0  0  0  0  0  0  0  0  0  0  0
   -4.1534   11.9750   33.2837 O   0  0  0  0  0  0  0  0  0  0  0  0
   -3.5782    9.9665   30.9328 C   0  0  0  0  0  0  0  0  0  0  0  0
   -4.2038    9.3249   29.7485 C   0  0  0  0  0  0  0  0  0  0  0  0
   -4.3695    7.8524   29.7260 C   0  0  0  0  0  0  0  0  0  0  0  0
   -5.3883    7.1805   29.7064 O   0  0  0  0  0  0  0  0  0  0  0  0
   -3.1394    7.1991   29.6477 O   0  0  0  0  0  0  0  0  0  0  0  0
   -2.7557   10.2153   33.6625 N   0  0  0  0  0  0  0  0  0  0  0  0
   -1.7184   10.8393   34.3393 C   0  0  2  0  0  0  0  0  0  0  0  0
   -0.4664   10.9526   33.6667 C   0  0  0  0  0  0  0  0  0  0  0  0
    0.0230    9.9621   33.0694 O   0  0  0  0  0  0  0  0  0  0  0  0
   -1.7310   10.6819   35.8093 C   0  0  1  0  0  0  0  0  0  0  0  0
   -2.8446   11.4660   36.4799 C   0  0  0  0  0  0  0  0  0  0  0  0
   -1.3721    9.3783   36.3647 C   0  0  0  0  0  0  0  0  0  0  0  0
    0.3233   12.1580   33.6851 N   0  0  0  0  0  0  0  0  0  0  0  0
    1.6045   12.1993   33.0383 C   0  0  2  0  0  0  0  0  0  0  0  0
    2.4038   10.9668   33.0135 C   0  0  0  0  0  0  0  0  0  0  0  0
    2.4770   10.0377   32.0386 O   0  0  0  0  0  0  0  0  0  0  0  0
    2.4200   13.3730   33.4399 C   0  0  0  0  0  0  0  0  0  0  0  0
    1.6292   14.5992   33.5465 C   0  0  0  0  0  0  0  0  0  0  0  0
    2.1865   15.7349   32.9413 O   0  0  0  0  0  0  0  0  0  0  0  0
    0.5392   14.6725   34.1139 O   0  0  0  0  0  0  0  0  0  0  0  0
    3.1014   10.7841   34.0749 O   0  0  0  0  0  0  0  0  0  0  0  0
  1  2  2  0
  1  3  1  0
  1  4  1  0
  5  4  1  6
  5  6  1  0
  5  8  1  0
  6  7  2  0
  6 12  1  0
  8  9  1  0
  8 10  1  1
  9 11  1  0
 12 13  1  0
 13 14  1  0
 13 16  1  1
 14 15  2  0
 14 21  1  0
 16 17  1  0
 17 18  1  0
 18 19  2  0
 18 20  1  0
 21 22  1  0
 22 23  1  0
 22 25  1  6
 23 24  2  0
 23 30  1  0
 25 26  1  0
 26 27  1  0
 27 28  2  0
 27 29  1  0
 31 30  1  6
 31 32  1  0
 31 34  1  0
 32 33  2  0
 32 37  1  0
 34 35  1  6
 34 36  1  0
 37 38  1  0
 38 39  1  0
 38 41  1  1
 39 40  1  0
 39 45  2  0
 41 42  1  0
 42 43  1  0
 42 44  2  0
M  END
$$$$
