
     RDKit          3D

 45 44  0  0  0  0  0  0  0  0999 V2000
   -6.5171    6.3708   27.3020 C   0  0  0  0  0  0  0  0  0  0  0  0
   -7.5263    6.5242   28.0094 O   0  0  0  0  0  0  0  0  0  0  0  0
   -6.5176    7.1804   26.0318 C   0  0  0  0  0  0  0  0  0  0  0  0
   -5.4375    5.5334   27.5849 N   0  0  0  0  0  0  0  0  0  0  0  0
   -4.7421    5.6570   28.8373 C   0  0  2  0  0  0  0  0  0  0  0  0
   -4.8929    7.1094   29.2949 C   0  0  0  0  0  0  0  0  0  0  0  0
   -3.8906    7.8043   29.3618 O   0  0  0  0  0  0  0  0  0  0  0  0
   -3.2266    5.7731   28.2426 C   0  0  2  0  0  0  0  0  0  0  0  0
   -2.8241    7.1974   28.0988 C   0  0  0  0  0  0  0  0  0  0  0  0
   -3.2907    5.2346   26.7806 C   0  0  0  0  0  0  0  0  0  0  0  0
   -1.2892    7.2590   28.1053 C   0  0  0  0  0  0  0  0  0  0  0  0
   -6.1684    7.5731   29.6189 N   0  0  0  0  0  0  0  0  0  0  0  0
   -6.4253    8.5529   30.5262 C   0  0  2  0  0  0  0  0  0  0  0  0
   -5.4034    8.6778   31.5893 C   0  0  0  0  0  0  0  0  0  0  0  0
   -5.4345    7.9595   32.6386 O   0  0  0  0  0  0  0  0  0  0  0  0
   -7.7467    8.6672   31.2600 C   0  0  0  0  0  0  0  0  0  0  0  0
   -8.5238    9.8909   31.0830 C   0  0  0  0  0  0  0  0  0  0  0  0
   -8.3352   10.9971   32.0202 C   0  0  0  0  0  0  0  0  0  0  0  0
   -9.3473   11.4862   32.5934 O   0  0  0  0  0  0  0  0  0  0  0  0
   -7.1605   11.4729   32.3127 O   0  0  0  0  0  0  0  0  0  0  0  0
   -4.4259    9.7167   31.5333 N   0  0  0  0  0  0  0  0  0  0  0  0
   -3.4835   10.1189   32.4660 C   0  0  2  0  0  0  0  0  0  0  0  0
   -3.7021   10.5076   33.8241 C   0  0  0  0  0  0  0  0  0  0  0  0
   -4.7111   11.0996   34.1712 O   0  0  0  0  0  0  0  0  0  0  0  0
   -2.8186   11.4736   31.9527 C   0  0  0  0  0  0  0  0  0  0  0  0
   -3.2699   12.6095   32.7962 C   0  0  0  0  0  0  0  0  0  0  0  0
   -2.9606   13.9949   32.3705 C   0  0  0  0  0  0  0  0  0  0  0  0
   -2.0474   14.4145   31.6776 O   0  0  0  0  0  0  0  0  0  0  0  0
   -3.9351   14.8942   32.8037 O   0  0  0  0  0  0  0  0  0  0  0  0
   -2.7330   10.1351   34.7632 N   0  0  0  0  0  0  0  0  0  0  0  0
   -2.6349   10.5431   36.0850 C   0  0  2  0  0  0  0  0  0  0  0  0
   -3.4597   11.6286   36.5027 C   0  0  0  0  0  0  0  0  0  0  0  0
   -3.1143   12.8128   36.2669 O   0  0  0  0  0  0  0  0  0  0  0  0
   -1.3050   10.3722   36.7076 C   0  0  1  0  0  0  0  0  0  0  0  0
   -1.1981   11.0358   38.0688 C   0  0  0  0  0  0  0  0  0  0  0  0
   -0.6053    9.1059   36.4991 C   0  0  0  0  0  0  0  0  0  0  0  0
   -4.6734   11.4414   37.2568 N   0  0  0  0  0  0  0  0  0  0  0  0
   -5.4093   12.5735   37.7452 C   0  0  2  0  0  0  0  0  0  0  0  0
   -4.7619   13.4389   38.7404 C   0  0  0  0  0  0  0  0  0  0  0  0
   -4.6985   14.7860   38.7615 O   0  0  0  0  0  0  0  0  0  0  0  0
   -6.8015   12.2367   38.1351 C   0  0  0  0  0  0  0  0  0  0  0  0
   -7.5808   13.4144   38.5170 C   0  0  0  0  0  0  0  0  0  0  0  0
   -8.1312   14.1477   37.4559 O   0  0  0  0  0  0  0  0  0  0  0  0
   -7.7721   13.7703   39.6798 O   0  0  0  0  0  0  0  0  0  0  0  0
   -4.1897   12.7928   39.6900 O   0  0  0  0  0  0  0  0  0  0  0  0
  1  2  2  0
  1  3  1  0
  1  4  1  0
  5  4  1  6
  5  6  1  0
  5  8  1  0
  6  7  2  0
  6 12  1  0
  8  9  1  0
  8 10  1  6
  9 11  1  0
 12 13  1  0
 13 14  1  0
 13 16  1  1
 14 15  2  0
 14 21  1  0
 16 17  1  0
 17 18  1  0
 18 19  2  0
 18 20  1  0
 21 22  1  0
 22 23  1  0
 22 25  1  6
 23 24  2  0
 23 30  1  0
 25 26  1  0
 26 27  1  0
 27 28  2  0
 27 29  1  0
 31 30  1  6
 31 32  1  0
 31 34  1  0
 32 33  2  0
 32 37  1  0
 34 35  1  1
 34 36  1  0
 37 38  1  0
 38 39  1  0
 38 41  1  1
 39 40  1  0
 39 45  2  0
 41 42  1  0
 42 43  1  0
 42 44  2  0
M  END
$$$$
