
     RDKit          3D

 45 44  0  0  0  0  0  0  0  0999 V2000
   -8.9363   12.3766   27.5043 C   0  0  0  0  0  0  0  0  0  0  0  0
   -7.9307   11.6838   27.2782 O   0  0  0  0  0  0  0  0  0  0  0  0
  -10.2396   11.7281   27.1173 C   0  0  0  0  0  0  0  0  0  0  0  0
   -8.9417   13.6573   28.0580 N   0  0  0  0  0  0  0  0  0  0  0  0
   -7.6986   14.3129   28.3625 C   0  0  2  0  0  0  0  0  0  0  0  0
   -7.1449   13.6616   29.6317 C   0  0  0  0  0  0  0  0  0  0  0  0
   -5.9699   13.8422   29.9121 O   0  0  0  0  0  0  0  0  0  0  0  0
   -8.3161   15.6539   29.0584 C   0  0  2  0  0  0  0  0  0  0  0  0
   -8.9148   16.5513   28.0349 C   0  0  0  0  0  0  0  0  0  0  0  0
   -7.0995   16.4536   29.6170 C   0  0  0  0  0  0  0  0  0  0  0  0
   -8.6904   15.9132   26.6557 C   0  0  0  0  0  0  0  0  0  0  0  0
   -8.0068   12.8873   30.4093 N   0  0  0  0  0  0  0  0  0  0  0  0
   -7.7029   12.3956   31.6402 C   0  0  2  0  0  0  0  0  0  0  0  0
   -6.6183   11.3887   31.6400 C   0  0  0  0  0  0  0  0  0  0  0  0
   -5.5829   11.5169   30.9124 O   0  0  0  0  0  0  0  0  0  0  0  0
   -8.7478   11.8219   32.5765 C   0  0  0  0  0  0  0  0  0  0  0  0
   -8.4000   10.6260   33.3391 C   0  0  0  0  0  0  0  0  0  0  0  0
   -9.4384    9.9458   34.1115 C   0  0  0  0  0  0  0  0  0  0  0  0
  -10.1509    9.0770   33.5374 O   0  0  0  0  0  0  0  0  0  0  0  0
   -9.6324   10.1762   35.3768 O   0  0  0  0  0  0  0  0  0  0  0  0
   -6.7705   10.1630   32.3559 N   0  0  0  0  0  0  0  0  0  0  0  0
   -5.9136    9.0817   32.4841 C   0  0  2  0  0  0  0  0  0  0  0  0
   -4.4995    9.1014   32.6921 C   0  0  0  0  0  0  0  0  0  0  0  0
   -3.8034    8.1208   32.4849 O   0  0  0  0  0  0  0  0  0  0  0  0
   -5.9239    8.2702   31.1123 C   0  0  0  0  0  0  0  0  0  0  0  0
   -4.5702    7.7250   30.8372 C   0  0  0  0  0  0  0  0  0  0  0  0
   -4.1784    7.4319   29.4384 C   0  0  0  0  0  0  0  0  0  0  0  0
   -3.1268    6.9984   28.9955 O   0  0  0  0  0  0  0  0  0  0  0  0
   -5.2376    7.6400   28.5548 O   0  0  0  0  0  0  0  0  0  0  0  0
   -3.9259   10.3132   33.0950 N   0  0  0  0  0  0  0  0  0  0  0  0
   -3.1714   10.5548   34.2333 C   0  0  2  0  0  0  0  0  0  0  0  0
   -3.6690   11.5152   35.1623 C   0  0  0  0  0  0  0  0  0  0  0  0
   -4.5929   12.2980   34.8293 O   0  0  0  0  0  0  0  0  0  0  0  0
   -1.7096   10.4029   34.0729 C   0  0  1  0  0  0  0  0  0  0  0  0
   -1.2454    8.9634   34.2045 C   0  0  0  0  0  0  0  0  0  0  0  0
   -1.0306   11.2624   33.1051 C   0  0  0  0  0  0  0  0  0  0  0  0
   -3.1141   11.6855   36.4813 N   0  0  0  0  0  0  0  0  0  0  0  0
   -3.6203   12.7032   37.3586 C   0  0  2  0  0  0  0  0  0  0  0  0
   -3.0554   12.7897   38.7121 C   0  0  0  0  0  0  0  0  0  0  0  0
   -3.6930   12.6606   39.8936 O   0  0  0  0  0  0  0  0  0  0  0  0
   -5.1033   12.7672   37.3789 C   0  0  0  0  0  0  0  0  0  0  0  0
   -5.7128   11.5518   37.9188 C   0  0  0  0  0  0  0  0  0  0  0  0
   -6.8451   11.7467   38.7229 O   0  0  0  0  0  0  0  0  0  0  0  0
   -5.2970   10.4137   37.7013 O   0  0  0  0  0  0  0  0  0  0  0  0
   -1.7943   13.0258   38.7294 O   0  0  0  0  0  0  0  0  0  0  0  0
  1  2  2  0
  1  3  1  0
  1  4  1  0
  5  4  1  1
  5  6  1  0
  5  8  1  0
  6  7  2  0
  6 12  1  0
  8  9  1  0
  8 10  1  6
  9 11  1  0
 12 13  1  0
 13 14  1  0
 13 16  1  6
 14 15  2  0
 14 21  1  0
 16 17  1  0
 17 18  1  0
 18 19  2  0
 18 20  1  0
 21 22  1  0
 22 23  1  0
 22 25  1  6
 23 24  2  0
 23 30  1  0
 25 26  1  0
 26 27  1  0
 27 28  2  0
 27 29  1  0
 31 30  1  6
 31 32  1  0
 31 34  1  0
 32 33  2  0
 32 37  1  0
 34 35  1  6
 34 36  1  0
 37 38  1  0
 38 39  1  0
 38 41  1  1
 39 40  1  0
 39 45  2  0
 41 42  1  0
 42 43  1  0
 42 44  2  0
M  END
$$$$
