
     RDKit          3D

 45 44  0  0  0  0  0  0  0  0999 V2000
   -7.8583    8.5887   27.3679 C   0  0  0  0  0  0  0  0  0  0  0  0
   -6.8374    8.0168   26.9522 O   0  0  0  0  0  0  0  0  0  0  0  0
   -8.0087   10.0128   26.9007 C   0  0  0  0  0  0  0  0  0  0  0  0
   -8.8257    8.0326   28.2055 N   0  0  0  0  0  0  0  0  0  0  0  0
   -9.4785    8.8513   29.1910 C   0  0  2  0  0  0  0  0  0  0  0  0
   -8.6517    8.7559   30.4751 C   0  0  0  0  0  0  0  0  0  0  0  0
   -8.9942    9.4255   31.4375 O   0  0  0  0  0  0  0  0  0  0  0  0
  -10.6551    7.8015   29.6120 C   0  0  2  0  0  0  0  0  0  0  0  0
  -11.5853    8.4182   30.5948 C   0  0  0  0  0  0  0  0  0  0  0  0
   -9.9530    6.6556   30.4029 C   0  0  0  0  0  0  0  0  0  0  0  0
  -11.6407    7.5075   31.8307 C   0  0  0  0  0  0  0  0  0  0  0  0
   -7.5412    7.9111   30.4870 N   0  0  0  0  0  0  0  0  0  0  0  0
   -6.7014    7.7563   31.5453 C   0  0  2  0  0  0  0  0  0  0  0  0
   -5.4063    8.4574   31.3989 C   0  0  0  0  0  0  0  0  0  0  0  0
   -4.6146    8.2117   30.4341 O   0  0  0  0  0  0  0  0  0  0  0  0
   -6.3319    6.3987   32.1092 C   0  0  0  0  0  0  0  0  0  0  0  0
   -6.6312    6.1374   33.5145 C   0  0  0  0  0  0  0  0  0  0  0  0
   -6.5141    7.2265   34.4830 C   0  0  0  0  0  0  0  0  0  0  0  0
   -5.7600    7.0713   35.4826 O   0  0  0  0  0  0  0  0  0  0  0  0
   -7.1298    8.3627   34.3350 O   0  0  0  0  0  0  0  0  0  0  0  0
   -4.9399    9.3347   32.4241 N   0  0  0  0  0  0  0  0  0  0  0  0
   -3.7714   10.0736   32.5154 C   0  0  2  0  0  0  0  0  0  0  0  0
   -3.3477   10.9182   33.5880 C   0  0  0  0  0  0  0  0  0  0  0  0
   -3.7236   12.0750   33.6851 O   0  0  0  0  0  0  0  0  0  0  0  0
   -3.7830   11.1721   31.3605 C   0  0  0  0  0  0  0  0  0  0  0  0
   -2.4431   11.8029   31.2492 C   0  0  0  0  0  0  0  0  0  0  0  0
   -2.2064   12.8187   30.1964 C   0  0  0  0  0  0  0  0  0  0  0  0
   -2.3028   14.0344   30.2472 O   0  0  0  0  0  0  0  0  0  0  0  0
   -1.7411   12.2363   29.0173 O   0  0  0  0  0  0  0  0  0  0  0  0
   -2.5196   10.3512   34.5640 N   0  0  0  0  0  0  0  0  0  0  0  0
   -2.2505   10.8405   35.8334 C   0  0  2  0  0  0  0  0  0  0  0  0
   -2.3011   12.2533   36.0197 C   0  0  0  0  0  0  0  0  0  0  0  0
   -1.3544   12.9779   35.6246 O   0  0  0  0  0  0  0  0  0  0  0  0
   -1.2944   10.0457   36.6332 C   0  0  1  0  0  0  0  0  0  0  0  0
   -0.4482   10.8967   37.5630 C   0  0  0  0  0  0  0  0  0  0  0  0
   -1.7162    8.7253   37.0970 C   0  0  0  0  0  0  0  0  0  0  0  0
   -3.3809   12.9112   36.7110 N   0  0  0  0  0  0  0  0  0  0  0  0
   -3.1437   14.1193   37.4498 C   0  0  2  0  0  0  0  0  0  0  0  0
   -3.6450   14.1932   38.8289 C   0  0  0  0  0  0  0  0  0  0  0  0
   -4.4698   13.3367   39.4654 O   0  0  0  0  0  0  0  0  0  0  0  0
   -3.4746   15.3449   36.6803 C   0  0  0  0  0  0  0  0  0  0  0  0
   -4.4959   15.1111   35.6592 C   0  0  0  0  0  0  0  0  0  0  0  0
   -5.2925   16.2183   35.3334 O   0  0  0  0  0  0  0  0  0  0  0  0
   -4.6739   14.0327   35.0927 O   0  0  0  0  0  0  0  0  0  0  0  0
   -3.2277   15.2211   39.4738 O   0  0  0  0  0  0  0  0  0  0  0  0
  1  2  2  0
  1  3  1  0
  1  4  1  0
  5  4  1  6
  5  6  1  0
  5  8  1  0
  6  7  2  0
  6 12  1  0
  8  9  1  0
  8 10  1  1
  9 11  1  0
 12 13  1  0
 13 14  1  0
 13 16  1  6
 14 15  2  0
 14 21  1  0
 16 17  1  0
 17 18  1  0
 18 19  2  0
 18 20  1  0
 21 22  1  0
 22 23  1  0
 22 25  1  6
 23 24  2  0
 23 30  1  0
 25 26  1  0
 26 27  1  0
 27 28  2  0
 27 29  1  0
 31 30  1  6
 31 32  1  0
 31 34  1  0
 32 33  2  0
 32 37  1  0
 34 35  1  1
 34 36  1  0
 37 38  1  0
 38 39  1  0
 38 41  1  6
 39 40  1  0
 39 45  2  0
 41 42  1  0
 42 43  1  0
 42 44  2  0
M  END
$$$$
