
     RDKit          3D

 45 44  0  0  0  0  0  0  0  0999 V2000
   -4.9969    6.8770   26.2845 C   0  0  0  0  0  0  0  0  0  0  0  0
   -5.7453    7.2734   25.3763 O   0  0  0  0  0  0  0  0  0  0  0  0
   -3.7029    6.2721   25.8062 C   0  0  0  0  0  0  0  0  0  0  0  0
   -5.2627    6.9421   27.6527 N   0  0  0  0  0  0  0  0  0  0  0  0
   -6.4526    7.5989   28.1222 C   0  0  2  0  0  0  0  0  0  0  0  0
   -6.0115    8.6679   29.1244 C   0  0  0  0  0  0  0  0  0  0  0  0
   -4.9387    8.5256   29.6908 O   0  0  0  0  0  0  0  0  0  0  0  0
   -6.9217    6.4690   29.2026 C   0  0  2  0  0  0  0  0  0  0  0  0
   -5.7455    5.8897   29.9043 C   0  0  0  0  0  0  0  0  0  0  0  0
   -7.5030    5.2857   28.3698 C   0  0  0  0  0  0  0  0  0  0  0  0
   -6.1764    4.5533   30.5272 C   0  0  0  0  0  0  0  0  0  0  0  0
   -6.8568    9.7550   29.3486 N   0  0  0  0  0  0  0  0  0  0  0  0
   -6.6291   10.7325   30.2662 C   0  0  2  0  0  0  0  0  0  0  0  0
   -7.4828   10.6431   31.4718 C   0  0  0  0  0  0  0  0  0  0  0  0
   -8.3830    9.7527   31.5929 O   0  0  0  0  0  0  0  0  0  0  0  0
   -6.6304   12.2067   29.9136 C   0  0  0  0  0  0  0  0  0  0  0  0
   -7.7077   12.7056   29.0631 C   0  0  0  0  0  0  0  0  0  0  0  0
   -7.4258   13.0122   27.6616 C   0  0  0  0  0  0  0  0  0  0  0  0
   -6.7566   12.1860   26.9822 O   0  0  0  0  0  0  0  0  0  0  0  0
   -7.8687   14.0872   27.0785 O   0  0  0  0  0  0  0  0  0  0  0  0
   -7.4159   11.6509   32.4807 N   0  0  0  0  0  0  0  0  0  0  0  0
   -7.9392   11.6785   33.7633 C   0  0  2  0  0  0  0  0  0  0  0  0
   -7.3183   11.2429   34.9749 C   0  0  0  0  0  0  0  0  0  0  0  0
   -7.7168   11.6046   36.0701 O   0  0  0  0  0  0  0  0  0  0  0  0
   -9.2080   10.7147   33.8064 C   0  0  0  0  0  0  0  0  0  0  0  0
   -9.7932   10.7099   35.1713 C   0  0  0  0  0  0  0  0  0  0  0  0
  -10.9508   11.5872   35.4656 C   0  0  0  0  0  0  0  0  0  0  0  0
  -12.0554   11.6243   34.9474 O   0  0  0  0  0  0  0  0  0  0  0  0
  -10.6964   12.4248   36.5518 O   0  0  0  0  0  0  0  0  0  0  0  0
   -6.2589   10.3346   34.8638 N   0  0  0  0  0  0  0  0  0  0  0  0
   -5.1817   10.1819   35.7238 C   0  0  2  0  0  0  0  0  0  0  0  0
   -3.8943   10.5601   35.2414 C   0  0  0  0  0  0  0  0  0  0  0  0
   -3.4144   10.0090   34.2200 O   0  0  0  0  0  0  0  0  0  0  0  0
   -5.2872    9.0634   36.6847 C   0  0  1  0  0  0  0  0  0  0  0  0
   -5.3676    7.7065   36.0085 C   0  0  0  0  0  0  0  0  0  0  0  0
   -4.5510    9.1659   37.9434 C   0  0  0  0  0  0  0  0  0  0  0  0
   -3.0609   11.5239   35.9144 N   0  0  0  0  0  0  0  0  0  0  0  0
   -2.0082   12.1967   35.2067 C   0  0  2  0  0  0  0  0  0  0  0  0
   -0.9310   12.8108   35.9948 C   0  0  0  0  0  0  0  0  0  0  0  0
   -0.6008   12.5796   37.2819 O   0  0  0  0  0  0  0  0  0  0  0  0
   -2.5109   13.1167   34.1557 C   0  0  0  0  0  0  0  0  0  0  0  0
   -1.4657   13.5257   33.2173 C   0  0  0  0  0  0  0  0  0  0  0  0
   -0.4990   12.5529   32.9244 O   0  0  0  0  0  0  0  0  0  0  0  0
   -1.4047   14.6367   32.6907 O   0  0  0  0  0  0  0  0  0  0  0  0
   -0.2449   13.6766   35.3419 O   0  0  0  0  0  0  0  0  0  0  0  0
  1  2  2  0
  1  3  1  0
  1  4  1  0
  5  4  1  1
  5  6  1  0
  5  8  1  0
  6  7  2  0
  6 12  1  0
  8  9  1  0
  8 10  1  6
  9 11  1  0
 12 13  1  0
 13 14  1  0
 13 16  1  6
 14 15  2  0
 14 21  1  0
 16 17  1  0
 17 18  1  0
 18 19  2  0
 18 20  1  0
 21 22  1  0
 22 23  1  0
 22 25  1  6
 23 24  2  0
 23 30  1  0
 25 26  1  0
 26 27  1  0
 27 28  2  0
 27 29  1  0
 31 30  1  6
 31 32  1  0
 31 34  1  0
 32 33  2  0
 32 37  1  0
 34 35  1  6
 34 36  1  0
 37 38  1  0
 38 39  1  0
 38 41  1  1
 39 40  1  0
 39 45  2  0
 41 42  1  0
 42 43  1  0
 42 44  2  0
M  END
$$$$
