
     RDKit          3D

 45 44  0  0  0  0  0  0  0  0999 V2000
  -11.6823   11.4759   32.9959 C   0  0  0  0  0  0  0  0  0  0  0  0
  -11.4493   11.3175   34.2054 O   0  0  0  0  0  0  0  0  0  0  0  0
  -12.5748   12.6478   32.6816 C   0  0  0  0  0  0  0  0  0  0  0  0
  -11.2041   10.6760   31.9576 N   0  0  0  0  0  0  0  0  0  0  0  0
  -10.3573    9.5511   32.2496 C   0  0  2  0  0  0  0  0  0  0  0  0
   -9.7936    9.0536   30.9167 C   0  0  0  0  0  0  0  0  0  0  0  0
  -10.4434    9.2506   29.9015 O   0  0  0  0  0  0  0  0  0  0  0  0
  -11.5281    8.4272   32.4229 C   0  0  2  0  0  0  0  0  0  0  0  0
  -11.9518    7.8984   31.0991 C   0  0  0  0  0  0  0  0  0  0  0  0
  -12.7808    9.1837   32.9617 C   0  0  0  0  0  0  0  0  0  0  0  0
  -12.9521    6.7583   31.3425 C   0  0  0  0  0  0  0  0  0  0  0  0
   -8.5642    8.3938   30.9222 N   0  0  0  0  0  0  0  0  0  0  0  0
   -7.4071    8.9149   30.4336 C   0  0  2  0  0  0  0  0  0  0  0  0
   -6.4361    9.3176   31.4753 C   0  0  0  0  0  0  0  0  0  0  0  0
   -6.8070    9.6620   32.6423 O   0  0  0  0  0  0  0  0  0  0  0  0
   -7.3767   10.0523   29.4321 C   0  0  0  0  0  0  0  0  0  0  0  0
   -8.4014   10.0751   28.3918 C   0  0  0  0  0  0  0  0  0  0  0  0
   -8.2162   10.9397   27.2274 C   0  0  0  0  0  0  0  0  0  0  0  0
   -7.0855   10.9709   26.6682 O   0  0  0  0  0  0  0  0  0  0  0  0
   -9.1820   11.6510   26.7242 O   0  0  0  0  0  0  0  0  0  0  0  0
   -5.0534    9.4697   31.1540 N   0  0  0  0  0  0  0  0  0  0  0  0
   -3.9783    9.8347   31.9482 C   0  0  2  0  0  0  0  0  0  0  0  0
   -3.9338    9.9375   33.3733 C   0  0  0  0  0  0  0  0  0  0  0  0
   -4.9032    9.6821   34.0689 O   0  0  0  0  0  0  0  0  0  0  0  0
   -3.5932   11.3431   31.6058 C   0  0  0  0  0  0  0  0  0  0  0  0
   -2.3034   11.3812   30.8708 C   0  0  0  0  0  0  0  0  0  0  0  0
   -2.2532   10.8964   29.4713 C   0  0  0  0  0  0  0  0  0  0  0  0
   -1.3075   10.8218   28.7032 O   0  0  0  0  0  0  0  0  0  0  0  0
   -3.4899   10.4033   29.0547 O   0  0  0  0  0  0  0  0  0  0  0  0
   -2.7108   10.2936   33.9541 N   0  0  0  0  0  0  0  0  0  0  0  0
   -2.4902   10.7646   35.2397 C   0  0  2  0  0  0  0  0  0  0  0  0
   -2.7838   12.1356   35.4989 C   0  0  0  0  0  0  0  0  0  0  0  0
   -2.3195   13.0338   34.7540 O   0  0  0  0  0  0  0  0  0  0  0  0
   -1.3822   10.1173   35.9740 C   0  0  1  0  0  0  0  0  0  0  0  0
   -0.1857    9.8105   35.0914 C   0  0  0  0  0  0  0  0  0  0  0  0
   -1.1352   10.5334   37.3533 C   0  0  0  0  0  0  0  0  0  0  0  0
   -3.5557   12.5669   36.6368 N   0  0  0  0  0  0  0  0  0  0  0  0
   -3.8190   13.9619   36.8518 C   0  0  2  0  0  0  0  0  0  0  0  0
   -2.6718   14.8771   36.9199 C   0  0  0  0  0  0  0  0  0  0  0  0
   -2.1537   15.6424   35.9375 O   0  0  0  0  0  0  0  0  0  0  0  0
   -4.7821   14.2077   37.9544 C   0  0  0  0  0  0  0  0  0  0  0  0
   -5.3382   12.9711   38.5037 C   0  0  0  0  0  0  0  0  0  0  0  0
   -5.8825   12.0818   37.5658 O   0  0  0  0  0  0  0  0  0  0  0  0
   -5.3424   12.6863   39.7013 O   0  0  0  0  0  0  0  0  0  0  0  0
   -2.1155   14.9202   38.0754 O   0  0  0  0  0  0  0  0  0  0  0  0
  1  2  2  0
  1  3  1  0
  1  4  1  0
  5  4  1  6
  5  6  1  0
  5  8  1  0
  6  7  2  0
  6 12  1  0
  8  9  1  0
  8 10  1  6
  9 11  1  0
 12 13  1  0
 13 14  1  0
 13 16  1  1
 14 15  2  0
 14 21  1  0
 16 17  1  0
 17 18  1  0
 18 19  2  0
 18 20  1  0
 21 22  1  0
 22 23  1  0
 22 25  1  6
 23 24  2  0
 23 30  1  0
 25 26  1  0
 26 27  1  0
 27 28  2  0
 27 29  1  0
 31 30  1  6
 31 32  1  0
 31 34  1  0
 32 33  2  0
 32 37  1  0
 34 35  1  6
 34 36  1  0
 37 38  1  0
 38 39  1  0
 38 41  1  1
 39 40  1  0
 39 45  2  0
 41 42  1  0
 42 43  1  0
 42 44  2  0
M  END
$$$$
