
     RDKit          3D

 45 44  0  0  0  0  0  0  0  0999 V2000
   -9.7229    9.5567   29.5478 C   0  0  0  0  0  0  0  0  0  0  0  0
  -10.7398   10.2661   29.6181 O   0  0  0  0  0  0  0  0  0  0  0  0
   -9.4215    9.0351   28.1672 C   0  0  0  0  0  0  0  0  0  0  0  0
   -8.8846    9.2183   30.6105 N   0  0  0  0  0  0  0  0  0  0  0  0
   -9.0694    9.8363   31.8956 C   0  0  2  0  0  0  0  0  0  0  0  0
   -8.0480   10.9708   32.0009 C   0  0  0  0  0  0  0  0  0  0  0  0
   -7.0135   10.8826   31.3575 O   0  0  0  0  0  0  0  0  0  0  0  0
   -8.2644    8.7356   32.7924 C   0  0  2  0  0  0  0  0  0  0  0  0
   -6.8074    8.7794   32.4982 C   0  0  0  0  0  0  0  0  0  0  0  0
   -8.7254    7.3365   32.2807 C   0  0  0  0  0  0  0  0  0  0  0  0
   -6.0710    9.1231   33.8018 C   0  0  0  0  0  0  0  0  0  0  0  0
   -8.3430   12.0532   32.8306 N   0  0  0  0  0  0  0  0  0  0  0  0
   -7.8171   13.2992   32.6890 C   0  0  2  0  0  0  0  0  0  0  0  0
   -6.6914   13.5897   33.6048 C   0  0  0  0  0  0  0  0  0  0  0  0
   -6.1053   14.7186   33.6119 O   0  0  0  0  0  0  0  0  0  0  0  0
   -8.6628   14.5567   32.7228 C   0  0  0  0  0  0  0  0  0  0  0  0
   -8.0138   15.8261   32.4062 C   0  0  0  0  0  0  0  0  0  0  0  0
   -8.7940   17.0610   32.4692 C   0  0  0  0  0  0  0  0  0  0  0  0
   -9.4222   17.4351   31.4409 O   0  0  0  0  0  0  0  0  0  0  0  0
   -8.8943   17.7699   33.5551 O   0  0  0  0  0  0  0  0  0  0  0  0
   -6.1330   12.5546   34.4142 N   0  0  0  0  0  0  0  0  0  0  0  0
   -5.0193   12.5567   35.2384 C   0  0  2  0  0  0  0  0  0  0  0  0
   -3.9333   11.6273   35.2500 C   0  0  0  0  0  0  0  0  0  0  0  0
   -2.8983   11.8522   35.8558 O   0  0  0  0  0  0  0  0  0  0  0  0
   -5.5084   12.3437   36.7404 C   0  0  0  0  0  0  0  0  0  0  0  0
   -6.2434   13.5463   37.2081 C   0  0  0  0  0  0  0  0  0  0  0  0
   -6.7802   13.5750   38.5892 C   0  0  0  0  0  0  0  0  0  0  0  0
   -7.8548   13.1868   39.0186 O   0  0  0  0  0  0  0  0  0  0  0  0
   -5.8406   14.0689   39.4944 O   0  0  0  0  0  0  0  0  0  0  0  0
   -4.1197   10.4126   34.5793 N   0  0  0  0  0  0  0  0  0  0  0  0
   -3.1583    9.4641   34.2641 C   0  0  2  0  0  0  0  0  0  0  0  0
   -2.7692    9.3488   32.8972 C   0  0  0  0  0  0  0  0  0  0  0  0
   -3.4242    8.6193   32.1123 O   0  0  0  0  0  0  0  0  0  0  0  0
   -3.1524    8.2556   35.1156 C   0  0  1  0  0  0  0  0  0  0  0  0
   -2.0502    7.2779   34.7495 C   0  0  0  0  0  0  0  0  0  0  0  0
   -3.5018    8.4066   36.5269 C   0  0  0  0  0  0  0  0  0  0  0  0
   -1.5959    9.9925   32.3628 N   0  0  0  0  0  0  0  0  0  0  0  0
   -1.2447    9.8344   30.9796 C   0  0  2  0  0  0  0  0  0  0  0  0
   -0.6746    8.5482   30.5561 C   0  0  0  0  0  0  0  0  0  0  0  0
   -0.4159    8.1206   29.3034 O   0  0  0  0  0  0  0  0  0  0  0  0
   -0.4690   10.9806   30.4428 C   0  0  0  0  0  0  0  0  0  0  0  0
    0.5849   11.4249   31.3549 C   0  0  0  0  0  0  0  0  0  0  0  0
    0.8123   10.6007   32.4665 O   0  0  0  0  0  0  0  0  0  0  0  0
    1.2569   12.4435   31.1923 O   0  0  0  0  0  0  0  0  0  0  0  0
   -0.4094    7.7569   31.5308 O   0  0  0  0  0  0  0  0  0  0  0  0
  1  2  2  0
  1  3  1  0
  1  4  1  0
  5  4  1  6
  5  6  1  0
  5  8  1  0
  6  7  2  0
  6 12  1  0
  8  9  1  0
  8 10  1  6
  9 11  1  0
 12 13  1  0
 13 14  1  0
 13 16  1  1
 14 15  2  0
 14 21  1  0
 16 17  1  0
 17 18  1  0
 18 19  2  0
 18 20  1  0
 21 22  1  0
 22 23  1  0
 22 25  1  1
 23 24  2  0
 23 30  1  0
 25 26  1  0
 26 27  1  0
 27 28  2  0
 27 29  1  0
 31 30  1  6
 31 32  1  0
 31 34  1  0
 32 33  2  0
 32 37  1  0
 34 35  1  1
 34 36  1  0
 37 38  1  0
 38 39  1  0
 38 41  1  1
 39 40  1  0
 39 45  2  0
 41 42  1  0
 42 43  1  0
 42 44  2  0
M  END
$$$$
