
     RDKit          3D

 45 44  0  0  0  0  0  0  0  0999 V2000
   -5.9008    6.3265   25.9283 C   0  0  0  0  0  0  0  0  0  0  0  0
   -6.8847    6.2207   25.1779 O   0  0  0  0  0  0  0  0  0  0  0  0
   -4.5707    6.2666   25.2240 C   0  0  0  0  0  0  0  0  0  0  0  0
   -5.9401    6.4809   27.3144 N   0  0  0  0  0  0  0  0  0  0  0  0
   -7.1813    6.8009   27.9661 C   0  0  2  0  0  0  0  0  0  0  0  0
   -7.1052    8.2714   28.3829 C   0  0  0  0  0  0  0  0  0  0  0  0
   -7.3445    9.1260   27.5438 O   0  0  0  0  0  0  0  0  0  0  0  0
   -6.8462    6.1450   29.4226 C   0  0  2  0  0  0  0  0  0  0  0  0
   -5.5256    5.4616   29.4021 C   0  0  0  0  0  0  0  0  0  0  0  0
   -7.8791    4.9953   29.6299 C   0  0  0  0  0  0  0  0  0  0  0  0
   -5.4411    4.5569   30.6407 C   0  0  0  0  0  0  0  0  0  0  0  0
   -6.7618    8.5693   29.7021 N   0  0  0  0  0  0  0  0  0  0  0  0
   -7.3025    9.5831   30.4295 C   0  0  2  0  0  0  0  0  0  0  0  0
   -6.6003    9.8569   31.7031 C   0  0  0  0  0  0  0  0  0  0  0  0
   -6.9786    9.3419   32.8029 O   0  0  0  0  0  0  0  0  0  0  0  0
   -8.7732    9.6411   30.7915 C   0  0  0  0  0  0  0  0  0  0  0  0
   -9.4068   10.9544   30.8709 C   0  0  0  0  0  0  0  0  0  0  0  0
   -8.7154   12.0388   31.5663 C   0  0  0  0  0  0  0  0  0  0  0  0
   -9.0206   12.2823   32.7661 O   0  0  0  0  0  0  0  0  0  0  0  0
   -7.7726   12.7389   31.0069 O   0  0  0  0  0  0  0  0  0  0  0  0
   -5.5556   10.8284   31.7577 N   0  0  0  0  0  0  0  0  0  0  0  0
   -4.5329   11.0016   32.6764 C   0  0  2  0  0  0  0  0  0  0  0  0
   -4.5229   10.6378   34.0587 C   0  0  0  0  0  0  0  0  0  0  0  0
   -5.5534   10.4358   34.6800 O   0  0  0  0  0  0  0  0  0  0  0  0
   -4.2834   12.5654   32.8578 C   0  0  0  0  0  0  0  0  0  0  0  0
   -4.0540   13.1977   31.5338 C   0  0  0  0  0  0  0  0  0  0  0  0
   -3.8448   14.6629   31.4578 C   0  0  0  0  0  0  0  0  0  0  0  0
   -4.6487   15.5744   31.5718 O   0  0  0  0  0  0  0  0  0  0  0  0
   -2.4959   14.9808   31.2985 O   0  0  0  0  0  0  0  0  0  0  0  0
   -3.2747   10.4668   34.6692 N   0  0  0  0  0  0  0  0  0  0  0  0
   -2.9110   10.8123   35.9621 C   0  0  2  0  0  0  0  0  0  0  0  0
   -3.4846   11.9951   36.5144 C   0  0  0  0  0  0  0  0  0  0  0  0
   -3.3899   13.0887   35.9042 O   0  0  0  0  0  0  0  0  0  0  0  0
   -1.5425   10.4239   36.3644 C   0  0  1  0  0  0  0  0  0  0  0  0
   -1.1306   11.0066   37.7044 C   0  0  0  0  0  0  0  0  0  0  0  0
   -1.0809    9.0794   36.0240 C   0  0  0  0  0  0  0  0  0  0  0  0
   -4.1332   12.0207   37.8010 N   0  0  0  0  0  0  0  0  0  0  0  0
   -4.6425   13.2522   38.3355 C   0  0  2  0  0  0  0  0  0  0  0  0
   -3.9579   13.8342   39.4979 C   0  0  0  0  0  0  0  0  0  0  0  0
   -4.2981   14.9308   40.2056 O   0  0  0  0  0  0  0  0  0  0  0  0
   -6.1159   13.2412   38.5165 C   0  0  0  0  0  0  0  0  0  0  0  0
   -6.6359   11.9099   38.8283 C   0  0  0  0  0  0  0  0  0  0  0  0
   -6.3723   10.9168   37.8738 O   0  0  0  0  0  0  0  0  0  0  0  0
   -7.2617   11.6336   39.8518 O   0  0  0  0  0  0  0  0  0  0  0  0
   -2.9033   13.1928   39.8486 O   0  0  0  0  0  0  0  0  0  0  0  0
  1  2  2  0
  1  3  1  0
  1  4  1  0
  5  4  1  6
  5  6  1  0
  5  8  1  0
  6  7  2  0
  6 12  1  0
  8  9  1  0
  8 10  1  6
  9 11  1  0
 12 13  1  0
 13 14  1  0
 13 16  1  1
 14 15  2  0
 14 21  1  0
 16 17  1  0
 17 18  1  0
 18 19  2  0
 18 20  1  0
 21 22  1  0
 22 23  1  0
 22 25  1  1
 23 24  2  0
 23 30  1  0
 25 26  1  0
 26 27  1  0
 27 28  2  0
 27 29  1  0
 31 30  1  6
 31 32  1  0
 31 34  1  0
 32 33  2  0
 32 37  1  0
 34 35  1  1
 34 36  1  0
 37 38  1  0
 38 39  1  0
 38 41  1  1
 39 40  1  0
 39 45  2  0
 41 42  1  0
 42 43  1  0
 42 44  2  0
M  END
$$$$
