
     RDKit          3D

 21 23  0  0  0  0  0  0  0  0999 V2000
   64.3646   32.1760   27.1075 C   0  0  0  0  0  0  0  0  0  0  0  0
   63.1587   32.6332   26.6449 C   0  0  0  0  0  0  0  0  0  0  0  0
   63.0575   33.5951   25.6215 C   0  0  0  0  0  0  0  0  0  0  0  0
   64.2145   35.0538   23.9743 C   0  0  0  0  0  0  0  0  0  0  0  0
   64.5560   36.6732   22.4764 C   0  0  0  0  0  0  0  0  0  0  0  0
   65.8177   36.8217   24.5525 C   0  0  0  0  0  0  0  0  0  0  0  0
   67.1666   36.8326   24.2165 C   0  0  0  0  0  0  0  0  0  0  0  0
   68.0594   37.5028   25.0198 C   0  0  0  0  0  0  0  0  0  0  0  0
   67.6713   38.1738   26.1594 C   0  0  0  0  0  0  0  0  0  0  0  0
   66.3227   38.1496   26.4747 C   0  0  0  0  0  0  0  0  0  0  0  0
   64.1861   34.1011   25.0612 C   0  0  0  0  0  0  0  0  0  0  0  0
   65.4039   33.6203   25.5472 C   0  0  0  0  0  0  0  0  0  0  0  0
   65.5106   32.6827   26.5436 C   0  0  0  0  0  0  0  0  0  0  0  0
   63.4657   34.8391   22.8252 N   0  0  0  0  0  0  0  0  0  0  0  0
   63.6857   35.8031   21.9669 N   0  0  0  0  0  0  0  0  0  0  0  0
   64.8651   36.1791   23.7207 N   0  0  0  0  0  0  0  0  0  0  0  0
   65.4131   37.4883   25.6896 C   0  0  0  0  0  0  0  0  0  0  0  0
   65.1676   38.0371   21.8389 S   0  0  0  0  0  0  0  0  0  0  0  0
   67.5459   36.1769   23.1029 F   0  0  0  0  0  0  0  0  0  0  0  0
   61.7807   33.9366   25.2729 O   0  0  0  0  0  0  0  0  0  0  0  0
   64.3954   31.2262   28.1197 O   0  0  0  0  0  0  0  0  0  0  0  0
  2  1  2  0
  1 13  1  0
  1 21  1  0
  3  2  1  0
 11  3  2  0
  3 20  1  0
  4 11  1  0
  4 14  2  0
 16  4  1  0
  5 15  1  0
 16  5  1  0
  5 18  2  0
  6  7  2  0
  6 16  1  0
  6 17  1  0
  7  8  1  0
  7 19  1  0
  8  9  2  0
  9 10  1  0
 10 17  2  0
 11 12  1  0
 12 13  2  0
 14 15  1  0
M  END
$$$$
