
     RDKit          3D

 21 23  0  0  0  0  0  0  0  0999 V2000
   64.3367   32.3997   26.9597 C   0  0  0  0  0  0  0  0  0  0  0  0
   63.1323   32.8420   26.4790 C   0  0  0  0  0  0  0  0  0  0  0  0
   63.0345   33.8064   25.4577 C   0  0  0  0  0  0  0  0  0  0  0  0
   64.1981   35.2875   23.8351 C   0  0  0  0  0  0  0  0  0  0  0  0
   64.5372   36.9214   22.3526 C   0  0  0  0  0  0  0  0  0  0  0  0
   65.7354   37.0962   24.4639 C   0  0  0  0  0  0  0  0  0  0  0  0
   67.0826   37.1975   24.1362 C   0  0  0  0  0  0  0  0  0  0  0  0
   67.9322   37.8877   24.9687 C   0  0  0  0  0  0  0  0  0  0  0  0
   67.5020   38.4922   26.1302 C   0  0  0  0  0  0  0  0  0  0  0  0
   66.1559   38.3784   26.4368 C   0  0  0  0  0  0  0  0  0  0  0  0
   64.1650   34.3303   24.9179 C   0  0  0  0  0  0  0  0  0  0  0  0
   65.3812   33.8644   25.4220 C   0  0  0  0  0  0  0  0  0  0  0  0
   65.4847   32.9243   26.4166 C   0  0  0  0  0  0  0  0  0  0  0  0
   63.4880   35.0570   22.6647 N   0  0  0  0  0  0  0  0  0  0  0  0
   63.7057   36.0299   21.8159 N   0  0  0  0  0  0  0  0  0  0  0  0
   64.8245   36.4311   23.6035 N   0  0  0  0  0  0  0  0  0  0  0  0
   65.2889   37.6954   25.6227 C   0  0  0  0  0  0  0  0  0  0  0  0
   65.1291   38.3039   21.7368 S   0  0  0  0  0  0  0  0  0  0  0  0
   67.5031   36.6068   23.0012 F   0  0  0  0  0  0  0  0  0  0  0  0
   61.7590   34.1317   25.0894 O   0  0  0  0  0  0  0  0  0  0  0  0
   64.3641   31.4464   27.9687 O   0  0  0  0  0  0  0  0  0  0  0  0
  2  1  2  0
  1 13  1  0
  1 21  1  0
  3  2  1  0
 11  3  2  0
  3 20  1  0
  4 11  1  0
  4 14  2  0
 16  4  1  0
  5 15  1  0
 16  5  1  0
  5 18  2  0
  6  7  2  0
  6 16  1  0
  6 17  1  0
  7  8  1  0
  7 19  1  0
  8  9  2  0
  9 10  1  0
 10 17  2  0
 11 12  1  0
 12 13  2  0
 14 15  1  0
M  END
$$$$
