
     RDKit          3D

 21 23  0  0  0  0  0  0  0  0999 V2000
   64.3828   32.3557   27.1018 C   0  0  0  0  0  0  0  0  0  0  0  0
   63.1806   32.7907   26.6093 C   0  0  0  0  0  0  0  0  0  0  0  0
   63.1208   33.6709   25.5100 C   0  0  0  0  0  0  0  0  0  0  0  0
   64.2800   35.0869   23.7680 C   0  0  0  0  0  0  0  0  0  0  0  0
   64.5731   36.7261   22.3857 C   0  0  0  0  0  0  0  0  0  0  0  0
   65.8941   36.8632   24.4500 C   0  0  0  0  0  0  0  0  0  0  0  0
   67.2642   36.9446   24.1585 C   0  0  0  0  0  0  0  0  0  0  0  0
   68.1101   37.5676   25.0502 C   0  0  0  0  0  0  0  0  0  0  0  0
   67.6630   38.1204   26.2293 C   0  0  0  0  0  0  0  0  0  0  0  0
   66.3292   38.0526   26.5344 C   0  0  0  0  0  0  0  0  0  0  0  0
   64.2270   34.1415   24.8698 C   0  0  0  0  0  0  0  0  0  0  0  0
   65.4512   33.6836   25.3917 C   0  0  0  0  0  0  0  0  0  0  0  0
   65.5039   32.8277   26.4623 C   0  0  0  0  0  0  0  0  0  0  0  0
   63.4697   34.9345   22.6479 N   0  0  0  0  0  0  0  0  0  0  0  0
   63.6591   35.9229   21.8335 N   0  0  0  0  0  0  0  0  0  0  0  0
   64.9666   36.2030   23.6070 N   0  0  0  0  0  0  0  0  0  0  0  0
   65.4794   37.4387   25.6611 C   0  0  0  0  0  0  0  0  0  0  0  0
   65.1664   38.1148   21.7620 S   0  0  0  0  0  0  0  0  0  0  0  0
   67.7108   36.4007   22.9962 F   0  0  0  0  0  0  0  0  0  0  0  0
   61.8668   34.0634   25.0866 O   0  0  0  0  0  0  0  0  0  0  0  0
   64.4999   31.4928   28.1770 O   0  0  0  0  0  0  0  0  0  0  0  0
  2  1  2  0
  1 13  1  0
  1 21  1  0
  3  2  1  0
 11  3  2  0
  3 20  1  0
  4 11  1  0
  4 14  2  0
 16  4  1  0
  5 15  1  0
 16  5  1  0
  5 18  2  0
  6  7  2  0
  6 16  1  0
  6 17  1  0
  7  8  1  0
  7 19  1  0
  8  9  2  0
  9 10  1  0
 10 17  2  0
 11 12  1  0
 12 13  2  0
 14 15  1  0
M  END
$$$$
