
     RDKit          3D

 21 23  0  0  0  0  0  0  0  0999 V2000
   64.7471   32.1464   27.1165 C   0  0  0  0  0  0  0  0  0  0  0  0
   63.5457   32.5483   26.5946 C   0  0  0  0  0  0  0  0  0  0  0  0
   63.4533   33.4636   25.5285 C   0  0  0  0  0  0  0  0  0  0  0  0
   64.6258   34.8864   23.8609 C   0  0  0  0  0  0  0  0  0  0  0  0
   65.0020   36.4217   22.2849 C   0  0  0  0  0  0  0  0  0  0  0  0
   66.3684   36.5614   24.2942 C   0  0  0  0  0  0  0  0  0  0  0  0
   66.0714   37.3315   25.4128 C   0  0  0  0  0  0  0  0  0  0  0  0
   67.0957   37.8691   26.1566 C   0  0  0  0  0  0  0  0  0  0  0  0
   68.4227   37.6759   25.8383 C   0  0  0  0  0  0  0  0  0  0  0  0
   68.6952   36.9054   24.7198 C   0  0  0  0  0  0  0  0  0  0  0  0
   64.5862   33.9791   24.9856 C   0  0  0  0  0  0  0  0  0  0  0  0
   65.7993   33.5549   25.5322 C   0  0  0  0  0  0  0  0  0  0  0  0
   65.8975   32.6628   26.5705 C   0  0  0  0  0  0  0  0  0  0  0  0
   63.8104   34.6805   22.7563 N   0  0  0  0  0  0  0  0  0  0  0  0
   64.0526   35.5945   21.8507 N   0  0  0  0  0  0  0  0  0  0  0  0
   65.3367   35.9545   23.5329 N   0  0  0  0  0  0  0  0  0  0  0  0
   67.6912   36.3585   23.9622 C   0  0  0  0  0  0  0  0  0  0  0  0
   65.6716   37.7161   21.5658 S   0  0  0  0  0  0  0  0  0  0  0  0
   64.7747   37.5204   25.7240 F   0  0  0  0  0  0  0  0  0  0  0  0
   62.1804   33.7527   25.1229 O   0  0  0  0  0  0  0  0  0  0  0  0
   64.7692   31.2406   28.1685 O   0  0  0  0  0  0  0  0  0  0  0  0
  2  1  2  0
  1 13  1  0
  1 21  1  0
  3  2  1  0
 11  3  2  0
  3 20  1  0
  4 11  1  0
  4 14  2  0
 16  4  1  0
  5 15  1  0
 16  5  1  0
  5 18  2  0
  6  7  2  0
  6 16  1  0
  6 17  1  0
  7  8  1  0
  7 19  1  0
  8  9  2  0
  9 10  1  0
 10 17  2  0
 11 12  1  0
 12 13  2  0
 14 15  1  0
M  END
$$$$
