
     RDKit          3D

 21 23  0  0  0  0  0  0  0  0999 V2000
   64.1981   32.3771   26.8246 C   0  0  0  0  0  0  0  0  0  0  0  0
   62.9912   32.7868   26.3217 C   0  0  0  0  0  0  0  0  0  0  0  0
   62.8874   33.7240   25.2759 C   0  0  0  0  0  0  0  0  0  0  0  0
   64.0419   35.1844   23.6283 C   0  0  0  0  0  0  0  0  0  0  0  0
   64.4070   36.7456   22.0754 C   0  0  0  0  0  0  0  0  0  0  0  0
   65.8326   36.8116   24.0469 C   0  0  0  0  0  0  0  0  0  0  0  0
   65.5846   37.5643   25.1890 C   0  0  0  0  0  0  0  0  0  0  0  0
   66.6412   38.0633   25.9143 C   0  0  0  0  0  0  0  0  0  0  0  0
   67.9540   37.8477   25.5545 C   0  0  0  0  0  0  0  0  0  0  0  0
   68.1776   37.0951   24.4132 C   0  0  0  0  0  0  0  0  0  0  0  0
   64.0142   34.2536   24.7341 C   0  0  0  0  0  0  0  0  0  0  0  0
   65.2331   33.8210   25.2611 C   0  0  0  0  0  0  0  0  0  0  0  0
   65.3424   32.9077   26.2796 C   0  0  0  0  0  0  0  0  0  0  0  0
   63.1911   35.0203   22.5437 N   0  0  0  0  0  0  0  0  0  0  0  0
   63.4276   35.9487   21.6512 N   0  0  0  0  0  0  0  0  0  0  0  0
   64.7665   36.2440   23.3029 N   0  0  0  0  0  0  0  0  0  0  0  0
   67.1407   36.5867   23.6733 C   0  0  0  0  0  0  0  0  0  0  0  0
   65.0842   38.0408   21.3650 S   0  0  0  0  0  0  0  0  0  0  0  0
   64.3016   37.7752   25.5407 F   0  0  0  0  0  0  0  0  0  0  0  0
   61.6103   34.0184   24.8876 O   0  0  0  0  0  0  0  0  0  0  0  0
   64.2315   31.4494   27.8571 O   0  0  0  0  0  0  0  0  0  0  0  0
  2  1  2  0
  1 13  1  0
  1 21  1  0
  3  2  1  0
 11  3  2  0
  3 20  1  0
  4 11  1  0
  4 14  2  0
 16  4  1  0
  5 15  1  0
 16  5  1  0
  5 18  2  0
  6  7  2  0
  6 16  1  0
  6 17  1  0
  7  8  1  0
  7 19  1  0
  8  9  2  0
  9 10  1  0
 10 17  2  0
 11 12  1  0
 12 13  2  0
 14 15  1  0
M  END
$$$$
