
     RDKit          3D

 21 23  0  0  0  0  0  0  0  0999 V2000
   64.4120   32.1645   27.0144 C   0  0  0  0  0  0  0  0  0  0  0  0
   63.2149   32.6472   26.5546 C   0  0  0  0  0  0  0  0  0  0  0  0
   63.1319   33.6160   25.5363 C   0  0  0  0  0  0  0  0  0  0  0  0
   64.3163   35.0606   23.8960 C   0  0  0  0  0  0  0  0  0  0  0  0
   64.6805   36.6886   22.4129 C   0  0  0  0  0  0  0  0  0  0  0  0
   65.8945   36.8364   24.5172 C   0  0  0  0  0  0  0  0  0  0  0  0
   67.2583   36.7939   24.2511 C   0  0  0  0  0  0  0  0  0  0  0  0
   68.1304   37.4673   25.0740 C   0  0  0  0  0  0  0  0  0  0  0  0
   67.7071   38.1930   26.1666 C   0  0  0  0  0  0  0  0  0  0  0  0
   66.3442   38.2214   26.4127 C   0  0  0  0  0  0  0  0  0  0  0  0
   64.2699   34.1031   24.9781 C   0  0  0  0  0  0  0  0  0  0  0  0
   65.4783   33.5964   25.4610 C   0  0  0  0  0  0  0  0  0  0  0  0
   65.5674   32.6518   26.4526 C   0  0  0  0  0  0  0  0  0  0  0  0
   63.5947   34.8460   22.7295 N   0  0  0  0  0  0  0  0  0  0  0  0
   63.8275   35.8151   21.8804 N   0  0  0  0  0  0  0  0  0  0  0  0
   64.9649   36.1912   23.6617 N   0  0  0  0  0  0  0  0  0  0  0  0
   65.4546   37.5581   25.6067 C   0  0  0  0  0  0  0  0  0  0  0  0
   65.2971   38.0592   21.7948 S   0  0  0  0  0  0  0  0  0  0  0  0
   67.6720   36.0847   23.1834 F   0  0  0  0  0  0  0  0  0  0  0  0
   61.8618   33.9839   25.1899 O   0  0  0  0  0  0  0  0  0  0  0  0
   64.4248   31.2090   28.0217 O   0  0  0  0  0  0  0  0  0  0  0  0
  2  1  2  0
  1 13  1  0
  1 21  1  0
  3  2  1  0
 11  3  2  0
  3 20  1  0
  4 11  1  0
  4 14  2  0
 16  4  1  0
  5 15  1  0
 16  5  1  0
  5 18  2  0
  6  7  2  0
  6 16  1  0
  6 17  1  0
  7  8  1  0
  7 19  1  0
  8  9  2  0
  9 10  1  0
 10 17  2  0
 11 12  1  0
 12 13  2  0
 14 15  1  0
M  END
$$$$
