
     RDKit          3D

 21 23  0  0  0  0  0  0  0  0999 V2000
   64.4694   32.2951   26.9620 C   0  0  0  0  0  0  0  0  0  0  0  0
   63.2734   32.7490   26.4714 C   0  0  0  0  0  0  0  0  0  0  0  0
   63.2263   33.6428   25.3826 C   0  0  0  0  0  0  0  0  0  0  0  0
   64.4057   35.0669   23.6608 C   0  0  0  0  0  0  0  0  0  0  0  0
   64.7037   36.7275   22.3053 C   0  0  0  0  0  0  0  0  0  0  0  0
   65.9485   36.8769   24.4155 C   0  0  0  0  0  0  0  0  0  0  0  0
   67.3185   37.0298   24.1539 C   0  0  0  0  0  0  0  0  0  0  0  0
   68.1182   37.6625   25.0809 C   0  0  0  0  0  0  0  0  0  0  0  0
   67.6243   38.1570   26.2672 C   0  0  0  0  0  0  0  0  0  0  0  0
   66.2896   38.0188   26.5435 C   0  0  0  0  0  0  0  0  0  0  0  0
   64.3394   34.1090   24.7511 C   0  0  0  0  0  0  0  0  0  0  0  0
   65.5570   33.6317   25.2708 C   0  0  0  0  0  0  0  0  0  0  0  0
   65.5973   32.7625   26.3313 C   0  0  0  0  0  0  0  0  0  0  0  0
   63.6389   34.9054   22.5118 N   0  0  0  0  0  0  0  0  0  0  0  0
   63.8305   35.9068   21.7140 N   0  0  0  0  0  0  0  0  0  0  0  0
   65.0682   36.2019   23.5345 N   0  0  0  0  0  0  0  0  0  0  0  0
   65.4854   37.3946   25.6351 C   0  0  0  0  0  0  0  0  0  0  0  0
   65.2818   38.1374   21.7158 S   0  0  0  0  0  0  0  0  0  0  0  0
   67.8111   36.5437   22.9847 F   0  0  0  0  0  0  0  0  0  0  0  0
   61.9778   34.0539   24.9604 O   0  0  0  0  0  0  0  0  0  0  0  0
   64.5740   31.4182   28.0270 O   0  0  0  0  0  0  0  0  0  0  0  0
  2  1  2  0
  1 13  1  0
  1 21  1  0
  3  2  1  0
 11  3  2  0
  3 20  1  0
  4 11  1  0
  4 14  2  0
 16  4  1  0
  5 15  1  0
 16  5  1  0
  5 18  2  0
  6  7  2  0
  6 16  1  0
  6 17  1  0
  7  8  1  0
  7 19  1  0
  8  9  2  0
  9 10  1  0
 10 17  2  0
 11 12  1  0
 12 13  2  0
 14 15  1  0
M  END
$$$$
