
     RDKit          3D

 21 23  0  0  0  0  0  0  0  0999 V2000
   64.5216   32.2922   27.1419 C   0  0  0  0  0  0  0  0  0  0  0  0
   63.3136   32.7431   26.6787 C   0  0  0  0  0  0  0  0  0  0  0  0
   63.2074   33.6813   25.6341 C   0  0  0  0  0  0  0  0  0  0  0  0
   64.3561   35.0969   23.9439 C   0  0  0  0  0  0  0  0  0  0  0  0
   64.6872   36.6837   22.4093 C   0  0  0  0  0  0  0  0  0  0  0  0
   65.9414   36.8926   24.4846 C   0  0  0  0  0  0  0  0  0  0  0  0
   67.2807   36.9634   24.1189 C   0  0  0  0  0  0  0  0  0  0  0  0
   68.1634   37.6595   24.9110 C   0  0  0  0  0  0  0  0  0  0  0  0
   67.7744   38.2995   26.0680 C   0  0  0  0  0  0  0  0  0  0  0  0
   66.4354   38.2158   26.4130 C   0  0  0  0  0  0  0  0  0  0  0  0
   64.3332   34.1699   25.0529 C   0  0  0  0  0  0  0  0  0  0  0  0
   65.5532   33.6958   25.5399 C   0  0  0  0  0  0  0  0  0  0  0  0
   65.6648   32.7812   26.5570 C   0  0  0  0  0  0  0  0  0  0  0  0
   63.6126   34.8484   22.7982 N   0  0  0  0  0  0  0  0  0  0  0  0
   63.8263   35.7939   21.9180 N   0  0  0  0  0  0  0  0  0  0  0  0
   64.9971   36.2219   23.6656 N   0  0  0  0  0  0  0  0  0  0  0  0
   65.5359   37.5276   25.6395 C   0  0  0  0  0  0  0  0  0  0  0  0
   65.2882   38.0378   21.7414 S   0  0  0  0  0  0  0  0  0  0  0  0
   67.6610   36.3380   22.9883 F   0  0  0  0  0  0  0  0  0  0  0  0
   61.9291   34.0196   25.2881 O   0  0  0  0  0  0  0  0  0  0  0  0
   64.5574   31.3660   28.1757 O   0  0  0  0  0  0  0  0  0  0  0  0
  2  1  2  0
  1 13  1  0
  1 21  1  0
  3  2  1  0
 11  3  2  0
  3 20  1  0
  4 11  1  0
  4 14  2  0
 16  4  1  0
  5 15  1  0
 16  5  1  0
  5 18  2  0
  6  7  2  0
  6 16  1  0
  6 17  1  0
  7  8  1  0
  7 19  1  0
  8  9  2  0
  9 10  1  0
 10 17  2  0
 11 12  1  0
 12 13  2  0
 14 15  1  0
M  END
$$$$
