
     RDKit          3D

 21 23  0  0  0  0  0  0  0  0999 V2000
   64.2826   32.3133   27.0234 C   0  0  0  0  0  0  0  0  0  0  0  0
   63.0727   32.7200   26.5256 C   0  0  0  0  0  0  0  0  0  0  0  0
   62.9971   33.5918   25.4205 C   0  0  0  0  0  0  0  0  0  0  0  0
   64.1304   35.0208   23.6721 C   0  0  0  0  0  0  0  0  0  0  0  0
   64.3930   36.6568   22.2799 C   0  0  0  0  0  0  0  0  0  0  0  0
   65.7089   36.8324   24.3444 C   0  0  0  0  0  0  0  0  0  0  0  0
   67.0835   36.9067   24.0731 C   0  0  0  0  0  0  0  0  0  0  0  0
   67.9148   37.5542   24.9612 C   0  0  0  0  0  0  0  0  0  0  0  0
   67.4485   38.1385   26.1175 C   0  0  0  0  0  0  0  0  0  0  0  0
   66.1099   38.0781   26.4026 C   0  0  0  0  0  0  0  0  0  0  0  0
   64.0947   34.0814   24.7798 C   0  0  0  0  0  0  0  0  0  0  0  0
   65.3270   33.6525   25.3071 C   0  0  0  0  0  0  0  0  0  0  0  0
   65.3951   32.8046   26.3833 C   0  0  0  0  0  0  0  0  0  0  0  0
   63.3244   34.8457   22.5522 N   0  0  0  0  0  0  0  0  0  0  0  0
   63.4954   35.8324   21.7319 N   0  0  0  0  0  0  0  0  0  0  0  0
   64.7953   36.1490   23.5048 N   0  0  0  0  0  0  0  0  0  0  0  0
   65.2745   37.4403   25.5326 C   0  0  0  0  0  0  0  0  0  0  0  0
   64.9598   38.0528   21.6480 S   0  0  0  0  0  0  0  0  0  0  0  0
   67.5490   36.3318   22.9334 F   0  0  0  0  0  0  0  0  0  0  0  0
   61.7361   33.9553   24.9919 O   0  0  0  0  0  0  0  0  0  0  0  0
   64.4153   31.4599   28.1042 O   0  0  0  0  0  0  0  0  0  0  0  0
  2  1  2  0
  1 13  1  0
  1 21  1  0
  3  2  1  0
 11  3  2  0
  3 20  1  0
  4 11  1  0
  4 14  2  0
 16  4  1  0
  5 15  1  0
 16  5  1  0
  5 18  2  0
  6  7  2  0
  6 16  1  0
  6 17  1  0
  7  8  1  0
  7 19  1  0
  8  9  2  0
  9 10  1  0
 10 17  2  0
 11 12  1  0
 12 13  2  0
 14 15  1  0
M  END
$$$$
