
     RDKit          3D

 21 23  0  0  0  0  0  0  0  0999 V2000
   64.4762   32.4488   26.9708 C   0  0  0  0  0  0  0  0  0  0  0  0
   63.2495   32.8640   26.5239 C   0  0  0  0  0  0  0  0  0  0  0  0
   63.1345   33.7482   25.4321 C   0  0  0  0  0  0  0  0  0  0  0  0
   64.2048   35.1936   23.6577 C   0  0  0  0  0  0  0  0  0  0  0  0
   64.4077   36.8495   22.2792 C   0  0  0  0  0  0  0  0  0  0  0  0
   65.7536   37.0330   24.3236 C   0  0  0  0  0  0  0  0  0  0  0  0
   67.1148   37.1711   24.0127 C   0  0  0  0  0  0  0  0  0  0  0  0
   67.9476   37.8254   24.8945 C   0  0  0  0  0  0  0  0  0  0  0  0
   67.4956   38.3557   26.0819 C   0  0  0  0  0  0  0  0  0  0  0  0
   66.1702   38.2325   26.4060 C   0  0  0  0  0  0  0  0  0  0  0  0
   64.2084   34.2421   24.7555 C   0  0  0  0  0  0  0  0  0  0  0  0
   65.4586   33.8042   25.2309 C   0  0  0  0  0  0  0  0  0  0  0  0
   65.5650   32.9443   26.2943 C   0  0  0  0  0  0  0  0  0  0  0  0
   63.3844   35.0122   22.5494 N   0  0  0  0  0  0  0  0  0  0  0  0
   63.5197   36.0111   21.7370 N   0  0  0  0  0  0  0  0  0  0  0  0
   64.8416   36.3381   23.4917 N   0  0  0  0  0  0  0  0  0  0  0  0
   65.3335   37.5872   25.5428 C   0  0  0  0  0  0  0  0  0  0  0  0
   64.9328   38.2645   21.6533 S   0  0  0  0  0  0  0  0  0  0  0  0
   67.5662   36.6497   22.8421 F   0  0  0  0  0  0  0  0  0  0  0  0
   61.8592   34.1196   25.0558 O   0  0  0  0  0  0  0  0  0  0  0  0
   64.6473   31.5831   28.0364 O   0  0  0  0  0  0  0  0  0  0  0  0
  2  1  2  0
  1 13  1  0
  1 21  1  0
  3  2  1  0
 11  3  2  0
  3 20  1  0
  4 11  1  0
  4 14  2  0
 16  4  1  0
  5 15  1  0
 16  5  1  0
  5 18  2  0
  6  7  2  0
  6 16  1  0
  6 17  1  0
  7  8  1  0
  7 19  1  0
  8  9  2  0
  9 10  1  0
 10 17  2  0
 11 12  1  0
 12 13  2  0
 14 15  1  0
M  END
$$$$
