
     RDKit          3D

 21 23  0  0  0  0  0  0  0  0999 V2000
   64.4825   32.1096   26.8999 C   0  0  0  0  0  0  0  0  0  0  0  0
   63.2762   32.4969   26.3784 C   0  0  0  0  0  0  0  0  0  0  0  0
   63.1694   33.4544   25.3515 C   0  0  0  0  0  0  0  0  0  0  0  0
   64.3189   34.9834   23.7637 C   0  0  0  0  0  0  0  0  0  0  0  0
   64.6578   36.6069   22.2698 C   0  0  0  0  0  0  0  0  0  0  0  0
   65.9278   36.7462   24.3414 C   0  0  0  0  0  0  0  0  0  0  0  0
   67.2761   36.7513   24.0028 C   0  0  0  0  0  0  0  0  0  0  0  0
   68.1735   37.4171   24.8045 C   0  0  0  0  0  0  0  0  0  0  0  0
   67.7907   38.0894   25.9452 C   0  0  0  0  0  0  0  0  0  0  0  0
   66.4426   38.0711   26.2631 C   0  0  0  0  0  0  0  0  0  0  0  0
   64.2927   34.0273   24.8477 C   0  0  0  0  0  0  0  0  0  0  0  0
   65.5111   33.6170   25.3932 C   0  0  0  0  0  0  0  0  0  0  0  0
   65.6233   32.6842   26.3935 C   0  0  0  0  0  0  0  0  0  0  0  0
   63.5652   34.7739   22.6169 N   0  0  0  0  0  0  0  0  0  0  0  0
   63.7838   35.7402   21.7608 N   0  0  0  0  0  0  0  0  0  0  0  0
   64.9707   36.1082   23.5112 N   0  0  0  0  0  0  0  0  0  0  0  0
   65.5285   37.4142   25.4796 C   0  0  0  0  0  0  0  0  0  0  0  0
   65.2697   37.9716   21.6342 S   0  0  0  0  0  0  0  0  0  0  0  0
   67.6503   36.0943   22.8882 F   0  0  0  0  0  0  0  0  0  0  0  0
   61.8936   33.7218   24.9402 O   0  0  0  0  0  0  0  0  0  0  0  0
   64.5190   31.1600   27.9122 O   0  0  0  0  0  0  0  0  0  0  0  0
  2  1  2  0
  1 13  1  0
  1 21  1  0
  3  2  1  0
 11  3  2  0
  3 20  1  0
  4 11  1  0
  4 14  2  0
 16  4  1  0
  5 15  1  0
 16  5  1  0
  5 18  2  0
  6  7  2  0
  6 16  1  0
  6 17  1  0
  7  8  1  0
  7 19  1  0
  8  9  2  0
  9 10  1  0
 10 17  2  0
 11 12  1  0
 12 13  2  0
 14 15  1  0
M  END
$$$$
