
     RDKit          3D

 21 23  0  0  0  0  0  0  0  0999 V2000
   64.3735   32.3675   26.8508 C   0  0  0  0  0  0  0  0  0  0  0  0
   63.1687   32.8206   26.3814 C   0  0  0  0  0  0  0  0  0  0  0  0
   63.1010   33.7012   25.2829 C   0  0  0  0  0  0  0  0  0  0  0  0
   64.2476   35.0991   23.5180 C   0  0  0  0  0  0  0  0  0  0  0  0
   64.5292   36.7382   22.1332 C   0  0  0  0  0  0  0  0  0  0  0  0
   65.8517   36.8861   24.1957 C   0  0  0  0  0  0  0  0  0  0  0  0
   67.2097   37.0283   23.8728 C   0  0  0  0  0  0  0  0  0  0  0  0
   68.0554   37.6535   24.7634 C   0  0  0  0  0  0  0  0  0  0  0  0
   67.6194   38.1506   25.9711 C   0  0  0  0  0  0  0  0  0  0  0  0
   66.2974   38.0228   26.3071 C   0  0  0  0  0  0  0  0  0  0  0  0
   64.2017   34.1549   24.6212 C   0  0  0  0  0  0  0  0  0  0  0  0
   65.4286   33.6786   25.1195 C   0  0  0  0  0  0  0  0  0  0  0  0
   65.4891   32.8223   26.1894 C   0  0  0  0  0  0  0  0  0  0  0  0
   63.4370   34.9403   22.3991 N   0  0  0  0  0  0  0  0  0  0  0  0
   63.6194   35.9287   21.5832 N   0  0  0  0  0  0  0  0  0  0  0  0
   64.9272   36.2191   23.3548 N   0  0  0  0  0  0  0  0  0  0  0  0
   65.4481   37.4061   25.4353 C   0  0  0  0  0  0  0  0  0  0  0  0
   65.1133   38.1296   21.5069 S   0  0  0  0  0  0  0  0  0  0  0  0
   67.6453   36.5395   22.6823 F   0  0  0  0  0  0  0  0  0  0  0  0
   61.8452   34.1126   24.8836 O   0  0  0  0  0  0  0  0  0  0  0  0
   64.4983   31.5032   27.9239 O   0  0  0  0  0  0  0  0  0  0  0  0
  2  1  2  0
  1 13  1  0
  1 21  1  0
  3  2  1  0
 11  3  2  0
  3 20  1  0
  4 11  1  0
  4 14  2  0
 16  4  1  0
  5 15  1  0
 16  5  1  0
  5 18  2  0
  6  7  2  0
  6 16  1  0
  6 17  1  0
  7  8  1  0
  7 19  1  0
  8  9  2  0
  9 10  1  0
 10 17  2  0
 11 12  1  0
 12 13  2  0
 14 15  1  0
M  END
$$$$
