
     RDKit          3D

 21 23  0  0  0  0  0  0  0  0999 V2000
   64.2974   32.0420   26.9935 C   0  0  0  0  0  0  0  0  0  0  0  0
   63.0912   32.4887   26.5215 C   0  0  0  0  0  0  0  0  0  0  0  0
   62.9895   33.4431   25.4912 C   0  0  0  0  0  0  0  0  0  0  0  0
   64.1464   34.8981   23.8405 C   0  0  0  0  0  0  0  0  0  0  0  0
   64.4855   36.5101   22.3342 C   0  0  0  0  0  0  0  0  0  0  0  0
   65.7327   36.6816   24.4172 C   0  0  0  0  0  0  0  0  0  0  0  0
   67.0838   36.6994   24.0903 C   0  0  0  0  0  0  0  0  0  0  0  0
   67.9665   37.3815   24.8947 C   0  0  0  0  0  0  0  0  0  0  0  0
   67.5661   38.0580   26.0268 C   0  0  0  0  0  0  0  0  0  0  0  0
   66.2155   38.0268   26.3331 C   0  0  0  0  0  0  0  0  0  0  0  0
   64.1180   33.9525   24.9336 C   0  0  0  0  0  0  0  0  0  0  0  0
   65.3361   33.4824   25.4292 C   0  0  0  0  0  0  0  0  0  0  0  0
   65.4433   32.5520   26.4324 C   0  0  0  0  0  0  0  0  0  0  0  0
   63.4065   34.6703   22.6882 N   0  0  0  0  0  0  0  0  0  0  0  0
   63.6249   35.6302   21.8249 N   0  0  0  0  0  0  0  0  0  0  0  0
   64.7902   36.0265   23.5836 N   0  0  0  0  0  0  0  0  0  0  0  0
   65.3158   37.3536   25.5467 C   0  0  0  0  0  0  0  0  0  0  0  0
   65.0911   37.8742   21.6915 S   0  0  0  0  0  0  0  0  0  0  0  0
   67.4752   36.0384   22.9841 F   0  0  0  0  0  0  0  0  0  0  0  0
   61.7126   33.7745   25.1336 O   0  0  0  0  0  0  0  0  0  0  0  0
   64.3287   31.0991   28.0121 O   0  0  0  0  0  0  0  0  0  0  0  0
  2  1  2  0
  1 13  1  0
  1 21  1  0
  3  2  1  0
 11  3  2  0
  3 20  1  0
  4 11  1  0
  4 14  2  0
 16  4  1  0
  5 15  1  0
 16  5  1  0
  5 18  2  0
  6  7  2  0
  6 16  1  0
  6 17  1  0
  7  8  1  0
  7 19  1  0
  8  9  2  0
  9 10  1  0
 10 17  2  0
 11 12  1  0
 12 13  2  0
 14 15  1  0
M  END
$$$$
