
     RDKit          3D

 21 23  0  0  0  0  0  0  0  0999 V2000
   64.2339   32.6281   27.1776 C   0  0  0  0  0  0  0  0  0  0  0  0
   63.2104   32.6495   26.2669 C   0  0  0  0  0  0  0  0  0  0  0  0
   63.1838   33.5456   25.1811 C   0  0  0  0  0  0  0  0  0  0  0  0
   64.3133   35.3643   23.9176 C   0  0  0  0  0  0  0  0  0  0  0  0
   64.8331   36.8762   22.3598 C   0  0  0  0  0  0  0  0  0  0  0  0
   66.3602   36.6807   24.2449 C   0  0  0  0  0  0  0  0  0  0  0  0
   66.3313   37.6595   25.2316 C   0  0  0  0  0  0  0  0  0  0  0  0
   67.4862   37.9725   25.9095 C   0  0  0  0  0  0  0  0  0  0  0  0
   68.6886   37.3505   25.6509 C   0  0  0  0  0  0  0  0  0  0  0  0
   68.6940   36.3786   24.6638 C   0  0  0  0  0  0  0  0  0  0  0  0
   64.2008   34.4298   25.0148 C   0  0  0  0  0  0  0  0  0  0  0  0
   65.2338   34.3897   25.9538 C   0  0  0  0  0  0  0  0  0  0  0  0
   65.2671   33.5191   27.0142 C   0  0  0  0  0  0  0  0  0  0  0  0
   63.3874   35.3563   22.8832 N   0  0  0  0  0  0  0  0  0  0  0  0
   63.7174   36.2516   21.9867 N   0  0  0  0  0  0  0  0  0  0  0  0
   65.1773   36.3020   23.5596 N   0  0  0  0  0  0  0  0  0  0  0  0
   67.5554   36.0488   23.9740 C   0  0  0  0  0  0  0  0  0  0  0  0
   65.6661   38.0608   21.6225 S   0  0  0  0  0  0  0  0  0  0  0  0
   65.1563   38.2675   25.4845 F   0  0  0  0  0  0  0  0  0  0  0  0
   62.0951   33.4306   24.3627 O   0  0  0  0  0  0  0  0  0  0  0  0
   64.1996   31.7191   28.2266 O   0  0  0  0  0  0  0  0  0  0  0  0
  2  1  2  0
  1 13  1  0
  1 21  1  0
  3  2  1  0
 11  3  2  0
  3 20  1  0
  4 11  1  0
  4 14  2  0
 16  4  1  0
  5 15  1  0
 16  5  1  0
  5 18  2  0
  6  7  2  0
  6 16  1  0
  6 17  1  0
  7  8  1  0
  7 19  1  0
  8  9  2  0
  9 10  1  0
 10 17  2  0
 11 12  1  0
 12 13  2  0
 14 15  1  0
M  END
$$$$
