
     RDKit          3D

 21 23  0  0  0  0  0  0  0  0999 V2000
   64.1489   32.4433   27.0919 C   0  0  0  0  0  0  0  0  0  0  0  0
   62.9514   32.8273   26.5482 C   0  0  0  0  0  0  0  0  0  0  0  0
   62.9019   33.6802   25.4272 C   0  0  0  0  0  0  0  0  0  0  0  0
   64.0753   35.0946   23.6933 C   0  0  0  0  0  0  0  0  0  0  0  0
   64.4075   36.6882   22.2673 C   0  0  0  0  0  0  0  0  0  0  0  0
   65.8328   36.7713   24.2639 C   0  0  0  0  0  0  0  0  0  0  0  0
   65.5470   37.6158   25.3473 C   0  0  0  0  0  0  0  0  0  0  0  0
   66.5837   38.2070   26.0365 C   0  0  0  0  0  0  0  0  0  0  0  0
   67.9037   38.0018   25.7035 C   0  0  0  0  0  0  0  0  0  0  0  0
   68.2061   37.1811   24.6491 C   0  0  0  0  0  0  0  0  0  0  0  0
   64.0142   34.1727   24.8145 C   0  0  0  0  0  0  0  0  0  0  0  0
   65.2334   33.7673   25.3888 C   0  0  0  0  0  0  0  0  0  0  0  0
   65.2760   32.9377   26.4804 C   0  0  0  0  0  0  0  0  0  0  0  0
   63.2037   34.9778   22.6159 N   0  0  0  0  0  0  0  0  0  0  0  0
   63.4175   35.9381   21.7744 N   0  0  0  0  0  0  0  0  0  0  0  0
   64.8246   36.1601   23.4786 N   0  0  0  0  0  0  0  0  0  0  0  0
   67.1902   36.5887   23.9572 C   0  0  0  0  0  0  0  0  0  0  0  0
   65.0591   38.0244   21.5894 S   0  0  0  0  0  0  0  0  0  0  0  0
   64.2460   37.8217   25.6803 F   0  0  0  0  0  0  0  0  0  0  0  0
   61.6516   34.0215   24.9517 O   0  0  0  0  0  0  0  0  0  0  0  0
   64.2560   31.6090   28.1903 O   0  0  0  0  0  0  0  0  0  0  0  0
  2  1  2  0
  1 13  1  0
  1 21  1  0
  3  2  1  0
 11  3  2  0
  3 20  1  0
  4 11  1  0
  4 14  2  0
 16  4  1  0
  5 15  1  0
 16  5  1  0
  5 18  2  0
  6  7  2  0
  6 16  1  0
  6 17  1  0
  7  8  1  0
  7 19  1  0
  8  9  2  0
  9 10  1  0
 10 17  2  0
 11 12  1  0
 12 13  2  0
 14 15  1  0
M  END
$$$$
