
     RDKit          3D

 21 23  0  0  0  0  0  0  0  0999 V2000
   64.3109   32.2636   27.1225 C   0  0  0  0  0  0  0  0  0  0  0  0
   63.0833   32.6557   26.6572 C   0  0  0  0  0  0  0  0  0  0  0  0
   62.9681   33.5520   25.5754 C   0  0  0  0  0  0  0  0  0  0  0  0
   64.0374   35.0469   23.8417 C   0  0  0  0  0  0  0  0  0  0  0  0
   64.2407   36.7202   22.4845 C   0  0  0  0  0  0  0  0  0  0  0  0
   65.6001   36.8689   24.5228 C   0  0  0  0  0  0  0  0  0  0  0  0
   66.9585   37.0107   24.2016 C   0  0  0  0  0  0  0  0  0  0  0  0
   67.8005   37.6481   25.0870 C   0  0  0  0  0  0  0  0  0  0  0  0
   67.3604   38.1578   26.2879 C   0  0  0  0  0  0  0  0  0  0  0  0
   66.0380   38.0307   26.6222 C   0  0  0  0  0  0  0  0  0  0  0  0
   64.0427   34.0806   24.9266 C   0  0  0  0  0  0  0  0  0  0  0  0
   65.2937   33.6660   25.4205 C   0  0  0  0  0  0  0  0  0  0  0  0
   65.4002   32.7942   26.4742 C   0  0  0  0  0  0  0  0  0  0  0  0
   63.2092   34.8848   22.7362 N   0  0  0  0  0  0  0  0  0  0  0  0
   63.3448   35.8939   21.9367 N   0  0  0  0  0  0  0  0  0  0  0  0
   64.6792   36.1902   23.6873 N   0  0  0  0  0  0  0  0  0  0  0  0
   65.1923   37.4020   25.7555 C   0  0  0  0  0  0  0  0  0  0  0  0
   64.7693   38.1408   21.8745 S   0  0  0  0  0  0  0  0  0  0  0  0
   67.3981   36.5095   23.0177 F   0  0  0  0  0  0  0  0  0  0  0  0
   61.6918   33.8982   25.1792 O   0  0  0  0  0  0  0  0  0  0  0  0
   64.4821   31.3875   28.1795 O   0  0  0  0  0  0  0  0  0  0  0  0
  2  1  2  0
  1 13  1  0
  1 21  1  0
  3  2  1  0
 11  3  2  0
  3 20  1  0
  4 11  1  0
  4 14  2  0
 16  4  1  0
  5 15  1  0
 16  5  1  0
  5 18  2  0
  6  7  2  0
  6 16  1  0
  6 17  1  0
  7  8  1  0
  7 19  1  0
  8  9  2  0
  9 10  1  0
 10 17  2  0
 11 12  1  0
 12 13  2  0
 14 15  1  0
M  END
$$$$
