
     RDKit          3D

 21 23  0  0  0  0  0  0  0  0999 V2000
   64.3233   32.4414   27.0675 C   0  0  0  0  0  0  0  0  0  0  0  0
   63.2431   32.5011   26.2267 C   0  0  0  0  0  0  0  0  0  0  0  0
   63.1765   33.3999   25.1448 C   0  0  0  0  0  0  0  0  0  0  0  0
   64.2837   35.1802   23.8088 C   0  0  0  0  0  0  0  0  0  0  0  0
   64.7401   36.7015   22.2405 C   0  0  0  0  0  0  0  0  0  0  0  0
   66.2842   36.5703   24.1173 C   0  0  0  0  0  0  0  0  0  0  0  0
   66.2113   37.4599   25.1831 C   0  0  0  0  0  0  0  0  0  0  0  0
   67.3613   37.8170   25.8474 C   0  0  0  0  0  0  0  0  0  0  0  0
   68.6009   37.3255   25.4990 C   0  0  0  0  0  0  0  0  0  0  0  0
   68.6498   36.4407   24.4343 C   0  0  0  0  0  0  0  0  0  0  0  0
   64.2110   34.2478   24.9112 C   0  0  0  0  0  0  0  0  0  0  0  0
   65.3018   34.1690   25.7797 C   0  0  0  0  0  0  0  0  0  0  0  0
   65.3744   33.2955   26.8357 C   0  0  0  0  0  0  0  0  0  0  0  0
   63.3526   35.1338   22.7801 N   0  0  0  0  0  0  0  0  0  0  0  0
   63.6451   36.0357   21.8772 N   0  0  0  0  0  0  0  0  0  0  0  0
   65.1115   36.1462   23.4411 N   0  0  0  0  0  0  0  0  0  0  0  0
   67.5169   36.0694   23.7561 C   0  0  0  0  0  0  0  0  0  0  0  0
   65.5259   37.9114   21.4924 S   0  0  0  0  0  0  0  0  0  0  0  0
   65.0000   37.9403   25.5237 F   0  0  0  0  0  0  0  0  0  0  0  0
   62.0324   33.3254   24.4005 O   0  0  0  0  0  0  0  0  0  0  0  0
   64.3263   31.5320   28.1166 O   0  0  0  0  0  0  0  0  0  0  0  0
  2  1  2  0
  1 13  1  0
  1 21  1  0
  3  2  1  0
 11  3  2  0
  3 20  1  0
  4 11  1  0
  4 14  2  0
 16  4  1  0
  5 15  1  0
 16  5  1  0
  5 18  2  0
  6  7  2  0
  6 16  1  0
  6 17  1  0
  7  8  1  0
  7 19  1  0
  8  9  2  0
  9 10  1  0
 10 17  2  0
 11 12  1  0
 12 13  2  0
 14 15  1  0
M  END
$$$$
