
     RDKit          3D

 21 23  0  0  0  0  0  0  0  0999 V2000
   64.6733   32.2065   27.0788 C   0  0  0  0  0  0  0  0  0  0  0  0
   63.4653   32.6150   26.5778 C   0  0  0  0  0  0  0  0  0  0  0  0
   63.3938   33.4822   25.4689 C   0  0  0  0  0  0  0  0  0  0  0  0
   64.5338   34.9001   23.7157 C   0  0  0  0  0  0  0  0  0  0  0  0
   64.7966   36.5324   22.3193 C   0  0  0  0  0  0  0  0  0  0  0  0
   66.0823   36.7328   24.4006 C   0  0  0  0  0  0  0  0  0  0  0  0
   67.4653   36.7864   24.1703 C   0  0  0  0  0  0  0  0  0  0  0  0
   68.2755   37.4505   25.0658 C   0  0  0  0  0  0  0  0  0  0  0  0
   67.7797   38.0710   26.1904 C   0  0  0  0  0  0  0  0  0  0  0  0
   66.4324   38.0314   26.4353 C   0  0  0  0  0  0  0  0  0  0  0  0
   64.4937   33.9656   24.8274 C   0  0  0  0  0  0  0  0  0  0  0  0
   65.7240   33.5349   25.3581 C   0  0  0  0  0  0  0  0  0  0  0  0
   65.7881   32.6915   26.4379 C   0  0  0  0  0  0  0  0  0  0  0  0
   63.7452   34.7105   22.5860 N   0  0  0  0  0  0  0  0  0  0  0  0
   63.9160   35.6953   21.7632 N   0  0  0  0  0  0  0  0  0  0  0  0
   65.1880   36.0350   23.5520 N   0  0  0  0  0  0  0  0  0  0  0  0
   65.6178   37.3776   25.5575 C   0  0  0  0  0  0  0  0  0  0  0  0
   65.3560   37.9319   21.6884 S   0  0  0  0  0  0  0  0  0  0  0  0
   67.9598   36.1757   23.0619 F   0  0  0  0  0  0  0  0  0  0  0  0
   62.1345   33.8480   25.0372 O   0  0  0  0  0  0  0  0  0  0  0  0
   64.8019   31.3573   28.1634 O   0  0  0  0  0  0  0  0  0  0  0  0
  2  1  2  0
  1 13  1  0
  1 21  1  0
  3  2  1  0
 11  3  2  0
  3 20  1  0
  4 11  1  0
  4 14  2  0
 16  4  1  0
  5 15  1  0
 16  5  1  0
  5 18  2  0
  6  7  2  0
  6 16  1  0
  6 17  1  0
  7  8  1  0
  7 19  1  0
  8  9  2  0
  9 10  1  0
 10 17  2  0
 11 12  1  0
 12 13  2  0
 14 15  1  0
M  END
$$$$
