
     RDKit          3D

 21 23  0  0  0  0  0  0  0  0999 V2000
   64.3341   32.1114   26.9831 C   0  0  0  0  0  0  0  0  0  0  0  0
   63.1235   32.5766   26.5409 C   0  0  0  0  0  0  0  0  0  0  0  0
   63.0118   33.5500   25.5297 C   0  0  0  0  0  0  0  0  0  0  0  0
   64.1515   35.0242   23.8841 C   0  0  0  0  0  0  0  0  0  0  0  0
   64.4771   36.6602   22.4009 C   0  0  0  0  0  0  0  0  0  0  0  0
   65.7595   36.7866   24.4657 C   0  0  0  0  0  0  0  0  0  0  0  0
   67.1014   36.8233   24.1043 C   0  0  0  0  0  0  0  0  0  0  0  0
   68.0012   37.4848   24.9069 C   0  0  0  0  0  0  0  0  0  0  0  0
   67.6272   38.1222   26.0702 C   0  0  0  0  0  0  0  0  0  0  0  0
   66.2853   38.0727   26.4107 C   0  0  0  0  0  0  0  0  0  0  0  0
   64.1345   34.0596   24.9607 C   0  0  0  0  0  0  0  0  0  0  0  0
   65.3571   33.5704   25.4257 C   0  0  0  0  0  0  0  0  0  0  0  0
   65.4741   32.6215   26.4103 C   0  0  0  0  0  0  0  0  0  0  0  0
   63.3913   34.8217   22.7402 N   0  0  0  0  0  0  0  0  0  0  0  0
   63.6022   35.7952   21.8905 N   0  0  0  0  0  0  0  0  0  0  0  0
   64.7989   36.1526   23.6364 N   0  0  0  0  0  0  0  0  0  0  0  0
   65.3689   37.4194   25.6268 C   0  0  0  0  0  0  0  0  0  0  0  0
   65.0816   38.0315   21.7723 S   0  0  0  0  0  0  0  0  0  0  0  0
   67.4670   36.2005   22.9675 F   0  0  0  0  0  0  0  0  0  0  0  0
   61.7315   33.8986   25.2011 O   0  0  0  0  0  0  0  0  0  0  0  0
   64.3753   31.1503   27.9842 O   0  0  0  0  0  0  0  0  0  0  0  0
  2  1  2  0
  1 13  1  0
  1 21  1  0
  3  2  1  0
 11  3  2  0
  3 20  1  0
  4 11  1  0
  4 14  2  0
 16  4  1  0
  5 15  1  0
 16  5  1  0
  5 18  2  0
  6  7  2  0
  6 16  1  0
  6 17  1  0
  7  8  1  0
  7 19  1  0
  8  9  2  0
  9 10  1  0
 10 17  2  0
 11 12  1  0
 12 13  2  0
 14 15  1  0
M  END
$$$$
