
     RDKit          3D

 21 23  0  0  0  0  0  0  0  0999 V2000
   64.5236   32.3806   26.9988 C   0  0  0  0  0  0  0  0  0  0  0  0
   63.3195   32.8141   26.5096 C   0  0  0  0  0  0  0  0  0  0  0  0
   63.2556   33.6968   25.4125 C   0  0  0  0  0  0  0  0  0  0  0  0
   64.4083   35.1198   23.6718 C   0  0  0  0  0  0  0  0  0  0  0  0
   64.6853   36.7677   22.2966 C   0  0  0  0  0  0  0  0  0  0  0  0
   65.9690   36.9322   24.3823 C   0  0  0  0  0  0  0  0  0  0  0  0
   67.3322   37.0886   24.0892 C   0  0  0  0  0  0  0  0  0  0  0  0
   68.1507   37.7265   24.9960 C   0  0  0  0  0  0  0  0  0  0  0  0
   67.6823   38.2229   26.1918 C   0  0  0  0  0  0  0  0  0  0  0  0
   66.3547   38.0814   26.4987 C   0  0  0  0  0  0  0  0  0  0  0  0
   64.3595   34.1715   24.7714 C   0  0  0  0  0  0  0  0  0  0  0  0
   65.5857   33.7151   25.2898 C   0  0  0  0  0  0  0  0  0  0  0  0
   65.6424   32.8567   26.3583 C   0  0  0  0  0  0  0  0  0  0  0  0
   63.6201   34.9503   22.5385 N   0  0  0  0  0  0  0  0  0  0  0  0
   63.7995   35.9442   21.7285 N   0  0  0  0  0  0  0  0  0  0  0  0
   65.0710   36.2519   23.5235 N   0  0  0  0  0  0  0  0  0  0  0  0
   65.5321   37.4520   25.6106 C   0  0  0  0  0  0  0  0  0  0  0  0
   65.2560   38.1709   21.6844 S   0  0  0  0  0  0  0  0  0  0  0  0
   67.7997   36.6006   22.9105 F   0  0  0  0  0  0  0  0  0  0  0  0
   61.9999   34.0875   24.9924 O   0  0  0  0  0  0  0  0  0  0  0  0
   64.6446   31.5154   28.0716 O   0  0  0  0  0  0  0  0  0  0  0  0
  2  1  2  0
  1 13  1  0
  1 21  1  0
  3  2  1  0
 11  3  2  0
  3 20  1  0
  4 11  1  0
  4 14  2  0
 16  4  1  0
  5 15  1  0
 16  5  1  0
  5 18  2  0
  6  7  2  0
  6 16  1  0
  6 17  1  0
  7  8  1  0
  7 19  1  0
  8  9  2  0
  9 10  1  0
 10 17  2  0
 11 12  1  0
 12 13  2  0
 14 15  1  0
M  END
$$$$
