
     RDKit          3D

 21 23  0  0  0  0  0  0  0  0999 V2000
   64.2951   32.1780   27.0871 C   0  0  0  0  0  0  0  0  0  0  0  0
   63.0834   32.5614   26.5750 C   0  0  0  0  0  0  0  0  0  0  0  0
   62.9677   33.4870   25.5202 C   0  0  0  0  0  0  0  0  0  0  0  0
   64.1034   34.9529   23.8646 C   0  0  0  0  0  0  0  0  0  0  0  0
   64.4401   36.5153   22.3063 C   0  0  0  0  0  0  0  0  0  0  0  0
   65.8050   36.6649   24.3160 C   0  0  0  0  0  0  0  0  0  0  0  0
   65.4932   37.3880   25.4617 C   0  0  0  0  0  0  0  0  0  0  0  0
   66.5057   37.9421   26.2095 C   0  0  0  0  0  0  0  0  0  0  0  0
   67.8348   37.8110   25.8693 C   0  0  0  0  0  0  0  0  0  0  0  0
   68.1221   37.0866   24.7240 C   0  0  0  0  0  0  0  0  0  0  0  0
   64.0873   34.0319   24.9787 C   0  0  0  0  0  0  0  0  0  0  0  0
   65.3112   33.6262   25.5152 C   0  0  0  0  0  0  0  0  0  0  0  0
   65.4322   32.7243   26.5424 C   0  0  0  0  0  0  0  0  0  0  0  0
   63.2920   34.7400   22.7584 N   0  0  0  0  0  0  0  0  0  0  0  0
   63.5107   35.6702   21.8633 N   0  0  0  0  0  0  0  0  0  0  0  0
   64.7875   36.0419   23.5485 N   0  0  0  0  0  0  0  0  0  0  0  0
   67.1301   36.5245   23.9617 C   0  0  0  0  0  0  0  0  0  0  0  0
   65.0769   37.8340   21.6018 S   0  0  0  0  0  0  0  0  0  0  0  0
   64.1944   37.5162   25.7943 F   0  0  0  0  0  0  0  0  0  0  0  0
   61.6873   33.7547   25.1234 O   0  0  0  0  0  0  0  0  0  0  0  0
   64.3403   31.2606   28.1282 O   0  0  0  0  0  0  0  0  0  0  0  0
  2  1  2  0
  1 13  1  0
  1 21  1  0
  3  2  1  0
 11  3  2  0
  3 20  1  0
  4 11  1  0
  4 14  2  0
 16  4  1  0
  5 15  1  0
 16  5  1  0
  5 18  2  0
  6  7  2  0
  6 16  1  0
  6 17  1  0
  7  8  1  0
  7 19  1  0
  8  9  2  0
  9 10  1  0
 10 17  2  0
 11 12  1  0
 12 13  2  0
 14 15  1  0
M  END
$$$$
