
     RDKit          3D

 21 23  0  0  0  0  0  0  0  0999 V2000
   64.6331   32.2241   26.7315 C   0  0  0  0  0  0  0  0  0  0  0  0
   63.4089   32.6273   26.2665 C   0  0  0  0  0  0  0  0  0  0  0  0
   63.2669   33.5890   25.2479 C   0  0  0  0  0  0  0  0  0  0  0  0
   64.3610   35.1090   23.6130 C   0  0  0  0  0  0  0  0  0  0  0  0
   64.6243   36.7576   22.1314 C   0  0  0  0  0  0  0  0  0  0  0  0
   65.8192   36.9826   24.2399 C   0  0  0  0  0  0  0  0  0  0  0  0
   67.1753   37.0758   23.9482 C   0  0  0  0  0  0  0  0  0  0  0  0
   67.9979   37.8030   24.7763 C   0  0  0  0  0  0  0  0  0  0  0  0
   67.5318   38.4530   25.8987 C   0  0  0  0  0  0  0  0  0  0  0  0
   66.1775   38.3465   26.1698 C   0  0  0  0  0  0  0  0  0  0  0  0
   64.3729   34.1500   24.6948 C   0  0  0  0  0  0  0  0  0  0  0  0
   65.6099   33.7236   25.1830 C   0  0  0  0  0  0  0  0  0  0  0  0
   65.7564   32.7865   26.1748 C   0  0  0  0  0  0  0  0  0  0  0  0
   63.6587   34.8487   22.4441 N   0  0  0  0  0  0  0  0  0  0  0  0
   63.8313   35.8311   21.5959 N   0  0  0  0  0  0  0  0  0  0  0  0
   64.9361   36.2791   23.3811 N   0  0  0  0  0  0  0  0  0  0  0  0
   65.3369   37.6272   25.3593 C   0  0  0  0  0  0  0  0  0  0  0  0
   65.1534   38.1654   21.5157 S   0  0  0  0  0  0  0  0  0  0  0  0
   67.6309   36.4406   22.8514 F   0  0  0  0  0  0  0  0  0  0  0  0
   61.9769   33.8729   24.8960 O   0  0  0  0  0  0  0  0  0  0  0  0
   64.7042   31.2712   27.7388 O   0  0  0  0  0  0  0  0  0  0  0  0
  2  1  2  0
  1 13  1  0
  1 21  1  0
  3  2  1  0
 11  3  2  0
  3 20  1  0
  4 11  1  0
  4 14  2  0
 16  4  1  0
  5 15  1  0
 16  5  1  0
  5 18  2  0
  6  7  2  0
  6 16  1  0
  6 17  1  0
  7  8  1  0
  7 19  1  0
  8  9  2  0
  9 10  1  0
 10 17  2  0
 11 12  1  0
 12 13  2  0
 14 15  1  0
M  END
$$$$
