
     RDKit          3D

 21 23  0  0  0  0  0  0  0  0999 V2000
   64.6852   32.1443   27.1028 C   0  0  0  0  0  0  0  0  0  0  0  0
   63.4705   32.5908   26.6531 C   0  0  0  0  0  0  0  0  0  0  0  0
   63.3810   33.4846   25.5669 C   0  0  0  0  0  0  0  0  0  0  0  0
   64.4926   34.9169   23.8072 C   0  0  0  0  0  0  0  0  0  0  0  0
   64.7378   36.5780   22.4419 C   0  0  0  0  0  0  0  0  0  0  0  0
   66.0684   36.7234   24.4994 C   0  0  0  0  0  0  0  0  0  0  0  0
   67.4211   36.8967   24.1700 C   0  0  0  0  0  0  0  0  0  0  0  0
   68.2604   37.5254   25.0641 C   0  0  0  0  0  0  0  0  0  0  0  0
   67.8229   37.9964   26.2817 C   0  0  0  0  0  0  0  0  0  0  0  0
   66.5060   37.8380   26.6242 C   0  0  0  0  0  0  0  0  0  0  0  0
   64.4691   33.9582   24.8985 C   0  0  0  0  0  0  0  0  0  0  0  0
   65.7067   33.4884   25.3766 C   0  0  0  0  0  0  0  0  0  0  0  0
   65.7883   32.6191   26.4346 C   0  0  0  0  0  0  0  0  0  0  0  0
   63.6790   34.7578   22.6905 N   0  0  0  0  0  0  0  0  0  0  0  0
   63.8396   35.7594   21.8862 N   0  0  0  0  0  0  0  0  0  0  0  0
   65.1514   36.0507   23.6547 N   0  0  0  0  0  0  0  0  0  0  0  0
   65.6630   37.2175   25.7490 C   0  0  0  0  0  0  0  0  0  0  0  0
   65.2939   37.9873   21.8303 S   0  0  0  0  0  0  0  0  0  0  0  0
   67.8582   36.4338   22.9697 F   0  0  0  0  0  0  0  0  0  0  0  0
   62.1164   33.8879   25.1874 O   0  0  0  0  0  0  0  0  0  0  0  0
   64.8314   31.2678   28.1631 O   0  0  0  0  0  0  0  0  0  0  0  0
  2  1  2  0
  1 13  1  0
  1 21  1  0
  3  2  1  0
 11  3  2  0
  3 20  1  0
  4 11  1  0
  4 14  2  0
 16  4  1  0
  5 15  1  0
 16  5  1  0
  5 18  2  0
  6  7  2  0
  6 16  1  0
  6 17  1  0
  7  8  1  0
  7 19  1  0
  8  9  2  0
  9 10  1  0
 10 17  2  0
 11 12  1  0
 12 13  2  0
 14 15  1  0
M  END
$$$$
