
     RDKit          3D

 21 23  0  0  0  0  0  0  0  0999 V2000
   64.2830   32.6041   26.9521 C   0  0  0  0  0  0  0  0  0  0  0  0
   63.1999   32.6917   26.1176 C   0  0  0  0  0  0  0  0  0  0  0  0
   63.2115   33.5488   24.9987 C   0  0  0  0  0  0  0  0  0  0  0  0
   64.3726   35.2855   23.5777 C   0  0  0  0  0  0  0  0  0  0  0  0
   64.8095   36.8756   22.1761 C   0  0  0  0  0  0  0  0  0  0  0  0
   66.4041   36.6619   24.0299 C   0  0  0  0  0  0  0  0  0  0  0  0
   66.3790   37.6870   24.9876 C   0  0  0  0  0  0  0  0  0  0  0  0
   67.5527   38.0703   25.5997 C   0  0  0  0  0  0  0  0  0  0  0  0
   68.7635   37.4832   25.3083 C   0  0  0  0  0  0  0  0  0  0  0  0
   68.8115   36.4802   24.3764 C   0  0  0  0  0  0  0  0  0  0  0  0
   64.2754   34.3335   24.6708 C   0  0  0  0  0  0  0  0  0  0  0  0
   65.3766   34.2295   25.5409 C   0  0  0  0  0  0  0  0  0  0  0  0
   65.3599   33.3943   26.6290 C   0  0  0  0  0  0  0  0  0  0  0  0
   63.4005   35.3447   22.5848 N   0  0  0  0  0  0  0  0  0  0  0  0
   63.6788   36.3001   21.7568 N   0  0  0  0  0  0  0  0  0  0  0  0
   65.2500   36.2392   23.3256 N   0  0  0  0  0  0  0  0  0  0  0  0
   67.6575   36.0899   23.7619 C   0  0  0  0  0  0  0  0  0  0  0  0
   65.5897   38.1315   21.4808 S   0  0  0  0  0  0  0  0  0  0  0  0
   65.1868   38.2698   25.2790 F   0  0  0  0  0  0  0  0  0  0  0  0
   62.0732   33.5789   24.2182 O   0  0  0  0  0  0  0  0  0  0  0  0
   64.3259   31.7805   28.0630 O   0  0  0  0  0  0  0  0  0  0  0  0
  2  1  2  0
  1 13  1  0
  1 21  1  0
  3  2  1  0
 11  3  2  0
  3 20  1  0
  4 11  1  0
  4 14  2  0
 16  4  1  0
  5 15  1  0
 16  5  1  0
  5 18  2  0
  6  7  2  0
  6 16  1  0
  6 17  1  0
  7  8  1  0
  7 19  1  0
  8  9  2  0
  9 10  1  0
 10 17  2  0
 11 12  1  0
 12 13  2  0
 14 15  1  0
M  END
$$$$
