
     RDKit          3D

 21 23  0  0  0  0  0  0  0  0999 V2000
   64.1735   32.3233   26.9862 C   0  0  0  0  0  0  0  0  0  0  0  0
   62.9705   32.7557   26.4933 C   0  0  0  0  0  0  0  0  0  0  0  0
   62.9092   33.6396   25.3971 C   0  0  0  0  0  0  0  0  0  0  0  0
   64.0659   35.0662   23.6620 C   0  0  0  0  0  0  0  0  0  0  0  0
   64.3489   36.7145   22.2885 C   0  0  0  0  0  0  0  0  0  0  0  0
   65.6399   36.8680   24.3705 C   0  0  0  0  0  0  0  0  0  0  0  0
   66.9966   37.0440   24.0588 C   0  0  0  0  0  0  0  0  0  0  0  0
   67.8231   37.6733   24.9643 C   0  0  0  0  0  0  0  0  0  0  0  0
   67.3690   38.1424   26.1765 C   0  0  0  0  0  0  0  0  0  0  0  0
   66.0480   37.9814   26.5019 C   0  0  0  0  0  0  0  0  0  0  0  0
   64.0147   34.1166   24.7604 C   0  0  0  0  0  0  0  0  0  0  0  0
   65.2397   33.6614   25.2826 C   0  0  0  0  0  0  0  0  0  0  0  0
   65.2939   32.8018   26.3502 C   0  0  0  0  0  0  0  0  0  0  0  0
   63.2733   34.9034   22.5309 N   0  0  0  0  0  0  0  0  0  0  0  0
   63.4563   35.8974   21.7219 N   0  0  0  0  0  0  0  0  0  0  0  0
   64.7352   36.1945   23.5135 N   0  0  0  0  0  0  0  0  0  0  0  0
   65.2176   37.3601   25.6152 C   0  0  0  0  0  0  0  0  0  0  0  0
   64.9263   38.1152   21.6767 S   0  0  0  0  0  0  0  0  0  0  0  0
   67.4499   36.5829   22.8638 F   0  0  0  0  0  0  0  0  0  0  0  0
   61.6544   34.0289   24.9730 O   0  0  0  0  0  0  0  0  0  0  0  0
   64.2921   31.4570   28.0584 O   0  0  0  0  0  0  0  0  0  0  0  0
  2  1  2  0
  1 13  1  0
  1 21  1  0
  3  2  1  0
 11  3  2  0
  3 20  1  0
  4 11  1  0
  4 14  2  0
 16  4  1  0
  5 15  1  0
 16  5  1  0
  5 18  2  0
  6  7  2  0
  6 16  1  0
  6 17  1  0
  7  8  1  0
  7 19  1  0
  8  9  2  0
  9 10  1  0
 10 17  2  0
 11 12  1  0
 12 13  2  0
 14 15  1  0
M  END
$$$$
