
     RDKit          3D

 21 23  0  0  0  0  0  0  0  0999 V2000
   64.3344   32.3273   26.9753 C   0  0  0  0  0  0  0  0  0  0  0  0
   63.1309   32.7736   26.4962 C   0  0  0  0  0  0  0  0  0  0  0  0
   63.0350   33.7254   25.4630 C   0  0  0  0  0  0  0  0  0  0  0  0
   64.2009   35.1752   23.8141 C   0  0  0  0  0  0  0  0  0  0  0  0
   64.5745   36.7544   22.2815 C   0  0  0  0  0  0  0  0  0  0  0  0
   65.9817   36.8043   24.2668 C   0  0  0  0  0  0  0  0  0  0  0  0
   65.7220   37.5187   25.4307 C   0  0  0  0  0  0  0  0  0  0  0  0
   66.7708   38.0139   26.1699 C   0  0  0  0  0  0  0  0  0  0  0  0
   68.0867   37.8312   25.8033 C   0  0  0  0  0  0  0  0  0  0  0  0
   68.3219   37.1165   24.6402 C   0  0  0  0  0  0  0  0  0  0  0  0
   64.1665   34.2325   24.9095 C   0  0  0  0  0  0  0  0  0  0  0  0
   65.3818   33.7628   25.4123 C   0  0  0  0  0  0  0  0  0  0  0  0
   65.4834   32.8350   26.4185 C   0  0  0  0  0  0  0  0  0  0  0  0
   63.3608   35.0198   22.7199 N   0  0  0  0  0  0  0  0  0  0  0  0
   63.6021   35.9586   21.8397 N   0  0  0  0  0  0  0  0  0  0  0  0
   64.9246   36.2409   23.5068 N   0  0  0  0  0  0  0  0  0  0  0  0
   67.2930   36.6126   23.8861 C   0  0  0  0  0  0  0  0  0  0  0  0
   65.2535   38.0596   21.5915 S   0  0  0  0  0  0  0  0  0  0  0  0
   64.4361   37.6973   25.7891 F   0  0  0  0  0  0  0  0  0  0  0  0
   61.7600   34.0567   25.0982 O   0  0  0  0  0  0  0  0  0  0  0  0
   64.3600   31.3871   27.9966 O   0  0  0  0  0  0  0  0  0  0  0  0
  2  1  2  0
  1 13  1  0
  1 21  1  0
  3  2  1  0
 11  3  2  0
  3 20  1  0
  4 11  1  0
  4 14  2  0
 16  4  1  0
  5 15  1  0
 16  5  1  0
  5 18  2  0
  6  7  2  0
  6 16  1  0
  6 17  1  0
  7  8  1  0
  7 19  1  0
  8  9  2  0
  9 10  1  0
 10 17  2  0
 11 12  1  0
 12 13  2  0
 14 15  1  0
M  END
$$$$
