
     RDKit          3D

 29 33  0  0  0  0  0  0  0  0999 V2000
  -22.8421  -19.1099   14.1044 C   0  0  0  0  0  0  0  0  0  0  0  0
  -24.6048  -21.1812   11.8148 C   0  0  0  0  0  0  0  0  0  0  0  0
  -23.0782  -21.3784    9.8692 C   0  0  0  0  0  0  0  0  0  0  0  0
  -21.7190  -22.9832   11.1626 C   0  0  0  0  0  0  0  0  0  0  0  0
  -20.4329  -26.4506   10.4413 C   0  0  0  0  0  0  0  0  0  0  0  0
  -20.4481  -28.6414   11.3931 C   0  0  0  0  0  0  0  0  0  0  0  0
  -22.3202  -30.1337   10.8831 C   0  0  0  0  0  0  0  0  0  0  0  0
  -22.4750  -27.6583   10.5961 C   0  0  0  0  0  0  0  0  0  0  0  0
  -22.4374  -23.6065    9.0019 C   0  0  0  0  0  0  0  0  0  0  0  0
  -16.2275  -16.9905   13.5765 N   0  0  0  0  0  0  0  0  0  0  0  0
  -17.4514  -17.3670   12.9591 C   0  0  0  0  0  0  0  0  0  0  0  0
  -17.7805  -17.2254   11.6652 N   0  0  0  0  0  0  0  0  0  0  0  0
  -19.0080  -17.6874   11.4374 N   0  0  0  0  0  0  0  0  0  0  0  0
  -19.5378  -18.1541   12.5803 C   0  0  0  0  0  0  0  0  0  0  0  0
  -20.8562  -18.7447   12.7737 C   0  0  0  0  0  0  0  0  0  0  0  0
  -21.4300  -19.5389   11.7931 C   0  0  0  0  0  0  0  0  0  0  0  0
  -22.6788  -20.1091   11.9556 C   0  0  0  0  0  0  0  0  0  0  0  0
  -23.4044  -19.8979   13.1245 C   0  0  0  0  0  0  0  0  0  0  0  0
  -21.5975  -18.5552   13.9163 C   0  0  0  0  0  0  0  0  0  0  0  0
  -24.6059  -20.5690   13.0320 C   0  0  0  0  0  0  0  0  0  0  0  0
  -23.4399  -20.8931   11.1846 N   0  0  0  0  0  0  0  0  0  0  0  0
  -22.4003  -22.6763   10.0128 C   0  0  0  0  0  0  0  0  0  0  0  0
  -21.0738  -24.2174   11.3069 C   0  0  0  0  0  0  0  0  0  0  0  0
  -21.1176  -25.1389   10.2904 C   0  0  0  0  0  0  0  0  0  0  0  0
  -21.2049  -27.3924   11.2147 N   0  0  2  0  0  4  0  0  0  0  0  0
  -21.4146  -29.6435   11.9995 C   0  0  0  0  0  0  0  0  0  0  0  0
  -22.5062  -29.0043    9.8996 C   0  0  0  0  0  0  0  0  0  0  0  0
  -21.7999  -24.8434    9.1268 C   0  0  0  0  0  0  0  0  0  0  0  0
  -18.5735  -17.9606   13.5459 C   0  0  0  0  0  0  0  0  0  0  0  0
 18  1  2  0
  1 19  1  0
  2 20  2  0
 21  2  1  0
  3 21  1  0
 22  3  1  0
  4 22  2  0
 23  4  1  0
 24  5  1  0
 25  5  1  6
 25  6  1  0
  6 26  1  0
 26  7  1  0
 27  7  1  0
 25  8  1  0
  8 27  1  0
 22  9  1  0
  9 28  2  0
 11 10  1  0
 11 12  1  0
 29 11  2  0
 13 12  1  0
 14 13  2  0
 15 14  1  0
 14 29  1  0
 16 15  1  0
 15 19  2  0
 17 16  2  0
 17 18  1  0
 21 17  1  0
 18 20  1  0
 23 24  2  0
 24 28  1  0
M  CHG  1  25   1
M  END
$$$$
