
     RDKit          3D

 29 33  0  0  0  0  0  0  0  0999 V2000
  -13.3559   -9.0867   28.2127 C   0  0  0  0  0  0  0  0  0  0  0  0
  -11.0970   -6.8483   29.8021 C   0  0  0  0  0  0  0  0  0  0  0  0
   -9.3957   -6.3604   28.0637 C   0  0  0  0  0  0  0  0  0  0  0  0
   -8.5877   -4.3747   29.2883 C   0  0  0  0  0  0  0  0  0  0  0  0
   -9.6545   -0.7614   29.3428 C   0  0  0  0  0  0  0  0  0  0  0  0
   -8.5196    1.1735   30.1634 C   0  0  0  0  0  0  0  0  0  0  0  0
   -6.5818    2.0149   28.9268 C   0  0  0  0  0  0  0  0  0  0  0  0
   -7.4211   -0.3212   28.6572 C   0  0  0  0  0  0  0  0  0  0  0  0
  -10.4056   -4.1153   27.8047 C   0  0  0  0  0  0  0  0  0  0  0  0
  -13.1675  -11.7114   21.8128 N   0  0  0  0  0  0  0  0  0  0  0  0
  -12.5965  -10.8484   22.7875 C   0  0  0  0  0  0  0  0  0  0  0  0
  -11.5224  -10.0572   22.6360 N   0  0  0  0  0  0  0  0  0  0  0  0
  -11.2693   -9.3857   23.7571 N   0  0  0  0  0  0  0  0  0  0  0  0
  -12.1732   -9.7110   24.6962 C   0  0  0  0  0  0  0  0  0  0  0  0
  -12.2588   -9.2068   26.0610 C   0  0  0  0  0  0  0  0  0  0  0  0
  -11.3045   -8.3321   26.5567 C   0  0  0  0  0  0  0  0  0  0  0  0
  -11.3664   -7.8413   27.8476 C   0  0  0  0  0  0  0  0  0  0  0  0
  -12.4031   -8.2178   28.6968 C   0  0  0  0  0  0  0  0  0  0  0  0
  -13.2698   -9.5594   26.9238 C   0  0  0  0  0  0  0  0  0  0  0  0
  -12.2306   -7.5955   29.9156 C   0  0  0  0  0  0  0  0  0  0  0  0
  -10.5937   -7.0092   28.5539 N   0  0  0  0  0  0  0  0  0  0  0  0
   -9.4649   -4.9277   28.3910 C   0  0  0  0  0  0  0  0  0  0  0  0
   -8.6463   -3.0116   29.6026 C   0  0  0  0  0  0  0  0  0  0  0  0
   -9.5903   -2.2097   29.0106 C   0  0  0  0  0  0  0  0  0  0  0  0
   -8.3727   -0.2248   29.7302 N   0  0  2  0  0  4  0  0  0  0  0  0
   -7.1122    1.7224   30.3195 C   0  0  0  0  0  0  0  0  0  0  0  0
   -7.1852    1.0116   27.9745 C   0  0  0  0  0  0  0  0  0  0  0  0
  -10.4801   -2.7530   28.1052 C   0  0  0  0  0  0  0  0  0  0  0  0
  -13.0141  -10.6285   24.1039 C   0  0  0  0  0  0  0  0  0  0  0  0
 18  1  2  0
  1 19  1  0
  2 20  2  0
 21  2  1  0
  3 21  1  0
 22  3  1  0
  4 22  2  0
 23  4  1  0
 24  5  1  0
 25  5  1  6
 25  6  1  0
  6 26  1  0
 26  7  1  0
 27  7  1  0
 25  8  1  0
  8 27  1  0
 22  9  1  0
  9 28  2  0
 11 10  1  0
 11 12  1  0
 29 11  2  0
 13 12  1  0
 14 13  2  0
 15 14  1  0
 14 29  1  0
 16 15  1  0
 15 19  2  0
 17 16  2  0
 17 18  1  0
 21 17  1  0
 18 20  1  0
 23 24  2  0
 24 28  1  0
M  CHG  1  25   1
M  END
$$$$
