
     RDKit          3D

 29 33  0  0  0  0  0  0  0  0999 V2000
  -11.9207   -6.2015   26.7265 C   0  0  0  0  0  0  0  0  0  0  0  0
  -12.2139   -7.6676   29.9520 C   0  0  0  0  0  0  0  0  0  0  0  0
  -12.4127  -10.0992   29.5022 C   0  0  0  0  0  0  0  0  0  0  0  0
  -11.2121  -10.9783   31.4723 C   0  0  0  0  0  0  0  0  0  0  0  0
   -7.5902  -11.7632   32.1532 C   0  0  0  0  0  0  0  0  0  0  0  0
   -5.2255  -11.9362   31.8638 C   0  0  0  0  0  0  0  0  0  0  0  0
   -3.8038  -10.1163   32.6753 C   0  0  0  0  0  0  0  0  0  0  0  0
   -6.2425   -9.8065   32.2382 C   0  0  0  0  0  0  0  0  0  0  0  0
   -9.9659  -10.4732   29.5319 C   0  0  0  0  0  0  0  0  0  0  0  0
  -12.1548   -9.2246   20.5032 N   0  0  0  0  0  0  0  0  0  0  0  0
  -12.1047   -9.3592   21.9175 C   0  0  0  0  0  0  0  0  0  0  0  0
  -12.0277  -10.5020   22.6180 N   0  0  0  0  0  0  0  0  0  0  0  0
  -11.9994  -10.2530   23.9253 N   0  0  0  0  0  0  0  0  0  0  0  0
  -12.0570   -8.9277   24.1373 C   0  0  0  0  0  0  0  0  0  0  0  0
  -12.0512   -8.2304   25.4172 C   0  0  0  0  0  0  0  0  0  0  0  0
  -12.1731   -8.9296   26.6080 C   0  0  0  0  0  0  0  0  0  0  0  0
  -12.1698   -8.2887   27.8328 C   0  0  0  0  0  0  0  0  0  0  0  0
  -12.0424   -6.9044   27.9047 C   0  0  0  0  0  0  0  0  0  0  0  0
  -11.9269   -6.8649   25.5216 C   0  0  0  0  0  0  0  0  0  0  0  0
  -12.0706   -6.5214   29.2295 C   0  0  0  0  0  0  0  0  0  0  0  0
  -12.2713   -8.7167   29.0957 N   0  0  0  0  0  0  0  0  0  0  0  0
  -11.1771  -10.5228   30.1794 C   0  0  0  0  0  0  0  0  0  0  0  0
  -10.0405  -11.3853   32.1219 C   0  0  0  0  0  0  0  0  0  0  0  0
   -8.8362  -11.3314   31.4652 C   0  0  0  0  0  0  0  0  0  0  0  0
   -6.4160  -11.1015   31.6389 N   0  0  2  0  0  4  0  0  0  0  0  0
   -4.0261  -11.0721   31.5161 C   0  0  0  0  0  0  0  0  0  0  0  0
   -5.1468   -9.7984   33.2858 C   0  0  0  0  0  0  0  0  0  0  0  0
   -8.7859  -10.8747   30.1630 C   0  0  0  0  0  0  0  0  0  0  0  0
  -12.1235   -8.3515   22.8870 C   0  0  0  0  0  0  0  0  0  0  0  0
 18  1  2  0
  1 19  1  0
  2 20  2  0
 21  2  1  0
  3 21  1  0
 22  3  1  0
  4 22  2  0
 23  4  1  0
 24  5  1  0
 25  5  1  1
 25  6  1  0
  6 26  1  0
 26  7  1  0
 27  7  1  0
 25  8  1  0
  8 27  1  0
 22  9  1  0
  9 28  2  0
 11 10  1  0
 11 12  1  0
 29 11  2  0
 13 12  1  0
 14 13  2  0
 15 14  1  0
 14 29  1  0
 16 15  1  0
 15 19  2  0
 17 16  2  0
 17 18  1  0
 21 17  1  0
 18 20  1  0
 23 24  2  0
 24 28  1  0
M  CHG  1  25   1
M  END
$$$$
