
     RDKit          3D

 29 33  0  0  0  0  0  0  0  0999 V2000
  -14.7435   -9.1785   26.9279 C   0  0  0  0  0  0  0  0  0  0  0  0
  -13.0179   -7.6842   29.6534 C   0  0  0  0  0  0  0  0  0  0  0  0
  -10.6541   -7.5960   28.9054 C   0  0  0  0  0  0  0  0  0  0  0  0
  -11.4606   -5.4172   28.0699 C   0  0  0  0  0  0  0  0  0  0  0  0
   -9.7139   -2.3286   26.8022 C   0  0  0  0  0  0  0  0  0  0  0  0
  -10.2125    0.0049   26.9104 C   0  0  0  0  0  0  0  0  0  0  0  0
   -9.6919    1.2260   28.9671 C   0  0  0  0  0  0  0  0  0  0  0  0
   -9.9181   -1.2600   28.9162 C   0  0  0  0  0  0  0  0  0  0  0  0
   -9.1319   -5.7966   28.1487 C   0  0  0  0  0  0  0  0  0  0  0  0
   -9.5833  -10.7942   21.8814 N   0  0  0  0  0  0  0  0  0  0  0  0
  -10.7825  -10.5337   22.5990 C   0  0  0  0  0  0  0  0  0  0  0  0
  -12.0398  -10.6919   22.1555 N   0  0  0  0  0  0  0  0  0  0  0  0
  -12.9181  -10.3515   23.0961 N   0  0  0  0  0  0  0  0  0  0  0  0
  -12.2685   -9.9535   24.2026 C   0  0  0  0  0  0  0  0  0  0  0  0
  -12.8488   -9.4993   25.4600 C   0  0  0  0  0  0  0  0  0  0  0  0
  -12.0559   -8.9294   26.4439 C   0  0  0  0  0  0  0  0  0  0  0  0
  -12.5852   -8.4916   27.6435 C   0  0  0  0  0  0  0  0  0  0  0  0
  -13.9480   -8.6133   27.8999 C   0  0  0  0  0  0  0  0  0  0  0  0
  -14.1902   -9.6054   25.7431 C   0  0  0  0  0  0  0  0  0  0  0  0
  -14.2132   -8.1080   29.1557 C   0  0  0  0  0  0  0  0  0  0  0  0
  -12.0538   -7.9229   28.7310 N   0  0  0  0  0  0  0  0  0  0  0  0
  -10.4113   -6.2490   28.3654 C   0  0  0  0  0  0  0  0  0  0  0  0
  -11.2367   -4.1333   27.5581 C   0  0  0  0  0  0  0  0  0  0  0  0
   -9.9543   -3.6920   27.3458 C   0  0  0  0  0  0  0  0  0  0  0  0
  -10.3902   -1.3036   27.5592 N   0  0  2  0  0  4  0  0  0  0  0  0
  -10.7426    1.0409   27.8861 C   0  0  0  0  0  0  0  0  0  0  0  0
   -8.9840   -0.0921   29.1642 C   0  0  0  0  0  0  0  0  0  0  0  0
   -8.8879   -4.5190   27.6388 C   0  0  0  0  0  0  0  0  0  0  0  0
  -10.9264  -10.0617   23.9075 C   0  0  0  0  0  0  0  0  0  0  0  0
 18  1  2  0
  1 19  1  0
  2 20  2  0
 21  2  1  0
  3 21  1  0
 22  3  1  0
  4 22  2  0
 23  4  1  0
 24  5  1  0
 25  5  1  6
 25  6  1  0
  6 26  1  0
 26  7  1  0
 27  7  1  0
 25  8  1  0
  8 27  1  0
 22  9  1  0
  9 28  2  0
 11 10  1  0
 11 12  1  0
 29 11  2  0
 13 12  1  0
 14 13  2  0
 15 14  1  0
 14 29  1  0
 16 15  1  0
 15 19  2  0
 17 16  2  0
 17 18  1  0
 21 17  1  0
 18 20  1  0
 23 24  2  0
 24 28  1  0
M  CHG  1  25   1
M  END
$$$$
