
     RDKit          3D

 29 33  0  0  0  0  0  0  0  0999 V2000
  -12.5747  -10.6006   27.7756 C   0  0  0  0  0  0  0  0  0  0  0  0
  -13.2466   -7.7288   29.7605 C   0  0  0  0  0  0  0  0  0  0  0  0
  -13.4182   -5.8774   28.1181 C   0  0  0  0  0  0  0  0  0  0  0  0
  -15.5536   -5.4008   29.2620 C   0  0  0  0  0  0  0  0  0  0  0  0
  -16.4698   -3.3030   32.2549 C   0  0  0  0  0  0  0  0  0  0  0  0
  -15.4467   -1.1913   32.7015 C   0  0  0  0  0  0  0  0  0  0  0  0
  -16.7906    0.5722   33.7390 C   0  0  0  0  0  0  0  0  0  0  0  0
  -17.8254   -1.3751   32.5679 C   0  0  0  0  0  0  0  0  0  0  0  0
  -13.5847   -4.4037   30.1000 C   0  0  0  0  0  0  0  0  0  0  0  0
  -11.6470  -11.0827   20.9333 N   0  0  0  0  0  0  0  0  0  0  0  0
  -11.9978  -10.2868   22.0577 C   0  0  0  0  0  0  0  0  0  0  0  0
  -12.4001   -9.0059   22.0469 N   0  0  0  0  0  0  0  0  0  0  0  0
  -12.6450   -8.5780   23.2833 N   0  0  0  0  0  0  0  0  0  0  0  0
  -12.4119   -9.5672   24.1618 C   0  0  0  0  0  0  0  0  0  0  0  0
  -12.5555   -9.5218   25.6114 C   0  0  0  0  0  0  0  0  0  0  0  0
  -12.8201   -8.3269   26.2624 C   0  0  0  0  0  0  0  0  0  0  0  0
  -12.9603   -8.2610   27.6360 C   0  0  0  0  0  0  0  0  0  0  0  0
  -12.8376   -9.4088   28.4139 C   0  0  0  0  0  0  0  0  0  0  0  0
  -12.4401  -10.6374   26.4072 C   0  0  0  0  0  0  0  0  0  0  0  0
  -13.0170   -9.0715   29.7393 C   0  0  0  0  0  0  0  0  0  0  0  0
  -13.2087   -7.2613   28.4888 N   0  0  0  0  0  0  0  0  0  0  0  0
  -14.1975   -5.2161   29.1764 C   0  0  0  0  0  0  0  0  0  0  0  0
  -16.3010   -4.7766   30.2681 C   0  0  0  0  0  0  0  0  0  0  0  0
  -15.6780   -3.9672   31.1853 C   0  0  0  0  0  0  0  0  0  0  0  0
  -16.5784   -1.8778   32.0593 N   0  0  2  0  0  4  0  0  0  0  0  0
  -15.7650    0.2929   32.6542 C   0  0  0  0  0  0  0  0  0  0  0  0
  -17.6593   -0.6526   33.8902 C   0  0  0  0  0  0  0  0  0  0  0  0
  -14.3130   -3.7720   31.1111 C   0  0  0  0  0  0  0  0  0  0  0  0
  -12.0047  -10.6476   23.4089 C   0  0  0  0  0  0  0  0  0  0  0  0
 18  1  2  0
  1 19  1  0
  2 20  2  0
 21  2  1  0
  3 21  1  0
 22  3  1  0
  4 22  2  0
 23  4  1  0
 24  5  1  0
 25  5  1  1
 25  6  1  0
  6 26  1  0
 26  7  1  0
 27  7  1  0
 25  8  1  0
  8 27  1  0
 22  9  1  0
  9 28  2  0
 11 10  1  0
 11 12  1  0
 29 11  2  0
 13 12  1  0
 14 13  2  0
 15 14  1  0
 14 29  1  0
 16 15  1  0
 15 19  2  0
 17 16  2  0
 17 18  1  0
 21 17  1  0
 18 20  1  0
 23 24  2  0
 24 28  1  0
M  CHG  1  25   1
M  END
$$$$
