
     RDKit          3D

 29 33  0  0  0  0  0  0  0  0999 V2000
  -20.6643  -17.8754   15.0418 C   0  0  0  0  0  0  0  0  0  0  0  0
  -23.2818  -19.9260   13.7838 C   0  0  0  0  0  0  0  0  0  0  0  0
  -22.5802  -20.4579   11.4644 C   0  0  0  0  0  0  0  0  0  0  0  0
  -24.9262  -19.9010   10.9337 C   0  0  0  0  0  0  0  0  0  0  0  0
  -28.1056  -21.9213   10.8465 C   0  0  0  0  0  0  0  0  0  0  0  0
  -29.8261  -22.6897    9.3787 C   0  0  0  0  0  0  0  0  0  0  0  0
  -29.7204  -24.9877    8.5418 C   0  0  0  0  0  0  0  0  0  0  0  0
  -27.7174  -23.8109    9.4569 C   0  0  0  0  0  0  0  0  0  0  0  0
  -24.4088  -22.1250   11.5328 C   0  0  0  0  0  0  0  0  0  0  0  0
  -14.6035  -16.3583   12.0033 N   0  0  0  0  0  0  0  0  0  0  0  0
  -15.9637  -16.7555   11.8890 C   0  0  0  0  0  0  0  0  0  0  0  0
  -16.6792  -16.8711   10.7589 N   0  0  0  0  0  0  0  0  0  0  0  0
  -17.9220  -17.2665   11.0258 N   0  0  0  0  0  0  0  0  0  0  0  0
  -18.0734  -17.4275   12.3510 C   0  0  0  0  0  0  0  0  0  0  0  0
  -19.2724  -17.8489   13.0646 C   0  0  0  0  0  0  0  0  0  0  0  0
  -20.2182  -18.6553   12.4510 C   0  0  0  0  0  0  0  0  0  0  0  0
  -21.3621  -19.0669   13.1090 C   0  0  0  0  0  0  0  0  0  0  0  0
  -21.5988  -18.6769   14.4241 C   0  0  0  0  0  0  0  0  0  0  0  0
  -19.5347  -17.4808   14.3633 C   0  0  0  0  0  0  0  0  0  0  0  0
  -22.7983  -19.2155   14.8409 C   0  0  0  0  0  0  0  0  0  0  0  0
  -22.4056  -19.8245   12.7547 N   0  0  0  0  0  0  0  0  0  0  0  0
  -23.9941  -20.8341   11.3087 C   0  0  0  0  0  0  0  0  0  0  0  0
  -26.2729  -20.2526   10.7813 C   0  0  0  0  0  0  0  0  0  0  0  0
  -26.6756  -21.5453   11.0078 C   0  0  0  0  0  0  0  0  0  0  0  0
  -28.3754  -22.5379    9.5706 N   0  0  2  0  0  4  0  0  0  0  0  0
  -30.0055  -23.5508    8.1407 C   0  0  0  0  0  0  0  0  0  0  0  0
  -28.6757  -24.9726    9.6307 C   0  0  0  0  0  0  0  0  0  0  0  0
  -25.7478  -22.4955   11.3860 C   0  0  0  0  0  0  0  0  0  0  0  0
  -16.8531  -17.1108   12.9080 C   0  0  0  0  0  0  0  0  0  0  0  0
 18  1  2  0
  1 19  1  0
  2 20  2  0
 21  2  1  0
  3 21  1  0
 22  3  1  0
  4 22  2  0
 23  4  1  0
 24  5  1  0
 25  5  1  1
 25  6  1  0
  6 26  1  0
 26  7  1  0
 27  7  1  0
 25  8  1  0
  8 27  1  0
 22  9  1  0
  9 28  2  0
 11 10  1  0
 11 12  1  0
 29 11  2  0
 13 12  1  0
 14 13  2  0
 15 14  1  0
 14 29  1  0
 16 15  1  0
 15 19  2  0
 17 16  2  0
 17 18  1  0
 21 17  1  0
 18 20  1  0
 23 24  2  0
 24 28  1  0
M  CHG  1  25   1
M  END
$$$$
