
     RDKit          3D

 29 33  0  0  0  0  0  0  0  0999 V2000
  -21.5629  -21.5273   11.9373 C   0  0  0  0  0  0  0  0  0  0  0  0
  -25.0353  -20.9422   11.4485 C   0  0  0  0  0  0  0  0  0  0  0  0
  -25.2972  -18.4990   11.7903 C   0  0  0  0  0  0  0  0  0  0  0  0
  -25.6003  -19.0062    9.3931 C   0  0  0  0  0  0  0  0  0  0  0  0
  -28.0665  -17.8357    6.7959 C   0  0  0  0  0  0  0  0  0  0  0  0
  -28.9800  -16.3402    5.1728 C   0  0  0  0  0  0  0  0  0  0  0  0
  -27.4852  -14.7508    4.0632 C   0  0  0  0  0  0  0  0  0  0  0  0
  -26.8921  -15.8487    6.2258 C   0  0  0  0  0  0  0  0  0  0  0  0
  -27.0881  -17.4846   10.4150 C   0  0  0  0  0  0  0  0  0  0  0  0
  -16.5710  -17.0708   13.7061 N   0  0  0  0  0  0  0  0  0  0  0  0
  -17.9248  -17.2916   13.3329 C   0  0  0  0  0  0  0  0  0  0  0  0
  -18.8721  -16.3598   13.1410 N   0  0  0  0  0  0  0  0  0  0  0  0
  -20.0274  -16.9253   12.7985 N   0  0  0  0  0  0  0  0  0  0  0  0
  -19.8843  -18.2602   12.7512 C   0  0  0  0  0  0  0  0  0  0  0  0
  -20.8987  -19.2525   12.4188 C   0  0  0  0  0  0  0  0  0  0  0  0
  -22.2252  -18.8852   12.2541 C   0  0  0  0  0  0  0  0  0  0  0  0
  -23.2034  -19.8095   11.9385 C   0  0  0  0  0  0  0  0  0  0  0  0
  -22.8785  -21.1532   11.7755 C   0  0  0  0  0  0  0  0  0  0  0  0
  -20.6098  -20.5864   12.2512 C   0  0  0  0  0  0  0  0  0  0  0  0
  -24.0252  -21.8562   11.4699 C   0  0  0  0  0  0  0  0  0  0  0  0
  -24.5216  -19.7203   11.7319 N   0  0  0  0  0  0  0  0  0  0  0  0
  -26.0062  -18.3263   10.5127 C   0  0  0  0  0  0  0  0  0  0  0  0
  -26.2719  -18.8485    8.1747 C   0  0  0  0  0  0  0  0  0  0  0  0
  -27.3515  -18.0049    8.0891 C   0  0  0  0  0  0  0  0  0  0  0  0
  -28.1844  -16.4520    6.4053 N   0  0  2  0  0  4  0  0  0  0  0  0
  -28.8511  -14.8995    4.7104 C   0  0  0  0  0  0  0  0  0  0  0  0
  -26.5299  -15.6866    4.7627 C   0  0  0  0  0  0  0  0  0  0  0  0
  -27.7712  -17.3138    9.2084 C   0  0  0  0  0  0  0  0  0  0  0  0
  -18.5698  -18.5073   13.0842 C   0  0  0  0  0  0  0  0  0  0  0  0
 18  1  2  0
  1 19  1  0
  2 20  2  0
 21  2  1  0
  3 21  1  0
 22  3  1  0
  4 22  2  0
 23  4  1  0
 24  5  1  0
 25  5  1  6
 25  6  1  0
  6 26  1  0
 26  7  1  0
 27  7  1  0
 25  8  1  0
  8 27  1  0
 22  9  1  0
  9 28  2  0
 11 10  1  0
 11 12  1  0
 29 11  2  0
 13 12  1  0
 14 13  2  0
 15 14  1  0
 14 29  1  0
 16 15  1  0
 15 19  2  0
 17 16  2  0
 17 18  1  0
 21 17  1  0
 18 20  1  0
 23 24  2  0
 24 28  1  0
M  CHG  1  25   1
M  END
$$$$
