
     RDKit          3D

 29 33  0  0  0  0  0  0  0  0999 V2000
  -19.0417  -20.4275   10.9656 C   0  0  0  0  0  0  0  0  0  0  0  0
  -22.5757  -20.1784   11.2616 C   0  0  0  0  0  0  0  0  0  0  0  0
  -23.4447  -21.6461    9.4601 C   0  0  0  0  0  0  0  0  0  0  0  0
  -24.8323  -19.8834    8.4292 C   0  0  0  0  0  0  0  0  0  0  0  0
  -28.0206  -18.1657    9.4694 C   0  0  0  0  0  0  0  0  0  0  0  0
  -29.5181  -16.8312   10.7663 C   0  0  0  0  0  0  0  0  0  0  0  0
  -28.7038  -14.7221   11.7049 C   0  0  0  0  0  0  0  0  0  0  0  0
  -27.1555  -16.5383   10.9712 C   0  0  0  0  0  0  0  0  0  0  0  0
  -25.5146  -20.7786   10.5044 C   0  0  0  0  0  0  0  0  0  0  0  0
  -15.2709  -23.8845    6.3011 N   0  0  0  0  0  0  0  0  0  0  0  0
  -16.5456  -23.6005    6.8625 C   0  0  0  0  0  0  0  0  0  0  0  0
  -17.7190  -24.1597    6.5264 N   0  0  0  0  0  0  0  0  0  0  0  0
  -18.7093  -23.6543    7.2585 N   0  0  0  0  0  0  0  0  0  0  0  0
  -18.2227  -22.7366    8.1105 C   0  0  0  0  0  0  0  0  0  0  0  0
  -18.9637  -21.9469    9.0859 C   0  0  0  0  0  0  0  0  0  0  0  0
  -20.3499  -21.9412    9.0902 C   0  0  0  0  0  0  0  0  0  0  0  0
  -21.0727  -21.2000   10.0062 C   0  0  0  0  0  0  0  0  0  0  0  0
  -20.4190  -20.4280   10.9624 C   0  0  0  0  0  0  0  0  0  0  0  0
  -18.3476  -21.1747   10.0425 C   0  0  0  0  0  0  0  0  0  0  0  0
  -21.3613  -19.7922   11.7436 C   0  0  0  0  0  0  0  0  0  0  0  0
  -22.3809  -21.0231   10.2197 N   0  0  0  0  0  0  0  0  0  0  0  0
  -24.6154  -20.7549    9.4654 C   0  0  0  0  0  0  0  0  0  0  0  0
  -25.9456  -19.0342    8.4266 C   0  0  0  0  0  0  0  0  0  0  0  0
  -26.8373  -19.0667    9.4699 C   0  0  0  0  0  0  0  0  0  0  0  0
  -28.2041  -17.4920   10.7317 N   0  0  2  0  0  4  0  0  0  0  0  0
  -29.5263  -15.9616   12.0113 C   0  0  0  0  0  0  0  0  0  0  0  0
  -27.6106  -15.1110   10.7399 C   0  0  0  0  0  0  0  0  0  0  0  0
  -26.6313  -19.9393   10.5201 C   0  0  0  0  0  0  0  0  0  0  0  0
  -16.8654  -22.6904    7.8750 C   0  0  0  0  0  0  0  0  0  0  0  0
 18  1  2  0
  1 19  1  0
  2 20  2  0
 21  2  1  0
  3 21  1  0
 22  3  1  0
  4 22  2  0
 23  4  1  0
 24  5  1  0
 25  5  1  6
 25  6  1  0
  6 26  1  0
 26  7  1  0
 27  7  1  0
 25  8  1  0
  8 27  1  0
 22  9  1  0
  9 28  2  0
 11 10  1  0
 11 12  1  0
 29 11  2  0
 13 12  1  0
 14 13  2  0
 15 14  1  0
 14 29  1  0
 16 15  1  0
 15 19  2  0
 17 16  2  0
 17 18  1  0
 21 17  1  0
 18 20  1  0
 23 24  2  0
 24 28  1  0
M  CHG  1  25   1
M  END
$$$$
