
     RDKit          3D

 29 33  0  0  0  0  0  0  0  0999 V2000
  -23.1976  -19.1227   11.6181 C   0  0  0  0  0  0  0  0  0  0  0  0
  -23.8669  -22.5614   11.0128 C   0  0  0  0  0  0  0  0  0  0  0  0
  -21.7814  -23.7190   11.6947 C   0  0  0  0  0  0  0  0  0  0  0  0
  -21.1629  -23.2349    9.3540 C   0  0  0  0  0  0  0  0  0  0  0  0
  -19.5171  -25.2688    6.6425 C   0  0  0  0  0  0  0  0  0  0  0  0
  -19.7146  -26.6168    4.6806 C   0  0  0  0  0  0  0  0  0  0  0  0
  -21.5030  -26.1188    3.0850 C   0  0  0  0  0  0  0  0  0  0  0  0
  -21.5748  -25.3313    5.4533 C   0  0  0  0  0  0  0  0  0  0  0  0
  -20.6907  -25.3802   10.2187 C   0  0  0  0  0  0  0  0  0  0  0  0
  -17.4164  -16.1202   13.9540 N   0  0  0  0  0  0  0  0  0  0  0  0
  -18.1256  -17.3135   13.6480 C   0  0  0  0  0  0  0  0  0  0  0  0
  -17.6984  -18.5744   13.8219 N   0  0  0  0  0  0  0  0  0  0  0  0
  -18.6242  -19.4450   13.4261 N   0  0  0  0  0  0  0  0  0  0  0  0
  -19.7041  -18.7865   12.9732 C   0  0  0  0  0  0  0  0  0  0  0  0
  -20.9385  -19.3566   12.4485 C   0  0  0  0  0  0  0  0  0  0  0  0
  -21.0665  -20.7241   12.2614 C   0  0  0  0  0  0  0  0  0  0  0  0
  -22.2281  -21.2861   11.7655 C   0  0  0  0  0  0  0  0  0  0  0  0
  -23.3159  -20.4827   11.4355 C   0  0  0  0  0  0  0  0  0  0  0  0
  -22.0301  -18.5903   12.1136 C   0  0  0  0  0  0  0  0  0  0  0  0
  -24.3363  -21.2832   10.9661 C   0  0  0  0  0  0  0  0  0  0  0  0
  -22.6005  -22.5418   11.4954 N   0  0  0  0  0  0  0  0  0  0  0  0
  -21.2032  -24.1183   10.4020 C   0  0  0  0  0  0  0  0  0  0  0  0
  -20.6119  -23.6074    8.1219 C   0  0  0  0  0  0  0  0  0  0  0  0
  -20.1029  -24.8707    7.9504 C   0  0  0  0  0  0  0  0  0  0  0  0
  -20.4156  -26.0793    5.8571 N   0  0  2  0  0  4  0  0  0  0  0  0
  -20.7794  -27.2467    3.7998 C   0  0  0  0  0  0  0  0  0  0  0  0
  -21.5141  -24.9161    3.9966 C   0  0  0  0  0  0  0  0  0  0  0  0
  -20.1369  -25.7709    8.9970 C   0  0  0  0  0  0  0  0  0  0  0  0
  -19.4077  -17.4469   13.1054 C   0  0  0  0  0  0  0  0  0  0  0  0
 18  1  2  0
  1 19  1  0
  2 20  2  0
 21  2  1  0
  3 21  1  0
 22  3  1  0
  4 22  2  0
 23  4  1  0
 24  5  1  0
 25  5  1  6
 25  6  1  0
  6 26  1  0
 26  7  1  0
 27  7  1  0
 25  8  1  0
  8 27  1  0
 22  9  1  0
  9 28  2  0
 11 10  1  0
 11 12  1  0
 29 11  2  0
 13 12  1  0
 14 13  2  0
 15 14  1  0
 14 29  1  0
 16 15  1  0
 15 19  2  0
 17 16  2  0
 17 18  1  0
 21 17  1  0
 18 20  1  0
 23 24  2  0
 24 28  1  0
M  CHG  1  25   1
M  END
$$$$
