
     RDKit          3D

 29 33  0  0  0  0  0  0  0  0999 V2000
  -13.2909  -11.6029   26.0125 C   0  0  0  0  0  0  0  0  0  0  0  0
  -12.5623   -9.0827   28.4118 C   0  0  0  0  0  0  0  0  0  0  0  0
  -11.7627   -7.1635   27.0583 C   0  0  0  0  0  0  0  0  0  0  0  0
  -13.7600   -5.9184   27.8041 C   0  0  0  0  0  0  0  0  0  0  0  0
  -14.4811   -3.7421   30.7943 C   0  0  0  0  0  0  0  0  0  0  0  0
  -15.7508   -5.3643   32.0033 C   0  0  0  0  0  0  0  0  0  0  0  0
  -16.8569   -4.6855   34.0788 C   0  0  0  0  0  0  0  0  0  0  0  0
  -14.9606   -3.3919   33.0964 C   0  0  0  0  0  0  0  0  0  0  0  0
  -11.8140   -5.8202   29.1369 C   0  0  0  0  0  0  0  0  0  0  0  0
  -13.3952  -10.8528   19.0858 N   0  0  0  0  0  0  0  0  0  0  0  0
  -12.8622  -10.4960   20.3544 C   0  0  0  0  0  0  0  0  0  0  0  0
  -11.7624   -9.7634   20.5915 N   0  0  0  0  0  0  0  0  0  0  0  0
  -11.5599   -9.6265   21.9000 N   0  0  0  0  0  0  0  0  0  0  0  0
  -12.5250  -10.2681   22.5794 C   0  0  0  0  0  0  0  0  0  0  0  0
  -12.6789  -10.3683   24.0253 C   0  0  0  0  0  0  0  0  0  0  0  0
  -12.3566   -9.3017   24.8499 C   0  0  0  0  0  0  0  0  0  0  0  0
  -12.4950   -9.3748   26.2234 C   0  0  0  0  0  0  0  0  0  0  0  0
  -12.9682  -10.5380   26.8241 C   0  0  0  0  0  0  0  0  0  0  0  0
  -13.1435  -11.5026   24.6485 C   0  0  0  0  0  0  0  0  0  0  0  0
  -13.0083  -10.3508   28.1901 C   0  0  0  0  0  0  0  0  0  0  0  0
  -12.2597   -8.5139   27.2193 N   0  0  0  0  0  0  0  0  0  0  0  0
  -12.4559   -6.2862   28.0147 C   0  0  0  0  0  0  0  0  0  0  0  0
  -14.4265   -5.0860   28.7114 C   0  0  0  0  0  0  0  0  0  0  0  0
  -13.7752   -4.6265   29.8291 C   0  0  0  0  0  0  0  0  0  0  0  0
  -14.6719   -4.3670   32.0804 N   0  0  2  0  0  4  0  0  0  0  0  0
  -16.0410   -5.7910   33.4315 C   0  0  0  0  0  0  0  0  0  0  0  0
  -16.4285   -3.3707   33.4744 C   0  0  0  0  0  0  0  0  0  0  0  0
  -12.4618   -4.9888   30.0539 C   0  0  0  0  0  0  0  0  0  0  0  0
  -13.3513  -10.8197   21.6240 C   0  0  0  0  0  0  0  0  0  0  0  0
 18  1  2  0
  1 19  1  0
  2 20  2  0
 21  2  1  0
  3 21  1  0
 22  3  1  0
  4 22  2  0
 23  4  1  0
 24  5  1  0
 25  5  1  6
 25  6  1  0
  6 26  1  0
 26  7  1  0
 27  7  1  0
 25  8  1  0
  8 27  1  0
 22  9  1  0
  9 28  2  0
 11 10  1  0
 11 12  1  0
 29 11  2  0
 13 12  1  0
 14 13  2  0
 15 14  1  0
 14 29  1  0
 16 15  1  0
 15 19  2  0
 17 16  2  0
 17 18  1  0
 21 17  1  0
 18 20  1  0
 23 24  2  0
 24 28  1  0
M  CHG  1  25   1
M  END
$$$$
