
     RDKit          3D

 29 33  0  0  0  0  0  0  0  0999 V2000
  -21.2250  -15.9993   13.6803 C   0  0  0  0  0  0  0  0  0  0  0  0
  -24.0621  -18.0520   13.0669 C   0  0  0  0  0  0  0  0  0  0  0  0
  -23.1008  -20.2307   12.3712 C   0  0  0  0  0  0  0  0  0  0  0  0
  -25.3641  -20.8243   11.5833 C   0  0  0  0  0  0  0  0  0  0  0  0
  -27.0772  -20.5965    8.2350 C   0  0  0  0  0  0  0  0  0  0  0  0
  -29.2998  -20.0887    7.5227 C   0  0  0  0  0  0  0  0  0  0  0  0
  -29.9708  -17.7415    7.3416 C   0  0  0  0  0  0  0  0  0  0  0  0
  -28.0139  -18.4644    8.7135 C   0  0  0  0  0  0  0  0  0  0  0  0
  -23.8377  -19.9145   10.0292 C   0  0  0  0  0  0  0  0  0  0  0  0
  -14.5116  -17.4458   12.7882 N   0  0  0  0  0  0  0  0  0  0  0  0
  -15.8566  -17.9031   12.8422 C   0  0  0  0  0  0  0  0  0  0  0  0
  -16.2825  -19.1728   12.7474 N   0  0  0  0  0  0  0  0  0  0  0  0
  -17.6091  -19.2334   12.8395 N   0  0  0  0  0  0  0  0  0  0  0  0
  -18.1110  -17.9976   12.9995 C   0  0  0  0  0  0  0  0  0  0  0  0
  -19.5109  -17.6174   13.1409 C   0  0  0  0  0  0  0  0  0  0  0  0
  -20.5243  -18.5230   12.8683 C   0  0  0  0  0  0  0  0  0  0  0  0
  -21.8584  -18.1839   12.9960 C   0  0  0  0  0  0  0  0  0  0  0  0
  -22.2254  -16.9057   13.4073 C   0  0  0  0  0  0  0  0  0  0  0  0
  -19.9056  -16.3637   13.5450 C   0  0  0  0  0  0  0  0  0  0  0  0
  -23.6019  -16.8282   13.4499 C   0  0  0  0  0  0  0  0  0  0  0  0
  -23.0005  -18.8511   12.7991 N   0  0  0  0  0  0  0  0  0  0  0  0
  -24.1164  -20.3252   11.3107 C   0  0  0  0  0  0  0  0  0  0  0  0
  -26.3361  -20.9148   10.5796 C   0  0  0  0  0  0  0  0  0  0  0  0
  -26.0464  -20.5014    9.3030 C   0  0  0  0  0  0  0  0  0  0  0  0
  -28.2796  -19.8687    8.5597 N   0  0  2  0  0  4  0  0  0  0  0  0
  -30.4245  -19.1112    7.8158 C   0  0  0  0  0  0  0  0  0  0  0  0
  -28.4743  -17.6562    7.5165 C   0  0  0  0  0  0  0  0  0  0  0  0
  -24.7939  -19.9968    9.0140 C   0  0  0  0  0  0  0  0  0  0  0  0
  -17.0240  -17.1502   13.0034 C   0  0  0  0  0  0  0  0  0  0  0  0
 18  1  2  0
  1 19  1  0
  2 20  2  0
 21  2  1  0
  3 21  1  0
 22  3  1  0
  4 22  2  0
 23  4  1  0
 24  5  1  0
 25  5  1  6
 25  6  1  0
  6 26  1  0
 26  7  1  0
 27  7  1  0
 25  8  1  0
  8 27  1  0
 22  9  1  0
  9 28  2  0
 11 10  1  0
 11 12  1  0
 29 11  2  0
 13 12  1  0
 14 13  2  0
 15 14  1  0
 14 29  1  0
 16 15  1  0
 15 19  2  0
 17 16  2  0
 17 18  1  0
 21 17  1  0
 18 20  1  0
 23 24  2  0
 24 28  1  0
M  CHG  1  25   1
M  END
$$$$
