
     RDKit          3D

 29 33  0  0  0  0  0  0  0  0999 V2000
  -20.4340  -21.9081   11.2932 C   0  0  0  0  0  0  0  0  0  0  0  0
  -23.8540  -22.8778   11.3426 C   0  0  0  0  0  0  0  0  0  0  0  0
  -25.0601  -20.8280   12.0485 C   0  0  0  0  0  0  0  0  0  0  0  0
  -25.4268  -20.7437    9.6084 C   0  0  0  0  0  0  0  0  0  0  0  0
  -26.9204  -18.1607    7.3074 C   0  0  0  0  0  0  0  0  0  0  0  0
  -26.7072  -16.2689    5.8648 C   0  0  0  0  0  0  0  0  0  0  0  0
  -24.7535  -16.1214    4.3974 C   0  0  0  0  0  0  0  0  0  0  0  0
  -24.7913  -17.5842    6.4206 C   0  0  0  0  0  0  0  0  0  0  0  0
  -26.0977  -18.8910   10.9086 C   0  0  0  0  0  0  0  0  0  0  0  0
  -17.5708  -15.8166   12.8996 N   0  0  0  0  0  0  0  0  0  0  0  0
  -18.7464  -16.5978   12.7308 C   0  0  0  0  0  0  0  0  0  0  0  0
  -20.0163  -16.1895   12.8826 N   0  0  0  0  0  0  0  0  0  0  0  0
  -20.8644  -17.1876   12.6449 N   0  0  0  0  0  0  0  0  0  0  0  0
  -20.1807  -18.2991   12.3253 C   0  0  0  0  0  0  0  0  0  0  0  0
  -20.7212  -19.6113   11.9933 C   0  0  0  0  0  0  0  0  0  0  0  0
  -22.0846  -19.8545   12.0536 C   0  0  0  0  0  0  0  0  0  0  0  0
  -22.6186  -21.0910   11.7429 C   0  0  0  0  0  0  0  0  0  0  0  0
  -21.7901  -22.1406   11.3559 C   0  0  0  0  0  0  0  0  0  0  0  0
  -19.9297  -20.6676   11.6077 C   0  0  0  0  0  0  0  0  0  0  0  0
  -22.5658  -23.2537   11.1072 C   0  0  0  0  0  0  0  0  0  0  0  0
  -23.8644  -21.5768   11.7227 N   0  0  0  0  0  0  0  0  0  0  0  0
  -25.5351  -20.1428   10.8362 C   0  0  0  0  0  0  0  0  0  0  0  0
  -25.8790  -20.0985    8.4510 C   0  0  0  0  0  0  0  0  0  0  0  0
  -26.4394  -18.8481    8.5355 C   0  0  0  0  0  0  0  0  0  0  0  0
  -26.0512  -17.0843    6.8989 N   0  0  2  0  0  4  0  0  0  0  0  0
  -25.6465  -15.3224    5.3306 C   0  0  0  0  0  0  0  0  0  0  0  0
  -24.6902  -17.5399    4.9086 C   0  0  0  0  0  0  0  0  0  0  0  0
  -26.5547  -18.2309    9.7653 C   0  0  0  0  0  0  0  0  0  0  0  0
  -18.8493  -17.9462   12.3745 C   0  0  0  0  0  0  0  0  0  0  0  0
 18  1  2  0
  1 19  1  0
  2 20  2  0
 21  2  1  0
  3 21  1  0
 22  3  1  0
  4 22  2  0
 23  4  1  0
 24  5  1  0
 25  5  1  6
 25  6  1  0
  6 26  1  0
 26  7  1  0
 27  7  1  0
 25  8  1  0
  8 27  1  0
 22  9  1  0
  9 28  2  0
 11 10  1  0
 11 12  1  0
 29 11  2  0
 13 12  1  0
 14 13  2  0
 15 14  1  0
 14 29  1  0
 16 15  1  0
 15 19  2  0
 17 16  2  0
 17 18  1  0
 21 17  1  0
 18 20  1  0
 23 24  2  0
 24 28  1  0
M  CHG  1  25   1
M  END
$$$$
