
     RDKit          3D

 29 33  0  0  0  0  0  0  0  0999 V2000
  -11.7766  -11.8590   25.8036 C   0  0  0  0  0  0  0  0  0  0  0  0
  -12.1800   -9.3887   28.3283 C   0  0  0  0  0  0  0  0  0  0  0  0
  -13.2702   -7.4919   27.1585 C   0  0  0  0  0  0  0  0  0  0  0  0
  -12.9563   -5.5324   28.6274 C   0  0  0  0  0  0  0  0  0  0  0  0
   -9.9174   -3.8978   30.1409 C   0  0  0  0  0  0  0  0  0  0  0  0
   -7.9869   -2.4917   30.1797 C   0  0  0  0  0  0  0  0  0  0  0  0
   -7.8029   -0.6986   28.5235 C   0  0  0  0  0  0  0  0  0  0  0  0
   -9.3209   -2.6551   28.2039 C   0  0  0  0  0  0  0  0  0  0  0  0
  -11.0459   -6.7363   27.9391 C   0  0  0  0  0  0  0  0  0  0  0  0
  -14.2164  -11.7310   19.2981 N   0  0  0  0  0  0  0  0  0  0  0  0
  -13.8002  -11.0308   20.4632 C   0  0  0  0  0  0  0  0  0  0  0  0
  -13.6132   -9.7071   20.5865 N   0  0  0  0  0  0  0  0  0  0  0  0
  -13.2219   -9.3989   21.8209 N   0  0  0  0  0  0  0  0  0  0  0  0
  -13.1357  -10.5155   22.5629 C   0  0  0  0  0  0  0  0  0  0  0  0
  -12.7446  -10.6255   23.9627 C   0  0  0  0  0  0  0  0  0  0  0  0
  -12.9628   -9.5796   24.8458 C   0  0  0  0  0  0  0  0  0  0  0  0
  -12.6001   -9.6625   26.1772 C   0  0  0  0  0  0  0  0  0  0  0  0
  -11.9973  -10.8146   26.6741 C   0  0  0  0  0  0  0  0  0  0  0  0
  -12.1477  -11.7494   24.4837 C   0  0  0  0  0  0  0  0  0  0  0  0
  -11.7369  -10.6388   28.0172 C   0  0  0  0  0  0  0  0  0  0  0  0
  -12.6946   -8.8195   27.2110 N   0  0  0  0  0  0  0  0  0  0  0  0
  -12.4101   -6.5721   27.9196 C   0  0  0  0  0  0  0  0  0  0  0  0
  -12.1441   -4.6549   29.3558 C   0  0  0  0  0  0  0  0  0  0  0  0
  -10.7824   -4.8287   29.3680 C   0  0  0  0  0  0  0  0  0  0  0  0
   -8.8319   -3.3674   29.3528 N   0  0  2  0  0  4  0  0  0  0  0  0
   -7.0282   -1.7994   29.2269 C   0  0  0  0  0  0  0  0  0  0  0  0
   -9.2351   -1.1517   28.3784 C   0  0  0  0  0  0  0  0  0  0  0  0
  -10.2186   -5.8714   28.6597 C   0  0  0  0  0  0  0  0  0  0  0  0
  -13.4954  -11.5496   21.7256 C   0  0  0  0  0  0  0  0  0  0  0  0
 18  1  2  0
  1 19  1  0
  2 20  2  0
 21  2  1  0
  3 21  1  0
 22  3  1  0
  4 22  2  0
 23  4  1  0
 24  5  1  0
 25  5  1  1
 25  6  1  0
  6 26  1  0
 26  7  1  0
 27  7  1  0
 25  8  1  0
  8 27  1  0
 22  9  1  0
  9 28  2  0
 11 10  1  0
 11 12  1  0
 29 11  2  0
 13 12  1  0
 14 13  2  0
 15 14  1  0
 14 29  1  0
 16 15  1  0
 15 19  2  0
 17 16  2  0
 17 18  1  0
 21 17  1  0
 18 20  1  0
 23 24  2  0
 24 28  1  0
M  CHG  1  25   1
M  END
$$$$
