
     RDKit          3D

 29 33  0  0  0  0  0  0  0  0999 V2000
  -22.5425  -19.8467   13.9269 C   0  0  0  0  0  0  0  0  0  0  0  0
  -24.5917  -21.2162   11.3647 C   0  0  0  0  0  0  0  0  0  0  0  0
  -23.4625  -20.5510    9.2583 C   0  0  0  0  0  0  0  0  0  0  0  0
  -22.5824  -22.0115    7.4728 C   0  0  0  0  0  0  0  0  0  0  0  0
  -21.0599  -25.4582    7.4695 C   0  0  0  0  0  0  0  0  0  0  0  0
  -19.7086  -26.5566    5.8346 C   0  0  0  0  0  0  0  0  0  0  0  0
  -17.3475  -25.9377    5.6501 C   0  0  0  0  0  0  0  0  0  0  0  0
  -19.0310  -24.4534    6.7441 C   0  0  0  0  0  0  0  0  0  0  0  0
  -22.5300  -22.8017    9.6968 C   0  0  0  0  0  0  0  0  0  0  0  0
  -16.5355  -16.4448   13.3522 N   0  0  0  0  0  0  0  0  0  0  0  0
  -17.7003  -16.9695   12.7286 C   0  0  0  0  0  0  0  0  0  0  0  0
  -18.0603  -16.8308   11.4427 N   0  0  0  0  0  0  0  0  0  0  0  0
  -19.2122  -17.4542   11.2054 N   0  0  0  0  0  0  0  0  0  0  0  0
  -19.6580  -18.0314   12.3337 C   0  0  0  0  0  0  0  0  0  0  0  0
  -20.8772  -18.8097   12.5131 C   0  0  0  0  0  0  0  0  0  0  0  0
  -21.5828  -19.2874   11.4197 C   0  0  0  0  0  0  0  0  0  0  0  0
  -22.7409  -20.0277   11.5668 C   0  0  0  0  0  0  0  0  0  0  0  0
  -23.2372  -20.3174   12.8346 C   0  0  0  0  0  0  0  0  0  0  0  0
  -21.3926  -19.1126   13.7514 C   0  0  0  0  0  0  0  0  0  0  0  0
  -24.3925  -21.0593   12.7034 C   0  0  0  0  0  0  0  0  0  0  0  0
  -23.5899  -20.5902   10.7001 N   0  0  0  0  0  0  0  0  0  0  0  0
  -22.8493  -21.8084    8.8024 C   0  0  0  0  0  0  0  0  0  0  0  0
  -21.9968  -23.2046    7.0324 C   0  0  0  0  0  0  0  0  0  0  0  0
  -21.6820  -24.1899    7.9349 C   0  0  0  0  0  0  0  0  0  0  0  0
  -20.1586  -25.2586    6.3610 N   0  0  2  0  0  4  0  0  0  0  0  0
  -18.5963  -26.2542    4.8459 C   0  0  0  0  0  0  0  0  0  0  0  0
  -17.7737  -25.2777    6.9386 C   0  0  0  0  0  0  0  0  0  0  0  0
  -21.9453  -23.9991    9.2770 C   0  0  0  0  0  0  0  0  0  0  0  0
  -18.7204  -17.7368   13.3000 C   0  0  0  0  0  0  0  0  0  0  0  0
 18  1  2  0
  1 19  1  0
  2 20  2  0
 21  2  1  0
  3 21  1  0
 22  3  1  0
  4 22  2  0
 23  4  1  0
 24  5  1  0
 25  5  1  1
 25  6  1  0
  6 26  1  0
 26  7  1  0
 27  7  1  0
 25  8  1  0
  8 27  1  0
 22  9  1  0
  9 28  2  0
 11 10  1  0
 11 12  1  0
 29 11  2  0
 13 12  1  0
 14 13  2  0
 15 14  1  0
 14 29  1  0
 16 15  1  0
 15 19  2  0
 17 16  2  0
 17 18  1  0
 21 17  1  0
 18 20  1  0
 23 24  2  0
 24 28  1  0
M  CHG  1  25   1
M  END
$$$$
