
     RDKit          3D

 79 80  0  0  0  0  0  0  0  0999 V2000
   -6.8684   -3.3163   33.1514 C   0  0  0  0  0  0  0  0  0  0  0  0
   -7.4525   -2.2967   33.4968 O   0  0  0  0  0  0  0  0  0  0  0  0
   -6.9928   -4.6058   33.9169 C   0  0  0  0  0  0  0  0  0  0  0  0
   -6.0342   -3.3795   32.0626 N   0  0  0  0  0  0  0  0  0  0  0  0
   -5.3593   -2.1938   31.5209 C   0  0  2  0  0  0  0  0  0  0  0  0
   -5.0816   -2.3604   30.0086 C   0  0  0  0  0  0  0  0  0  0  0  0
   -4.0001   -2.7393   29.5621 O   0  0  0  0  0  0  0  0  0  0  0  0
   -4.0496   -1.9296   32.2705 C   0  0  0  0  0  0  0  0  0  0  0  0
   -3.3533   -0.6555   31.7873 C   0  0  0  0  0  0  0  0  0  0  0  0
   -3.9474    0.5940   32.3785 C   0  0  0  0  0  0  0  0  0  0  0  0
   -3.3897    1.3563   33.1507 O   0  0  0  0  0  0  0  0  0  0  0  0
   -5.1734    0.8873   31.9075 O   0  0  0  0  0  0  0  0  0  0  0  0
   -6.1352   -2.0117   29.1974 N   0  0  0  0  0  0  0  0  0  0  0  0
   -5.9924   -1.7425   27.7684 C   0  0  2  0  0  0  0  0  0  0  0  0
   -4.8118   -0.7393   27.6881 C   0  0  0  0  0  0  0  0  0  0  0  0
   -4.7554    0.2231   28.4566 O   0  0  0  0  0  0  0  0  0  0  0  0
   -7.2593   -1.0960   27.1226 C   0  0  2  0  0  0  0  0  0  0  0  0
   -8.5898   -1.4835   27.8089 C   0  0  0  0  0  0  0  0  0  0  0  0
   -7.3138   -1.4353   25.6256 C   0  0  0  0  0  0  0  0  0  0  0  0
   -9.7916   -1.4767   26.8702 C   0  0  0  0  0  0  0  0  0  0  0  0
   -3.9135   -0.9514   26.6614 N   0  0  0  0  0  0  0  0  0  0  0  0
   -2.7333   -0.1077   26.4413 C   0  0  2  0  0  0  0  0  0  0  0  0
   -3.1472    1.2123   25.7553 C   0  0  0  0  0  0  0  0  0  0  0  0
   -2.3797    2.1610   25.6173 O   0  0  0  0  0  0  0  0  0  0  0  0
   -1.5833   -0.7411   25.6426 C   0  0  0  0  0  0  0  0  0  0  0  0
   -1.3285   -2.2157   25.9600 C   0  0  0  0  0  0  0  0  0  0  0  0
   -0.1556   -2.3668   26.9307 C   0  0  0  0  0  0  0  0  0  0  0  0
    0.4922   -1.0829   27.1317 N   0  0  0  0  0  0  0  0  0  0  0  0
    1.0393   -0.7084   28.3071 C   0  0  0  0  0  0  0  0  0  0  0  0
    1.7601    0.4209   28.1757 N   0  0  0  0  0  0  0  0  0  0  0  0
    0.9451   -1.2614   29.4588 N   0  0  0  0  0  0  0  0  0  0  0  0
   -4.4711    1.2600   25.3552 N   0  0  0  0  0  0  0  0  0  0  0  0
   -4.8971    2.1024   24.2435 C   0  0  2  0  0  0  0  0  0  0  0  0
   -5.5286    3.4190   24.7583 C   0  0  0  0  0  0  0  0  0  0  0  0
   -5.9032    4.2847   23.9690 O   0  0  0  0  0  0  0  0  0  0  0  0
   -5.9135    1.4090   23.3165 C   0  0  0  0  0  0  0  0  0  0  0  0
   -5.4026    0.9350   21.9535 C   0  0  0  0  0  0  0  0  0  0  0  0
   -5.5649   -0.5639   21.6941 C   0  0  0  0  0  0  0  0  0  0  0  0
   -5.3121   -0.8592   20.2887 N   0  0  0  0  0  0  0  0  0  0  0  0
   -4.5053   -0.1041   19.5161 C   0  0  0  0  0  0  0  0  0  0  0  0
   -5.2210    0.7289   18.7326 N   0  0  0  0  0  0  0  0  0  0  0  0
   -3.2206   -0.1420   19.4897 N   0  0  0  0  0  0  0  0  0  0  0  0
   -5.8218    3.4747   26.1189 N   0  0  0  0  0  0  0  0  0  0  0  0
   -6.8842    4.3680   26.6142 C   0  0  2  0  0  0  0  0  0  0  0  0
   -6.8968    4.8456   28.1014 C   0  0  0  0  0  0  0  0  0  0  0  0
   -6.6323    4.0036   28.9729 O   0  0  0  0  0  0  0  0  0  0  0  0
   -8.2711    3.8668   26.1172 C   0  0  1  0  0  0  0  0  0  0  0  0
   -9.4287    4.7628   26.5459 C   0  0  0  0  0  0  0  0  0  0  0  0
   -8.3145    3.6629   24.5990 C   0  0  0  0  0  0  0  0  0  0  0  0
   -7.1293    6.1424   28.4976 N   0  0  0  0  0  0  0  0  0  0  0  0
   -6.8032    6.8605   29.7279 C   0  0  2  0  0  0  0  0  0  0  0  0
   -7.9381    6.8135   30.7831 C   0  0  0  0  0  0  0  0  0  0  0  0
   -9.1321    6.7788   30.5043 O   0  0  0  0  0  0  0  0  0  0  0  0
   -6.6507    8.3079   29.2421 C   0  0  0  0  0  0  0  0  0  0  0  0
   -7.7506    8.4222   28.1945 C   0  0  0  0  0  0  0  0  0  0  0  0
   -7.7171    7.0589   27.5210 C   0  0  0  0  0  0  0  0  0  0  0  0
   -7.5004    6.8712   32.0918 N   0  0  0  0  0  0  0  0  0  0  0  0
   -8.4397    6.8564   33.2150 C   0  0  2  0  0  0  0  0  0  0  0  0
   -9.4087    8.0603   33.1327 C   0  0  0  0  0  0  0  0  0  0  0  0
   -9.2737    8.9700   32.3291 O   0  0  0  0  0  0  0  0  0  0  0  0
   -7.7561    6.7647   34.5866 C   0  0  0  0  0  0  0  0  0  0  0  0
   -8.7229    6.7333   35.7692 C   0  0  0  0  0  0  0  0  0  0  0  0
   -8.0442    6.1665   36.9832 C   0  0  0  0  0  0  0  0  0  0  0  0
   -6.7573    5.8507   36.7473 O   0  0  0  0  0  0  0  0  0  0  0  0
   -8.5451    6.0417   38.0937 O   0  0  0  0  0  0  0  0  0  0  0  0
  -10.3718    8.0618   34.1154 N   0  0  0  0  0  0  0  0  0  0  0  0
  -11.3111    9.1786   34.2991 C   0  0  2  0  0  0  0  0  0  0  0  0
  -11.7361    9.1262   35.7638 C   0  0  0  0  0  0  0  0  0  0  0  0
  -11.8900   10.1033   36.4853 O   0  0  0  0  0  0  0  0  0  0  0  0
  -12.5837    9.0640   33.4443 C   0  0  0  0  0  0  0  0  0  0  0  0
  -12.4539    9.4355   31.9853 C   0  0  0  0  0  0  0  0  0  0  0  0
  -13.5313    9.3035   31.1004 C   0  0  0  0  0  0  0  0  0  0  0  0
  -11.2166    9.8575   31.4778 C   0  0  0  0  0  0  0  0  0  0  0  0
  -13.3890    9.6275   29.7492 C   0  0  0  0  0  0  0  0  0  0  0  0
  -11.0721   10.1681   30.1233 C   0  0  0  0  0  0  0  0  0  0  0  0
  -12.1605   10.0648   29.2614 C   0  0  0  0  0  0  0  0  0  0  0  0
  -11.9093    7.8798   36.2384 O   0  0  0  0  0  0  0  0  0  0  0  0
    0.1508   -0.8737   29.9677 H   0  0  0  0  0  0  0  0  0  0  0  0
   -2.9000    0.6781   18.9739 H   0  0  0  0  0  0  0  0  0  0  0  0
  1  2  2  0
  1  3  1  0
  1  4  1  0
  4  5  1  0
  5  6  1  0
  5  8  1  1
  6  7  2  0
  6 13  1  0
  8  9  1  0
  9 10  1  0
 10 11  2  0
 10 12  1  0
 14 13  1  1
 14 15  1  0
 14 17  1  0
 15 16  2  0
 15 21  1  0
 17 18  1  0
 17 19  1  6
 18 20  1  0
 21 22  1  0
 22 23  1  0
 22 25  1  6
 23 24  2  0
 23 32  1  0
 25 26  1  0
 26 27  1  0
 27 28  1  0
 28 29  1  0
 29 30  1  0
 29 31  2  0
 32 33  1  0
 33 34  1  0
 33 36  1  1
 34 35  2  0
 34 43  1  0
 36 37  1  0
 37 38  1  0
 38 39  1  0
 39 40  1  0
 40 41  1  0
 40 42  2  0
 44 43  1  1
 44 45  1  0
 44 47  1  0
 45 46  2  0
 45 50  1  0
 47 48  1  6
 47 49  1  0
 50 51  1  0
 50 56  1  0
 51 52  1  1
 51 54  1  0
 52 53  2  0
 52 57  1  0
 54 55  1  0
 55 56  1  0
 57 58  1  0
 58 59  1  0
 58 61  1  1
 59 60  2  0
 59 66  1  0
 61 62  1  0
 62 63  1  0
 63 64  1  0
 63 65  2  0
 66 67  1  0
 67 68  1  0
 67 70  1  6
 68 69  2  0
 68 77  1  0
 70 71  1  0
 71 72  2  0
 71 73  1  0
 72 74  1  0
 73 75  2  0
 74 76  2  0
 75 76  1  0
 31 78  1  0
 42 79  1  0
M  END
$$$$
