
     RDKit          3D

 79 80  0  0  0  0  0  0  0  0999 V2000
   -3.2770   -9.1902   22.8667 C   0  0  0  0  0  0  0  0  0  0  0  0
   -2.4928   -9.8240   22.1715 O   0  0  0  0  0  0  0  0  0  0  0  0
   -4.2383   -9.8671   23.8058 C   0  0  0  0  0  0  0  0  0  0  0  0
   -3.3749   -7.8208   22.8424 N   0  0  0  0  0  0  0  0  0  0  0  0
   -2.3152   -6.9487   23.3632 C   0  0  2  0  0  0  0  0  0  0  0  0
   -2.8696   -5.5422   23.6896 C   0  0  0  0  0  0  0  0  0  0  0  0
   -2.1754   -4.6365   24.1483 O   0  0  0  0  0  0  0  0  0  0  0  0
   -1.1638   -6.8404   22.3584 C   0  0  0  0  0  0  0  0  0  0  0  0
   -0.0196   -5.9691   22.8812 C   0  0  0  0  0  0  0  0  0  0  0  0
    1.0677   -5.7609   21.8623 C   0  0  0  0  0  0  0  0  0  0  0  0
    1.3225   -4.7137   21.2906 O   0  0  0  0  0  0  0  0  0  0  0  0
    1.8475   -6.8410   21.6724 O   0  0  0  0  0  0  0  0  0  0  0  0
   -4.2173   -5.3975   23.4605 N   0  0  0  0  0  0  0  0  0  0  0  0
   -4.9417   -4.1508   23.6973 C   0  0  2  0  0  0  0  0  0  0  0  0
   -4.7408   -3.8777   25.2111 C   0  0  0  0  0  0  0  0  0  0  0  0
   -4.1522   -4.6955   25.9216 O   0  0  0  0  0  0  0  0  0  0  0  0
   -6.4707   -4.2465   23.3921 C   0  0  2  0  0  0  0  0  0  0  0  0
   -6.8090   -4.9543   22.0594 C   0  0  0  0  0  0  0  0  0  0  0  0
   -7.0990   -2.8454   23.4253 C   0  0  0  0  0  0  0  0  0  0  0  0
   -7.4491   -4.0388   21.0213 C   0  0  0  0  0  0  0  0  0  0  0  0
   -5.3364   -2.7311   25.6977 N   0  0  0  0  0  0  0  0  0  0  0  0
   -4.6841   -1.8345   26.6588 C   0  0  2  0  0  0  0  0  0  0  0  0
   -5.6637   -0.7235   27.0949 C   0  0  0  0  0  0  0  0  0  0  0  0
   -6.0089    0.1907   26.3509 O   0  0  0  0  0  0  0  0  0  0  0  0
   -3.3704   -1.1833   26.1987 C   0  0  0  0  0  0  0  0  0  0  0  0
   -2.5021   -0.6376   27.3338 C   0  0  0  0  0  0  0  0  0  0  0  0
   -1.1886   -0.0733   26.7888 C   0  0  0  0  0  0  0  0  0  0  0  0
   -1.4610    0.9771   25.8239 N   0  0  0  0  0  0  0  0  0  0  0  0
   -1.0387    2.2494   25.9792 C   0  0  0  0  0  0  0  0  0  0  0  0
   -1.2160    2.9666   24.8538 N   0  0  0  0  0  0  0  0  0  0  0  0
   -0.5347    2.8169   27.0112 N   0  0  0  0  0  0  0  0  0  0  0  0
   -6.0809   -0.8112   28.4114 N   0  0  0  0  0  0  0  0  0  0  0  0
   -6.7428    0.3076   29.0729 C   0  0  2  0  0  0  0  0  0  0  0  0
   -6.3016    1.6558   28.4524 C   0  0  0  0  0  0  0  0  0  0  0  0
   -5.1551    1.8073   28.0336 O   0  0  0  0  0  0  0  0  0  0  0  0
   -6.4687    0.3600   30.5880 C   0  0  0  0  0  0  0  0  0  0  0  0
   -7.0936    1.5188   31.3691 C   0  0  0  0  0  0  0  0  0  0  0  0
   -6.3190    1.9406   32.6190 C   0  0  0  0  0  0  0  0  0  0  0  0
   -6.0618    0.7804   33.4641 N   0  0  0  0  0  0  0  0  0  0  0  0
   -6.8153    0.4778   34.5405 C   0  0  0  0  0  0  0  0  0  0  0  0
   -7.5066   -0.6642   34.3458 N   0  0  0  0  0  0  0  0  0  0  0  0
   -6.9011    1.1591   35.6272 N   0  0  0  0  0  0  0  0  0  0  0  0
   -7.3086    2.5900   28.2209 N   0  0  0  0  0  0  0  0  0  0  0  0
   -6.9768    3.9237   27.6889 C   0  0  2  0  0  0  0  0  0  0  0  0
   -6.7899    5.1422   28.6483 C   0  0  0  0  0  0  0  0  0  0  0  0
   -5.7676    5.1637   29.3501 O   0  0  0  0  0  0  0  0  0  0  0  0
   -7.8759    4.2412   26.4590 C   0  0  1  0  0  0  0  0  0  0  0  0
   -7.4602    5.5059   25.7145 C   0  0  0  0  0  0  0  0  0  0  0  0
   -7.9619    3.0703   25.4740 C   0  0  0  0  0  0  0  0  0  0  0  0
   -7.6550    6.2093   28.7242 N   0  0  0  0  0  0  0  0  0  0  0  0
   -7.4948    7.5594   29.2603 C   0  0  2  0  0  0  0  0  0  0  0  0
   -7.9282    7.6843   30.7435 C   0  0  0  0  0  0  0  0  0  0  0  0
   -8.1639    8.7511   31.3011 O   0  0  0  0  0  0  0  0  0  0  0  0
   -8.4643    8.3801   28.3995 C   0  0  0  0  0  0  0  0  0  0  0  0
   -9.6410    7.4281   28.2286 C   0  0  0  0  0  0  0  0  0  0  0  0
   -8.9611    6.0756   28.0797 C   0  0  0  0  0  0  0  0  0  0  0  0
   -7.9773    6.4838   31.4246 N   0  0  0  0  0  0  0  0  0  0  0  0
   -8.3766    6.4172   32.8318 C   0  0  2  0  0  0  0  0  0  0  0  0
   -8.6965    7.8300   33.3763 C   0  0  0  0  0  0  0  0  0  0  0  0
   -7.9551    8.7878   33.2191 O   0  0  0  0  0  0  0  0  0  0  0  0
   -7.3694    5.6752   33.7219 C   0  0  0  0  0  0  0  0  0  0  0  0
   -6.2678    6.5631   34.2984 C   0  0  0  0  0  0  0  0  0  0  0  0
   -6.4325    6.6999   35.7851 C   0  0  0  0  0  0  0  0  0  0  0  0
   -7.6230    6.2384   36.2109 O   0  0  0  0  0  0  0  0  0  0  0  0
   -5.5883    7.1216   36.5656 O   0  0  0  0  0  0  0  0  0  0  0  0
   -9.8390    7.8811   34.1412 N   0  0  0  0  0  0  0  0  0  0  0  0
  -10.9644    8.7726   33.8215 C   0  0  2  0  0  0  0  0  0  0  0  0
  -11.6667    9.0460   35.1485 C   0  0  0  0  0  0  0  0  0  0  0  0
  -11.6621   10.1196   35.7368 O   0  0  0  0  0  0  0  0  0  0  0  0
  -11.9987    8.1474   32.8714 C   0  0  0  0  0  0  0  0  0  0  0  0
  -13.1891    9.0049   32.5090 C   0  0  0  0  0  0  0  0  0  0  0  0
  -13.4656   10.1954   33.1929 C   0  0  0  0  0  0  0  0  0  0  0  0
  -14.0825    8.5786   31.5158 C   0  0  0  0  0  0  0  0  0  0  0  0
  -14.5836   10.9649   32.8630 C   0  0  0  0  0  0  0  0  0  0  0  0
  -15.2079    9.3424   31.1963 C   0  0  0  0  0  0  0  0  0  0  0  0
  -15.4524   10.5409   31.8610 C   0  0  0  0  0  0  0  0  0  0  0  0
  -12.2936    7.9745   35.6659 O   0  0  0  0  0  0  0  0  0  0  0  0
   -0.2170    2.1120   27.6763 H   0  0  0  0  0  0  0  0  0  0  0  0
   -7.0685    2.1316   35.3673 H   0  0  0  0  0  0  0  0  0  0  0  0
  1  2  2  0
  1  3  1  0
  1  4  1  0
  4  5  1  0
  5  6  1  0
  5  8  1  6
  6  7  2  0
  6 13  1  0
  8  9  1  0
  9 10  1  0
 10 11  2  0
 10 12  1  0
 14 13  1  1
 14 15  1  0
 14 17  1  0
 15 16  2  0
 15 21  1  0
 17 18  1  0
 17 19  1  6
 18 20  1  0
 21 22  1  0
 22 23  1  0
 22 25  1  6
 23 24  2  0
 23 32  1  0
 25 26  1  0
 26 27  1  0
 27 28  1  0
 28 29  1  0
 29 30  1  0
 29 31  2  0
 32 33  1  0
 33 34  1  0
 33 36  1  1
 34 35  2  0
 34 43  1  0
 36 37  1  0
 37 38  1  0
 38 39  1  0
 39 40  1  0
 40 41  1  0
 40 42  2  0
 44 43  1  1
 44 45  1  0
 44 47  1  0
 45 46  2  0
 45 50  1  0
 47 48  1  6
 47 49  1  0
 50 51  1  0
 50 56  1  0
 51 52  1  1
 51 54  1  0
 52 53  2  0
 52 57  1  0
 54 55  1  0
 55 56  1  0
 57 58  1  0
 58 59  1  0
 58 61  1  1
 59 60  2  0
 59 66  1  0
 61 62  1  0
 62 63  1  0
 63 64  1  0
 63 65  2  0
 66 67  1  0
 67 68  1  0
 67 70  1  6
 68 69  2  0
 68 77  1  0
 70 71  1  0
 71 72  2  0
 71 73  1  0
 72 74  1  0
 73 75  2  0
 74 76  2  0
 75 76  1  0
 31 78  1  0
 42 79  1  0
M  END
$$$$
