
     RDKit          3D

 79 80  0  0  0  0  0  0  0  0999 V2000
   -4.3231   -0.3559   30.3273 C   0  0  0  0  0  0  0  0  0  0  0  0
   -3.4824   -0.3786   31.2177 O   0  0  0  0  0  0  0  0  0  0  0  0
   -4.7470    0.9255   29.6621 C   0  0  0  0  0  0  0  0  0  0  0  0
   -4.9723   -1.4759   29.8698 N   0  0  0  0  0  0  0  0  0  0  0  0
   -4.2958   -2.7704   29.7232 C   0  0  2  0  0  0  0  0  0  0  0  0
   -2.9453   -2.6063   28.9875 C   0  0  0  0  0  0  0  0  0  0  0  0
   -2.3896   -1.5193   28.8382 O   0  0  0  0  0  0  0  0  0  0  0  0
   -5.1880   -3.7626   28.9704 C   0  0  0  0  0  0  0  0  0  0  0  0
   -4.7685   -5.2147   29.2096 C   0  0  0  0  0  0  0  0  0  0  0  0
   -5.9299   -6.1706   29.1758 C   0  0  0  0  0  0  0  0  0  0  0  0
   -5.9409   -7.2655   28.6379 O   0  0  0  0  0  0  0  0  0  0  0  0
   -6.9916   -5.7601   29.8935 O   0  0  0  0  0  0  0  0  0  0  0  0
   -2.4324   -3.7752   28.4774 N   0  0  0  0  0  0  0  0  0  0  0  0
   -1.2031   -3.8353   27.6899 C   0  0  2  0  0  0  0  0  0  0  0  0
   -0.7205   -2.3623   27.6280 C   0  0  0  0  0  0  0  0  0  0  0  0
    0.4838   -2.0985   27.6212 O   0  0  0  0  0  0  0  0  0  0  0  0
   -1.4152   -4.3669   26.2364 C   0  0  2  0  0  0  0  0  0  0  0  0
   -2.0026   -5.7956   26.1622 C   0  0  0  0  0  0  0  0  0  0  0  0
   -0.0950   -4.2928   25.4550 C   0  0  0  0  0  0  0  0  0  0  0  0
   -2.0421   -6.3724   24.7510 C   0  0  0  0  0  0  0  0  0  0  0  0
   -1.7129   -1.4037   27.6756 N   0  0  0  0  0  0  0  0  0  0  0  0
   -1.4400    0.0368   27.6140 C   0  0  2  0  0  0  0  0  0  0  0  0
   -2.7634    0.8293   27.6847 C   0  0  0  0  0  0  0  0  0  0  0  0
   -3.8395    0.3636   27.3197 O   0  0  0  0  0  0  0  0  0  0  0  0
   -0.6347    0.5256   26.4000 C   0  0  0  0  0  0  0  0  0  0  0  0
    0.5048    1.4876   26.7413 C   0  0  0  0  0  0  0  0  0  0  0  0
    1.2376    1.9318   25.4738 C   0  0  0  0  0  0  0  0  0  0  0  0
    2.0394    3.1105   25.7501 N   0  0  0  0  0  0  0  0  0  0  0  0
    2.8106    3.7128   24.8208 C   0  0  0  0  0  0  0  0  0  0  0  0
    2.8874    5.0401   25.0315 N   0  0  0  0  0  0  0  0  0  0  0  0
    3.4460    3.1968   23.8354 N   0  0  0  0  0  0  0  0  0  0  0  0
   -2.6301    2.1280   28.1437 N   0  0  0  0  0  0  0  0  0  0  0  0
   -2.7310    3.2662   27.2374 C   0  0  2  0  0  0  0  0  0  0  0  0
   -2.4345    4.5919   27.9803 C   0  0  0  0  0  0  0  0  0  0  0  0
   -2.7837    5.6698   27.5018 O   0  0  0  0  0  0  0  0  0  0  0  0
   -4.1146    3.3850   26.5703 C   0  0  0  0  0  0  0  0  0  0  0  0
   -4.3938    4.6584   25.7678 C   0  0  0  0  0  0  0  0  0  0  0  0
   -5.2030    5.7213   26.5134 C   0  0  0  0  0  0  0  0  0  0  0  0
   -5.3574    6.9084   25.6808 N   0  0  0  0  0  0  0  0  0  0  0  0
   -4.7206    7.0637   24.5026 C   0  0  0  0  0  0  0  0  0  0  0  0
   -4.9786    6.0342   23.6699 N   0  0  0  0  0  0  0  0  0  0  0  0
   -3.9541    8.0417   24.1731 N   0  0  0  0  0  0  0  0  0  0  0  0
   -1.9432    4.4778   29.2787 N   0  0  0  0  0  0  0  0  0  0  0  0
   -2.4731    5.3375   30.3520 C   0  0  2  0  0  0  0  0  0  0  0  0
   -2.9897    4.7178   31.6896 C   0  0  0  0  0  0  0  0  0  0  0  0
   -3.0815    5.4724   32.6696 O   0  0  0  0  0  0  0  0  0  0  0  0
   -3.4406    6.3980   29.7512 C   0  0  1  0  0  0  0  0  0  0  0  0
   -3.6503    7.6084   30.6553 C   0  0  0  0  0  0  0  0  0  0  0  0
   -3.0090    6.8667   28.3574 C   0  0  0  0  0  0  0  0  0  0  0  0
   -3.3953    3.4110   31.8332 N   0  0  0  0  0  0  0  0  0  0  0  0
   -4.3310    2.5898   31.0678 C   0  0  2  0  0  0  0  0  0  0  0  0
   -5.7760    2.6248   31.6284 C   0  0  0  0  0  0  0  0  0  0  0  0
   -6.1981    3.4962   32.3814 O   0  0  0  0  0  0  0  0  0  0  0  0
   -3.7697    1.1745   31.2582 C   0  0  0  0  0  0  0  0  0  0  0  0
   -3.3020    1.1970   32.7077 C   0  0  0  0  0  0  0  0  0  0  0  0
   -2.7363    2.6009   32.8572 C   0  0  0  0  0  0  0  0  0  0  0  0
   -6.5569    1.5483   31.2552 N   0  0  0  0  0  0  0  0  0  0  0  0
   -7.9582    1.4398   31.6657 C   0  0  2  0  0  0  0  0  0  0  0  0
   -8.8980    1.9167   30.5323 C   0  0  0  0  0  0  0  0  0  0  0  0
   -9.5199    2.9667   30.5807 O   0  0  0  0  0  0  0  0  0  0  0  0
   -8.2648    2.1412   32.9966 C   0  0  0  0  0  0  0  0  0  0  0  0
   -7.6373    1.4718   34.2182 C   0  0  0  0  0  0  0  0  0  0  0  0
   -8.6849    0.7416   35.0088 C   0  0  0  0  0  0  0  0  0  0  0  0
   -9.9122    0.8718   34.4718 O   0  0  0  0  0  0  0  0  0  0  0  0
   -8.4848    0.0487   35.9986 O   0  0  0  0  0  0  0  0  0  0  0  0
   -9.0471    1.0004   29.5168 N   0  0  0  0  0  0  0  0  0  0  0  0
   -9.6220    1.3557   28.2104 C   0  0  2  0  0  0  0  0  0  0  0  0
  -10.2411    0.0713   27.6666 C   0  0  0  0  0  0  0  0  0  0  0  0
  -11.4322   -0.0898   27.4339 O   0  0  0  0  0  0  0  0  0  0  0  0
   -8.5811    1.8365   27.1863 C   0  0  0  0  0  0  0  0  0  0  0  0
   -9.0971    2.1799   25.8081 C   0  0  0  0  0  0  0  0  0  0  0  0
  -10.2157    1.5343   25.2663 C   0  0  0  0  0  0  0  0  0  0  0  0
   -8.4120    3.1128   25.0164 C   0  0  0  0  0  0  0  0  0  0  0  0
  -10.6661    1.8448   23.9812 C   0  0  0  0  0  0  0  0  0  0  0  0
   -8.8556    3.4123   23.7259 C   0  0  0  0  0  0  0  0  0  0  0  0
   -9.9890    2.7878   23.2125 C   0  0  0  0  0  0  0  0  0  0  0  0
   -9.3573   -0.9250   27.4798 O   0  0  0  0  0  0  0  0  0  0  0  0
    4.2712    3.7567   23.6211 H   0  0  0  0  0  0  0  0  0  0  0  0
   -2.9951    7.7653   24.3859 H   0  0  0  0  0  0  0  0  0  0  0  0
  1  2  2  0
  1  3  1  0
  1  4  1  0
  4  5  1  0
  5  6  1  0
  5  8  1  6
  6  7  2  0
  6 13  1  0
  8  9  1  0
  9 10  1  0
 10 11  2  0
 10 12  1  0
 14 13  1  1
 14 15  1  0
 14 17  1  0
 15 16  2  0
 15 21  1  0
 17 18  1  0
 17 19  1  1
 18 20  1  0
 21 22  1  0
 22 23  1  0
 22 25  1  6
 23 24  2  0
 23 32  1  0
 25 26  1  0
 26 27  1  0
 27 28  1  0
 28 29  1  0
 29 30  1  0
 29 31  2  0
 32 33  1  0
 33 34  1  0
 33 36  1  1
 34 35  2  0
 34 43  1  0
 36 37  1  0
 37 38  1  0
 38 39  1  0
 39 40  1  0
 40 41  1  0
 40 42  2  0
 44 43  1  6
 44 45  1  0
 44 47  1  0
 45 46  2  0
 45 50  1  0
 47 48  1  1
 47 49  1  0
 50 51  1  0
 50 56  1  0
 51 52  1  1
 51 54  1  0
 52 53  2  0
 52 57  1  0
 54 55  1  0
 55 56  1  0
 57 58  1  0
 58 59  1  0
 58 61  1  1
 59 60  2  0
 59 66  1  0
 61 62  1  0
 62 63  1  0
 63 64  1  0
 63 65  2  0
 66 67  1  0
 67 68  1  0
 67 70  1  6
 68 69  2  0
 68 77  1  0
 70 71  1  0
 71 72  2  0
 71 73  1  0
 72 74  1  0
 73 75  2  0
 74 76  2  0
 75 76  1  0
 31 78  1  0
 42 79  1  0
M  END
$$$$
