
     RDKit          3D

 79 80  0  0  0  0  0  0  0  0999 V2000
    0.7761   -7.0235   23.1664 C   0  0  0  0  0  0  0  0  0  0  0  0
    0.3609   -7.6829   22.2214 O   0  0  0  0  0  0  0  0  0  0  0  0
    1.6670   -5.8262   22.9743 C   0  0  0  0  0  0  0  0  0  0  0  0
    0.4961   -7.3195   24.4776 N   0  0  0  0  0  0  0  0  0  0  0  0
    0.8160   -6.3991   25.5756 C   0  0  2  0  0  0  0  0  0  0  0  0
   -0.3009   -5.3441   25.7534 C   0  0  0  0  0  0  0  0  0  0  0  0
   -0.5367   -4.4691   24.9219 O   0  0  0  0  0  0  0  0  0  0  0  0
    2.1591   -5.7064   25.3243 C   0  0  0  0  0  0  0  0  0  0  0  0
    3.3350   -6.6837   25.3879 C   0  0  0  0  0  0  0  0  0  0  0  0
    4.6649   -6.0103   25.1840 C   0  0  0  0  0  0  0  0  0  0  0  0
    4.8527   -4.8082   25.0943 O   0  0  0  0  0  0  0  0  0  0  0  0
    5.7099   -6.8580   25.1962 O   0  0  0  0  0  0  0  0  0  0  0  0
   -0.9871   -5.4402   26.9407 N   0  0  0  0  0  0  0  0  0  0  0  0
   -2.4447   -5.3934   27.0305 C   0  0  2  0  0  0  0  0  0  0  0  0
   -2.7487   -3.9490   27.5078 C   0  0  0  0  0  0  0  0  0  0  0  0
   -2.4864   -3.6033   28.6618 O   0  0  0  0  0  0  0  0  0  0  0  0
   -3.0424   -6.4087   28.0563 C   0  0  2  0  0  0  0  0  0  0  0  0
   -2.7522   -7.8911   27.7251 C   0  0  0  0  0  0  0  0  0  0  0  0
   -4.5549   -6.1807   28.1966 C   0  0  0  0  0  0  0  0  0  0  0  0
   -3.2206   -8.8654   28.8008 C   0  0  0  0  0  0  0  0  0  0  0  0
   -3.4000   -3.1412   26.5971 N   0  0  0  0  0  0  0  0  0  0  0  0
   -4.0226   -1.8630   26.9603 C   0  0  2  0  0  0  0  0  0  0  0  0
   -5.2820   -2.1129   27.8179 C   0  0  0  0  0  0  0  0  0  0  0  0
   -5.4168   -3.1033   28.5315 O   0  0  0  0  0  0  0  0  0  0  0  0
   -4.3936   -0.9316   25.7957 C   0  0  0  0  0  0  0  0  0  0  0  0
   -3.7586    0.4582   25.8690 C   0  0  0  0  0  0  0  0  0  0  0  0
   -4.1164    1.2840   24.6316 C   0  0  0  0  0  0  0  0  0  0  0  0
   -4.6033    2.5925   25.0307 N   0  0  0  0  0  0  0  0  0  0  0  0
   -4.0095    3.3419   25.9831 C   0  0  0  0  0  0  0  0  0  0  0  0
   -2.6910    3.0818   26.0616 N   0  0  0  0  0  0  0  0  0  0  0  0
   -4.5218    4.2230   26.7590 N   0  0  0  0  0  0  0  0  0  0  0  0
   -6.2713   -1.1557   27.6764 N   0  0  0  0  0  0  0  0  0  0  0  0
   -6.8357   -0.4721   28.8346 C   0  0  2  0  0  0  0  0  0  0  0  0
   -7.1435    1.0093   28.5059 C   0  0  0  0  0  0  0  0  0  0  0  0
   -6.6445    1.9154   29.1713 O   0  0  0  0  0  0  0  0  0  0  0  0
   -5.9126   -0.5120   30.0674 C   0  0  0  0  0  0  0  0  0  0  0  0
   -6.4711    0.0568   31.3742 C   0  0  0  0  0  0  0  0  0  0  0  0
   -7.3380    1.3067   31.2106 C   0  0  0  0  0  0  0  0  0  0  0  0
   -7.9810    1.6393   32.4763 N   0  0  0  0  0  0  0  0  0  0  0  0
   -8.6581    2.7885   32.6732 C   0  0  0  0  0  0  0  0  0  0  0  0
   -7.9820    3.8439   32.1742 N   0  0  0  0  0  0  0  0  0  0  0  0
   -9.7957    2.9127   33.2588 N   0  0  0  0  0  0  0  0  0  0  0  0
   -7.8374    1.2499   27.3223 N   0  0  0  0  0  0  0  0  0  0  0  0
   -8.1218    2.6314   26.8953 C   0  0  2  0  0  0  0  0  0  0  0  0
   -7.2611    3.8234   27.4231 C   0  0  0  0  0  0  0  0  0  0  0  0
   -6.1067    3.5704   27.7992 O   0  0  0  0  0  0  0  0  0  0  0  0
   -9.6530    2.9011   26.9622 C   0  0  1  0  0  0  0  0  0  0  0  0
  -10.0448    4.2940   26.4793 C   0  0  0  0  0  0  0  0  0  0  0  0
  -10.4704    1.8472   26.2074 C   0  0  0  0  0  0  0  0  0  0  0  0
   -7.6821    5.1329   27.4473 N   0  0  0  0  0  0  0  0  0  0  0  0
   -7.7501    6.1164   28.5262 C   0  0  2  0  0  0  0  0  0  0  0  0
   -9.1207    6.1365   29.2505 C   0  0  0  0  0  0  0  0  0  0  0  0
  -10.1106    5.5256   28.8613 O   0  0  0  0  0  0  0  0  0  0  0  0
   -7.5746    7.4460   27.7806 C   0  0  0  0  0  0  0  0  0  0  0  0
   -8.3575    7.2098   26.4955 C   0  0  0  0  0  0  0  0  0  0  0  0
   -8.0485    5.7553   26.1755 C   0  0  0  0  0  0  0  0  0  0  0  0
   -9.1647    6.9558   30.3615 N   0  0  0  0  0  0  0  0  0  0  0  0
  -10.3902    7.1169   31.1465 C   0  0  2  0  0  0  0  0  0  0  0  0
  -10.3216    8.3995   32.0097 C   0  0  0  0  0  0  0  0  0  0  0  0
   -9.5399    8.5361   32.9381 O   0  0  0  0  0  0  0  0  0  0  0  0
  -10.7501    5.8817   31.9843 C   0  0  0  0  0  0  0  0  0  0  0  0
   -9.6395    4.8359   32.0702 C   0  0  0  0  0  0  0  0  0  0  0  0
   -9.2371    4.6185   33.5008 C   0  0  0  0  0  0  0  0  0  0  0  0
  -10.2797    4.2677   34.2763 O   0  0  0  0  0  0  0  0  0  0  0  0
   -8.0975    4.6843   33.9444 O   0  0  0  0  0  0  0  0  0  0  0  0
  -11.2913    9.3253   31.7007 N   0  0  0  0  0  0  0  0  0  0  0  0
  -11.0362   10.7737   31.7220 C   0  0  2  0  0  0  0  0  0  0  0  0
  -12.3068   11.4105   32.2776 C   0  0  0  0  0  0  0  0  0  0  0  0
  -13.4008   10.8636   32.3300 O   0  0  0  0  0  0  0  0  0  0  0  0
  -10.7861   11.3787   30.3311 C   0  0  0  0  0  0  0  0  0  0  0  0
  -10.4914   12.8600   30.2811 C   0  0  0  0  0  0  0  0  0  0  0  0
  -10.3334   13.5315   29.0624 C   0  0  0  0  0  0  0  0  0  0  0  0
  -10.3018   13.5765   31.4715 C   0  0  0  0  0  0  0  0  0  0  0  0
  -10.0367   14.8961   29.0325 C   0  0  0  0  0  0  0  0  0  0  0  0
   -9.9914   14.9384   31.4400 C   0  0  0  0  0  0  0  0  0  0  0  0
   -9.8706   15.6010   30.2216 C   0  0  0  0  0  0  0  0  0  0  0  0
  -12.1445   12.6780   32.6970 O   0  0  0  0  0  0  0  0  0  0  0  0
   -5.1063    3.7708   27.4620 H   0  0  0  0  0  0  0  0  0  0  0  0
  -10.4893    2.4290   32.6876 H   0  0  0  0  0  0  0  0  0  0  0  0
  1  2  2  0
  1  3  1  0
  1  4  1  0
  4  5  1  0
  5  6  1  0
  5  8  1  6
  6  7  2  0
  6 13  1  0
  8  9  1  0
  9 10  1  0
 10 11  2  0
 10 12  1  0
 14 13  1  1
 14 15  1  0
 14 17  1  0
 15 16  2  0
 15 21  1  0
 17 18  1  0
 17 19  1  6
 18 20  1  0
 21 22  1  0
 22 23  1  0
 22 25  1  6
 23 24  2  0
 23 32  1  0
 25 26  1  0
 26 27  1  0
 27 28  1  0
 28 29  1  0
 29 30  1  0
 29 31  2  0
 32 33  1  0
 33 34  1  0
 33 36  1  1
 34 35  2  0
 34 43  1  0
 36 37  1  0
 37 38  1  0
 38 39  1  0
 39 40  1  0
 40 41  1  0
 40 42  2  0
 44 43  1  1
 44 45  1  0
 44 47  1  0
 45 46  2  0
 45 50  1  0
 47 48  1  6
 47 49  1  0
 50 51  1  0
 50 56  1  0
 51 52  1  6
 51 54  1  0
 52 53  2  0
 52 57  1  0
 54 55  1  0
 55 56  1  0
 57 58  1  0
 58 59  1  0
 58 61  1  1
 59 60  2  0
 59 66  1  0
 61 62  1  0
 62 63  1  0
 63 64  1  0
 63 65  2  0
 66 67  1  0
 67 68  1  0
 67 70  1  6
 68 69  2  0
 68 77  1  0
 70 71  1  0
 71 72  2  0
 71 73  1  0
 72 74  1  0
 73 75  2  0
 74 76  2  0
 75 76  1  0
 31 78  1  0
 42 79  1  0
M  END
$$$$
