
     RDKit          3D

 79 80  0  0  0  0  0  0  0  0999 V2000
    2.3481   -3.9803   23.7354 C   0  0  0  0  0  0  0  0  0  0  0  0
    3.1778   -3.3359   24.3650 O   0  0  0  0  0  0  0  0  0  0  0  0
    2.1534   -5.4568   23.9501 C   0  0  0  0  0  0  0  0  0  0  0  0
    1.5411   -3.4351   22.7674 N   0  0  0  0  0  0  0  0  0  0  0  0
    0.0813   -3.5888   22.7844 C   0  0  2  0  0  0  0  0  0  0  0  0
   -0.4268   -3.8678   24.2183 C   0  0  0  0  0  0  0  0  0  0  0  0
   -0.1594   -4.8963   24.8373 O   0  0  0  0  0  0  0  0  0  0  0  0
   -0.3528   -4.7170   21.8433 C   0  0  0  0  0  0  0  0  0  0  0  0
   -0.4316   -4.2568   20.3860 C   0  0  0  0  0  0  0  0  0  0  0  0
   -1.7734   -4.5260   19.7609 C   0  0  0  0  0  0  0  0  0  0  0  0
   -1.9653   -5.0148   18.6597 O   0  0  0  0  0  0  0  0  0  0  0  0
   -2.8132   -4.2624   20.5733 O   0  0  0  0  0  0  0  0  0  0  0  0
   -1.2382   -2.8847   24.7330 N   0  0  0  0  0  0  0  0  0  0  0  0
   -1.6709   -2.8509   26.1282 C   0  0  2  0  0  0  0  0  0  0  0  0
   -2.6649   -1.6613   26.1878 C   0  0  0  0  0  0  0  0  0  0  0  0
   -2.6618   -0.8914   27.1507 O   0  0  0  0  0  0  0  0  0  0  0  0
   -0.5074   -2.5981   27.1394 C   0  0  2  0  0  0  0  0  0  0  0  0
    0.8983   -2.9270   26.5852 C   0  0  0  0  0  0  0  0  0  0  0  0
   -0.7641   -3.3784   28.4372 C   0  0  0  0  0  0  0  0  0  0  0  0
    1.9558   -3.1238   27.6662 C   0  0  0  0  0  0  0  0  0  0  0  0
   -3.5823   -1.5944   25.1583 N   0  0  0  0  0  0  0  0  0  0  0  0
   -5.0051   -1.9098   25.3303 C   0  0  2  0  0  0  0  0  0  0  0  0
   -5.4348   -1.6374   26.7882 C   0  0  0  0  0  0  0  0  0  0  0  0
   -5.6366   -2.5344   27.6023 O   0  0  0  0  0  0  0  0  0  0  0  0
   -5.4381   -3.3328   24.9444 C   0  0  0  0  0  0  0  0  0  0  0  0
   -6.5854   -3.3940   23.9343 C   0  0  0  0  0  0  0  0  0  0  0  0
   -6.9275   -4.8447   23.5892 C   0  0  0  0  0  0  0  0  0  0  0  0
   -5.8981   -5.7332   24.0986 N   0  0  0  0  0  0  0  0  0  0  0  0
   -5.4023   -6.7702   23.3915 C   0  0  0  0  0  0  0  0  0  0  0  0
   -4.3705   -7.3521   24.0310 N   0  0  0  0  0  0  0  0  0  0  0  0
   -5.7856   -7.2399   22.2630 N   0  0  0  0  0  0  0  0  0  0  0  0
   -5.6264   -0.3004   27.0892 N   0  0  0  0  0  0  0  0  0  0  0  0
   -6.0442    0.1245   28.4204 C   0  0  2  0  0  0  0  0  0  0  0  0
   -7.0659    1.2848   28.3347 C   0  0  0  0  0  0  0  0  0  0  0  0
   -7.1578    1.9644   27.3137 O   0  0  0  0  0  0  0  0  0  0  0  0
   -4.8680    0.5805   29.3046 C   0  0  0  0  0  0  0  0  0  0  0  0
   -5.2141    1.1717   30.6736 C   0  0  0  0  0  0  0  0  0  0  0  0
   -4.0062    1.5710   31.5232 C   0  0  0  0  0  0  0  0  0  0  0  0
   -2.8676    0.7164   31.2079 N   0  0  0  0  0  0  0  0  0  0  0  0
   -2.5925   -0.4158   31.8864 C   0  0  0  0  0  0  0  0  0  0  0  0
   -1.4798   -1.0113   31.4096 N   0  0  0  0  0  0  0  0  0  0  0  0
   -3.2736   -0.9060   32.8601 N   0  0  0  0  0  0  0  0  0  0  0  0
   -7.9846    1.3792   29.3774 N   0  0  0  0  0  0  0  0  0  0  0  0
   -8.9357    2.5038   29.4303 C   0  0  2  0  0  0  0  0  0  0  0  0
   -8.5333    3.8592   30.0945 C   0  0  0  0  0  0  0  0  0  0  0  0
   -7.9637    3.8078   31.1950 O   0  0  0  0  0  0  0  0  0  0  0  0
  -10.3359    1.9918   29.8764 C   0  0  1  0  0  0  0  0  0  0  0  0
  -11.0787    2.9693   30.7816 C   0  0  0  0  0  0  0  0  0  0  0  0
  -11.2288    1.6098   28.6909 C   0  0  0  0  0  0  0  0  0  0  0  0
   -8.7226    5.0928   29.5156 N   0  0  0  0  0  0  0  0  0  0  0  0
   -8.3125    6.4352   29.9227 C   0  0  2  0  0  0  0  0  0  0  0  0
   -9.3824    7.1715   30.7692 C   0  0  0  0  0  0  0  0  0  0  0  0
  -10.5750    6.8849   30.7664 O   0  0  0  0  0  0  0  0  0  0  0  0
   -8.1683    7.1642   28.5803 C   0  0  0  0  0  0  0  0  0  0  0  0
   -9.3275    6.5976   27.7706 C   0  0  0  0  0  0  0  0  0  0  0  0
   -9.3546    5.1379   28.1974 C   0  0  0  0  0  0  0  0  0  0  0  0
   -8.8941    8.2353   31.5023 N   0  0  0  0  0  0  0  0  0  0  0  0
   -9.2596    8.4297   32.9068 C   0  0  2  0  0  0  0  0  0  0  0  0
   -8.5046    9.6409   33.5052 C   0  0  0  0  0  0  0  0  0  0  0  0
   -7.3861    9.9729   33.1441 O   0  0  0  0  0  0  0  0  0  0  0  0
   -9.0905    7.1686   33.7660 C   0  0  0  0  0  0  0  0  0  0  0  0
  -10.1328    6.0836   33.5005 C   0  0  0  0  0  0  0  0  0  0  0  0
  -10.0835    5.0379   34.5775 C   0  0  0  0  0  0  0  0  0  0  0  0
   -9.2520    4.0258   34.2682 O   0  0  0  0  0  0  0  0  0  0  0  0
  -10.6682    5.0858   35.6525 O   0  0  0  0  0  0  0  0  0  0  0  0
   -9.1665   10.2419   34.5511 N   0  0  0  0  0  0  0  0  0  0  0  0
   -9.2590   11.7030   34.6922 C   0  0  2  0  0  0  0  0  0  0  0  0
  -10.1010   11.9466   35.9414 C   0  0  0  0  0  0  0  0  0  0  0  0
  -10.8268   11.1154   36.4715 O   0  0  0  0  0  0  0  0  0  0  0  0
   -9.9667   12.3949   33.5157 C   0  0  0  0  0  0  0  0  0  0  0  0
   -9.2047   12.4604   32.2124 C   0  0  0  0  0  0  0  0  0  0  0  0
   -9.6929   11.8493   31.0507 C   0  0  0  0  0  0  0  0  0  0  0  0
   -7.9493   13.0834   32.1661 C   0  0  0  0  0  0  0  0  0  0  0  0
   -8.9654   11.8973   29.8593 C   0  0  0  0  0  0  0  0  0  0  0  0
   -7.2164   13.1187   30.9771 C   0  0  0  0  0  0  0  0  0  0  0  0
   -7.7291   12.5365   29.8211 C   0  0  0  0  0  0  0  0  0  0  0  0
  -10.0117   13.1983   36.4251 O   0  0  0  0  0  0  0  0  0  0  0  0
   -4.9755   -7.4965   21.6990 H   0  0  0  0  0  0  0  0  0  0  0  0
   -3.9064   -1.6055   32.4706 H   0  0  0  0  0  0  0  0  0  0  0  0
  1  2  2  0
  1  3  1  0
  1  4  1  0
  4  5  1  0
  5  6  1  0
  5  8  1  6
  6  7  2  0
  6 13  1  0
  8  9  1  0
  9 10  1  0
 10 11  2  0
 10 12  1  0
 14 13  1  6
 14 15  1  0
 14 17  1  0
 15 16  2  0
 15 21  1  0
 17 18  1  0
 17 19  1  1
 18 20  1  0
 21 22  1  0
 22 23  1  0
 22 25  1  1
 23 24  2  0
 23 32  1  0
 25 26  1  0
 26 27  1  0
 27 28  1  0
 28 29  1  0
 29 30  1  0
 29 31  2  0
 32 33  1  0
 33 34  1  0
 33 36  1  1
 34 35  2  0
 34 43  1  0
 36 37  1  0
 37 38  1  0
 38 39  1  0
 39 40  1  0
 40 41  1  0
 40 42  2  0
 44 43  1  1
 44 45  1  0
 44 47  1  0
 45 46  2  0
 45 50  1  0
 47 48  1  6
 47 49  1  0
 50 51  1  0
 50 56  1  0
 51 52  1  1
 51 54  1  0
 52 53  2  0
 52 57  1  0
 54 55  1  0
 55 56  1  0
 57 58  1  0
 58 59  1  0
 58 61  1  1
 59 60  2  0
 59 66  1  0
 61 62  1  0
 62 63  1  0
 63 64  1  0
 63 65  2  0
 66 67  1  0
 67 68  1  0
 67 70  1  6
 68 69  2  0
 68 77  1  0
 70 71  1  0
 71 72  2  0
 71 73  1  0
 72 74  1  0
 73 75  2  0
 74 76  2  0
 75 76  1  0
 31 78  1  0
 42 79  1  0
M  END
$$$$
