
     RDKit          3D

 79 80  0  0  0  0  0  0  0  0999 V2000
   -4.6867   -5.9408   25.2903 C   0  0  0  0  0  0  0  0  0  0  0  0
   -3.6065   -6.3982   25.6426 O   0  0  0  0  0  0  0  0  0  0  0  0
   -5.9037   -5.9971   26.1732 C   0  0  0  0  0  0  0  0  0  0  0  0
   -4.9002   -5.3618   24.0637 N   0  0  0  0  0  0  0  0  0  0  0  0
   -3.8173   -4.7465   23.2868 C   0  0  2  0  0  0  0  0  0  0  0  0
   -3.7459   -3.2242   23.5506 C   0  0  0  0  0  0  0  0  0  0  0  0
   -2.9071   -2.4909   23.0296 O   0  0  0  0  0  0  0  0  0  0  0  0
   -4.0087   -5.0129   21.7904 C   0  0  0  0  0  0  0  0  0  0  0  0
   -3.8289   -6.4912   21.4382 C   0  0  0  0  0  0  0  0  0  0  0  0
   -4.0289   -6.7705   19.9734 C   0  0  0  0  0  0  0  0  0  0  0  0
   -4.1004   -5.9341   19.0881 O   0  0  0  0  0  0  0  0  0  0  0  0
   -4.0356   -8.0807   19.6667 O   0  0  0  0  0  0  0  0  0  0  0  0
   -4.6768   -2.7608   24.4497 N   0  0  0  0  0  0  0  0  0  0  0  0
   -4.7270   -1.3749   24.9097 C   0  0  2  0  0  0  0  0  0  0  0  0
   -3.7012   -1.3243   26.0723 C   0  0  0  0  0  0  0  0  0  0  0  0
   -3.2752   -2.3657   26.5764 O   0  0  0  0  0  0  0  0  0  0  0  0
   -6.1296   -0.9422   25.4443 C   0  0  2  0  0  0  0  0  0  0  0  0
   -7.2377   -0.9098   24.3661 C   0  0  0  0  0  0  0  0  0  0  0  0
   -6.0250    0.4223   26.1415 C   0  0  0  0  0  0  0  0  0  0  0  0
   -8.6476   -0.7941   24.9356 C   0  0  0  0  0  0  0  0  0  0  0  0
   -3.3889   -0.0642   26.5419 N   0  0  0  0  0  0  0  0  0  0  0  0
   -2.3199    0.1868   27.5153 C   0  0  2  0  0  0  0  0  0  0  0  0
   -2.7403    1.3132   28.4842 C   0  0  0  0  0  0  0  0  0  0  0  0
   -2.6760    1.2006   29.7054 O   0  0  0  0  0  0  0  0  0  0  0  0
   -0.9369    0.5230   26.9357 C   0  0  0  0  0  0  0  0  0  0  0  0
   -0.7937    0.2473   25.4379 C   0  0  0  0  0  0  0  0  0  0  0  0
    0.6019    0.6360   24.9458 C   0  0  0  0  0  0  0  0  0  0  0  0
    1.2050   -0.4755   24.2320 N   0  0  0  0  0  0  0  0  0  0  0  0
    1.6128   -1.6090   24.8403 C   0  0  0  0  0  0  0  0  0  0  0  0
    2.9552   -1.7094   24.8429 N   0  0  0  0  0  0  0  0  0  0  0  0
    0.9143   -2.5311   25.3904 N   0  0  0  0  0  0  0  0  0  0  0  0
   -3.2466    2.4426   27.8652 N   0  0  0  0  0  0  0  0  0  0  0  0
   -3.7495    3.5708   28.6406 C   0  0  2  0  0  0  0  0  0  0  0  0
   -5.2903    3.5040   28.7776 C   0  0  0  0  0  0  0  0  0  0  0  0
   -5.9932    3.2130   27.8112 O   0  0  0  0  0  0  0  0  0  0  0  0
   -3.3772    4.9356   28.0306 C   0  0  0  0  0  0  0  0  0  0  0  0
   -1.9159    5.1411   27.6234 C   0  0  0  0  0  0  0  0  0  0  0  0
   -1.6185    6.4875   26.9608 C   0  0  0  0  0  0  0  0  0  0  0  0
   -0.1808    6.7302   26.9433 N   0  0  0  0  0  0  0  0  0  0  0  0
    0.3652    7.8560   26.4408 C   0  0  0  0  0  0  0  0  0  0  0  0
   -0.5865    8.7019   25.9948 N   0  0  0  0  0  0  0  0  0  0  0  0
    1.6192    8.1292   26.3688 N   0  0  0  0  0  0  0  0  0  0  0  0
   -5.8016    3.5931   30.0703 N   0  0  0  0  0  0  0  0  0  0  0  0
   -7.2578    3.6405   30.2918 C   0  0  2  0  0  0  0  0  0  0  0  0
   -7.9189    4.8689   30.9947 C   0  0  0  0  0  0  0  0  0  0  0  0
   -7.2835    5.4113   31.9114 O   0  0  0  0  0  0  0  0  0  0  0  0
   -7.7531    2.2737   30.8473 C   0  0  1  0  0  0  0  0  0  0  0  0
   -9.2729    2.1482   30.8817 C   0  0  0  0  0  0  0  0  0  0  0  0
   -7.1562    1.0803   30.0938 C   0  0  0  0  0  0  0  0  0  0  0  0
   -9.1278    5.4140   30.6285 N   0  0  0  0  0  0  0  0  0  0  0  0
   -9.8559    6.5861   31.1101 C   0  0  2  0  0  0  0  0  0  0  0  0
  -10.8607    6.2589   32.2446 C   0  0  0  0  0  0  0  0  0  0  0  0
  -11.6492    5.3200   32.2120 O   0  0  0  0  0  0  0  0  0  0  0  0
  -10.6476    7.0228   29.8704 C   0  0  0  0  0  0  0  0  0  0  0  0
  -11.0511    5.6913   29.2503 C   0  0  0  0  0  0  0  0  0  0  0  0
   -9.8231    4.8249   29.4846 C   0  0  0  0  0  0  0  0  0  0  0  0
  -10.8429    7.1548   33.2956 N   0  0  0  0  0  0  0  0  0  0  0  0
  -10.0280    6.9192   34.4892 C   0  0  2  0  0  0  0  0  0  0  0  0
  -10.1402    8.1101   35.4711 C   0  0  0  0  0  0  0  0  0  0  0  0
   -9.4295    8.2293   36.4572 O   0  0  0  0  0  0  0  0  0  0  0  0
   -8.5658    6.5714   34.1760 C   0  0  0  0  0  0  0  0  0  0  0  0
   -7.7379    6.1796   35.3989 C   0  0  0  0  0  0  0  0  0  0  0  0
   -6.9638    7.3627   35.9058 C   0  0  0  0  0  0  0  0  0  0  0  0
   -7.3928    7.7734   37.1136 O   0  0  0  0  0  0  0  0  0  0  0  0
   -6.0092    7.8892   35.3479 O   0  0  0  0  0  0  0  0  0  0  0  0
  -11.1818    8.9631   35.1874 N   0  0  0  0  0  0  0  0  0  0  0  0
  -11.4689   10.1563   35.9981 C   0  0  2  0  0  0  0  0  0  0  0  0
  -12.6164   10.8719   35.2910 C   0  0  0  0  0  0  0  0  0  0  0  0
  -13.1879   10.4619   34.2890 O   0  0  0  0  0  0  0  0  0  0  0  0
  -10.2931   11.1428   36.0856 C   0  0  0  0  0  0  0  0  0  0  0  0
   -9.2771   11.0845   34.9686 C   0  0  0  0  0  0  0  0  0  0  0  0
   -9.4334   10.2108   33.8853 C   0  0  0  0  0  0  0  0  0  0  0  0
   -8.1146   11.8657   35.0382 C   0  0  0  0  0  0  0  0  0  0  0  0
   -8.4733   10.1504   32.8726 C   0  0  0  0  0  0  0  0  0  0  0  0
   -7.1484   11.7941   34.0315 C   0  0  0  0  0  0  0  0  0  0  0  0
   -7.3329   10.9459   32.9431 C   0  0  0  0  0  0  0  0  0  0  0  0
  -12.9532   12.0484   35.8487 O   0  0  0  0  0  0  0  0  0  0  0  0
   -0.0752   -2.2857   25.3572 H   0  0  0  0  0  0  0  0  0  0  0  0
    2.1321    7.2935   26.6516 H   0  0  0  0  0  0  0  0  0  0  0  0
  1  2  2  0
  1  3  1  0
  1  4  1  0
  4  5  1  0
  5  6  1  0
  5  8  1  6
  6  7  2  0
  6 13  1  0
  8  9  1  0
  9 10  1  0
 10 11  2  0
 10 12  1  0
 14 13  1  1
 14 15  1  0
 14 17  1  0
 15 16  2  0
 15 21  1  0
 17 18  1  0
 17 19  1  6
 18 20  1  0
 21 22  1  0
 22 23  1  0
 22 25  1  6
 23 24  2  0
 23 32  1  0
 25 26  1  0
 26 27  1  0
 27 28  1  0
 28 29  1  0
 29 30  1  0
 29 31  2  0
 32 33  1  0
 33 34  1  0
 33 36  1  6
 34 35  2  0
 34 43  1  0
 36 37  1  0
 37 38  1  0
 38 39  1  0
 39 40  1  0
 40 41  1  0
 40 42  2  0
 44 43  1  1
 44 45  1  0
 44 47  1  0
 45 46  2  0
 45 50  1  0
 47 48  1  6
 47 49  1  0
 50 51  1  0
 50 56  1  0
 51 52  1  1
 51 54  1  0
 52 53  2  0
 52 57  1  0
 54 55  1  0
 55 56  1  0
 57 58  1  0
 58 59  1  0
 58 61  1  6
 59 60  2  0
 59 66  1  0
 61 62  1  0
 62 63  1  0
 63 64  1  0
 63 65  2  0
 66 67  1  0
 67 68  1  0
 67 70  1  6
 68 69  2  0
 68 77  1  0
 70 71  1  0
 71 72  2  0
 71 73  1  0
 72 74  1  0
 73 75  2  0
 74 76  2  0
 75 76  1  0
 31 78  1  0
 42 79  1  0
M  END
$$$$
