
     RDKit          3D

 79 80  0  0  0  0  0  0  0  0999 V2000
    0.7281   -9.9565   24.8731 C   0  0  0  0  0  0  0  0  0  0  0  0
   -0.1353   -9.9631   25.7418 O   0  0  0  0  0  0  0  0  0  0  0  0
    1.2097  -11.2219   24.2167 C   0  0  0  0  0  0  0  0  0  0  0  0
    1.3525   -8.8151   24.4343 N   0  0  0  0  0  0  0  0  0  0  0  0
    0.8268   -7.4742   24.7182 C   0  0  2  0  0  0  0  0  0  0  0  0
   -0.5293   -7.2522   24.0085 C   0  0  0  0  0  0  0  0  0  0  0  0
   -1.0281   -8.0737   23.2410 O   0  0  0  0  0  0  0  0  0  0  0  0
    1.8293   -6.3995   24.2856 C   0  0  0  0  0  0  0  0  0  0  0  0
    1.3914   -4.9957   24.7090 C   0  0  0  0  0  0  0  0  0  0  0  0
    2.3654   -3.9290   24.2881 C   0  0  0  0  0  0  0  0  0  0  0  0
    3.3669   -3.5925   24.8981 O   0  0  0  0  0  0  0  0  0  0  0  0
    2.0992   -3.3967   23.0812 O   0  0  0  0  0  0  0  0  0  0  0  0
   -1.1169   -6.0386   24.2764 N   0  0  0  0  0  0  0  0  0  0  0  0
   -2.5119   -5.7365   23.9638 C   0  0  2  0  0  0  0  0  0  0  0  0
   -2.7020   -4.2765   24.4525 C   0  0  0  0  0  0  0  0  0  0  0  0
   -2.5653   -3.9931   25.6446 O   0  0  0  0  0  0  0  0  0  0  0  0
   -3.5336   -6.6608   24.7001 C   0  0  2  0  0  0  0  0  0  0  0  0
   -3.3870   -6.6697   26.2396 C   0  0  0  0  0  0  0  0  0  0  0  0
   -3.4371   -8.0908   24.1478 C   0  0  0  0  0  0  0  0  0  0  0  0
   -4.4548   -7.4905   26.9549 C   0  0  0  0  0  0  0  0  0  0  0  0
   -3.1149   -3.3725   23.4943 N   0  0  0  0  0  0  0  0  0  0  0  0
   -3.4196   -1.9688   23.7944 C   0  0  2  0  0  0  0  0  0  0  0  0
   -4.0841   -1.8572   25.1838 C   0  0  0  0  0  0  0  0  0  0  0  0
   -5.1287   -2.4354   25.4714 O   0  0  0  0  0  0  0  0  0  0  0  0
   -4.2904   -1.2271   22.7683 C   0  0  0  0  0  0  0  0  0  0  0  0
   -4.5343    0.2479   23.0927 C   0  0  0  0  0  0  0  0  0  0  0  0
   -3.2102    0.9786   23.3243 C   0  0  0  0  0  0  0  0  0  0  0  0
   -3.2808    2.3215   22.7765 N   0  0  0  0  0  0  0  0  0  0  0  0
   -3.0055    3.4282   23.4981 C   0  0  0  0  0  0  0  0  0  0  0  0
   -1.7162    3.4545   23.8843 N   0  0  0  0  0  0  0  0  0  0  0  0
   -3.7771    4.3976   23.8233 N   0  0  0  0  0  0  0  0  0  0  0  0
   -3.4349   -1.0089   26.0634 N   0  0  0  0  0  0  0  0  0  0  0  0
   -4.1088   -0.4813   27.2444 C   0  0  2  0  0  0  0  0  0  0  0  0
   -5.2269    0.5124   26.8447 C   0  0  0  0  0  0  0  0  0  0  0  0
   -5.1654    1.1309   25.7834 O   0  0  0  0  0  0  0  0  0  0  0  0
   -3.1510    0.2341   28.2160 C   0  0  0  0  0  0  0  0  0  0  0  0
   -3.0589   -0.3222   29.6391 C   0  0  0  0  0  0  0  0  0  0  0  0
   -2.7041   -1.8079   29.7248 C   0  0  0  0  0  0  0  0  0  0  0  0
   -1.2599   -1.9842   29.6280 N   0  0  0  0  0  0  0  0  0  0  0  0
   -0.6897   -2.9650   28.8993 C   0  0  0  0  0  0  0  0  0  0  0  0
    0.6336   -2.7515   28.7460 N   0  0  0  0  0  0  0  0  0  0  0  0
   -1.2872   -3.9837   28.3918 N   0  0  0  0  0  0  0  0  0  0  0  0
   -6.3699    0.5115   27.6410 N   0  0  0  0  0  0  0  0  0  0  0  0
   -7.3821    1.5719   27.4892 C   0  0  2  0  0  0  0  0  0  0  0  0
   -7.3451    2.8461   28.3920 C   0  0  0  0  0  0  0  0  0  0  0  0
   -6.6074    2.8175   29.3886 O   0  0  0  0  0  0  0  0  0  0  0  0
   -8.7990    0.9383   27.3769 C   0  0  1  0  0  0  0  0  0  0  0  0
   -8.9570    0.0160   26.1724 C   0  0  0  0  0  0  0  0  0  0  0  0
   -9.2146    0.1948   28.6509 C   0  0  0  0  0  0  0  0  0  0  0  0
   -8.0334    4.0068   28.1239 N   0  0  0  0  0  0  0  0  0  0  0  0
   -8.1451    5.2666   28.8561 C   0  0  2  0  0  0  0  0  0  0  0  0
   -9.3559    5.3069   29.8235 C   0  0  0  0  0  0  0  0  0  0  0  0
  -10.5263    5.3150   29.4565 O   0  0  0  0  0  0  0  0  0  0  0  0
   -8.3840    6.2869   27.7352 C   0  0  0  0  0  0  0  0  0  0  0  0
   -9.2878    5.5204   26.7781 C   0  0  0  0  0  0  0  0  0  0  0  0
   -8.7219    4.1098   26.8376 C   0  0  0  0  0  0  0  0  0  0  0  0
   -9.0141    5.3915   31.1590 N   0  0  0  0  0  0  0  0  0  0  0  0
   -8.3187    6.5615   31.6990 C   0  0  2  0  0  0  0  0  0  0  0  0
   -9.2563    7.3765   32.6220 C   0  0  0  0  0  0  0  0  0  0  0  0
   -9.5127    8.5561   32.4364 O   0  0  0  0  0  0  0  0  0  0  0  0
   -7.6693    7.4418   30.6218 C   0  0  0  0  0  0  0  0  0  0  0  0
   -6.8552    8.6112   31.1732 C   0  0  0  0  0  0  0  0  0  0  0  0
   -7.6858    9.8625   31.1915 C   0  0  0  0  0  0  0  0  0  0  0  0
   -7.3021   10.7431   30.2488 O   0  0  0  0  0  0  0  0  0  0  0  0
   -8.6459   10.0768   31.9209 O   0  0  0  0  0  0  0  0  0  0  0  0
   -9.6882    6.6777   33.7257 N   0  0  0  0  0  0  0  0  0  0  0  0
  -10.8092    7.1348   34.5611 C   0  0  2  0  0  0  0  0  0  0  0  0
  -10.9340    6.1096   35.6846 C   0  0  0  0  0  0  0  0  0  0  0  0
  -11.2115    6.3731   36.8475 O   0  0  0  0  0  0  0  0  0  0  0  0
  -12.1561    7.1758   33.8212 C   0  0  0  0  0  0  0  0  0  0  0  0
  -12.6235    8.5308   33.3426 C   0  0  0  0  0  0  0  0  0  0  0  0
  -13.9831    8.8080   33.1527 C   0  0  0  0  0  0  0  0  0  0  0  0
  -11.6848    9.5187   33.0124 C   0  0  0  0  0  0  0  0  0  0  0  0
  -14.3984   10.0574   32.6861 C   0  0  0  0  0  0  0  0  0  0  0  0
  -12.1009   10.7632   32.5327 C   0  0  0  0  0  0  0  0  0  0  0  0
  -13.4574   11.0371   32.3808 C   0  0  0  0  0  0  0  0  0  0  0  0
  -10.6787    4.8457   35.3020 O   0  0  0  0  0  0  0  0  0  0  0  0
   -4.7513    4.0998   23.7727 H   0  0  0  0  0  0  0  0  0  0  0  0
   -1.6914   -4.5176   29.1618 H   0  0  0  0  0  0  0  0  0  0  0  0
  1  2  2  0
  1  3  1  0
  1  4  1  0
  4  5  1  0
  5  6  1  0
  5  8  1  6
  6  7  2  0
  6 13  1  0
  8  9  1  0
  9 10  1  0
 10 11  2  0
 10 12  1  0
 14 13  1  1
 14 15  1  0
 14 17  1  0
 15 16  2  0
 15 21  1  0
 17 18  1  0
 17 19  1  6
 18 20  1  0
 21 22  1  0
 22 23  1  0
 22 25  1  6
 23 24  2  0
 23 32  1  0
 25 26  1  0
 26 27  1  0
 27 28  1  0
 28 29  1  0
 29 30  1  0
 29 31  2  0
 32 33  1  0
 33 34  1  0
 33 36  1  1
 34 35  2  0
 34 43  1  0
 36 37  1  0
 37 38  1  0
 38 39  1  0
 39 40  1  0
 40 41  1  0
 40 42  2  0
 44 43  1  1
 44 45  1  0
 44 47  1  0
 45 46  2  0
 45 50  1  0
 47 48  1  6
 47 49  1  0
 50 51  1  0
 50 56  1  0
 51 52  1  1
 51 54  1  0
 52 53  2  0
 52 57  1  0
 54 55  1  0
 55 56  1  0
 57 58  1  0
 58 59  1  0
 58 61  1  6
 59 60  2  0
 59 66  1  0
 61 62  1  0
 62 63  1  0
 63 64  1  0
 63 65  2  0
 66 67  1  0
 67 68  1  0
 67 70  1  6
 68 69  2  0
 68 77  1  0
 70 71  1  0
 71 72  2  0
 71 73  1  0
 72 74  1  0
 73 75  2  0
 74 76  2  0
 75 76  1  0
 31 78  1  0
 42 79  1  0
M  END
$$$$
