
     RDKit          3D

 79 80  0  0  0  0  0  0  0  0999 V2000
    2.5322   -6.4998   25.5494 C   0  0  0  0  0  0  0  0  0  0  0  0
    2.7829   -6.2042   26.7112 O   0  0  0  0  0  0  0  0  0  0  0  0
    2.3763   -7.9289   25.1050 C   0  0  0  0  0  0  0  0  0  0  0  0
    2.3948   -5.5737   24.5449 N   0  0  0  0  0  0  0  0  0  0  0  0
    1.1165   -4.9118   24.2570 C   0  0  2  0  0  0  0  0  0  0  0  0
    0.7592   -3.8965   25.3677 C   0  0  0  0  0  0  0  0  0  0  0  0
   -0.0377   -4.1427   26.2716 O   0  0  0  0  0  0  0  0  0  0  0  0
   -0.0043   -5.9455   24.1086 C   0  0  0  0  0  0  0  0  0  0  0  0
   -1.3455   -5.2983   23.7563 C   0  0  0  0  0  0  0  0  0  0  0  0
   -2.5037   -5.9207   24.4877 C   0  0  0  0  0  0  0  0  0  0  0  0
   -3.6807   -5.6368   24.3386 O   0  0  0  0  0  0  0  0  0  0  0  0
   -2.1509   -6.9329   25.3011 O   0  0  0  0  0  0  0  0  0  0  0  0
    1.3786   -2.6759   25.2400 N   0  0  0  0  0  0  0  0  0  0  0  0
    0.9282   -1.4715   25.9340 C   0  0  2  0  0  0  0  0  0  0  0  0
   -0.6193   -1.5779   25.9119 C   0  0  0  0  0  0  0  0  0  0  0  0
   -1.2258   -1.6534   24.8412 O   0  0  0  0  0  0  0  0  0  0  0  0
    1.3610   -0.1448   25.2320 C   0  0  2  0  0  0  0  0  0  0  0  0
    2.8894    0.0893   25.2037 C   0  0  0  0  0  0  0  0  0  0  0  0
    0.6516    1.0491   25.8881 C   0  0  0  0  0  0  0  0  0  0  0  0
    3.3037    1.3632   24.4750 C   0  0  0  0  0  0  0  0  0  0  0  0
   -1.2440   -1.4883   27.1398 N   0  0  0  0  0  0  0  0  0  0  0  0
   -2.6509   -1.1021   27.2975 C   0  0  2  0  0  0  0  0  0  0  0  0
   -2.8068    0.4212   27.0983 C   0  0  0  0  0  0  0  0  0  0  0  0
   -2.0334    1.2400   27.5877 O   0  0  0  0  0  0  0  0  0  0  0  0
   -3.3212   -1.4992   28.6220 C   0  0  0  0  0  0  0  0  0  0  0  0
   -4.2982   -2.6711   28.5112 C   0  0  0  0  0  0  0  0  0  0  0  0
   -5.5247   -2.4403   29.3962 C   0  0  0  0  0  0  0  0  0  0  0  0
   -6.6225   -1.9217   28.5995 N   0  0  0  0  0  0  0  0  0  0  0  0
   -7.8112   -2.5500   28.4835 C   0  0  0  0  0  0  0  0  0  0  0  0
   -8.5117   -2.0853   27.4321 N   0  0  0  0  0  0  0  0  0  0  0  0
   -8.3085   -3.4849   29.2042 N   0  0  0  0  0  0  0  0  0  0  0  0
   -3.9212    0.7927   26.3668 N   0  0  0  0  0  0  0  0  0  0  0  0
   -4.4522    2.1495   26.4309 C   0  0  2  0  0  0  0  0  0  0  0  0
   -5.1128    2.4199   27.8048 C   0  0  0  0  0  0  0  0  0  0  0  0
   -4.5410    2.1059   28.8475 O   0  0  0  0  0  0  0  0  0  0  0  0
   -5.4886    2.4441   25.3298 C   0  0  0  0  0  0  0  0  0  0  0  0
   -5.5148    1.4978   24.1269 C   0  0  0  0  0  0  0  0  0  0  0  0
   -6.6436    1.7613   23.1285 C   0  0  0  0  0  0  0  0  0  0  0  0
   -7.5006    0.5866   23.0202 N   0  0  0  0  0  0  0  0  0  0  0  0
   -8.4262    0.4430   22.0503 C   0  0  0  0  0  0  0  0  0  0  0  0
   -8.0064    0.9913   20.8913 N   0  0  0  0  0  0  0  0  0  0  0  0
   -9.5724   -0.1268   22.1682 N   0  0  0  0  0  0  0  0  0  0  0  0
   -6.2675    3.1990   27.7942 N   0  0  0  0  0  0  0  0  0  0  0  0
   -6.5762    4.0856   28.9303 C   0  0  2  0  0  0  0  0  0  0  0  0
   -7.9291    4.8640   28.9909 C   0  0  0  0  0  0  0  0  0  0  0  0
   -8.0122    5.9146   28.3370 O   0  0  0  0  0  0  0  0  0  0  0  0
   -5.3407    4.9727   29.2599 C   0  0  1  0  0  0  0  0  0  0  0  0
   -5.5443    5.8669   30.4787 C   0  0  0  0  0  0  0  0  0  0  0  0
   -4.0567    4.1540   29.4323 C   0  0  0  0  0  0  0  0  0  0  0  0
   -9.0416    4.4333   29.6762 N   0  0  0  0  0  0  0  0  0  0  0  0
  -10.3761    5.0087   29.8308 C   0  0  2  0  0  0  0  0  0  0  0  0
  -10.5119    5.9116   31.0837 C   0  0  0  0  0  0  0  0  0  0  0  0
   -9.6564    6.0040   31.9579 O   0  0  0  0  0  0  0  0  0  0  0  0
  -11.2565    3.7675   30.0281 C   0  0  0  0  0  0  0  0  0  0  0  0
  -10.3723    2.8679   30.8820 C   0  0  0  0  0  0  0  0  0  0  0  0
   -8.9858    3.1153   30.3077 C   0  0  0  0  0  0  0  0  0  0  0  0
  -11.7181    6.5781   31.1761 N   0  0  0  0  0  0  0  0  0  0  0  0
  -11.8114    8.0248   30.9703 C   0  0  2  0  0  0  0  0  0  0  0  0
  -12.6935    8.6763   32.0623 C   0  0  0  0  0  0  0  0  0  0  0  0
  -13.8057    8.2641   32.3534 O   0  0  0  0  0  0  0  0  0  0  0  0
  -12.2672    8.4163   29.5574 C   0  0  0  0  0  0  0  0  0  0  0  0
  -13.7520    8.1778   29.2881 C   0  0  0  0  0  0  0  0  0  0  0  0
  -14.2094    9.0026   28.1192 C   0  0  0  0  0  0  0  0  0  0  0  0
  -13.8959   10.3039   28.2594 O   0  0  0  0  0  0  0  0  0  0  0  0
  -14.7551    8.5765   27.1090 O   0  0  0  0  0  0  0  0  0  0  0  0
  -12.1521    9.8220   32.5983 N   0  0  0  0  0  0  0  0  0  0  0  0
  -10.8457    9.8372   33.2739 C   0  0  2  0  0  0  0  0  0  0  0  0
  -10.5913   11.2936   33.6520 C   0  0  0  0  0  0  0  0  0  0  0  0
  -11.3267   12.2307   33.3697 O   0  0  0  0  0  0  0  0  0  0  0  0
   -9.6811    9.3817   32.3797 C   0  0  0  0  0  0  0  0  0  0  0  0
   -8.2889    9.5599   32.9397 C   0  0  0  0  0  0  0  0  0  0  0  0
   -7.1559    9.1681   32.2157 C   0  0  0  0  0  0  0  0  0  0  0  0
   -8.1153   10.0632   34.2369 C   0  0  0  0  0  0  0  0  0  0  0  0
   -5.8767    9.3163   32.7567 C   0  0  0  0  0  0  0  0  0  0  0  0
   -6.8360   10.1981   34.7821 C   0  0  0  0  0  0  0  0  0  0  0  0
   -5.7162    9.8362   34.0383 C   0  0  0  0  0  0  0  0  0  0  0  0
   -9.4405   11.4920   34.3193 O   0  0  0  0  0  0  0  0  0  0  0  0
   -8.1021   -4.3930   28.7882 H   0  0  0  0  0  0  0  0  0  0  0  0
  -10.0979    0.3848   22.8778 H   0  0  0  0  0  0  0  0  0  0  0  0
  1  2  2  0
  1  3  1  0
  1  4  1  0
  4  5  1  0
  5  6  1  0
  5  8  1  1
  6  7  2  0
  6 13  1  0
  8  9  1  0
  9 10  1  0
 10 11  2  0
 10 12  1  0
 14 13  1  6
 14 15  1  0
 14 17  1  0
 15 16  2  0
 15 21  1  0
 17 18  1  0
 17 19  1  1
 18 20  1  0
 21 22  1  0
 22 23  1  0
 22 25  1  1
 23 24  2  0
 23 32  1  0
 25 26  1  0
 26 27  1  0
 27 28  1  0
 28 29  1  0
 29 30  1  0
 29 31  2  0
 32 33  1  0
 33 34  1  0
 33 36  1  6
 34 35  2  0
 34 43  1  0
 36 37  1  0
 37 38  1  0
 38 39  1  0
 39 40  1  0
 40 41  1  0
 40 42  2  0
 44 43  1  6
 44 45  1  0
 44 47  1  0
 45 46  2  0
 45 50  1  0
 47 48  1  1
 47 49  1  0
 50 51  1  0
 50 56  1  0
 51 52  1  1
 51 54  1  0
 52 53  2  0
 52 57  1  0
 54 55  1  0
 55 56  1  0
 57 58  1  0
 58 59  1  0
 58 61  1  6
 59 60  2  0
 59 66  1  0
 61 62  1  0
 62 63  1  0
 63 64  1  0
 63 65  2  0
 66 67  1  0
 67 68  1  0
 67 70  1  6
 68 69  2  0
 68 77  1  0
 70 71  1  0
 71 72  2  0
 71 73  1  0
 72 74  1  0
 73 75  2  0
 74 76  2  0
 75 76  1  0
 31 78  1  0
 42 79  1  0
M  END
$$$$
