
     RDKit          3D

 79 80  0  0  0  0  0  0  0  0999 V2000
   -3.2457   -6.4323   29.0504 C   0  0  0  0  0  0  0  0  0  0  0  0
   -3.4096   -6.1383   30.2279 O   0  0  0  0  0  0  0  0  0  0  0  0
   -3.7661   -7.7188   28.4689 C   0  0  0  0  0  0  0  0  0  0  0  0
   -2.5599   -5.6426   28.1608 N   0  0  0  0  0  0  0  0  0  0  0  0
   -2.4345   -4.1904   28.3351 C   0  0  2  0  0  0  0  0  0  0  0  0
   -3.8271   -3.5247   28.4328 C   0  0  0  0  0  0  0  0  0  0  0  0
   -4.8118   -3.9344   27.8202 O   0  0  0  0  0  0  0  0  0  0  0  0
   -1.6372   -3.5758   27.1803 C   0  0  0  0  0  0  0  0  0  0  0  0
   -1.4371   -2.0685   27.3530 C   0  0  0  0  0  0  0  0  0  0  0  0
   -0.3756   -1.5129   26.4429 C   0  0  0  0  0  0  0  0  0  0  0  0
   -0.4791   -0.5164   25.7467 O   0  0  0  0  0  0  0  0  0  0  0  0
    0.7973   -2.1686   26.5134 O   0  0  0  0  0  0  0  0  0  0  0  0
   -3.8664   -2.4085   29.2342 N   0  0  0  0  0  0  0  0  0  0  0  0
   -5.0815   -1.6315   29.4679 C   0  0  2  0  0  0  0  0  0  0  0  0
   -4.6740   -0.1763   29.1171 C   0  0  0  0  0  0  0  0  0  0  0  0
   -5.4345    0.7626   29.3624 O   0  0  0  0  0  0  0  0  0  0  0  0
   -5.5826   -1.6812   30.9467 C   0  0  2  0  0  0  0  0  0  0  0  0
   -4.7117   -0.8768   31.9396 C   0  0  0  0  0  0  0  0  0  0  0  0
   -5.7057   -3.1410   31.4080 C   0  0  0  0  0  0  0  0  0  0  0  0
   -3.4079   -1.5716   32.3178 C   0  0  0  0  0  0  0  0  0  0  0  0
   -3.4758   -0.0345   28.4461 N   0  0  0  0  0  0  0  0  0  0  0  0
   -2.9454    1.2650   28.0180 C   0  0  2  0  0  0  0  0  0  0  0  0
   -3.1347    1.4381   26.4954 C   0  0  0  0  0  0  0  0  0  0  0  0
   -2.1936    1.4862   25.7079 O   0  0  0  0  0  0  0  0  0  0  0  0
   -1.4768    1.5498   28.3697 C   0  0  0  0  0  0  0  0  0  0  0  0
   -0.9945    2.9509   27.9895 C   0  0  0  0  0  0  0  0  0  0  0  0
   -0.1008    2.8989   26.7488 C   0  0  0  0  0  0  0  0  0  0  0  0
    1.1478    3.5943   27.0058 N   0  0  0  0  0  0  0  0  0  0  0  0
    2.3050    3.2878   26.3827 C   0  0  0  0  0  0  0  0  0  0  0  0
    2.0862    2.5661   25.2676 N   0  0  0  0  0  0  0  0  0  0  0  0
    3.5060    3.5969   26.7037 N   0  0  0  0  0  0  0  0  0  0  0  0
   -4.4507    1.5884   26.0947 N   0  0  0  0  0  0  0  0  0  0  0  0
   -4.8555    1.3437   24.7150 C   0  0  2  0  0  0  0  0  0  0  0  0
   -6.3848    1.5197   24.5485 C   0  0  0  0  0  0  0  0  0  0  0  0
   -7.1046    0.5513   24.3103 O   0  0  0  0  0  0  0  0  0  0  0  0
   -4.4735   -0.0625   24.2149 C   0  0  0  0  0  0  0  0  0  0  0  0
   -4.8079   -0.3987   22.7594 C   0  0  0  0  0  0  0  0  0  0  0  0
   -4.3986   -1.8044   22.3159 C   0  0  0  0  0  0  0  0  0  0  0  0
   -3.8377   -1.7616   20.9706 N   0  0  0  0  0  0  0  0  0  0  0  0
   -3.3979   -2.8611   20.3259 C   0  0  0  0  0  0  0  0  0  0  0  0
   -2.8944   -2.5468   19.1144 N   0  0  0  0  0  0  0  0  0  0  0  0
   -3.4379   -4.0691   20.7637 N   0  0  0  0  0  0  0  0  0  0  0  0
   -6.9034    2.7707   24.8748 N   0  0  0  0  0  0  0  0  0  0  0  0
   -7.8401    2.9154   26.0033 C   0  0  2  0  0  0  0  0  0  0  0  0
   -7.3126    3.1730   27.4508 C   0  0  0  0  0  0  0  0  0  0  0  0
   -6.9716    2.1846   28.1178 O   0  0  0  0  0  0  0  0  0  0  0  0
   -8.9279    1.8046   25.9335 C   0  0  1  0  0  0  0  0  0  0  0  0
  -10.0123    1.9506   26.9962 C   0  0  0  0  0  0  0  0  0  0  0  0
   -9.5764    1.7012   24.5489 C   0  0  0  0  0  0  0  0  0  0  0  0
   -7.1546    4.4210   28.0080 N   0  0  0  0  0  0  0  0  0  0  0  0
   -6.8263    4.8490   29.3663 C   0  0  2  0  0  0  0  0  0  0  0  0
   -8.0768    5.1130   30.2438 C   0  0  0  0  0  0  0  0  0  0  0  0
   -8.9778    5.8870   29.9379 O   0  0  0  0  0  0  0  0  0  0  0  0
   -6.1053    6.1833   29.1333 C   0  0  0  0  0  0  0  0  0  0  0  0
   -6.8962    6.7891   27.9809 C   0  0  0  0  0  0  0  0  0  0  0  0
   -7.2114    5.5785   27.1157 C   0  0  0  0  0  0  0  0  0  0  0  0
   -8.0772    4.4402   31.4501 N   0  0  0  0  0  0  0  0  0  0  0  0
   -8.4077    5.1182   32.7051 C   0  0  2  0  0  0  0  0  0  0  0  0
   -9.1881    6.4260   32.4305 C   0  0  0  0  0  0  0  0  0  0  0  0
   -8.8247    7.2595   31.6151 O   0  0  0  0  0  0  0  0  0  0  0  0
   -7.1929    5.3565   33.6132 C   0  0  0  0  0  0  0  0  0  0  0  0
   -7.5303    5.9995   34.9575 C   0  0  0  0  0  0  0  0  0  0  0  0
   -7.2321    5.0479   36.0805 C   0  0  0  0  0  0  0  0  0  0  0  0
   -8.2999    4.8452   36.8744 O   0  0  0  0  0  0  0  0  0  0  0  0
   -6.1747    4.4567   36.2595 O   0  0  0  0  0  0  0  0  0  0  0  0
  -10.2681    6.6095   33.2630 N   0  0  0  0  0  0  0  0  0  0  0  0
  -11.1406    7.7904   33.1765 C   0  0  2  0  0  0  0  0  0  0  0  0
  -11.6219    8.0556   34.6001 C   0  0  0  0  0  0  0  0  0  0  0  0
  -11.7311    9.1637   35.1090 O   0  0  0  0  0  0  0  0  0  0  0  0
  -12.3854    7.5774   32.2999 C   0  0  0  0  0  0  0  0  0  0  0  0
  -12.4014    8.2852   30.9648 C   0  0  0  0  0  0  0  0  0  0  0  0
  -13.4326    8.0759   30.0406 C   0  0  0  0  0  0  0  0  0  0  0  0
  -11.3339    9.1189   30.6017 C   0  0  0  0  0  0  0  0  0  0  0  0
  -13.4209    8.7184   28.8005 C   0  0  0  0  0  0  0  0  0  0  0  0
  -11.3167    9.7501   29.3554 C   0  0  0  0  0  0  0  0  0  0  0  0
  -12.3652    9.5597   28.4596 C   0  0  0  0  0  0  0  0  0  0  0  0
  -11.9023    6.9411   35.2987 O   0  0  0  0  0  0  0  0  0  0  0  0
    3.6118    3.5771   27.7179 H   0  0  0  0  0  0  0  0  0  0  0  0
   -3.9430   -4.6284   20.0757 H   0  0  0  0  0  0  0  0  0  0  0  0
  1  2  2  0
  1  3  1  0
  1  4  1  0
  4  5  1  0
  5  6  1  0
  5  8  1  6
  6  7  2  0
  6 13  1  0
  8  9  1  0
  9 10  1  0
 10 11  2  0
 10 12  1  0
 14 13  1  1
 14 15  1  0
 14 17  1  0
 15 16  2  0
 15 21  1  0
 17 18  1  0
 17 19  1  1
 18 20  1  0
 21 22  1  0
 22 23  1  0
 22 25  1  6
 23 24  2  0
 23 32  1  0
 25 26  1  0
 26 27  1  0
 27 28  1  0
 28 29  1  0
 29 30  1  0
 29 31  2  0
 32 33  1  0
 33 34  1  0
 33 36  1  1
 34 35  2  0
 34 43  1  0
 36 37  1  0
 37 38  1  0
 38 39  1  0
 39 40  1  0
 40 41  1  0
 40 42  2  0
 44 43  1  6
 44 45  1  0
 44 47  1  0
 45 46  2  0
 45 50  1  0
 47 48  1  1
 47 49  1  0
 50 51  1  0
 50 56  1  0
 51 52  1  1
 51 54  1  0
 52 53  2  0
 52 57  1  0
 54 55  1  0
 55 56  1  0
 57 58  1  0
 58 59  1  0
 58 61  1  6
 59 60  2  0
 59 66  1  0
 61 62  1  0
 62 63  1  0
 63 64  1  0
 63 65  2  0
 66 67  1  0
 67 68  1  0
 67 70  1  6
 68 69  2  0
 68 77  1  0
 70 71  1  0
 71 72  2  0
 71 73  1  0
 72 74  1  0
 73 75  2  0
 74 76  2  0
 75 76  1  0
 31 78  1  0
 42 79  1  0
M  END
$$$$
