
     RDKit          3D

 79 80  0  0  0  0  0  0  0  0999 V2000
    1.8541   -7.1706   26.8690 C   0  0  0  0  0  0  0  0  0  0  0  0
    2.1790   -8.3255   27.1150 O   0  0  0  0  0  0  0  0  0  0  0  0
    2.6063   -5.9934   27.4281 C   0  0  0  0  0  0  0  0  0  0  0  0
    0.7729   -6.8371   26.0911 N   0  0  0  0  0  0  0  0  0  0  0  0
    0.4558   -5.4470   25.7421 C   0  0  2  0  0  0  0  0  0  0  0  0
   -0.8323   -5.3729   24.8893 C   0  0  0  0  0  0  0  0  0  0  0  0
   -0.8235   -5.3558   23.6595 O   0  0  0  0  0  0  0  0  0  0  0  0
    1.6231   -4.8005   24.9896 C   0  0  0  0  0  0  0  0  0  0  0  0
    2.8326   -4.5586   25.8954 C   0  0  0  0  0  0  0  0  0  0  0  0
    2.7198   -3.2872   26.6920 C   0  0  0  0  0  0  0  0  0  0  0  0
    1.7107   -2.6155   26.8299 O   0  0  0  0  0  0  0  0  0  0  0  0
    3.8436   -2.9620   27.3570 O   0  0  0  0  0  0  0  0  0  0  0  0
   -1.9925   -5.2881   25.6217 N   0  0  0  0  0  0  0  0  0  0  0  0
   -3.2904   -4.9646   25.0337 C   0  0  2  0  0  0  0  0  0  0  0  0
   -3.3442   -3.4145   25.0640 C   0  0  0  0  0  0  0  0  0  0  0  0
   -2.6331   -2.7791   25.8456 O   0  0  0  0  0  0  0  0  0  0  0  0
   -4.5024   -5.5355   25.8370 C   0  0  2  0  0  0  0  0  0  0  0  0
   -4.4631   -7.0678   26.0420 C   0  0  0  0  0  0  0  0  0  0  0  0
   -5.8184   -5.1223   25.1614 C   0  0  0  0  0  0  0  0  0  0  0  0
   -5.4907   -7.5812   27.0450 C   0  0  0  0  0  0  0  0  0  0  0  0
   -4.2874   -2.8311   24.2419 N   0  0  0  0  0  0  0  0  0  0  0  0
   -4.6235   -1.4036   24.2938 C   0  0  2  0  0  0  0  0  0  0  0  0
   -5.0341   -1.0086   25.7289 C   0  0  0  0  0  0  0  0  0  0  0  0
   -5.9827   -1.5221   26.3160 O   0  0  0  0  0  0  0  0  0  0  0  0
   -5.7101   -0.9244   23.3185 C   0  0  0  0  0  0  0  0  0  0  0  0
   -5.4108    0.4164   22.6455 C   0  0  0  0  0  0  0  0  0  0  0  0
   -6.5387    0.8065   21.6882 C   0  0  0  0  0  0  0  0  0  0  0  0
   -6.1804    0.4513   20.3266 N   0  0  0  0  0  0  0  0  0  0  0  0
   -6.7834   -0.5419   19.6401 C   0  0  0  0  0  0  0  0  0  0  0  0
   -5.9588   -1.5923   19.4703 N   0  0  0  0  0  0  0  0  0  0  0  0
   -7.9757   -0.5994   19.1753 N   0  0  0  0  0  0  0  0  0  0  0  0
   -4.2784    0.0105   26.2816 N   0  0  0  0  0  0  0  0  0  0  0  0
   -4.8355    0.9069   27.2882 C   0  0  2  0  0  0  0  0  0  0  0  0
   -6.2945    1.2906   26.9396 C   0  0  0  0  0  0  0  0  0  0  0  0
   -6.9412    0.6258   26.1318 O   0  0  0  0  0  0  0  0  0  0  0  0
   -4.0217    2.2040   27.4571 C   0  0  0  0  0  0  0  0  0  0  0  0
   -2.5192    2.0556   27.7094 C   0  0  0  0  0  0  0  0  0  0  0  0
   -2.0795    2.3401   29.1469 C   0  0  0  0  0  0  0  0  0  0  0  0
   -2.4181    3.7105   29.5122 N   0  0  0  0  0  0  0  0  0  0  0  0
   -1.5855    4.7503   29.3037 C   0  0  0  0  0  0  0  0  0  0  0  0
   -2.0624    5.5717   28.3456 N   0  0  0  0  0  0  0  0  0  0  0  0
   -0.4721    4.9688   29.9078 N   0  0  0  0  0  0  0  0  0  0  0  0
   -6.8778    2.2835   27.7233 N   0  0  0  0  0  0  0  0  0  0  0  0
   -8.3162    2.5792   27.5988 C   0  0  2  0  0  0  0  0  0  0  0  0
   -8.9536    3.7811   28.3665 C   0  0  0  0  0  0  0  0  0  0  0  0
  -10.1442    3.6785   28.6986 O   0  0  0  0  0  0  0  0  0  0  0  0
   -9.1392    1.2642   27.7224 C   0  0  1  0  0  0  0  0  0  0  0  0
  -10.6438    1.4759   27.5892 C   0  0  0  0  0  0  0  0  0  0  0  0
   -8.6824    0.1879   26.7316 C   0  0  0  0  0  0  0  0  0  0  0  0
   -8.2682    4.9140   28.7399 N   0  0  0  0  0  0  0  0  0  0  0  0
   -7.8015    5.3880   30.0411 C   0  0  2  0  0  0  0  0  0  0  0  0
   -8.8179    6.3156   30.7552 C   0  0  0  0  0  0  0  0  0  0  0  0
   -9.9895    6.4398   30.4141 O   0  0  0  0  0  0  0  0  0  0  0  0
   -6.5631    6.2158   29.6729 C   0  0  0  0  0  0  0  0  0  0  0  0
   -6.9914    6.8923   28.3771 C   0  0  0  0  0  0  0  0  0  0  0  0
   -7.7977    5.8065   27.6810 C   0  0  0  0  0  0  0  0  0  0  0  0
   -8.2830    7.0525   31.7938 N   0  0  0  0  0  0  0  0  0  0  0  0
   -8.8369    6.9824   33.1474 C   0  0  2  0  0  0  0  0  0  0  0  0
   -8.2599    8.1127   34.0330 C   0  0  0  0  0  0  0  0  0  0  0  0
   -7.2126    8.0047   34.6521 O   0  0  0  0  0  0  0  0  0  0  0  0
   -8.6802    5.6038   33.8048 C   0  0  0  0  0  0  0  0  0  0  0  0
   -9.8867    4.6832   33.6282 C   0  0  0  0  0  0  0  0  0  0  0  0
   -9.4603    3.2448   33.6995 C   0  0  0  0  0  0  0  0  0  0  0  0
  -10.5097    2.4022   33.7210 O   0  0  0  0  0  0  0  0  0  0  0  0
   -8.3060    2.8361   33.6833 O   0  0  0  0  0  0  0  0  0  0  0  0
   -9.0873    9.2068   34.1401 N   0  0  0  0  0  0  0  0  0  0  0  0
   -8.6855   10.4354   34.8419 C   0  0  2  0  0  0  0  0  0  0  0  0
   -9.9754   11.0431   35.3856 C   0  0  0  0  0  0  0  0  0  0  0  0
  -10.0454   12.0849   36.0247 O   0  0  0  0  0  0  0  0  0  0  0  0
   -8.0299   11.4838   33.9284 C   0  0  0  0  0  0  0  0  0  0  0  0
   -6.7741   12.1436   34.4491 C   0  0  0  0  0  0  0  0  0  0  0  0
   -6.2979   11.8881   35.7411 C   0  0  0  0  0  0  0  0  0  0  0  0
   -6.0990   13.0852   33.6591 C   0  0  0  0  0  0  0  0  0  0  0  0
   -5.1493   12.5245   36.2173 C   0  0  0  0  0  0  0  0  0  0  0  0
   -4.9581   13.7313   34.1419 C   0  0  0  0  0  0  0  0  0  0  0  0
   -4.4762   13.4426   35.4157 C   0  0  0  0  0  0  0  0  0  0  0  0
  -11.0744   10.3110   35.1305 O   0  0  0  0  0  0  0  0  0  0  0  0
   -8.5447    0.1427   19.5825 H   0  0  0  0  0  0  0  0  0  0  0  0
    0.0895    5.5733   29.3072 H   0  0  0  0  0  0  0  0  0  0  0  0
  1  2  2  0
  1  3  1  0
  1  4  1  0
  4  5  1  0
  5  6  1  0
  5  8  1  6
  6  7  2  0
  6 13  1  0
  8  9  1  0
  9 10  1  0
 10 11  2  0
 10 12  1  0
 14 13  1  1
 14 15  1  0
 14 17  1  0
 15 16  2  0
 15 21  1  0
 17 18  1  0
 17 19  1  6
 18 20  1  0
 21 22  1  0
 22 23  1  0
 22 25  1  6
 23 24  2  0
 23 32  1  0
 25 26  1  0
 26 27  1  0
 27 28  1  0
 28 29  1  0
 29 30  1  0
 29 31  2  0
 32 33  1  0
 33 34  1  0
 33 36  1  6
 34 35  2  0
 34 43  1  0
 36 37  1  0
 37 38  1  0
 38 39  1  0
 39 40  1  0
 40 41  1  0
 40 42  2  0
 44 43  1  1
 44 45  1  0
 44 47  1  0
 45 46  2  0
 45 50  1  0
 47 48  1  6
 47 49  1  0
 50 51  1  0
 50 56  1  0
 51 52  1  6
 51 54  1  0
 52 53  2  0
 52 57  1  0
 54 55  1  0
 55 56  1  0
 57 58  1  0
 58 59  1  0
 58 61  1  1
 59 60  2  0
 59 66  1  0
 61 62  1  0
 62 63  1  0
 63 64  1  0
 63 65  2  0
 66 67  1  0
 67 68  1  0
 67 70  1  6
 68 69  2  0
 68 77  1  0
 70 71  1  0
 71 72  2  0
 71 73  1  0
 72 74  1  0
 73 75  2  0
 74 76  2  0
 75 76  1  0
 31 78  1  0
 42 79  1  0
M  END
$$$$
