
     RDKit          3D

 79 80  0  0  0  0  0  0  0  0999 V2000
    3.2088   -6.1492   24.8236 C   0  0  0  0  0  0  0  0  0  0  0  0
    3.5199   -6.4941   25.9569 O   0  0  0  0  0  0  0  0  0  0  0  0
    4.2396   -5.8239   23.7769 C   0  0  0  0  0  0  0  0  0  0  0  0
    1.9089   -6.0022   24.4066 N   0  0  0  0  0  0  0  0  0  0  0  0
    0.8360   -5.5803   25.3153 C   0  0  2  0  0  0  0  0  0  0  0  0
   -0.5312   -5.5822   24.5922 C   0  0  0  0  0  0  0  0  0  0  0  0
   -0.6610   -5.3076   23.4004 O   0  0  0  0  0  0  0  0  0  0  0  0
    1.1281   -4.1885   25.8848 C   0  0  0  0  0  0  0  0  0  0  0  0
    0.1202   -3.7805   26.9615 C   0  0  0  0  0  0  0  0  0  0  0  0
    0.6790   -2.7773   27.9337 C   0  0  0  0  0  0  0  0  0  0  0  0
    1.7649   -2.2277   27.8506 O   0  0  0  0  0  0  0  0  0  0  0  0
   -0.1786   -2.4341   28.9123 O   0  0  0  0  0  0  0  0  0  0  0  0
   -1.6006   -5.8798   25.4032 N   0  0  0  0  0  0  0  0  0  0  0  0
   -2.9165   -6.2541   24.8902 C   0  0  2  0  0  0  0  0  0  0  0  0
   -3.7049   -4.9185   24.8589 C   0  0  0  0  0  0  0  0  0  0  0  0
   -4.9190   -4.9137   24.6445 O   0  0  0  0  0  0  0  0  0  0  0  0
   -3.6749   -7.2761   25.7961 C   0  0  2  0  0  0  0  0  0  0  0  0
   -2.9367   -8.6208   25.9922 C   0  0  0  0  0  0  0  0  0  0  0  0
   -5.0862   -7.5195   25.2411 C   0  0  0  0  0  0  0  0  0  0  0  0
   -3.6237   -9.5626   26.9753 C   0  0  0  0  0  0  0  0  0  0  0  0
   -2.9474   -3.7719   24.9911 N   0  0  0  0  0  0  0  0  0  0  0  0
   -3.5093   -2.4215   24.8731 C   0  0  2  0  0  0  0  0  0  0  0  0
   -4.7719   -2.2951   25.7530 C   0  0  0  0  0  0  0  0  0  0  0  0
   -5.1271   -3.1696   26.5386 O   0  0  0  0  0  0  0  0  0  0  0  0
   -3.8476   -1.9471   23.4511 C   0  0  0  0  0  0  0  0  0  0  0  0
   -2.6596   -1.3767   22.6741 C   0  0  0  0  0  0  0  0  0  0  0  0
   -2.3111   -2.2710   21.4826 C   0  0  0  0  0  0  0  0  0  0  0  0
   -3.5230   -2.6713   20.7900 N   0  0  0  0  0  0  0  0  0  0  0  0
   -3.5231   -3.4861   19.7142 C   0  0  0  0  0  0  0  0  0  0  0  0
   -2.9876   -2.8794   18.6384 N   0  0  0  0  0  0  0  0  0  0  0  0
   -3.9350   -4.6948   19.6118 N   0  0  0  0  0  0  0  0  0  0  0  0
   -5.5016   -1.1377   25.5458 N   0  0  0  0  0  0  0  0  0  0  0  0
   -6.3016   -0.5451   26.6117 C   0  0  2  0  0  0  0  0  0  0  0  0
   -6.7435    0.8909   26.2376 C   0  0  0  0  0  0  0  0  0  0  0  0
   -6.0556    1.5831   25.4890 O   0  0  0  0  0  0  0  0  0  0  0  0
   -5.5599   -0.4865   27.9608 C   0  0  0  0  0  0  0  0  0  0  0  0
   -6.3243    0.0989   29.1509 C   0  0  0  0  0  0  0  0  0  0  0  0
   -5.5532    0.0958   30.4721 C   0  0  0  0  0  0  0  0  0  0  0  0
   -5.9185    1.2618   31.2679 N   0  0  0  0  0  0  0  0  0  0  0  0
   -5.9944    1.2345   32.6138 C   0  0  0  0  0  0  0  0  0  0  0  0
   -7.2444    0.9378   33.0254 N   0  0  0  0  0  0  0  0  0  0  0  0
   -5.0330    1.4607   33.4366 N   0  0  0  0  0  0  0  0  0  0  0  0
   -8.0277    1.2648   26.6267 N   0  0  0  0  0  0  0  0  0  0  0  0
   -8.4651    2.6661   26.4970 C   0  0  2  0  0  0  0  0  0  0  0  0
   -8.4004    3.6389   27.7174 C   0  0  0  0  0  0  0  0  0  0  0  0
   -9.4214    3.7498   28.4128 O   0  0  0  0  0  0  0  0  0  0  0  0
   -9.8183    2.7291   25.7310 C   0  0  1  0  0  0  0  0  0  0  0  0
  -10.3093    4.1520   25.4838 C   0  0  0  0  0  0  0  0  0  0  0  0
   -9.7813    1.9611   24.4054 C   0  0  0  0  0  0  0  0  0  0  0  0
   -7.2753    4.3341   28.0963 N   0  0  0  0  0  0  0  0  0  0  0  0
   -6.7555    4.7085   29.4099 C   0  0  2  0  0  0  0  0  0  0  0  0
   -7.2268    6.1093   29.8780 C   0  0  0  0  0  0  0  0  0  0  0  0
   -6.6692    7.1579   29.5712 O   0  0  0  0  0  0  0  0  0  0  0  0
   -5.2409    4.7601   29.1698 C   0  0  0  0  0  0  0  0  0  0  0  0
   -5.1483    5.3568   27.7713 C   0  0  0  0  0  0  0  0  0  0  0  0
   -6.3238    4.7130   27.0521 C   0  0  0  0  0  0  0  0  0  0  0  0
   -8.3127    6.0881   30.7313 N   0  0  0  0  0  0  0  0  0  0  0  0
   -8.3873    6.9698   31.8979 C   0  0  2  0  0  0  0  0  0  0  0  0
   -9.7037    6.7348   32.6770 C   0  0  0  0  0  0  0  0  0  0  0  0
  -10.3348    5.6908   32.6184 O   0  0  0  0  0  0  0  0  0  0  0  0
   -8.1785    8.4532   31.5614 C   0  0  0  0  0  0  0  0  0  0  0  0
   -9.1468    9.0020   30.5148 C   0  0  0  0  0  0  0  0  0  0  0  0
   -8.4383    9.2101   29.2069 C   0  0  0  0  0  0  0  0  0  0  0  0
   -7.1748    8.7470   29.2319 O   0  0  0  0  0  0  0  0  0  0  0  0
   -8.9297    9.6872   28.1917 O   0  0  0  0  0  0  0  0  0  0  0  0
  -10.1490    7.8455   33.3560 N   0  0  0  0  0  0  0  0  0  0  0  0
  -10.2253    7.8961   34.8240 C   0  0  2  0  0  0  0  0  0  0  0  0
   -9.5993    9.2284   35.2261 C   0  0  0  0  0  0  0  0  0  0  0  0
   -9.7467    9.7736   36.3123 O   0  0  0  0  0  0  0  0  0  0  0  0
   -9.4302    6.7819   35.5238 C   0  0  0  0  0  0  0  0  0  0  0  0
  -10.0976    5.4291   35.6135 C   0  0  0  0  0  0  0  0  0  0  0  0
  -11.4423    5.2545   35.2632 C   0  0  0  0  0  0  0  0  0  0  0  0
   -9.3883    4.3309   36.1207 C   0  0  0  0  0  0  0  0  0  0  0  0
  -12.0523    4.0029   35.3748 C   0  0  0  0  0  0  0  0  0  0  0  0
  -10.0038    3.0827   36.2448 C   0  0  0  0  0  0  0  0  0  0  0  0
  -11.3315    2.9155   35.8610 C   0  0  0  0  0  0  0  0  0  0  0  0
   -8.8672    9.8033   34.2554 O   0  0  0  0  0  0  0  0  0  0  0  0
   -4.8821   -4.7728   19.9822 H   0  0  0  0  0  0  0  0  0  0  0  0
   -4.3599    0.7000   33.3388 H   0  0  0  0  0  0  0  0  0  0  0  0
  1  2  2  0
  1  3  1  0
  1  4  1  0
  4  5  1  0
  5  6  1  0
  5  8  1  6
  6  7  2  0
  6 13  1  0
  8  9  1  0
  9 10  1  0
 10 11  2  0
 10 12  1  0
 14 13  1  1
 14 15  1  0
 14 17  1  0
 15 16  2  0
 15 21  1  0
 17 18  1  0
 17 19  1  6
 18 20  1  0
 21 22  1  0
 22 23  1  0
 22 25  1  6
 23 24  2  0
 23 32  1  0
 25 26  1  0
 26 27  1  0
 27 28  1  0
 28 29  1  0
 29 30  1  0
 29 31  2  0
 32 33  1  0
 33 34  1  0
 33 36  1  1
 34 35  2  0
 34 43  1  0
 36 37  1  0
 37 38  1  0
 38 39  1  0
 39 40  1  0
 40 41  1  0
 40 42  2  0
 44 43  1  1
 44 45  1  0
 44 47  1  0
 45 46  2  0
 45 50  1  0
 47 48  1  6
 47 49  1  0
 50 51  1  0
 50 56  1  0
 51 52  1  6
 51 54  1  0
 52 53  2  0
 52 57  1  0
 54 55  1  0
 55 56  1  0
 57 58  1  0
 58 59  1  0
 58 61  1  6
 59 60  2  0
 59 66  1  0
 61 62  1  0
 62 63  1  0
 63 64  1  0
 63 65  2  0
 66 67  1  0
 67 68  1  0
 67 70  1  1
 68 69  2  0
 68 77  1  0
 70 71  1  0
 71 72  2  0
 71 73  1  0
 72 74  1  0
 73 75  2  0
 74 76  2  0
 75 76  1  0
 31 78  1  0
 42 79  1  0
M  END
$$$$
