
     RDKit          3D

 79 80  0  0  0  0  0  0  0  0999 V2000
   -1.8547   -8.0357   23.1649 C   0  0  0  0  0  0  0  0  0  0  0  0
   -0.9116   -7.7451   22.4395 O   0  0  0  0  0  0  0  0  0  0  0  0
   -2.2094   -9.4637   23.4796 C   0  0  0  0  0  0  0  0  0  0  0  0
   -2.6864   -7.1041   23.7357 N   0  0  0  0  0  0  0  0  0  0  0  0
   -2.5981   -5.6736   23.4179 C   0  0  2  0  0  0  0  0  0  0  0  0
   -2.2240   -4.8522   24.6739 C   0  0  0  0  0  0  0  0  0  0  0  0
   -1.8323   -5.3661   25.7203 O   0  0  0  0  0  0  0  0  0  0  0  0
   -3.9212   -5.1686   22.8337 C   0  0  0  0  0  0  0  0  0  0  0  0
   -3.7793   -4.7293   21.3747 C   0  0  0  0  0  0  0  0  0  0  0  0
   -4.4757   -5.6564   20.4159 C   0  0  0  0  0  0  0  0  0  0  0  0
   -5.3923   -6.4135   20.6898 O   0  0  0  0  0  0  0  0  0  0  0  0
   -4.0626   -5.5294   19.1415 O   0  0  0  0  0  0  0  0  0  0  0  0
   -2.4027   -3.4960   24.5376 N   0  0  0  0  0  0  0  0  0  0  0  0
   -1.4854   -2.5060   25.0973 C   0  0  2  0  0  0  0  0  0  0  0  0
   -2.1866   -1.1477   24.8328 C   0  0  0  0  0  0  0  0  0  0  0  0
   -1.6003   -0.0868   25.0581 O   0  0  0  0  0  0  0  0  0  0  0  0
   -0.0795   -2.4984   24.4163 C   0  0  2  0  0  0  0  0  0  0  0  0
    1.0266   -1.8118   25.2508 C   0  0  0  0  0  0  0  0  0  0  0  0
   -0.1758   -1.8527   23.0260 C   0  0  0  0  0  0  0  0  0  0  0  0
    2.4306   -2.3292   24.9563 C   0  0  0  0  0  0  0  0  0  0  0  0
   -3.5050   -1.2220   24.4300 N   0  0  0  0  0  0  0  0  0  0  0  0
   -4.5422   -0.2994   24.9060 C   0  0  2  0  0  0  0  0  0  0  0  0
   -4.5535   -0.2672   26.4497 C   0  0  0  0  0  0  0  0  0  0  0  0
   -4.0075   -1.1250   27.1383 O   0  0  0  0  0  0  0  0  0  0  0  0
   -5.9708   -0.5652   24.4060 C   0  0  0  0  0  0  0  0  0  0  0  0
   -6.7689    0.6956   24.0690 C   0  0  0  0  0  0  0  0  0  0  0  0
   -8.1984    0.3387   23.6568 C   0  0  0  0  0  0  0  0  0  0  0  0
   -9.0952    0.4913   24.7886 N   0  0  0  0  0  0  0  0  0  0  0  0
  -10.4203    0.2454   24.7185 C   0  0  0  0  0  0  0  0  0  0  0  0
  -10.6669   -0.9749   24.2064 N   0  0  0  0  0  0  0  0  0  0  0  0
  -11.4030    0.9867   25.0731 N   0  0  0  0  0  0  0  0  0  0  0  0
   -5.2752    0.7794   26.9961 N   0  0  0  0  0  0  0  0  0  0  0  0
   -5.4030    0.9396   28.4401 C   0  0  2  0  0  0  0  0  0  0  0  0
   -6.5100    1.9652   28.7864 C   0  0  0  0  0  0  0  0  0  0  0  0
   -6.7077    2.9413   28.0647 O   0  0  0  0  0  0  0  0  0  0  0  0
   -4.0946    1.3945   29.1144 C   0  0  0  0  0  0  0  0  0  0  0  0
   -3.8924    2.9008   29.2970 C   0  0  0  0  0  0  0  0  0  0  0  0
   -2.6389    3.2885   30.0837 C   0  0  0  0  0  0  0  0  0  0  0  0
   -2.1671    4.6012   29.6588 N   0  0  0  0  0  0  0  0  0  0  0  0
   -1.0446    4.7754   28.9324 C   0  0  0  0  0  0  0  0  0  0  0  0
   -0.1164    5.4647   29.6276 N   0  0  0  0  0  0  0  0  0  0  0  0
   -0.8417    4.3637   27.7316 N   0  0  0  0  0  0  0  0  0  0  0  0
   -7.3743    1.6175   29.8221 N   0  0  0  0  0  0  0  0  0  0  0  0
   -8.3890    2.5754   30.2963 C   0  0  2  0  0  0  0  0  0  0  0  0
   -8.0823    4.1064   30.3412 C   0  0  0  0  0  0  0  0  0  0  0  0
   -6.9308    4.4484   30.6497 O   0  0  0  0  0  0  0  0  0  0  0  0
   -9.0514    2.0421   31.5997 C   0  0  1  0  0  0  0  0  0  0  0  0
  -10.1183    2.9754   32.1630 C   0  0  0  0  0  0  0  0  0  0  0  0
   -9.6367    0.6360   31.4303 C   0  0  0  0  0  0  0  0  0  0  0  0
   -8.9876    5.0886   30.0118 N   0  0  0  0  0  0  0  0  0  0  0  0
   -8.8535    6.5389   29.8916 C   0  0  2  0  0  0  0  0  0  0  0  0
   -9.1948    7.2957   31.2009 C   0  0  0  0  0  0  0  0  0  0  0  0
   -9.7928    8.3659   31.2380 O   0  0  0  0  0  0  0  0  0  0  0  0
   -9.9127    6.8883   28.8378 C   0  0  0  0  0  0  0  0  0  0  0  0
  -11.0542    5.9436   29.1913 C   0  0  0  0  0  0  0  0  0  0  0  0
  -10.3255    4.6708   29.5941 C   0  0  0  0  0  0  0  0  0  0  0  0
   -8.7170    6.6919   32.3476 N   0  0  0  0  0  0  0  0  0  0  0  0
   -7.6034    7.2636   33.1072 C   0  0  2  0  0  0  0  0  0  0  0  0
   -8.0678    8.5042   33.9074 C   0  0  0  0  0  0  0  0  0  0  0  0
   -7.6729    8.7549   35.0357 O   0  0  0  0  0  0  0  0  0  0  0  0
   -6.3659    7.5657   32.2501 C   0  0  0  0  0  0  0  0  0  0  0  0
   -5.2145    8.2146   33.0166 C   0  0  0  0  0  0  0  0  0  0  0  0
   -4.0179    8.3752   32.1231 C   0  0  0  0  0  0  0  0  0  0  0  0
   -4.2586    7.9541   30.8676 O   0  0  0  0  0  0  0  0  0  0  0  0
   -2.9473    8.8783   32.4398 O   0  0  0  0  0  0  0  0  0  0  0  0
   -9.0428    9.2378   33.2717 N   0  0  0  0  0  0  0  0  0  0  0  0
   -9.6166   10.4608   33.8534 C   0  0  2  0  0  0  0  0  0  0  0  0
  -11.0366   10.5553   33.3026 C   0  0  0  0  0  0  0  0  0  0  0  0
  -11.3563   11.1570   32.2855 O   0  0  0  0  0  0  0  0  0  0  0  0
   -8.8768   11.7457   33.4467 C   0  0  0  0  0  0  0  0  0  0  0  0
   -8.3259   12.5930   34.5702 C   0  0  0  0  0  0  0  0  0  0  0  0
   -6.9514   12.6531   34.8319 C   0  0  0  0  0  0  0  0  0  0  0  0
   -9.2015   13.2848   35.4193 C   0  0  0  0  0  0  0  0  0  0  0  0
   -6.4591   13.4214   35.8895 C   0  0  0  0  0  0  0  0  0  0  0  0
   -8.7086   14.0418   36.4852 C   0  0  0  0  0  0  0  0  0  0  0  0
   -7.3375   14.1200   36.7134 C   0  0  0  0  0  0  0  0  0  0  0  0
  -11.9582    9.9313   34.0577 O   0  0  0  0  0  0  0  0  0  0  0  0
  -11.0694    1.9243   25.2966 H   0  0  0  0  0  0  0  0  0  0  0  0
   -1.6278    3.7657   27.4752 H   0  0  0  0  0  0  0  0  0  0  0  0
  1  2  2  0
  1  3  1  0
  1  4  1  0
  4  5  1  0
  5  6  1  0
  5  8  1  1
  6  7  2  0
  6 13  1  0
  8  9  1  0
  9 10  1  0
 10 11  2  0
 10 12  1  0
 14 13  1  6
 14 15  1  0
 14 17  1  0
 15 16  2  0
 15 21  1  0
 17 18  1  0
 17 19  1  6
 18 20  1  0
 21 22  1  0
 22 23  1  0
 22 25  1  1
 23 24  2  0
 23 32  1  0
 25 26  1  0
 26 27  1  0
 27 28  1  0
 28 29  1  0
 29 30  1  0
 29 31  2  0
 32 33  1  0
 33 34  1  0
 33 36  1  6
 34 35  2  0
 34 43  1  0
 36 37  1  0
 37 38  1  0
 38 39  1  0
 39 40  1  0
 40 41  1  0
 40 42  2  0
 44 43  1  1
 44 45  1  0
 44 47  1  0
 45 46  2  0
 45 50  1  0
 47 48  1  6
 47 49  1  0
 50 51  1  0
 50 56  1  0
 51 52  1  1
 51 54  1  0
 52 53  2  0
 52 57  1  0
 54 55  1  0
 55 56  1  0
 57 58  1  0
 58 59  1  0
 58 61  1  6
 59 60  2  0
 59 66  1  0
 61 62  1  0
 62 63  1  0
 63 64  1  0
 63 65  2  0
 66 67  1  0
 67 68  1  0
 67 70  1  6
 68 69  2  0
 68 77  1  0
 70 71  1  0
 71 72  2  0
 71 73  1  0
 72 74  1  0
 73 75  2  0
 74 76  2  0
 75 76  1  0
 31 78  1  0
 42 79  1  0
M  END
$$$$
