
     RDKit          3D

 79 80  0  0  0  0  0  0  0  0999 V2000
    3.4359   -1.2395   31.1212 C   0  0  0  0  0  0  0  0  0  0  0  0
    3.4462   -0.6338   32.1857 O   0  0  0  0  0  0  0  0  0  0  0  0
    4.6892   -1.8113   30.5159 C   0  0  0  0  0  0  0  0  0  0  0  0
    2.3022   -1.4339   30.3713 N   0  0  0  0  0  0  0  0  0  0  0  0
    1.4024   -0.3322   30.0088 C   0  0  2  0  0  0  0  0  0  0  0  0
    0.4144   -0.0264   31.1588 C   0  0  0  0  0  0  0  0  0  0  0  0
   -0.3235    0.9575   31.1665 O   0  0  0  0  0  0  0  0  0  0  0  0
    0.6316   -0.6653   28.7274 C   0  0  0  0  0  0  0  0  0  0  0  0
   -0.7371    0.0175   28.6814 C   0  0  0  0  0  0  0  0  0  0  0  0
   -1.6482   -0.5714   27.6389 C   0  0  0  0  0  0  0  0  0  0  0  0
   -2.7661   -1.0188   27.8349 O   0  0  0  0  0  0  0  0  0  0  0  0
   -1.1637   -0.4895   26.3861 O   0  0  0  0  0  0  0  0  0  0  0  0
    0.4558   -0.9278   32.1958 N   0  0  0  0  0  0  0  0  0  0  0  0
   -0.2190   -0.7117   33.4737 C   0  0  2  0  0  0  0  0  0  0  0  0
   -1.5114    0.0580   33.0942 C   0  0  0  0  0  0  0  0  0  0  0  0
   -2.5184   -0.5523   32.7290 O   0  0  0  0  0  0  0  0  0  0  0  0
    0.6100    0.1446   34.4834 C   0  0  2  0  0  0  0  0  0  0  0  0
    2.0861   -0.2939   34.6257 C   0  0  0  0  0  0  0  0  0  0  0  0
   -0.0794    0.1470   35.8559 C   0  0  0  0  0  0  0  0  0  0  0  0
    2.3279   -1.7610   34.2874 C   0  0  0  0  0  0  0  0  0  0  0  0
   -1.4147    1.4351   33.1072 N   0  0  0  0  0  0  0  0  0  0  0  0
   -2.5141    2.3201   32.7054 C   0  0  2  0  0  0  0  0  0  0  0  0
   -3.6705    1.4893   32.1080 C   0  0  0  0  0  0  0  0  0  0  0  0
   -3.4873    0.5393   31.3516 O   0  0  0  0  0  0  0  0  0  0  0  0
   -2.1564    3.4475   31.7244 C   0  0  0  0  0  0  0  0  0  0  0  0
   -0.9507    4.2916   32.1417 C   0  0  0  0  0  0  0  0  0  0  0  0
   -0.6124    5.3239   31.0643 C   0  0  0  0  0  0  0  0  0  0  0  0
   -0.3838    4.6598   29.7934 N   0  0  0  0  0  0  0  0  0  0  0  0
   -1.2169    4.7786   28.7384 C   0  0  0  0  0  0  0  0  0  0  0  0
   -0.7774    5.7063   27.8676 N   0  0  0  0  0  0  0  0  0  0  0  0
   -2.2984    4.1414   28.4827 N   0  0  0  0  0  0  0  0  0  0  0  0
   -4.9344    1.9356   32.4519 N   0  0  0  0  0  0  0  0  0  0  0  0
   -6.1319    1.3527   31.8573 C   0  0  2  0  0  0  0  0  0  0  0  0
   -6.1791    1.6218   30.3333 C   0  0  0  0  0  0  0  0  0  0  0  0
   -5.5133    2.5287   29.8364 O   0  0  0  0  0  0  0  0  0  0  0  0
   -7.4356    1.8843   32.4827 C   0  0  0  0  0  0  0  0  0  0  0  0
   -7.5648    1.7945   34.0054 C   0  0  0  0  0  0  0  0  0  0  0  0
   -8.7058    0.9038   34.5003 C   0  0  0  0  0  0  0  0  0  0  0  0
   -8.5351   -0.4543   33.9977 N   0  0  0  0  0  0  0  0  0  0  0  0
   -9.4224   -1.4406   34.2384 C   0  0  0  0  0  0  0  0  0  0  0  0
  -10.4707   -0.9881   34.9570 N   0  0  0  0  0  0  0  0  0  0  0  0
   -9.3229   -2.6650   33.8600 N   0  0  0  0  0  0  0  0  0  0  0  0
   -6.8443    0.6752   29.5576 N   0  0  0  0  0  0  0  0  0  0  0  0
   -7.1995    0.9770   28.1595 C   0  0  2  0  0  0  0  0  0  0  0  0
   -8.6086    1.5466   27.7989 C   0  0  0  0  0  0  0  0  0  0  0  0
   -9.3876    1.7764   28.7362 O   0  0  0  0  0  0  0  0  0  0  0  0
   -6.7545   -0.1939   27.2361 C   0  0  1  0  0  0  0  0  0  0  0  0
   -7.0931    0.0311   25.7660 C   0  0  0  0  0  0  0  0  0  0  0  0
   -5.2636   -0.5203   27.3755 C   0  0  0  0  0  0  0  0  0  0  0  0
   -9.0165    1.8558   26.5219 N   0  0  0  0  0  0  0  0  0  0  0  0
   -8.9800    1.0951   25.2745 C   0  0  2  0  0  0  0  0  0  0  0  0
   -7.6981    1.3488   24.4403 C   0  0  0  0  0  0  0  0  0  0  0  0
   -6.6345    1.7307   24.9171 O   0  0  0  0  0  0  0  0  0  0  0  0
  -10.1814    1.6567   24.5029 C   0  0  0  0  0  0  0  0  0  0  0  0
  -10.1375    3.1379   24.8560 C   0  0  0  0  0  0  0  0  0  0  0  0
   -9.7173    3.1232   26.3178 C   0  0  0  0  0  0  0  0  0  0  0  0
   -7.8584    1.1633   23.0810 N   0  0  0  0  0  0  0  0  0  0  0  0
   -6.7708    1.4311   22.1380 C   0  0  2  0  0  0  0  0  0  0  0  0
   -7.2220    1.1396   20.6866 C   0  0  0  0  0  0  0  0  0  0  0  0
   -7.2223    0.0185   20.2019 O   0  0  0  0  0  0  0  0  0  0  0  0
   -5.4626    0.7071   22.4870 C   0  0  0  0  0  0  0  0  0  0  0  0
   -4.8628   -0.0963   21.3342 C   0  0  0  0  0  0  0  0  0  0  0  0
   -3.7818   -1.0079   21.8405 C   0  0  0  0  0  0  0  0  0  0  0  0
   -4.0786   -1.5315   23.0443 O   0  0  0  0  0  0  0  0  0  0  0  0
   -2.7603   -1.3145   21.2386 O   0  0  0  0  0  0  0  0  0  0  0  0
   -7.5213    2.2714   19.9638 N   0  0  0  0  0  0  0  0  0  0  0  0
   -7.6985    2.2525   18.5038 C   0  0  2  0  0  0  0  0  0  0  0  0
   -7.3903    3.6701   18.0303 C   0  0  0  0  0  0  0  0  0  0  0  0
   -7.2315    4.6364   18.7649 O   0  0  0  0  0  0  0  0  0  0  0  0
   -9.1312    1.9177   18.0584 C   0  0  0  0  0  0  0  0  0  0  0  0
   -9.6628    0.5600   18.4554 C   0  0  0  0  0  0  0  0  0  0  0  0
  -10.6273    0.4199   19.4611 C   0  0  0  0  0  0  0  0  0  0  0  0
   -9.1397   -0.5976   17.8615 C   0  0  0  0  0  0  0  0  0  0  0  0
  -11.0911   -0.8437   19.8343 C   0  0  0  0  0  0  0  0  0  0  0  0
   -9.5945   -1.8616   18.2456 C   0  0  0  0  0  0  0  0  0  0  0  0
  -10.5783   -1.9846   19.2229 C   0  0  0  0  0  0  0  0  0  0  0  0
   -7.3315    3.7989   16.6928 O   0  0  0  0  0  0  0  0  0  0  0  0
   -2.1853    3.1550   28.7163 H   0  0  0  0  0  0  0  0  0  0  0  0
  -10.1973   -3.1327   34.1008 H   0  0  0  0  0  0  0  0  0  0  0  0
  1  2  2  0
  1  3  1  0
  1  4  1  0
  4  5  1  0
  5  6  1  0
  5  8  1  6
  6  7  2  0
  6 13  1  0
  8  9  1  0
  9 10  1  0
 10 11  2  0
 10 12  1  0
 14 13  1  6
 14 15  1  0
 14 17  1  0
 15 16  2  0
 15 21  1  0
 17 18  1  0
 17 19  1  1
 18 20  1  0
 21 22  1  0
 22 23  1  0
 22 25  1  6
 23 24  2  0
 23 32  1  0
 25 26  1  0
 26 27  1  0
 27 28  1  0
 28 29  1  0
 29 30  1  0
 29 31  2  0
 32 33  1  0
 33 34  1  0
 33 36  1  1
 34 35  2  0
 34 43  1  0
 36 37  1  0
 37 38  1  0
 38 39  1  0
 39 40  1  0
 40 41  1  0
 40 42  2  0
 44 43  1  1
 44 45  1  0
 44 47  1  0
 45 46  2  0
 45 50  1  0
 47 48  1  6
 47 49  1  0
 50 51  1  0
 50 56  1  0
 51 52  1  6
 51 54  1  0
 52 53  2  0
 52 57  1  0
 54 55  1  0
 55 56  1  0
 57 58  1  0
 58 59  1  0
 58 61  1  1
 59 60  2  0
 59 66  1  0
 61 62  1  0
 62 63  1  0
 63 64  1  0
 63 65  2  0
 66 67  1  0
 67 68  1  0
 67 70  1  1
 68 69  2  0
 68 77  1  0
 70 71  1  0
 71 72  2  0
 71 73  1  0
 72 74  1  0
 73 75  2  0
 74 76  2  0
 75 76  1  0
 31 78  1  0
 42 79  1  0
M  END
$$$$
