
     RDKit          3D

 71 72  0  0  0  0  0  0  0  0999 V2000
  -55.4915  -28.1356  210.3771 C   0  0  1  0  0  0  0  0  0  0  0  0
  -54.4365  -28.5160  212.6849 C   0  0  1  0  0  0  0  0  0  0  0  0
  -55.7602  -29.2982  212.8347 C   0  0  2  0  0  0  0  0  0  0  0  0
  -55.8873  -30.1934  211.5836 C   0  0  1  0  0  0  0  0  0  0  0  0
  -56.9998  -31.2504  211.6534 C   0  0  0  0  0  0  0  0  0  0  0  0
  -54.2232  -27.9944  211.2540 C   0  0  1  0  0  0  0  0  0  0  0  0
  -56.8516  -28.3705  212.9479 O   0  0  0  0  0  0  0  0  0  0  0  0
  -55.1154  -27.7688  209.0390 O   0  0  0  0  0  0  0  0  0  0  0  0
  -54.3514  -27.4375  213.6311 O   0  0  0  0  0  0  0  0  0  0  0  0
  -45.7967  -33.2357  194.6661 C   0  0  0  0  0  0  0  0  0  0  0  0
  -44.6881  -33.1475  195.7040 C   0  0  0  0  0  0  0  0  0  0  0  0
  -44.7120  -31.8519  196.5178 C   0  0  0  0  0  0  0  0  0  0  0  0
  -43.6416  -31.8019  197.6132 C   0  0  0  0  0  0  0  0  0  0  0  0
  -43.7137  -30.5351  198.4748 C   0  0  0  0  0  0  0  0  0  0  0  0
  -44.7162  -30.5691  199.6372 C   0  0  0  0  0  0  0  0  0  0  0  0
  -44.8126  -29.2428  200.3936 C   0  0  0  0  0  0  0  0  0  0  0  0
  -46.2338  -28.6683  200.4693 C   0  0  0  0  0  0  0  0  0  0  0  0
  -46.7869  -28.4391  201.8796 C   0  0  0  0  0  0  0  0  0  0  0  0
  -48.2232  -28.8880  202.1601 C   0  0  0  0  0  0  0  0  0  0  0  0
  -48.6215  -28.9707  203.6373 C   0  0  0  0  0  0  0  0  0  0  0  0
  -49.7756  -29.9365  203.9137 C   0  0  0  0  0  0  0  0  0  0  0  0
  -50.2399  -29.8398  205.3756 C   0  0  0  0  0  0  0  0  0  0  0  0
  -51.1963  -30.9855  205.7297 C   0  0  0  0  0  0  0  0  0  0  0  0
  -52.7079  -30.6884  205.7378 C   0  0  1  0  0  0  0  0  0  0  0  0
  -53.3855  -31.6921  204.9429 O   0  0  0  0  0  0  0  0  0  0  0  0
  -53.4645  -30.6327  207.0926 C   0  0  1  0  0  0  0  0  0  0  0  0
  -52.9179  -31.6059  208.0113 O   0  0  0  0  0  0  0  0  0  0  0  0
  -53.6805  -29.2808  207.8298 C   0  0  2  0  0  0  0  0  0  0  0  0
  -55.1309  -28.8796  208.1371 C   0  0  0  0  0  0  0  0  0  0  0  0
  -53.1316  -28.7633  210.6897 O   0  0  0  0  0  0  0  0  0  0  0  0
  -56.0398  -29.4540  210.3614 O   0  0  0  0  0  0  0  0  0  0  0  0
  -57.8555  -31.2461  210.5099 O   0  0  0  0  0  0  0  0  0  0  0  0
  -57.7983  -28.7065  213.9651 C   0  0  0  0  0  0  0  0  0  0  0  0
  -57.3698  -28.2026  215.3229 C   0  0  0  0  0  0  0  0  0  0  0  0
  -57.0846  -26.8435  215.5168 C   0  0  0  0  0  0  0  0  0  0  0  0
  -56.6750  -26.3804  216.7690 C   0  0  0  0  0  0  0  0  0  0  0  0
  -56.5159  -27.2685  217.8449 C   0  0  0  0  0  0  0  0  0  0  0  0
  -56.0594  -26.7647  219.1904 C   0  0  2  0  0  0  0  0  0  0  0  0
  -54.8138  -26.2166  219.1641 F   0  0  0  0  0  0  0  0  0  0  0  0
  -56.0094  -27.7487  220.1288 F   0  0  0  0  0  0  0  0  0  0  0  0
  -56.8750  -25.8038  219.7020 F   0  0  0  0  0  0  0  0  0  0  0  0
  -56.7961  -28.6301  217.6499 C   0  0  0  0  0  0  0  0  0  0  0  0
  -57.2256  -29.0868  216.4028 C   0  0  0  0  0  0  0  0  0  0  0  0
  -52.9894  -28.2295  207.0674 N   0  0  0  0  0  0  0  0  0  0  0  0
  -52.9661  -28.1710  205.6964 C   0  0  0  0  0  0  0  0  0  0  0  0
  -52.2325  -28.8734  205.0085 O   0  0  0  0  0  0  0  0  0  0  0  0
  -53.9708  -27.1882  205.1273 C   0  0  0  0  0  0  0  0  0  0  0  0
  -53.2946  -26.0851  204.3090 C   0  0  0  0  0  0  0  0  0  0  0  0
  -54.3289  -25.1239  203.7198 C   0  0  0  0  0  0  0  0  0  0  0  0
  -53.7262  -24.0801  202.7758 C   0  0  0  0  0  0  0  0  0  0  0  0
  -52.3476  -23.5334  203.1662 C   0  0  0  0  0  0  0  0  0  0  0  0
  -51.7375  -22.6187  202.1040 C   0  0  0  0  0  0  0  0  0  0  0  0
  -50.4314  -21.9712  202.5805 C   0  0  0  0  0  0  0  0  0  0  0  0
  -49.6037  -21.4945  201.3854 C   0  0  0  0  0  0  0  0  0  0  0  0
  -48.1305  -21.9144  201.4338 C   0  0  0  0  0  0  0  0  0  0  0  0
  -47.4529  -21.7631  202.8033 C   0  0  0  0  0  0  0  0  0  0  0  0
  -46.4498  -22.8408  203.2187 C   0  0  0  0  0  0  0  0  0  0  0  0
  -46.4155  -23.1772  204.7146 C   0  0  0  0  0  0  0  0  0  0  0  0
  -45.4097  -24.2617  205.0846 C   0  0  0  0  0  0  0  0  0  0  0  0
  -45.4667  -24.6293  206.5670 C   0  0  0  0  0  0  0  0  0  0  0  0
  -44.4397  -23.9025  207.4425 C   0  0  0  0  0  0  0  0  0  0  0  0
  -44.8611  -23.5950  208.8844 C   0  0  0  0  0  0  0  0  0  0  0  0
  -44.8550  -24.8093  209.8197 C   0  0  0  0  0  0  0  0  0  0  0  0
  -44.3847  -24.4341  211.2283 C   0  0  0  0  0  0  0  0  0  0  0  0
  -44.6351  -25.5352  212.2582 C   0  0  0  0  0  0  0  0  0  0  0  0
  -43.5290  -26.5906  212.3254 C   0  0  0  0  0  0  0  0  0  0  0  0
  -44.1054  -27.9667  212.6721 C   0  0  0  0  0  0  0  0  0  0  0  0
  -43.0364  -29.0564  212.6044 C   0  0  0  0  0  0  0  0  0  0  0  0
  -42.4762  -29.4668  213.9714 C   0  0  0  0  0  0  0  0  0  0  0  0
  -41.6006  -30.7242  213.9437 C   0  0  0  0  0  0  0  0  0  0  0  0
  -40.8109  -30.9262  215.2283 C   0  0  0  0  0  0  0  0  0  0  0  0
  1  6  1  0
  1  8  1  6
  1 31  1  0
  2  3  1  0
  6  2  1  0
  2  9  1  1
  4  3  1  0
  3  7  1  6
  4  5  1  1
 31  4  1  0
  5 32  1  0
  6 30  1  6
  7 33  1  0
 29  8  1  0
 11 10  1  0
 12 11  1  0
 13 12  1  0
 14 13  1  0
 15 14  1  0
 16 15  1  0
 17 16  1  0
 18 17  1  0
 19 18  1  0
 20 19  1  0
 21 20  1  0
 22 21  1  0
 23 22  1  0
 24 23  1  0
 24 25  1  6
 26 24  1  0
 26 27  1  1
 28 26  1  0
 28 29  1  6
 28 44  1  0
 33 34  1  0
 34 35  2  0
 34 43  1  0
 35 36  1  0
 36 37  2  0
 37 38  1  0
 37 42  1  0
 38 39  1  6
 38 40  1  0
 38 41  1  0
 42 43  2  0
 44 45  1  0
 45 46  2  0
 45 47  1  0
 47 48  1  0
 48 49  1  0
 49 50  1  0
 50 51  1  0
 51 52  1  0
 52 53  1  0
 53 54  1  0
 54 55  1  0
 55 56  1  0
 56 57  1  0
 57 58  1  0
 58 59  1  0
 59 60  1  0
 60 61  1  0
 61 62  1  0
 62 63  1  0
 63 64  1  0
 64 65  1  0
 65 66  1  0
 66 67  1  0
 67 68  1  0
 68 69  1  0
 69 70  1  0
 70 71  1  0
M  END
$$$$
