
     RDKit          3D

 71 72  0  0  0  0  0  0  0  0999 V2000
  -58.5607  -27.6864  210.1127 C   0  0  1  0  0  0  0  0  0  0  0  0
  -57.2315  -25.6564  210.9470 C   0  0  1  0  0  0  0  0  0  0  0  0
  -58.1494  -25.9250  212.1602 C   0  0  2  0  0  0  0  0  0  0  0  0
  -58.0494  -27.4354  212.4627 C   0  0  1  0  0  0  0  0  0  0  0  0
  -58.6775  -27.8724  213.7948 C   0  0  0  0  0  0  0  0  0  0  0  0
  -57.3607  -26.7401  209.8636 C   0  0  1  0  0  0  0  0  0  0  0  0
  -59.4920  -25.5263  211.8393 O   0  0  0  0  0  0  0  0  0  0  0  0
  -58.4734  -28.7359  209.1343 O   0  0  0  0  0  0  0  0  0  0  0  0
  -57.4665  -24.3542  210.3861 O   0  0  0  0  0  0  0  0  0  0  0  0
  -43.6709  -30.3275  198.9651 C   0  0  0  0  0  0  0  0  0  0  0  0
  -45.0786  -30.1243  199.5048 C   0  0  0  0  0  0  0  0  0  0  0  0
  -45.1374  -29.9865  201.0275 C   0  0  0  0  0  0  0  0  0  0  0  0
  -46.5493  -29.7206  201.5603 C   0  0  0  0  0  0  0  0  0  0  0  0
  -46.5807  -29.3892  203.0574 C   0  0  0  0  0  0  0  0  0  0  0  0
  -47.9246  -28.8900  203.6072 C   0  0  0  0  0  0  0  0  0  0  0  0
  -48.8214  -28.2627  202.5382 C   0  0  0  0  0  0  0  0  0  0  0  0
  -50.0482  -29.1106  202.1754 C   0  0  0  0  0  0  0  0  0  0  0  0
  -51.3191  -28.8254  202.9821 C   0  0  0  0  0  0  0  0  0  0  0  0
  -52.5001  -29.7835  202.8078 C   0  0  0  0  0  0  0  0  0  0  0  0
  -53.7464  -29.4671  203.6409 C   0  0  0  0  0  0  0  0  0  0  0  0
  -54.8626  -30.5045  203.5030 C   0  0  0  0  0  0  0  0  0  0  0  0
  -55.7546  -30.5272  204.7543 C   0  0  0  0  0  0  0  0  0  0  0  0
  -55.7089  -31.8974  205.4422 C   0  0  0  0  0  0  0  0  0  0  0  0
  -56.5480  -32.0930  206.7192 C   0  0  1  0  0  0  0  0  0  0  0  0
  -55.7288  -32.7432  207.7215 O   0  0  0  0  0  0  0  0  0  0  0  0
  -57.1731  -30.8538  207.4153 C   0  0  1  0  0  0  0  0  0  0  0  0
  -58.5798  -30.7573  207.0963 O   0  0  0  0  0  0  0  0  0  0  0  0
  -56.9629  -30.6030  208.9355 C   0  0  2  0  0  0  0  0  0  0  0  0
  -58.1446  -30.0031  209.7119 C   0  0  0  0  0  0  0  0  0  0  0  0
  -56.1186  -27.4874  209.8729 O   0  0  0  0  0  0  0  0  0  0  0  0
  -58.5783  -28.2668  211.4173 O   0  0  0  0  0  0  0  0  0  0  0  0
  -59.7765  -27.0536  214.1965 O   0  0  0  0  0  0  0  0  0  0  0  0
  -59.9307  -24.3520  212.5266 C   0  0  0  0  0  0  0  0  0  0  0  0
  -58.8001  -23.3769  212.7553 C   0  0  0  0  0  0  0  0  0  0  0  0
  -57.8729  -23.5955  213.7842 C   0  0  0  0  0  0  0  0  0  0  0  0
  -56.8360  -22.6864  214.0041 C   0  0  0  0  0  0  0  0  0  0  0  0
  -56.7199  -21.5278  213.2193 C   0  0  0  0  0  0  0  0  0  0  0  0
  -55.6068  -20.5428  213.4711 C   0  0  2  0  0  0  0  0  0  0  0  0
  -56.0220  -19.2467  213.4504 F   0  0  0  0  0  0  0  0  0  0  0  0
  -54.6137  -20.6266  212.5448 F   0  0  0  0  0  0  0  0  0  0  0  0
  -55.0054  -20.7187  214.6784 F   0  0  0  0  0  0  0  0  0  0  0  0
  -57.6511  -21.3057  212.1927 C   0  0  0  0  0  0  0  0  0  0  0  0
  -58.6740  -22.2268  211.9615 C   0  0  0  0  0  0  0  0  0  0  0  0
  -55.7505  -29.7862  209.1001 N   0  0  0  0  0  0  0  0  0  0  0  0
  -54.5201  -30.1379  208.6040 C   0  0  0  0  0  0  0  0  0  0  0  0
  -54.3746  -30.8022  207.5831 O   0  0  0  0  0  0  0  0  0  0  0  0
  -53.3700  -29.5802  209.4196 C   0  0  0  0  0  0  0  0  0  0  0  0
  -52.0281  -30.1972  209.0166 C   0  0  0  0  0  0  0  0  0  0  0  0
  -52.1339  -30.9134  207.6687 C   0  0  0  0  0  0  0  0  0  0  0  0
  -50.8059  -31.4984  207.1807 C   0  0  0  0  0  0  0  0  0  0  0  0
  -50.0121  -30.6366  206.1915 C   0  0  0  0  0  0  0  0  0  0  0  0
  -49.8301  -31.2977  204.8251 C   0  0  0  0  0  0  0  0  0  0  0  0
  -48.3924  -31.7846  204.6059 C   0  0  0  0  0  0  0  0  0  0  0  0
  -48.3612  -32.9118  203.5720 C   0  0  0  0  0  0  0  0  0  0  0  0
  -47.8274  -32.4901  202.1985 C   0  0  0  0  0  0  0  0  0  0  0  0
  -46.8576  -33.4829  201.5418 C   0  0  0  0  0  0  0  0  0  0  0  0
  -46.2305  -33.0800  200.2058 C   0  0  0  0  0  0  0  0  0  0  0  0
  -44.7074  -33.2326  200.1124 C   0  0  0  0  0  0  0  0  0  0  0  0
  -44.1214  -32.8067  198.7708 C   0  0  0  0  0  0  0  0  0  0  0  0
  -42.5946  -32.7417  198.7950 C   0  0  0  0  0  0  0  0  0  0  0  0
  -41.8970  -34.0889  198.5769 C   0  0  0  0  0  0  0  0  0  0  0  0
  -40.9381  -34.1809  197.3839 C   0  0  0  0  0  0  0  0  0  0  0  0
  -41.6285  -34.3660  196.0280 C   0  0  0  0  0  0  0  0  0  0  0  0
  -40.7630  -35.1791  195.0606 C   0  0  0  0  0  0  0  0  0  0  0  0
  -41.3624  -35.2800  193.6582 C   0  0  0  0  0  0  0  0  0  0  0  0
  -41.9024  -33.9559  193.1133 C   0  0  0  0  0  0  0  0  0  0  0  0
  -42.2522  -34.0775  191.6270 C   0  0  0  0  0  0  0  0  0  0  0  0
  -42.8641  -32.7856  191.0869 C   0  0  0  0  0  0  0  0  0  0  0  0
  -43.2718  -32.8578  189.6107 C   0  0  0  0  0  0  0  0  0  0  0  0
  -43.9397  -31.5860  189.0768 C   0  0  0  0  0  0  0  0  0  0  0  0
  -44.2955  -31.6770  187.6003 C   0  0  0  0  0  0  0  0  0  0  0  0
  1  6  1  0
  1  8  1  6
  1 31  1  0
  2  3  1  0
  6  2  1  0
  2  9  1  6
  4  3  1  0
  3  7  1  6
  4  5  1  1
 31  4  1  0
  5 32  1  0
  6 30  1  1
  7 33  1  0
 29  8  1  0
 11 10  1  0
 12 11  1  0
 13 12  1  0
 14 13  1  0
 15 14  1  0
 16 15  1  0
 17 16  1  0
 18 17  1  0
 19 18  1  0
 20 19  1  0
 21 20  1  0
 22 21  1  0
 23 22  1  0
 24 23  1  0
 24 25  1  1
 26 24  1  0
 26 27  1  1
 28 26  1  0
 28 29  1  6
 28 44  1  0
 33 34  1  0
 34 35  2  0
 34 43  1  0
 35 36  1  0
 36 37  2  0
 37 38  1  0
 37 42  1  0
 38 39  1  1
 38 40  1  0
 38 41  1  0
 42 43  2  0
 44 45  1  0
 45 46  2  0
 45 47  1  0
 47 48  1  0
 48 49  1  0
 49 50  1  0
 50 51  1  0
 51 52  1  0
 52 53  1  0
 53 54  1  0
 54 55  1  0
 55 56  1  0
 56 57  1  0
 57 58  1  0
 58 59  1  0
 59 60  1  0
 60 61  1  0
 61 62  1  0
 62 63  1  0
 63 64  1  0
 64 65  1  0
 65 66  1  0
 66 67  1  0
 67 68  1  0
 68 69  1  0
 69 70  1  0
 70 71  1  0
M  END
$$$$
