
     RDKit          3D

 71 72  0  0  0  0  0  0  0  0999 V2000
  -50.5906  -23.8533  211.9294 C   0  0  1  0  0  0  0  0  0  0  0  0
  -50.5168  -21.5113  212.9751 C   0  0  1  0  0  0  0  0  0  0  0  0
  -49.0555  -21.6662  212.4984 C   0  0  2  0  0  0  0  0  0  0  0  0
  -49.1185  -22.1559  211.0360 C   0  0  1  0  0  0  0  0  0  0  0  0
  -47.7796  -22.1227  210.2834 C   0  0  0  0  0  0  0  0  0  0  0  0
  -51.4087  -22.6777  212.5177 C   0  0  1  0  0  0  0  0  0  0  0  0
  -48.3726  -22.5993  213.3513 O   0  0  0  0  0  0  0  0  0  0  0  0
  -51.5379  -24.7948  211.3979 O   0  0  0  0  0  0  0  0  0  0  0  0
  -50.5920  -21.3502  214.4013 O   0  0  0  0  0  0  0  0  0  0  0  0
  -62.2775  -36.4213  203.4664 C   0  0  0  0  0  0  0  0  0  0  0  0
  -62.8218  -35.0368  203.7838 C   0  0  0  0  0  0  0  0  0  0  0  0
  -61.9579  -33.8983  203.2373 C   0  0  0  0  0  0  0  0  0  0  0  0
  -60.7183  -33.6112  204.0912 C   0  0  0  0  0  0  0  0  0  0  0  0
  -59.5235  -33.1028  203.2751 C   0  0  0  0  0  0  0  0  0  0  0  0
  -59.0122  -31.7003  203.6343 C   0  0  0  0  0  0  0  0  0  0  0  0
  -57.9092  -31.1995  202.6999 C   0  0  0  0  0  0  0  0  0  0  0  0
  -57.3990  -29.7911  203.0338 C   0  0  0  0  0  0  0  0  0  0  0  0
  -55.8889  -29.5763  202.8890 C   0  0  0  0  0  0  0  0  0  0  0  0
  -55.1256  -29.0579  204.1104 C   0  0  0  0  0  0  0  0  0  0  0  0
  -53.6269  -28.8127  203.9076 C   0  0  0  0  0  0  0  0  0  0  0  0
  -52.9432  -28.1399  205.0996 C   0  0  0  0  0  0  0  0  0  0  0  0
  -53.3014  -28.8487  206.4154 C   0  0  0  0  0  0  0  0  0  0  0  0
  -52.4932  -28.2800  207.5885 C   0  0  0  0  0  0  0  0  0  0  0  0
  -52.9279  -26.9234  208.1750 C   0  0  1  0  0  0  0  0  0  0  0  0
  -54.3120  -26.6835  207.8213 O   0  0  0  0  0  0  0  0  0  0  0  0
  -52.8312  -26.6916  209.7073 C   0  0  1  0  0  0  0  0  0  0  0  0
  -53.9615  -27.2948  210.3769 O   0  0  0  0  0  0  0  0  0  0  0  0
  -51.5250  -27.0240  210.4828 C   0  0  2  0  0  0  0  0  0  0  0  0
  -51.1992  -26.1510  211.7038 C   0  0  0  0  0  0  0  0  0  0  0  0
  -52.3128  -22.1427  211.5190 O   0  0  0  0  0  0  0  0  0  0  0  0
  -49.6868  -23.4675  210.8933 O   0  0  0  0  0  0  0  0  0  0  0  0
  -47.2132  -23.4180  210.0811 O   0  0  0  0  0  0  0  0  0  0  0  0
  -47.5838  -21.9846  214.3731 C   0  0  0  0  0  0  0  0  0  0  0  0
  -46.1972  -21.6391  213.8838 C   0  0  0  0  0  0  0  0  0  0  0  0
  -45.2360  -22.6450  213.7095 C   0  0  0  0  0  0  0  0  0  0  0  0
  -43.9500  -22.3233  213.2705 C   0  0  0  0  0  0  0  0  0  0  0  0
  -43.5899  -20.9888  213.0229 C   0  0  0  0  0  0  0  0  0  0  0  0
  -42.1957  -20.6464  212.5632 C   0  0  2  0  0  0  0  0  0  0  0  0
  -41.9128  -19.3179  212.6498 F   0  0  0  0  0  0  0  0  0  0  0  0
  -41.9740  -20.9866  211.2646 F   0  0  0  0  0  0  0  0  0  0  0  0
  -41.2294  -21.2774  213.2832 F   0  0  0  0  0  0  0  0  0  0  0  0
  -44.5502  -19.9809  213.2025 C   0  0  0  0  0  0  0  0  0  0  0  0
  -45.8410  -20.3076  213.6211 C   0  0  0  0  0  0  0  0  0  0  0  0
  -50.4117  -27.0283  209.5213 N   0  0  0  0  0  0  0  0  0  0  0  0
  -50.1145  -25.9752  208.6928 C   0  0  0  0  0  0  0  0  0  0  0  0
  -50.9717  -25.3183  208.1110 O   0  0  0  0  0  0  0  0  0  0  0  0
  -48.6287  -25.6834  208.6136 C   0  0  0  0  0  0  0  0  0  0  0  0
  -48.2075  -25.2247  207.2151 C   0  0  0  0  0  0  0  0  0  0  0  0
  -48.8391  -26.1036  206.1337 C   0  0  0  0  0  0  0  0  0  0  0  0
  -48.2556  -25.8704  204.7376 C   0  0  0  0  0  0  0  0  0  0  0  0
  -48.9412  -26.6166  203.5866 C   0  0  0  0  0  0  0  0  0  0  0  0
  -48.3962  -26.2355  202.2101 C   0  0  0  0  0  0  0  0  0  0  0  0
  -49.0530  -27.0442  201.0846 C   0  0  0  0  0  0  0  0  0  0  0  0
  -47.9984  -27.8367  200.3097 C   0  0  0  0  0  0  0  0  0  0  0  0
  -47.8368  -29.2885  200.7739 C   0  0  0  0  0  0  0  0  0  0  0  0
  -47.7369  -30.3270  199.6475 C   0  0  0  0  0  0  0  0  0  0  0  0
  -47.1736  -29.8607  198.3038 C   0  0  0  0  0  0  0  0  0  0  0  0
  -47.0165  -30.9484  197.2342 C   0  0  0  0  0  0  0  0  0  0  0  0
  -45.7847  -30.7789  196.3519 C   0  0  0  0  0  0  0  0  0  0  0  0
  -45.1477  -32.1164  195.9756 C   0  0  0  0  0  0  0  0  0  0  0  0
  -43.9643  -32.0074  195.0077 C   0  0  0  0  0  0  0  0  0  0  0  0
  -42.6964  -32.7840  195.3826 C   0  0  0  0  0  0  0  0  0  0  0  0
  -42.9552  -34.1053  196.1151 C   0  0  0  0  0  0  0  0  0  0  0  0
  -41.7726  -34.4973  197.0061 C   0  0  0  0  0  0  0  0  0  0  0  0
  -42.1396  -35.5303  198.0711 C   0  0  0  0  0  0  0  0  0  0  0  0
  -42.3184  -34.9448  199.4736 C   0  0  0  0  0  0  0  0  0  0  0  0
  -40.9664  -34.7787  200.1740 C   0  0  0  0  0  0  0  0  0  0  0  0
  -40.9189  -35.5492  201.4927 C   0  0  0  0  0  0  0  0  0  0  0  0
  -39.5625  -35.4852  202.2044 C   0  0  0  0  0  0  0  0  0  0  0  0
  -38.5487  -36.5309  201.7274 C   0  0  0  0  0  0  0  0  0  0  0  0
  -37.1994  -36.4088  202.4196 C   0  0  0  0  0  0  0  0  0  0  0  0
  1  6  1  0
  1  8  1  6
  1 31  1  0
  2  3  1  0
  6  2  1  0
  2  9  1  1
  4  3  1  0
  3  7  1  1
  4  5  1  1
 31  4  1  0
  5 32  1  0
  6 30  1  6
  7 33  1  0
 29  8  1  0
 11 10  1  0
 12 11  1  0
 13 12  1  0
 14 13  1  0
 15 14  1  0
 16 15  1  0
 17 16  1  0
 18 17  1  0
 19 18  1  0
 20 19  1  0
 21 20  1  0
 22 21  1  0
 23 22  1  0
 24 23  1  0
 24 25  1  1
 26 24  1  0
 26 27  1  1
 28 26  1  0
 28 29  1  1
 28 44  1  0
 33 34  1  0
 34 35  2  0
 34 43  1  0
 35 36  1  0
 36 37  2  0
 37 38  1  0
 37 42  1  0
 38 39  1  6
 38 40  1  0
 38 41  1  0
 42 43  2  0
 44 45  1  0
 45 46  2  0
 45 47  1  0
 47 48  1  0
 48 49  1  0
 49 50  1  0
 50 51  1  0
 51 52  1  0
 52 53  1  0
 53 54  1  0
 54 55  1  0
 55 56  1  0
 56 57  1  0
 57 58  1  0
 58 59  1  0
 59 60  1  0
 60 61  1  0
 61 62  1  0
 62 63  1  0
 63 64  1  0
 64 65  1  0
 65 66  1  0
 66 67  1  0
 67 68  1  0
 68 69  1  0
 69 70  1  0
 70 71  1  0
M  END
$$$$
