
     RDKit          3D

 71 72  0  0  0  0  0  0  0  0999 V2000
  -54.5212  -31.5185  205.9340 C   0  0  1  0  0  0  0  0  0  0  0  0
  -55.1419  -33.0824  207.8711 C   0  0  1  0  0  0  0  0  0  0  0  0
  -54.4932  -34.0793  206.8854 C   0  0  2  0  0  0  0  0  0  0  0  0
  -53.1567  -33.4500  206.4378 C   0  0  1  0  0  0  0  0  0  0  0  0
  -52.2250  -34.3923  205.6604 C   0  0  0  0  0  0  0  0  0  0  0  0
  -55.0172  -31.6248  207.3969 C   0  0  1  0  0  0  0  0  0  0  0  0
  -55.3824  -34.3021  205.7789 O   0  0  0  0  0  0  0  0  0  0  0  0
  -54.2949  -30.1234  205.6714 O   0  0  0  0  0  0  0  0  0  0  0  0
  -56.5174  -33.4123  208.1259 O   0  0  0  0  0  0  0  0  0  0  0  0
  -39.0294  -37.0561  195.8565 C   0  0  0  0  0  0  0  0  0  0  0  0
  -40.4492  -36.6471  195.4948 C   0  0  0  0  0  0  0  0  0  0  0  0
  -40.8561  -35.2831  196.0563 C   0  0  0  0  0  0  0  0  0  0  0  0
  -42.2661  -34.8503  195.6410 C   0  0  0  0  0  0  0  0  0  0  0  0
  -42.6065  -33.4131  196.0546 C   0  0  0  0  0  0  0  0  0  0  0  0
  -42.5662  -33.1200  197.5612 C   0  0  0  0  0  0  0  0  0  0  0  0
  -43.6588  -32.1524  198.0199 C   0  0  0  0  0  0  0  0  0  0  0  0
  -43.3160  -31.3860  199.3046 C   0  0  0  0  0  0  0  0  0  0  0  0
  -44.3311  -31.5077  200.4457 C   0  0  0  0  0  0  0  0  0  0  0  0
  -45.7640  -31.0432  200.1732 C   0  0  0  0  0  0  0  0  0  0  0  0
  -46.8111  -31.4612  201.2105 C   0  0  0  0  0  0  0  0  0  0  0  0
  -48.2126  -30.9152  200.9297 C   0  0  0  0  0  0  0  0  0  0  0  0
  -49.2245  -31.4289  201.9661 C   0  0  0  0  0  0  0  0  0  0  0  0
  -50.0806  -30.2827  202.5194 C   0  0  0  0  0  0  0  0  0  0  0  0
  -50.2620  -30.1886  204.0463 C   0  0  1  0  0  0  0  0  0  0  0  0
  -49.8445  -28.8731  204.4862 O   0  0  0  0  0  0  0  0  0  0  0  0
  -51.6696  -30.4186  204.6603 C   0  0  1  0  0  0  0  0  0  0  0  0
  -52.1581  -31.7340  204.3126 O   0  0  0  0  0  0  0  0  0  0  0  0
  -51.9367  -30.1425  206.1671 C   0  0  2  0  0  0  0  0  0  0  0  0
  -53.3064  -29.5526  206.5344 C   0  0  0  0  0  0  0  0  0  0  0  0
  -54.0835  -30.9740  208.2946 O   0  0  0  0  0  0  0  0  0  0  0  0
  -53.3168  -32.2416  205.6777 O   0  0  0  0  0  0  0  0  0  0  0  0
  -51.4514  -35.2451  206.5052 O   0  0  0  0  0  0  0  0  0  0  0  0
  -55.8781  -35.6402  205.6906 C   0  0  0  0  0  0  0  0  0  0  0  0
  -56.1381  -36.0521  204.2610 C   0  0  0  0  0  0  0  0  0  0  0  0
  -56.4658  -37.3806  203.9546 C   0  0  0  0  0  0  0  0  0  0  0  0
  -56.6923  -37.7640  202.6311 C   0  0  0  0  0  0  0  0  0  0  0  0
  -56.5699  -36.8355  201.5848 C   0  0  0  0  0  0  0  0  0  0  0  0
  -56.8014  -37.2589  200.1567 C   0  0  2  0  0  0  0  0  0  0  0  0
  -57.2923  -38.5235  200.0444 F   0  0  0  0  0  0  0  0  0  0  0  0
  -55.6622  -37.2383  199.4129 F   0  0  0  0  0  0  0  0  0  0  0  0
  -57.6869  -36.4596  199.5030 F   0  0  0  0  0  0  0  0  0  0  0  0
  -56.2365  -35.5067  201.8905 C   0  0  0  0  0  0  0  0  0  0  0  0
  -56.0313  -35.1215  203.2163 C   0  0  0  0  0  0  0  0  0  0  0  0
  -50.8428  -29.3022  206.6782 N   0  0  0  0  0  0  0  0  0  0  0  0
  -50.8723  -27.9300  206.6824 C   0  0  0  0  0  0  0  0  0  0  0  0
  -51.8296  -27.2795  206.2758 O   0  0  0  0  0  0  0  0  0  0  0  0
  -49.6252  -27.3115  207.2834 C   0  0  0  0  0  0  0  0  0  0  0  0
  -49.5984  -25.7905  207.1109 C   0  0  0  0  0  0  0  0  0  0  0  0
  -49.6742  -25.0814  208.4645 C   0  0  0  0  0  0  0  0  0  0  0  0
  -48.3043  -24.8215  209.0967 C   0  0  0  0  0  0  0  0  0  0  0  0
  -48.3053  -24.0147  210.4009 C   0  0  0  0  0  0  0  0  0  0  0  0
  -46.9102  -23.8308  210.9985 C   0  0  0  0  0  0  0  0  0  0  0  0
  -46.7401  -22.4558  211.6561 C   0  0  0  0  0  0  0  0  0  0  0  0
  -45.5166  -21.7370  211.0842 C   0  0  0  0  0  0  0  0  0  0  0  0
  -44.6654  -21.0138  212.1336 C   0  0  0  0  0  0  0  0  0  0  0  0
  -45.2237  -19.6657  212.6114 C   0  0  0  0  0  0  0  0  0  0  0  0
  -44.3940  -18.4138  212.3207 C   0  0  0  0  0  0  0  0  0  0  0  0
  -44.5728  -17.2528  213.3067 C   0  0  0  0  0  0  0  0  0  0  0  0
  -43.7276  -16.0261  212.9819 C   0  0  0  0  0  0  0  0  0  0  0  0
  -44.0221  -14.8510  213.9139 C   0  0  0  0  0  0  0  0  0  0  0  0
  -43.1319  -13.6234  213.6905 C   0  0  0  0  0  0  0  0  0  0  0  0
  -43.8411  -12.3246  213.2889 C   0  0  0  0  0  0  0  0  0  0  0  0
  -44.6381  -11.6618  214.4179 C   0  0  0  0  0  0  0  0  0  0  0  0
  -45.9034  -10.9790  213.8897 C   0  0  0  0  0  0  0  0  0  0  0  0
  -46.9365  -10.7016  214.9814 C   0  0  0  0  0  0  0  0  0  0  0  0
  -48.3099  -10.2854  214.4501 C   0  0  0  0  0  0  0  0  0  0  0  0
  -49.0823  -11.4975  213.9204 C   0  0  0  0  0  0  0  0  0  0  0  0
  -49.6213  -12.3613  215.0599 C   0  0  0  0  0  0  0  0  0  0  0  0
  -50.4080  -13.5914  214.5922 C   0  0  0  0  0  0  0  0  0  0  0  0
  -50.4989  -14.7154  215.6299 C   0  0  0  0  0  0  0  0  0  0  0  0
  -51.1465  -15.9783  215.0821 C   0  0  0  0  0  0  0  0  0  0  0  0
  1  6  1  0
  1  8  1  1
  1 31  1  0
  2  3  1  0
  6  2  1  0
  2  9  1  6
  4  3  1  0
  3  7  1  6
  4  5  1  6
 31  4  1  0
  5 32  1  0
  6 30  1  1
  7 33  1  0
 29  8  1  0
 11 10  1  0
 12 11  1  0
 13 12  1  0
 14 13  1  0
 15 14  1  0
 16 15  1  0
 17 16  1  0
 18 17  1  0
 19 18  1  0
 20 19  1  0
 21 20  1  0
 22 21  1  0
 23 22  1  0
 24 23  1  0
 24 25  1  6
 26 24  1  0
 26 27  1  1
 28 26  1  0
 28 29  1  6
 28 44  1  0
 33 34  1  0
 34 35  2  0
 34 43  1  0
 35 36  1  0
 36 37  2  0
 37 38  1  0
 37 42  1  0
 38 39  1  1
 38 40  1  0
 38 41  1  0
 42 43  2  0
 44 45  1  0
 45 46  2  0
 45 47  1  0
 47 48  1  0
 48 49  1  0
 49 50  1  0
 50 51  1  0
 51 52  1  0
 52 53  1  0
 53 54  1  0
 54 55  1  0
 55 56  1  0
 56 57  1  0
 57 58  1  0
 58 59  1  0
 59 60  1  0
 60 61  1  0
 61 62  1  0
 62 63  1  0
 63 64  1  0
 64 65  1  0
 65 66  1  0
 66 67  1  0
 67 68  1  0
 68 69  1  0
 69 70  1  0
 70 71  1  0
M  END
$$$$
