
     RDKit          3D

 71 72  0  0  0  0  0  0  0  0999 V2000
  -54.6911  -31.8055  205.5243 C   0  0  1  0  0  0  0  0  0  0  0  0
  -57.2330  -31.6588  205.8419 C   0  0  1  0  0  0  0  0  0  0  0  0
  -56.9348  -33.0291  206.4899 C   0  0  2  0  0  0  0  0  0  0  0  0
  -55.7475  -32.8126  207.4521 C   0  0  1  0  0  0  0  0  0  0  0  0
  -55.4570  -33.9880  208.3976 C   0  0  0  0  0  0  0  0  0  0  0  0
  -55.9515  -30.9102  205.4391 C   0  0  1  0  0  0  0  0  0  0  0  0
  -56.6295  -33.9857  205.4622 O   0  0  0  0  0  0  0  0  0  0  0  0
  -53.5584  -30.9538  205.2837 O   0  0  0  0  0  0  0  0  0  0  0  0
  -58.1144  -31.7894  204.7142 O   0  0  0  0  0  0  0  0  0  0  0  0
  -44.8500  -13.4455  211.7209 C   0  0  0  0  0  0  0  0  0  0  0  0
  -44.9114  -14.2995  210.4637 C   0  0  0  0  0  0  0  0  0  0  0  0
  -46.0946  -15.2694  210.4386 C   0  0  0  0  0  0  0  0  0  0  0  0
  -46.1474  -16.1323  209.1734 C   0  0  0  0  0  0  0  0  0  0  0  0
  -47.4289  -16.9674  209.0612 C   0  0  0  0  0  0  0  0  0  0  0  0
  -47.5589  -17.8325  207.7994 C   0  0  0  0  0  0  0  0  0  0  0  0
  -48.6030  -18.9429  207.9307 C   0  0  0  0  0  0  0  0  0  0  0  0
  -48.0063  -20.3535  208.0289 C   0  0  0  0  0  0  0  0  0  0  0  0
  -48.4310  -21.3358  206.9324 C   0  0  0  0  0  0  0  0  0  0  0  0
  -49.0053  -22.6850  207.3720 C   0  0  0  0  0  0  0  0  0  0  0  0
  -49.3520  -23.6632  206.2450 C   0  0  0  0  0  0  0  0  0  0  0  0
  -49.3697  -25.1294  206.6822 C   0  0  0  0  0  0  0  0  0  0  0  0
  -49.5384  -26.0649  205.4745 C   0  0  0  0  0  0  0  0  0  0  0  0
  -49.4551  -27.5367  205.8983 C   0  0  0  0  0  0  0  0  0  0  0  0
  -49.7387  -28.6124  204.8326 C   0  0  1  0  0  0  0  0  0  0  0  0
  -48.6684  -29.5882  204.8573 O   0  0  0  0  0  0  0  0  0  0  0  0
  -51.0602  -29.4246  204.9052 C   0  0  1  0  0  0  0  0  0  0  0  0
  -50.9244  -30.6671  204.1791 O   0  0  0  0  0  0  0  0  0  0  0  0
  -51.7593  -29.6890  206.2688 C   0  0  2  0  0  0  0  0  0  0  0  0
  -52.6292  -30.9506  206.3719 C   0  0  0  0  0  0  0  0  0  0  0  0
  -55.8296  -29.7806  206.3393 O   0  0  0  0  0  0  0  0  0  0  0  0
  -54.5264  -32.4536  206.7860 O   0  0  0  0  0  0  0  0  0  0  0  0
  -54.0747  -34.3429  208.4494 O   0  0  0  0  0  0  0  0  0  0  0  0
  -57.7128  -34.8617  205.1417 C   0  0  0  0  0  0  0  0  0  0  0  0
  -57.3177  -35.8941  204.1124 C   0  0  0  0  0  0  0  0  0  0  0  0
  -57.7031  -35.7427  202.7727 C   0  0  0  0  0  0  0  0  0  0  0  0
  -57.3494  -36.7046  201.8241 C   0  0  0  0  0  0  0  0  0  0  0  0
  -56.6278  -37.8495  202.1986 C   0  0  0  0  0  0  0  0  0  0  0  0
  -56.2617  -38.8914  201.1726 C   0  0  2  0  0  0  0  0  0  0  0  0
  -55.0336  -38.6930  200.6204 F   0  0  0  0  0  0  0  0  0  0  0  0
  -57.1337  -38.9277  200.1287 F   0  0  0  0  0  0  0  0  0  0  0  0
  -56.2384  -40.1525  201.6817 F   0  0  0  0  0  0  0  0  0  0  0  0
  -56.2466  -38.0042  203.5407 C   0  0  0  0  0  0  0  0  0  0  0  0
  -56.5832  -37.0308  204.4827 C   0  0  0  0  0  0  0  0  0  0  0  0
  -52.5246  -28.4858  206.6304 N   0  0  0  0  0  0  0  0  0  0  0  0
  -52.9346  -28.1973  207.9082 C   0  0  0  0  0  0  0  0  0  0  0  0
  -53.1536  -29.0602  208.7521 O   0  0  0  0  0  0  0  0  0  0  0  0
  -53.0395  -26.7086  208.1757 C   0  0  0  0  0  0  0  0  0  0  0  0
  -52.0934  -26.2578  209.2918 C   0  0  0  0  0  0  0  0  0  0  0  0
  -51.9951  -24.7320  209.3476 C   0  0  0  0  0  0  0  0  0  0  0  0
  -50.6013  -24.2220  209.7235 C   0  0  0  0  0  0  0  0  0  0  0  0
  -50.5567  -23.0182  210.6724 C   0  0  0  0  0  0  0  0  0  0  0  0
  -50.5082  -21.6755  209.9430 C   0  0  0  0  0  0  0  0  0  0  0  0
  -49.3998  -20.7640  210.4840 C   0  0  0  0  0  0  0  0  0  0  0  0
  -49.2752  -20.9160  212.0012 C   0  0  0  0  0  0  0  0  0  0  0  0
  -48.3080  -19.9229  212.6549 C   0  0  0  0  0  0  0  0  0  0  0  0
  -46.8716  -20.4337  212.8371 C   0  0  0  0  0  0  0  0  0  0  0  0
  -45.7494  -19.6447  212.1601 C   0  0  0  0  0  0  0  0  0  0  0  0
  -44.4165  -20.3862  212.0010 C   0  0  0  0  0  0  0  0  0  0  0  0
  -44.5395  -21.7470  211.3244 C   0  0  0  0  0  0  0  0  0  0  0  0
  -43.1802  -22.4001  211.0757 C   0  0  0  0  0  0  0  0  0  0  0  0
  -42.1823  -22.2513  212.2295 C   0  0  0  0  0  0  0  0  0  0  0  0
  -40.8083  -22.9046  212.0381 C   0  0  0  0  0  0  0  0  0  0  0  0
  -39.9093  -22.8664  213.2790 C   0  0  0  0  0  0  0  0  0  0  0  0
  -40.0037  -24.1659  214.0843 C   0  0  0  0  0  0  0  0  0  0  0  0
  -38.7073  -24.5153  214.8145 C   0  0  0  0  0  0  0  0  0  0  0  0
  -38.7936  -25.7825  215.6681 C   0  0  0  0  0  0  0  0  0  0  0  0
  -38.7358  -27.0377  214.7923 C   0  0  0  0  0  0  0  0  0  0  0  0
  -40.0357  -27.2401  214.0148 C   0  0  0  0  0  0  0  0  0  0  0  0
  -40.1079  -28.5699  213.2552 C   0  0  0  0  0  0  0  0  0  0  0  0
  -38.7539  -29.2610  213.0609 C   0  0  0  0  0  0  0  0  0  0  0  0
  -38.8852  -30.7280  212.6800 C   0  0  0  0  0  0  0  0  0  0  0  0
  1  6  1  0
  1  8  1  1
  1 31  1  0
  2  3  1  0
  6  2  1  0
  2  9  1  6
  4  3  1  0
  3  7  1  6
  4  5  1  6
 31  4  1  0
  5 32  1  0
  6 30  1  1
  7 33  1  0
 29  8  1  0
 11 10  1  0
 12 11  1  0
 13 12  1  0
 14 13  1  0
 15 14  1  0
 16 15  1  0
 17 16  1  0
 18 17  1  0
 19 18  1  0
 20 19  1  0
 21 20  1  0
 22 21  1  0
 23 22  1  0
 24 23  1  0
 24 25  1  1
 26 24  1  0
 26 27  1  1
 28 26  1  0
 28 29  1  6
 28 44  1  0
 33 34  1  0
 34 35  2  0
 34 43  1  0
 35 36  1  0
 36 37  2  0
 37 38  1  0
 37 42  1  0
 38 39  1  6
 38 40  1  0
 38 41  1  0
 42 43  2  0
 44 45  1  0
 45 46  2  0
 45 47  1  0
 47 48  1  0
 48 49  1  0
 49 50  1  0
 50 51  1  0
 51 52  1  0
 52 53  1  0
 53 54  1  0
 54 55  1  0
 55 56  1  0
 56 57  1  0
 57 58  1  0
 58 59  1  0
 59 60  1  0
 60 61  1  0
 61 62  1  0
 62 63  1  0
 63 64  1  0
 64 65  1  0
 65 66  1  0
 66 67  1  0
 67 68  1  0
 68 69  1  0
 69 70  1  0
 70 71  1  0
M  END
$$$$
