
     RDKit          3D

 71 72  0  0  0  0  0  0  0  0999 V2000
  -54.6276  -27.3607  208.2791 C   0  0  1  0  0  0  0  0  0  0  0  0
  -52.1665  -26.9613  207.6732 C   0  0  1  0  0  0  0  0  0  0  0  0
  -52.2882  -26.1302  208.9698 C   0  0  2  0  0  0  0  0  0  0  0  0
  -52.9733  -27.0386  210.0129 C   0  0  1  0  0  0  0  0  0  0  0  0
  -52.9543  -26.5014  211.4520 C   0  0  0  0  0  0  0  0  0  0  0  0
  -53.4395  -27.7708  207.3748 C   0  0  1  0  0  0  0  0  0  0  0  0
  -53.0514  -24.9422  208.7042 O   0  0  0  0  0  0  0  0  0  0  0  0
  -55.6920  -28.2900  208.0150 O   0  0  0  0  0  0  0  0  0  0  0  0
  -51.8202  -26.1362  206.5486 O   0  0  0  0  0  0  0  0  0  0  0  0
  -59.7246  -48.5030  211.9987 C   0  0  0  0  0  0  0  0  0  0  0  0
  -58.6704  -47.4344  211.7527 C   0  0  0  0  0  0  0  0  0  0  0  0
  -59.2549  -46.0738  211.3675 C   0  0  0  0  0  0  0  0  0  0  0  0
  -58.1885  -45.0015  211.1202 C   0  0  0  0  0  0  0  0  0  0  0  0
  -58.7758  -43.6419  210.7218 C   0  0  0  0  0  0  0  0  0  0  0  0
  -57.8476  -42.7177  209.9206 C   0  0  0  0  0  0  0  0  0  0  0  0
  -58.5224  -42.0927  208.6981 C   0  0  0  0  0  0  0  0  0  0  0  0
  -57.6341  -41.1036  207.9314 C   0  0  0  0  0  0  0  0  0  0  0  0
  -58.3650  -39.9507  207.2355 C   0  0  0  0  0  0  0  0  0  0  0  0
  -57.5289  -38.7513  206.7821 C   0  0  0  0  0  0  0  0  0  0  0  0
  -57.9540  -37.3900  207.3419 C   0  0  0  0  0  0  0  0  0  0  0  0
  -56.8928  -36.7232  208.2196 C   0  0  0  0  0  0  0  0  0  0  0  0
  -57.2316  -35.2454  208.4711 C   0  0  0  0  0  0  0  0  0  0  0  0
  -55.9763  -34.3678  208.3887 C   0  0  0  0  0  0  0  0  0  0  0  0
  -56.1574  -32.8395  208.4583 C   0  0  1  0  0  0  0  0  0  0  0  0
  -57.2055  -32.5362  209.4110 O   0  0  0  0  0  0  0  0  0  0  0  0
  -54.9489  -31.9480  208.8530 C   0  0  1  0  0  0  0  0  0  0  0  0
  -53.7122  -32.6760  208.6790 O   0  0  0  0  0  0  0  0  0  0  0  0
  -54.7962  -30.5117  208.2768 C   0  0  2  0  0  0  0  0  0  0  0  0
  -55.6740  -29.4155  208.8985 C   0  0  0  0  0  0  0  0  0  0  0  0
  -53.1040  -29.1653  207.5844 O   0  0  0  0  0  0  0  0  0  0  0  0
  -54.3265  -27.3825  209.6747 O   0  0  0  0  0  0  0  0  0  0  0  0
  -54.2364  -26.0714  211.9112 O   0  0  0  0  0  0  0  0  0  0  0  0
  -52.4269  -23.7366  209.1520 C   0  0  0  0  0  0  0  0  0  0  0  0
  -51.2065  -23.3948  208.3303 C   0  0  0  0  0  0  0  0  0  0  0  0
  -49.9253  -23.4863  208.8925 C   0  0  0  0  0  0  0  0  0  0  0  0
  -48.7982  -23.1568  208.1367 C   0  0  0  0  0  0  0  0  0  0  0  0
  -48.9294  -22.7037  206.8141 C   0  0  0  0  0  0  0  0  0  0  0  0
  -47.7098  -22.3356  206.0081 C   0  0  2  0  0  0  0  0  0  0  0  0
  -46.8192  -23.3574  205.8847 F   0  0  0  0  0  0  0  0  0  0  0  0
  -47.0126  -21.3030  206.5550 F   0  0  0  0  0  0  0  0  0  0  0  0
  -48.0091  -21.9511  204.7381 F   0  0  0  0  0  0  0  0  0  0  0  0
  -50.2122  -22.6067  206.2526 C   0  0  0  0  0  0  0  0  0  0  0  0
  -51.3355  -22.9570  207.0035 C   0  0  0  0  0  0  0  0  0  0  0  0
  -54.9870  -30.5816  206.8198 N   0  0  0  0  0  0  0  0  0  0  0  0
  -54.2152  -31.3504  205.9849 C   0  0  0  0  0  0  0  0  0  0  0  0
  -53.1672  -31.8798  206.3402 O   0  0  0  0  0  0  0  0  0  0  0  0
  -54.8173  -31.5133  204.6029 C   0  0  0  0  0  0  0  0  0  0  0  0
  -53.7900  -32.0148  203.5846 C   0  0  0  0  0  0  0  0  0  0  0  0
  -53.0766  -30.8467  202.9010 C   0  0  0  0  0  0  0  0  0  0  0  0
  -52.1845  -31.2739  201.7324 C   0  0  0  0  0  0  0  0  0  0  0  0
  -50.6789  -31.3294  202.0182 C   0  0  0  0  0  0  0  0  0  0  0  0
  -49.8644  -31.9014  200.8577 C   0  0  0  0  0  0  0  0  0  0  0  0
  -48.7840  -30.9261  200.3744 C   0  0  0  0  0  0  0  0  0  0  0  0
  -47.4232  -31.6226  200.3137 C   0  0  0  0  0  0  0  0  0  0  0  0
  -46.6770  -31.4294  198.9890 C   0  0  0  0  0  0  0  0  0  0  0  0
  -45.2242  -30.9506  199.1215 C   0  0  0  0  0  0  0  0  0  0  0  0
  -44.4492  -30.6777  197.8311 C   0  0  0  0  0  0  0  0  0  0  0  0
  -42.9287  -30.5474  197.9826 C   0  0  0  0  0  0  0  0  0  0  0  0
  -42.1346  -31.1757  196.8427 C   0  0  0  0  0  0  0  0  0  0  0  0
  -41.0754  -32.1582  197.3416 C   0  0  0  0  0  0  0  0  0  0  0  0
  -40.0771  -32.6146  196.2717 C   0  0  0  0  0  0  0  0  0  0  0  0
  -38.8261  -33.3492  196.7682 C   0  0  0  0  0  0  0  0  0  0  0  0
  -38.0752  -34.1283  195.6827 C   0  0  0  0  0  0  0  0  0  0  0  0
  -36.8655  -34.8721  196.2567 C   0  0  0  0  0  0  0  0  0  0  0  0
  -35.5813  -34.6326  195.4633 C   0  0  0  0  0  0  0  0  0  0  0  0
  -34.3407  -35.2929  196.0691 C   0  0  0  0  0  0  0  0  0  0  0  0
  -33.1169  -35.0856  195.1718 C   0  0  0  0  0  0  0  0  0  0  0  0
  -32.2411  -36.3367  195.1191 C   0  0  0  0  0  0  0  0  0  0  0  0
  -31.1378  -36.2819  194.0558 C   0  0  0  0  0  0  0  0  0  0  0  0
  -30.7194  -37.6508  193.5084 C   0  0  0  0  0  0  0  0  0  0  0  0
  -29.8891  -37.5534  192.2372 C   0  0  0  0  0  0  0  0  0  0  0  0
  1  6  1  0
  1  8  1  1
  1 31  1  0
  2  3  1  0
  6  2  1  0
  2  9  1  6
  4  3  1  0
  3  7  1  6
  4  5  1  1
 31  4  1  0
  5 32  1  0
  6 30  1  1
  7 33  1  0
 29  8  1  0
 11 10  1  0
 12 11  1  0
 13 12  1  0
 14 13  1  0
 15 14  1  0
 16 15  1  0
 17 16  1  0
 18 17  1  0
 19 18  1  0
 20 19  1  0
 21 20  1  0
 22 21  1  0
 23 22  1  0
 24 23  1  0
 24 25  1  1
 26 24  1  0
 26 27  1  6
 28 26  1  0
 28 29  1  1
 28 44  1  0
 33 34  1  0
 34 35  2  0
 34 43  1  0
 35 36  1  0
 36 37  2  0
 37 38  1  0
 37 42  1  0
 38 39  1  6
 38 40  1  0
 38 41  1  0
 42 43  2  0
 44 45  1  0
 45 46  2  0
 45 47  1  0
 47 48  1  0
 48 49  1  0
 49 50  1  0
 50 51  1  0
 51 52  1  0
 52 53  1  0
 53 54  1  0
 54 55  1  0
 55 56  1  0
 56 57  1  0
 57 58  1  0
 58 59  1  0
 59 60  1  0
 60 61  1  0
 61 62  1  0
 62 63  1  0
 63 64  1  0
 64 65  1  0
 65 66  1  0
 66 67  1  0
 67 68  1  0
 68 69  1  0
 69 70  1  0
 70 71  1  0
M  END
$$$$
