
     RDKit          3D

 71 72  0  0  0  0  0  0  0  0999 V2000
  -56.9640  -30.3592  209.6006 C   0  0  1  0  0  0  0  0  0  0  0  0
  -57.1897  -27.9873  210.5528 C   0  0  1  0  0  0  0  0  0  0  0  0
  -56.6204  -28.7413  211.7750 C   0  0  2  0  0  0  0  0  0  0  0  0
  -55.4092  -29.5525  211.2675 C   0  0  1  0  0  0  0  0  0  0  0  0
  -54.5346  -30.1692  212.3697 C   0  0  0  0  0  0  0  0  0  0  0  0
  -57.2368  -28.8667  209.2920 C   0  0  1  0  0  0  0  0  0  0  0  0
  -57.6410  -29.5859  212.3315 O   0  0  0  0  0  0  0  0  0  0  0  0
  -56.8760  -31.0366  208.3357 O   0  0  0  0  0  0  0  0  0  0  0  0
  -58.4880  -27.4369  210.8306 O   0  0  0  0  0  0  0  0  0  0  0  0
  -39.9401  -36.2692  196.2464 C   0  0  0  0  0  0  0  0  0  0  0  0
  -40.1561  -35.1336  197.2351 C   0  0  0  0  0  0  0  0  0  0  0  0
  -41.6270  -34.8951  197.5830 C   0  0  0  0  0  0  0  0  0  0  0  0
  -41.8472  -33.6868  198.4993 C   0  0  0  0  0  0  0  0  0  0  0  0
  -43.3204  -33.4594  198.8603 C   0  0  0  0  0  0  0  0  0  0  0  0
  -43.5821  -32.6066  200.1099 C   0  0  0  0  0  0  0  0  0  0  0  0
  -45.0406  -32.1661  200.2486 C   0  0  0  0  0  0  0  0  0  0  0  0
  -45.5118  -32.0127  201.7012 C   0  0  0  0  0  0  0  0  0  0  0  0
  -46.7964  -32.7623  202.0690 C   0  0  0  0  0  0  0  0  0  0  0  0
  -47.7114  -32.1289  203.1200 C   0  0  0  0  0  0  0  0  0  0  0  0
  -49.1102  -32.7414  203.2453 C   0  0  0  0  0  0  0  0  0  0  0  0
  -49.9437  -32.1524  204.3852 C   0  0  0  0  0  0  0  0  0  0  0  0
  -51.4046  -32.6225  204.3026 C   0  0  0  0  0  0  0  0  0  0  0  0
  -52.2500  -32.0021  205.4220 C   0  0  0  0  0  0  0  0  0  0  0  0
  -53.7524  -32.3401  205.4646 C   0  0  1  0  0  0  0  0  0  0  0  0
  -53.9134  -33.7723  205.3186 O   0  0  0  0  0  0  0  0  0  0  0  0
  -54.5865  -31.9405  206.7119 C   0  0  1  0  0  0  0  0  0  0  0  0
  -53.9973  -32.4994  207.9078 O   0  0  0  0  0  0  0  0  0  0  0  0
  -54.9797  -30.4577  206.9661 C   0  0  2  0  0  0  0  0  0  0  0  0
  -56.4570  -30.1725  207.2749 C   0  0  0  0  0  0  0  0  0  0  0  0
  -56.2322  -28.3473  208.3852 O   0  0  0  0  0  0  0  0  0  0  0  0
  -55.7609  -30.5873  210.3352 O   0  0  0  0  0  0  0  0  0  0  0  0
  -55.0764  -31.3738  212.9128 O   0  0  0  0  0  0  0  0  0  0  0  0
  -58.4781  -28.9337  213.2896 C   0  0  0  0  0  0  0  0  0  0  0  0
  -57.9515  -29.0887  214.6967 C   0  0  0  0  0  0  0  0  0  0  0  0
  -56.8691  -29.9408  214.9584 C   0  0  0  0  0  0  0  0  0  0  0  0
  -56.3915  -30.0944  216.2617 C   0  0  0  0  0  0  0  0  0  0  0  0
  -57.0017  -29.4220  217.3327 C   0  0  0  0  0  0  0  0  0  0  0  0
  -56.4907  -29.6033  218.7393 C   0  0  2  0  0  0  0  0  0  0  0  0
  -57.3396  -30.3136  219.5316 F   0  0  0  0  0  0  0  0  0  0  0  0
  -56.2911  -28.4201  219.3808 F   0  0  0  0  0  0  0  0  0  0  0  0
  -55.3006  -30.2600  218.7912 F   0  0  0  0  0  0  0  0  0  0  0  0
  -58.0888  -28.5731  217.0719 C   0  0  0  0  0  0  0  0  0  0  0  0
  -58.5506  -28.4050  215.7655 C   0  0  0  0  0  0  0  0  0  0  0  0
  -54.5130  -29.6590  205.8222 N   0  0  0  0  0  0  0  0  0  0  0  0
  -53.4925  -28.7442  205.8957 C   0  0  0  0  0  0  0  0  0  0  0  0
  -52.7915  -28.6015  206.8922 O   0  0  0  0  0  0  0  0  0  0  0  0
  -53.2958  -27.9700  204.6069 C   0  0  0  0  0  0  0  0  0  0  0  0
  -52.6155  -26.6196  204.8465 C   0  0  0  0  0  0  0  0  0  0  0  0
  -53.6170  -25.4693  204.7252 C   0  0  0  0  0  0  0  0  0  0  0  0
  -52.9949  -24.0896  204.9562 C   0  0  0  0  0  0  0  0  0  0  0  0
  -53.9437  -22.8917  204.8275 C   0  0  0  0  0  0  0  0  0  0  0  0
  -53.2694  -21.5523  205.1250 C   0  0  0  0  0  0  0  0  0  0  0  0
  -51.7953  -21.5411  204.7019 C   0  0  0  0  0  0  0  0  0  0  0  0
  -51.1987  -20.1434  204.8784 C   0  0  0  0  0  0  0  0  0  0  0  0
  -49.6911  -20.0657  204.6137 C   0  0  0  0  0  0  0  0  0  0  0  0
  -48.8130  -19.9471  205.8676 C   0  0  0  0  0  0  0  0  0  0  0  0
  -47.3276  -20.2842  205.7251 C   0  0  0  0  0  0  0  0  0  0  0  0
  -46.4908  -20.1585  207.0040 C   0  0  0  0  0  0  0  0  0  0  0  0
  -46.0836  -18.7285  207.3420 C   0  0  0  0  0  0  0  0  0  0  0  0
  -45.2527  -18.6454  208.6222 C   0  0  0  0  0  0  0  0  0  0  0  0
  -45.9200  -17.8714  209.7645 C   0  0  0  0  0  0  0  0  0  0  0  0
  -46.4598  -18.7027  210.9344 C   0  0  0  0  0  0  0  0  0  0  0  0
  -46.0386  -20.1763  210.9129 C   0  0  0  0  0  0  0  0  0  0  0  0
  -46.4180  -20.8905  212.2138 C   0  0  0  0  0  0  0  0  0  0  0  0
  -46.0309  -20.1038  213.4657 C   0  0  0  0  0  0  0  0  0  0  0  0
  -44.9218  -20.7556  214.2946 C   0  0  0  0  0  0  0  0  0  0  0  0
  -44.3228  -19.7568  215.2893 C   0  0  0  0  0  0  0  0  0  0  0  0
  -43.7103  -20.4655  216.4966 C   0  0  0  0  0  0  0  0  0  0  0  0
  -42.7480  -19.5928  217.3107 C   0  0  0  0  0  0  0  0  0  0  0  0
  -43.1731  -19.3722  218.7666 C   0  0  0  0  0  0  0  0  0  0  0  0
  -42.0554  -18.8113  219.6330 C   0  0  0  0  0  0  0  0  0  0  0  0
  1  6  1  0
  1  8  1  6
  1 31  1  0
  2  3  1  0
  6  2  1  0
  2  9  1  1
  4  3  1  0
  3  7  1  6
  4  5  1  1
 31  4  1  0
  5 32  1  0
  6 30  1  6
  7 33  1  0
 29  8  1  0
 11 10  1  0
 12 11  1  0
 13 12  1  0
 14 13  1  0
 15 14  1  0
 16 15  1  0
 17 16  1  0
 18 17  1  0
 19 18  1  0
 20 19  1  0
 21 20  1  0
 22 21  1  0
 23 22  1  0
 24 23  1  0
 24 25  1  1
 26 24  1  0
 26 27  1  1
 28 26  1  0
 28 29  1  6
 28 44  1  0
 33 34  1  0
 34 35  2  0
 34 43  1  0
 35 36  1  0
 36 37  2  0
 37 38  1  0
 37 42  1  0
 38 39  1  1
 38 40  1  0
 38 41  1  0
 42 43  2  0
 44 45  1  0
 45 46  2  0
 45 47  1  0
 47 48  1  0
 48 49  1  0
 49 50  1  0
 50 51  1  0
 51 52  1  0
 52 53  1  0
 53 54  1  0
 54 55  1  0
 55 56  1  0
 56 57  1  0
 57 58  1  0
 58 59  1  0
 59 60  1  0
 60 61  1  0
 61 62  1  0
 62 63  1  0
 63 64  1  0
 64 65  1  0
 65 66  1  0
 66 67  1  0
 67 68  1  0
 68 69  1  0
 69 70  1  0
 70 71  1  0
M  END
$$$$
