
     RDKit          3D

 71 72  0  0  0  0  0  0  0  0999 V2000
  -56.4260  -29.1313  209.8956 C   0  0  1  0  0  0  0  0  0  0  0  0
  -57.9566  -30.0864  211.7201 C   0  0  1  0  0  0  0  0  0  0  0  0
  -58.9392  -29.1630  210.9663 C   0  0  2  0  0  0  0  0  0  0  0  0
  -58.7793  -29.4813  209.4645 C   0  0  1  0  0  0  0  0  0  0  0  0
  -59.8514  -28.8640  208.5536 C   0  0  0  0  0  0  0  0  0  0  0  0
  -56.5893  -30.1805  211.0226 C   0  0  1  0  0  0  0  0  0  0  0  0
  -58.6280  -27.7921  211.2638 O   0  0  0  0  0  0  0  0  0  0  0  0
  -55.1891  -29.4285  209.2261 O   0  0  0  0  0  0  0  0  0  0  0  0
  -57.7956  -29.6799  213.0892 O   0  0  0  0  0  0  0  0  0  0  0  0
  -41.6926  -32.9933  194.0275 C   0  0  0  0  0  0  0  0  0  0  0  0
  -42.9787  -32.4093  194.5921 C   0  0  0  0  0  0  0  0  0  0  0  0
  -43.7424  -33.3738  195.5020 C   0  0  0  0  0  0  0  0  0  0  0  0
  -45.0028  -32.7587  196.1193 C   0  0  0  0  0  0  0  0  0  0  0  0
  -44.8105  -32.3127  197.5740 C   0  0  0  0  0  0  0  0  0  0  0  0
  -45.8789  -31.3617  198.1322 C   0  0  0  0  0  0  0  0  0  0  0  0
  -45.7551  -31.1283  199.6391 C   0  0  0  0  0  0  0  0  0  0  0  0
  -46.9455  -30.3812  200.2558 C   0  0  0  0  0  0  0  0  0  0  0  0
  -46.9015  -30.1944  201.7758 C   0  0  0  0  0  0  0  0  0  0  0  0
  -48.2368  -30.1241  202.5210 C   0  0  0  0  0  0  0  0  0  0  0  0
  -48.1678  -30.3306  204.0376 C   0  0  0  0  0  0  0  0  0  0  0  0
  -49.5314  -30.2884  204.7304 C   0  0  0  0  0  0  0  0  0  0  0  0
  -50.2093  -31.6674  204.7019 C   0  0  0  0  0  0  0  0  0  0  0  0
  -51.2654  -31.7881  205.8078 C   0  0  0  0  0  0  0  0  0  0  0  0
  -52.6415  -31.1388  205.5666 C   0  0  1  0  0  0  0  0  0  0  0  0
  -53.1004  -31.4958  204.2398 O   0  0  0  0  0  0  0  0  0  0  0  0
  -53.8157  -31.4664  206.5283 C   0  0  1  0  0  0  0  0  0  0  0  0
  -54.1115  -32.8810  206.4931 O   0  0  0  0  0  0  0  0  0  0  0  0
  -53.8004  -30.9715  208.0024 C   0  0  2  0  0  0  0  0  0  0  0  0
  -55.1627  -30.7492  208.6761 C   0  0  0  0  0  0  0  0  0  0  0  0
  -56.4901  -31.5215  210.4814 O   0  0  0  0  0  0  0  0  0  0  0  0
  -57.4865  -29.1400  208.9394 O   0  0  0  0  0  0  0  0  0  0  0  0
  -59.3303  -27.8913  207.6470 O   0  0  0  0  0  0  0  0  0  0  0  0
  -59.6174  -27.1288  212.0544 C   0  0  0  0  0  0  0  0  0  0  0  0
  -59.0848  -25.8592  212.6756 C   0  0  0  0  0  0  0  0  0  0  0  0
  -59.7147  -25.3005  213.7969 C   0  0  0  0  0  0  0  0  0  0  0  0
  -59.2302  -24.1192  214.3625 C   0  0  0  0  0  0  0  0  0  0  0  0
  -58.1245  -23.4579  213.8041 C   0  0  0  0  0  0  0  0  0  0  0  0
  -57.6152  -22.1752  214.4105 C   0  0  2  0  0  0  0  0  0  0  0  0
  -57.3180  -21.2239  213.4834 F   0  0  0  0  0  0  0  0  0  0  0  0
  -56.4765  -22.3535  215.1336 F   0  0  0  0  0  0  0  0  0  0  0  0
  -58.5081  -21.5979  215.2588 F   0  0  0  0  0  0  0  0  0  0  0  0
  -57.4970  -24.0139  212.6782 C   0  0  0  0  0  0  0  0  0  0  0  0
  -57.9704  -25.2060  212.1278 C   0  0  0  0  0  0  0  0  0  0  0  0
  -52.9717  -29.7578  208.0679 N   0  0  0  0  0  0  0  0  0  0  0  0
  -52.1737  -29.3220  207.0398 C   0  0  0  0  0  0  0  0  0  0  0  0
  -51.5329  -30.0820  206.3211 O   0  0  0  0  0  0  0  0  0  0  0  0
  -52.2077  -27.8169  206.8593 C   0  0  0  0  0  0  0  0  0  0  0  0
  -50.8675  -27.1660  207.2115 C   0  0  0  0  0  0  0  0  0  0  0  0
  -50.8427  -25.6949  206.7921 C   0  0  0  0  0  0  0  0  0  0  0  0
  -49.4798  -25.0256  206.9881 C   0  0  0  0  0  0  0  0  0  0  0  0
  -49.3386  -23.6055  206.4268 C   0  0  0  0  0  0  0  0  0  0  0  0
  -49.7013  -22.5175  207.4377 C   0  0  0  0  0  0  0  0  0  0  0  0
  -48.4582  -21.8528  208.0419 C   0  0  0  0  0  0  0  0  0  0  0  0
  -48.7445  -20.3876  208.3766 C   0  0  0  0  0  0  0  0  0  0  0  0
  -47.4922  -19.5538  208.6690 C   0  0  0  0  0  0  0  0  0  0  0  0
  -46.8600  -19.7866  210.0487 C   0  0  0  0  0  0  0  0  0  0  0  0
  -47.1330  -18.7459  211.1363 C   0  0  0  0  0  0  0  0  0  0  0  0
  -46.3865  -17.4147  210.9863 C   0  0  0  0  0  0  0  0  0  0  0  0
  -46.6213  -16.4381  212.1333 C   0  0  0  0  0  0  0  0  0  0  0  0
  -45.3163  -15.9609  212.7700 C   0  0  0  0  0  0  0  0  0  0  0  0
  -44.5939  -17.0200  213.6101 C   0  0  0  0  0  0  0  0  0  0  0  0
  -43.2621  -16.6024  214.2449 C   0  0  0  0  0  0  0  0  0  0  0  0
  -42.6284  -17.6666  215.1478 C   0  0  0  0  0  0  0  0  0  0  0  0
  -41.2460  -18.0872  214.6396 C   0  0  0  0  0  0  0  0  0  0  0  0
  -40.9809  -19.5848  214.7902 C   0  0  0  0  0  0  0  0  0  0  0  0
  -42.2001  -20.4660  214.5092 C   0  0  0  0  0  0  0  0  0  0  0  0
  -41.8306  -21.9508  214.5801 C   0  0  0  0  0  0  0  0  0  0  0  0
  -43.0636  -22.8433  214.4449 C   0  0  0  0  0  0  0  0  0  0  0  0
  -44.2579  -22.3905  215.2929 C   0  0  0  0  0  0  0  0  0  0  0  0
  -45.5196  -23.2415  215.1125 C   0  0  0  0  0  0  0  0  0  0  0  0
  -45.6122  -24.3853  216.1114 C   0  0  0  0  0  0  0  0  0  0  0  0
  1  6  1  0
  1  8  1  6
  1 31  1  0
  2  3  1  0
  6  2  1  0
  2  9  1  1
  4  3  1  0
  3  7  1  6
  4  5  1  6
 31  4  1  0
  5 32  1  0
  6 30  1  6
  7 33  1  0
 29  8  1  0
 11 10  1  0
 12 11  1  0
 13 12  1  0
 14 13  1  0
 15 14  1  0
 16 15  1  0
 17 16  1  0
 18 17  1  0
 19 18  1  0
 20 19  1  0
 21 20  1  0
 22 21  1  0
 23 22  1  0
 24 23  1  0
 24 25  1  6
 26 24  1  0
 26 27  1  1
 28 26  1  0
 28 29  1  6
 28 44  1  0
 33 34  1  0
 34 35  2  0
 34 43  1  0
 35 36  1  0
 36 37  2  0
 37 38  1  0
 37 42  1  0
 38 39  1  6
 38 40  1  0
 38 41  1  0
 42 43  2  0
 44 45  1  0
 45 46  2  0
 45 47  1  0
 47 48  1  0
 48 49  1  0
 49 50  1  0
 50 51  1  0
 51 52  1  0
 52 53  1  0
 53 54  1  0
 54 55  1  0
 55 56  1  0
 56 57  1  0
 57 58  1  0
 58 59  1  0
 59 60  1  0
 60 61  1  0
 61 62  1  0
 62 63  1  0
 63 64  1  0
 64 65  1  0
 65 66  1  0
 66 67  1  0
 67 68  1  0
 68 69  1  0
 69 70  1  0
 70 71  1  0
M  END
$$$$
