
     RDKit          3D

 71 72  0  0  0  0  0  0  0  0999 V2000
  -55.6774  -30.7294  207.7361 C   0  0  1  0  0  0  0  0  0  0  0  0
  -56.3212  -31.6126  210.0576 C   0  0  1  0  0  0  0  0  0  0  0  0
  -55.1934  -32.5954  209.6720 C   0  0  2  0  0  0  0  0  0  0  0  0
  -54.0125  -31.7367  209.1715 C   0  0  1  0  0  0  0  0  0  0  0  0
  -52.6910  -32.4977  208.9854 C   0  0  0  0  0  0  0  0  0  0  0  0
  -56.4836  -30.4768  209.0337 C   0  0  1  0  0  0  0  0  0  0  0  0
  -55.6722  -33.4969  208.6608 O   0  0  0  0  0  0  0  0  0  0  0  0
  -55.7828  -29.5362  206.9415 O   0  0  0  0  0  0  0  0  0  0  0  0
  -57.5709  -32.2949  210.2540 O   0  0  0  0  0  0  0  0  0  0  0  0
  -41.7310  -17.7095  212.5462 C   0  0  0  0  0  0  0  0  0  0  0  0
  -43.1173  -18.0484  212.0198 C   0  0  0  0  0  0  0  0  0  0  0  0
  -44.1267  -18.3812  213.1206 C   0  0  0  0  0  0  0  0  0  0  0  0
  -45.5744  -18.4382  212.6216 C   0  0  0  0  0  0  0  0  0  0  0  0
  -46.5876  -18.7427  213.7320 C   0  0  0  0  0  0  0  0  0  0  0  0
  -47.4524  -19.9948  213.5277 C   0  0  0  0  0  0  0  0  0  0  0  0
  -48.4241  -19.8752  212.3521 C   0  0  0  0  0  0  0  0  0  0  0  0
  -48.9156  -21.2234  211.8078 C   0  0  0  0  0  0  0  0  0  0  0  0
  -50.3798  -21.5674  212.0998 C   0  0  0  0  0  0  0  0  0  0  0  0
  -50.9877  -22.7643  211.3642 C   0  0  0  0  0  0  0  0  0  0  0  0
  -51.1815  -22.5929  209.8540 C   0  0  0  0  0  0  0  0  0  0  0  0
  -51.8009  -23.8120  209.1675 C   0  0  0  0  0  0  0  0  0  0  0  0
  -50.7981  -24.9744  209.0937 C   0  0  0  0  0  0  0  0  0  0  0  0
  -51.5195  -26.3185  208.9329 C   0  0  0  0  0  0  0  0  0  0  0  0
  -52.9221  -26.4644  209.5531 C   0  0  1  0  0  0  0  0  0  0  0  0
  -53.6819  -25.2621  209.2781 O   0  0  0  0  0  0  0  0  0  0  0  0
  -53.8255  -27.6504  209.1193 C   0  0  1  0  0  0  0  0  0  0  0  0
  -54.7145  -28.0224  210.1968 O   0  0  0  0  0  0  0  0  0  0  0  0
  -54.6165  -27.6020  207.7813 C   0  0  2  0  0  0  0  0  0  0  0  0
  -55.9528  -28.3577  207.7350 C   0  0  0  0  0  0  0  0  0  0  0  0
  -56.0275  -29.2636  209.6828 O   0  0  0  0  0  0  0  0  0  0  0  0
  -54.2971  -31.0188  207.9601 O   0  0  0  0  0  0  0  0  0  0  0  0
  -52.5597  -33.0941  207.6945 O   0  0  0  0  0  0  0  0  0  0  0  0
  -56.2286  -34.7085  209.1770 C   0  0  0  0  0  0  0  0  0  0  0  0
  -55.1771  -35.5850  209.8151 C   0  0  0  0  0  0  0  0  0  0  0  0
  -55.1016  -35.6997  211.2106 C   0  0  0  0  0  0  0  0  0  0  0  0
  -54.1204  -36.4993  211.8006 C   0  0  0  0  0  0  0  0  0  0  0  0
  -53.1786  -37.1783  211.0108 C   0  0  0  0  0  0  0  0  0  0  0  0
  -52.1128  -38.0283  211.6543 C   0  0  2  0  0  0  0  0  0  0  0  0
  -52.6039  -38.8924  212.5843 F   0  0  0  0  0  0  0  0  0  0  0  0
  -51.1713  -37.2879  212.2999 F   0  0  0  0  0  0  0  0  0  0  0  0
  -51.4337  -38.7954  210.7595 F   0  0  0  0  0  0  0  0  0  0  0  0
  -53.2504  -37.0594  209.6140 C   0  0  0  0  0  0  0  0  0  0  0  0
  -54.2452  -36.2765  209.0263 C   0  0  0  0  0  0  0  0  0  0  0  0
  -53.7185  -28.0455  206.7038 N   0  0  0  0  0  0  0  0  0  0  0  0
  -52.5135  -27.4520  206.4216 C   0  0  0  0  0  0  0  0  0  0  0  0
  -52.1633  -26.3824  206.9095 O   0  0  0  0  0  0  0  0  0  0  0  0
  -51.6497  -28.2776  205.4882 C   0  0  0  0  0  0  0  0  0  0  0  0
  -50.1736  -27.8798  205.5699 C   0  0  0  0  0  0  0  0  0  0  0  0
  -49.7772  -26.9893  204.3907 C   0  0  0  0  0  0  0  0  0  0  0  0
  -48.8955  -27.6973  203.3585 C   0  0  0  0  0  0  0  0  0  0  0  0
  -48.4217  -26.8429  202.1765 C   0  0  0  0  0  0  0  0  0  0  0  0
  -48.8233  -27.4163  200.8174 C   0  0  0  0  0  0  0  0  0  0  0  0
  -48.4828  -26.4634  199.6649 C   0  0  0  0  0  0  0  0  0  0  0  0
  -48.1300  -27.2540  198.4036 C   0  0  0  0  0  0  0  0  0  0  0  0
  -46.6955  -27.7931  198.3806 C   0  0  0  0  0  0  0  0  0  0  0  0
  -46.3001  -28.5433  197.1007 C   0  0  0  0  0  0  0  0  0  0  0  0
  -44.8303  -28.9342  196.9358 C   0  0  0  0  0  0  0  0  0  0  0  0
  -44.5738  -30.3256  196.3441 C   0  0  0  0  0  0  0  0  0  0  0  0
  -44.4284  -31.4274  197.3879 C   0  0  0  0  0  0  0  0  0  0  0  0
  -43.4459  -32.5154  196.9552 C   0  0  0  0  0  0  0  0  0  0  0  0
  -44.0023  -33.5000  195.9206 C   0  0  0  0  0  0  0  0  0  0  0  0
  -43.4722  -34.9373  195.9857 C   0  0  0  0  0  0  0  0  0  0  0  0
  -42.4155  -35.1752  197.0702 C   0  0  0  0  0  0  0  0  0  0  0  0
  -42.7588  -36.3916  197.9355 C   0  0  0  0  0  0  0  0  0  0  0  0
  -43.0863  -36.0258  199.3829 C   0  0  0  0  0  0  0  0  0  0  0  0
  -42.4324  -34.7278  199.8620 C   0  0  0  0  0  0  0  0  0  0  0  0
  -42.8405  -34.4089  201.3035 C   0  0  0  0  0  0  0  0  0  0  0  0
  -44.3011  -33.9680  201.3889 C   0  0  0  0  0  0  0  0  0  0  0  0
  -45.1247  -34.7352  202.4299 C   0  0  0  0  0  0  0  0  0  0  0  0
  -45.5972  -33.8843  203.6137 C   0  0  0  0  0  0  0  0  0  0  0  0
  -46.4020  -32.6662  203.1858 C   0  0  0  0  0  0  0  0  0  0  0  0
  1  6  1  0
  1  8  1  6
  1 31  1  0
  2  3  1  0
  6  2  1  0
  2  9  1  6
  4  3  1  0
  3  7  1  6
  4  5  1  6
 31  4  1  0
  5 32  1  0
  6 30  1  1
  7 33  1  0
 29  8  1  0
 11 10  1  0
 12 11  1  0
 13 12  1  0
 14 13  1  0
 15 14  1  0
 16 15  1  0
 17 16  1  0
 18 17  1  0
 19 18  1  0
 20 19  1  0
 21 20  1  0
 22 21  1  0
 23 22  1  0
 24 23  1  0
 24 25  1  6
 26 24  1  0
 26 27  1  1
 28 26  1  0
 28 29  1  1
 28 44  1  0
 33 34  1  0
 34 35  2  0
 34 43  1  0
 35 36  1  0
 36 37  2  0
 37 38  1  0
 37 42  1  0
 38 39  1  1
 38 40  1  0
 38 41  1  0
 42 43  2  0
 44 45  1  0
 45 46  2  0
 45 47  1  0
 47 48  1  0
 48 49  1  0
 49 50  1  0
 50 51  1  0
 51 52  1  0
 52 53  1  0
 53 54  1  0
 54 55  1  0
 55 56  1  0
 56 57  1  0
 57 58  1  0
 58 59  1  0
 59 60  1  0
 60 61  1  0
 61 62  1  0
 62 63  1  0
 63 64  1  0
 64 65  1  0
 65 66  1  0
 66 67  1  0
 67 68  1  0
 68 69  1  0
 69 70  1  0
 70 71  1  0
M  END
$$$$
