
     RDKit          3D

 71 72  0  0  0  0  0  0  0  0999 V2000
  -55.6779  -30.8889  209.1096 C   0  0  1  0  0  0  0  0  0  0  0  0
  -58.2313  -31.1085  208.9833 C   0  0  1  0  0  0  0  0  0  0  0  0
  -57.8303  -32.5533  209.3549 C   0  0  2  0  0  0  0  0  0  0  0  0
  -56.8483  -32.4471  210.5410 C   0  0  1  0  0  0  0  0  0  0  0  0
  -56.5292  -33.7777  211.2393 C   0  0  0  0  0  0  0  0  0  0  0  0
  -57.0318  -30.1461  208.9967 C   0  0  1  0  0  0  0  0  0  0  0  0
  -57.2323  -33.1902  208.2141 O   0  0  0  0  0  0  0  0  0  0  0  0
  -54.6639  -29.8833  209.2741 O   0  0  0  0  0  0  0  0  0  0  0  0
  -58.9025  -31.0576  207.7134 O   0  0  0  0  0  0  0  0  0  0  0  0
  -41.8449  -23.0921  211.2558 C   0  0  0  0  0  0  0  0  0  0  0  0
  -42.3288  -22.6525  209.8823 C   0  0  0  0  0  0  0  0  0  0  0  0
  -43.8198  -22.3119  209.8376 C   0  0  0  0  0  0  0  0  0  0  0  0
  -44.2840  -21.7898  208.4738 C   0  0  0  0  0  0  0  0  0  0  0  0
  -45.5793  -22.4467  207.9812 C   0  0  0  0  0  0  0  0  0  0  0  0
  -45.4102  -23.5991  206.9808 C   0  0  0  0  0  0  0  0  0  0  0  0
  -46.7350  -24.0960  206.3989 C   0  0  0  0  0  0  0  0  0  0  0  0
  -46.8933  -25.6225  206.4199 C   0  0  0  0  0  0  0  0  0  0  0  0
  -47.1174  -26.2892  205.0588 C   0  0  0  0  0  0  0  0  0  0  0  0
  -46.9549  -27.8092  204.9779 C   0  0  0  0  0  0  0  0  0  0  0  0
  -48.2268  -28.6309  205.2114 C   0  0  0  0  0  0  0  0  0  0  0  0
  -48.7476  -29.3349  203.9568 C   0  0  0  0  0  0  0  0  0  0  0  0
  -50.0264  -30.1316  204.2599 C   0  0  0  0  0  0  0  0  0  0  0  0
  -50.2519  -30.2627  205.7714 C   0  0  0  0  0  0  0  0  0  0  0  0
  -51.1104  -31.4387  206.2745 C   0  0  1  0  0  0  0  0  0  0  0  0
  -50.3359  -32.2094  207.2256 O   0  0  0  0  0  0  0  0  0  0  0  0
  -52.4696  -31.1465  206.9661 C   0  0  1  0  0  0  0  0  0  0  0  0
  -53.0670  -32.3765  207.4350 O   0  0  0  0  0  0  0  0  0  0  0  0
  -52.5848  -30.0554  208.0681 C   0  0  2  0  0  0  0  0  0  0  0  0
  -53.3458  -30.4354  209.3469 C   0  0  0  0  0  0  0  0  0  0  0  0
  -57.2194  -29.2640  210.1315 O   0  0  0  0  0  0  0  0  0  0  0  0
  -55.6092  -31.8026  210.2048 O   0  0  0  0  0  0  0  0  0  0  0  0
  -55.3705  -34.4272  210.7148 O   0  0  0  0  0  0  0  0  0  0  0  0
  -58.1745  -33.6357  207.2355 C   0  0  0  0  0  0  0  0  0  0  0  0
  -58.2664  -35.1425  207.1860 C   0  0  0  0  0  0  0  0  0  0  0  0
  -59.3658  -35.8044  207.7512 C   0  0  0  0  0  0  0  0  0  0  0  0
  -59.4435  -37.1983  207.7174 C   0  0  0  0  0  0  0  0  0  0  0  0
  -58.4130  -37.9600  207.1433 C   0  0  0  0  0  0  0  0  0  0  0  0
  -58.4959  -39.4651  207.1230 C   0  0  2  0  0  0  0  0  0  0  0  0
  -58.1448  -40.0061  205.9243 F   0  0  0  0  0  0  0  0  0  0  0  0
  -59.7504  -39.9242  207.3814 F   0  0  0  0  0  0  0  0  0  0  0  0
  -57.6871  -40.0536  208.0449 F   0  0  0  0  0  0  0  0  0  0  0  0
  -57.3097  -37.2981  206.5822 C   0  0  0  0  0  0  0  0  0  0  0  0
  -57.2447  -35.9039  206.5985 C   0  0  0  0  0  0  0  0  0  0  0  0
  -53.1506  -28.8443  207.4540 N   0  0  0  0  0  0  0  0  0  0  0  0
  -52.3985  -27.8878  206.8189 C   0  0  0  0  0  0  0  0  0  0  0  0
  -51.1748  -27.8419  206.8898 O   0  0  0  0  0  0  0  0  0  0  0  0
  -53.2327  -26.9320  205.9884 C   0  0  0  0  0  0  0  0  0  0  0  0
  -53.1535  -27.2514  204.4932 C   0  0  0  0  0  0  0  0  0  0  0  0
  -51.7613  -26.9450  203.9376 C   0  0  0  0  0  0  0  0  0  0  0  0
  -51.7573  -26.6208  202.4413 C   0  0  0  0  0  0  0  0  0  0  0  0
  -50.3883  -26.6397  201.7506 C   0  0  0  0  0  0  0  0  0  0  0  0
  -50.0022  -25.2934  201.1378 C   0  0  0  0  0  0  0  0  0  0  0  0
  -48.5020  -25.0054  201.2747 C   0  0  0  0  0  0  0  0  0  0  0  0
  -47.6978  -25.8951  200.3247 C   0  0  0  0  0  0  0  0  0  0  0  0
  -46.7084  -25.1327  199.4364 C   0  0  0  0  0  0  0  0  0  0  0  0
  -45.8188  -26.0117  198.5458 C   0  0  0  0  0  0  0  0  0  0  0  0
  -45.4900  -25.4940  197.1443 C   0  0  0  0  0  0  0  0  0  0  0  0
  -44.6778  -26.4451  196.2569 C   0  0  0  0  0  0  0  0  0  0  0  0
  -43.6247  -27.2504  197.0100 C   0  0  0  0  0  0  0  0  0  0  0  0
  -43.3613  -28.6119  196.3674 C   0  0  0  0  0  0  0  0  0  0  0  0
  -42.3121  -29.4640  197.0902 C   0  0  0  0  0  0  0  0  0  0  0  0
  -42.7933  -30.2561  198.3117 C   0  0  0  0  0  0  0  0  0  0  0  0
  -42.9138  -31.7666  198.0810 C   0  0  0  0  0  0  0  0  0  0  0  0
  -43.8643  -32.4175  199.0906 C   0  0  0  0  0  0  0  0  0  0  0  0
  -43.1353  -33.1065  200.2438 C   0  0  0  0  0  0  0  0  0  0  0  0
  -42.1499  -34.1903  199.8009 C   0  0  0  0  0  0  0  0  0  0  0  0
  -41.4765  -34.8455  201.0105 C   0  0  0  0  0  0  0  0  0  0  0  0
  -42.5059  -35.4088  201.9893 C   0  0  0  0  0  0  0  0  0  0  0  0
  -42.0899  -36.7340  202.6385 C   0  0  0  0  0  0  0  0  0  0  0  0
  -43.0939  -37.2800  203.6595 C   0  0  0  0  0  0  0  0  0  0  0  0
  -43.8034  -38.5377  203.1805 C   0  0  0  0  0  0  0  0  0  0  0  0
  1  6  1  0
  1  8  1  1
  1 31  1  0
  2  3  1  0
  6  2  1  0
  2  9  1  6
  4  3  1  0
  3  7  1  6
  4  5  1  6
 31  4  1  0
  5 32  1  0
  6 30  1  1
  7 33  1  0
 29  8  1  0
 11 10  1  0
 12 11  1  0
 13 12  1  0
 14 13  1  0
 15 14  1  0
 16 15  1  0
 17 16  1  0
 18 17  1  0
 19 18  1  0
 20 19  1  0
 21 20  1  0
 22 21  1  0
 23 22  1  0
 24 23  1  0
 24 25  1  1
 26 24  1  0
 26 27  1  1
 28 26  1  0
 28 29  1  1
 28 44  1  0
 33 34  1  0
 34 35  2  0
 34 43  1  0
 35 36  1  0
 36 37  2  0
 37 38  1  0
 37 42  1  0
 38 39  1  6
 38 40  1  0
 38 41  1  0
 42 43  2  0
 44 45  1  0
 45 46  2  0
 45 47  1  0
 47 48  1  0
 48 49  1  0
 49 50  1  0
 50 51  1  0
 51 52  1  0
 52 53  1  0
 53 54  1  0
 54 55  1  0
 55 56  1  0
 56 57  1  0
 57 58  1  0
 58 59  1  0
 59 60  1  0
 60 61  1  0
 61 62  1  0
 62 63  1  0
 63 64  1  0
 64 65  1  0
 65 66  1  0
 66 67  1  0
 67 68  1  0
 68 69  1  0
 69 70  1  0
 70 71  1  0
M  END
$$$$
