
     RDKit          3D

 71 72  0  0  0  0  0  0  0  0999 V2000
  -56.9253  -30.2780  209.9600 C   0  0  1  0  0  0  0  0  0  0  0  0
  -59.1159  -29.5348  208.8497 C   0  0  1  0  0  0  0  0  0  0  0  0
  -58.8552  -28.3504  209.8065 C   0  0  2  0  0  0  0  0  0  0  0  0
  -57.3841  -27.9316  209.5990 C   0  0  1  0  0  0  0  0  0  0  0  0
  -56.9894  -26.6022  210.2600 C   0  0  0  0  0  0  0  0  0  0  0  0
  -57.9516  -30.5393  208.8304 C   0  0  1  0  0  0  0  0  0  0  0  0
  -59.1132  -28.7642  211.1581 O   0  0  0  0  0  0  0  0  0  0  0  0
  -55.8211  -31.1701  209.7337 O   0  0  0  0  0  0  0  0  0  0  0  0
  -60.3504  -30.2020  209.1606 O   0  0  0  0  0  0  0  0  0  0  0  0
  -40.9103  -21.3910  215.3742 C   0  0  0  0  0  0  0  0  0  0  0  0
  -41.2180  -22.1041  214.0662 C   0  0  0  0  0  0  0  0  0  0  0  0
  -42.5397  -21.6715  213.4282 C   0  0  0  0  0  0  0  0  0  0  0  0
  -42.9139  -22.4910  212.1887 C   0  0  0  0  0  0  0  0  0  0  0  0
  -44.2640  -22.0904  211.5811 C   0  0  0  0  0  0  0  0  0  0  0  0
  -44.5001  -22.5200  210.1260 C   0  0  0  0  0  0  0  0  0  0  0  0
  -45.8370  -23.2328  209.9138 C   0  0  0  0  0  0  0  0  0  0  0  0
  -45.7355  -24.5153  209.0768 C   0  0  0  0  0  0  0  0  0  0  0  0
  -47.0652  -25.1915  208.7276 C   0  0  0  0  0  0  0  0  0  0  0  0
  -47.1786  -26.6994  208.9657 C   0  0  0  0  0  0  0  0  0  0  0  0
  -48.5443  -27.1994  209.4476 C   0  0  0  0  0  0  0  0  0  0  0  0
  -49.7300  -26.5079  208.7717 C   0  0  0  0  0  0  0  0  0  0  0  0
  -50.5786  -27.5141  207.9783 C   0  0  0  0  0  0  0  0  0  0  0  0
  -51.7562  -28.0275  208.8163 C   0  0  0  0  0  0  0  0  0  0  0  0
  -51.8153  -29.5341  209.1326 C   0  0  1  0  0  0  0  0  0  0  0  0
  -51.0687  -29.7859  210.3482 O   0  0  0  0  0  0  0  0  0  0  0  0
  -53.1963  -30.2160  209.3294 C   0  0  1  0  0  0  0  0  0  0  0  0
  -53.8503  -29.6910  210.5069 O   0  0  0  0  0  0  0  0  0  0  0  0
  -54.2165  -30.3026  208.1590 C   0  0  2  0  0  0  0  0  0  0  0  0
  -55.4283  -31.2247  208.3588 C   0  0  0  0  0  0  0  0  0  0  0  0
  -57.3166  -30.4147  207.5333 O   0  0  0  0  0  0  0  0  0  0  0  0
  -56.4388  -28.9361  210.0002 O   0  0  0  0  0  0  0  0  0  0  0  0
  -56.0943  -26.7629  211.3611 O   0  0  0  0  0  0  0  0  0  0  0  0
  -60.3965  -28.3728  211.6519 C   0  0  0  0  0  0  0  0  0  0  0  0
  -60.4588  -26.8936  211.9506 C   0  0  0  0  0  0  0  0  0  0  0  0
  -61.2990  -26.0547  211.2047 C   0  0  0  0  0  0  0  0  0  0  0  0
  -61.3458  -24.6849  211.4720 C   0  0  0  0  0  0  0  0  0  0  0  0
  -60.5353  -24.1212  212.4705 C   0  0  0  0  0  0  0  0  0  0  0  0
  -60.5795  -22.6395  212.7445 C   0  0  2  0  0  0  0  0  0  0  0  0
  -59.8908  -22.2792  213.8618 F   0  0  0  0  0  0  0  0  0  0  0  0
  -61.8465  -22.1784  212.9278 F   0  0  0  0  0  0  0  0  0  0  0  0
  -60.0561  -21.8967  211.7323 F   0  0  0  0  0  0  0  0  0  0  0  0
  -59.6899  -24.9598  213.2139 C   0  0  0  0  0  0  0  0  0  0  0  0
  -59.6608  -26.3318  212.9588 C   0  0  0  0  0  0  0  0  0  0  0  0
  -53.4789  -30.6533  206.9355 N   0  0  0  0  0  0  0  0  0  0  0  0
  -52.1420  -30.4026  206.7518 C   0  0  0  0  0  0  0  0  0  0  0  0
  -51.6211  -29.3230  207.0123 O   0  0  0  0  0  0  0  0  0  0  0  0
  -51.3767  -31.6085  206.2429 C   0  0  0  0  0  0  0  0  0  0  0  0
  -50.7662  -31.3598  204.8611 C   0  0  0  0  0  0  0  0  0  0  0  0
  -49.3440  -30.8080  204.9785 C   0  0  0  0  0  0  0  0  0  0  0  0
  -48.6843  -30.5238  203.6265 C   0  0  0  0  0  0  0  0  0  0  0  0
  -48.1913  -31.7482  202.8458 C   0  0  0  0  0  0  0  0  0  0  0  0
  -47.4876  -31.3873  201.5375 C   0  0  0  0  0  0  0  0  0  0  0  0
  -46.0712  -31.9709  201.4633 C   0  0  0  0  0  0  0  0  0  0  0  0
  -46.0082  -33.0912  200.4233 C   0  0  0  0  0  0  0  0  0  0  0  0
  -45.1854  -32.7460  199.1771 C   0  0  0  0  0  0  0  0  0  0  0  0
  -45.8906  -33.0017  197.8374 C   0  0  0  0  0  0  0  0  0  0  0  0
  -45.4667  -32.1478  196.6410 C   0  0  0  0  0  0  0  0  0  0  0  0
  -43.9765  -32.1975  196.2823 C   0  0  0  0  0  0  0  0  0  0  0  0
  -43.6702  -32.9725  195.0055 C   0  0  0  0  0  0  0  0  0  0  0  0
  -43.4280  -32.0534  193.8086 C   0  0  0  0  0  0  0  0  0  0  0  0
  -42.4321  -32.5987  192.7791 C   0  0  0  0  0  0  0  0  0  0  0  0
  -42.8975  -32.6215  191.3182 C   0  0  0  0  0  0  0  0  0  0  0  0
  -41.8586  -33.1631  190.3299 C   0  0  0  0  0  0  0  0  0  0  0  0
  -42.3643  -33.0943  188.8857 C   0  0  0  0  0  0  0  0  0  0  0  0
  -43.1020  -34.3590  188.4469 C   0  0  0  0  0  0  0  0  0  0  0  0
  -42.8646  -34.7448  186.9851 C   0  0  0  0  0  0  0  0  0  0  0  0
  -42.2820  -36.1574  186.8795 C   0  0  0  0  0  0  0  0  0  0  0  0
  -42.0911  -36.5784  185.4231 C   0  0  0  0  0  0  0  0  0  0  0  0
  -43.2819  -37.3429  184.8331 C   0  0  0  0  0  0  0  0  0  0  0  0
  -43.0838  -37.8002  183.3839 C   0  0  0  0  0  0  0  0  0  0  0  0
  -44.3202  -38.4642  182.7964 C   0  0  0  0  0  0  0  0  0  0  0  0
  1  6  1  0
  1  8  1  6
  1 31  1  0
  2  3  1  0
  6  2  1  0
  2  9  1  1
  4  3  1  0
  3  7  1  1
  4  5  1  1
 31  4  1  0
  5 32  1  0
  6 30  1  6
  7 33  1  0
 29  8  1  0
 11 10  1  0
 12 11  1  0
 13 12  1  0
 14 13  1  0
 15 14  1  0
 16 15  1  0
 17 16  1  0
 18 17  1  0
 19 18  1  0
 20 19  1  0
 21 20  1  0
 22 21  1  0
 23 22  1  0
 24 23  1  0
 24 25  1  1
 26 24  1  0
 26 27  1  1
 28 26  1  0
 28 29  1  1
 28 44  1  0
 33 34  1  0
 34 35  2  0
 34 43  1  0
 35 36  1  0
 36 37  2  0
 37 38  1  0
 37 42  1  0
 38 39  1  1
 38 40  1  0
 38 41  1  0
 42 43  2  0
 44 45  1  0
 45 46  2  0
 45 47  1  0
 47 48  1  0
 48 49  1  0
 49 50  1  0
 50 51  1  0
 51 52  1  0
 52 53  1  0
 53 54  1  0
 54 55  1  0
 55 56  1  0
 56 57  1  0
 57 58  1  0
 58 59  1  0
 59 60  1  0
 60 61  1  0
 61 62  1  0
 62 63  1  0
 63 64  1  0
 64 65  1  0
 65 66  1  0
 66 67  1  0
 67 68  1  0
 68 69  1  0
 69 70  1  0
 70 71  1  0
M  END
$$$$
