
     RDKit          3D

 71 72  0  0  0  0  0  0  0  0999 V2000
  -50.4736  -25.6436  208.8569 C   0  0  1  0  0  0  0  0  0  0  0  0
  -51.7733  -24.9316  210.9515 C   0  0  1  0  0  0  0  0  0  0  0  0
  -52.8525  -24.7514  209.8610 C   0  0  2  0  0  0  0  0  0  0  0  0
  -52.8520  -26.0469  209.0220 C   0  0  1  0  0  0  0  0  0  0  0  0
  -54.0308  -26.1879  208.0470 C   0  0  0  0  0  0  0  0  0  0  0  0
  -50.4893  -25.5767  210.4038 C   0  0  1  0  0  0  0  0  0  0  0  0
  -52.5401  -23.5945  209.0682 O   0  0  0  0  0  0  0  0  0  0  0  0
  -49.3118  -26.4040  208.4849 O   0  0  0  0  0  0  0  0  0  0  0  0
  -51.4715  -23.6878  211.6055 O   0  0  0  0  0  0  0  0  0  0  0  0
  -47.6989  -39.8787  194.2753 C   0  0  0  0  0  0  0  0  0  0  0  0
  -46.9667  -38.5539  194.1248 C   0  0  0  0  0  0  0  0  0  0  0  0
  -47.8329  -37.3346  194.4478 C   0  0  0  0  0  0  0  0  0  0  0  0
  -47.0957  -36.0021  194.2771 C   0  0  0  0  0  0  0  0  0  0  0  0
  -47.9590  -34.7824  194.6221 C   0  0  0  0  0  0  0  0  0  0  0  0
  -47.3152  -33.7451  195.5532 C   0  0  0  0  0  0  0  0  0  0  0  0
  -48.2246  -32.5517  195.8522 C   0  0  0  0  0  0  0  0  0  0  0  0
  -47.6021  -31.5121  196.7941 C   0  0  0  0  0  0  0  0  0  0  0  0
  -47.5495  -31.9002  198.2754 C   0  0  0  0  0  0  0  0  0  0  0  0
  -46.4196  -31.3110  199.1235 C   0  0  0  0  0  0  0  0  0  0  0  0
  -46.7161  -29.9633  199.7891 C   0  0  0  0  0  0  0  0  0  0  0  0
  -46.0811  -29.8031  201.1719 C   0  0  0  0  0  0  0  0  0  0  0  0
  -47.1546  -29.6110  202.2549 C   0  0  0  0  0  0  0  0  0  0  0  0
  -46.5324  -29.1310  203.5722 C   0  0  0  0  0  0  0  0  0  0  0  0
  -47.3121  -29.3890  204.8756 C   0  0  1  0  0  0  0  0  0  0  0  0
  -46.3726  -29.4584  205.9760 O   0  0  0  0  0  0  0  0  0  0  0  0
  -48.4123  -28.3851  205.3147 C   0  0  1  0  0  0  0  0  0  0  0  0
  -49.7017  -28.8054  204.8141 O   0  0  0  0  0  0  0  0  0  0  0  0
  -48.5451  -27.9480  206.8010 C   0  0  2  0  0  0  0  0  0  0  0  0
  -49.2006  -26.5852  207.0698 C   0  0  0  0  0  0  0  0  0  0  0  0
  -50.4213  -26.9106  210.9671 O   0  0  0  0  0  0  0  0  0  0  0  0
  -51.6324  -26.2587  208.2930 O   0  0  0  0  0  0  0  0  0  0  0  0
  -53.7489  -25.6791  206.7427 O   0  0  0  0  0  0  0  0  0  0  0  0
  -53.4726  -22.5204  209.2128 C   0  0  0  0  0  0  0  0  0  0  0  0
  -52.9391  -21.4271  210.1079 C   0  0  0  0  0  0  0  0  0  0  0  0
  -53.0536  -21.5331  211.5014 C   0  0  0  0  0  0  0  0  0  0  0  0
  -52.5727  -20.5155  212.3281 C   0  0  0  0  0  0  0  0  0  0  0  0
  -51.9927  -19.3603  211.7797 C   0  0  0  0  0  0  0  0  0  0  0  0
  -51.4887  -18.2588  212.6769 C   0  0  2  0  0  0  0  0  0  0  0  0
  -50.4576  -17.5545  212.1352 F   0  0  0  0  0  0  0  0  0  0  0  0
  -51.0303  -18.7240  213.8706 F   0  0  0  0  0  0  0  0  0  0  0  0
  -52.4455  -17.3401  212.9783 F   0  0  0  0  0  0  0  0  0  0  0  0
  -51.8828  -19.2513  210.3845 C   0  0  0  0  0  0  0  0  0  0  0  0
  -52.3451  -20.2794  209.5614 C   0  0  0  0  0  0  0  0  0  0  0  0
  -47.2135  -28.0278  207.4211 N   0  0  0  0  0  0  0  0  0  0  0  0
  -46.4277  -29.1529  207.3997 C   0  0  0  0  0  0  0  0  0  0  0  0
  -46.0373  -29.6774  206.3618 O   0  0  0  0  0  0  0  0  0  0  0  0
  -46.0574  -29.6445  208.7854 C   0  0  0  0  0  0  0  0  0  0  0  0
  -44.8235  -30.5505  208.7624 C   0  0  0  0  0  0  0  0  0  0  0  0
  -43.7291  -29.9679  207.8660 C   0  0  0  0  0  0  0  0  0  0  0  0
  -42.3141  -30.1823  208.4098 C   0  0  0  0  0  0  0  0  0  0  0  0
  -41.7784  -29.0915  209.3451 C   0  0  0  0  0  0  0  0  0  0  0  0
  -41.3102  -27.8380  208.6056 C   0  0  0  0  0  0  0  0  0  0  0  0
  -40.0593  -27.2233  209.2454 C   0  0  0  0  0  0  0  0  0  0  0  0
  -40.3154  -25.7640  209.6263 C   0  0  0  0  0  0  0  0  0  0  0  0
  -40.8071  -25.5670  211.0646 C   0  0  0  0  0  0  0  0  0  0  0  0
  -41.3660  -24.1719  211.3785 C   0  0  0  0  0  0  0  0  0  0  0  0
  -42.8857  -23.9975  211.3557 C   0  0  0  0  0  0  0  0  0  0  0  0
  -43.5351  -23.6408  212.6984 C   0  0  0  0  0  0  0  0  0  0  0  0
  -44.7811  -22.7710  212.5743 C   0  0  0  0  0  0  0  0  0  0  0  0
  -45.3678  -22.3944  213.9345 C   0  0  0  0  0  0  0  0  0  0  0  0
  -46.8082  -21.8728  213.8835 C   0  0  0  0  0  0  0  0  0  0  0  0
  -47.8148  -22.7115  213.0869 C   0  0  0  0  0  0  0  0  0  0  0  0
  -49.2296  -22.1241  213.0351 C   0  0  0  0  0  0  0  0  0  0  0  0
  -49.2925  -20.8824  212.1404 C   0  0  0  0  0  0  0  0  0  0  0  0
  -50.6484  -20.7017  211.4585 C   0  0  0  0  0  0  0  0  0  0  0  0
  -51.3582  -19.3942  211.8168 C   0  0  0  0  0  0  0  0  0  0  0  0
  -52.7051  -19.6698  212.4921 C   0  0  0  0  0  0  0  0  0  0  0  0
  -53.2466  -18.4249  213.1935 C   0  0  0  0  0  0  0  0  0  0  0  0
  -53.7936  -17.3582  212.2377 C   0  0  0  0  0  0  0  0  0  0  0  0
  -54.4269  -16.1496  212.9355 C   0  0  0  0  0  0  0  0  0  0  0  0
  -53.4185  -15.0596  213.2669 C   0  0  0  0  0  0  0  0  0  0  0  0
  1  6  1  0
  1  8  1  1
  1 31  1  0
  2  3  1  0
  6  2  1  0
  2  9  1  6
  4  3  1  0
  3  7  1  6
  4  5  1  6
 31  4  1  0
  5 32  1  0
  6 30  1  1
  7 33  1  0
 29  8  1  0
 11 10  1  0
 12 11  1  0
 13 12  1  0
 14 13  1  0
 15 14  1  0
 16 15  1  0
 17 16  1  0
 18 17  1  0
 19 18  1  0
 20 19  1  0
 21 20  1  0
 22 21  1  0
 23 22  1  0
 24 23  1  0
 24 25  1  1
 26 24  1  0
 26 27  1  1
 28 26  1  0
 28 29  1  6
 28 44  1  0
 33 34  1  0
 34 35  2  0
 34 43  1  0
 35 36  1  0
 36 37  2  0
 37 38  1  0
 37 42  1  0
 38 39  1  6
 38 40  1  0
 38 41  1  0
 42 43  2  0
 44 45  1  0
 45 46  2  0
 45 47  1  0
 47 48  1  0
 48 49  1  0
 49 50  1  0
 50 51  1  0
 51 52  1  0
 52 53  1  0
 53 54  1  0
 54 55  1  0
 55 56  1  0
 56 57  1  0
 57 58  1  0
 58 59  1  0
 59 60  1  0
 60 61  1  0
 61 62  1  0
 62 63  1  0
 63 64  1  0
 64 65  1  0
 65 66  1  0
 66 67  1  0
 67 68  1  0
 68 69  1  0
 69 70  1  0
 70 71  1  0
M  END
$$$$
