
     RDKit          3D

 71 72  0  0  0  0  0  0  0  0999 V2000
  -57.3943  -32.0045  207.9113 C   0  0  1  0  0  0  0  0  0  0  0  0
  -57.2983  -34.5211  207.4200 C   0  0  1  0  0  0  0  0  0  0  0  0
  -58.6320  -34.1399  206.7400 C   0  0  2  0  0  0  0  0  0  0  0  0
  -58.3451  -32.8947  205.8741 C   0  0  1  0  0  0  0  0  0  0  0  0
  -59.4719  -32.5059  204.9049 C   0  0  0  0  0  0  0  0  0  0  0  0
  -56.5354  -33.2924  207.9428 C   0  0  1  0  0  0  0  0  0  0  0  0
  -59.6232  -33.8805  207.7473 O   0  0  0  0  0  0  0  0  0  0  0  0
  -56.5253  -30.9158  208.2659 O   0  0  0  0  0  0  0  0  0  0  0  0
  -57.4986  -35.4753  208.4760 O   0  0  0  0  0  0  0  0  0  0  0  0
  -40.7940  -21.4297  207.4018 C   0  0  0  0  0  0  0  0  0  0  0  0
  -42.2349  -21.8131  207.1011 C   0  0  0  0  0  0  0  0  0  0  0  0
  -42.8998  -20.9219  206.0498 C   0  0  0  0  0  0  0  0  0  0  0  0
  -44.3485  -21.3175  205.7452 C   0  0  0  0  0  0  0  0  0  0  0  0
  -44.4655  -22.6049  204.9200 C   0  0  0  0  0  0  0  0  0  0  0  0
  -45.8777  -22.9700  204.4407 C   0  0  0  0  0  0  0  0  0  0  0  0
  -46.1734  -24.4693  204.5120 C   0  0  0  0  0  0  0  0  0  0  0  0
  -47.0712  -24.8740  205.6892 C   0  0  0  0  0  0  0  0  0  0  0  0
  -47.5229  -26.3378  205.7119 C   0  0  0  0  0  0  0  0  0  0  0  0
  -48.0987  -26.9229  204.4199 C   0  0  0  0  0  0  0  0  0  0  0  0
  -49.4650  -27.6047  204.5453 C   0  0  0  0  0  0  0  0  0  0  0  0
  -49.4538  -28.8553  205.4267 C   0  0  0  0  0  0  0  0  0  0  0  0
  -50.7308  -29.6862  205.2245 C   0  0  0  0  0  0  0  0  0  0  0  0
  -51.9810  -28.7983  205.2637 C   0  0  0  0  0  0  0  0  0  0  0  0
  -53.3205  -29.4535  205.6507 C   0  0  1  0  0  0  0  0  0  0  0  0
  -53.8531  -30.1457  204.4951 O   0  0  0  0  0  0  0  0  0  0  0  0
  -53.3569  -30.4774  206.8175 C   0  0  1  0  0  0  0  0  0  0  0  0
  -52.0128  -30.8288  207.2169 O   0  0  0  0  0  0  0  0  0  0  0  0
  -54.2267  -30.2167  208.0798 C   0  0  2  0  0  0  0  0  0  0  0  0
  -55.1809  -31.3400  208.5117 C   0  0  0  0  0  0  0  0  0  0  0  0
  -55.3660  -33.1396  207.0998 O   0  0  0  0  0  0  0  0  0  0  0  0
  -57.9840  -31.7338  206.6393 O   0  0  0  0  0  0  0  0  0  0  0  0
  -60.0716  -31.2467  205.2121 O   0  0  0  0  0  0  0  0  0  0  0  0
  -60.7182  -34.7996  207.7370 C   0  0  0  0  0  0  0  0  0  0  0  0
  -61.8454  -34.3241  206.8513 C   0  0  0  0  0  0  0  0  0  0  0  0
  -61.8390  -34.6136  205.4793 C   0  0  0  0  0  0  0  0  0  0  0  0
  -62.8744  -34.1618  204.6583 C   0  0  0  0  0  0  0  0  0  0  0  0
  -63.9221  -33.3895  205.1851 C   0  0  0  0  0  0  0  0  0  0  0  0
  -65.0293  -32.8924  204.2909 C   0  0  2  0  0  0  0  0  0  0  0  0
  -65.7986  -33.8932  203.7819 F   0  0  0  0  0  0  0  0  0  0  0  0
  -64.5634  -32.2019  203.2150 F   0  0  0  0  0  0  0  0  0  0  0  0
  -65.8893  -32.0528  204.9278 F   0  0  0  0  0  0  0  0  0  0  0  0
  -63.9261  -33.0948  206.5575 C   0  0  0  0  0  0  0  0  0  0  0  0
  -62.9010  -33.5655  207.3796 C   0  0  0  0  0  0  0  0  0  0  0  0
  -54.9512  -28.9518  207.8818 N   0  0  0  0  0  0  0  0  0  0  0  0
  -54.5321  -27.7453  208.3842 C   0  0  0  0  0  0  0  0  0  0  0  0
  -53.6483  -27.6421  209.2285 O   0  0  0  0  0  0  0  0  0  0  0  0
  -55.2393  -26.5619  207.7529 C   0  0  0  0  0  0  0  0  0  0  0  0
  -54.3693  -25.3021  207.7612 C   0  0  0  0  0  0  0  0  0  0  0  0
  -53.5935  -25.1601  206.4501 C   0  0  0  0  0  0  0  0  0  0  0  0
  -52.7678  -23.8737  206.3641 C   0  0  0  0  0  0  0  0  0  0  0  0
  -51.2450  -24.0443  206.4247 C   0  0  0  0  0  0  0  0  0  0  0  0
  -50.5508  -22.9766  207.2705 C   0  0  0  0  0  0  0  0  0  0  0  0
  -49.2282  -23.4787  207.8628 C   0  0  0  0  0  0  0  0  0  0  0  0
  -48.1716  -22.3728  207.8258 C   0  0  0  0  0  0  0  0  0  0  0  0
  -46.7589  -22.8411  208.1922 C   0  0  0  0  0  0  0  0  0  0  0  0
  -45.6197  -21.9654  207.6511 C   0  0  0  0  0  0  0  0  0  0  0  0
  -45.1157  -20.8298  208.5438 C   0  0  0  0  0  0  0  0  0  0  0  0
  -45.3358  -21.0190  210.0496 C   0  0  0  0  0  0  0  0  0  0  0  0
  -44.0879  -20.7859  210.8940 C   0  0  0  0  0  0  0  0  0  0  0  0
  -44.2288  -21.3434  212.3102 C   0  0  0  0  0  0  0  0  0  0  0  0
  -43.4218  -20.5903  213.3735 C   0  0  0  0  0  0  0  0  0  0  0  0
  -43.9168  -19.1877  213.7461 C   0  0  0  0  0  0  0  0  0  0  0  0
  -43.7903  -18.8450  215.2347 C   0  0  0  0  0  0  0  0  0  0  0  0
  -44.4531  -17.5037  215.5631 C   0  0  0  0  0  0  0  0  0  0  0  0
  -43.9469  -16.8870  216.8668 C   0  0  0  0  0  0  0  0  0  0  0  0
  -42.4258  -16.9311  217.0290 C   0  0  0  0  0  0  0  0  0  0  0  0
  -41.8575  -15.5256  217.2471 C   0  0  0  0  0  0  0  0  0  0  0  0
  -42.9677  -14.4802  217.3458 C   0  0  0  0  0  0  0  0  0  0  0  0
  -42.5723  -13.2217  218.1270 C   0  0  0  0  0  0  0  0  0  0  0  0
  -41.0850  -13.1436  218.4884 C   0  0  0  0  0  0  0  0  0  0  0  0
  -40.7345  -11.9029  219.2961 C   0  0  0  0  0  0  0  0  0  0  0  0
  1  6  1  0
  1  8  1  6
  1 31  1  0
  2  3  1  0
  6  2  1  0
  2  9  1  1
  4  3  1  0
  3  7  1  1
  4  5  1  1
 31  4  1  0
  5 32  1  0
  6 30  1  6
  7 33  1  0
 29  8  1  0
 11 10  1  0
 12 11  1  0
 13 12  1  0
 14 13  1  0
 15 14  1  0
 16 15  1  0
 17 16  1  0
 18 17  1  0
 19 18  1  0
 20 19  1  0
 21 20  1  0
 22 21  1  0
 23 22  1  0
 24 23  1  0
 24 25  1  6
 26 24  1  0
 26 27  1  1
 28 26  1  0
 28 29  1  6
 28 44  1  0
 33 34  1  0
 34 35  2  0
 34 43  1  0
 35 36  1  0
 36 37  2  0
 37 38  1  0
 37 42  1  0
 38 39  1  6
 38 40  1  0
 38 41  1  0
 42 43  2  0
 44 45  1  0
 45 46  2  0
 45 47  1  0
 47 48  1  0
 48 49  1  0
 49 50  1  0
 50 51  1  0
 51 52  1  0
 52 53  1  0
 53 54  1  0
 54 55  1  0
 55 56  1  0
 56 57  1  0
 57 58  1  0
 58 59  1  0
 59 60  1  0
 60 61  1  0
 61 62  1  0
 62 63  1  0
 63 64  1  0
 64 65  1  0
 65 66  1  0
 66 67  1  0
 67 68  1  0
 68 69  1  0
 69 70  1  0
 70 71  1  0
M  END
$$$$
