
     RDKit          3D

 71 72  0  0  0  0  0  0  0  0999 V2000
  -48.7005  -29.2615  205.2229 C   0  0  1  0  0  0  0  0  0  0  0  0
  -46.5628  -30.5893  204.7221 C   0  0  1  0  0  0  0  0  0  0  0  0
  -46.3956  -30.3234  206.2346 C   0  0  2  0  0  0  0  0  0  0  0  0
  -47.7335  -30.7095  206.9006 C   0  0  1  0  0  0  0  0  0  0  0  0
  -47.6989  -30.7729  208.4352 C   0  0  0  0  0  0  0  0  0  0  0  0
  -47.9295  -30.1231  204.1931 C   0  0  1  0  0  0  0  0  0  0  0  0
  -46.0690  -28.9396  206.4418 O   0  0  0  0  0  0  0  0  0  0  0  0
  -50.0096  -29.0307  204.6757 O   0  0  0  0  0  0  0  0  0  0  0  0
  -45.4992  -29.9932  203.9611 O   0  0  0  0  0  0  0  0  0  0  0  0
  -44.6592  -35.6646  195.1937 C   0  0  0  0  0  0  0  0  0  0  0  0
  -46.1614  -35.7740  195.4065 C   0  0  0  0  0  0  0  0  0  0  0  0
  -46.9741  -35.6485  194.1161 C   0  0  0  0  0  0  0  0  0  0  0  0
  -48.4741  -35.8902  194.3158 C   0  0  0  0  0  0  0  0  0  0  0  0
  -49.2095  -34.6828  194.9103 C   0  0  0  0  0  0  0  0  0  0  0  0
  -50.1352  -34.9783  196.0992 C   0  0  0  0  0  0  0  0  0  0  0  0
  -50.7697  -33.7226  196.7001 C   0  0  0  0  0  0  0  0  0  0  0  0
  -51.6870  -33.9986  197.8992 C   0  0  0  0  0  0  0  0  0  0  0  0
  -52.1425  -32.7670  198.6886 C   0  0  0  0  0  0  0  0  0  0  0  0
  -52.8068  -33.0011  200.0477 C   0  0  0  0  0  0  0  0  0  0  0  0
  -53.9653  -32.0612  200.3965 C   0  0  0  0  0  0  0  0  0  0  0  0
  -53.6038  -30.9895  201.4269 C   0  0  0  0  0  0  0  0  0  0  0  0
  -54.7212  -30.8246  202.4691 C   0  0  0  0  0  0  0  0  0  0  0  0
  -54.5726  -29.5046  203.2362 C   0  0  0  0  0  0  0  0  0  0  0  0
  -53.5899  -28.4547  202.6837 C   0  0  1  0  0  0  0  0  0  0  0  0
  -54.3459  -27.4025  202.0358 O   0  0  0  0  0  0  0  0  0  0  0  0
  -52.6121  -27.7423  203.6570 C   0  0  1  0  0  0  0  0  0  0  0  0
  -52.9789  -26.3520  203.8060 O   0  0  0  0  0  0  0  0  0  0  0  0
  -52.2908  -28.3510  205.0514 C   0  0  2  0  0  0  0  0  0  0  0  0
  -50.8381  -28.2457  205.5388 C   0  0  0  0  0  0  0  0  0  0  0  0
  -48.6817  -31.3202  203.8732 O   0  0  0  0  0  0  0  0  0  0  0  0
  -48.8338  -29.8747  206.5056 O   0  0  0  0  0  0  0  0  0  0  0  0
  -47.5759  -32.1020  208.9429 O   0  0  0  0  0  0  0  0  0  0  0  0
  -44.8250  -28.7293  207.1142 C   0  0  0  0  0  0  0  0  0  0  0  0
  -43.9617  -29.9687  207.1039 C   0  0  0  0  0  0  0  0  0  0  0  0
  -42.6298  -29.9083  207.5381 C   0  0  0  0  0  0  0  0  0  0  0  0
  -41.8280  -31.0514  207.5152 C   0  0  0  0  0  0  0  0  0  0  0  0
  -42.3312  -32.2705  207.0333 C   0  0  0  0  0  0  0  0  0  0  0  0
  -41.4562  -33.4975  206.9975 C   0  0  2  0  0  0  0  0  0  0  0  0
  -42.0994  -34.6276  207.3998 F   0  0  0  0  0  0  0  0  0  0  0  0
  -40.3659  -33.3870  207.8040 F   0  0  0  0  0  0  0  0  0  0  0  0
  -40.9739  -33.7694  205.7550 F   0  0  0  0  0  0  0  0  0  0  0  0
  -43.6629  -32.3301  206.5934 C   0  0  0  0  0  0  0  0  0  0  0  0
  -44.4684  -31.1911  206.6372 C   0  0  0  0  0  0  0  0  0  0  0  0
  -52.7524  -29.7478  205.0571 N   0  0  0  0  0  0  0  0  0  0  0  0
  -52.9426  -30.4842  206.1996 C   0  0  0  0  0  0  0  0  0  0  0  0
  -52.9989  -31.7096  206.2049 O   0  0  0  0  0  0  0  0  0  0  0  0
  -53.0260  -29.6296  207.4492 C   0  0  0  0  0  0  0  0  0  0  0  0
  -53.3893  -30.4553  208.6862 C   0  0  0  0  0  0  0  0  0  0  0  0
  -53.2929  -29.6119  209.9591 C   0  0  0  0  0  0  0  0  0  0  0  0
  -54.2996  -28.4594  210.0072 C   0  0  0  0  0  0  0  0  0  0  0  0
  -54.8462  -28.0986  211.3939 C   0  0  0  0  0  0  0  0  0  0  0  0
  -55.7161  -26.8414  211.3919 C   0  0  0  0  0  0  0  0  0  0  0  0
  -55.3159  -25.8603  212.5007 C   0  0  0  0  0  0  0  0  0  0  0  0
  -55.5600  -24.4181  212.0524 C   0  0  0  0  0  0  0  0  0  0  0  0
  -55.7546  -23.4264  213.2047 C   0  0  0  0  0  0  0  0  0  0  0  0
  -55.7666  -21.9461  212.7973 C   0  0  0  0  0  0  0  0  0  0  0  0
  -54.5507  -21.0986  213.1764 C   0  0  0  0  0  0  0  0  0  0  0  0
  -54.8107  -19.9773  214.1899 C   0  0  0  0  0  0  0  0  0  0  0  0
  -54.0715  -18.6794  213.8837 C   0  0  0  0  0  0  0  0  0  0  0  0
  -53.2986  -18.1491  215.0909 C   0  0  0  0  0  0  0  0  0  0  0  0
  -51.9310  -17.5441  214.7549 C   0  0  0  0  0  0  0  0  0  0  0  0
  -51.6541  -17.2511  213.2756 C   0  0  0  0  0  0  0  0  0  0  0  0
  -50.6283  -16.1389  213.0304 C   0  0  0  0  0  0  0  0  0  0  0  0
  -49.8839  -16.3397  211.7069 C   0  0  0  0  0  0  0  0  0  0  0  0
  -48.3834  -16.0694  211.8148 C   0  0  0  0  0  0  0  0  0  0  0  0
  -47.7819  -15.3870  210.5842 C   0  0  0  0  0  0  0  0  0  0  0  0
  -47.1480  -14.0437  210.9582 C   0  0  0  0  0  0  0  0  0  0  0  0
  -45.7851  -14.2319  211.6232 C   0  0  0  0  0  0  0  0  0  0  0  0
  -45.1178  -15.5761  211.3094 C   0  0  0  0  0  0  0  0  0  0  0  0
  -43.7001  -15.7243  211.8721 C   0  0  0  0  0  0  0  0  0  0  0  0
  -43.1085  -17.1057  211.6349 C   0  0  0  0  0  0  0  0  0  0  0  0
  1  6  1  0
  1  8  1  6
  1 31  1  0
  2  3  1  0
  6  2  1  0
  2  9  1  6
  4  3  1  0
  3  7  1  6
  4  5  1  1
 31  4  1  0
  5 32  1  0
  6 30  1  1
  7 33  1  0
 29  8  1  0
 11 10  1  0
 12 11  1  0
 13 12  1  0
 14 13  1  0
 15 14  1  0
 16 15  1  0
 17 16  1  0
 18 17  1  0
 19 18  1  0
 20 19  1  0
 21 20  1  0
 22 21  1  0
 23 22  1  0
 24 23  1  0
 24 25  1  1
 26 24  1  0
 26 27  1  1
 28 26  1  0
 28 29  1  6
 28 44  1  0
 33 34  1  0
 34 35  2  0
 34 43  1  0
 35 36  1  0
 36 37  2  0
 37 38  1  0
 37 42  1  0
 38 39  1  1
 38 40  1  0
 38 41  1  0
 42 43  2  0
 44 45  1  0
 45 46  2  0
 45 47  1  0
 47 48  1  0
 48 49  1  0
 49 50  1  0
 50 51  1  0
 51 52  1  0
 52 53  1  0
 53 54  1  0
 54 55  1  0
 55 56  1  0
 56 57  1  0
 57 58  1  0
 58 59  1  0
 59 60  1  0
 60 61  1  0
 61 62  1  0
 62 63  1  0
 63 64  1  0
 64 65  1  0
 65 66  1  0
 66 67  1  0
 67 68  1  0
 68 69  1  0
 69 70  1  0
 70 71  1  0
M  END
$$$$
