
     RDKit          3D

 71 72  0  0  0  0  0  0  0  0999 V2000
  -52.2505  -28.9125  207.8462 C   0  0  1  0  0  0  0  0  0  0  0  0
  -53.6028  -27.2787  206.4021 C   0  0  1  0  0  0  0  0  0  0  0  0
  -52.6300  -27.8616  205.3532 C   0  0  2  0  0  0  0  0  0  0  0  0
  -52.6746  -29.3960  205.5154 C   0  0  1  0  0  0  0  0  0  0  0  0
  -51.9817  -30.1863  204.3950 C   0  0  0  0  0  0  0  0  0  0  0  0
  -53.4860  -27.9829  207.7643 C   0  0  1  0  0  0  0  0  0  0  0  0
  -51.3132  -27.3328  205.5790 O   0  0  0  0  0  0  0  0  0  0  0  0
  -52.3467  -29.6240  209.0916 O   0  0  0  0  0  0  0  0  0  0  0  0
  -53.4277  -25.8602  206.5529 O   0  0  0  0  0  0  0  0  0  0  0  0
  -52.1877  -19.1538  211.1422 C   0  0  0  0  0  0  0  0  0  0  0  0
  -52.4377  -20.5908  211.5737 C   0  0  0  0  0  0  0  0  0  0  0  0
  -53.3898  -20.7165  212.7650 C   0  0  0  0  0  0  0  0  0  0  0  0
  -53.6976  -22.1680  213.1474 C   0  0  0  0  0  0  0  0  0  0  0  0
  -55.1972  -22.4505  213.3004 C   0  0  0  0  0  0  0  0  0  0  0  0
  -55.5943  -23.3544  214.4763 C   0  0  0  0  0  0  0  0  0  0  0  0
  -57.1076  -23.5119  214.6357 C   0  0  0  0  0  0  0  0  0  0  0  0
  -57.5484  -24.9200  215.0582 C   0  0  0  0  0  0  0  0  0  0  0  0
  -58.5931  -25.5901  214.1599 C   0  0  0  0  0  0  0  0  0  0  0  0
  -59.0229  -27.0161  214.5133 C   0  0  0  0  0  0  0  0  0  0  0  0
  -58.2237  -28.1401  213.8459 C   0  0  0  0  0  0  0  0  0  0  0  0
  -58.2173  -28.0712  212.3174 C   0  0  0  0  0  0  0  0  0  0  0  0
  -57.0787  -28.9201  211.7300 C   0  0  0  0  0  0  0  0  0  0  0  0
  -57.2023  -29.0332  210.2053 C   0  0  0  0  0  0  0  0  0  0  0  0
  -56.4503  -30.1796  209.5026 C   0  0  1  0  0  0  0  0  0  0  0  0
  -56.5272  -29.9798  208.0700 O   0  0  0  0  0  0  0  0  0  0  0  0
  -54.9487  -30.4122  209.8224 C   0  0  1  0  0  0  0  0  0  0  0  0
  -54.7886  -30.8270  211.1980 O   0  0  0  0  0  0  0  0  0  0  0  0
  -54.0661  -31.3016  208.9015 C   0  0  2  0  0  0  0  0  0  0  0  0
  -52.5548  -31.0281  208.9105 C   0  0  0  0  0  0  0  0  0  0  0  0
  -54.7048  -28.7469  207.9432 O   0  0  0  0  0  0  0  0  0  0  0  0
  -52.1643  -29.8553  206.7772 O   0  0  0  0  0  0  0  0  0  0  0  0
  -50.5831  -30.3718  204.6165 O   0  0  0  0  0  0  0  0  0  0  0  0
  -50.9807  -26.2216  204.7433 C   0  0  0  0  0  0  0  0  0  0  0  0
  -49.5237  -26.2310  204.3457 C   0  0  0  0  0  0  0  0  0  0  0  0
  -48.5669  -26.8346  205.1742 C   0  0  0  0  0  0  0  0  0  0  0  0
  -47.2180  -26.8308  204.8130 C   0  0  0  0  0  0  0  0  0  0  0  0
  -46.7939  -26.2012  203.6317 C   0  0  0  0  0  0  0  0  0  0  0  0
  -45.3344  -26.1878  203.2546 C   0  0  2  0  0  0  0  0  0  0  0  0
  -45.1277  -26.1600  201.9095 F   0  0  0  0  0  0  0  0  0  0  0  0
  -44.6663  -27.2831  203.7076 F   0  0  0  0  0  0  0  0  0  0  0  0
  -44.6673  -25.1124  203.7531 F   0  0  0  0  0  0  0  0  0  0  0  0
  -47.7507  -25.5919  202.8047 C   0  0  0  0  0  0  0  0  0  0  0  0
  -49.1009  -25.6157  203.1577 C   0  0  0  0  0  0  0  0  0  0  0  0
  -54.6107  -31.2272  207.5369 N   0  0  0  0  0  0  0  0  0  0  0  0
  -53.9488  -31.6847  206.4250 C   0  0  0  0  0  0  0  0  0  0  0  0
  -52.8067  -31.3419  206.1372 O   0  0  0  0  0  0  0  0  0  0  0  0
  -54.7564  -32.6878  205.6246 C   0  0  0  0  0  0  0  0  0  0  0  0
  -54.5949  -32.4820  204.1162 C   0  0  0  0  0  0  0  0  0  0  0  0
  -53.7934  -33.6235  203.4873 C   0  0  0  0  0  0  0  0  0  0  0  0
  -53.1406  -33.2505  202.1537 C   0  0  0  0  0  0  0  0  0  0  0  0
  -52.4774  -34.3984  201.3829 C   0  0  0  0  0  0  0  0  0  0  0  0
  -52.4216  -34.1600  199.8738 C   0  0  0  0  0  0  0  0  0  0  0  0
  -51.0147  -33.7728  199.4018 C   0  0  0  0  0  0  0  0  0  0  0  0
  -50.8453  -34.0843  197.9135 C   0  0  0  0  0  0  0  0  0  0  0  0
  -49.4544  -34.6050  197.5349 C   0  0  0  0  0  0  0  0  0  0  0  0
  -48.3060  -33.6060  197.7359 C   0  0  0  0  0  0  0  0  0  0  0  0
  -46.9079  -34.0366  197.2883 C   0  0  0  0  0  0  0  0  0  0  0  0
  -46.0306  -32.9305  196.6893 C   0  0  0  0  0  0  0  0  0  0  0  0
  -46.3484  -31.5339  197.2120 C   0  0  0  0  0  0  0  0  0  0  0  0
  -45.4467  -30.4624  196.5998 C   0  0  0  0  0  0  0  0  0  0  0  0
  -43.9499  -30.7892  196.6445 C   0  0  0  0  0  0  0  0  0  0  0  0
  -43.0615  -29.8322  197.4482 C   0  0  0  0  0  0  0  0  0  0  0  0
  -41.5572  -30.0278  197.2286 C   0  0  0  0  0  0  0  0  0  0  0  0
  -40.9745  -31.0587  198.2002 C   0  0  0  0  0  0  0  0  0  0  0  0
  -40.5738  -30.4558  199.5463 C   0  0  0  0  0  0  0  0  0  0  0  0
  -40.0344  -31.4759  200.5514 C   0  0  0  0  0  0  0  0  0  0  0  0
  -41.1434  -31.9568  201.4921 C   0  0  0  0  0  0  0  0  0  0  0  0
  -40.5837  -32.8087  202.6305 C   0  0  0  0  0  0  0  0  0  0  0  0
  -40.6728  -34.3189  202.3818 C   0  0  0  0  0  0  0  0  0  0  0  0
  -40.1072  -35.1805  203.5160 C   0  0  0  0  0  0  0  0  0  0  0  0
  -40.3190  -36.6704  203.2923 C   0  0  0  0  0  0  0  0  0  0  0  0
  1  6  1  0
  1  8  1  1
  1 31  1  0
  2  3  1  0
  6  2  1  0
  2  9  1  1
  4  3  1  0
  3  7  1  1
  4  5  1  6
 31  4  1  0
  5 32  1  0
  6 30  1  6
  7 33  1  0
 29  8  1  0
 11 10  1  0
 12 11  1  0
 13 12  1  0
 14 13  1  0
 15 14  1  0
 16 15  1  0
 17 16  1  0
 18 17  1  0
 19 18  1  0
 20 19  1  0
 21 20  1  0
 22 21  1  0
 23 22  1  0
 24 23  1  0
 24 25  1  6
 26 24  1  0
 26 27  1  1
 28 26  1  0
 28 29  1  6
 28 44  1  0
 33 34  1  0
 34 35  2  0
 34 43  1  0
 35 36  1  0
 36 37  2  0
 37 38  1  0
 37 42  1  0
 38 39  1  6
 38 40  1  0
 38 41  1  0
 42 43  2  0
 44 45  1  0
 45 46  2  0
 45 47  1  0
 47 48  1  0
 48 49  1  0
 49 50  1  0
 50 51  1  0
 51 52  1  0
 52 53  1  0
 53 54  1  0
 54 55  1  0
 55 56  1  0
 56 57  1  0
 57 58  1  0
 58 59  1  0
 59 60  1  0
 60 61  1  0
 61 62  1  0
 62 63  1  0
 63 64  1  0
 64 65  1  0
 65 66  1  0
 66 67  1  0
 67 68  1  0
 68 69  1  0
 69 70  1  0
 70 71  1  0
M  END
$$$$
