
     RDKit          3D

 71 72  0  0  0  0  0  0  0  0999 V2000
  -56.6078  -29.6169  210.3460 C   0  0  1  0  0  0  0  0  0  0  0  0
  -57.7193  -27.3183  210.0920 C   0  0  1  0  0  0  0  0  0  0  0  0
  -57.6100  -27.4232  211.6294 C   0  0  2  0  0  0  0  0  0  0  0  0
  -56.1608  -27.8544  211.9398 C   0  0  1  0  0  0  0  0  0  0  0  0
  -55.7605  -27.7629  213.4202 C   0  0  0  0  0  0  0  0  0  0  0  0
  -57.0178  -28.4834  209.3742 C   0  0  1  0  0  0  0  0  0  0  0  0
  -58.5717  -28.3758  212.1114 O   0  0  0  0  0  0  0  0  0  0  0  0
  -55.8286  -30.5556  209.5857 O   0  0  0  0  0  0  0  0  0  0  0  0
  -59.0883  -27.2167  209.6664 O   0  0  0  0  0  0  0  0  0  0  0  0
  -41.7822  -31.5042  194.7822 C   0  0  0  0  0  0  0  0  0  0  0  0
  -42.2446  -31.4200  196.2290 C   0  0  0  0  0  0  0  0  0  0  0  0
  -43.3944  -30.4346  196.4487 C   0  0  0  0  0  0  0  0  0  0  0  0
  -44.0815  -30.5949  197.8090 C   0  0  0  0  0  0  0  0  0  0  0  0
  -45.1895  -29.5633  198.0547 C   0  0  0  0  0  0  0  0  0  0  0  0
  -45.9786  -29.7231  199.3620 C   0  0  0  0  0  0  0  0  0  0  0  0
  -46.9386  -30.9141  199.3489 C   0  0  0  0  0  0  0  0  0  0  0  0
  -48.4028  -30.5396  199.6162 C   0  0  0  0  0  0  0  0  0  0  0  0
  -48.8456  -30.5814  201.0824 C   0  0  0  0  0  0  0  0  0  0  0  0
  -47.9806  -31.3780  202.0624 C   0  0  0  0  0  0  0  0  0  0  0  0
  -48.3108  -31.1946  203.5472 C   0  0  0  0  0  0  0  0  0  0  0  0
  -49.8068  -31.0529  203.8354 C   0  0  0  0  0  0  0  0  0  0  0  0
  -50.0583  -30.7580  205.3226 C   0  0  0  0  0  0  0  0  0  0  0  0
  -51.5147  -31.0489  205.7062 C   0  0  0  0  0  0  0  0  0  0  0  0
  -52.4913  -29.8604  205.7882 C   0  0  1  0  0  0  0  0  0  0  0  0
  -52.5933  -29.2483  204.4792 O   0  0  0  0  0  0  0  0  0  0  0  0
  -53.9499  -30.1062  206.2606 C   0  0  1  0  0  0  0  0  0  0  0  0
  -54.5781  -31.1168  205.4398 O   0  0  0  0  0  0  0  0  0  0  0  0
  -54.2676  -30.3768  207.7586 C   0  0  2  0  0  0  0  0  0  0  0  0
  -55.7264  -30.1971  208.2041 C   0  0  0  0  0  0  0  0  0  0  0  0
  -55.8470  -27.9272  208.7252 O   0  0  0  0  0  0  0  0  0  0  0  0
  -55.8384  -29.1707  211.4632 O   0  0  0  0  0  0  0  0  0  0  0  0
  -54.7302  -28.6823  213.7845 O   0  0  0  0  0  0  0  0  0  0  0  0
  -59.3665  -27.9005  213.2006 C   0  0  0  0  0  0  0  0  0  0  0  0
  -60.3973  -28.9166  213.6321 C   0  0  0  0  0  0  0  0  0  0  0  0
  -60.0159  -30.0384  214.3820 C   0  0  0  0  0  0  0  0  0  0  0  0
  -60.9672  -30.9848  214.7688 C   0  0  0  0  0  0  0  0  0  0  0  0
  -62.3125  -30.8445  214.3919 C   0  0  0  0  0  0  0  0  0  0  0  0
  -63.3320  -31.8771  214.8002 C   0  0  2  0  0  0  0  0  0  0  0  0
  -62.8984  -32.6944  215.7986 F   0  0  0  0  0  0  0  0  0  0  0  0
  -63.6824  -32.7010  213.7755 F   0  0  0  0  0  0  0  0  0  0  0  0
  -64.4926  -31.3284  215.2499 F   0  0  0  0  0  0  0  0  0  0  0  0
  -62.6938  -29.7245  213.6365 C   0  0  0  0  0  0  0  0  0  0  0  0
  -61.7446  -28.7692  213.2693 C   0  0  0  0  0  0  0  0  0  0  0  0
  -53.3590  -29.5556  208.5735 N   0  0  0  0  0  0  0  0  0  0  0  0
  -52.4554  -30.0745  209.4669 C   0  0  0  0  0  0  0  0  0  0  0  0
  -52.2600  -31.2783  209.5988 O   0  0  0  0  0  0  0  0  0  0  0  0
  -51.6967  -29.0071  210.2311 C   0  0  0  0  0  0  0  0  0  0  0  0
  -50.3558  -28.6730  209.5724 C   0  0  0  0  0  0  0  0  0  0  0  0
  -49.5488  -27.6966  210.4305 C   0  0  0  0  0  0  0  0  0  0  0  0
  -48.1988  -27.3149  209.8175 C   0  0  0  0  0  0  0  0  0  0  0  0
  -47.3051  -26.4040  210.6679 C   0  0  0  0  0  0  0  0  0  0  0  0
  -46.3921  -27.1738  211.6224 C   0  0  0  0  0  0  0  0  0  0  0  0
  -45.5696  -26.2373  212.5161 C   0  0  0  0  0  0  0  0  0  0  0  0
  -44.4092  -25.6276  211.7271 C   0  0  0  0  0  0  0  0  0  0  0  0
  -44.0977  -24.1719  212.0918 C   0  0  0  0  0  0  0  0  0  0  0  0
  -42.7696  -23.6311  211.5432 C   0  0  0  0  0  0  0  0  0  0  0  0
  -42.6783  -22.1294  211.2659 C   0  0  0  0  0  0  0  0  0  0  0  0
  -42.8807  -21.2147  212.4800 C   0  0  0  0  0  0  0  0  0  0  0  0
  -43.2663  -19.7836  212.1223 C   0  0  0  0  0  0  0  0  0  0  0  0
  -44.5401  -19.3272  212.8332 C   0  0  0  0  0  0  0  0  0  0  0  0
  -44.9806  -17.8987  212.4944 C   0  0  0  0  0  0  0  0  0  0  0  0
  -46.2555  -17.3923  213.1794 C   0  0  0  0  0  0  0  0  0  0  0  0
  -46.6276  -15.9454  212.8371 C   0  0  0  0  0  0  0  0  0  0  0  0
  -46.6347  -15.7075  211.3240 C   0  0  0  0  0  0  0  0  0  0  0  0
  -46.9531  -14.2616  210.9449 C   0  0  0  0  0  0  0  0  0  0  0  0
  -48.2266  -14.1005  210.1117 C   0  0  0  0  0  0  0  0  0  0  0  0
  -48.2643  -15.1176  208.9671 C   0  0  0  0  0  0  0  0  0  0  0  0
  -49.6921  -15.3639  208.4817 C   0  0  0  0  0  0  0  0  0  0  0  0
  -49.7817  -16.2299  207.2197 C   0  0  0  0  0  0  0  0  0  0  0  0
  -51.1903  -16.7455  206.9058 C   0  0  0  0  0  0  0  0  0  0  0  0
  -51.2244  -17.6928  205.7159 C   0  0  0  0  0  0  0  0  0  0  0  0
  1  6  1  0
  1  8  1  6
  1 31  1  0
  2  3  1  0
  6  2  1  0
  2  9  1  1
  4  3  1  0
  3  7  1  6
  4  5  1  1
 31  4  1  0
  5 32  1  0
  6 30  1  1
  7 33  1  0
 29  8  1  0
 11 10  1  0
 12 11  1  0
 13 12  1  0
 14 13  1  0
 15 14  1  0
 16 15  1  0
 17 16  1  0
 18 17  1  0
 19 18  1  0
 20 19  1  0
 21 20  1  0
 22 21  1  0
 23 22  1  0
 24 23  1  0
 24 25  1  6
 26 24  1  0
 26 27  1  6
 28 26  1  0
 28 29  1  6
 28 44  1  0
 33 34  1  0
 34 35  2  0
 34 43  1  0
 35 36  1  0
 36 37  2  0
 37 38  1  0
 37 42  1  0
 38 39  1  1
 38 40  1  0
 38 41  1  0
 42 43  2  0
 44 45  1  0
 45 46  2  0
 45 47  1  0
 47 48  1  0
 48 49  1  0
 49 50  1  0
 50 51  1  0
 51 52  1  0
 52 53  1  0
 53 54  1  0
 54 55  1  0
 55 56  1  0
 56 57  1  0
 57 58  1  0
 58 59  1  0
 59 60  1  0
 60 61  1  0
 61 62  1  0
 62 63  1  0
 63 64  1  0
 64 65  1  0
 65 66  1  0
 66 67  1  0
 67 68  1  0
 68 69  1  0
 69 70  1  0
 70 71  1  0
M  END
$$$$
