
     RDKit          3D

 71 72  0  0  0  0  0  0  0  0999 V2000
  -54.2662  -28.4945  206.6926 C   0  0  1  0  0  0  0  0  0  0  0  0
  -54.9520  -30.4499  208.2058 C   0  0  1  0  0  0  0  0  0  0  0  0
  -54.9991  -31.1234  206.8163 C   0  0  2  0  0  0  0  0  0  0  0  0
  -53.6755  -30.7651  206.1077 C   0  0  1  0  0  0  0  0  0  0  0  0
  -53.3991  -31.5494  204.8160 C   0  0  0  0  0  0  0  0  0  0  0  0
  -54.3934  -29.0184  208.1440 C   0  0  1  0  0  0  0  0  0  0  0  0
  -56.1452  -30.6450  206.0936 O   0  0  0  0  0  0  0  0  0  0  0  0
  -53.5898  -27.2281  206.7648 O   0  0  0  0  0  0  0  0  0  0  0  0
  -56.2416  -30.4594  208.8403 O   0  0  0  0  0  0  0  0  0  0  0  0
  -40.4776  -22.2989  213.4288 C   0  0  0  0  0  0  0  0  0  0  0  0
  -41.9845  -22.2310  213.2329 C   0  0  0  0  0  0  0  0  0  0  0  0
  -42.4899  -20.8405  212.8421 C   0  0  0  0  0  0  0  0  0  0  0  0
  -44.0168  -20.7161  212.8775 C   0  0  0  0  0  0  0  0  0  0  0  0
  -44.5389  -19.4521  212.1833 C   0  0  0  0  0  0  0  0  0  0  0  0
  -46.0629  -19.2654  212.1848 C   0  0  0  0  0  0  0  0  0  0  0  0
  -46.8110  -20.3930  212.8986 C   0  0  0  0  0  0  0  0  0  0  0  0
  -48.2424  -20.0278  213.3149 C   0  0  0  0  0  0  0  0  0  0  0  0
  -49.3142  -21.0807  213.0148 C   0  0  0  0  0  0  0  0  0  0  0  0
  -49.4100  -22.2839  213.9561 C   0  0  0  0  0  0  0  0  0  0  0  0
  -50.2246  -23.4741  213.4392 C   0  0  0  0  0  0  0  0  0  0  0  0
  -49.8891  -23.8757  212.0014 C   0  0  0  0  0  0  0  0  0  0  0  0
  -50.7829  -25.0324  211.5270 C   0  0  0  0  0  0  0  0  0  0  0  0
  -50.4523  -25.4314  210.0833 C   0  0  0  0  0  0  0  0  0  0  0  0
  -50.2988  -26.9310  209.7654 C   0  0  1  0  0  0  0  0  0  0  0  0
  -51.4878  -27.6274  210.2121 O   0  0  0  0  0  0  0  0  0  0  0  0
  -50.0681  -27.3768  208.2960 C   0  0  1  0  0  0  0  0  0  0  0  0
  -49.2477  -28.5664  208.2570 O   0  0  0  0  0  0  0  0  0  0  0  0
  -51.2633  -27.5330  207.3135 C   0  0  2  0  0  0  0  0  0  0  0  0
  -52.6553  -27.1624  207.8464 C   0  0  0  0  0  0  0  0  0  0  0  0
  -53.0932  -29.0517  208.7840 O   0  0  0  0  0  0  0  0  0  0  0  0
  -53.5359  -29.3633  205.8261 O   0  0  0  0  0  0  0  0  0  0  0  0
  -53.1469  -32.9370  205.0408 O   0  0  0  0  0  0  0  0  0  0  0  0
  -57.1880  -31.6123  205.9495 C   0  0  0  0  0  0  0  0  0  0  0  0
  -56.8612  -32.6409  204.8929 C   0  0  0  0  0  0  0  0  0  0  0  0
  -56.8683  -34.0073  205.2078 C   0  0  0  0  0  0  0  0  0  0  0  0
  -56.5524  -34.9571  204.2341 C   0  0  0  0  0  0  0  0  0  0  0  0
  -56.1969  -34.5609  202.9348 C   0  0  0  0  0  0  0  0  0  0  0  0
  -55.8427  -35.5905  201.8921 C   0  0  2  0  0  0  0  0  0  0  0  0
  -56.5556  -35.4556  200.7405 F   0  0  0  0  0  0  0  0  0  0  0  0
  -56.0655  -36.8639  202.3165 F   0  0  0  0  0  0  0  0  0  0  0  0
  -54.5340  -35.5446  201.5240 F   0  0  0  0  0  0  0  0  0  0  0  0
  -56.1843  -33.1929  202.6206 C   0  0  0  0  0  0  0  0  0  0  0  0
  -56.5210  -32.2468  203.5900 C   0  0  0  0  0  0  0  0  0  0  0  0
  -51.2450  -28.9065  206.7870 N   0  0  0  0  0  0  0  0  0  0  0  0
  -50.1656  -29.4653  206.1496 C   0  0  0  0  0  0  0  0  0  0  0  0
  -49.0042  -29.1930  206.4355 O   0  0  0  0  0  0  0  0  0  0  0  0
  -50.5597  -30.4828  205.0967 C   0  0  0  0  0  0  0  0  0  0  0  0
  -50.0535  -30.0944  203.7051 C   0  0  0  0  0  0  0  0  0  0  0  0
  -48.5255  -30.0230  203.6750 C   0  0  0  0  0  0  0  0  0  0  0  0
  -47.9573  -29.6493  202.3033 C   0  0  0  0  0  0  0  0  0  0  0  0
  -47.6822  -28.1587  202.0704 C   0  0  0  0  0  0  0  0  0  0  0  0
  -48.0829  -27.6814  200.6745 C   0  0  0  0  0  0  0  0  0  0  0  0
  -47.7577  -26.1987  200.4555 C   0  0  0  0  0  0  0  0  0  0  0  0
  -48.0701  -25.7896  199.0148 C   0  0  0  0  0  0  0  0  0  0  0  0
  -47.4579  -26.7104  197.9534 C   0  0  0  0  0  0  0  0  0  0  0  0
  -48.4700  -27.4248  197.0464 C   0  0  0  0  0  0  0  0  0  0  0  0
  -47.9188  -28.2259  195.8654 C   0  0  0  0  0  0  0  0  0  0  0  0
  -46.5046  -28.7911  196.0465 C   0  0  0  0  0  0  0  0  0  0  0  0
  -46.0055  -29.6083  194.8601 C   0  0  0  0  0  0  0  0  0  0  0  0
  -44.6328  -30.2300  195.1157 C   0  0  0  0  0  0  0  0  0  0  0  0
  -44.4624  -30.8441  196.5097 C   0  0  0  0  0  0  0  0  0  0  0  0
  -43.1745  -31.6385  196.7576 C   0  0  0  0  0  0  0  0  0  0  0  0
  -43.3806  -32.9684  197.4912 C   0  0  0  0  0  0  0  0  0  0  0  0
  -42.2725  -33.2244  198.5172 C   0  0  0  0  0  0  0  0  0  0  0  0
  -42.5556  -34.4250  199.4198 C   0  0  0  0  0  0  0  0  0  0  0  0
  -43.9113  -35.0889  199.1688 C   0  0  0  0  0  0  0  0  0  0  0  0
  -43.9896  -36.4528  199.8614 C   0  0  0  0  0  0  0  0  0  0  0  0
  -42.6962  -36.7787  200.6071 C   0  0  0  0  0  0  0  0  0  0  0  0
  -42.7498  -38.0849  201.4080 C   0  0  0  0  0  0  0  0  0  0  0  0
  -42.8783  -37.8924  202.9229 C   0  0  0  0  0  0  0  0  0  0  0  0
  -44.1983  -38.4072  203.4771 C   0  0  0  0  0  0  0  0  0  0  0  0
  1  6  1  0
  1  8  1  1
  1 31  1  0
  2  3  1  0
  6  2  1  0
  2  9  1  6
  4  3  1  0
  3  7  1  6
  4  5  1  6
 31  4  1  0
  5 32  1  0
  6 30  1  6
  7 33  1  0
 29  8  1  0
 11 10  1  0
 12 11  1  0
 13 12  1  0
 14 13  1  0
 15 14  1  0
 16 15  1  0
 17 16  1  0
 18 17  1  0
 19 18  1  0
 20 19  1  0
 21 20  1  0
 22 21  1  0
 23 22  1  0
 24 23  1  0
 24 25  1  6
 26 24  1  0
 26 27  1  1
 28 26  1  0
 28 29  1  1
 28 44  1  0
 33 34  1  0
 34 35  2  0
 34 43  1  0
 35 36  1  0
 36 37  2  0
 37 38  1  0
 37 42  1  0
 38 39  1  6
 38 40  1  0
 38 41  1  0
 42 43  2  0
 44 45  1  0
 45 46  2  0
 45 47  1  0
 47 48  1  0
 48 49  1  0
 49 50  1  0
 50 51  1  0
 51 52  1  0
 52 53  1  0
 53 54  1  0
 54 55  1  0
 55 56  1  0
 56 57  1  0
 57 58  1  0
 58 59  1  0
 59 60  1  0
 60 61  1  0
 61 62  1  0
 62 63  1  0
 63 64  1  0
 64 65  1  0
 65 66  1  0
 66 67  1  0
 67 68  1  0
 68 69  1  0
 69 70  1  0
 70 71  1  0
M  END
$$$$
