
     RDKit          3D

 41 46  0  0  0  0  0  0  0  0999 V2000
   -4.3528    3.6526  -12.6436 C   0  0  0  0  0  0  0  0  0  0  0  0
   -3.2200    3.9407  -11.9126 C   0  0  0  0  0  0  0  0  0  0  0  0
   -2.3170    2.9328  -11.6495 C   0  0  0  0  0  0  0  0  0  0  0  0
   -2.5346    1.6496  -12.1071 C   0  0  0  0  0  0  0  0  0  0  0  0
   -3.6768    1.3949  -12.8351 C   0  0  0  0  0  0  0  0  0  0  0  0
   -4.6056    2.3756  -13.1202 C   0  0  0  0  0  0  0  0  0  0  0  0
   -5.8124    2.1051  -13.8913 C   0  0  0  0  0  0  0  0  0  0  0  0
   -7.0501    2.3919  -13.3521 C   0  0  0  0  0  0  0  0  0  0  0  0
   -8.1629    2.1223  -14.1252 C   0  0  0  0  0  0  0  0  0  0  0  0
   -9.4991    2.4050  -13.6040 C   0  0  0  0  0  0  0  0  0  0  0  0
   -9.5721    2.8872  -12.4637 O   0  0  0  0  0  0  0  0  0  0  0  0
  -10.6120    2.1135  -14.4267 N   0  0  0  0  0  0  0  0  0  0  0  0
  -10.4474    1.6145  -15.5986 C   0  0  0  0  0  0  0  0  0  0  0  0
   -9.1763    1.2850  -16.2416 C   0  0  0  0  0  0  0  0  0  0  0  0
   -8.0181    1.5870  -15.3848 C   0  0  0  0  0  0  0  0  0  0  0  0
   -6.7665    1.3200  -15.8747 N   0  0  0  0  0  0  0  0  0  0  0  0
   -5.6632    1.5698  -15.1500 C   0  0  0  0  0  0  0  0  0  0  0  0
   -4.3335    1.2972  -15.6361 C   0  0  0  0  0  0  0  0  0  0  0  0
   -3.9390   -0.0214  -15.7245 C   0  0  0  0  0  0  0  0  0  0  0  0
   -2.6622   -0.3616  -16.1841 C   0  0  0  0  0  0  0  0  0  0  0  0
   -3.4347    2.2590  -16.0127 C   0  0  0  0  0  0  0  0  0  0  0  0
   -2.1757    1.9102  -16.4654 C   0  0  0  0  0  0  0  0  0  0  0  0
   -1.7582    0.6051  -16.5629 C   0  0  0  0  0  0  0  0  0  0  0  0
   -0.4157    0.2152  -17.0466 C   0  0  0  0  0  0  0  0  0  0  0  0
    0.4310   -0.3196  -16.0340 N   0  0  2  0  0  4  0  0  0  0  0  0
    0.7081    0.7059  -15.0589 C   0  0  0  0  0  0  0  0  0  0  0  0
    1.4443    0.1713  -13.8469 C   0  0  0  0  0  0  0  0  0  0  0  0
    1.7346   -0.7301  -16.5536 C   0  0  0  0  0  0  0  0  0  0  0  0
    2.4009   -1.4882  -15.4266 C   0  0  0  0  0  0  0  0  0  0  0  0
    2.5941   -0.5718  -14.3174 N   0  0  0  0  0  0  0  0  0  0  0  0
    3.8425   -0.3959  -13.6789 C   0  0  0  0  0  0  0  0  0  0  0  0
    5.0047   -0.6515  -14.3674 C   0  0  0  0  0  0  0  0  0  0  0  0
    6.2645   -0.5035  -13.7722 C   0  0  0  0  0  0  0  0  0  0  0  0
    3.9844    0.0173  -12.3602 C   0  0  0  0  0  0  0  0  0  0  0  0
    5.2276    0.1692  -11.7535 C   0  0  0  0  0  0  0  0  0  0  0  0
    6.3751   -0.0929  -12.4640 C   0  0  0  0  0  0  0  0  0  0  0  0
    7.6758    0.0583  -11.8582 N   0  0  0  0  0  0  0  0  0  0  0  0
    8.8612   -0.1073  -12.6004 C   0  0  0  0  0  0  0  0  0  0  0  0
    8.8227   -0.4154  -13.8126 O   0  0  0  0  0  0  0  0  0  0  0  0
   10.1728    0.0837  -11.9469 C   0  0  0  0  0  0  0  0  0  0  0  0
   11.2730   -0.2418  -12.9212 C   0  0  0  0  0  0  0  0  0  0  0  0
  1  2  2  0
  1  6  1  0
  2  3  1  0
  3  4  2  0
  4  5  1  0
  5  6  2  0
  6  7  1  0
  7  8  2  0
  7 17  1  0
  8  9  1  0
  9 10  1  0
  9 15  2  0
 10 11  2  0
 10 12  1  0
 12 13  2  0
 13 14  1  0
 14 15  1  0
 15 16  1  0
 16 17  2  0
 17 18  1  0
 18 19  2  0
 18 21  1  0
 19 20  1  0
 20 23  2  0
 21 22  2  0
 22 23  1  0
 23 24  1  0
 25 24  1  6
 25 26  1  0
 25 28  1  0
 26 27  1  0
 27 30  1  0
 28 29  1  0
 29 30  1  0
 30 31  1  0
 31 32  2  0
 31 34  1  0
 32 33  1  0
 33 36  2  0
 34 35  2  0
 35 36  1  0
 36 37  1  0
 37 38  1  0
 38 39  2  0
 38 40  1  0
 40 41  1  0
M  CHG  1  25   1
M  END
$$$$
