
     RDKit          3D

 41 46  0  0  0  0  0  0  0  0999 V2000
   -5.6444    1.1201  -12.0707 C   0  0  0  0  0  0  0  0  0  0  0  0
   -5.4185    1.1511  -10.7110 C   0  0  0  0  0  0  0  0  0  0  0  0
   -5.1535    2.3592  -10.1024 C   0  0  0  0  0  0  0  0  0  0  0  0
   -5.1127    3.5276  -10.8350 C   0  0  0  0  0  0  0  0  0  0  0  0
   -5.3430    3.4621  -12.1922 C   0  0  0  0  0  0  0  0  0  0  0  0
   -5.6118    2.2729  -12.8398 C   0  0  0  0  0  0  0  0  0  0  0  0
   -5.8565    2.2055  -14.2749 C   0  0  0  0  0  0  0  0  0  0  0  0
   -7.0478    2.6742  -14.7907 C   0  0  0  0  0  0  0  0  0  0  0  0
   -7.2292    2.5931  -16.1579 C   0  0  0  0  0  0  0  0  0  0  0  0
   -8.4723    3.0735  -16.7587 C   0  0  0  0  0  0  0  0  0  0  0  0
   -9.3266    3.5445  -15.9929 O   0  0  0  0  0  0  0  0  0  0  0  0
   -8.6187    2.9714  -18.1617 N   0  0  0  0  0  0  0  0  0  0  0  0
   -7.6820    2.4699  -18.8833 C   0  0  0  0  0  0  0  0  0  0  0  0
   -6.3953    1.9552  -18.4173 C   0  0  0  0  0  0  0  0  0  0  0  0
   -6.2435    2.0601  -16.9570 C   0  0  0  0  0  0  0  0  0  0  0  0
   -5.0781    1.6081  -16.3957 N   0  0  0  0  0  0  0  0  0  0  0  0
   -4.8687    1.6718  -15.0702 C   0  0  0  0  0  0  0  0  0  0  0  0
   -3.6550    1.2020  -14.4496 C   0  0  0  0  0  0  0  0  0  0  0  0
   -2.8813    2.1215  -13.7729 C   0  0  0  0  0  0  0  0  0  0  0  0
   -1.6890    1.7389  -13.1490 C   0  0  0  0  0  0  0  0  0  0  0  0
   -3.2170   -0.0946  -14.4896 C   0  0  0  0  0  0  0  0  0  0  0  0
   -2.0369   -0.4606  -13.8689 C   0  0  0  0  0  0  0  0  0  0  0  0
   -1.2483    0.4353  -13.1888 C   0  0  0  0  0  0  0  0  0  0  0  0
    0.0158    0.0598  -12.5183 C   0  0  0  0  0  0  0  0  0  0  0  0
    1.1686    0.1868  -13.3448 N   0  0  2  0  0  4  0  0  0  0  0  0
    2.0447   -0.9341  -13.1099 C   0  0  0  0  0  0  0  0  0  0  0  0
    3.2039   -0.9797  -14.0851 C   0  0  0  0  0  0  0  0  0  0  0  0
    1.9578    1.3758  -13.0257 C   0  0  0  0  0  0  0  0  0  0  0  0
    2.9820    1.4928  -14.1328 C   0  0  0  0  0  0  0  0  0  0  0  0
    3.8383    0.3216  -14.0825 N   0  0  0  0  0  0  0  0  0  0  0  0
    5.2486    0.4057  -14.0496 C   0  0  0  0  0  0  0  0  0  0  0  0
    6.0069   -0.6108  -14.5804 C   0  0  0  0  0  0  0  0  0  0  0  0
    7.4075   -0.5771  -14.5591 C   0  0  0  0  0  0  0  0  0  0  0  0
    5.9463    1.4691  -13.4904 C   0  0  0  0  0  0  0  0  0  0  0  0
    7.3367    1.5184  -13.4607 C   0  0  0  0  0  0  0  0  0  0  0  0
    8.0721    0.4887  -13.9984 C   0  0  0  0  0  0  0  0  0  0  0  0
    9.5145    0.5169  -13.9811 N   0  0  0  0  0  0  0  0  0  0  0  0
   10.2807   -0.6060  -14.3495 C   0  0  0  0  0  0  0  0  0  0  0  0
    9.7362   -1.6281  -14.8235 O   0  0  0  0  0  0  0  0  0  0  0  0
   11.7483   -0.5856  -14.1774 C   0  0  0  0  0  0  0  0  0  0  0  0
   12.4120   -0.9951  -15.4648 C   0  0  0  0  0  0  0  0  0  0  0  0
  1  2  2  0
  1  6  1  0
  2  3  1  0
  3  4  2  0
  4  5  1  0
  5  6  2  0
  6  7  1  0
  7  8  2  0
  7 17  1  0
  8  9  1  0
  9 10  1  0
  9 15  2  0
 10 11  2  0
 10 12  1  0
 12 13  2  0
 13 14  1  0
 14 15  1  0
 15 16  1  0
 16 17  2  0
 17 18  1  0
 18 19  2  0
 18 21  1  0
 19 20  1  0
 20 23  2  0
 21 22  2  0
 22 23  1  0
 23 24  1  0
 25 24  1  1
 25 26  1  0
 25 28  1  0
 26 27  1  0
 27 30  1  0
 28 29  1  0
 29 30  1  0
 30 31  1  0
 31 32  2  0
 31 34  1  0
 32 33  1  0
 33 36  2  0
 34 35  2  0
 35 36  1  0
 36 37  1  0
 37 38  1  0
 38 39  2  0
 38 40  1  0
 40 41  1  0
M  CHG  1  25   1
M  END
$$$$
