
     RDKit          3D

 41 46  0  0  0  0  0  0  0  0999 V2000
   -0.8361   -1.4125  -16.9543 C   0  0  0  0  0  0  0  0  0  0  0  0
   -0.0919   -2.5667  -16.8345 C   0  0  0  0  0  0  0  0  0  0  0  0
   -0.6738   -3.8094  -16.6077 C   0  0  0  0  0  0  0  0  0  0  0  0
   -2.0447   -3.8928  -16.4983 C   0  0  0  0  0  0  0  0  0  0  0  0
   -2.7809   -2.7395  -16.6186 C   0  0  0  0  0  0  0  0  0  0  0  0
   -2.2035   -1.4995  -16.8447 C   0  0  0  0  0  0  0  0  0  0  0  0
   -3.0951   -0.3564  -16.9546 C   0  0  0  0  0  0  0  0  0  0  0  0
   -4.1832   -0.3332  -17.8145 C   0  0  0  0  0  0  0  0  0  0  0  0
   -4.9779    0.8090  -17.8445 C   0  0  0  0  0  0  0  0  0  0  0  0
   -6.1133    0.8680  -18.7238 C   0  0  0  0  0  0  0  0  0  0  0  0
   -6.3828   -0.1069  -19.4578 O   0  0  0  0  0  0  0  0  0  0  0  0
   -6.8928    2.0648  -18.7134 N   0  0  0  0  0  0  0  0  0  0  0  0
   -6.6452    3.0723  -17.9798 C   0  0  0  0  0  0  0  0  0  0  0  0
   -5.5118    3.1320  -17.0393 C   0  0  0  0  0  0  0  0  0  0  0  0
   -4.7012    1.8978  -17.0441 C   0  0  0  0  0  0  0  0  0  0  0  0
   -3.6386    1.8430  -16.2216 N   0  0  0  0  0  0  0  0  0  0  0  0
   -2.8377    0.7369  -16.1675 C   0  0  0  0  0  0  0  0  0  0  0  0
   -1.6853    0.6876  -15.2764 C   0  0  0  0  0  0  0  0  0  0  0  0
   -1.5326   -0.2457  -14.2730 C   0  0  0  0  0  0  0  0  0  0  0  0
   -0.4081   -0.2459  -13.4513 C   0  0  0  0  0  0  0  0  0  0  0  0
   -0.6719    1.6135  -15.4205 C   0  0  0  0  0  0  0  0  0  0  0  0
    0.4419    1.6135  -14.6068 C   0  0  0  0  0  0  0  0  0  0  0  0
    0.6024    0.6829  -13.6005 C   0  0  0  0  0  0  0  0  0  0  0  0
    1.7938    0.6655  -12.7162 C   0  0  0  0  0  0  0  0  0  0  0  0
    1.6970    1.5972  -11.6312 N   0  0  2  0  0  4  0  0  0  0  0  0
    1.6038    2.9732  -12.0236 C   0  0  0  0  0  0  0  0  0  0  0  0
    1.9344    3.8236  -10.8005 C   0  0  0  0  0  0  0  0  0  0  0  0
    2.7949    1.3982  -10.6687 C   0  0  0  0  0  0  0  0  0  0  0  0
    2.2985    1.9035   -9.3129 C   0  0  0  0  0  0  0  0  0  0  0  0
    1.5125    3.0869   -9.6344 N   0  0  0  0  0  0  0  0  0  0  0  0
    0.4133    3.4178   -8.8109 C   0  0  0  0  0  0  0  0  0  0  0  0
   -0.1590    2.5109   -7.9759 C   0  0  0  0  0  0  0  0  0  0  0  0
   -1.2541    2.8359   -7.1618 C   0  0  0  0  0  0  0  0  0  0  0  0
   -0.1119    4.7023   -8.8503 C   0  0  0  0  0  0  0  0  0  0  0  0
   -1.1703    5.0083   -8.0604 C   0  0  0  0  0  0  0  0  0  0  0  0
   -1.7815    4.0997   -7.1912 C   0  0  0  0  0  0  0  0  0  0  0  0
   -2.8667    4.4828   -6.4018 N   0  0  0  0  0  0  0  0  0  0  0  0
   -3.5321    5.7128   -6.5336 C   0  0  0  0  0  0  0  0  0  0  0  0
   -3.4692    6.4674   -7.5037 O   0  0  0  0  0  0  0  0  0  0  0  0
   -4.3931    6.1240   -5.3733 C   0  0  0  0  0  0  0  0  0  0  0  0
   -5.1869    7.3371   -5.7721 C   0  0  0  0  0  0  0  0  0  0  0  0
  1  2  2  0
  1  6  1  0
  2  3  1  0
  3  4  2  0
  4  5  1  0
  5  6  2  0
  6  7  1  0
  7  8  2  0
  7 17  1  0
  8  9  1  0
  9 10  1  0
  9 15  2  0
 10 11  2  0
 10 12  1  0
 12 13  2  0
 14 13  1  1
 14 15  1  0
 15 16  1  0
 16 17  2  0
 17 18  1  0
 18 19  2  0
 18 21  1  0
 19 20  1  0
 20 23  2  0
 21 22  2  0
 22 23  1  0
 24 23  1  1
 25 24  1  6
 25 26  1  0
 25 28  1  0
 26 27  1  6
 27 30  1  6
 28 29  1  6
 29 30  1  6
 30 31  1  0
 31 32  2  0
 31 34  1  0
 32 33  1  0
 33 36  2  0
 34 35  2  0
 35 36  1  0
 36 37  1  0
 37 38  1  0
 38 39  2  0
 40 38  1  1
 41 40  1  6
M  CHG  1  25   1
M  END
$$$$
