
     RDKit          3D

 41 46  0  0  0  0  0  0  0  0999 V2000
   -5.9899    0.2575  -14.7163 C   0  0  0  0  0  0  0  0  0  0  0  0
   -7.2877    0.6578  -14.4795 C   0  0  0  0  0  0  0  0  0  0  0  0
   -7.6352    1.9731  -14.7019 C   0  0  0  0  0  0  0  0  0  0  0  0
   -6.7042    2.8848  -15.1553 C   0  0  0  0  0  0  0  0  0  0  0  0
   -5.4155    2.4523  -15.3823 C   0  0  0  0  0  0  0  0  0  0  0  0
   -5.0270    1.1444  -15.1722 C   0  0  0  0  0  0  0  0  0  0  0  0
   -3.6641    0.6882  -15.4141 C   0  0  0  0  0  0  0  0  0  0  0  0
   -3.4122   -0.2150  -16.4269 C   0  0  0  0  0  0  0  0  0  0  0  0
   -2.1030   -0.6120  -16.6194 C   0  0  0  0  0  0  0  0  0  0  0  0
   -1.7785   -1.5677  -17.6768 C   0  0  0  0  0  0  0  0  0  0  0  0
   -2.7179   -1.9865  -18.3698 O   0  0  0  0  0  0  0  0  0  0  0  0
   -0.4263   -1.9490  -17.8401 N   0  0  0  0  0  0  0  0  0  0  0  0
    0.4872   -1.4655  -17.0777 C   0  0  0  0  0  0  0  0  0  0  0  0
    0.3050   -0.5072  -15.9886 C   0  0  0  0  0  0  0  0  0  0  0  0
   -1.1025   -0.1115  -15.8178 C   0  0  0  0  0  0  0  0  0  0  0  0
   -1.4048    0.7834  -14.8251 N   0  0  0  0  0  0  0  0  0  0  0  0
   -2.6668    1.1908  -14.6104 C   0  0  0  0  0  0  0  0  0  0  0  0
   -3.0170    2.1285  -13.5726 C   0  0  0  0  0  0  0  0  0  0  0  0
   -3.8187    1.6794  -12.5442 C   0  0  0  0  0  0  0  0  0  0  0  0
   -4.2019    2.5334  -11.5045 C   0  0  0  0  0  0  0  0  0  0  0  0
   -2.6103    3.4354  -13.5408 C   0  0  0  0  0  0  0  0  0  0  0  0
   -2.9956    4.2698  -12.5078 C   0  0  0  0  0  0  0  0  0  0  0  0
   -3.7932    3.8476  -11.4721 C   0  0  0  0  0  0  0  0  0  0  0  0
   -4.2129    4.7268  -10.3589 C   0  0  0  0  0  0  0  0  0  0  0  0
   -3.3246    4.7145   -9.2458 N   0  0  2  0  0  4  0  0  0  0  0  0
   -3.8269    5.6061   -8.2300 C   0  0  0  0  0  0  0  0  0  0  0  0
   -3.0464    5.5095   -6.9346 C   0  0  0  0  0  0  0  0  0  0  0  0
   -1.9940    5.2163   -9.5860 C   0  0  0  0  0  0  0  0  0  0  0  0
   -1.1246    4.9079   -8.3870 C   0  0  0  0  0  0  0  0  0  0  0  0
   -1.6408    5.6501   -7.2512 N   0  0  0  0  0  0  0  0  0  0  0  0
   -0.8276    6.4784   -6.4451 C   0  0  0  0  0  0  0  0  0  0  0  0
   -1.3760    7.1379   -5.3706 C   0  0  0  0  0  0  0  0  0  0  0  0
   -0.6121    7.9793   -4.5511 C   0  0  0  0  0  0  0  0  0  0  0  0
    0.5259    6.6913   -6.6748 C   0  0  0  0  0  0  0  0  0  0  0  0
    1.2991    7.5237   -5.8711 C   0  0  0  0  0  0  0  0  0  0  0  0
    0.7265    8.1719   -4.8023 C   0  0  0  0  0  0  0  0  0  0  0  0
    1.5070    9.0391   -3.9534 N   0  0  0  0  0  0  0  0  0  0  0  0
    1.4722    8.9271   -2.5500 C   0  0  0  0  0  0  0  0  0  0  0  0
    0.5882    8.2482   -1.9811 O   0  0  0  0  0  0  0  0  0  0  0  0
    2.4895    9.6174   -1.7300 C   0  0  0  0  0  0  0  0  0  0  0  0
    1.8648   10.0887   -0.4442 C   0  0  0  0  0  0  0  0  0  0  0  0
  1  2  2  0
  1  6  1  0
  2  3  1  0
  3  4  2  0
  4  5  1  0
  5  6  2  0
  6  7  1  0
  7  8  2  0
  7 17  1  0
  8  9  1  0
  9 10  1  0
  9 15  2  0
 10 11  2  0
 10 12  1  0
 12 13  2  0
 13 14  1  0
 14 15  1  0
 15 16  1  0
 16 17  2  0
 17 18  1  0
 18 19  2  0
 18 21  1  0
 19 20  1  0
 20 23  2  0
 21 22  2  0
 22 23  1  0
 23 24  1  0
 25 24  1  6
 25 26  1  0
 25 28  1  0
 26 27  1  0
 27 30  1  0
 28 29  1  0
 29 30  1  0
 30 31  1  0
 31 32  2  0
 31 34  1  0
 32 33  1  0
 33 36  2  0
 34 35  2  0
 35 36  1  0
 36 37  1  0
 37 38  1  0
 38 39  2  0
 38 40  1  0
 40 41  1  0
M  CHG  1  25   1
M  END
$$$$
