
     RDKit          3D

 41 46  0  0  0  0  0  0  0  0999 V2000
   -3.2790    4.9170  -14.7430 C   0  0  0  0  0  0  0  0  0  0  0  0
   -3.3450    6.0519  -13.9632 C   0  0  0  0  0  0  0  0  0  0  0  0
   -3.8661    6.0419  -12.6737 C   0  0  0  0  0  0  0  0  0  0  0  0
   -4.3342    4.8549  -12.1539 C   0  0  0  0  0  0  0  0  0  0  0  0
   -4.2658    3.7275  -12.9355 C   0  0  0  0  0  0  0  0  0  0  0  0
   -3.7469    3.7346  -14.2211 C   0  0  0  0  0  0  0  0  0  0  0  0
   -3.7297    2.4726  -14.9426 C   0  0  0  0  0  0  0  0  0  0  0  0
   -4.5888    2.1988  -15.9965 C   0  0  0  0  0  0  0  0  0  0  0  0
   -4.4916    0.9603  -16.6242 C   0  0  0  0  0  0  0  0  0  0  0  0
   -5.3663    0.6424  -17.7195 C   0  0  0  0  0  0  0  0  0  0  0  0
   -6.2106    1.4796  -18.1043 O   0  0  0  0  0  0  0  0  0  0  0  0
   -5.2225   -0.6430  -18.3254 N   0  0  0  0  0  0  0  0  0  0  0  0
   -4.3750   -1.5153  -17.9576 C   0  0  0  0  0  0  0  0  0  0  0  0
   -3.4258   -1.3075  -16.8493 C   0  0  0  0  0  0  0  0  0  0  0  0
   -3.5681    0.0197  -16.2178 C   0  0  0  0  0  0  0  0  0  0  0  0
   -2.7499    0.3167  -15.1927 N   0  0  0  0  0  0  0  0  0  0  0  0
   -2.8190    1.5232  -14.5545 C   0  0  0  0  0  0  0  0  0  0  0  0
   -1.9313    1.8354  -13.4414 C   0  0  0  0  0  0  0  0  0  0  0  0
   -2.3739    2.2218  -12.1940 C   0  0  0  0  0  0  0  0  0  0  0  0
   -1.4788    2.5067  -11.1658 C   0  0  0  0  0  0  0  0  0  0  0  0
   -0.5647    1.7474  -13.6138 C   0  0  0  0  0  0  0  0  0  0  0  0
    0.3221    2.0296  -12.5956 C   0  0  0  0  0  0  0  0  0  0  0  0
   -0.1127    2.4168  -11.3445 C   0  0  0  0  0  0  0  0  0  0  0  0
    0.8254    2.7228  -10.2363 C   0  0  0  0  0  0  0  0  0  0  0  0
    0.1552    3.0794   -9.0204 N   0  0  2  0  0  4  0  0  0  0  0  0
    1.0119    3.2288   -7.8803 C   0  0  0  0  0  0  0  0  0  0  0  0
    0.1321    3.1810   -6.6345 C   0  0  0  0  0  0  0  0  0  0  0  0
   -0.9444    2.1417   -8.7325 C   0  0  0  0  0  0  0  0  0  0  0  0
   -1.9655    2.8975   -7.8804 C   0  0  0  0  0  0  0  0  0  0  0  0
   -1.1560    3.7220   -6.9934 N   0  0  0  0  0  0  0  0  0  0  0  0
   -1.6688    4.9667   -6.5652 C   0  0  0  0  0  0  0  0  0  0  0  0
   -2.9944    5.2599   -6.6308 C   0  0  0  0  0  0  0  0  0  0  0  0
   -3.5047    6.4974   -6.2117 C   0  0  0  0  0  0  0  0  0  0  0  0
   -0.8034    5.9308   -6.0663 C   0  0  0  0  0  0  0  0  0  0  0  0
   -1.3047    7.1242   -5.6633 C   0  0  0  0  0  0  0  0  0  0  0  0
   -2.6615    7.4569   -5.7173 C   0  0  0  0  0  0  0  0  0  0  0  0
   -3.1109    8.7041   -5.2813 N   0  0  0  0  0  0  0  0  0  0  0  0
   -4.4393    8.9687   -4.9091 C   0  0  0  0  0  0  0  0  0  0  0  0
   -5.3625    8.1550   -4.9008 O   0  0  0  0  0  0  0  0  0  0  0  0
   -4.7368   10.3792   -4.4864 C   0  0  0  0  0  0  0  0  0  0  0  0
   -5.6774   10.3396   -3.3140 C   0  0  0  0  0  0  0  0  0  0  0  0
  1  2  2  0
  1  6  1  0
  2  3  1  0
  3  4  2  0
  4  5  1  0
  5  6  2  0
  6  7  1  0
  7  8  2  0
  7 17  1  0
  8  9  1  0
  9 10  1  0
  9 15  2  0
 10 11  2  0
 10 12  1  0
 12 13  2  0
 14 13  1  1
 14 15  1  0
 15 16  1  0
 16 17  2  0
 17 18  1  0
 18 19  2  0
 18 21  1  0
 19 20  1  0
 20 23  2  0
 21 22  2  0
 22 23  1  0
 24 23  1  1
 25 24  1  6
 25 26  1  0
 25 28  1  0
 26 27  1  6
 27 30  1  6
 28 29  1  6
 29 30  1  6
 30 31  1  0
 31 32  2  0
 31 34  1  0
 32 33  1  0
 33 36  2  0
 34 35  2  0
 35 36  1  0
 36 37  1  0
 37 38  1  0
 38 39  2  0
 40 38  1  1
 41 40  1  6
M  CHG  1  25   1
M  END
$$$$
