
     RDKit          3D

 41 46  0  0  0  0  0  0  0  0999 V2000
   -5.4726    2.2896  -13.9919 C   0  0  0  0  0  0  0  0  0  0  0  0
   -6.7746    2.6391  -13.7033 C   0  0  0  0  0  0  0  0  0  0  0  0
   -7.8648    1.9446  -14.2165 C   0  0  0  0  0  0  0  0  0  0  0  0
   -7.6380    0.8668  -15.0443 C   0  0  0  0  0  0  0  0  0  0  0  0
   -6.3388    0.5233  -15.3283 C   0  0  0  0  0  0  0  0  0  0  0  0
   -5.2503    1.2138  -14.8181 C   0  0  0  0  0  0  0  0  0  0  0  0
   -3.9258    0.7468  -15.1942 C   0  0  0  0  0  0  0  0  0  0  0  0
   -3.6869    0.0185  -16.3501 C   0  0  0  0  0  0  0  0  0  0  0  0
   -2.3817   -0.3810  -16.6221 C   0  0  0  0  0  0  0  0  0  0  0  0
   -2.0977   -1.1375  -17.8107 C   0  0  0  0  0  0  0  0  0  0  0  0
   -3.0240   -1.4333  -18.5957 O   0  0  0  0  0  0  0  0  0  0  0  0
   -0.7408   -1.5210  -18.0387 N   0  0  0  0  0  0  0  0  0  0  0  0
    0.2225   -1.2361  -17.2606 C   0  0  0  0  0  0  0  0  0  0  0  0
    0.0580   -0.4673  -16.0138 C   0  0  0  0  0  0  0  0  0  0  0  0
   -1.3424   -0.0668  -15.7712 C   0  0  0  0  0  0  0  0  0  0  0  0
   -1.6080    0.6406  -14.6587 N   0  0  0  0  0  0  0  0  0  0  0  0
   -2.8781    1.0483  -14.3618 C   0  0  0  0  0  0  0  0  0  0  0  0
   -3.1579    1.8110  -13.1516 C   0  0  0  0  0  0  0  0  0  0  0  0
   -2.9860    1.3146  -11.8767 C   0  0  0  0  0  0  0  0  0  0  0  0
   -3.2686    2.0902  -10.7551 C   0  0  0  0  0  0  0  0  0  0  0  0
   -3.6214    3.1070  -13.2544 C   0  0  0  0  0  0  0  0  0  0  0  0
   -3.9013    3.8754  -12.1435 C   0  0  0  0  0  0  0  0  0  0  0  0
   -3.7319    3.3862  -10.8644 C   0  0  0  0  0  0  0  0  0  0  0  0
   -4.0258    4.1977   -9.6574 C   0  0  0  0  0  0  0  0  0  0  0  0
   -2.8926    4.3403   -8.7914 N   0  0  2  0  0  4  0  0  0  0  0  0
   -1.6960    4.8005   -9.4339 C   0  0  0  0  0  0  0  0  0  0  0  0
   -0.5268    4.4927   -8.5030 C   0  0  0  0  0  0  0  0  0  0  0  0
   -2.6426    3.0951   -8.0443 C   0  0  0  0  0  0  0  0  0  0  0  0
   -1.9235    3.4854   -6.7518 C   0  0  0  0  0  0  0  0  0  0  0  0
   -1.0221    4.5581   -7.1499 N   0  0  0  0  0  0  0  0  0  0  0  0
   -0.7112    5.5683   -6.2126 C   0  0  0  0  0  0  0  0  0  0  0  0
   -1.0990    5.4878   -4.9124 C   0  0  0  0  0  0  0  0  0  0  0  0
   -0.7964    6.4926   -3.9817 C   0  0  0  0  0  0  0  0  0  0  0  0
    0.0061    6.6852   -6.6195 C   0  0  0  0  0  0  0  0  0  0  0  0
    0.2945    7.6517   -5.7138 C   0  0  0  0  0  0  0  0  0  0  0  0
   -0.0891    7.5994   -4.3704 C   0  0  0  0  0  0  0  0  0  0  0  0
    0.2452    8.6288   -3.4895 N   0  0  0  0  0  0  0  0  0  0  0  0
    0.8299    8.4189   -2.2297 C   0  0  0  0  0  0  0  0  0  0  0  0
    0.7199    7.4038   -1.5427 O   0  0  0  0  0  0  0  0  0  0  0  0
    1.6607    9.5492   -1.6921 C   0  0  0  0  0  0  0  0  0  0  0  0
    1.6477    9.4810   -0.1901 C   0  0  0  0  0  0  0  0  0  0  0  0
  1  2  2  0
  1  6  1  0
  2  3  1  0
  3  4  2  0
  4  5  1  0
  5  6  2  0
  6  7  1  0
  7  8  2  0
  7 17  1  0
  8  9  1  0
  9 10  1  0
  9 15  2  0
 10 11  2  0
 10 12  1  0
 12 13  2  0
 14 13  1  1
 14 15  1  0
 15 16  1  0
 16 17  2  0
 17 18  1  0
 18 19  2  0
 18 21  1  0
 19 20  1  0
 20 23  2  0
 21 22  2  0
 22 23  1  0
 24 23  1  1
 25 24  1  6
 25 26  1  0
 25 28  1  0
 26 27  1  6
 27 30  1  6
 28 29  1  6
 29 30  1  6
 30 31  1  0
 31 32  2  0
 31 34  1  0
 32 33  1  0
 33 36  2  0
 34 35  2  0
 35 36  1  0
 36 37  1  0
 37 38  1  0
 38 39  2  0
 40 38  1  1
 41 40  1  6
M  CHG  1  25   1
M  END
$$$$
