
     RDKit          3D

 41 46  0  0  0  0  0  0  0  0999 V2000
   -5.2329    2.2209  -15.8102 C   0  0  0  0  0  0  0  0  0  0  0  0
   -6.5631    2.5825  -15.7941 C   0  0  0  0  0  0  0  0  0  0  0  0
   -7.5750    1.6893  -15.4587 C   0  0  0  0  0  0  0  0  0  0  0  0
   -7.2383    0.3944  -15.1298 C   0  0  0  0  0  0  0  0  0  0  0  0
   -5.9114    0.0400  -15.1475 C   0  0  0  0  0  0  0  0  0  0  0  0
   -4.9007    0.9282  -15.4815 C   0  0  0  0  0  0  0  0  0  0  0  0
   -3.5359    0.4276  -15.4598 C   0  0  0  0  0  0  0  0  0  0  0  0
   -3.0154   -0.3765  -16.4630 C   0  0  0  0  0  0  0  0  0  0  0  0
   -1.6953   -0.8027  -16.3505 C   0  0  0  0  0  0  0  0  0  0  0  0
   -1.1233   -1.6374  -17.3713 C   0  0  0  0  0  0  0  0  0  0  0  0
   -1.8136   -1.9767  -18.3563 O   0  0  0  0  0  0  0  0  0  0  0  0
    0.2353   -2.0453  -17.2037 N   0  0  0  0  0  0  0  0  0  0  0  0
    0.9627   -1.7176  -16.2148 C   0  0  0  0  0  0  0  0  0  0  0  0
    0.4908   -0.8678  -15.1069 C   0  0  0  0  0  0  0  0  0  0  0  0
   -0.9132   -0.4417  -15.2731 C   0  0  0  0  0  0  0  0  0  0  0  0
   -1.4484    0.3389  -14.3176 N   0  0  0  0  0  0  0  0  0  0  0  0
   -2.7412    0.7749  -14.3972 C   0  0  0  0  0  0  0  0  0  0  0  0
   -3.3147    1.6170  -13.3549 C   0  0  0  0  0  0  0  0  0  0  0  0
   -3.1326    2.9821  -13.2867 C   0  0  0  0  0  0  0  0  0  0  0  0
   -3.7067    3.7376  -12.2673 C   0  0  0  0  0  0  0  0  0  0  0  0
   -4.0901    1.0454  -12.3664 C   0  0  0  0  0  0  0  0  0  0  0  0
   -4.6587    1.7936  -11.3566 C   0  0  0  0  0  0  0  0  0  0  0  0
   -4.4814    3.1600  -11.2812 C   0  0  0  0  0  0  0  0  0  0  0  0
   -5.0861    3.9820  -10.2040 C   0  0  0  0  0  0  0  0  0  0  0  0
   -4.1078    4.6169   -9.3707 N   0  0  2  0  0  4  0  0  0  0  0  0
   -2.9870    5.1726  -10.0715 C   0  0  0  0  0  0  0  0  0  0  0  0
   -1.8789    5.4122   -9.0502 C   0  0  0  0  0  0  0  0  0  0  0  0
   -3.6607    3.7083   -8.3003 C   0  0  0  0  0  0  0  0  0  0  0  0
   -3.1827    4.5839   -7.1406 C   0  0  0  0  0  0  0  0  0  0  0  0
   -2.5106    5.7032   -7.7865 N   0  0  0  0  0  0  0  0  0  0  0  0
   -2.5319    6.9662   -7.1540 C   0  0  0  0  0  0  0  0  0  0  0  0
   -2.5003    7.0943   -5.8012 C   0  0  0  0  0  0  0  0  0  0  0  0
   -2.5273    8.3472   -5.1712 C   0  0  0  0  0  0  0  0  0  0  0  0
   -2.5931    8.1192   -7.9249 C   0  0  0  0  0  0  0  0  0  0  0  0
   -2.6188    9.3262   -7.3082 C   0  0  0  0  0  0  0  0  0  0  0  0
   -2.5874    9.4923   -5.9205 C   0  0  0  0  0  0  0  0  0  0  0  0
   -2.6124   10.7660   -5.3508 N   0  0  0  0  0  0  0  0  0  0  0  0
   -1.5512   11.3101   -4.6086 C   0  0  0  0  0  0  0  0  0  0  0  0
   -0.4547   10.7830   -4.4236 O   0  0  0  0  0  0  0  0  0  0  0  0
   -1.7997   12.6583   -3.9942 C   0  0  0  0  0  0  0  0  0  0  0  0
   -0.4820   13.3669   -3.8449 C   0  0  0  0  0  0  0  0  0  0  0  0
  1  2  2  0
  1  6  1  0
  2  3  1  0
  3  4  2  0
  4  5  1  0
  5  6  2  0
  6  7  1  0
  7  8  2  0
  7 17  1  0
  8  9  1  0
  9 10  1  0
  9 15  2  0
 10 11  2  0
 10 12  1  0
 12 13  2  0
 14 13  1  1
 14 15  1  0
 15 16  1  0
 16 17  2  0
 17 18  1  0
 18 19  2  0
 18 21  1  0
 19 20  1  0
 20 23  2  0
 21 22  2  0
 22 23  1  0
 24 23  1  1
 25 24  1  6
 25 26  1  0
 25 28  1  0
 26 27  1  6
 27 30  1  6
 28 29  1  6
 29 30  1  6
 30 31  1  0
 31 32  2  0
 31 34  1  0
 32 33  1  0
 33 36  2  0
 34 35  2  0
 35 36  1  0
 36 37  1  0
 37 38  1  0
 38 39  2  0
 40 38  1  1
 41 40  1  6
M  CHG  1  25   1
M  END
$$$$
