
     RDKit          3D

 41 46  0  0  0  0  0  0  0  0999 V2000
    0.5613   -0.5465  -13.2185 C   0  0  0  0  0  0  0  0  0  0  0  0
    1.6332   -0.3773  -12.3682 C   0  0  0  0  0  0  0  0  0  0  0  0
    2.0896    0.8791  -11.9839 C   0  0  0  0  0  0  0  0  0  0  0  0
    1.4484    1.9977  -12.4695 C   0  0  0  0  0  0  0  0  0  0  0  0
    0.3811    1.8228  -13.3163 C   0  0  0  0  0  0  0  0  0  0  0  0
   -0.0759    0.5718  -13.7009 C   0  0  0  0  0  0  0  0  0  0  0  0
   -1.2168    0.5239  -14.6007 C   0  0  0  0  0  0  0  0  0  0  0  0
   -1.2725   -0.3230  -15.6977 C   0  0  0  0  0  0  0  0  0  0  0  0
   -2.4111   -0.2949  -16.4976 C   0  0  0  0  0  0  0  0  0  0  0  0
   -2.5029   -1.1587  -17.6427 C   0  0  0  0  0  0  0  0  0  0  0  0
   -1.5598   -1.9320  -17.9155 O   0  0  0  0  0  0  0  0  0  0  0  0
   -3.6939   -1.0871  -18.4278 N   0  0  0  0  0  0  0  0  0  0  0  0
   -4.6693   -0.3123  -18.1772 C   0  0  0  0  0  0  0  0  0  0  0  0
   -4.6933    0.6180  -17.0342 C   0  0  0  0  0  0  0  0  0  0  0  0
   -3.4652    0.5496  -16.2173 C   0  0  0  0  0  0  0  0  0  0  0  0
   -3.3794    1.3583  -15.1462 N   0  0  0  0  0  0  0  0  0  0  0  0
   -2.2758    1.3558  -14.3401 C   0  0  0  0  0  0  0  0  0  0  0  0
   -2.1891    2.2387  -13.1836 C   0  0  0  0  0  0  0  0  0  0  0  0
   -2.4328    3.5948  -13.2353 C   0  0  0  0  0  0  0  0  0  0  0  0
   -2.3362    4.3904  -12.0964 C   0  0  0  0  0  0  0  0  0  0  0  0
   -1.8471    1.7174  -11.9521 C   0  0  0  0  0  0  0  0  0  0  0  0
   -1.7514    2.5053  -10.8239 C   0  0  0  0  0  0  0  0  0  0  0  0
   -1.9937    3.8631  -10.8673 C   0  0  0  0  0  0  0  0  0  0  0  0
   -1.8976    4.7268   -9.6645 C   0  0  0  0  0  0  0  0  0  0  0  0
   -3.1777    5.0547   -9.1093 N   0  0  2  0  0  4  0  0  0  0  0  0
   -3.1384    5.6078   -7.7869 C   0  0  0  0  0  0  0  0  0  0  0  0
   -4.5428    5.4976   -7.2005 C   0  0  0  0  0  0  0  0  0  0  0  0
   -4.0877    3.8973   -9.1683 C   0  0  0  0  0  0  0  0  0  0  0  0
   -5.5136    4.4502   -9.1986 C   0  0  0  0  0  0  0  0  0  0  0  0
   -5.4775    5.5921   -8.2950 N   0  0  0  0  0  0  0  0  0  0  0  0
   -6.3293    6.6895   -8.5512 C   0  0  0  0  0  0  0  0  0  0  0  0
   -6.1608    7.8902   -7.9369 C   0  0  0  0  0  0  0  0  0  0  0  0
   -7.0091    8.9792   -8.1856 C   0  0  0  0  0  0  0  0  0  0  0  0
   -7.3777    6.5496   -9.4504 C   0  0  0  0  0  0  0  0  0  0  0  0
   -8.1930    7.6069   -9.6852 C   0  0  0  0  0  0  0  0  0  0  0  0
   -8.0469    8.8542   -9.0707 C   0  0  0  0  0  0  0  0  0  0  0  0
   -8.9206    9.9027   -9.3618 N   0  0  0  0  0  0  0  0  0  0  0  0
  -10.0165    9.7866  -10.2328 C   0  0  0  0  0  0  0  0  0  0  0  0
  -10.1792    8.9040  -11.0748 O   0  0  0  0  0  0  0  0  0  0  0  0
  -11.0734   10.8468  -10.1073 C   0  0  0  0  0  0  0  0  0  0  0  0
  -11.7992   10.9574  -11.4195 C   0  0  0  0  0  0  0  0  0  0  0  0
  1  2  2  0
  1  6  1  0
  2  3  1  0
  3  4  2  0
  4  5  1  0
  5  6  2  0
  6  7  1  0
  7  8  2  0
  7 17  1  0
  8  9  1  0
  9 10  1  0
  9 15  2  0
 10 11  2  0
 10 12  1  0
 12 13  2  0
 14 13  1  1
 14 15  1  0
 15 16  1  0
 16 17  2  0
 17 18  1  0
 18 19  2  0
 18 21  1  0
 19 20  1  0
 20 23  2  0
 21 22  2  0
 22 23  1  0
 24 23  1  1
 25 24  1  1
 25 26  1  0
 25 28  1  0
 26 27  1  6
 27 30  1  6
 28 29  1  6
 29 30  1  6
 30 31  1  0
 31 32  2  0
 31 34  1  0
 32 33  1  0
 33 36  2  0
 34 35  2  0
 35 36  1  0
 36 37  1  0
 37 38  1  0
 38 39  2  0
 40 38  1  1
 41 40  1  6
M  CHG  1  25   1
M  END
$$$$
