
     RDKit          3D

 41 46  0  0  0  0  0  0  0  0999 V2000
   -5.8500    2.4363  -15.5726 C   0  0  0  0  0  0  0  0  0  0  0  0
   -7.1040    2.9619  -15.3445 C   0  0  0  0  0  0  0  0  0  0  0  0
   -7.8363    2.5075  -14.2686 C   0  0  0  0  0  0  0  0  0  0  0  0
   -7.3304    1.5398  -13.4253 C   0  0  0  0  0  0  0  0  0  0  0  0
   -6.0738    1.0351  -13.6811 C   0  0  0  0  0  0  0  0  0  0  0  0
   -5.3083    1.4631  -14.7473 C   0  0  0  0  0  0  0  0  0  0  0  0
   -3.9789    0.9294  -15.0158 C   0  0  0  0  0  0  0  0  0  0  0  0
   -3.7174    0.3140  -16.2232 C   0  0  0  0  0  0  0  0  0  0  0  0
   -2.4403   -0.1702  -16.4313 C   0  0  0  0  0  0  0  0  0  0  0  0
   -2.1074   -0.8322  -17.6914 C   0  0  0  0  0  0  0  0  0  0  0  0
   -3.0102   -0.9290  -18.5362 O   0  0  0  0  0  0  0  0  0  0  0  0
   -0.7892   -1.3146  -17.8642 N   0  0  0  0  0  0  0  0  0  0  0  0
    0.0874   -1.1720  -16.9363 C   0  0  0  0  0  0  0  0  0  0  0  0
   -0.1074   -0.5333  -15.6356 C   0  0  0  0  0  0  0  0  0  0  0  0
   -1.4798   -0.0326  -15.4553 C   0  0  0  0  0  0  0  0  0  0  0  0
   -1.7901    0.5865  -14.2728 N   0  0  0  0  0  0  0  0  0  0  0  0
   -3.0216    1.0689  -14.0374 C   0  0  0  0  0  0  0  0  0  0  0  0
   -3.3797    1.7222  -12.8030 C   0  0  0  0  0  0  0  0  0  0  0  0
   -3.6639    3.0709  -12.8483 C   0  0  0  0  0  0  0  0  0  0  0  0
   -4.0156    3.7720  -11.6898 C   0  0  0  0  0  0  0  0  0  0  0  0
   -3.4533    1.0948  -11.5882 C   0  0  0  0  0  0  0  0  0  0  0  0
   -3.8021    1.7984  -10.4502 C   0  0  0  0  0  0  0  0  0  0  0  0
   -4.0898    3.1415  -10.4682 C   0  0  0  0  0  0  0  0  0  0  0  0
   -4.4659    3.9084   -9.2604 C   0  0  0  0  0  0  0  0  0  0  0  0
   -3.7638    5.1388   -9.1147 N   0  0  2  0  0  4  0  0  0  0  0  0
   -2.8235    5.0209   -8.0279 C   0  0  0  0  0  0  0  0  0  0  0  0
   -1.9000    6.2183   -7.9262 C   0  0  0  0  0  0  0  0  0  0  0  0
   -4.6459    6.2472   -8.7523 C   0  0  0  0  0  0  0  0  0  0  0  0
   -3.8026    7.4965   -8.8806 C   0  0  0  0  0  0  0  0  0  0  0  0
   -2.7193    7.4118   -7.9180 N   0  0  0  0  0  0  0  0  0  0  0  0
   -2.4297    8.4457   -6.9992 C   0  0  0  0  0  0  0  0  0  0  0  0
   -3.2235    9.5675   -6.9595 C   0  0  0  0  0  0  0  0  0  0  0  0
   -2.9677   10.6233   -6.0746 C   0  0  0  0  0  0  0  0  0  0  0  0
   -1.3594    8.4152   -6.1140 C   0  0  0  0  0  0  0  0  0  0  0  0
   -1.0910    9.4550   -5.2288 C   0  0  0  0  0  0  0  0  0  0  0  0
   -1.9003   10.5662   -5.2089 C   0  0  0  0  0  0  0  0  0  0  0  0
   -1.6438   11.6569   -4.2999 N   0  0  0  0  0  0  0  0  0  0  0  0
   -2.6913   12.3577   -3.6713 C   0  0  0  0  0  0  0  0  0  0  0  0
   -3.8616   12.2931   -4.1095 O   0  0  0  0  0  0  0  0  0  0  0  0
   -2.4136   13.1831   -2.4773 C   0  0  0  0  0  0  0  0  0  0  0  0
   -3.6825   13.8524   -2.0217 C   0  0  0  0  0  0  0  0  0  0  0  0
  1  2  2  0
  1  6  1  0
  2  3  1  0
  3  4  2  0
  4  5  1  0
  5  6  2  0
  6  7  1  0
  7  8  2  0
  7 17  1  0
  8  9  1  0
  9 10  1  0
  9 15  2  0
 10 11  2  0
 10 12  1  0
 12 13  2  0
 13 14  1  0
 14 15  1  0
 15 16  1  0
 16 17  2  0
 17 18  1  0
 18 19  2  0
 18 21  1  0
 19 20  1  0
 20 23  2  0
 21 22  2  0
 22 23  1  0
 23 24  1  0
 25 24  1  1
 25 26  1  0
 25 28  1  0
 26 27  1  0
 27 30  1  0
 28 29  1  0
 29 30  1  0
 30 31  1  0
 31 32  2  0
 31 34  1  0
 32 33  1  0
 33 36  2  0
 34 35  2  0
 35 36  1  0
 36 37  1  0
 37 38  1  0
 38 39  2  0
 38 40  1  0
 40 41  1  0
M  CHG  1  25   1
M  END
$$$$
