
     RDKit          3D

 41 46  0  0  0  0  0  0  0  0999 V2000
   -6.2338    0.3062  -14.5759 C   0  0  0  0  0  0  0  0  0  0  0  0
   -7.5142    0.7659  -14.3531 C   0  0  0  0  0  0  0  0  0  0  0  0
   -7.8766    2.0931  -14.5575 C   0  0  0  0  0  0  0  0  0  0  0  0
   -6.9224    2.9835  -14.9990 C   0  0  0  0  0  0  0  0  0  0  0  0
   -5.6484    2.5196  -15.2192 C   0  0  0  0  0  0  0  0  0  0  0  0
   -5.2845    1.1974  -15.0164 C   0  0  0  0  0  0  0  0  0  0  0  0
   -3.9033    0.8343  -15.2887 C   0  0  0  0  0  0  0  0  0  0  0  0
   -3.5145    0.1755  -16.4457 C   0  0  0  0  0  0  0  0  0  0  0  0
   -2.1662   -0.1262  -16.6135 C   0  0  0  0  0  0  0  0  0  0  0  0
   -1.7278   -0.8086  -17.8000 C   0  0  0  0  0  0  0  0  0  0  0  0
   -2.5591   -1.1281  -18.6767 O   0  0  0  0  0  0  0  0  0  0  0  0
   -0.3330   -1.0930  -17.9187 N   0  0  0  0  0  0  0  0  0  0  0  0
    0.5363   -0.7818  -17.0459 C   0  0  0  0  0  0  0  0  0  0  0  0
    0.2108   -0.0819  -15.7903 C   0  0  0  0  0  0  0  0  0  0  0  0
   -1.2296    0.2160  -15.6603 C   0  0  0  0  0  0  0  0  0  0  0  0
   -1.6397    0.8541  -14.5498 N   0  0  0  0  0  0  0  0  0  0  0  0
   -2.9559    1.1652  -14.3537 C   0  0  0  0  0  0  0  0  0  0  0  0
   -3.3925    1.8531  -13.1450 C   0  0  0  0  0  0  0  0  0  0  0  0
   -3.9828    3.0992  -13.1439 C   0  0  0  0  0  0  0  0  0  0  0  0
   -4.3817    3.7087  -11.9569 C   0  0  0  0  0  0  0  0  0  0  0  0
   -3.2200    1.2483  -11.9164 C   0  0  0  0  0  0  0  0  0  0  0  0
   -3.6151    1.8519  -10.7406 C   0  0  0  0  0  0  0  0  0  0  0  0
   -4.2066    3.0986  -10.7309 C   0  0  0  0  0  0  0  0  0  0  0  0
   -4.6398    3.7633   -9.4770 C   0  0  0  0  0  0  0  0  0  0  0  0
   -3.5957    4.5287   -8.8617 N   0  0  2  0  0  4  0  0  0  0  0  0
   -4.0348    5.4442   -7.8492 C   0  0  0  0  0  0  0  0  0  0  0  0
   -2.9080    6.4463   -7.6153 C   0  0  0  0  0  0  0  0  0  0  0  0
   -2.7822    5.2193   -9.8779 C   0  0  0  0  0  0  0  0  0  0  0  0
   -1.3965    5.4387   -9.2683 C   0  0  0  0  0  0  0  0  0  0  0  0
   -1.6629    5.7656   -7.8741 N   0  0  0  0  0  0  0  0  0  0  0  0
   -0.7147    5.3940   -6.8951 C   0  0  0  0  0  0  0  0  0  0  0  0
    0.6193    5.3767   -7.1552 C   0  0  0  0  0  0  0  0  0  0  0  0
    1.5619    5.0024   -6.1863 C   0  0  0  0  0  0  0  0  0  0  0  0
   -1.1447    5.0273   -5.6271 C   0  0  0  0  0  0  0  0  0  0  0  0
   -0.2273    4.6669   -4.6964 C   0  0  0  0  0  0  0  0  0  0  0  0
    1.1506    4.6387   -4.9314 C   0  0  0  0  0  0  0  0  0  0  0  0
    2.0412    4.2612   -3.9255 N   0  0  0  0  0  0  0  0  0  0  0  0
    3.2665    4.9049   -3.6859 C   0  0  0  0  0  0  0  0  0  0  0  0
    3.7930    5.7481   -4.4113 O   0  0  0  0  0  0  0  0  0  0  0  0
    3.9811    4.5131   -2.4239 C   0  0  0  0  0  0  0  0  0  0  0  0
    5.1699    5.4164   -2.2465 C   0  0  0  0  0  0  0  0  0  0  0  0
  1  2  2  0
  1  6  1  0
  2  3  1  0
  3  4  2  0
  4  5  1  0
  5  6  2  0
  6  7  1  0
  7  8  2  0
  7 17  1  0
  8  9  1  0
  9 10  1  0
  9 15  2  0
 10 11  2  0
 10 12  1  0
 12 13  2  0
 14 13  1  1
 14 15  1  0
 15 16  1  0
 16 17  2  0
 17 18  1  0
 18 19  2  0
 18 21  1  0
 19 20  1  0
 20 23  2  0
 21 22  2  0
 22 23  1  0
 24 23  1  1
 25 24  1  6
 25 26  1  0
 25 28  1  0
 26 27  1  6
 27 30  1  6
 28 29  1  6
 29 30  1  6
 30 31  1  0
 31 32  2  0
 31 34  1  0
 32 33  1  0
 33 36  2  0
 34 35  2  0
 35 36  1  0
 36 37  1  0
 37 38  1  0
 38 39  2  0
 40 38  1  1
 41 40  1  6
M  CHG  1  25   1
M  END
$$$$
