
     RDKit          3D

 41 46  0  0  0  0  0  0  0  0999 V2000
   -5.0603    3.1350  -14.5698 C   0  0  0  0  0  0  0  0  0  0  0  0
   -5.6465    4.2930  -14.1053 C   0  0  0  0  0  0  0  0  0  0  0  0
   -4.9166    5.3022  -13.4862 C   0  0  0  0  0  0  0  0  0  0  0  0
   -3.5573    5.1412  -13.3302 C   0  0  0  0  0  0  0  0  0  0  0  0
   -2.9789    3.9853  -13.7950 C   0  0  0  0  0  0  0  0  0  0  0  0
   -3.7039    2.9778  -14.4124 C   0  0  0  0  0  0  0  0  0  0  0  0
   -2.9711    1.8050  -14.8613 C   0  0  0  0  0  0  0  0  0  0  0  0
   -2.8683    1.4505  -16.1983 C   0  0  0  0  0  0  0  0  0  0  0  0
   -2.1421    0.3093  -16.5257 C   0  0  0  0  0  0  0  0  0  0  0  0
   -2.0150   -0.0881  -17.9011 C   0  0  0  0  0  0  0  0  0  0  0  0
   -2.5570    0.5931  -18.7978 O   0  0  0  0  0  0  0  0  0  0  0  0
   -1.2590   -1.2678  -18.1786 N   0  0  0  0  0  0  0  0  0  0  0  0
   -0.6966   -1.9813  -17.2903 C   0  0  0  0  0  0  0  0  0  0  0  0
   -0.7550   -1.6777  -15.8492 C   0  0  0  0  0  0  0  0  0  0  0  0
   -1.5348   -0.4590  -15.5542 C   0  0  0  0  0  0  0  0  0  0  0  0
   -1.6539   -0.0877  -14.2671 N   0  0  0  0  0  0  0  0  0  0  0  0
   -2.3598    1.0272  -13.9113 C   0  0  0  0  0  0  0  0  0  0  0  0
   -2.4876    1.4201  -12.5135 C   0  0  0  0  0  0  0  0  0  0  0  0
   -1.5366    2.1509  -11.8333 C   0  0  0  0  0  0  0  0  0  0  0  0
   -1.7128    2.4996  -10.4966 C   0  0  0  0  0  0  0  0  0  0  0  0
   -3.6137    1.0560  -11.8032 C   0  0  0  0  0  0  0  0  0  0  0  0
   -3.7884    1.4012  -10.4792 C   0  0  0  0  0  0  0  0  0  0  0  0
   -2.8415    2.1325   -9.7914 C   0  0  0  0  0  0  0  0  0  0  0  0
   -3.0121    2.5149   -8.3679 C   0  0  0  0  0  0  0  0  0  0  0  0
   -3.4461    3.8709   -8.2026 N   0  0  2  0  0  4  0  0  0  0  0  0
   -4.1611    4.1320   -6.9874 C   0  0  0  0  0  0  0  0  0  0  0  0
   -4.8973    5.4570   -7.1627 C   0  0  0  0  0  0  0  0  0  0  0  0
   -4.2180    4.3217   -9.3740 C   0  0  0  0  0  0  0  0  0  0  0  0
   -4.0762    5.8431   -9.4449 C   0  0  0  0  0  0  0  0  0  0  0  0
   -4.1113    6.2743   -8.0541 N   0  0  0  0  0  0  0  0  0  0  0  0
   -3.3838    7.4262   -7.6804 C   0  0  0  0  0  0  0  0  0  0  0  0
   -2.9508    8.3324   -8.5962 C   0  0  0  0  0  0  0  0  0  0  0  0
   -2.2232    9.4737   -8.2278 C   0  0  0  0  0  0  0  0  0  0  0  0
   -3.0901    7.6486   -6.3419 C   0  0  0  0  0  0  0  0  0  0  0  0
   -2.3866    8.7540   -5.9942 C   0  0  0  0  0  0  0  0  0  0  0  0
   -1.9272    9.7047   -6.9105 C   0  0  0  0  0  0  0  0  0  0  0  0
   -1.2111   10.8237   -6.4833 N   0  0  0  0  0  0  0  0  0  0  0  0
   -1.0210   11.1598   -5.1328 C   0  0  0  0  0  0  0  0  0  0  0  0
   -1.5578   10.6126   -4.1701 O   0  0  0  0  0  0  0  0  0  0  0  0
   -0.0720   12.2927   -4.8628 C   0  0  0  0  0  0  0  0  0  0  0  0
   -0.8307   13.4032   -4.1906 C   0  0  0  0  0  0  0  0  0  0  0  0
  1  2  2  0
  1  6  1  0
  2  3  1  0
  3  4  2  0
  4  5  1  0
  5  6  2  0
  6  7  1  0
  7  8  2  0
  7 17  1  0
  8  9  1  0
  9 10  1  0
  9 15  2  0
 10 11  2  0
 10 12  1  0
 12 13  2  0
 14 13  1  1
 14 15  1  0
 15 16  1  0
 16 17  2  0
 17 18  1  0
 18 19  2  0
 18 21  1  0
 19 20  1  0
 20 23  2  0
 21 22  2  0
 22 23  1  0
 24 23  1  1
 25 24  1  6
 25 26  1  0
 25 28  1  0
 26 27  1  6
 27 30  1  6
 28 29  1  6
 29 30  1  6
 30 31  1  0
 31 32  2  0
 31 34  1  0
 32 33  1  0
 33 36  2  0
 34 35  2  0
 35 36  1  0
 36 37  1  0
 37 38  1  0
 38 39  2  0
 40 38  1  1
 41 40  1  6
M  CHG  1  25   1
M  END
$$$$
