
     RDKit          3D

 41 46  0  0  0  0  0  0  0  0999 V2000
   -0.7561    2.3579  -13.2695 C   0  0  0  0  0  0  0  0  0  0  0  0
    0.0684    2.5031  -12.1742 C   0  0  0  0  0  0  0  0  0  0  0  0
   -0.2958    2.0702  -10.9037 C   0  0  0  0  0  0  0  0  0  0  0  0
   -1.5256    1.4737  -10.7305 C   0  0  0  0  0  0  0  0  0  0  0  0
   -2.3427    1.3317  -11.8254 C   0  0  0  0  0  0  0  0  0  0  0  0
   -1.9822    1.7623  -13.0929 C   0  0  0  0  0  0  0  0  0  0  0  0
   -2.9377    1.5509  -14.1682 C   0  0  0  0  0  0  0  0  0  0  0  0
   -2.6234    0.8530  -15.3250 C   0  0  0  0  0  0  0  0  0  0  0  0
   -3.6098    0.7033  -16.2954 C   0  0  0  0  0  0  0  0  0  0  0  0
   -3.3192   -0.0136  -17.5067 C   0  0  0  0  0  0  0  0  0  0  0  0
   -2.1818   -0.5001  -17.6837 O   0  0  0  0  0  0  0  0  0  0  0  0
   -4.3689   -0.1357  -18.4677 N   0  0  0  0  0  0  0  0  0  0  0  0
   -5.5346    0.3472  -18.3176 C   0  0  0  0  0  0  0  0  0  0  0  0
   -5.9527    1.1008  -17.1218 C   0  0  0  0  0  0  0  0  0  0  0  0
   -4.8727    1.2311  -16.1233 C   0  0  0  0  0  0  0  0  0  0  0  0
   -5.1447    1.9023  -14.9902 N   0  0  0  0  0  0  0  0  0  0  0  0
   -4.1992    2.0676  -14.0173 C   0  0  0  0  0  0  0  0  0  0  0  0
   -4.5012    2.8003  -12.7940 C   0  0  0  0  0  0  0  0  0  0  0  0
   -5.5235    2.4636  -11.9322 C   0  0  0  0  0  0  0  0  0  0  0  0
   -5.7655    3.2002  -10.7753 C   0  0  0  0  0  0  0  0  0  0  0  0
   -3.7376    3.8976  -12.4505 C   0  0  0  0  0  0  0  0  0  0  0  0
   -3.9771    4.6273  -11.3047 C   0  0  0  0  0  0  0  0  0  0  0  0
   -4.9981    4.2970  -10.4370 C   0  0  0  0  0  0  0  0  0  0  0  0
   -5.2703    5.0683   -9.1990 C   0  0  0  0  0  0  0  0  0  0  0  0
   -4.0758    5.4401   -8.4993 N   0  0  2  0  0  4  0  0  0  0  0  0
   -3.1423    6.2123   -9.2664 C   0  0  0  0  0  0  0  0  0  0  0  0
   -1.7972    6.1536   -8.5484 C   0  0  0  0  0  0  0  0  0  0  0  0
   -3.4220    4.2576   -7.9114 C   0  0  0  0  0  0  0  0  0  0  0  0
   -2.6126    4.7454   -6.7086 C   0  0  0  0  0  0  0  0  0  0  0  0
   -2.0653    6.0256   -7.1369 N   0  0  0  0  0  0  0  0  0  0  0  0
   -1.8505    7.0317   -6.1687 C   0  0  0  0  0  0  0  0  0  0  0  0
   -1.3068    6.7568   -4.9537 C   0  0  0  0  0  0  0  0  0  0  0  0
   -1.0982    7.7534   -3.9889 C   0  0  0  0  0  0  0  0  0  0  0  0
   -2.2064    8.3435   -6.4511 C   0  0  0  0  0  0  0  0  0  0  0  0
   -2.0014    9.3007   -5.5132 C   0  0  0  0  0  0  0  0  0  0  0  0
   -1.4448    9.0515   -4.2552 C   0  0  0  0  0  0  0  0  0  0  0  0
   -1.2574   10.0859   -3.3374 N   0  0  0  0  0  0  0  0  0  0  0  0
   -0.9626   11.4097   -3.7027 C   0  0  0  0  0  0  0  0  0  0  0  0
   -1.1678   11.9174   -4.8048 O   0  0  0  0  0  0  0  0  0  0  0  0
   -0.3413   12.2652   -2.6355 C   0  0  0  0  0  0  0  0  0  0  0  0
   -1.1927   13.4902   -2.4475 C   0  0  0  0  0  0  0  0  0  0  0  0
  1  2  2  0
  1  6  1  0
  2  3  1  0
  3  4  2  0
  4  5  1  0
  5  6  2  0
  6  7  1  0
  7  8  2  0
  7 17  1  0
  8  9  1  0
  9 10  1  0
  9 15  2  0
 10 11  2  0
 10 12  1  0
 12 13  2  0
 14 13  1  1
 14 15  1  0
 15 16  1  0
 16 17  2  0
 17 18  1  0
 18 19  2  0
 18 21  1  0
 19 20  1  0
 20 23  2  0
 21 22  2  0
 22 23  1  0
 24 23  1  1
 25 24  1  6
 25 26  1  0
 25 28  1  0
 26 27  1  6
 27 30  1  6
 28 29  1  6
 29 30  1  6
 30 31  1  0
 31 32  2  0
 31 34  1  0
 32 33  1  0
 33 36  2  0
 34 35  2  0
 35 36  1  0
 36 37  1  0
 37 38  1  0
 38 39  2  0
 40 38  1  1
 41 40  1  6
M  CHG  1  25   1
M  END
$$$$
