
     RDKit          3D

 41 46  0  0  0  0  0  0  0  0999 V2000
   -2.4781    0.0283  -12.4788 C   0  0  0  0  0  0  0  0  0  0  0  0
   -1.4471   -0.3894  -11.6644 C   0  0  0  0  0  0  0  0  0  0  0  0
   -0.1459   -0.1769  -12.0669 C   0  0  0  0  0  0  0  0  0  0  0  0
    0.1318    0.4445  -13.2669 C   0  0  0  0  0  0  0  0  0  0  0  0
   -0.9216    0.8500  -14.0578 C   0  0  0  0  0  0  0  0  0  0  0  0
   -2.2384    0.6562  -13.6913 C   0  0  0  0  0  0  0  0  0  0  0  0
   -3.3513    1.0868  -14.5279 C   0  0  0  0  0  0  0  0  0  0  0  0
   -3.4176    0.6792  -15.8449 C   0  0  0  0  0  0  0  0  0  0  0  0
   -4.4953    1.1098  -16.5946 C   0  0  0  0  0  0  0  0  0  0  0  0
   -4.6159    0.7098  -17.9954 C   0  0  0  0  0  0  0  0  0  0  0  0
   -3.7227   -0.0172  -18.4559 O   0  0  0  0  0  0  0  0  0  0  0  0
   -5.7334    1.1729  -18.7281 N   0  0  0  0  0  0  0  0  0  0  0  0
   -6.6152    1.9239  -18.1729 C   0  0  0  0  0  0  0  0  0  0  0  0
   -6.6197    2.3966  -16.7894 C   0  0  0  0  0  0  0  0  0  0  0  0
   -5.4558    1.9157  -16.0273 C   0  0  0  0  0  0  0  0  0  0  0  0
   -5.3440    2.2930  -14.7147 N   0  0  0  0  0  0  0  0  0  0  0  0
   -4.3094    1.8925  -13.9570 C   0  0  0  0  0  0  0  0  0  0  0  0
   -4.1620    2.2748  -12.5746 C   0  0  0  0  0  0  0  0  0  0  0  0
   -3.0422    2.9993  -12.2238 C   0  0  0  0  0  0  0  0  0  0  0  0
   -2.8306    3.4022  -10.9009 C   0  0  0  0  0  0  0  0  0  0  0  0
   -5.0569    1.9641  -11.5860 C   0  0  0  0  0  0  0  0  0  0  0  0
   -4.8367    2.3680  -10.2821 C   0  0  0  0  0  0  0  0  0  0  0  0
   -3.7301    3.0901   -9.9066 C   0  0  0  0  0  0  0  0  0  0  0  0
   -3.4806    3.5310   -8.5167 C   0  0  0  0  0  0  0  0  0  0  0  0
   -3.1980    4.9213   -8.3930 N   0  0  2  0  0  4  0  0  0  0  0  0
   -2.0498    5.0964   -7.5386 C   0  0  0  0  0  0  0  0  0  0  0  0
   -1.5631    6.5313   -7.5062 C   0  0  0  0  0  0  0  0  0  0  0  0
   -4.2838    5.6579   -7.7476 C   0  0  0  0  0  0  0  0  0  0  0  0
   -3.9395    7.1212   -7.9177 C   0  0  0  0  0  0  0  0  0  0  0  0
   -2.6985    7.3790   -7.2099 N   0  0  0  0  0  0  0  0  0  0  0  0
   -2.5572    8.4242   -6.2693 C   0  0  0  0  0  0  0  0  0  0  0  0
   -1.3463    8.6289   -5.6513 C   0  0  0  0  0  0  0  0  0  0  0  0
   -1.1623    9.6440   -4.7032 C   0  0  0  0  0  0  0  0  0  0  0  0
   -3.5896    9.2785   -5.9027 C   0  0  0  0  0  0  0  0  0  0  0  0
   -3.4242   10.2914   -4.9629 C   0  0  0  0  0  0  0  0  0  0  0  0
   -2.2028   10.4754   -4.3592 C   0  0  0  0  0  0  0  0  0  0  0  0
   -2.0055   11.5191   -3.3827 N   0  0  0  0  0  0  0  0  0  0  0  0
   -0.9060   12.3966   -3.4498 C   0  0  0  0  0  0  0  0  0  0  0  0
    0.0162   12.2095   -4.2748 O   0  0  0  0  0  0  0  0  0  0  0  0
   -0.8319   13.5567   -2.5374 C   0  0  0  0  0  0  0  0  0  0  0  0
    0.2358   14.5047   -3.0138 C   0  0  0  0  0  0  0  0  0  0  0  0
  1  2  2  0
  1  6  1  0
  2  3  1  0
  3  4  2  0
  4  5  1  0
  5  6  2  0
  6  7  1  0
  7  8  2  0
  7 17  1  0
  8  9  1  0
  9 10  1  0
  9 15  2  0
 10 11  2  0
 10 12  1  0
 12 13  2  0
 13 14  1  0
 14 15  1  0
 15 16  1  0
 16 17  2  0
 17 18  1  0
 18 19  2  0
 18 21  1  0
 19 20  1  0
 20 23  2  0
 21 22  2  0
 22 23  1  0
 23 24  1  0
 25 24  1  1
 25 26  1  0
 25 28  1  0
 26 27  1  0
 27 30  1  0
 28 29  1  0
 29 30  1  0
 30 31  1  0
 31 32  2  0
 31 34  1  0
 32 33  1  0
 33 36  2  0
 34 35  2  0
 35 36  1  0
 36 37  1  0
 37 38  1  0
 38 39  2  0
 38 40  1  0
 40 41  1  0
M  CHG  1  25   1
M  END
$$$$
