
     RDKit          3D

 41 46  0  0  0  0  0  0  0  0999 V2000
   -7.0433    0.4998  -13.9880 C   0  0  0  0  0  0  0  0  0  0  0  0
   -7.6860   -0.2091  -14.9804 C   0  0  0  0  0  0  0  0  0  0  0  0
   -7.2709   -0.1786  -16.3075 C   0  0  0  0  0  0  0  0  0  0  0  0
   -6.1770    0.5878  -16.6456 C   0  0  0  0  0  0  0  0  0  0  0  0
   -5.5407    1.2918  -15.6526 C   0  0  0  0  0  0  0  0  0  0  0  0
   -5.9522    1.2632  -14.3291 C   0  0  0  0  0  0  0  0  0  0  0  0
   -5.1908    2.0522  -13.3744 C   0  0  0  0  0  0  0  0  0  0  0  0
   -5.7816    2.9703  -12.5189 C   0  0  0  0  0  0  0  0  0  0  0  0
   -4.9650    3.6753  -11.6396 C   0  0  0  0  0  0  0  0  0  0  0  0
   -5.5432    4.6349  -10.7392 C   0  0  0  0  0  0  0  0  0  0  0  0
   -6.7772    4.8322  -10.7492 O   0  0  0  0  0  0  0  0  0  0  0  0
   -4.6577    5.3294   -9.8595 N   0  0  0  0  0  0  0  0  0  0  0  0
   -3.4000    5.1516   -9.8252 C   0  0  0  0  0  0  0  0  0  0  0  0
   -2.6915    4.1977  -10.6972 C   0  0  0  0  0  0  0  0  0  0  0  0
   -3.6005    3.4754  -11.6096 C   0  0  0  0  0  0  0  0  0  0  0  0
   -3.0592    2.5779  -12.4523 N   0  0  0  0  0  0  0  0  0  0  0  0
   -3.8323    1.8689  -13.3283 C   0  0  0  0  0  0  0  0  0  0  0  0
   -3.2369    0.9012  -14.2414 C   0  0  0  0  0  0  0  0  0  0  0  0
   -3.0942   -0.4390  -13.9506 C   0  0  0  0  0  0  0  0  0  0  0  0
   -2.5182   -1.3192  -14.8632 C   0  0  0  0  0  0  0  0  0  0  0  0
   -2.7815    1.3191  -15.4755 C   0  0  0  0  0  0  0  0  0  0  0  0
   -2.2109    0.4474  -16.3797 C   0  0  0  0  0  0  0  0  0  0  0  0
   -2.0645   -0.8952  -16.0963 C   0  0  0  0  0  0  0  0  0  0  0  0
   -1.4551   -1.8485  -17.0562 C   0  0  0  0  0  0  0  0  0  0  0  0
   -0.0483   -1.6387  -17.2340 N   0  0  2  0  0  4  0  0  0  0  0  0
    0.2959   -0.4936  -18.0256 C   0  0  0  0  0  0  0  0  0  0  0  0
    1.7488   -0.6566  -18.4625 C   0  0  0  0  0  0  0  0  0  0  0  0
    0.6020   -2.8535  -17.7561 C   0  0  0  0  0  0  0  0  0  0  0  0
    2.0651   -2.8037  -17.3126 C   0  0  0  0  0  0  0  0  0  0  0  0
    2.4305   -1.3985  -17.4304 N   0  0  0  0  0  0  0  0  0  0  0  0
    3.3936   -0.8694  -16.5426 C   0  0  0  0  0  0  0  0  0  0  0  0
    4.1146   -1.6625  -15.7069 C   0  0  0  0  0  0  0  0  0  0  0  0
    5.0671   -1.1385  -14.8206 C   0  0  0  0  0  0  0  0  0  0  0  0
    3.6161    0.5005  -16.5080 C   0  0  0  0  0  0  0  0  0  0  0  0
    4.5384    0.9990  -15.6486 C   0  0  0  0  0  0  0  0  0  0  0  0
    5.2962    0.2113  -14.7769 C   0  0  0  0  0  0  0  0  0  0  0  0
    6.2332    0.7901  -13.9198 N   0  0  0  0  0  0  0  0  0  0  0  0
    7.0757    0.0524  -13.0718 C   0  0  0  0  0  0  0  0  0  0  0  0
    6.9450   -1.1359  -12.7798 O   0  0  0  0  0  0  0  0  0  0  0  0
    8.2348    0.8023  -12.4793 C   0  0  0  0  0  0  0  0  0  0  0  0
    8.0197    0.9225  -10.9961 C   0  0  0  0  0  0  0  0  0  0  0  0
  1  2  2  0
  1  6  1  0
  2  3  1  0
  3  4  2  0
  4  5  1  0
  5  6  2  0
  6  7  1  0
  7  8  2  0
  7 17  1  0
  8  9  1  0
  9 10  1  0
  9 15  2  0
 10 11  2  0
 10 12  1  0
 12 13  2  0
 14 13  1  1
 14 15  1  0
 15 16  1  0
 16 17  2  0
 17 18  1  0
 18 19  2  0
 18 21  1  0
 19 20  1  0
 20 23  2  0
 21 22  2  0
 22 23  1  0
 24 23  1  1
 25 24  1  6
 25 26  1  0
 25 28  1  0
 26 27  1  6
 27 30  1  6
 28 29  1  6
 29 30  1  6
 30 31  1  0
 31 32  2  0
 31 34  1  0
 32 33  1  0
 33 36  2  0
 34 35  2  0
 35 36  1  0
 36 37  1  0
 37 38  1  0
 38 39  2  0
 40 38  1  1
 41 40  1  6
M  CHG  1  25   1
M  END
$$$$
