
     RDKit          3D

 41 46  0  0  0  0  0  0  0  0999 V2000
   -0.3097    0.1998  -14.8273 C   0  0  0  0  0  0  0  0  0  0  0  0
    0.7222   -0.5351  -14.2836 C   0  0  0  0  0  0  0  0  0  0  0  0
    0.5187   -1.4813  -13.2848 C   0  0  0  0  0  0  0  0  0  0  0  0
   -0.7606   -1.6941  -12.8197 C   0  0  0  0  0  0  0  0  0  0  0  0
   -1.7846   -0.9589  -13.3652 C   0  0  0  0  0  0  0  0  0  0  0  0
   -1.5847   -0.0152  -14.3609 C   0  0  0  0  0  0  0  0  0  0  0  0
   -2.7537    0.6940  -14.8549 C   0  0  0  0  0  0  0  0  0  0  0  0
   -3.2261    0.5511  -16.1512 C   0  0  0  0  0  0  0  0  0  0  0  0
   -4.3550    1.2731  -16.5268 C   0  0  0  0  0  0  0  0  0  0  0  0
   -4.8719    1.1497  -17.8623 C   0  0  0  0  0  0  0  0  0  0  0  0
   -4.3056    0.3940  -18.6809 O   0  0  0  0  0  0  0  0  0  0  0  0
   -6.0323    1.9143  -18.1926 N   0  0  0  0  0  0  0  0  0  0  0  0
   -6.6303    2.6907  -17.3839 C   0  0  0  0  0  0  0  0  0  0  0  0
   -6.1968    2.9011  -15.9909 C   0  0  0  0  0  0  0  0  0  0  0  0
   -4.9976    2.1135  -15.6416 C   0  0  0  0  0  0  0  0  0  0  0  0
   -4.5139    2.2296  -14.3921 N   0  0  0  0  0  0  0  0  0  0  0  0
   -3.4075    1.5350  -13.9908 C   0  0  0  0  0  0  0  0  0  0  0  0
   -2.8872    1.6699  -12.6359 C   0  0  0  0  0  0  0  0  0  0  0  0
   -1.5798    1.9990  -12.3468 C   0  0  0  0  0  0  0  0  0  0  0  0
   -1.1379    2.1156  -11.0313 C   0  0  0  0  0  0  0  0  0  0  0  0
   -3.7266    1.4641  -11.5597 C   0  0  0  0  0  0  0  0  0  0  0  0
   -3.2891    1.5795  -10.2566 C   0  0  0  0  0  0  0  0  0  0  0  0
   -1.9824    1.9085   -9.9588 C   0  0  0  0  0  0  0  0  0  0  0  0
   -1.4935    2.0390   -8.5640 C   0  0  0  0  0  0  0  0  0  0  0  0
   -1.5245    3.3900   -8.0860 N   0  0  2  0  0  4  0  0  0  0  0  0
   -0.8705    4.3450   -8.9325 C   0  0  0  0  0  0  0  0  0  0  0  0
   -0.6251    5.6023   -8.1034 C   0  0  0  0  0  0  0  0  0  0  0  0
   -1.0110    3.4711   -6.7072 C   0  0  0  0  0  0  0  0  0  0  0  0
   -1.6522    4.7012   -6.0625 C   0  0  0  0  0  0  0  0  0  0  0  0
   -1.6853    5.6922   -7.1295 N   0  0  0  0  0  0  0  0  0  0  0  0
   -2.7313    6.6416   -7.1439 C   0  0  0  0  0  0  0  0  0  0  0  0
   -3.9857    6.3368   -6.7184 C   0  0  0  0  0  0  0  0  0  0  0  0
   -5.0271    7.2763   -6.7375 C   0  0  0  0  0  0  0  0  0  0  0  0
   -2.4862    7.9262   -7.6097 C   0  0  0  0  0  0  0  0  0  0  0  0
   -3.4981    8.8283   -7.6248 C   0  0  0  0  0  0  0  0  0  0  0  0
   -4.7982    8.5472   -7.1945 C   0  0  0  0  0  0  0  0  0  0  0  0
   -5.7927    9.5255   -7.2332 N   0  0  0  0  0  0  0  0  0  0  0  0
   -5.6015   10.8122   -7.7630 C   0  0  0  0  0  0  0  0  0  0  0  0
   -4.5342   11.2780   -8.1610 O   0  0  0  0  0  0  0  0  0  0  0  0
   -6.8246   11.6810   -7.8416 C   0  0  0  0  0  0  0  0  0  0  0  0
   -6.7327   12.7353   -6.7735 C   0  0  0  0  0  0  0  0  0  0  0  0
  1  2  2  0
  1  6  1  0
  2  3  1  0
  3  4  2  0
  4  5  1  0
  5  6  2  0
  6  7  1  0
  7  8  2  0
  7 17  1  0
  8  9  1  0
  9 10  1  0
  9 15  2  0
 10 11  2  0
 10 12  1  0
 12 13  2  0
 14 13  1  1
 14 15  1  0
 15 16  1  0
 16 17  2  0
 17 18  1  0
 18 19  2  0
 18 21  1  0
 19 20  1  0
 20 23  2  0
 21 22  2  0
 22 23  1  0
 24 23  1  1
 25 24  1  6
 25 26  1  0
 25 28  1  0
 26 27  1  6
 27 30  1  6
 28 29  1  6
 29 30  1  6
 30 31  1  0
 31 32  2  0
 31 34  1  0
 32 33  1  0
 33 36  2  0
 34 35  2  0
 35 36  1  0
 36 37  1  0
 37 38  1  0
 38 39  2  0
 40 38  1  1
 41 40  1  6
M  CHG  1  25   1
M  END
$$$$
