
     RDKit          3D

 41 46  0  0  0  0  0  0  0  0999 V2000
   -5.2550    1.0593  -13.9591 C   0  0  0  0  0  0  0  0  0  0  0  0
   -6.5828    1.3582  -14.1785 C   0  0  0  0  0  0  0  0  0  0  0  0
   -7.0236    1.9917  -15.3356 C   0  0  0  0  0  0  0  0  0  0  0  0
   -6.1012    2.3343  -16.2999 C   0  0  0  0  0  0  0  0  0  0  0  0
   -4.7797    2.0340  -16.0757 C   0  0  0  0  0  0  0  0  0  0  0  0
   -4.3376    1.4026  -14.9234 C   0  0  0  0  0  0  0  0  0  0  0  0
   -2.9123    1.1393  -14.8097 C   0  0  0  0  0  0  0  0  0  0  0  0
   -2.1680    0.5795  -15.8376 C   0  0  0  0  0  0  0  0  0  0  0  0
   -0.8080    0.3689  -15.6303 C   0  0  0  0  0  0  0  0  0  0  0  0
   -0.0062   -0.2097  -16.6734 C   0  0  0  0  0  0  0  0  0  0  0  0
   -0.5335   -0.5210  -17.7628 O   0  0  0  0  0  0  0  0  0  0  0  0
    1.3833   -0.4036  -16.4052 N   0  0  0  0  0  0  0  0  0  0  0  0
    1.9487   -0.0980  -15.3092 C   0  0  0  0  0  0  0  0  0  0  0  0
    1.2344    0.5002  -14.1670 C   0  0  0  0  0  0  0  0  0  0  0  0
   -0.2029    0.7041  -14.4368 C   0  0  0  0  0  0  0  0  0  0  0  0
   -0.9530    1.2450  -13.4604 N   0  0  0  0  0  0  0  0  0  0  0  0
   -2.2910    1.4652  -13.6310 C   0  0  0  0  0  0  0  0  0  0  0  0
   -3.0975    2.0479  -12.5659 C   0  0  0  0  0  0  0  0  0  0  0  0
   -3.8515    3.1926  -12.7151 C   0  0  0  0  0  0  0  0  0  0  0  0
   -4.6051    3.7040  -11.6615 C   0  0  0  0  0  0  0  0  0  0  0  0
   -3.1302    1.4419  -11.3262 C   0  0  0  0  0  0  0  0  0  0  0  0
   -3.8765    1.9483  -10.2825 C   0  0  0  0  0  0  0  0  0  0  0  0
   -4.6338    3.0933  -10.4236 C   0  0  0  0  0  0  0  0  0  0  0  0
   -5.4443    3.6523   -9.3136 C   0  0  0  0  0  0  0  0  0  0  0  0
   -4.6431    4.1838   -8.2504 N   0  0  2  0  0  4  0  0  0  0  0  0
   -3.3993    3.5040   -8.0341 C   0  0  0  0  0  0  0  0  0  0  0  0
   -2.8933    3.9003   -6.6501 C   0  0  0  0  0  0  0  0  0  0  0  0
   -5.4193    4.2703   -7.0008 C   0  0  0  0  0  0  0  0  0  0  0  0
   -4.7898    5.3816   -6.1591 C   0  0  0  0  0  0  0  0  0  0  0  0
   -3.3581    5.2401   -6.3866 N   0  0  0  0  0  0  0  0  0  0  0  0
   -2.5454    6.3949   -6.3459 C   0  0  0  0  0  0  0  0  0  0  0  0
   -3.0743    7.6468   -6.3259 C   0  0  0  0  0  0  0  0  0  0  0  0
   -2.2689    8.7947   -6.2914 C   0  0  0  0  0  0  0  0  0  0  0  0
   -1.1636    6.2618   -6.3317 C   0  0  0  0  0  0  0  0  0  0  0  0
   -0.3924    7.3762   -6.2983 C   0  0  0  0  0  0  0  0  0  0  0  0
   -0.9043    8.6770   -6.2769 C   0  0  0  0  0  0  0  0  0  0  0  0
   -0.0522    9.7815   -6.2384 N   0  0  0  0  0  0  0  0  0  0  0  0
    1.1951    9.8279   -6.8826 C   0  0  0  0  0  0  0  0  0  0  0  0
    1.8865    8.8568   -7.1882 O   0  0  0  0  0  0  0  0  0  0  0  0
    1.7123   11.1975   -7.2197 C   0  0  0  0  0  0  0  0  0  0  0  0
    2.8840   11.5001   -6.3274 C   0  0  0  0  0  0  0  0  0  0  0  0
  1  2  2  0
  1  6  1  0
  2  3  1  0
  3  4  2  0
  4  5  1  0
  5  6  2  0
  6  7  1  0
  7  8  2  0
  7 17  1  0
  8  9  1  0
  9 10  1  0
  9 15  2  0
 10 11  2  0
 10 12  1  0
 12 13  2  0
 14 13  1  1
 14 15  1  0
 15 16  1  0
 16 17  2  0
 17 18  1  0
 18 19  2  0
 18 21  1  0
 19 20  1  0
 20 23  2  0
 21 22  2  0
 22 23  1  0
 24 23  1  1
 25 24  1  6
 25 26  1  0
 25 28  1  0
 26 27  1  6
 27 30  1  6
 28 29  1  6
 29 30  1  6
 30 31  1  0
 31 32  2  0
 31 34  1  0
 32 33  1  0
 33 36  2  0
 34 35  2  0
 35 36  1  0
 36 37  1  0
 37 38  1  0
 38 39  2  0
 40 38  1  1
 41 40  1  6
M  CHG  1  25   1
M  END
$$$$
