
     RDKit          3D

 41 46  0  0  0  0  0  0  0  0999 V2000
   -0.1539    0.7160  -15.3846 C   0  0  0  0  0  0  0  0  0  0  0  0
    1.0046    0.1272  -14.9244 C   0  0  0  0  0  0  0  0  0  0  0  0
    1.0104   -0.7925  -13.8810 C   0  0  0  0  0  0  0  0  0  0  0  0
   -0.1845   -1.1294  -13.2835 C   0  0  0  0  0  0  0  0  0  0  0  0
   -1.3353   -0.5395  -13.7464 C   0  0  0  0  0  0  0  0  0  0  0  0
   -1.3441    0.3774  -14.7861 C   0  0  0  0  0  0  0  0  0  0  0  0
   -2.6303    0.9273  -15.1824 C   0  0  0  0  0  0  0  0  0  0  0  0
   -3.1681    0.7420  -16.4474 C   0  0  0  0  0  0  0  0  0  0  0  0
   -4.4082    1.3081  -16.7280 C   0  0  0  0  0  0  0  0  0  0  0  0
   -4.9955    1.1367  -18.0287 C   0  0  0  0  0  0  0  0  0  0  0  0
   -4.3902    0.4795  -18.9025 O   0  0  0  0  0  0  0  0  0  0  0  0
   -6.2692    1.7399  -18.2608 N   0  0  0  0  0  0  0  0  0  0  0  0
   -6.9093    2.4134  -17.3941 C   0  0  0  0  0  0  0  0  0  0  0  0
   -6.4124    2.6585  -16.0283 C   0  0  0  0  0  0  0  0  0  0  0  0
   -5.0958    2.0376  -15.7804 C   0  0  0  0  0  0  0  0  0  0  0  0
   -4.5464    2.1985  -14.5635 N   0  0  0  0  0  0  0  0  0  0  0  0
   -3.3305    1.6561  -14.2551 C   0  0  0  0  0  0  0  0  0  0  0  0
   -2.7401    1.8391  -12.9351 C   0  0  0  0  0  0  0  0  0  0  0  0
   -2.3553    3.0635  -12.4312 C   0  0  0  0  0  0  0  0  0  0  0  0
   -1.7970    3.1790  -11.1607 C   0  0  0  0  0  0  0  0  0  0  0  0
   -2.5433    0.7438  -12.1185 C   0  0  0  0  0  0  0  0  0  0  0  0
   -1.9903    0.8580  -10.8600 C   0  0  0  0  0  0  0  0  0  0  0  0
   -1.6027    2.0796  -10.3484 C   0  0  0  0  0  0  0  0  0  0  0  0
   -1.0077    2.2230   -8.9967 C   0  0  0  0  0  0  0  0  0  0  0  0
   -1.6246    3.2598   -8.2227 N   0  0  2  0  0  4  0  0  0  0  0  0
   -0.7199    4.0414   -7.4309 C   0  0  0  0  0  0  0  0  0  0  0  0
   -1.5469    4.7800   -6.3825 C   0  0  0  0  0  0  0  0  0  0  0  0
   -2.7154    2.7179   -7.3936 C   0  0  0  0  0  0  0  0  0  0  0  0
   -3.6963    3.8639   -7.1395 C   0  0  0  0  0  0  0  0  0  0  0  0
   -2.8463    5.0324   -6.9554 N   0  0  0  0  0  0  0  0  0  0  0  0
   -3.3349    6.2979   -7.3499 C   0  0  0  0  0  0  0  0  0  0  0  0
   -4.3431    6.4309   -8.2517 C   0  0  0  0  0  0  0  0  0  0  0  0
   -4.8256    7.6866   -8.6490 C   0  0  0  0  0  0  0  0  0  0  0  0
   -2.7734    7.4485   -6.8130 C   0  0  0  0  0  0  0  0  0  0  0  0
   -3.2455    8.6582   -7.2023 C   0  0  0  0  0  0  0  0  0  0  0  0
   -4.2803    8.8294   -8.1266 C   0  0  0  0  0  0  0  0  0  0  0  0
   -4.7211   10.1055   -8.4800 N   0  0  0  0  0  0  0  0  0  0  0  0
   -4.2448   11.2873   -7.8889 C   0  0  0  0  0  0  0  0  0  0  0  0
   -3.3844   11.3601   -7.0120 O   0  0  0  0  0  0  0  0  0  0  0  0
   -4.8551   12.5662   -8.3878 C   0  0  0  0  0  0  0  0  0  0  0  0
   -5.4417   13.3056   -7.2174 C   0  0  0  0  0  0  0  0  0  0  0  0
  1  2  2  0
  1  6  1  0
  2  3  1  0
  3  4  2  0
  4  5  1  0
  5  6  2  0
  6  7  1  0
  7  8  2  0
  7 17  1  0
  8  9  1  0
  9 10  1  0
  9 15  2  0
 10 11  2  0
 10 12  1  0
 12 13  2  0
 14 13  1  1
 14 15  1  0
 15 16  1  0
 16 17  2  0
 17 18  1  0
 18 19  2  0
 18 21  1  0
 19 20  1  0
 20 23  2  0
 21 22  2  0
 22 23  1  0
 24 23  1  1
 25 24  1  1
 25 26  1  0
 25 28  1  0
 26 27  1  6
 27 30  1  6
 28 29  1  6
 29 30  1  6
 30 31  1  0
 31 32  2  0
 31 34  1  0
 32 33  1  0
 33 36  2  0
 34 35  2  0
 35 36  1  0
 36 37  1  0
 37 38  1  0
 38 39  2  0
 40 38  1  1
 41 40  1  6
M  CHG  1  25   1
M  END
$$$$
