
     RDKit          3D

 41 46  0  0  0  0  0  0  0  0999 V2000
   -4.5162   -0.9001  -16.6868 C   0  0  0  0  0  0  0  0  0  0  0  0
   -4.6691   -1.4970  -17.9200 C   0  0  0  0  0  0  0  0  0  0  0  0
   -5.0494   -0.7839  -19.0520 C   0  0  0  0  0  0  0  0  0  0  0  0
   -5.2825    0.5693  -18.9395 C   0  0  0  0  0  0  0  0  0  0  0  0
   -5.1286    1.1584  -17.7083 C   0  0  0  0  0  0  0  0  0  0  0  0
   -4.7496    0.4502  -16.5784 C   0  0  0  0  0  0  0  0  0  0  0  0
   -4.6201    1.1930  -15.3353 C   0  0  0  0  0  0  0  0  0  0  0  0
   -5.6401    1.9802  -14.8216 C   0  0  0  0  0  0  0  0  0  0  0  0
   -5.4177    2.6507  -13.6224 C   0  0  0  0  0  0  0  0  0  0  0  0
   -6.4523    3.4755  -13.0611 C   0  0  0  0  0  0  0  0  0  0  0  0
   -7.5479    3.5871  -13.6520 O   0  0  0  0  0  0  0  0  0  0  0  0
   -6.1687    4.1404  -11.8291 N   0  0  0  0  0  0  0  0  0  0  0  0
   -5.0661    4.0475  -11.2046 C   0  0  0  0  0  0  0  0  0  0  0  0
   -3.9316    3.2345  -11.6781 C   0  0  0  0  0  0  0  0  0  0  0  0
   -4.2172    2.5436  -12.9514 C   0  0  0  0  0  0  0  0  0  0  0  0
   -3.2489    1.7722  -13.4767 N   0  0  0  0  0  0  0  0  0  0  0  0
   -3.4343    1.1004  -14.6523 C   0  0  0  0  0  0  0  0  0  0  0  0
   -2.3778    0.2699  -15.2168 C   0  0  0  0  0  0  0  0  0  0  0  0
   -1.9689    0.3398  -16.5318 C   0  0  0  0  0  0  0  0  0  0  0  0
   -0.9518   -0.4785  -17.0168 C   0  0  0  0  0  0  0  0  0  0  0  0
   -1.7297   -0.6475  -14.4147 C   0  0  0  0  0  0  0  0  0  0  0  0
   -0.7223   -1.4582  -14.8949 C   0  0  0  0  0  0  0  0  0  0  0  0
   -0.3072   -1.3943  -16.2094 C   0  0  0  0  0  0  0  0  0  0  0  0
    0.7756   -2.2565  -16.7441 C   0  0  0  0  0  0  0  0  0  0  0  0
    2.0746   -1.6640  -16.6173 N   0  0  2  0  0  4  0  0  0  0  0  0
    2.2903   -0.5027  -17.4303 C   0  0  0  0  0  0  0  0  0  0  0  0
    3.7959   -0.2652  -17.5027 C   0  0  0  0  0  0  0  0  0  0  0  0
    3.1325   -2.6653  -16.8397 C   0  0  0  0  0  0  0  0  0  0  0  0
    4.3708   -2.1840  -16.0815 C   0  0  0  0  0  0  0  0  0  0  0  0
    4.3687   -0.7392  -16.2667 N   0  0  0  0  0  0  0  0  0  0  0  0
    4.9032    0.0782  -15.2460 C   0  0  0  0  0  0  0  0  0  0  0  0
    5.4312    1.3030  -15.5073 C   0  0  0  0  0  0  0  0  0  0  0  0
    5.9678    2.1135  -14.4960 C   0  0  0  0  0  0  0  0  0  0  0  0
    4.9013   -0.3734  -13.9332 C   0  0  0  0  0  0  0  0  0  0  0  0
    5.4217    0.4161  -12.9617 C   0  0  0  0  0  0  0  0  0  0  0  0
    5.9717    1.6797  -13.1968 C   0  0  0  0  0  0  0  0  0  0  0  0
    6.4872    2.4428  -12.1482 N   0  0  0  0  0  0  0  0  0  0  0  0
    7.0028    1.8931  -10.9629 C   0  0  0  0  0  0  0  0  0  0  0  0
    7.0058    0.6998  -10.6620 O   0  0  0  0  0  0  0  0  0  0  0  0
    7.5997    2.8688   -9.9890 C   0  0  0  0  0  0  0  0  0  0  0  0
    8.0775    2.1096   -8.7823 C   0  0  0  0  0  0  0  0  0  0  0  0
  1  2  2  0
  1  6  1  0
  2  3  1  0
  3  4  2  0
  4  5  1  0
  5  6  2  0
  6  7  1  0
  7  8  2  0
  7 17  1  0
  8  9  1  0
  9 10  1  0
  9 15  2  0
 10 11  2  0
 10 12  1  0
 12 13  2  0
 14 13  1  1
 14 15  1  0
 15 16  1  0
 16 17  2  0
 17 18  1  0
 18 19  2  0
 18 21  1  0
 19 20  1  0
 20 23  2  0
 21 22  2  0
 22 23  1  0
 24 23  1  1
 25 24  1  6
 25 26  1  0
 25 28  1  0
 26 27  1  6
 27 30  1  6
 28 29  1  6
 29 30  1  6
 30 31  1  0
 31 32  2  0
 31 34  1  0
 32 33  1  0
 33 36  2  0
 34 35  2  0
 35 36  1  0
 36 37  1  0
 37 38  1  0
 38 39  2  0
 40 38  1  1
 41 40  1  6
M  CHG  1  25   1
M  END
$$$$
