
     RDKit          3D

 41 46  0  0  0  0  0  0  0  0999 V2000
   -3.5723    2.3160  -13.3396 C   0  0  0  0  0  0  0  0  0  0  0  0
   -2.8104    2.5201  -12.2088 C   0  0  0  0  0  0  0  0  0  0  0  0
   -3.3918    2.3565  -10.9696 C   0  0  0  0  0  0  0  0  0  0  0  0
   -4.7176    1.9937  -10.8516 C   0  0  0  0  0  0  0  0  0  0  0  0
   -5.4515    1.7973  -12.0015 C   0  0  0  0  0  0  0  0  0  0  0  0
   -4.9072    1.9507  -13.2609 C   0  0  0  0  0  0  0  0  0  0  0  0
   -5.6841    1.7413  -14.4761 C   0  0  0  0  0  0  0  0  0  0  0  0
   -6.9236    2.3337  -14.6087 C   0  0  0  0  0  0  0  0  0  0  0  0
   -7.6180    2.1089  -15.7818 C   0  0  0  0  0  0  0  0  0  0  0  0
   -8.9361    2.7104  -15.9759 C   0  0  0  0  0  0  0  0  0  0  0  0
   -9.3793    3.4133  -15.0552 O   0  0  0  0  0  0  0  0  0  0  0  0
   -9.6143    2.4547  -17.1904 N   0  0  0  0  0  0  0  0  0  0  0  0
   -9.0819    1.7140  -18.0946 C   0  0  0  0  0  0  0  0  0  0  0  0
   -7.7785    1.0542  -18.0332 C   0  0  0  0  0  0  0  0  0  0  0  0
   -7.0735    1.3192  -16.7686 C   0  0  0  0  0  0  0  0  0  0  0  0
   -5.8385    0.7533  -16.5880 N   0  0  0  0  0  0  0  0  0  0  0  0
   -5.1362    0.9509  -15.4601 C   0  0  0  0  0  0  0  0  0  0  0  0
   -3.8364    0.3672  -15.2391 C   0  0  0  0  0  0  0  0  0  0  0  0
   -2.8296    0.6852  -16.1264 C   0  0  0  0  0  0  0  0  0  0  0  0
   -1.5440    0.1539  -15.9771 C   0  0  0  0  0  0  0  0  0  0  0  0
   -3.5351   -0.4840  -14.2100 C   0  0  0  0  0  0  0  0  0  0  0  0
   -2.2607   -1.0026  -14.0729 C   0  0  0  0  0  0  0  0  0  0  0  0
   -1.2406   -0.7020  -14.9424 C   0  0  0  0  0  0  0  0  0  0  0  0
    0.1282   -1.2469  -14.8089 C   0  0  0  0  0  0  0  0  0  0  0  0
    1.1199   -0.2603  -14.5420 N   0  0  2  0  0  4  0  0  0  0  0  0
    2.3558   -0.6486  -15.1752 C   0  0  0  0  0  0  0  0  0  0  0  0
    3.4112    0.4367  -15.1038 C   0  0  0  0  0  0  0  0  0  0  0  0
    1.4273   -0.1468  -13.1170 C   0  0  0  0  0  0  0  0  0  0  0  0
    2.2923    1.0873  -12.9849 C   0  0  0  0  0  0  0  0  0  0  0  0
    3.5211    0.8595  -13.7236 N   0  0  0  0  0  0  0  0  0  0  0  0
    4.8013    1.0504  -13.1564 C   0  0  0  0  0  0  0  0  0  0  0  0
    5.9259    0.8075  -13.9090 C   0  0  0  0  0  0  0  0  0  0  0  0
    7.2153    0.9707  -13.3856 C   0  0  0  0  0  0  0  0  0  0  0  0
    5.0123    1.4667  -11.8479 C   0  0  0  0  0  0  0  0  0  0  0  0
    6.2858    1.6336  -11.3122 C   0  0  0  0  0  0  0  0  0  0  0  0
    7.3945    1.3839  -12.0859 C   0  0  0  0  0  0  0  0  0  0  0  0
    8.7254    1.5507  -11.5542 N   0  0  0  0  0  0  0  0  0  0  0  0
    9.8704    1.3278  -12.3433 C   0  0  0  0  0  0  0  0  0  0  0  0
    9.7683    1.0285  -13.5541 O   0  0  0  0  0  0  0  0  0  0  0  0
   11.2149    1.4467  -11.7416 C   0  0  0  0  0  0  0  0  0  0  0  0
   12.0288    2.4448  -12.5207 C   0  0  0  0  0  0  0  0  0  0  0  0
  1  2  2  0
  1  6  1  0
  2  3  1  0
  3  4  2  0
  4  5  1  0
  5  6  2  0
  6  7  1  0
  7  8  2  0
  7 17  1  0
  8  9  1  0
  9 10  1  0
  9 15  2  0
 10 11  2  0
 10 12  1  0
 12 13  2  0
 13 14  1  0
 14 15  1  0
 15 16  1  0
 16 17  2  0
 17 18  1  0
 18 19  2  0
 18 21  1  0
 19 20  1  0
 20 23  2  0
 21 22  2  0
 22 23  1  0
 23 24  1  0
 25 24  1  1
 25 26  1  0
 25 28  1  0
 26 27  1  0
 27 30  1  0
 28 29  1  0
 29 30  1  0
 30 31  1  0
 31 32  2  0
 31 34  1  0
 32 33  1  0
 33 36  2  0
 34 35  2  0
 35 36  1  0
 36 37  1  0
 37 38  1  0
 38 39  2  0
 38 40  1  0
 40 41  1  0
M  CHG  1  25   1
M  END
$$$$
