
     RDKit          3D

 41 46  0  0  0  0  0  0  0  0999 V2000
   -6.0311    0.7001  -13.3534 C   0  0  0  0  0  0  0  0  0  0  0  0
   -7.2370    0.7537  -12.6873 C   0  0  0  0  0  0  0  0  0  0  0  0
   -8.2723    1.4830  -13.2316 C   0  0  0  0  0  0  0  0  0  0  0  0
   -8.1143    2.1542  -14.4266 C   0  0  0  0  0  0  0  0  0  0  0  0
   -6.8963    2.0804  -15.0673 C   0  0  0  0  0  0  0  0  0  0  0  0
   -5.8346    1.3611  -14.5560 C   0  0  0  0  0  0  0  0  0  0  0  0
   -4.5476    1.2828  -15.2353 C   0  0  0  0  0  0  0  0  0  0  0  0
   -4.4738    0.7494  -16.5062 C   0  0  0  0  0  0  0  0  0  0  0  0
   -3.2317    0.7026  -17.1093 C   0  0  0  0  0  0  0  0  0  0  0  0
   -3.0944    0.1468  -18.4544 C   0  0  0  0  0  0  0  0  0  0  0  0
   -4.1263   -0.2657  -19.0050 O   0  0  0  0  0  0  0  0  0  0  0  0
   -1.8054    0.1162  -19.0357 N   0  0  0  0  0  0  0  0  0  0  0  0
   -0.7871    0.5660  -18.3951 C   0  0  0  0  0  0  0  0  0  0  0  0
   -0.7807    1.1461  -17.0530 C   0  0  0  0  0  0  0  0  0  0  0  0
   -2.1220    1.1766  -16.4475 C   0  0  0  0  0  0  0  0  0  0  0  0
   -2.2484    1.6968  -15.1861 N   0  0  0  0  0  0  0  0  0  0  0  0
   -3.4407    1.7576  -14.5702 C   0  0  0  0  0  0  0  0  0  0  0  0
   -3.6055    2.2961  -13.2429 C   0  0  0  0  0  0  0  0  0  0  0  0
   -4.5837    3.2496  -13.0529 C   0  0  0  0  0  0  0  0  0  0  0  0
   -4.7989    3.8192  -11.7933 C   0  0  0  0  0  0  0  0  0  0  0  0
   -2.8544    1.9274  -12.1592 C   0  0  0  0  0  0  0  0  0  0  0  0
   -3.0766    2.4975  -10.9193 C   0  0  0  0  0  0  0  0  0  0  0  0
   -4.0439    3.4487  -10.7034 C   0  0  0  0  0  0  0  0  0  0  0  0
   -4.2953    4.0671   -9.3833 C   0  0  0  0  0  0  0  0  0  0  0  0
   -3.4315    5.1586   -9.0821 N   0  0  2  0  0  4  0  0  0  0  0  0
   -2.6113    4.8135   -7.9475 C   0  0  0  0  0  0  0  0  0  0  0  0
   -1.5308    5.8413   -7.6776 C   0  0  0  0  0  0  0  0  0  0  0  0
   -4.1649    6.3599   -8.6857 C   0  0  0  0  0  0  0  0  0  0  0  0
   -3.1367    7.4689   -8.6455 C   0  0  0  0  0  0  0  0  0  0  0  0
   -2.1605    7.1437   -7.6214 N   0  0  0  0  0  0  0  0  0  0  0  0
   -1.7958    8.0470   -6.5977 C   0  0  0  0  0  0  0  0  0  0  0  0
   -2.1787    9.3648   -6.6801 C   0  0  0  0  0  0  0  0  0  0  0  0
   -1.8297   10.2991   -5.6959 C   0  0  0  0  0  0  0  0  0  0  0  0
   -1.0435    7.6912   -5.4853 C   0  0  0  0  0  0  0  0  0  0  0  0
   -0.6880    8.6062   -4.4989 C   0  0  0  0  0  0  0  0  0  0  0  0
   -1.0835    9.9186   -4.6048 C   0  0  0  0  0  0  0  0  0  0  0  0
   -0.7288   10.8861   -3.5950 N   0  0  0  0  0  0  0  0  0  0  0  0
    0.6047   11.0665   -3.1794 C   0  0  0  0  0  0  0  0  0  0  0  0
    1.4771   10.2041   -3.4263 O   0  0  0  0  0  0  0  0  0  0  0  0
    0.9879   12.2880   -2.4412 C   0  0  0  0  0  0  0  0  0  0  0  0
    2.3671   12.1155   -1.8636 C   0  0  0  0  0  0  0  0  0  0  0  0
  1  2  2  0
  1  6  1  0
  2  3  1  0
  3  4  2  0
  4  5  1  0
  5  6  2  0
  6  7  1  0
  7  8  2  0
  7 17  1  0
  8  9  1  0
  9 10  1  0
  9 15  2  0
 10 11  2  0
 10 12  1  0
 12 13  2  0
 13 14  1  0
 14 15  1  0
 15 16  1  0
 16 17  2  0
 17 18  1  0
 18 19  2  0
 18 21  1  0
 19 20  1  0
 20 23  2  0
 21 22  2  0
 22 23  1  0
 23 24  1  0
 25 24  1  1
 25 26  1  0
 25 28  1  0
 26 27  1  0
 27 30  1  0
 28 29  1  0
 29 30  1  0
 30 31  1  0
 31 32  2  0
 31 34  1  0
 32 33  1  0
 33 36  2  0
 34 35  2  0
 35 36  1  0
 36 37  1  0
 37 38  1  0
 38 39  2  0
 38 40  1  0
 40 41  1  0
M  CHG  1  25   1
M  END
$$$$
