
     RDKit          3D

 41 46  0  0  0  0  0  0  0  0999 V2000
   -6.7771    2.6659  -11.7847 C   0  0  0  0  0  0  0  0  0  0  0  0
   -7.1637    2.6692  -10.4613 C   0  0  0  0  0  0  0  0  0  0  0  0
   -7.9178    1.6203   -9.9800 C   0  0  0  0  0  0  0  0  0  0  0  0
   -8.2860    0.5764  -10.8034 C   0  0  0  0  0  0  0  0  0  0  0  0
   -7.8833    0.6034  -12.1211 C   0  0  0  0  0  0  0  0  0  0  0  0
   -7.1277    1.6347  -12.6421 C   0  0  0  0  0  0  0  0  0  0  0  0
   -6.7014    1.6612  -14.0355 C   0  0  0  0  0  0  0  0  0  0  0  0
   -7.6431    1.5988  -15.0427 C   0  0  0  0  0  0  0  0  0  0  0  0
   -7.1884    1.6330  -16.3468 C   0  0  0  0  0  0  0  0  0  0  0  0
   -8.1414    1.5688  -17.4535 C   0  0  0  0  0  0  0  0  0  0  0  0
   -9.3439    1.4862  -17.1615 O   0  0  0  0  0  0  0  0  0  0  0  0
   -7.6350    1.6055  -18.7735 N   0  0  0  0  0  0  0  0  0  0  0  0
   -6.3717    1.6930  -18.9883 C   0  0  0  0  0  0  0  0  0  0  0  0
   -5.3135    1.7656  -17.9820 C   0  0  0  0  0  0  0  0  0  0  0  0
   -5.8405    1.7259  -16.6083 C   0  0  0  0  0  0  0  0  0  0  0  0
   -4.9454    1.7848  -15.5723 N   0  0  0  0  0  0  0  0  0  0  0  0
   -5.3529    1.7540  -14.2926 C   0  0  0  0  0  0  0  0  0  0  0  0
   -4.4360    1.8112  -13.1813 C   0  0  0  0  0  0  0  0  0  0  0  0
   -4.1166    3.0534  -12.6746 C   0  0  0  0  0  0  0  0  0  0  0  0
   -3.2315    3.1866  -11.5994 C   0  0  0  0  0  0  0  0  0  0  0  0
   -3.8584    0.7158  -12.5973 C   0  0  0  0  0  0  0  0  0  0  0  0
   -2.9851    0.8601  -11.5351 C   0  0  0  0  0  0  0  0  0  0  0  0
   -2.6505    2.0854  -11.0119 C   0  0  0  0  0  0  0  0  0  0  0  0
   -1.7194    2.2570   -9.8752 C   0  0  0  0  0  0  0  0  0  0  0  0
   -0.4153    2.6844  -10.2553 N   0  0  2  0  0  4  0  0  0  0  0  0
    0.2108    1.6506  -11.0417 C   0  0  0  0  0  0  0  0  0  0  0  0
    1.5253    2.0981  -11.6488 C   0  0  0  0  0  0  0  0  0  0  0  0
    0.4639    2.8898   -9.1051 C   0  0  0  0  0  0  0  0  0  0  0  0
    1.7003    3.5667   -9.6544 C   0  0  0  0  0  0  0  0  0  0  0  0
    2.3375    2.6559  -10.5881 N   0  0  0  0  0  0  0  0  0  0  0  0
    3.7065    2.3139  -10.5098 C   0  0  0  0  0  0  0  0  0  0  0  0
    4.2678    1.5136  -11.4764 C   0  0  0  0  0  0  0  0  0  0  0  0
    5.6171    1.1380  -11.4336 C   0  0  0  0  0  0  0  0  0  0  0  0
    4.5496    2.7306   -9.4872 C   0  0  0  0  0  0  0  0  0  0  0  0
    5.8915    2.3668   -9.4292 C   0  0  0  0  0  0  0  0  0  0  0  0
    6.4288    1.5653  -10.4086 C   0  0  0  0  0  0  0  0  0  0  0  0
    7.8174    1.1753  -10.3717 N   0  0  0  0  0  0  0  0  0  0  0  0
    8.5983    1.1087  -11.5419 C   0  0  0  0  0  0  0  0  0  0  0  0
    8.0615    1.0738  -12.6717 O   0  0  0  0  0  0  0  0  0  0  0  0
   10.0726    1.0791  -11.4436 C   0  0  0  0  0  0  0  0  0  0  0  0
   10.5310   -0.3286  -11.1719 C   0  0  0  0  0  0  0  0  0  0  0  0
  1  2  2  0
  1  6  1  0
  2  3  1  0
  3  4  2  0
  4  5  1  0
  5  6  2  0
  6  7  1  0
  7  8  2  0
  7 17  1  0
  8  9  1  0
  9 10  1  0
  9 15  2  0
 10 11  2  0
 10 12  1  0
 12 13  2  0
 13 14  1  0
 14 15  1  0
 15 16  1  0
 16 17  2  0
 17 18  1  0
 18 19  2  0
 18 21  1  0
 19 20  1  0
 20 23  2  0
 21 22  2  0
 22 23  1  0
 23 24  1  0
 25 24  1  1
 25 26  1  0
 25 28  1  0
 26 27  1  0
 27 30  1  0
 28 29  1  0
 29 30  1  0
 30 31  1  0
 31 32  2  0
 31 34  1  0
 32 33  1  0
 33 36  2  0
 34 35  2  0
 35 36  1  0
 36 37  1  0
 37 38  1  0
 38 39  2  0
 38 40  1  0
 40 41  1  0
M  CHG  1  25   1
M  END
$$$$
