
     RDKit          3D

 41 46  0  0  0  0  0  0  0  0999 V2000
   -0.4299   -0.7374  -13.9947 C   0  0  0  0  0  0  0  0  0  0  0  0
    0.6381   -0.8370  -13.1287 C   0  0  0  0  0  0  0  0  0  0  0  0
    1.0759    0.2346  -12.3577 C   0  0  0  0  0  0  0  0  0  0  0  0
    0.4196    1.4416  -12.4613 C   0  0  0  0  0  0  0  0  0  0  0  0
   -0.6437    1.5347  -13.3258 C   0  0  0  0  0  0  0  0  0  0  0  0
   -1.0822    0.4683  -14.0954 C   0  0  0  0  0  0  0  0  0  0  0  0
   -2.2209    0.6978  -14.9697 C   0  0  0  0  0  0  0  0  0  0  0  0
   -2.2083    0.3756  -16.3188 C   0  0  0  0  0  0  0  0  0  0  0  0
   -3.3508    0.6331  -17.0707 C   0  0  0  0  0  0  0  0  0  0  0  0
   -3.3730    0.3124  -18.4716 C   0  0  0  0  0  0  0  0  0  0  0  0
   -2.3662   -0.1968  -19.0090 O   0  0  0  0  0  0  0  0  0  0  0  0
   -4.5716    0.5989  -19.1938 N   0  0  0  0  0  0  0  0  0  0  0  0
   -5.6108    1.1158  -18.6770 C   0  0  0  0  0  0  0  0  0  0  0  0
   -5.7099    1.4880  -17.2543 C   0  0  0  0  0  0  0  0  0  0  0  0
   -4.4745    1.1945  -16.5006 C   0  0  0  0  0  0  0  0  0  0  0  0
   -4.4539    1.4951  -15.1899 N   0  0  0  0  0  0  0  0  0  0  0  0
   -3.3485    1.2553  -14.4229 C   0  0  0  0  0  0  0  0  0  0  0  0
   -3.3330    1.5882  -13.0039 C   0  0  0  0  0  0  0  0  0  0  0  0
   -2.9988    0.6922  -12.0106 C   0  0  0  0  0  0  0  0  0  0  0  0
   -2.9998    1.0667  -10.6693 C   0  0  0  0  0  0  0  0  0  0  0  0
   -3.6659    2.8653  -12.5996 C   0  0  0  0  0  0  0  0  0  0  0  0
   -3.6671    3.2364  -11.2711 C   0  0  0  0  0  0  0  0  0  0  0  0
   -3.3338    2.3458  -10.2711 C   0  0  0  0  0  0  0  0  0  0  0  0
   -3.3275    2.7265   -8.8369 C   0  0  0  0  0  0  0  0  0  0  0  0
   -2.6893    3.9873   -8.5971 N   0  0  2  0  0  4  0  0  0  0  0  0
   -3.1464    5.0630   -9.4279 C   0  0  0  0  0  0  0  0  0  0  0  0
   -2.1072    6.1777   -9.3501 C   0  0  0  0  0  0  0  0  0  0  0  0
   -1.2233    3.8555   -8.6669 C   0  0  0  0  0  0  0  0  0  0  0  0
   -0.6321    4.9699   -7.8017 C   0  0  0  0  0  0  0  0  0  0  0  0
   -1.5011    6.1138   -8.0428 N   0  0  0  0  0  0  0  0  0  0  0  0
   -1.6947    7.0517   -7.0044 C   0  0  0  0  0  0  0  0  0  0  0  0
   -1.1276    6.8961   -5.7790 C   0  0  0  0  0  0  0  0  0  0  0  0
   -1.3235    7.8232   -4.7448 C   0  0  0  0  0  0  0  0  0  0  0  0
   -2.4907    8.1673   -7.2264 C   0  0  0  0  0  0  0  0  0  0  0  0
   -2.6749    9.0586   -6.2218 C   0  0  0  0  0  0  0  0  0  0  0  0
   -2.1064    8.9281   -4.9512 C   0  0  0  0  0  0  0  0  0  0  0  0
   -2.3342    9.8865   -3.9628 N   0  0  0  0  0  0  0  0  0  0  0  0
   -3.1997   10.9814   -4.1218 C   0  0  0  0  0  0  0  0  0  0  0  0
   -3.7562   11.3159   -5.1672 O   0  0  0  0  0  0  0  0  0  0  0  0
   -3.4548   11.8041   -2.8910 C   0  0  0  0  0  0  0  0  0  0  0  0
   -4.4680   12.8638   -3.2247 C   0  0  0  0  0  0  0  0  0  0  0  0
  1  2  2  0
  1  6  1  0
  2  3  1  0
  3  4  2  0
  4  5  1  0
  5  6  2  0
  6  7  1  0
  7  8  2  0
  7 17  1  0
  8  9  1  0
  9 10  1  0
  9 15  2  0
 10 11  2  0
 10 12  1  0
 12 13  2  0
 14 13  1  1
 14 15  1  0
 15 16  1  0
 16 17  2  0
 17 18  1  0
 18 19  2  0
 18 21  1  0
 19 20  1  0
 20 23  2  0
 21 22  2  0
 22 23  1  0
 24 23  1  1
 25 24  1  6
 25 26  1  0
 25 28  1  0
 26 27  1  6
 27 30  1  6
 28 29  1  6
 29 30  1  6
 30 31  1  0
 31 32  2  0
 31 34  1  0
 32 33  1  0
 33 36  2  0
 34 35  2  0
 35 36  1  0
 36 37  1  0
 37 38  1  0
 38 39  2  0
 40 38  1  1
 41 40  1  6
M  CHG  1  25   1
M  END
$$$$
