
     RDKit          3D

 41 46  0  0  0  0  0  0  0  0999 V2000
   -1.5526    2.0895  -13.2343 C   0  0  0  0  0  0  0  0  0  0  0  0
   -1.0926    2.4454  -11.9845 C   0  0  0  0  0  0  0  0  0  0  0  0
   -0.2599    1.6224  -11.2337 C   0  0  0  0  0  0  0  0  0  0  0  0
    0.1210    0.4058  -11.7562 C   0  0  0  0  0  0  0  0  0  0  0  0
   -0.3404    0.0567  -13.0020 C   0  0  0  0  0  0  0  0  0  0  0  0
   -1.1705    0.8750  -13.7524 C   0  0  0  0  0  0  0  0  0  0  0  0
   -1.5868    0.3889  -15.0579 C   0  0  0  0  0  0  0  0  0  0  0  0
   -0.6843    0.0382  -16.0510 C   0  0  0  0  0  0  0  0  0  0  0  0
   -1.1839   -0.4185  -17.2671 C   0  0  0  0  0  0  0  0  0  0  0  0
   -0.2776   -0.7903  -18.3189 C   0  0  0  0  0  0  0  0  0  0  0  0
    0.9557   -0.7024  -18.1371 O   0  0  0  0  0  0  0  0  0  0  0  0
   -0.8459   -1.2514  -19.5455 N   0  0  0  0  0  0  0  0  0  0  0  0
   -2.0940   -1.3520  -19.7613 C   0  0  0  0  0  0  0  0  0  0  0  0
   -3.1206   -1.0018  -18.7633 C   0  0  0  0  0  0  0  0  0  0  0  0
   -2.5407   -0.5244  -17.4920 C   0  0  0  0  0  0  0  0  0  0  0  0
   -3.3889   -0.1761  -16.5082 N   0  0  0  0  0  0  0  0  0  0  0  0
   -2.9317    0.2762  -15.3023 C   0  0  0  0  0  0  0  0  0  0  0  0
   -3.8581    0.6557  -14.2429 C   0  0  0  0  0  0  0  0  0  0  0  0
   -3.7436    0.2298  -12.9365 C   0  0  0  0  0  0  0  0  0  0  0  0
   -4.6587    0.6261  -11.9644 C   0  0  0  0  0  0  0  0  0  0  0  0
   -4.9199    1.4888  -14.5319 C   0  0  0  0  0  0  0  0  0  0  0  0
   -5.8265    1.8815  -13.5692 C   0  0  0  0  0  0  0  0  0  0  0  0
   -5.7189    1.4597  -12.2596 C   0  0  0  0  0  0  0  0  0  0  0  0
   -6.6827    1.8725  -11.2097 C   0  0  0  0  0  0  0  0  0  0  0  0
   -6.3337    3.1169  -10.5899 N   0  0  2  0  0  4  0  0  0  0  0  0
   -7.0045    3.3833   -9.3509 C   0  0  0  0  0  0  0  0  0  0  0  0
   -6.8565    4.8737   -9.0590 C   0  0  0  0  0  0  0  0  0  0  0  0
   -6.5032    4.2380  -11.5311 C   0  0  0  0  0  0  0  0  0  0  0  0
   -5.5486    5.3463  -11.0835 C   0  0  0  0  0  0  0  0  0  0  0  0
   -5.6030    5.3038   -9.6285 N   0  0  0  0  0  0  0  0  0  0  0  0
   -4.4521    5.6663   -8.8939 C   0  0  0  0  0  0  0  0  0  0  0  0
   -4.2347    5.2183   -7.6293 C   0  0  0  0  0  0  0  0  0  0  0  0
   -3.0955    5.5819   -6.8961 C   0  0  0  0  0  0  0  0  0  0  0  0
   -3.5097    6.5098   -9.4664 C   0  0  0  0  0  0  0  0  0  0  0  0
   -2.4114    6.8564   -8.7512 C   0  0  0  0  0  0  0  0  0  0  0  0
   -2.1581    6.4133   -7.4497 C   0  0  0  0  0  0  0  0  0  0  0  0
   -1.0035    6.8060   -6.7713 N   0  0  0  0  0  0  0  0  0  0  0  0
   -0.4190    6.0646   -5.7313 C   0  0  0  0  0  0  0  0  0  0  0  0
   -0.9169    5.0875   -5.1729 O   0  0  0  0  0  0  0  0  0  0  0  0
    0.9369    6.5239   -5.2758 C   0  0  0  0  0  0  0  0  0  0  0  0
    0.9702    6.5016   -3.7727 C   0  0  0  0  0  0  0  0  0  0  0  0
  1  2  2  0
  1  6  1  0
  2  3  1  0
  3  4  2  0
  4  5  1  0
  5  6  2  0
  6  7  1  0
  7  8  2  0
  7 17  1  0
  8  9  1  0
  9 10  1  0
  9 15  2  0
 10 11  2  0
 10 12  1  0
 12 13  2  0
 14 13  1  1
 14 15  1  0
 15 16  1  0
 16 17  2  0
 17 18  1  0
 18 19  2  0
 18 21  1  0
 19 20  1  0
 20 23  2  0
 21 22  2  0
 22 23  1  0
 24 23  1  1
 25 24  1  6
 25 26  1  0
 25 28  1  0
 26 27  1  6
 27 30  1  6
 28 29  1  6
 29 30  1  6
 30 31  1  0
 31 32  2  0
 31 34  1  0
 32 33  1  0
 33 36  2  0
 34 35  2  0
 35 36  1  0
 36 37  1  0
 37 38  1  0
 38 39  2  0
 40 38  1  1
 41 40  1  6
M  CHG  1  25   1
M  END
$$$$
