
     RDKit          3D

 41 46  0  0  0  0  0  0  0  0999 V2000
   -4.7999    2.7415  -15.7459 C   0  0  0  0  0  0  0  0  0  0  0  0
   -6.1419    3.0557  -15.7724 C   0  0  0  0  0  0  0  0  0  0  0  0
   -7.0359    2.5913  -14.8134 C   0  0  0  0  0  0  0  0  0  0  0  0
   -6.5654    1.7874  -13.7982 C   0  0  0  0  0  0  0  0  0  0  0  0
   -5.2273    1.4778  -13.7771 C   0  0  0  0  0  0  0  0  0  0  0  0
   -4.3340    1.9393  -14.7316 C   0  0  0  0  0  0  0  0  0  0  0  0
   -2.9427    1.5404  -14.5941 C   0  0  0  0  0  0  0  0  0  0  0  0
   -2.2278    0.9441  -15.6223 C   0  0  0  0  0  0  0  0  0  0  0  0
   -0.8990    0.6009  -15.3912 C   0  0  0  0  0  0  0  0  0  0  0  0
   -0.1281   -0.0190  -16.4339 C   0  0  0  0  0  0  0  0  0  0  0  0
   -0.6540   -0.2471  -17.5443 O   0  0  0  0  0  0  0  0  0  0  0  0
    1.2301   -0.3501  -16.1407 N   0  0  0  0  0  0  0  0  0  0  0  0
    1.7934   -0.1316  -15.0229 C   0  0  0  0  0  0  0  0  0  0  0  0
    1.1089    0.4967  -13.8787 C   0  0  0  0  0  0  0  0  0  0  0  0
   -0.2960    0.8422  -14.1742 C   0  0  0  0  0  0  0  0  0  0  0  0
   -1.0172    1.4218  -13.1982 N   0  0  0  0  0  0  0  0  0  0  0  0
   -2.3241    1.7713  -13.3919 C   0  0  0  0  0  0  0  0  0  0  0  0
   -3.0999    2.3951  -12.3272 C   0  0  0  0  0  0  0  0  0  0  0  0
   -3.0683    1.9803  -11.0127 C   0  0  0  0  0  0  0  0  0  0  0  0
   -3.8309    2.6157  -10.0358 C   0  0  0  0  0  0  0  0  0  0  0  0
   -3.9216    3.4650  -12.6195 C   0  0  0  0  0  0  0  0  0  0  0  0
   -4.6770    4.0945  -11.6521 C   0  0  0  0  0  0  0  0  0  0  0  0
   -4.6510    3.6855  -10.3344 C   0  0  0  0  0  0  0  0  0  0  0  0
   -5.4548    4.3507   -9.2794 C   0  0  0  0  0  0  0  0  0  0  0  0
   -4.6592    4.8146   -8.1809 N   0  0  2  0  0  4  0  0  0  0  0  0
   -3.8691    3.8047   -7.5390 C   0  0  0  0  0  0  0  0  0  0  0  0
   -3.4396    4.3513   -6.1807 C   0  0  0  0  0  0  0  0  0  0  0  0
   -5.4886    5.5359   -7.1996 C   0  0  0  0  0  0  0  0  0  0  0  0
   -4.5676    6.5140   -6.4681 C   0  0  0  0  0  0  0  0  0  0  0  0
   -3.3179    5.7828   -6.3090 N   0  0  0  0  0  0  0  0  0  0  0  0
   -2.1035    6.5046   -6.3024 C   0  0  0  0  0  0  0  0  0  0  0  0
   -0.9110    5.9047   -6.0470 C   0  0  0  0  0  0  0  0  0  0  0  0
    0.2950    6.6208   -6.0342 C   0  0  0  0  0  0  0  0  0  0  0  0
   -2.1148    7.8694   -6.5567 C   0  0  0  0  0  0  0  0  0  0  0  0
   -0.9449    8.5542   -6.5425 C   0  0  0  0  0  0  0  0  0  0  0  0
    0.2975    7.9676   -6.2838 C   0  0  0  0  0  0  0  0  0  0  0  0
    1.4653    8.7317   -6.2889 N   0  0  0  0  0  0  0  0  0  0  0  0
    1.6537    9.8746   -5.4945 C   0  0  0  0  0  0  0  0  0  0  0  0
    0.7670   10.6222   -5.0830 O   0  0  0  0  0  0  0  0  0  0  0  0
    3.0746   10.1939   -5.1256 C   0  0  0  0  0  0  0  0  0  0  0  0
    3.3819   11.5964   -5.5722 C   0  0  0  0  0  0  0  0  0  0  0  0
  1  2  2  0
  1  6  1  0
  2  3  1  0
  3  4  2  0
  4  5  1  0
  5  6  2  0
  6  7  1  0
  7  8  2  0
  7 17  1  0
  8  9  1  0
  9 10  1  0
  9 15  2  0
 10 11  2  0
 10 12  1  0
 12 13  2  0
 14 13  1  1
 14 15  1  0
 15 16  1  0
 16 17  2  0
 17 18  1  0
 18 19  2  0
 18 21  1  0
 19 20  1  0
 20 23  2  0
 21 22  2  0
 22 23  1  0
 24 23  1  1
 25 24  1  6
 25 26  1  0
 25 28  1  0
 26 27  1  6
 27 30  1  6
 28 29  1  6
 29 30  1  6
 30 31  1  0
 31 32  2  0
 31 34  1  0
 32 33  1  0
 33 36  2  0
 34 35  2  0
 35 36  1  0
 36 37  1  0
 37 38  1  0
 38 39  2  0
 40 38  1  1
 41 40  1  6
M  CHG  1  25   1
M  END
$$$$
