
     RDKit          3D

 41 46  0  0  0  0  0  0  0  0999 V2000
   -4.4399    1.4391  -12.6345 C   0  0  0  0  0  0  0  0  0  0  0  0
   -5.3315    1.5280  -11.5867 C   0  0  0  0  0  0  0  0  0  0  0  0
   -6.7079    1.5763  -11.7804 C   0  0  0  0  0  0  0  0  0  0  0  0
   -7.2014    1.5337  -13.0660 C   0  0  0  0  0  0  0  0  0  0  0  0
   -6.3083    1.4450  -14.1058 C   0  0  0  0  0  0  0  0  0  0  0  0
   -4.9359    1.3967  -13.9157 C   0  0  0  0  0  0  0  0  0  0  0  0
   -4.0993    1.3011  -15.1009 C   0  0  0  0  0  0  0  0  0  0  0  0
   -4.1376    0.2136  -15.9609 C   0  0  0  0  0  0  0  0  0  0  0  0
   -3.2974    0.2182  -17.0705 C   0  0  0  0  0  0  0  0  0  0  0  0
   -3.3104   -0.8924  -17.9827 C   0  0  0  0  0  0  0  0  0  0  0  0
   -4.0765   -1.8579  -17.7761 O   0  0  0  0  0  0  0  0  0  0  0  0
   -2.4270   -0.8343  -19.1036 N   0  0  0  0  0  0  0  0  0  0  0  0
   -1.6369    0.1320  -19.3412 C   0  0  0  0  0  0  0  0  0  0  0  0
   -1.5324    1.3246  -18.4813 C   0  0  0  0  0  0  0  0  0  0  0  0
   -2.4431    1.2720  -17.3201 C   0  0  0  0  0  0  0  0  0  0  0  0
   -2.4304    2.3112  -16.4665 N   0  0  0  0  0  0  0  0  0  0  0  0
   -3.2424    2.3384  -15.3676 C   0  0  0  0  0  0  0  0  0  0  0  0
   -3.2192    3.4666  -14.4450 C   0  0  0  0  0  0  0  0  0  0  0  0
   -4.3375    4.1938  -14.0962 C   0  0  0  0  0  0  0  0  0  0  0  0
   -4.2561    5.2629  -13.2074 C   0  0  0  0  0  0  0  0  0  0  0  0
   -2.0252    3.8528  -13.8703 C   0  0  0  0  0  0  0  0  0  0  0  0
   -1.9444    4.9117  -12.9899 C   0  0  0  0  0  0  0  0  0  0  0  0
   -3.0588    5.6444  -12.6357 C   0  0  0  0  0  0  0  0  0  0  0  0
   -2.9923    6.7853  -11.6893 C   0  0  0  0  0  0  0  0  0  0  0  0
   -2.2596    6.4786  -10.4961 N   0  0  2  0  0  4  0  0  0  0  0  0
   -1.9541    7.6087   -9.6681 C   0  0  0  0  0  0  0  0  0  0  0  0
   -0.8454    7.1886   -8.7075 C   0  0  0  0  0  0  0  0  0  0  0  0
   -1.0408    5.7126  -10.8107 C   0  0  0  0  0  0  0  0  0  0  0  0
   -0.6940    4.8928   -9.5667 C   0  0  0  0  0  0  0  0  0  0  0  0
   -1.0052    5.7780   -8.4526 N   0  0  0  0  0  0  0  0  0  0  0  0
   -1.4410    5.2108   -7.2344 C   0  0  0  0  0  0  0  0  0  0  0  0
   -2.5297    5.6811   -6.5704 C   0  0  0  0  0  0  0  0  0  0  0  0
   -2.9605    5.1231   -5.3577 C   0  0  0  0  0  0  0  0  0  0  0  0
   -0.7421    4.1447   -6.6845 C   0  0  0  0  0  0  0  0  0  0  0  0
   -1.1650    3.6111   -5.5122 C   0  0  0  0  0  0  0  0  0  0  0  0
   -2.2798    4.0708   -4.8048 C   0  0  0  0  0  0  0  0  0  0  0  0
   -2.6630    3.4719   -3.6040 N   0  0  0  0  0  0  0  0  0  0  0  0
   -1.7847    3.2392   -2.5327 C   0  0  0  0  0  0  0  0  0  0  0  0
   -0.6132    2.8741   -2.6258 O   0  0  0  0  0  0  0  0  0  0  0  0
   -2.3481    3.4629   -1.1582 C   0  0  0  0  0  0  0  0  0  0  0  0
   -1.2999    3.0943   -0.1451 C   0  0  0  0  0  0  0  0  0  0  0  0
  1  2  2  0
  1  6  1  0
  2  3  1  0
  3  4  2  0
  4  5  1  0
  5  6  2  0
  6  7  1  0
  7  8  2  0
  7 17  1  0
  8  9  1  0
  9 10  1  0
  9 15  2  0
 10 11  2  0
 10 12  1  0
 12 13  2  0
 14 13  1  1
 14 15  1  0
 15 16  1  0
 16 17  2  0
 17 18  1  0
 18 19  2  0
 18 21  1  0
 19 20  1  0
 20 23  2  0
 21 22  2  0
 22 23  1  0
 24 23  1  1
 25 24  1  6
 25 26  1  0
 25 28  1  0
 26 27  1  6
 27 30  1  6
 28 29  1  6
 29 30  1  6
 30 31  1  0
 31 32  2  0
 31 34  1  0
 32 33  1  0
 33 36  2  0
 34 35  2  0
 35 36  1  0
 36 37  1  0
 37 38  1  0
 38 39  2  0
 40 38  1  1
 41 40  1  6
M  CHG  1  25   1
M  END
$$$$
