
     RDKit          3D

 41 46  0  0  0  0  0  0  0  0999 V2000
   -1.3939    0.1331  -12.9983 C   0  0  0  0  0  0  0  0  0  0  0  0
   -0.4916    0.2810  -11.9664 C   0  0  0  0  0  0  0  0  0  0  0  0
    0.0053    1.5355  -11.6843 C   0  0  0  0  0  0  0  0  0  0  0  0
   -0.3885    2.6350  -12.4188 C   0  0  0  0  0  0  0  0  0  0  0  0
   -1.2919    2.4531  -13.4435 C   0  0  0  0  0  0  0  0  0  0  0  0
   -1.8132    1.2140  -13.7581 C   0  0  0  0  0  0  0  0  0  0  0  0
   -2.7696    1.0235  -14.8412 C   0  0  0  0  0  0  0  0  0  0  0  0
   -2.4087    0.2919  -15.9546 C   0  0  0  0  0  0  0  0  0  0  0  0
   -3.3529    0.1354  -16.9510 C   0  0  0  0  0  0  0  0  0  0  0  0
   -3.0249   -0.6289  -18.1532 C   0  0  0  0  0  0  0  0  0  0  0  0
   -1.8857   -1.1142  -18.2227 O   0  0  0  0  0  0  0  0  0  0  0  0
   -4.0191   -0.7646  -19.1499 N   0  0  0  0  0  0  0  0  0  0  0  0
   -5.1766   -0.2293  -18.9976 C   0  0  0  0  0  0  0  0  0  0  0  0
   -5.6370    0.5552  -17.8530 C   0  0  0  0  0  0  0  0  0  0  0  0
   -4.6018    0.6977  -16.8164 C   0  0  0  0  0  0  0  0  0  0  0  0
   -4.9108    1.4156  -15.6908 N   0  0  0  0  0  0  0  0  0  0  0  0
   -4.0170    1.5874  -14.7028 C   0  0  0  0  0  0  0  0  0  0  0  0
   -4.3108    2.3395  -13.5083 C   0  0  0  0  0  0  0  0  0  0  0  0
   -4.5972    1.6339  -12.3585 C   0  0  0  0  0  0  0  0  0  0  0  0
   -4.8951    2.2962  -11.1627 C   0  0  0  0  0  0  0  0  0  0  0  0
   -4.3281    3.7068  -13.4391 C   0  0  0  0  0  0  0  0  0  0  0  0
   -4.6238    4.3499  -12.2514 C   0  0  0  0  0  0  0  0  0  0  0  0
   -4.9125    3.6710  -11.0927 C   0  0  0  0  0  0  0  0  0  0  0  0
   -5.2293    4.3437   -9.8138 C   0  0  0  0  0  0  0  0  0  0  0  0
   -4.3790    5.4461   -9.5142 N   0  0  2  0  0  4  0  0  0  0  0  0
   -3.3795    5.0275   -8.5630 C   0  0  0  0  0  0  0  0  0  0  0  0
   -2.3172    6.0839   -8.3338 C   0  0  0  0  0  0  0  0  0  0  0  0
   -5.0955    6.5473   -8.8722 C   0  0  0  0  0  0  0  0  0  0  0  0
   -4.1239    7.7066   -8.8509 C   0  0  0  0  0  0  0  0  0  0  0  0
   -2.9882    7.3299   -8.0289 N   0  0  0  0  0  0  0  0  0  0  0  0
   -2.5109    8.1336   -6.9689 C   0  0  0  0  0  0  0  0  0  0  0  0
   -1.3918    7.7487   -6.2693 C   0  0  0  0  0  0  0  0  0  0  0  0
   -0.8894    8.5064   -5.2031 C   0  0  0  0  0  0  0  0  0  0  0  0
   -3.1176    9.3151   -6.5615 C   0  0  0  0  0  0  0  0  0  0  0  0
   -2.6321   10.0795   -5.5048 C   0  0  0  0  0  0  0  0  0  0  0  0
   -1.5108    9.6726   -4.8211 C   0  0  0  0  0  0  0  0  0  0  0  0
   -0.9871   10.4480   -3.7229 N   0  0  0  0  0  0  0  0  0  0  0  0
   -0.7472    9.8733   -2.4597 C   0  0  0  0  0  0  0  0  0  0  0  0
   -0.8890    8.6437   -2.2757 O   0  0  0  0  0  0  0  0  0  0  0  0
   -0.3219   10.7264   -1.3304 C   0  0  0  0  0  0  0  0  0  0  0  0
    1.0032   10.2428   -0.8052 C   0  0  0  0  0  0  0  0  0  0  0  0
  1  2  2  0
  1  6  1  0
  2  3  1  0
  3  4  2  0
  4  5  1  0
  5  6  2  0
  6  7  1  0
  7  8  2  0
  7 17  1  0
  8  9  1  0
  9 10  1  0
  9 15  2  0
 10 11  2  0
 10 12  1  0
 12 13  2  0
 13 14  1  0
 14 15  1  0
 15 16  1  0
 16 17  2  0
 17 18  1  0
 18 19  2  0
 18 21  1  0
 19 20  1  0
 20 23  2  0
 21 22  2  0
 22 23  1  0
 23 24  1  0
 25 24  1  1
 25 26  1  0
 25 28  1  0
 26 27  1  0
 27 30  1  0
 28 29  1  0
 29 30  1  0
 30 31  1  0
 31 32  2  0
 31 34  1  0
 32 33  1  0
 33 36  2  0
 34 35  2  0
 35 36  1  0
 36 37  1  0
 37 38  1  0
 38 39  2  0
 38 40  1  0
 40 41  1  0
M  CHG  1  25   1
M  END
$$$$
