
     RDKit          3D

 41 46  0  0  0  0  0  0  0  0999 V2000
   -5.2832    2.4164  -14.7934 C   0  0  0  0  0  0  0  0  0  0  0  0
   -6.5051    2.9915  -14.5164 C   0  0  0  0  0  0  0  0  0  0  0  0
   -7.6379    2.2363  -14.2324 C   0  0  0  0  0  0  0  0  0  0  0  0
   -7.5380    0.8621  -14.2268 C   0  0  0  0  0  0  0  0  0  0  0  0
   -6.3181    0.2948  -14.5035 C   0  0  0  0  0  0  0  0  0  0  0  0
   -5.1873    1.0452  -14.7869 C   0  0  0  0  0  0  0  0  0  0  0  0
   -3.9560    0.3222  -15.0607 C   0  0  0  0  0  0  0  0  0  0  0  0
   -3.7144   -0.3189  -16.2667 C   0  0  0  0  0  0  0  0  0  0  0  0
   -2.5023   -0.9828  -16.4314 C   0  0  0  0  0  0  0  0  0  0  0  0
   -2.2185   -1.6583  -17.6679 C   0  0  0  0  0  0  0  0  0  0  0  0
   -3.0613   -1.6467  -18.5906 O   0  0  0  0  0  0  0  0  0  0  0  0
   -0.9595   -2.3234  -17.7810 N   0  0  0  0  0  0  0  0  0  0  0  0
   -0.0825   -2.3537  -16.8621 C   0  0  0  0  0  0  0  0  0  0  0  0
   -0.2567   -1.7002  -15.5525 C   0  0  0  0  0  0  0  0  0  0  0  0
   -1.5562   -1.0100  -15.4280 C   0  0  0  0  0  0  0  0  0  0  0  0
   -1.8217   -0.3784  -14.2708 N   0  0  0  0  0  0  0  0  0  0  0  0
   -3.0019    0.2827  -14.0762 C   0  0  0  0  0  0  0  0  0  0  0  0
   -3.2834    0.9611  -12.8172 C   0  0  0  0  0  0  0  0  0  0  0  0
   -4.2482    0.5471  -11.9233 C   0  0  0  0  0  0  0  0  0  0  0  0
   -4.4730    1.2343  -10.7330 C   0  0  0  0  0  0  0  0  0  0  0  0
   -2.5593    2.0839  -12.4710 C   0  0  0  0  0  0  0  0  0  0  0  0
   -2.7819    2.7648  -11.2921 C   0  0  0  0  0  0  0  0  0  0  0  0
   -3.7453    2.3570  -10.3922 C   0  0  0  0  0  0  0  0  0  0  0  0
   -3.9984    3.0749   -9.1185 C   0  0  0  0  0  0  0  0  0  0  0  0
   -4.2307    4.4770   -9.3050 N   0  0  2  0  0  4  0  0  0  0  0  0
   -5.5570    4.8177   -9.7305 C   0  0  0  0  0  0  0  0  0  0  0  0
   -5.5124    6.2409  -10.2792 C   0  0  0  0  0  0  0  0  0  0  0  0
   -3.2227    5.0608  -10.2074 C   0  0  0  0  0  0  0  0  0  0  0  0
   -3.1125    6.5452   -9.8547 C   0  0  0  0  0  0  0  0  0  0  0  0
   -4.4810    6.9493   -9.5617 N   0  0  0  0  0  0  0  0  0  0  0  0
   -4.6997    7.9722   -8.6123 C   0  0  0  0  0  0  0  0  0  0  0  0
   -5.9073    8.5808   -8.4753 C   0  0  0  0  0  0  0  0  0  0  0  0
   -6.1248    9.6008   -7.5374 C   0  0  0  0  0  0  0  0  0  0  0  0
   -3.6571    8.3824   -7.7924 C   0  0  0  0  0  0  0  0  0  0  0  0
   -3.8756    9.3687   -6.8885 C   0  0  0  0  0  0  0  0  0  0  0  0
   -5.1045   10.0143   -6.7224 C   0  0  0  0  0  0  0  0  0  0  0  0
   -5.2617   11.0205   -5.7682 N   0  0  0  0  0  0  0  0  0  0  0  0
   -6.4984   11.6019   -5.4436 C   0  0  0  0  0  0  0  0  0  0  0  0
   -7.5972   11.2465   -5.8688 O   0  0  0  0  0  0  0  0  0  0  0  0
   -6.4515   12.7610   -4.4890 C   0  0  0  0  0  0  0  0  0  0  0  0
   -7.1415   12.3602   -3.2146 C   0  0  0  0  0  0  0  0  0  0  0  0
  1  2  2  0
  1  6  1  0
  2  3  1  0
  3  4  2  0
  4  5  1  0
  5  6  2  0
  6  7  1  0
  7  8  2  0
  7 17  1  0
  8  9  1  0
  9 10  1  0
  9 15  2  0
 10 11  2  0
 10 12  1  0
 12 13  2  0
 14 13  1  1
 14 15  1  0
 15 16  1  0
 16 17  2  0
 17 18  1  0
 18 19  2  0
 18 21  1  0
 19 20  1  0
 20 23  2  0
 21 22  2  0
 22 23  1  0
 24 23  1  1
 25 24  1  6
 25 26  1  0
 25 28  1  0
 26 27  1  6
 27 30  1  6
 28 29  1  6
 29 30  1  6
 30 31  1  0
 31 32  2  0
 31 34  1  0
 32 33  1  0
 33 36  2  0
 34 35  2  0
 35 36  1  0
 36 37  1  0
 37 38  1  0
 38 39  2  0
 40 38  1  1
 41 40  1  6
M  CHG  1  25   1
M  END
$$$$
