
     RDKit          3D

 41 46  0  0  0  0  0  0  0  0999 V2000
   -7.3594    3.5905  -13.1518 C   0  0  0  0  0  0  0  0  0  0  0  0
   -7.8403    3.8607  -11.8882 C   0  0  0  0  0  0  0  0  0  0  0  0
   -7.6219    2.9485  -10.8780 C   0  0  0  0  0  0  0  0  0  0  0  0
   -6.9325    1.7778  -11.1177 C   0  0  0  0  0  0  0  0  0  0  0  0
   -6.4649    1.5379  -12.3917 C   0  0  0  0  0  0  0  0  0  0  0  0
   -6.6623    2.4253  -13.4308 C   0  0  0  0  0  0  0  0  0  0  0  0
   -6.1660    2.1710  -14.7773 C   0  0  0  0  0  0  0  0  0  0  0  0
   -7.0368    2.2054  -15.8475 C   0  0  0  0  0  0  0  0  0  0  0  0
   -6.5162    1.9632  -17.1041 C   0  0  0  0  0  0  0  0  0  0  0  0
   -7.3929    1.9858  -18.2737 C   0  0  0  0  0  0  0  0  0  0  0  0
   -8.5931    2.2291  -18.0775 O   0  0  0  0  0  0  0  0  0  0  0  0
   -6.8207    1.7316  -19.5419 N   0  0  0  0  0  0  0  0  0  0  0  0
   -5.5648    1.4885  -19.6570 C   0  0  0  0  0  0  0  0  0  0  0  0
   -4.5786    1.4361  -18.5789 C   0  0  0  0  0  0  0  0  0  0  0  0
   -5.1744    1.6992  -17.2589 C   0  0  0  0  0  0  0  0  0  0  0  0
   -4.3512    1.6762  -16.1637 N   0  0  0  0  0  0  0  0  0  0  0  0
   -4.8240    1.9073  -14.9276 C   0  0  0  0  0  0  0  0  0  0  0  0
   -3.9843    1.8872  -13.7558 C   0  0  0  0  0  0  0  0  0  0  0  0
   -3.8176    3.0684  -13.0638 C   0  0  0  0  0  0  0  0  0  0  0  0
   -3.0147    3.1255  -11.9196 C   0  0  0  0  0  0  0  0  0  0  0  0
   -3.3384    0.7753  -13.2854 C   0  0  0  0  0  0  0  0  0  0  0  0
   -2.5475    0.8443  -12.1534 C   0  0  0  0  0  0  0  0  0  0  0  0
   -2.3651    2.0078  -11.4463 C   0  0  0  0  0  0  0  0  0  0  0  0
   -1.5239    2.0981  -10.2328 C   0  0  0  0  0  0  0  0  0  0  0  0
   -0.1733    2.4684  -10.4916 N   0  0  2  0  0  4  0  0  0  0  0  0
    0.6315    1.2769  -10.5994 C   0  0  0  0  0  0  0  0  0  0  0  0
    2.0441    1.5699  -11.0635 C   0  0  0  0  0  0  0  0  0  0  0  0
    0.4143    3.2418   -9.3986 C   0  0  0  0  0  0  0  0  0  0  0  0
    1.7343    3.7565   -9.9289 C   0  0  0  0  0  0  0  0  0  0  0  0
    2.5822    2.6141  -10.2174 N   0  0  0  0  0  0  0  0  0  0  0  0
    3.9010    2.4959   -9.7233 C   0  0  0  0  0  0  0  0  0  0  0  0
    4.4917    3.5628   -9.0887 C   0  0  0  0  0  0  0  0  0  0  0  0
    5.8009    3.4964   -8.5939 C   0  0  0  0  0  0  0  0  0  0  0  0
    4.6726    1.3474   -9.8479 C   0  0  0  0  0  0  0  0  0  0  0  0
    5.9742    1.2645   -9.3627 C   0  0  0  0  0  0  0  0  0  0  0  0
    6.5422    2.3459   -8.7317 C   0  0  0  0  0  0  0  0  0  0  0  0
    7.8893    2.2847   -8.2188 N   0  0  0  0  0  0  0  0  0  0  0  0
    8.2524    2.9207   -7.0158 C   0  0  0  0  0  0  0  0  0  0  0  0
    7.4578    3.6898   -6.4301 O   0  0  0  0  0  0  0  0  0  0  0  0
    9.5880    2.6823   -6.4298 C   0  0  0  0  0  0  0  0  0  0  0  0
    9.6542    3.3009   -5.0592 C   0  0  0  0  0  0  0  0  0  0  0  0
  1  2  2  0
  1  6  1  0
  2  3  1  0
  3  4  2  0
  4  5  1  0
  5  6  2  0
  6  7  1  0
  7  8  2  0
  7 17  1  0
  8  9  1  0
  9 10  1  0
  9 15  2  0
 10 11  2  0
 10 12  1  0
 12 13  2  0
 13 14  1  0
 14 15  1  0
 15 16  1  0
 16 17  2  0
 17 18  1  0
 18 19  2  0
 18 21  1  0
 19 20  1  0
 20 23  2  0
 21 22  2  0
 22 23  1  0
 23 24  1  0
 25 24  1  1
 25 26  1  0
 25 28  1  0
 26 27  1  0
 27 30  1  0
 28 29  1  0
 29 30  1  0
 30 31  1  0
 31 32  2  0
 31 34  1  0
 32 33  1  0
 33 36  2  0
 34 35  2  0
 35 36  1  0
 36 37  1  0
 37 38  1  0
 38 39  2  0
 38 40  1  0
 40 41  1  0
M  CHG  1  25   1
M  END
$$$$
