
     RDKit          3D

 41 46  0  0  0  0  0  0  0  0999 V2000
   -5.8847    0.7893  -13.0872 C   0  0  0  0  0  0  0  0  0  0  0  0
   -6.9564    0.9047  -12.2278 C   0  0  0  0  0  0  0  0  0  0  0  0
   -7.9168    1.9015  -12.3626 C   0  0  0  0  0  0  0  0  0  0  0  0
   -7.7951    2.8086  -13.3925 C   0  0  0  0  0  0  0  0  0  0  0  0
   -6.7253    2.6885  -14.2456 C   0  0  0  0  0  0  0  0  0  0  0  0
   -5.7666    1.6960  -14.1136 C   0  0  0  0  0  0  0  0  0  0  0  0
   -4.6845    1.6776  -15.0844 C   0  0  0  0  0  0  0  0  0  0  0  0
   -4.9038    1.7148  -16.4535 C   0  0  0  0  0  0  0  0  0  0  0  0
   -3.7998    1.6950  -17.3007 C   0  0  0  0  0  0  0  0  0  0  0  0
   -3.9898    1.7320  -18.7249 C   0  0  0  0  0  0  0  0  0  0  0  0
   -5.1459    1.7822  -19.1970 O   0  0  0  0  0  0  0  0  0  0  0  0
   -2.8213    1.7088  -19.5460 N   0  0  0  0  0  0  0  0  0  0  0  0
   -1.6337    1.6578  -19.0971 C   0  0  0  0  0  0  0  0  0  0  0  0
   -1.3109    1.6158  -17.6596 C   0  0  0  0  0  0  0  0  0  0  0  0
   -2.5141    1.6397  -16.8040 C   0  0  0  0  0  0  0  0  0  0  0  0
   -2.3361    1.6046  -15.4715 N   0  0  0  0  0  0  0  0  0  0  0  0
   -3.3982    1.6227  -14.6116 C   0  0  0  0  0  0  0  0  0  0  0  0
   -3.1964    1.5800  -13.1687 C   0  0  0  0  0  0  0  0  0  0  0  0
   -3.7330    2.4998  -12.2928 C   0  0  0  0  0  0  0  0  0  0  0  0
   -3.5078    2.4087  -10.9215 C   0  0  0  0  0  0  0  0  0  0  0  0
   -2.4305    0.5730  -12.6169 C   0  0  0  0  0  0  0  0  0  0  0  0
   -2.2073    0.4826  -11.2587 C   0  0  0  0  0  0  0  0  0  0  0  0
   -2.7407    1.3989  -10.3755 C   0  0  0  0  0  0  0  0  0  0  0  0
   -2.5134    1.3175   -8.9115 C   0  0  0  0  0  0  0  0  0  0  0  0
   -1.8960    2.4952   -8.3763 N   0  0  2  0  0  4  0  0  0  0  0  0
   -0.7952    3.0013   -9.1432 C   0  0  0  0  0  0  0  0  0  0  0  0
   -0.0105    3.9552   -8.2472 C   0  0  0  0  0  0  0  0  0  0  0  0
   -1.5072    2.2914   -6.9697 C   0  0  0  0  0  0  0  0  0  0  0  0
   -1.4883    3.6696   -6.3064 C   0  0  0  0  0  0  0  0  0  0  0  0
   -0.9470    4.5549   -7.3286 N   0  0  0  0  0  0  0  0  0  0  0  0
   -1.3727    5.9017   -7.3570 C   0  0  0  0  0  0  0  0  0  0  0  0
   -2.4729    6.3231   -6.6794 C   0  0  0  0  0  0  0  0  0  0  0  0
   -2.9006    7.6586   -6.7111 C   0  0  0  0  0  0  0  0  0  0  0  0
   -0.6587    6.8318   -8.1002 C   0  0  0  0  0  0  0  0  0  0  0  0
   -1.0786    8.1206   -8.1256 C   0  0  0  0  0  0  0  0  0  0  0  0
   -2.2048    8.5861   -7.4404 C   0  0  0  0  0  0  0  0  0  0  0  0
   -2.5790    9.9289   -7.5065 N   0  0  0  0  0  0  0  0  0  0  0  0
   -2.9593   10.6892   -6.3883 C   0  0  0  0  0  0  0  0  0  0  0  0
   -3.4791   10.2531   -5.3616 O   0  0  0  0  0  0  0  0  0  0  0  0
   -2.6982   12.1660   -6.4756 C   0  0  0  0  0  0  0  0  0  0  0  0
   -3.6637   12.8776   -5.5689 C   0  0  0  0  0  0  0  0  0  0  0  0
  1  2  2  0
  1  6  1  0
  2  3  1  0
  3  4  2  0
  4  5  1  0
  5  6  2  0
  6  7  1  0
  7  8  2  0
  7 17  1  0
  8  9  1  0
  9 10  1  0
  9 15  2  0
 10 11  2  0
 10 12  1  0
 12 13  2  0
 14 13  1  1
 14 15  1  0
 15 16  1  0
 16 17  2  0
 17 18  1  0
 18 19  2  0
 18 21  1  0
 19 20  1  0
 20 23  2  0
 21 22  2  0
 22 23  1  0
 24 23  1  1
 25 24  1  6
 25 26  1  0
 25 28  1  0
 26 27  1  6
 27 30  1  6
 28 29  1  6
 29 30  1  6
 30 31  1  0
 31 32  2  0
 31 34  1  0
 32 33  1  0
 33 36  2  0
 34 35  2  0
 35 36  1  0
 36 37  1  0
 37 38  1  0
 38 39  2  0
 40 38  1  1
 41 40  1  6
M  CHG  1  25   1
M  END
$$$$
