
     RDKit          3D

 41 46  0  0  0  0  0  0  0  0999 V2000
   -3.4951    2.9404  -13.5130 C   0  0  0  0  0  0  0  0  0  0  0  0
   -2.3284    3.1046  -12.7969 C   0  0  0  0  0  0  0  0  0  0  0  0
   -1.5874    1.9928  -12.4576 C   0  0  0  0  0  0  0  0  0  0  0  0
   -1.9990    0.7282  -12.8247 C   0  0  0  0  0  0  0  0  0  0  0  0
   -3.1699    0.5985  -13.5400 C   0  0  0  0  0  0  0  0  0  0  0  0
   -3.9406    1.6860  -13.8996 C   0  0  0  0  0  0  0  0  0  0  0  0
   -5.1778    1.5475  -14.6574 C   0  0  0  0  0  0  0  0  0  0  0  0
   -6.3469    2.0944  -14.1684 C   0  0  0  0  0  0  0  0  0  0  0  0
   -7.4915    1.9406  -14.9268 C   0  0  0  0  0  0  0  0  0  0  0  0
   -8.7583    2.4984  -14.4568 C   0  0  0  0  0  0  0  0  0  0  0  0
   -8.7449    3.1000  -13.3724 O   0  0  0  0  0  0  0  0  0  0  0  0
   -9.9068    2.3181  -15.2623 N   0  0  0  0  0  0  0  0  0  0  0  0
   -9.8330    1.6812  -16.3752 C   0  0  0  0  0  0  0  0  0  0  0  0
   -8.6385    1.0761  -16.9624 C   0  0  0  0  0  0  0  0  0  0  0  0
   -7.4436    1.2626  -16.1234 C   0  0  0  0  0  0  0  0  0  0  0  0
   -6.2573    0.7377  -16.5651 N   0  0  0  0  0  0  0  0  0  0  0  0
   -5.1257    0.8688  -15.8531 C   0  0  0  0  0  0  0  0  0  0  0  0
   -3.8633    0.3256  -16.2893 C   0  0  0  0  0  0  0  0  0  0  0  0
   -3.7567   -1.0451  -16.3988 C   0  0  0  0  0  0  0  0  0  0  0  0
   -2.5618   -1.6435  -16.8128 C   0  0  0  0  0  0  0  0  0  0  0  0
   -2.7623    1.0783  -16.5987 C   0  0  0  0  0  0  0  0  0  0  0  0
   -1.5869    0.4753  -17.0068 C   0  0  0  0  0  0  0  0  0  0  0  0
   -1.4545   -0.8870  -17.1241 C   0  0  0  0  0  0  0  0  0  0  0  0
   -0.2049   -1.5476  -17.5607 C   0  0  0  0  0  0  0  0  0  0  0  0
    0.7665   -1.6872  -16.5287 N   0  0  2  0  0  4  0  0  0  0  0  0
    0.8042   -0.4756  -15.7478 C   0  0  0  0  0  0  0  0  0  0  0  0
    1.6724   -0.6075  -14.5125 C   0  0  0  0  0  0  0  0  0  0  0  0
    2.1203   -1.8585  -17.0537 C   0  0  0  0  0  0  0  0  0  0  0  0
    2.9735   -2.2351  -15.8626 C   0  0  0  0  0  0  0  0  0  0  0  0
    2.9592   -1.1251  -14.9270 N   0  0  0  0  0  0  0  0  0  0  0  0
    4.1394   -0.5527  -14.4009 C   0  0  0  0  0  0  0  0  0  0  0  0
    4.0723    0.2497  -13.2866 C   0  0  0  0  0  0  0  0  0  0  0  0
    5.2135    0.8489  -12.7372 C   0  0  0  0  0  0  0  0  0  0  0  0
    5.4005   -0.7378  -14.9534 C   0  0  0  0  0  0  0  0  0  0  0  0
    6.5440   -0.1501  -14.4207 C   0  0  0  0  0  0  0  0  0  0  0  0
    6.4500    0.6484  -13.3055 C   0  0  0  0  0  0  0  0  0  0  0  0
    7.6208    1.2679  -12.7335 N   0  0  0  0  0  0  0  0  0  0  0  0
    8.0061    1.0309  -11.3998 C   0  0  0  0  0  0  0  0  0  0  0  0
    7.3396    0.2692  -10.6639 O   0  0  0  0  0  0  0  0  0  0  0  0
    9.2126    1.6864  -10.8535 C   0  0  0  0  0  0  0  0  0  0  0  0
   10.1558    0.6414  -10.3205 C   0  0  0  0  0  0  0  0  0  0  0  0
  1  2  2  0
  1  6  1  0
  2  3  1  0
  3  4  2  0
  4  5  1  0
  5  6  2  0
  6  7  1  0
  7  8  2  0
  7 17  1  0
  8  9  1  0
  9 10  1  0
  9 15  2  0
 10 11  2  0
 10 12  1  0
 12 13  2  0
 13 14  1  0
 14 15  1  0
 15 16  1  0
 16 17  2  0
 17 18  1  0
 18 19  2  0
 18 21  1  0
 19 20  1  0
 20 23  2  0
 21 22  2  0
 22 23  1  0
 23 24  1  0
 25 24  1  6
 25 26  1  0
 25 28  1  0
 26 27  1  0
 27 30  1  0
 28 29  1  0
 29 30  1  0
 30 31  1  0
 31 32  2  0
 31 34  1  0
 32 33  1  0
 33 36  2  0
 34 35  2  0
 35 36  1  0
 36 37  1  0
 37 38  1  0
 38 39  2  0
 38 40  1  0
 40 41  1  0
M  CHG  1  25   1
M  END
$$$$
