
     RDKit          3D

 41 46  0  0  0  0  0  0  0  0999 V2000
   -3.6215    0.6537  -12.6877 C   0  0  0  0  0  0  0  0  0  0  0  0
   -2.6043    0.7180  -11.7592 C   0  0  0  0  0  0  0  0  0  0  0  0
   -1.8937    1.8913  -11.6228 C   0  0  0  0  0  0  0  0  0  0  0  0
   -2.1884    2.9924  -12.4001 C   0  0  0  0  0  0  0  0  0  0  0  0
   -3.2111    2.8952  -13.3188 C   0  0  0  0  0  0  0  0  0  0  0  0
   -3.9467    1.7390  -13.4864 C   0  0  0  0  0  0  0  0  0  0  0  0
   -5.0289    1.6381  -14.4573 C   0  0  0  0  0  0  0  0  0  0  0  0
   -6.2062    2.3271  -14.2468 C   0  0  0  0  0  0  0  0  0  0  0  0
   -7.1993    2.2030  -15.1992 C   0  0  0  0  0  0  0  0  0  0  0  0
   -8.4675    2.9094  -15.0271 C   0  0  0  0  0  0  0  0  0  0  0  0
   -8.5944    3.6057  -14.0086 O   0  0  0  0  0  0  0  0  0  0  0  0
   -9.4584    2.7550  -16.0243 N   0  0  0  0  0  0  0  0  0  0  0  0
   -9.2445    2.0136  -17.0510 C   0  0  0  0  0  0  0  0  0  0  0  0
   -8.0301    1.2557  -17.3485 C   0  0  0  0  0  0  0  0  0  0  0  0
   -6.9994    1.4152  -16.3098 C   0  0  0  0  0  0  0  0  0  0  0  0
   -5.8118    0.7511  -16.4724 N   0  0  0  0  0  0  0  0  0  0  0  0
   -4.8251    0.8494  -15.5661 C   0  0  0  0  0  0  0  0  0  0  0  0
   -3.5661    0.1610  -15.7072 C   0  0  0  0  0  0  0  0  0  0  0  0
   -2.6107    0.7290  -16.5237 C   0  0  0  0  0  0  0  0  0  0  0  0
   -1.3671    0.1162  -16.7111 C   0  0  0  0  0  0  0  0  0  0  0  0
   -3.2562   -1.0202  -15.0882 C   0  0  0  0  0  0  0  0  0  0  0  0
   -2.0236   -1.6163  -15.2812 C   0  0  0  0  0  0  0  0  0  0  0  0
   -1.0551   -1.0715  -16.0888 C   0  0  0  0  0  0  0  0  0  0  0  0
    0.2688   -1.6954  -16.3045 C   0  0  0  0  0  0  0  0  0  0  0  0
    1.3430   -1.0051  -15.6740 N   0  0  2  0  0  4  0  0  0  0  0  0
    2.3767   -0.7500  -16.6464 C   0  0  0  0  0  0  0  0  0  0  0  0
    3.4723    0.1480  -16.1076 C   0  0  0  0  0  0  0  0  0  0  0  0
    1.9790   -1.7994  -14.6239 C   0  0  0  0  0  0  0  0  0  0  0  0
    2.9112   -0.8497  -13.9043 C   0  0  0  0  0  0  0  0  0  0  0  0
    3.9213   -0.4059  -14.8477 N   0  0  0  0  0  0  0  0  0  0  0  0
    5.3063   -0.4780  -14.5759 C   0  0  0  0  0  0  0  0  0  0  0  0
    6.1093    0.6101  -14.8233 C   0  0  0  0  0  0  0  0  0  0  0  0
    7.4892    0.5809  -14.5816 C   0  0  0  0  0  0  0  0  0  0  0  0
    5.9370   -1.6091  -14.0730 C   0  0  0  0  0  0  0  0  0  0  0  0
    7.3060   -1.6552  -13.8275 C   0  0  0  0  0  0  0  0  0  0  0  0
    8.0872   -0.5532  -14.0834 C   0  0  0  0  0  0  0  0  0  0  0  0
    9.5085   -0.5754  -13.8362 N   0  0  0  0  0  0  0  0  0  0  0  0
   10.4083    0.1670  -14.6253 C   0  0  0  0  0  0  0  0  0  0  0  0
   10.0892    0.5545  -15.7716 O   0  0  0  0  0  0  0  0  0  0  0  0
   11.7496    0.4976  -14.1005 C   0  0  0  0  0  0  0  0  0  0  0  0
   12.7587    0.4234  -15.2149 C   0  0  0  0  0  0  0  0  0  0  0  0
  1  2  2  0
  1  6  1  0
  2  3  1  0
  3  4  2  0
  4  5  1  0
  5  6  2  0
  6  7  1  0
  7  8  2  0
  7 17  1  0
  8  9  1  0
  9 10  1  0
  9 15  2  0
 10 11  2  0
 10 12  1  0
 12 13  2  0
 13 14  1  0
 14 15  1  0
 15 16  1  0
 16 17  2  0
 17 18  1  0
 18 19  2  0
 18 21  1  0
 19 20  1  0
 20 23  2  0
 21 22  2  0
 22 23  1  0
 23 24  1  0
 25 24  1  6
 25 26  1  0
 25 28  1  0
 26 27  1  0
 27 30  1  0
 28 29  1  0
 29 30  1  0
 30 31  1  0
 31 32  2  0
 31 34  1  0
 32 33  1  0
 33 36  2  0
 34 35  2  0
 35 36  1  0
 36 37  1  0
 37 38  1  0
 38 39  2  0
 38 40  1  0
 40 41  1  0
M  CHG  1  25   1
M  END
$$$$
