
     RDKit          3D

 41 46  0  0  0  0  0  0  0  0999 V2000
   -4.0085    4.1749  -13.1129 C   0  0  0  0  0  0  0  0  0  0  0  0
   -3.9549    5.5073  -12.7632 C   0  0  0  0  0  0  0  0  0  0  0  0
   -3.1833    6.4310  -13.4602 C   0  0  0  0  0  0  0  0  0  0  0  0
   -2.4442    6.0012  -14.5405 C   0  0  0  0  0  0  0  0  0  0  0  0
   -2.5016    4.6726  -14.8841 C   0  0  0  0  0  0  0  0  0  0  0  0
   -3.2698    3.7497  -14.1913 C   0  0  0  0  0  0  0  0  0  0  0  0
   -3.2450    2.3732  -14.6586 C   0  0  0  0  0  0  0  0  0  0  0  0
   -3.6568    2.0050  -15.9309 C   0  0  0  0  0  0  0  0  0  0  0  0
   -3.5924    0.6601  -16.2833 C   0  0  0  0  0  0  0  0  0  0  0  0
   -4.0113    0.2426  -17.5933 C   0  0  0  0  0  0  0  0  0  0  0  0
   -4.4314    1.0892  -18.4110 O   0  0  0  0  0  0  0  0  0  0  0  0
   -3.9241   -1.1497  -17.9000 N   0  0  0  0  0  0  0  0  0  0  0  0
   -3.5020   -2.0342  -17.0914 C   0  0  0  0  0  0  0  0  0  0  0  0
   -3.0456   -1.7309  -15.7231 C   0  0  0  0  0  0  0  0  0  0  0  0
   -3.1325   -0.2931  -15.3985 C   0  0  0  0  0  0  0  0  0  0  0  0
   -2.7410    0.0972  -14.1726 N   0  0  0  0  0  0  0  0  0  0  0  0
   -2.7913    1.4096  -13.7944 C   0  0  0  0  0  0  0  0  0  0  0  0
   -2.3690    1.8234  -12.4621 C   0  0  0  0  0  0  0  0  0  0  0  0
   -3.1530    1.6931  -11.3353 C   0  0  0  0  0  0  0  0  0  0  0  0
   -2.6965    2.1052  -10.0858 C   0  0  0  0  0  0  0  0  0  0  0  0
   -1.1183    2.3798  -12.2855 C   0  0  0  0  0  0  0  0  0  0  0  0
   -0.6660    2.7881  -11.0480 C   0  0  0  0  0  0  0  0  0  0  0  0
   -1.4442    2.6611   -9.9155 C   0  0  0  0  0  0  0  0  0  0  0  0
   -0.9748    3.0926   -8.5757 C   0  0  0  0  0  0  0  0  0  0  0  0
   -1.3506    4.4393   -8.2598 N   0  0  2  0  0  4  0  0  0  0  0  0
   -1.0058    5.4116   -9.2558 C   0  0  0  0  0  0  0  0  0  0  0  0
   -1.0785    6.7874   -8.5998 C   0  0  0  0  0  0  0  0  0  0  0  0
   -0.8312    4.8333   -6.9384 C   0  0  0  0  0  0  0  0  0  0  0  0
   -1.7564    5.9268   -6.4016 C   0  0  0  0  0  0  0  0  0  0  0  0
   -2.0902    6.7247   -7.5737 N   0  0  0  0  0  0  0  0  0  0  0  0
   -3.3524    7.3568   -7.6292 C   0  0  0  0  0  0  0  0  0  0  0  0
   -3.5472    8.5163   -8.3111 C   0  0  0  0  0  0  0  0  0  0  0  0
   -4.7982    9.1485   -8.3624 C   0  0  0  0  0  0  0  0  0  0  0  0
   -4.4333    6.7910   -6.9668 C   0  0  0  0  0  0  0  0  0  0  0  0
   -5.6390    7.4083   -7.0214 C   0  0  0  0  0  0  0  0  0  0  0  0
   -5.8728    8.6004   -7.7134 C   0  0  0  0  0  0  0  0  0  0  0  0
   -7.1417    9.1807   -7.7320 N   0  0  0  0  0  0  0  0  0  0  0  0
   -7.6782    9.8487   -8.8451 C   0  0  0  0  0  0  0  0  0  0  0  0
   -7.2154    9.8386   -9.9854 O   0  0  0  0  0  0  0  0  0  0  0  0
   -8.9306   10.6408   -8.5979 C   0  0  0  0  0  0  0  0  0  0  0  0
   -9.8846   10.3955   -9.7339 C   0  0  0  0  0  0  0  0  0  0  0  0
  1  2  2  0
  1  6  1  0
  2  3  1  0
  3  4  2  0
  4  5  1  0
  5  6  2  0
  6  7  1  0
  7  8  2  0
  7 17  1  0
  8  9  1  0
  9 10  1  0
  9 15  2  0
 10 11  2  0
 10 12  1  0
 12 13  2  0
 14 13  1  1
 14 15  1  0
 15 16  1  0
 16 17  2  0
 17 18  1  0
 18 19  2  0
 18 21  1  0
 19 20  1  0
 20 23  2  0
 21 22  2  0
 22 23  1  0
 24 23  1  1
 25 24  1  6
 25 26  1  0
 25 28  1  0
 26 27  1  6
 27 30  1  6
 28 29  1  6
 29 30  1  6
 30 31  1  0
 31 32  2  0
 31 34  1  0
 32 33  1  0
 33 36  2  0
 34 35  2  0
 35 36  1  0
 36 37  1  0
 37 38  1  0
 38 39  2  0
 40 38  1  1
 41 40  1  6
M  CHG  1  25   1
M  END
$$$$
