
     RDKit          3D

 41 46  0  0  0  0  0  0  0  0999 V2000
   -7.6202    1.2894  -13.1927 C   0  0  0  0  0  0  0  0  0  0  0  0
   -8.1927    1.3979  -11.9432 C   0  0  0  0  0  0  0  0  0  0  0  0
   -7.8248    2.4448  -11.1254 C   0  0  0  0  0  0  0  0  0  0  0  0
   -6.8969    3.3770  -11.5420 C   0  0  0  0  0  0  0  0  0  0  0  0
   -6.3435    3.2398  -12.7967 C   0  0  0  0  0  0  0  0  0  0  0  0
   -6.6847    2.2064  -13.6462 C   0  0  0  0  0  0  0  0  0  0  0  0
   -6.0997    2.0635  -14.9733 C   0  0  0  0  0  0  0  0  0  0  0  0
   -6.9128    2.0903  -16.0883 C   0  0  0  0  0  0  0  0  0  0  0  0
   -6.3092    1.9564  -17.3238 C   0  0  0  0  0  0  0  0  0  0  0  0
   -7.1220    1.9764  -18.5387 C   0  0  0  0  0  0  0  0  0  0  0  0
   -8.3462    2.1178  -18.3990 O   0  0  0  0  0  0  0  0  0  0  0  0
   -6.4655    1.8351  -19.7834 N   0  0  0  0  0  0  0  0  0  0  0  0
   -5.1902    1.6938  -19.8391 C   0  0  0  0  0  0  0  0  0  0  0  0
   -4.2612    1.6573  -18.7106 C   0  0  0  0  0  0  0  0  0  0  0  0
   -4.9446    1.8028  -17.4151 C   0  0  0  0  0  0  0  0  0  0  0  0
   -4.1811    1.7825  -16.2774 N   0  0  0  0  0  0  0  0  0  0  0  0
   -4.7351    1.9100  -15.0602 C   0  0  0  0  0  0  0  0  0  0  0  0
   -3.9594    1.8895  -13.8450 C   0  0  0  0  0  0  0  0  0  0  0  0
   -3.7476    3.0885  -13.1972 C   0  0  0  0  0  0  0  0  0  0  0  0
   -3.0018    3.1461  -12.0149 C   0  0  0  0  0  0  0  0  0  0  0  0
   -3.4160    0.7608  -13.2925 C   0  0  0  0  0  0  0  0  0  0  0  0
   -2.6809    0.8305  -12.1236 C   0  0  0  0  0  0  0  0  0  0  0  0
   -2.4553    2.0114  -11.4591 C   0  0  0  0  0  0  0  0  0  0  0  0
   -1.6727    2.1029  -10.2071 C   0  0  0  0  0  0  0  0  0  0  0  0
   -0.2683    2.2227  -10.4105 N   0  0  2  0  0  4  0  0  0  0  0  0
    0.4010    1.1348   -9.7414 C   0  0  0  0  0  0  0  0  0  0  0  0
    1.8804    1.0759  -10.0650 C   0  0  0  0  0  0  0  0  0  0  0  0
    0.2805    3.4433   -9.8212 C   0  0  0  0  0  0  0  0  0  0  0  0
    1.7013    3.5379  -10.3321 C   0  0  0  0  0  0  0  0  0  0  0  0
    2.4387    2.3913   -9.8330 N   0  0  0  0  0  0  0  0  0  0  0  0
    3.6726    2.5115   -9.1546 C   0  0  0  0  0  0  0  0  0  0  0  0
    4.3599    1.3813   -8.7800 C   0  0  0  0  0  0  0  0  0  0  0  0
    5.5801    1.4511   -8.0947 C   0  0  0  0  0  0  0  0  0  0  0  0
    4.2533    3.7275   -8.8169 C   0  0  0  0  0  0  0  0  0  0  0  0
    5.4641    3.8149   -8.1365 C   0  0  0  0  0  0  0  0  0  0  0  0
    6.1318    2.6693   -7.7729 C   0  0  0  0  0  0  0  0  0  0  0  0
    7.3891    2.7333   -7.0681 N   0  0  0  0  0  0  0  0  0  0  0  0
    8.4793    3.4731   -7.5657 C   0  0  0  0  0  0  0  0  0  0  0  0
    8.4386    3.9907   -8.7043 O   0  0  0  0  0  0  0  0  0  0  0  0
    9.6919    3.6456   -6.7389 C   0  0  0  0  0  0  0  0  0  0  0  0
    9.3059    3.7064   -5.2853 C   0  0  0  0  0  0  0  0  0  0  0  0
  1  2  2  0
  1  6  1  0
  2  3  1  0
  3  4  2  0
  4  5  1  0
  5  6  2  0
  6  7  1  0
  7  8  2  0
  7 17  1  0
  8  9  1  0
  9 10  1  0
  9 15  2  0
 10 11  2  0
 10 12  1  0
 12 13  2  0
 13 14  1  0
 14 15  1  0
 15 16  1  0
 16 17  2  0
 17 18  1  0
 18 19  2  0
 18 21  1  0
 19 20  1  0
 20 23  2  0
 21 22  2  0
 22 23  1  0
 23 24  1  0
 25 24  1  1
 25 26  1  0
 25 28  1  0
 26 27  1  0
 27 30  1  0
 28 29  1  0
 29 30  1  0
 30 31  1  0
 31 32  2  0
 31 34  1  0
 32 33  1  0
 33 36  2  0
 34 35  2  0
 35 36  1  0
 36 37  1  0
 37 38  1  0
 38 39  2  0
 38 40  1  0
 40 41  1  0
M  CHG  1  25   1
M  END
$$$$
