
     RDKit          3D

 41 46  0  0  0  0  0  0  0  0999 V2000
   -1.7696    3.8237  -15.6578 C   0  0  0  0  0  0  0  0  0  0  0  0
   -1.2418    5.0767  -15.4298 C   0  0  0  0  0  0  0  0  0  0  0  0
   -1.8986    5.9359  -14.5749 C   0  0  0  0  0  0  0  0  0  0  0  0
   -3.0692    5.5567  -13.9510 C   0  0  0  0  0  0  0  0  0  0  0  0
   -3.5702    4.2973  -14.2003 C   0  0  0  0  0  0  0  0  0  0  0  0
   -2.9433    3.4071  -15.0491 C   0  0  0  0  0  0  0  0  0  0  0  0
   -3.4736    2.0750  -15.3108 C   0  0  0  0  0  0  0  0  0  0  0  0
   -3.6538    1.6515  -16.6120 C   0  0  0  0  0  0  0  0  0  0  0  0
   -4.1539    0.3785  -16.8071 C   0  0  0  0  0  0  0  0  0  0  0  0
   -4.3661   -0.1218  -18.1641 C   0  0  0  0  0  0  0  0  0  0  0  0
   -4.0784    0.6394  -19.1000 O   0  0  0  0  0  0  0  0  0  0  0  0
   -4.8807   -1.4299  -18.3205 N   0  0  0  0  0  0  0  0  0  0  0  0
   -5.1520   -2.1540  -17.2950 C   0  0  0  0  0  0  0  0  0  0  0  0
   -4.9886   -1.7825  -15.8904 C   0  0  0  0  0  0  0  0  0  0  0  0
   -4.4545   -0.4206  -15.7277 C   0  0  0  0  0  0  0  0  0  0  0  0
   -4.2575    0.0470  -14.4547 N   0  0  0  0  0  0  0  0  0  0  0  0
   -3.7729    1.2794  -14.2288 C   0  0  0  0  0  0  0  0  0  0  0  0
   -3.5576    1.8009  -12.9020 C   0  0  0  0  0  0  0  0  0  0  0  0
   -2.2638    2.1037  -12.5324 C   0  0  0  0  0  0  0  0  0  0  0  0
   -1.9785    2.6103  -11.2599 C   0  0  0  0  0  0  0  0  0  0  0  0
   -4.5502    2.0127  -11.9831 C   0  0  0  0  0  0  0  0  0  0  0  0
   -4.2556    2.5140  -10.7286 C   0  0  0  0  0  0  0  0  0  0  0  0
   -2.9762    2.8235  -10.3357 C   0  0  0  0  0  0  0  0  0  0  0  0
   -2.6445    3.3618   -8.9983 C   0  0  0  0  0  0  0  0  0  0  0  0
   -3.3991    4.5136   -8.6351 N   0  0  2  0  0  4  0  0  0  0  0  0
   -2.7825    5.6835   -9.2098 C   0  0  0  0  0  0  0  0  0  0  0  0
   -3.6259    6.9304   -9.0340 C   0  0  0  0  0  0  0  0  0  0  0  0
   -3.4090    4.7440   -7.1912 C   0  0  0  0  0  0  0  0  0  0  0  0
   -4.4353    5.8311   -6.9601 C   0  0  0  0  0  0  0  0  0  0  0  0
   -3.9801    7.0335   -7.6341 N   0  0  0  0  0  0  0  0  0  0  0  0
   -3.8890    8.2860   -6.9859 C   0  0  0  0  0  0  0  0  0  0  0  0
   -2.9639    9.2101   -7.4105 C   0  0  0  0  0  0  0  0  0  0  0  0
   -2.8286   10.4595   -6.7908 C   0  0  0  0  0  0  0  0  0  0  0  0
   -4.6832    8.6578   -5.9084 C   0  0  0  0  0  0  0  0  0  0  0  0
   -4.5619    9.8942   -5.2812 C   0  0  0  0  0  0  0  0  0  0  0  0
   -3.6286   10.8009   -5.7252 C   0  0  0  0  0  0  0  0  0  0  0  0
   -3.4841   12.0896   -5.0927 N   0  0  0  0  0  0  0  0  0  0  0  0
   -4.5775   12.7481   -4.4974 C   0  0  0  0  0  0  0  0  0  0  0  0
   -5.7216   12.2415   -4.5178 O   0  0  0  0  0  0  0  0  0  0  0  0
   -4.3803   14.0555   -3.8373 C   0  0  0  0  0  0  0  0  0  0  0  0
   -5.1814   15.1081   -4.5556 C   0  0  0  0  0  0  0  0  0  0  0  0
  1  2  2  0
  1  6  1  0
  2  3  1  0
  3  4  2  0
  4  5  1  0
  5  6  2  0
  6  7  1  0
  7  8  2  0
  7 17  1  0
  8  9  1  0
  9 10  1  0
  9 15  2  0
 10 11  2  0
 10 12  1  0
 12 13  2  0
 13 14  1  0
 14 15  1  0
 15 16  1  0
 16 17  2  0
 17 18  1  0
 18 19  2  0
 18 21  1  0
 19 20  1  0
 20 23  2  0
 21 22  2  0
 22 23  1  0
 23 24  1  0
 25 24  1  1
 25 26  1  0
 25 28  1  0
 26 27  1  0
 27 30  1  0
 28 29  1  0
 29 30  1  0
 30 31  1  0
 31 32  2  0
 31 34  1  0
 32 33  1  0
 33 36  2  0
 34 35  2  0
 35 36  1  0
 36 37  1  0
 37 38  1  0
 38 39  2  0
 38 40  1  0
 40 41  1  0
M  CHG  1  25   1
M  END
$$$$
