
     RDKit          3D

 41 46  0  0  0  0  0  0  0  0999 V2000
   -8.0525    1.5516  -13.8207 C   0  0  0  0  0  0  0  0  0  0  0  0
   -8.7009    1.7191  -12.6157 C   0  0  0  0  0  0  0  0  0  0  0  0
   -8.0744    2.2664  -11.5011 C   0  0  0  0  0  0  0  0  0  0  0  0
   -6.7570    2.6566  -11.6023 C   0  0  0  0  0  0  0  0  0  0  0  0
   -6.1162    2.4872  -12.8054 C   0  0  0  0  0  0  0  0  0  0  0  0
   -6.7382    1.9420  -13.9179 C   0  0  0  0  0  0  0  0  0  0  0  0
   -5.9488    1.8190  -15.1326 C   0  0  0  0  0  0  0  0  0  0  0  0
   -6.4412    1.2385  -16.2921 C   0  0  0  0  0  0  0  0  0  0  0  0
   -5.6060    1.1701  -17.4034 C   0  0  0  0  0  0  0  0  0  0  0  0
   -6.0830    0.5748  -18.6215 C   0  0  0  0  0  0  0  0  0  0  0  0
   -7.2460    0.1211  -18.6782 O   0  0  0  0  0  0  0  0  0  0  0  0
   -5.1828    0.5312  -19.7297 N   0  0  0  0  0  0  0  0  0  0  0  0
   -3.9956    0.9832  -19.7038 C   0  0  0  0  0  0  0  0  0  0  0  0
   -3.3936    1.6147  -18.5158 C   0  0  0  0  0  0  0  0  0  0  0  0
   -4.3185    1.6637  -17.3658 C   0  0  0  0  0  0  0  0  0  0  0  0
   -3.8718    2.2204  -16.2259 N   0  0  0  0  0  0  0  0  0  0  0  0
   -4.6657    2.3034  -15.1166 C   0  0  0  0  0  0  0  0  0  0  0  0
   -4.1722    2.9044  -13.8838 C   0  0  0  0  0  0  0  0  0  0  0  0
   -4.1248    4.2642  -13.6601 C   0  0  0  0  0  0  0  0  0  0  0  0
   -3.6438    4.7829  -12.4606 C   0  0  0  0  0  0  0  0  0  0  0  0
   -3.7207    2.0928  -12.8628 C   0  0  0  0  0  0  0  0  0  0  0  0
   -3.2442    2.6064  -11.6746 C   0  0  0  0  0  0  0  0  0  0  0  0
   -3.1936    3.9658  -11.4429 C   0  0  0  0  0  0  0  0  0  0  0  0
   -2.6862    4.5372  -10.1710 C   0  0  0  0  0  0  0  0  0  0  0  0
   -1.5798    3.8028   -9.6314 N   0  0  2  0  0  4  0  0  0  0  0  0
   -1.7971    2.3912   -9.5034 C   0  0  0  0  0  0  0  0  0  0  0  0
   -0.7360    1.8471   -8.5514 C   0  0  0  0  0  0  0  0  0  0  0  0
   -1.1370    4.3847   -8.3521 C   0  0  0  0  0  0  0  0  0  0  0  0
    0.3399    4.0241   -8.1837 C   0  0  0  0  0  0  0  0  0  0  0  0
    0.4415    2.6665   -8.7018 N   0  0  0  0  0  0  0  0  0  0  0  0
    1.6498    2.2590   -9.3098 C   0  0  0  0  0  0  0  0  0  0  0  0
    1.8750    0.9677   -9.6691 C   0  0  0  0  0  0  0  0  0  0  0  0
    3.0764    0.5602  -10.2675 C   0  0  0  0  0  0  0  0  0  0  0  0
    2.6481    3.1940   -9.5475 C   0  0  0  0  0  0  0  0  0  0  0  0
    3.8062    2.7920  -10.1262 C   0  0  0  0  0  0  0  0  0  0  0  0
    4.0691    1.4729  -10.5076 C   0  0  0  0  0  0  0  0  0  0  0  0
    5.2830    1.1280  -11.1034 N   0  0  0  0  0  0  0  0  0  0  0  0
    6.4979    1.7793  -10.8335 C   0  0  0  0  0  0  0  0  0  0  0  0
    6.6317    2.8208  -10.1918 O   0  0  0  0  0  0  0  0  0  0  0  0
    7.7326    1.1275  -11.3880 C   0  0  0  0  0  0  0  0  0  0  0  0
    8.3072    2.0186  -12.4540 C   0  0  0  0  0  0  0  0  0  0  0  0
  1  2  2  0
  1  6  1  0
  2  3  1  0
  3  4  2  0
  4  5  1  0
  5  6  2  0
  6  7  1  0
  7  8  2  0
  7 17  1  0
  8  9  1  0
  9 10  1  0
  9 15  2  0
 10 11  2  0
 10 12  1  0
 12 13  2  0
 14 13  1  1
 14 15  1  0
 15 16  1  0
 16 17  2  0
 17 18  1  0
 18 19  2  0
 18 21  1  0
 19 20  1  0
 20 23  2  0
 21 22  2  0
 22 23  1  0
 24 23  1  1
 25 24  1  1
 25 26  1  0
 25 28  1  0
 26 27  1  6
 27 30  1  6
 28 29  1  6
 29 30  1  6
 30 31  1  0
 31 32  2  0
 31 34  1  0
 32 33  1  0
 33 36  2  0
 34 35  2  0
 35 36  1  0
 36 37  1  0
 37 38  1  0
 38 39  2  0
 40 38  1  1
 41 40  1  6
M  CHG  1  25   1
M  END
$$$$
