
     RDKit          3D

 55 59  0  0  0  0  0  0  0  0999 V2000
   -6.3975    6.7547   -0.8682 C   0  0  0  0  0  0  0  0  0  0  0  0
   -7.3912    7.5423   -0.7198 O   0  0  0  0  0  0  0  0  0  0  0  0
   -6.3455    5.5547    0.0016 C   0  0  0  0  0  0  0  0  0  0  0  0
   -5.3862    7.0175   -1.8231 N   0  0  0  0  0  0  0  0  0  0  0  0
   -4.0463    7.3053   -1.3334 C   0  0  2  0  0  0  0  0  0  0  0  0
   -4.0915    7.5158    0.1289 C   0  0  0  0  0  0  0  0  0  0  0  0
   -3.5854    6.6782    0.9423 O   0  0  0  0  0  0  0  0  0  0  0  0
   -3.4300    8.4753   -1.9991 C   0  0  0  0  0  0  0  0  0  0  0  0
   -3.4355    8.4833   -3.4937 C   0  0  1  0  0  0  0  0  0  0  0  0
   -2.3218    9.2878   -4.1074 C   0  0  0  0  0  0  0  0  0  0  0  0
   -3.2086    7.0266   -3.9494 C   0  0  0  0  0  0  0  0  0  0  0  0
   -4.7002    8.6778    0.7118 N   0  0  0  0  0  0  0  0  0  0  0  0
   -4.5470    8.9124    2.1338 C   0  0  2  0  0  0  0  0  0  0  0  0
   -5.7581    8.6273    2.8757 C   0  0  0  0  0  0  0  0  0  0  0  0
   -5.8139    8.6915    4.1468 O   0  0  0  0  0  0  0  0  0  0  0  0
   -4.2977   10.4299    2.3530 C   0  0  0  0  0  0  0  0  0  0  0  0
   -3.0427   10.8407    1.7359 C   0  0  0  0  0  0  0  0  0  0  0  0
   -2.8503   11.3496    0.4862 C   0  0  0  0  0  0  0  0  0  0  0  0
   -1.7825   10.7748    2.3205 C   0  0  0  0  0  0  0  0  0  0  0  0
   -1.5277   11.5850    0.3172 N   0  0  0  0  0  0  0  0  0  0  0  0
   -0.8524   11.2427    1.4213 C   0  0  0  0  0  0  0  0  0  0  0  0
   -1.3210   10.3561    3.5558 C   0  0  0  0  0  0  0  0  0  0  0  0
    0.4994   11.3029    1.7153 C   0  0  0  0  0  0  0  0  0  0  0  0
    0.0396   10.4128    3.8626 C   0  0  0  0  0  0  0  0  0  0  0  0
    0.9417   10.8825    2.9500 C   0  0  0  0  0  0  0  0  0  0  0  0
   -6.9675    8.2603    2.2219 N   0  0  0  0  0  0  0  0  0  0  0  0
   -8.1825    7.9555    2.9501 C   0  0  2  0  0  0  0  0  0  0  0  0
   -7.9806    7.2117    4.1505 C   0  0  0  0  0  0  0  0  0  0  0  0
   -6.8497    6.5394    4.2033 O   0  0  0  0  0  0  0  0  0  0  0  0
   -9.1841    7.5605    1.9312 C   0  0  0  0  0  0  0  0  0  0  0  0
  -10.4942    7.0874    2.3871 C   0  0  0  0  0  0  0  0  0  0  0  0
  -11.4569    7.7558    3.1313 C   0  0  0  0  0  0  0  0  0  0  0  0
  -11.0338    5.8167    2.1594 C   0  0  0  0  0  0  0  0  0  0  0  0
  -12.5072    6.9296    3.3335 N   0  0  0  0  0  0  0  0  0  0  0  0
  -12.2771    5.7479    2.7543 C   0  0  0  0  0  0  0  0  0  0  0  0
  -10.5414    4.7619    1.4762 C   0  0  0  0  0  0  0  0  0  0  0  0
  -13.0342    4.5832    2.6528 C   0  0  0  0  0  0  0  0  0  0  0  0
  -11.2528    3.5604    1.3366 C   0  0  0  0  0  0  0  0  0  0  0  0
  -12.4853    3.5539    1.9521 C   0  0  0  0  0  0  0  0  0  0  0  0
   -8.7630    7.0382    5.3036 N   0  0  0  0  0  0  0  0  0  0  0  0
   -8.1661    6.5005    6.5908 C   0  0  2  0  0  0  0  0  0  0  0  0
   -8.5854    5.1060    6.7263 C   0  0  0  0  0  0  0  0  0  0  0  0
   -9.6918    4.7400    6.2258 O   0  0  0  0  0  0  0  0  0  0  0  0
   -8.7942    7.4165    7.5845 C   0  0  0  0  0  0  0  0  0  0  0  0
  -10.2248    7.4359    7.1087 C   0  0  0  0  0  0  0  0  0  0  0  0
  -10.1348    7.3005    5.6076 C   0  0  0  0  0  0  0  0  0  0  0  0
   -7.8145    4.1400    7.3903 N   0  0  0  0  0  0  0  0  0  0  0  0
   -7.9130    2.7228    7.0740 C   0  0  2  0  0  0  0  0  0  0  0  0
   -8.7347    2.1100    8.1463 C   0  0  0  0  0  0  0  0  0  0  0  0
   -9.7355    2.8245    8.8232 O   0  0  0  0  0  1  0  0  0  0  0  0
   -6.6241    1.9961    6.9552 C   0  0  0  0  0  0  0  0  0  0  0  0
   -5.6728    2.3780    8.0016 C   0  0  0  0  0  0  0  0  0  0  0  0
   -4.9560    3.5769    7.9740 O   0  0  0  0  0  1  0  0  0  0  0  0
   -5.4252    1.6408    9.0216 O   0  0  0  0  0  0  0  0  0  0  0  0
   -8.5842    0.9001    8.5194 O   0  0  0  0  0  0  0  0  0  0  0  0
  1  2  2  0
  1  3  1  0
  1  4  1  0
  4  5  1  0
  5  6  1  0
  5  8  1  6
  6  7  2  0
  6 12  1  0
  8  9  1  0
  9 10  1  6
  9 11  1  0
 12 13  1  0
 13 14  1  0
 13 16  1  6
 14 15  2  0
 14 26  1  0
 16 17  1  0
 17 18  2  0
 17 19  1  0
 18 20  1  0
 19 21  2  0
 19 22  1  0
 20 21  1  0
 21 23  1  0
 22 24  2  0
 23 25  2  0
 24 25  1  0
 26 27  1  0
 27 28  1  0
 27 30  1  6
 28 29  2  0
 28 40  1  0
 30 31  1  0
 31 32  2  0
 31 33  1  0
 32 34  1  0
 33 35  2  0
 33 36  1  0
 34 35  1  0
 35 37  1  0
 36 38  2  0
 37 39  2  0
 38 39  1  0
 40 41  1  0
 40 46  1  0
 41 42  1  1
 41 44  1  0
 42 43  2  0
 42 47  1  0
 44 45  1  0
 45 46  1  0
 47 48  1  0
 48 49  1  0
 48 51  1  1
 49 50  1  0
 49 55  2  0
 51 52  1  0
 52 53  1  0
 52 54  2  0
M  CHG  2  50  -1  53  -1
M  END
$$$$
