
     RDKit          3D

 55 59  0  0  0  0  0  0  0  0999 V2000
   -5.8042    9.9287   -2.8090 C   0  0  0  0  0  0  0  0  0  0  0  0
   -5.3474   11.0069   -2.3006 O   0  0  0  0  0  0  0  0  0  0  0  0
   -5.1817    9.4543   -4.0687 C   0  0  0  0  0  0  0  0  0  0  0  0
   -6.8625    9.2165   -2.1958 N   0  0  0  0  0  0  0  0  0  0  0  0
   -7.6186    9.8886   -1.1496 C   0  0  2  0  0  0  0  0  0  0  0  0
   -6.9861    9.6267    0.1604 C   0  0  0  0  0  0  0  0  0  0  0  0
   -7.3656   10.2226    1.2187 O   0  0  0  0  0  0  0  0  0  0  0  0
   -9.0425    9.4844   -1.1193 C   0  0  0  0  0  0  0  0  0  0  0  0
   -9.8813   10.0456   -0.0170 C   0  0  1  0  0  0  0  0  0  0  0  0
  -11.3342    9.6621   -0.0949 C   0  0  0  0  0  0  0  0  0  0  0  0
   -9.3520    9.4403    1.3001 C   0  0  0  0  0  0  0  0  0  0  0  0
   -5.9162    8.6820    0.3132 N   0  0  0  0  0  0  0  0  0  0  0  0
   -5.3163    8.5057    1.6207 C   0  0  2  0  0  0  0  0  0  0  0  0
   -6.2335    7.9191    2.5762 C   0  0  0  0  0  0  0  0  0  0  0  0
   -7.1599    8.5898    3.1372 O   0  0  0  0  0  0  0  0  0  0  0  0
   -4.9878    9.9094    2.1991 C   0  0  0  0  0  0  0  0  0  0  0  0
   -3.9211   10.5450    1.4358 C   0  0  0  0  0  0  0  0  0  0  0  0
   -2.7224   10.0117    1.0664 C   0  0  0  0  0  0  0  0  0  0  0  0
   -3.9286   11.8463    0.9450 C   0  0  0  0  0  0  0  0  0  0  0  0
   -2.0292   10.9491    0.3780 N   0  0  0  0  0  0  0  0  0  0  0  0
   -2.7418   12.0788    0.2892 C   0  0  0  0  0  0  0  0  0  0  0  0
   -4.8465   12.8805    0.9886 C   0  0  0  0  0  0  0  0  0  0  0  0
   -2.4514   13.2919   -0.3123 C   0  0  0  0  0  0  0  0  0  0  0  0
   -4.5640   14.1073    0.3853 C   0  0  0  0  0  0  0  0  0  0  0  0
   -3.3767   14.3107   -0.2597 C   0  0  0  0  0  0  0  0  0  0  0  0
   -6.1553    6.5465    2.9434 N   0  0  0  0  0  0  0  0  0  0  0  0
   -7.1048    5.9289    3.8469 C   0  0  2  0  0  0  0  0  0  0  0  0
   -7.1116    6.4795    5.1630 C   0  0  0  0  0  0  0  0  0  0  0  0
   -5.9722    7.0171    5.5456 O   0  0  0  0  0  0  0  0  0  0  0  0
   -7.0200    4.4702    3.5979 C   0  0  0  0  0  0  0  0  0  0  0  0
   -7.0149    3.5646    4.7502 C   0  0  0  0  0  0  0  0  0  0  0  0
   -5.9381    3.0884    5.4859 C   0  0  0  0  0  0  0  0  0  0  0  0
   -8.1403    2.9763    5.3379 C   0  0  0  0  0  0  0  0  0  0  0  0
   -6.3978    2.2652    6.4543 N   0  0  0  0  0  0  0  0  0  0  0  0
   -7.7294    2.1802    6.3877 C   0  0  0  0  0  0  0  0  0  0  0  0
   -9.4518    3.0998    5.0437 C   0  0  0  0  0  0  0  0  0  0  0  0
   -8.6709    1.4957    7.1526 C   0  0  0  0  0  0  0  0  0  0  0  0
  -10.4501    2.4376    5.7744 C   0  0  0  0  0  0  0  0  0  0  0  0
   -9.9771    1.6591    6.8079 C   0  0  0  0  0  0  0  0  0  0  0  0
   -8.1016    6.5552    6.1560 N   0  0  0  0  0  0  0  0  0  0  0  0
   -7.8903    7.3622    7.4234 C   0  0  2  0  0  0  0  0  0  0  0  0
   -7.6086    6.4216    8.5072 C   0  0  0  0  0  0  0  0  0  0  0  0
   -7.7611    6.7970    9.7091 O   0  0  0  0  0  0  0  0  0  0  0  0
   -9.2148    8.0354    7.5404 C   0  0  0  0  0  0  0  0  0  0  0  0
  -10.1559    6.8909    7.2608 C   0  0  0  0  0  0  0  0  0  0  0  0
   -9.4228    6.0215    6.2675 C   0  0  0  0  0  0  0  0  0  0  0  0
   -7.1728    5.1074    8.2811 N   0  0  0  0  0  0  0  0  0  0  0  0
   -6.5208    4.3211    9.3178 C   0  0  2  0  0  0  0  0  0  0  0  0
   -5.2763    5.0459    9.6735 C   0  0  0  0  0  0  0  0  0  0  0  0
   -4.2775    5.3267    8.7281 O   0  0  0  0  0  1  0  0  0  0  0  0
   -6.1961    2.9183    8.9568 C   0  0  0  0  0  0  0  0  0  0  0  0
   -7.2808    2.2704    8.2154 C   0  0  0  0  0  0  0  0  0  0  0  0
   -8.5881    2.7630    8.1993 O   0  0  0  0  0  1  0  0  0  0  0  0
   -7.1129    1.2020    7.5260 O   0  0  0  0  0  0  0  0  0  0  0  0
   -5.0365    5.4581   10.8559 O   0  0  0  0  0  0  0  0  0  0  0  0
  1  2  2  0
  1  3  1  0
  1  4  1  0
  4  5  1  0
  5  6  1  0
  5  8  1  1
  6  7  2  0
  6 12  1  0
  8  9  1  0
  9 10  1  6
  9 11  1  0
 12 13  1  0
 13 14  1  0
 13 16  1  1
 14 15  2  0
 14 26  1  0
 16 17  1  0
 17 18  2  0
 17 19  1  0
 18 20  1  0
 19 21  2  0
 19 22  1  0
 20 21  1  0
 21 23  1  0
 22 24  2  0
 23 25  2  0
 24 25  1  0
 26 27  1  0
 27 28  1  0
 27 30  1  1
 28 29  2  0
 28 40  1  0
 30 31  1  0
 31 32  2  0
 31 33  1  0
 32 34  1  0
 33 35  2  0
 33 36  1  0
 34 35  1  0
 35 37  1  0
 36 38  2  0
 37 39  2  0
 38 39  1  0
 40 41  1  0
 40 46  1  0
 41 42  1  1
 41 44  1  0
 42 43  2  0
 42 47  1  0
 44 45  1  0
 45 46  1  0
 47 48  1  0
 48 49  1  0
 48 51  1  6
 49 50  1  0
 49 55  2  0
 51 52  1  0
 52 53  1  0
 52 54  2  0
M  CHG  2  50  -1  53  -1
M  END
$$$$
