
     RDKit          3D

 55 59  0  0  0  0  0  0  0  0999 V2000
   -6.8737    8.8237   -3.7937 C   0  0  0  0  0  0  0  0  0  0  0  0
   -7.0794    7.5645   -3.8364 O   0  0  0  0  0  0  0  0  0  0  0  0
   -6.9141    9.5629   -5.0787 C   0  0  0  0  0  0  0  0  0  0  0  0
   -6.6162    9.4864   -2.5698 N   0  0  0  0  0  0  0  0  0  0  0  0
   -5.5961    8.9277   -1.6951 C   0  0  2  0  0  0  0  0  0  0  0  0
   -6.1672    8.7102   -0.3492 C   0  0  0  0  0  0  0  0  0  0  0  0
   -5.6793    7.8534    0.4551 O   0  0  0  0  0  0  0  0  0  0  0  0
   -4.3872    9.7776   -1.6058 C   0  0  0  0  0  0  0  0  0  0  0  0
   -3.1873    9.3296   -2.3760 C   0  0  1  0  0  0  0  0  0  0  0  0
   -2.7587    7.9182   -2.0787 C   0  0  0  0  0  0  0  0  0  0  0  0
   -3.5810    9.3489   -3.8680 C   0  0  0  0  0  0  0  0  0  0  0  0
   -7.2964    9.4571    0.1278 N   0  0  0  0  0  0  0  0  0  0  0  0
   -8.2067    8.8313    1.0662 C   0  0  2  0  0  0  0  0  0  0  0  0
   -7.5128    8.1313    2.1277 C   0  0  0  0  0  0  0  0  0  0  0  0
   -7.5284    6.8621    2.2358 O   0  0  0  0  0  0  0  0  0  0  0  0
   -8.9967    7.7252    0.3144 C   0  0  0  0  0  0  0  0  0  0  0  0
  -10.1663    8.2874   -0.3494 C   0  0  0  0  0  0  0  0  0  0  0  0
  -10.3916    8.4113   -1.6880 C   0  0  0  0  0  0  0  0  0  0  0  0
  -11.2856    8.8233    0.2783 C   0  0  0  0  0  0  0  0  0  0  0  0
  -11.5989    8.9972   -1.8679 N   0  0  0  0  0  0  0  0  0  0  0  0
  -12.1663    9.2598   -0.6842 C   0  0  0  0  0  0  0  0  0  0  0  0
  -11.6548    8.9864    1.6016 C   0  0  0  0  0  0  0  0  0  0  0  0
  -13.3816    9.8437   -0.3683 C   0  0  0  0  0  0  0  0  0  0  0  0
  -12.8777    9.5734    1.9311 C   0  0  0  0  0  0  0  0  0  0  0  0
  -13.7336    9.9980    0.9543 C   0  0  0  0  0  0  0  0  0  0  0  0
   -6.7631    8.8265    3.1175 N   0  0  0  0  0  0  0  0  0  0  0  0
   -6.1238    8.1479    4.2265 C   0  0  2  0  0  0  0  0  0  0  0  0
   -7.0184    7.7213    5.2526 C   0  0  0  0  0  0  0  0  0  0  0  0
   -7.4686    8.6827    6.0316 O   0  0  0  0  0  0  0  0  0  0  0  0
   -4.8882    8.9127    4.5191 C   0  0  0  0  0  0  0  0  0  0  0  0
   -3.7218    8.7115    3.6549 C   0  0  0  0  0  0  0  0  0  0  0  0
   -2.8222    7.6543    3.6289 C   0  0  0  0  0  0  0  0  0  0  0  0
   -3.2716    9.5912    2.6642 C   0  0  0  0  0  0  0  0  0  0  0  0
   -1.8920    7.8927    2.6778 N   0  0  0  0  0  0  0  0  0  0  0  0
   -2.1414    9.0597    2.0772 C   0  0  0  0  0  0  0  0  0  0  0  0
   -3.7740   10.7703    2.2410 C   0  0  0  0  0  0  0  0  0  0  0  0
   -1.5093    9.7414    1.0399 C   0  0  0  0  0  0  0  0  0  0  0  0
   -3.1855   11.5066    1.2015 C   0  0  0  0  0  0  0  0  0  0  0  0
   -2.0617   10.9246    0.6572 C   0  0  0  0  0  0  0  0  0  0  0  0
   -7.5164    6.4591    5.6145 N   0  0  0  0  0  0  0  0  0  0  0  0
   -8.3090    6.2585    6.8928 C   0  0  2  0  0  0  0  0  0  0  0  0
   -7.4274    5.6145    7.8657 C   0  0  0  0  0  0  0  0  0  0  0  0
   -6.3903    5.0093    7.4570 O   0  0  0  0  0  0  0  0  0  0  0  0
   -9.4039    5.3771    6.3975 C   0  0  0  0  0  0  0  0  0  0  0  0
   -8.6331    4.3846    5.5643 C   0  0  0  0  0  0  0  0  0  0  0  0
   -7.4814    5.1741    4.9897 C   0  0  0  0  0  0  0  0  0  0  0  0
   -7.6742    5.6332    9.2466 N   0  0  0  0  0  0  0  0  0  0  0  0
   -6.6053    5.4892   10.2239 C   0  0  2  0  0  0  0  0  0  0  0  0
   -6.3869    4.0319   10.3947 C   0  0  0  0  0  0  0  0  0  0  0  0
   -5.4542    3.5170   11.3086 O   0  0  0  0  0  1  0  0  0  0  0  0
   -6.8506    6.1161   11.5469 C   0  0  0  0  0  0  0  0  0  0  0  0
   -8.2227    5.9058   12.0152 C   0  0  0  0  0  0  0  0  0  0  0  0
   -9.3412    6.3693   11.3181 O   0  0  0  0  0  1  0  0  0  0  0  0
   -8.5009    5.2815   13.1004 O   0  0  0  0  0  0  0  0  0  0  0  0
   -7.0302    3.1585    9.7246 O   0  0  0  0  0  0  0  0  0  0  0  0
  1  2  2  0
  1  3  1  0
  1  4  1  0
  4  5  1  0
  5  6  1  0
  5  8  1  1
  6  7  2  0
  6 12  1  0
  8  9  1  0
  9 10  1  1
  9 11  1  0
 12 13  1  0
 13 14  1  0
 13 16  1  6
 14 15  2  0
 14 26  1  0
 16 17  1  0
 17 18  2  0
 17 19  1  0
 18 20  1  0
 19 21  2  0
 19 22  1  0
 20 21  1  0
 21 23  1  0
 22 24  2  0
 23 25  2  0
 24 25  1  0
 26 27  1  0
 27 28  1  0
 27 30  1  1
 28 29  2  0
 28 40  1  0
 30 31  1  0
 31 32  2  0
 31 33  1  0
 32 34  1  0
 33 35  2  0
 33 36  1  0
 34 35  1  0
 35 37  1  0
 36 38  2  0
 37 39  2  0
 38 39  1  0
 40 41  1  0
 40 46  1  0
 41 42  1  1
 41 44  1  0
 42 43  2  0
 42 47  1  0
 44 45  1  0
 45 46  1  0
 47 48  1  0
 48 49  1  0
 48 51  1  1
 49 50  1  0
 49 55  2  0
 51 52  1  0
 52 53  1  0
 52 54  2  0
M  CHG  2  50  -1  53  -1
M  END
$$$$
