
     RDKit          3D

 55 59  0  0  0  0  0  0  0  0999 V2000
   -2.8641    8.9018   -1.0128 C   0  0  0  0  0  0  0  0  0  0  0  0
   -2.4751    9.1369    0.1801 O   0  0  0  0  0  0  0  0  0  0  0  0
   -2.4516    7.6136   -1.6207 C   0  0  0  0  0  0  0  0  0  0  0  0
   -3.6556    9.8336   -1.7261 N   0  0  0  0  0  0  0  0  0  0  0  0
   -3.9713   11.0967   -1.0758 C   0  0  2  0  0  0  0  0  0  0  0  0
   -5.2718   10.9817   -0.3827 C   0  0  0  0  0  0  0  0  0  0  0  0
   -6.2818   11.6712   -0.7345 O   0  0  0  0  0  0  0  0  0  0  0  0
   -3.9938   12.2385   -2.0178 C   0  0  0  0  0  0  0  0  0  0  0  0
   -2.8010   12.4090   -2.9021 C   0  0  1  0  0  0  0  0  0  0  0  0
   -2.9994   13.4008   -4.0161 C   0  0  0  0  0  0  0  0  0  0  0  0
   -1.6695   12.9795   -2.0215 C   0  0  0  0  0  0  0  0  0  0  0  0
   -5.4700   10.0823    0.7184 N   0  0  0  0  0  0  0  0  0  0  0  0
   -6.8121    9.6244    1.0185 C   0  0  2  0  0  0  0  0  0  0  0  0
   -6.8445    8.6942    2.1284 C   0  0  0  0  0  0  0  0  0  0  0  0
   -7.8982    8.0595    2.4597 O   0  0  0  0  0  0  0  0  0  0  0  0
   -7.3310    8.8076   -0.1966 C   0  0  0  0  0  0  0  0  0  0  0  0
   -8.6663    8.2852    0.0656 C   0  0  0  0  0  0  0  0  0  0  0  0
   -9.0103    7.0311    0.4742 C   0  0  0  0  0  0  0  0  0  0  0  0
   -9.8605    8.9850   -0.0687 C   0  0  0  0  0  0  0  0  0  0  0  0
  -10.3583    6.9703    0.5853 N   0  0  0  0  0  0  0  0  0  0  0  0
  -10.9027    8.1491    0.2595 C   0  0  0  0  0  0  0  0  0  0  0  0
  -10.1747   10.2791   -0.4438 C   0  0  0  0  0  0  0  0  0  0  0  0
  -12.2243    8.5612    0.2240 C   0  0  0  0  0  0  0  0  0  0  0  0
  -11.5035   10.7050   -0.4827 C   0  0  0  0  0  0  0  0  0  0  0  0
  -12.5192    9.8532   -0.1513 C   0  0  0  0  0  0  0  0  0  0  0  0
   -5.6901    8.4294    2.9171 N   0  0  0  0  0  0  0  0  0  0  0  0
   -5.7679    7.8076    4.2235 C   0  0  2  0  0  0  0  0  0  0  0  0
   -6.4694    6.5656    4.2454 C   0  0  0  0  0  0  0  0  0  0  0  0
   -7.6875    6.6073    3.7473 O   0  0  0  0  0  0  0  0  0  0  0  0
   -6.0593    8.9001    5.1820 C   0  0  0  0  0  0  0  0  0  0  0  0
   -5.9412    8.6205    6.6158 C   0  0  0  0  0  0  0  0  0  0  0  0
   -6.3003    9.4152    7.6962 C   0  0  0  0  0  0  0  0  0  0  0  0
   -5.4094    7.4583    7.1853 C   0  0  0  0  0  0  0  0  0  0  0  0
   -5.9991    8.7623    8.8406 N   0  0  0  0  0  0  0  0  0  0  0  0
   -5.4586    7.5734    8.5597 C   0  0  0  0  0  0  0  0  0  0  0  0
   -4.9226    6.3396    6.6080 C   0  0  0  0  0  0  0  0  0  0  0  0
   -5.0029    6.5303    9.3625 C   0  0  0  0  0  0  0  0  0  0  0  0
   -4.4482    5.2534    7.3591 C   0  0  0  0  0  0  0  0  0  0  0  0
   -4.5233    5.4288    8.7235 C   0  0  0  0  0  0  0  0  0  0  0  0
   -6.1224    5.2866    4.7098 N   0  0  0  0  0  0  0  0  0  0  0  0
   -7.0770    4.1138    4.5844 C   0  0  2  0  0  0  0  0  0  0  0  0
   -7.6553    3.8687    5.9050 C   0  0  0  0  0  0  0  0  0  0  0  0
   -7.5863    2.7054    6.4058 O   0  0  0  0  0  0  0  0  0  0  0  0
   -6.1391    3.0478    4.1313 C   0  0  0  0  0  0  0  0  0  0  0  0
   -4.9746    3.2594    5.0654 C   0  0  0  0  0  0  0  0  0  0  0  0
   -4.9449    4.7482    5.3153 C   0  0  0  0  0  0  0  0  0  0  0  0
   -8.2906    4.8692    6.6560 N   0  0  0  0  0  0  0  0  0  0  0  0
   -8.9508    4.5830    7.9210 C   0  0  2  0  0  0  0  0  0  0  0  0
  -10.4081    4.6985    7.6689 C   0  0  0  0  0  0  0  0  0  0  0  0
  -10.9253    5.4369    6.5930 O   0  0  0  0  0  1  0  0  0  0  0  0
   -8.5702    5.4550    9.0604 C   0  0  0  0  0  0  0  0  0  0  0  0
   -7.4371    4.9170    9.8171 C   0  0  0  0  0  0  0  0  0  0  0  0
   -7.0654    3.5711    9.7714 O   0  0  0  0  0  1  0  0  0  0  0  0
   -6.7014    5.6402   10.5791 O   0  0  0  0  0  0  0  0  0  0  0  0
  -11.2795    4.1363    8.4108 O   0  0  0  0  0  0  0  0  0  0  0  0
  1  2  2  0
  1  3  1  0
  1  4  1  0
  4  5  1  0
  5  6  1  0
  5  8  1  6
  6  7  2  0
  6 12  1  0
  8  9  1  0
  9 10  1  6
  9 11  1  0
 12 13  1  0
 13 14  1  0
 13 16  1  6
 14 15  2  0
 14 26  1  0
 16 17  1  0
 17 18  2  0
 17 19  1  0
 18 20  1  0
 19 21  2  0
 19 22  1  0
 20 21  1  0
 21 23  1  0
 22 24  2  0
 23 25  2  0
 24 25  1  0
 26 27  1  0
 27 28  1  0
 27 30  1  1
 28 29  2  0
 28 40  1  0
 30 31  1  0
 31 32  2  0
 31 33  1  0
 32 34  1  0
 33 35  2  0
 33 36  1  0
 34 35  1  0
 35 37  1  0
 36 38  2  0
 37 39  2  0
 38 39  1  0
 40 41  1  0
 40 46  1  0
 41 42  1  1
 41 44  1  0
 42 43  2  0
 42 47  1  0
 44 45  1  0
 45 46  1  0
 47 48  1  0
 48 49  1  0
 48 51  1  1
 49 50  1  0
 49 55  2  0
 51 52  1  0
 52 53  1  0
 52 54  2  0
M  CHG  2  50  -1  53  -1
M  END
$$$$
