
     RDKit          3D

 55 59  0  0  0  0  0  0  0  0999 V2000
   -3.2104    3.6626    1.5835 C   0  0  0  0  0  0  0  0  0  0  0  0
   -4.3135    3.4224    2.1794 O   0  0  0  0  0  0  0  0  0  0  0  0
   -3.1563    3.4052    0.1240 C   0  0  0  0  0  0  0  0  0  0  0  0
   -2.0849    4.1531    2.2879 N   0  0  0  0  0  0  0  0  0  0  0  0
   -2.1754    4.2422    3.7376 C   0  0  2  0  0  0  0  0  0  0  0  0
   -2.8849    5.4839    4.1110 C   0  0  0  0  0  0  0  0  0  0  0  0
   -3.1591    5.7604    5.3224 O   0  0  0  0  0  0  0  0  0  0  0  0
   -0.8525    4.1907    4.4004 C   0  0  0  0  0  0  0  0  0  0  0  0
   -0.0013    2.9949    4.1188 C   0  0  1  0  0  0  0  0  0  0  0  0
    1.3932    3.0890    4.6761 C   0  0  0  0  0  0  0  0  0  0  0  0
   -0.6638    1.7969    4.8311 C   0  0  0  0  0  0  0  0  0  0  0  0
   -3.2965    6.4489    3.1313 N   0  0  0  0  0  0  0  0  0  0  0  0
   -3.9562    7.6613    3.5734 C   0  0  2  0  0  0  0  0  0  0  0  0
   -5.3848    7.6328    3.3353 C   0  0  0  0  0  0  0  0  0  0  0  0
   -5.9201    6.8643    2.4717 O   0  0  0  0  0  0  0  0  0  0  0  0
   -3.4353    8.8421    2.7091 C   0  0  0  0  0  0  0  0  0  0  0  0
   -2.2215    9.4070    3.2854 C   0  0  0  0  0  0  0  0  0  0  0  0
   -2.1137   10.2554    4.3468 C   0  0  0  0  0  0  0  0  0  0  0  0
   -0.9232    9.1868    2.8382 C   0  0  0  0  0  0  0  0  0  0  0  0
   -0.8038   10.5390    4.5387 N   0  0  0  0  0  0  0  0  0  0  0  0
   -0.0547    9.9003    3.6315 C   0  0  0  0  0  0  0  0  0  0  0  0
   -0.3784    8.4328    1.8141 C   0  0  0  0  0  0  0  0  0  0  0  0
    1.3158    9.8826    3.4344 C   0  0  0  0  0  0  0  0  0  0  0  0
    1.0018    8.4076    1.6067 C   0  0  0  0  0  0  0  0  0  0  0  0
    1.8414    9.1262    2.4103 C   0  0  0  0  0  0  0  0  0  0  0  0
   -6.2815    8.4652    4.0617 N   0  0  0  0  0  0  0  0  0  0  0  0
   -7.7136    8.4413    3.8427 C   0  0  2  0  0  0  0  0  0  0  0  0
   -8.1820    9.3991    2.8949 C   0  0  0  0  0  0  0  0  0  0  0  0
   -8.0476   10.6561    3.2631 O   0  0  0  0  0  0  0  0  0  0  0  0
   -8.3313    8.2821    5.1808 C   0  0  0  0  0  0  0  0  0  0  0  0
   -8.4687    6.9300    5.7295 C   0  0  0  0  0  0  0  0  0  0  0  0
   -7.4903    6.0878    6.2402 C   0  0  0  0  0  0  0  0  0  0  0  0
   -9.6592    6.2018    5.8315 C   0  0  0  0  0  0  0  0  0  0  0  0
   -8.0667    4.9268    6.6231 N   0  0  0  0  0  0  0  0  0  0  0  0
   -9.3809    4.9696    6.3872 C   0  0  0  0  0  0  0  0  0  0  0  0
  -10.9252    6.5360    5.5040 C   0  0  0  0  0  0  0  0  0  0  0  0
  -10.4106    4.0592    6.6136 C   0  0  0  0  0  0  0  0  0  0  0  0
  -12.0070    5.6654    5.7060 C   0  0  0  0  0  0  0  0  0  0  0  0
  -11.6651    4.4525    6.2628 C   0  0  0  0  0  0  0  0  0  0  0  0
   -8.7793    9.2707    1.6305 N   0  0  0  0  0  0  0  0  0  0  0  0
   -9.9298    8.3104    1.3931 C   0  0  2  0  0  0  0  0  0  0  0  0
   -9.3980    7.1461    0.6859 C   0  0  0  0  0  0  0  0  0  0  0  0
   -9.0486    7.2642   -0.5276 O   0  0  0  0  0  0  0  0  0  0  0  0
  -10.8265    9.1616    0.5610 C   0  0  0  0  0  0  0  0  0  0  0  0
   -9.8453    9.7645   -0.4123 C   0  0  0  0  0  0  0  0  0  0  0  0
   -8.5651    9.9167    0.3736 C   0  0  0  0  0  0  0  0  0  0  0  0
   -9.2524    5.8885    1.2907 N   0  0  0  0  0  0  0  0  0  0  0  0
   -8.8551    4.7098    0.5350 C   0  0  2  0  0  0  0  0  0  0  0  0
  -10.1034    4.1169   -0.0041 C   0  0  0  0  0  0  0  0  0  0  0  0
  -11.2910    4.0659    0.7424 O   0  0  0  0  0  1  0  0  0  0  0  0
   -8.0998    3.6808    1.2928 C   0  0  0  0  0  0  0  0  0  0  0  0
   -8.4469    3.6729    2.7159 C   0  0  0  0  0  0  0  0  0  0  0  0
   -7.8648    2.7949    3.6335 O   0  0  0  0  0  1  0  0  0  0  0  0
   -9.3116    4.4705    3.2270 O   0  0  0  0  0  0  0  0  0  0  0  0
  -10.1760    3.6181   -1.1753 O   0  0  0  0  0  0  0  0  0  0  0  0
  1  2  2  0
  1  3  1  0
  1  4  1  0
  4  5  1  0
  5  6  1  0
  5  8  1  1
  6  7  2  0
  6 12  1  0
  8  9  1  0
  9 10  1  1
  9 11  1  0
 12 13  1  0
 13 14  1  0
 13 16  1  6
 14 15  2  0
 14 26  1  0
 16 17  1  0
 17 18  2  0
 17 19  1  0
 18 20  1  0
 19 21  2  0
 19 22  1  0
 20 21  1  0
 21 23  1  0
 22 24  2  0
 23 25  2  0
 24 25  1  0
 26 27  1  0
 27 28  1  0
 27 30  1  1
 28 29  2  0
 28 40  1  0
 30 31  1  0
 31 32  2  0
 31 33  1  0
 32 34  1  0
 33 35  2  0
 33 36  1  0
 34 35  1  0
 35 37  1  0
 36 38  2  0
 37 39  2  0
 38 39  1  0
 40 41  1  0
 40 46  1  0
 41 42  1  6
 41 44  1  0
 42 43  2  0
 42 47  1  0
 44 45  1  0
 45 46  1  0
 47 48  1  0
 48 49  1  0
 48 51  1  1
 49 50  1  0
 49 55  2  0
 51 52  1  0
 52 53  1  0
 52 54  2  0
M  CHG  2  50  -1  53  -1
M  END
$$$$
