
     RDKit          3D

 55 59  0  0  0  0  0  0  0  0999 V2000
   -5.0887    7.9929   -3.5789 C   0  0  0  0  0  0  0  0  0  0  0  0
   -6.3267    8.2616   -3.4209 O   0  0  0  0  0  0  0  0  0  0  0  0
   -4.3710    8.7075   -4.6622 C   0  0  0  0  0  0  0  0  0  0  0  0
   -4.4291    7.0503   -2.7545 N   0  0  0  0  0  0  0  0  0  0  0  0
   -5.1347    6.5633   -1.5785 C   0  0  2  0  0  0  0  0  0  0  0  0
   -5.0403    7.5668   -0.4973 C   0  0  0  0  0  0  0  0  0  0  0  0
   -5.6106    8.7010   -0.5842 O   0  0  0  0  0  0  0  0  0  0  0  0
   -4.6297    5.2543   -1.1061 C   0  0  0  0  0  0  0  0  0  0  0  0
   -3.3519    4.7655   -1.7078 C   0  0  1  0  0  0  0  0  0  0  0  0
   -2.7917    3.5364   -1.0448 C   0  0  0  0  0  0  0  0  0  0  0  0
   -3.6697    4.3569   -3.1615 C   0  0  0  0  0  0  0  0  0  0  0  0
   -4.3084    7.3157    0.7117 N   0  0  0  0  0  0  0  0  0  0  0  0
   -4.3284    8.3116    1.7646 C   0  0  2  0  0  0  0  0  0  0  0  0
   -5.5614    8.2893    2.5245 C   0  0  0  0  0  0  0  0  0  0  0  0
   -5.7967    9.1070    3.4726 O   0  0  0  0  0  0  0  0  0  0  0  0
   -4.2962    9.7178    1.1054 C   0  0  0  0  0  0  0  0  0  0  0  0
   -3.4782   10.6357    1.8883 C   0  0  0  0  0  0  0  0  0  0  0  0
   -3.8269   11.8583    2.3799 C   0  0  0  0  0  0  0  0  0  0  0  0
   -2.1580   10.4305    2.2743 C   0  0  0  0  0  0  0  0  0  0  0  0
   -2.7634   12.3755    3.0389 N   0  0  0  0  0  0  0  0  0  0  0  0
   -1.7307   11.5250    2.9899 C   0  0  0  0  0  0  0  0  0  0  0  0
   -1.2552    9.3990    2.0870 C   0  0  0  0  0  0  0  0  0  0  0  0
   -0.4520   11.6167    3.5133 C   0  0  0  0  0  0  0  0  0  0  0  0
    0.0363    9.4810    2.6105 C   0  0  0  0  0  0  0  0  0  0  0  0
    0.4339   10.5804    3.3178 C   0  0  0  0  0  0  0  0  0  0  0  0
   -6.5925    7.3475    2.2507 N   0  0  0  0  0  0  0  0  0  0  0  0
   -7.8095    7.2786    3.0339 C   0  0  2  0  0  0  0  0  0  0  0  0
   -7.6079    7.3407    4.4448 C   0  0  0  0  0  0  0  0  0  0  0  0
   -6.3482    7.3973    4.8236 O   0  0  0  0  0  0  0  0  0  0  0  0
   -8.6490    6.2356    2.3978 C   0  0  0  0  0  0  0  0  0  0  0  0
   -9.6434    6.6501    1.4042 C   0  0  0  0  0  0  0  0  0  0  0  0
  -10.5227    5.8696    0.6658 C   0  0  0  0  0  0  0  0  0  0  0  0
   -9.8913    7.9629    0.9880 C   0  0  0  0  0  0  0  0  0  0  0  0
  -11.2504    6.6727   -0.1419 N   0  0  0  0  0  0  0  0  0  0  0  0
  -10.8884    7.9466    0.0340 C   0  0  0  0  0  0  0  0  0  0  0  0
   -9.3415    9.1298    1.3851 C   0  0  0  0  0  0  0  0  0  0  0  0
  -11.3343    9.1406   -0.5277 C   0  0  0  0  0  0  0  0  0  0  0  0
   -9.7451   10.3666    0.8592 C   0  0  0  0  0  0  0  0  0  0  0  0
  -10.7421   10.2841   -0.0879 C   0  0  0  0  0  0  0  0  0  0  0  0
   -8.4964    7.3418    5.5323 N   0  0  0  0  0  0  0  0  0  0  0  0
   -7.9940    7.3317    6.9640 C   0  0  2  0  0  0  0  0  0  0  0  0
   -8.1719    5.9779    7.4877 C   0  0  0  0  0  0  0  0  0  0  0  0
   -8.9475    5.1765    6.8836 O   0  0  0  0  0  0  0  0  0  0  0  0
   -8.9050    8.3386    7.5782 C   0  0  0  0  0  0  0  0  0  0  0  0
  -10.2377    7.9190    7.0114 C   0  0  0  0  0  0  0  0  0  0  0  0
   -9.9214    7.3838    5.6355 C   0  0  0  0  0  0  0  0  0  0  0  0
   -7.5184    5.5149    8.6396 N   0  0  0  0  0  0  0  0  0  0  0  0
   -7.2404    4.1025    8.8544 C   0  0  2  0  0  0  0  0  0  0  0  0
   -8.3833    3.5637    9.6315 C   0  0  0  0  0  0  0  0  0  0  0  0
   -8.4208    2.2355   10.0841 O   0  0  0  0  0  1  0  0  0  0  0  0
   -5.9692    3.7935    9.5560 C   0  0  0  0  0  0  0  0  0  0  0  0
   -5.7542    4.6553   10.7209 C   0  0  0  0  0  0  0  0  0  0  0  0
   -5.3890    5.9995   10.6126 O   0  0  0  0  0  1  0  0  0  0  0  0
   -5.8840    4.2413   11.9278 O   0  0  0  0  0  0  0  0  0  0  0  0
   -9.3998    4.2704    9.9364 O   0  0  0  0  0  0  0  0  0  0  0  0
  1  2  2  0
  1  3  1  0
  1  4  1  0
  4  5  1  0
  5  6  1  0
  5  8  1  1
  6  7  2  0
  6 12  1  0
  8  9  1  0
  9 10  1  1
  9 11  1  0
 12 13  1  0
 13 14  1  0
 13 16  1  6
 14 15  2  0
 14 26  1  0
 16 17  1  0
 17 18  2  0
 17 19  1  0
 18 20  1  0
 19 21  2  0
 19 22  1  0
 20 21  1  0
 21 23  1  0
 22 24  2  0
 23 25  2  0
 24 25  1  0
 26 27  1  0
 27 28  1  0
 27 30  1  1
 28 29  2  0
 28 40  1  0
 30 31  1  0
 31 32  2  0
 31 33  1  0
 32 34  1  0
 33 35  2  0
 33 36  1  0
 34 35  1  0
 35 37  1  0
 36 38  2  0
 37 39  2  0
 38 39  1  0
 40 41  1  0
 40 46  1  0
 41 42  1  1
 41 44  1  0
 42 43  2  0
 42 47  1  0
 44 45  1  0
 45 46  1  0
 47 48  1  0
 48 49  1  0
 48 51  1  1
 49 50  1  0
 49 55  2  0
 51 52  1  0
 52 53  1  0
 52 54  2  0
M  CHG  2  50  -1  53  -1
M  END
$$$$
