
     RDKit          3D

 55 59  0  0  0  0  0  0  0  0999 V2000
   -2.5003    4.5011    2.9602 C   0  0  0  0  0  0  0  0  0  0  0  0
   -3.3412    4.6471    3.9096 O   0  0  0  0  0  0  0  0  0  0  0  0
   -2.6761    3.3273    2.0710 C   0  0  0  0  0  0  0  0  0  0  0  0
   -1.4427    5.4215    2.7657 N   0  0  0  0  0  0  0  0  0  0  0  0
   -1.3361    6.5406    3.6899 C   0  0  2  0  0  0  0  0  0  0  0  0
   -2.3101    7.5861    3.3113 C   0  0  0  0  0  0  0  0  0  0  0  0
   -2.0030    8.5318    2.5173 O   0  0  0  0  0  0  0  0  0  0  0  0
    0.0290    7.1108    3.7472 C   0  0  0  0  0  0  0  0  0  0  0  0
    0.3142    8.0720    4.8555 C   0  0  1  0  0  0  0  0  0  0  0  0
    1.1167    9.2734    4.4351 C   0  0  0  0  0  0  0  0  0  0  0  0
   -1.0471    8.6170    5.3362 C   0  0  0  0  0  0  0  0  0  0  0  0
   -3.6558    7.5887    3.8107 N   0  0  0  0  0  0  0  0  0  0  0  0
   -4.7240    8.0538    2.9485 C   0  0  2  0  0  0  0  0  0  0  0  0
   -5.8823    7.1845    2.9839 C   0  0  0  0  0  0  0  0  0  0  0  0
   -5.8366    5.9670    2.6121 O   0  0  0  0  0  0  0  0  0  0  0  0
   -4.2265    7.9890    1.4785 C   0  0  0  0  0  0  0  0  0  0  0  0
   -3.8532    9.3147    1.0014 C   0  0  0  0  0  0  0  0  0  0  0  0
   -3.3959    9.6628   -0.2346 C   0  0  0  0  0  0  0  0  0  0  0  0
   -3.8853   10.4910    1.7428 C   0  0  0  0  0  0  0  0  0  0  0  0
   -3.1605   10.9960   -0.2457 N   0  0  0  0  0  0  0  0  0  0  0  0
   -3.4504   11.5267    0.9487 C   0  0  0  0  0  0  0  0  0  0  0  0
   -4.2506   10.7937    3.0424 C   0  0  0  0  0  0  0  0  0  0  0  0
   -3.3712   12.8310    1.4072 C   0  0  0  0  0  0  0  0  0  0  0  0
   -4.1749   12.1051    3.5148 C   0  0  0  0  0  0  0  0  0  0  0  0
   -3.7392   13.1148    2.7037 C   0  0  0  0  0  0  0  0  0  0  0  0
   -7.1483    7.6428    3.4446 N   0  0  0  0  0  0  0  0  0  0  0  0
   -8.3294    6.8037    3.4328 C   0  0  2  0  0  0  0  0  0  0  0  0
   -8.6670    6.2774    2.1506 C   0  0  0  0  0  0  0  0  0  0  0  0
   -8.1191    6.9053    1.1311 O   0  0  0  0  0  0  0  0  0  0  0  0
   -9.3234    7.4811    4.2989 C   0  0  0  0  0  0  0  0  0  0  0  0
   -9.2379    7.2808    5.7482 C   0  0  0  0  0  0  0  0  0  0  0  0
   -9.8838    6.3435    6.5431 C   0  0  0  0  0  0  0  0  0  0  0  0
   -8.4682    8.0380    6.6383 C   0  0  0  0  0  0  0  0  0  0  0  0
   -9.5185    6.5333    7.8304 N   0  0  0  0  0  0  0  0  0  0  0  0
   -8.6604    7.5536    7.9162 C   0  0  0  0  0  0  0  0  0  0  0  0
   -7.6265    9.0693    6.4155 C   0  0  0  0  0  0  0  0  0  0  0  0
   -7.9837    8.1302    8.9885 C   0  0  0  0  0  0  0  0  0  0  0  0
   -6.9149    9.6940    7.4511 C   0  0  0  0  0  0  0  0  0  0  0  0
   -7.1494    9.1662    8.7018 C   0  0  0  0  0  0  0  0  0  0  0  0
   -9.4897    5.2134    1.7469 N   0  0  0  0  0  0  0  0  0  0  0  0
   -9.5661    4.7795    0.2949 C   0  0  2  0  0  0  0  0  0  0  0  0
  -10.8268    5.2795   -0.2523 C   0  0  0  0  0  0  0  0  0  0  0  0
  -11.2802    4.7759   -1.3244 O   0  0  0  0  0  0  0  0  0  0  0  0
   -9.5241    3.2981    0.4518 C   0  0  0  0  0  0  0  0  0  0  0  0
  -10.5002    3.0908    1.5822 C   0  0  0  0  0  0  0  0  0  0  0  0
  -10.3504    4.3161    2.4519 C   0  0  0  0  0  0  0  0  0  0  0  0
  -11.5699    6.3013    0.3576 N   0  0  0  0  0  0  0  0  0  0  0  0
  -12.8593    6.7332   -0.1611 C   0  0  2  0  0  0  0  0  0  0  0  0
  -12.5914    7.3675   -1.4751 C   0  0  0  0  0  0  0  0  0  0  0  0
  -13.4290    7.1731   -2.5846 O   0  0  0  0  0  1  0  0  0  0  0  0
  -13.6210    7.6717    0.7006 C   0  0  0  0  0  0  0  0  0  0  0  0
  -12.7641    8.7014    1.2932 C   0  0  0  0  0  0  0  0  0  0  0  0
  -11.3754    8.5751    1.3790 O   0  0  0  0  0  1  0  0  0  0  0  0
  -13.2236    9.7960    1.7788 O   0  0  0  0  0  0  0  0  0  0  0  0
  -11.5873    8.1263   -1.6788 O   0  0  0  0  0  0  0  0  0  0  0  0
  1  2  2  0
  1  3  1  0
  1  4  1  0
  4  5  1  0
  5  6  1  0
  5  8  1  6
  6  7  2  0
  6 12  1  0
  8  9  1  0
  9 10  1  6
  9 11  1  0
 12 13  1  0
 13 14  1  0
 13 16  1  6
 14 15  2  0
 14 26  1  0
 16 17  1  0
 17 18  2  0
 17 19  1  0
 18 20  1  0
 19 21  2  0
 19 22  1  0
 20 21  1  0
 21 23  1  0
 22 24  2  0
 23 25  2  0
 24 25  1  0
 26 27  1  0
 27 28  1  0
 27 30  1  6
 28 29  2  0
 28 40  1  0
 30 31  1  0
 31 32  2  0
 31 33  1  0
 32 34  1  0
 33 35  2  0
 33 36  1  0
 34 35  1  0
 35 37  1  0
 36 38  2  0
 37 39  2  0
 38 39  1  0
 40 41  1  0
 40 46  1  0
 41 42  1  1
 41 44  1  0
 42 43  2  0
 42 47  1  0
 44 45  1  0
 45 46  1  0
 47 48  1  0
 48 49  1  0
 48 51  1  1
 49 50  1  0
 49 55  2  0
 51 52  1  0
 52 53  1  0
 52 54  2  0
M  CHG  2  50  -1  53  -1
M  END
$$$$
