
     RDKit          3D

 55 59  0  0  0  0  0  0  0  0999 V2000
   -3.9075    8.4652   -3.0125 C   0  0  0  0  0  0  0  0  0  0  0  0
   -4.7757    8.9685   -3.8016 O   0  0  0  0  0  0  0  0  0  0  0  0
   -3.6587    7.0069   -3.1169 C   0  0  0  0  0  0  0  0  0  0  0  0
   -3.2123    9.2665   -2.0755 N   0  0  0  0  0  0  0  0  0  0  0  0
   -3.8079   10.5381   -1.6933 C   0  0  2  0  0  0  0  0  0  0  0  0
   -5.0761   10.2914   -0.9751 C   0  0  0  0  0  0  0  0  0  0  0  0
   -6.1204   10.9817   -1.2033 O   0  0  0  0  0  0  0  0  0  0  0  0
   -4.0410   11.4341   -2.8485 C   0  0  0  0  0  0  0  0  0  0  0  0
   -2.8504   12.1493   -3.4004 C   0  0  1  0  0  0  0  0  0  0  0  0
   -3.1654   13.0730   -4.5457 C   0  0  0  0  0  0  0  0  0  0  0  0
   -2.3033   13.0456   -2.2696 C   0  0  0  0  0  0  0  0  0  0  0  0
   -5.2026    9.2568    0.0118 N   0  0  0  0  0  0  0  0  0  0  0  0
   -6.5077    8.9843    0.5804 C   0  0  2  0  0  0  0  0  0  0  0  0
   -6.4824    7.8843    1.5226 C   0  0  0  0  0  0  0  0  0  0  0  0
   -6.2776    6.6793    1.1635 O   0  0  0  0  0  0  0  0  0  0  0  0
   -7.4458    8.5049   -0.5612 C   0  0  0  0  0  0  0  0  0  0  0  0
   -8.0677    9.6414   -1.2291 C   0  0  0  0  0  0  0  0  0  0  0  0
   -7.9403   10.0203   -2.5322 C   0  0  0  0  0  0  0  0  0  0  0  0
   -8.9144   10.5744   -0.6403 C   0  0  0  0  0  0  0  0  0  0  0  0
   -8.6799   11.1371   -2.7290 N   0  0  0  0  0  0  0  0  0  0  0  0
   -9.2850   11.4976   -1.5906 C   0  0  0  0  0  0  0  0  0  0  0  0
   -9.4213   10.7353    0.6369 C   0  0  0  0  0  0  0  0  0  0  0  0
  -10.1308   12.5566   -1.3066 C   0  0  0  0  0  0  0  0  0  0  0  0
  -10.2750   11.7991    0.9340 C   0  0  0  0  0  0  0  0  0  0  0  0
  -10.6267   12.7016   -0.0298 C   0  0  0  0  0  0  0  0  0  0  0  0
   -6.6819    8.0881    2.9167 N   0  0  0  0  0  0  0  0  0  0  0  0
   -6.2447    7.1303    3.9121 C   0  0  2  0  0  0  0  0  0  0  0  0
   -7.2667    6.2467    4.3702 C   0  0  0  0  0  0  0  0  0  0  0  0
   -8.4684    6.4920    3.8912 O   0  0  0  0  0  0  0  0  0  0  0  0
   -5.3662    7.8775    4.8433 C   0  0  0  0  0  0  0  0  0  0  0  0
   -3.9546    8.0464    4.4869 C   0  0  0  0  0  0  0  0  0  0  0  0
   -3.3420    9.0877    3.8029 C   0  0  0  0  0  0  0  0  0  0  0  0
   -2.9223    7.1451    4.7693 C   0  0  0  0  0  0  0  0  0  0  0  0
   -2.0223    8.8199    3.6862 N   0  0  0  0  0  0  0  0  0  0  0  0
   -1.7410    7.6488    4.2641 C   0  0  0  0  0  0  0  0  0  0  0  0
   -2.9386    5.9686    5.4308 C   0  0  0  0  0  0  0  0  0  0  0  0
   -0.5531    6.9416    4.4345 C   0  0  0  0  0  0  0  0  0  0  0  0
   -1.7778    5.2075    5.6365 C   0  0  0  0  0  0  0  0  0  0  0  0
   -0.6325    5.7625    5.1090 C   0  0  0  0  0  0  0  0  0  0  0  0
   -7.2532    5.1555    5.2540 N   0  0  0  0  0  0  0  0  0  0  0  0
   -8.5376    4.4769    5.6923 C   0  0  2  0  0  0  0  0  0  0  0  0
   -8.8273    4.9137    7.0576 C   0  0  0  0  0  0  0  0  0  0  0  0
   -9.1582    4.0517    7.9271 O   0  0  0  0  0  0  0  0  0  0  0  0
   -8.1361    3.0452    5.5914 C   0  0  0  0  0  0  0  0  0  0  0  0
   -6.7771    3.0706    6.2439 C   0  0  0  0  0  0  0  0  0  0  0  0
   -6.2055    4.4237    5.8940 C   0  0  0  0  0  0  0  0  0  0  0  0
   -8.7561    6.2561    7.4591 N   0  0  0  0  0  0  0  0  0  0  0  0
   -9.2282    6.6980    8.7629 C   0  0  2  0  0  0  0  0  0  0  0  0
  -10.3932    7.5807    8.5099 C   0  0  0  0  0  0  0  0  0  0  0  0
  -10.5909    8.2247    7.2784 O   0  0  0  0  0  1  0  0  0  0  0  0
   -8.2335    7.4118    9.6024 C   0  0  0  0  0  0  0  0  0  0  0  0
   -6.9647    6.6860    9.6980 C   0  0  0  0  0  0  0  0  0  0  0  0
   -5.8987    6.9037    8.8216 O   0  0  0  0  0  1  0  0  0  0  0  0
   -6.7365    5.7956   10.5925 O   0  0  0  0  0  0  0  0  0  0  0  0
  -11.2853    7.8092    9.3918 O   0  0  0  0  0  0  0  0  0  0  0  0
  1  2  2  0
  1  3  1  0
  1  4  1  0
  4  5  1  0
  5  6  1  0
  5  8  1  6
  6  7  2  0
  6 12  1  0
  8  9  1  0
  9 10  1  6
  9 11  1  0
 12 13  1  0
 13 14  1  0
 13 16  1  6
 14 15  2  0
 14 26  1  0
 16 17  1  0
 17 18  2  0
 17 19  1  0
 18 20  1  0
 19 21  2  0
 19 22  1  0
 20 21  1  0
 21 23  1  0
 22 24  2  0
 23 25  2  0
 24 25  1  0
 26 27  1  0
 27 28  1  0
 27 30  1  1
 28 29  2  0
 28 40  1  0
 30 31  1  0
 31 32  2  0
 31 33  1  0
 32 34  1  0
 33 35  2  0
 33 36  1  0
 34 35  1  0
 35 37  1  0
 36 38  2  0
 37 39  2  0
 38 39  1  0
 40 41  1  0
 40 46  1  0
 41 42  1  1
 41 44  1  0
 42 43  2  0
 42 47  1  0
 44 45  1  0
 45 46  1  0
 47 48  1  0
 48 49  1  0
 48 51  1  6
 49 50  1  0
 49 55  2  0
 51 52  1  0
 52 53  1  0
 52 54  2  0
M  CHG  2  50  -1  53  -1
M  END
$$$$
