
     RDKit          3D

 55 59  0  0  0  0  0  0  0  0999 V2000
   -4.3442    6.5180   -5.2730 C   0  0  0  0  0  0  0  0  0  0  0  0
   -5.1824    7.4379   -5.5578 O   0  0  0  0  0  0  0  0  0  0  0  0
   -3.2696    6.2488   -6.2588 C   0  0  0  0  0  0  0  0  0  0  0  0
   -4.4383    5.7845   -4.0661 N   0  0  0  0  0  0  0  0  0  0  0  0
   -5.6551    5.9217   -3.2796 C   0  0  2  0  0  0  0  0  0  0  0  0
   -5.4613    6.9657   -2.2513 C   0  0  0  0  0  0  0  0  0  0  0  0
   -4.4641    6.9507   -1.4610 O   0  0  0  0  0  0  0  0  0  0  0  0
   -6.0758    4.6518   -2.6454 C   0  0  0  0  0  0  0  0  0  0  0  0
   -6.2491    3.4714   -3.5455 C   0  0  1  0  0  0  0  0  0  0  0  0
   -5.9617    2.1495   -2.8867 C   0  0  0  0  0  0  0  0  0  0  0  0
   -7.7383    3.4309   -3.9480 C   0  0  0  0  0  0  0  0  0  0  0  0
   -6.3806    8.0565   -2.0921 N   0  0  0  0  0  0  0  0  0  0  0  0
   -6.9076    8.3440   -0.7729 C   0  0  2  0  0  0  0  0  0  0  0  0
   -5.9519    8.0626    0.2786 C   0  0  0  0  0  0  0  0  0  0  0  0
   -5.5463    6.8831    0.5379 O   0  0  0  0  0  0  0  0  0  0  0  0
   -8.0916    7.3762   -0.4998 C   0  0  0  0  0  0  0  0  0  0  0  0
   -9.3553    7.9810   -0.9021 C   0  0  0  0  0  0  0  0  0  0  0  0
  -10.3162    7.4541   -1.7127 C   0  0  0  0  0  0  0  0  0  0  0  0
   -9.8149    9.2405   -0.5324 C   0  0  0  0  0  0  0  0  0  0  0  0
  -11.3199    8.3551   -1.8307 N   0  0  0  0  0  0  0  0  0  0  0  0
  -11.0398    9.4549   -1.1207 C   0  0  0  0  0  0  0  0  0  0  0  0
   -9.3049   10.2496    0.2649 C   0  0  0  0  0  0  0  0  0  0  0  0
  -11.7558   10.6262   -0.9389 C   0  0  0  0  0  0  0  0  0  0  0  0
  -10.0184   11.4342    0.4551 C   0  0  0  0  0  0  0  0  0  0  0  0
  -11.2334   11.6204   -0.1416 C   0  0  0  0  0  0  0  0  0  0  0  0
   -5.4022    9.0966    1.0869 N   0  0  0  0  0  0  0  0  0  0  0  0
   -4.5753    8.8211    2.2444 C   0  0  2  0  0  0  0  0  0  0  0  0
   -5.0261    7.7306    3.0460 C   0  0  0  0  0  0  0  0  0  0  0  0
   -6.3090    7.4548    2.9371 O   0  0  0  0  0  0  0  0  0  0  0  0
   -4.2264   10.1402    2.8236 C   0  0  0  0  0  0  0  0  0  0  0  0
   -3.1690   10.2000    3.8367 C   0  0  0  0  0  0  0  0  0  0  0  0
   -3.2821   10.2565    5.2192 C   0  0  0  0  0  0  0  0  0  0  0  0
   -1.7924   10.2267    3.5871 C   0  0  0  0  0  0  0  0  0  0  0  0
   -2.0443   10.3133    5.7590 N   0  0  0  0  0  0  0  0  0  0  0  0
   -1.1229   10.2959    4.7918 C   0  0  0  0  0  0  0  0  0  0  0  0
   -1.1085   10.1756    2.4246 C   0  0  0  0  0  0  0  0  0  0  0  0
    0.2697   10.3142    4.8145 C   0  0  0  0  0  0  0  0  0  0  0  0
    0.2939   10.1905    2.3781 C   0  0  0  0  0  0  0  0  0  0  0  0
    0.9035   10.2608    3.6115 C   0  0  0  0  0  0  0  0  0  0  0  0
   -4.3697    6.8836    3.9536 N   0  0  0  0  0  0  0  0  0  0  0  0
   -5.1076    5.7675    4.6693 C   0  0  2  0  0  0  0  0  0  0  0  0
   -5.3435    6.2021    6.0456 C   0  0  0  0  0  0  0  0  0  0  0  0
   -4.6020    7.1004    6.5476 O   0  0  0  0  0  0  0  0  0  0  0  0
   -4.1131    4.6641    4.5491 C   0  0  0  0  0  0  0  0  0  0  0  0
   -2.8343    5.3752    4.9130 C   0  0  0  0  0  0  0  0  0  0  0  0
   -3.0154    6.7835    4.3993 C   0  0  0  0  0  0  0  0  0  0  0  0
   -6.3627    5.6687    6.8488 N   0  0  0  0  0  0  0  0  0  0  0  0
   -6.7873    6.3099    8.0843 C   0  0  2  0  0  0  0  0  0  0  0  0
   -5.8527    5.8474    9.1394 C   0  0  0  0  0  0  0  0  0  0  0  0
   -5.5521    4.4897    9.3302 O   0  0  0  0  0  1  0  0  0  0  0  0
   -8.1860    6.0426    8.5035 C   0  0  0  0  0  0  0  0  0  0  0  0
   -8.6557    6.9967    9.5110 C   0  0  0  0  0  0  0  0  0  0  0  0
   -8.5317    8.3802    9.3611 O   0  0  0  0  0  1  0  0  0  0  0  0
   -9.2153    6.6346   10.6067 O   0  0  0  0  0  0  0  0  0  0  0  0
   -5.2658    6.6511    9.9365 O   0  0  0  0  0  0  0  0  0  0  0  0
  1  2  2  0
  1  3  1  0
  1  4  1  0
  4  5  1  0
  5  6  1  0
  5  8  1  1
  6  7  2  0
  6 12  1  0
  8  9  1  0
  9 10  1  1
  9 11  1  0
 12 13  1  0
 13 14  1  0
 13 16  1  1
 14 15  2  0
 14 26  1  0
 16 17  1  0
 17 18  2  0
 17 19  1  0
 18 20  1  0
 19 21  2  0
 19 22  1  0
 20 21  1  0
 21 23  1  0
 22 24  2  0
 23 25  2  0
 24 25  1  0
 26 27  1  0
 27 28  1  0
 27 30  1  1
 28 29  2  0
 28 40  1  0
 30 31  1  0
 31 32  2  0
 31 33  1  0
 32 34  1  0
 33 35  2  0
 33 36  1  0
 34 35  1  0
 35 37  1  0
 36 38  2  0
 37 39  2  0
 38 39  1  0
 40 41  1  0
 40 46  1  0
 41 42  1  1
 41 44  1  0
 42 43  2  0
 42 47  1  0
 44 45  1  0
 45 46  1  0
 47 48  1  0
 48 49  1  0
 48 51  1  1
 49 50  1  0
 49 55  2  0
 51 52  1  0
 52 53  1  0
 52 54  2  0
M  CHG  2  50  -1  53  -1
M  END
$$$$
