
     RDKit          3D

 55 59  0  0  0  0  0  0  0  0999 V2000
   -5.9815   10.7014   -2.0795 C   0  0  0  0  0  0  0  0  0  0  0  0
   -6.8756    9.7906   -2.0553 O   0  0  0  0  0  0  0  0  0  0  0  0
   -6.4457   12.1077   -2.1587 C   0  0  0  0  0  0  0  0  0  0  0  0
   -4.6034   10.3814   -2.0341 N   0  0  0  0  0  0  0  0  0  0  0  0
   -4.2330    8.9751   -1.9783 C   0  0  2  0  0  0  0  0  0  0  0  0
   -4.2385    8.5202   -0.5719 C   0  0  0  0  0  0  0  0  0  0  0  0
   -4.0682    7.2977   -0.2626 O   0  0  0  0  0  0  0  0  0  0  0  0
   -2.9166    8.7024   -2.5983 C   0  0  0  0  0  0  0  0  0  0  0  0
   -2.7385    9.1251   -4.0207 C   0  0  1  0  0  0  0  0  0  0  0  0
   -1.3843    8.8032   -4.5920 C   0  0  0  0  0  0  0  0  0  0  0  0
   -3.7550    8.3198   -4.8571 C   0  0  0  0  0  0  0  0  0  0  0  0
   -4.4279    9.4308    0.5214 N   0  0  0  0  0  0  0  0  0  0  0  0
   -4.4224    8.9135    1.8753 C   0  0  2  0  0  0  0  0  0  0  0  0
   -5.7572    8.7767    2.4212 C   0  0  0  0  0  0  0  0  0  0  0  0
   -6.4091    9.7645    2.8925 O   0  0  0  0  0  0  0  0  0  0  0  0
   -3.7258    9.9561    2.7921 C   0  0  0  0  0  0  0  0  0  0  0  0
   -2.2790    9.9072    2.6222 C   0  0  0  0  0  0  0  0  0  0  0  0
   -1.4024    9.0095    3.1548 C   0  0  0  0  0  0  0  0  0  0  0  0
   -1.5112   10.7963    1.8778 C   0  0  0  0  0  0  0  0  0  0  0  0
   -0.1527    9.3377    2.7504 N   0  0  0  0  0  0  0  0  0  0  0  0
   -0.1898   10.4249    1.9700 C   0  0  0  0  0  0  0  0  0  0  0  0
   -1.8089   11.9090    1.1115 C   0  0  0  0  0  0  0  0  0  0  0  0
    0.8230   11.1202    1.3311 C   0  0  0  0  0  0  0  0  0  0  0  0
   -0.7957   12.6171    0.4629 C   0  0  0  0  0  0  0  0  0  0  0  0
    0.5089   12.2255    0.5718 C   0  0  0  0  0  0  0  0  0  0  0  0
   -6.4256    7.5210    2.4586 N   0  0  0  0  0  0  0  0  0  0  0  0
   -7.7118    7.3446    3.1019 C   0  0  2  0  0  0  0  0  0  0  0  0
   -7.6424    7.1224    4.5094 C   0  0  0  0  0  0  0  0  0  0  0  0
   -6.4244    6.9850    4.9903 O   0  0  0  0  0  0  0  0  0  0  0  0
   -8.5067    6.4772    2.2002 C   0  0  0  0  0  0  0  0  0  0  0  0
   -9.9210    6.2549    2.5137 C   0  0  0  0  0  0  0  0  0  0  0  0
  -10.4998    5.2680    3.3002 C   0  0  0  0  0  0  0  0  0  0  0  0
  -10.9960    7.0196    2.0472 C   0  0  0  0  0  0  0  0  0  0  0  0
  -11.8408    5.4373    3.3006 N   0  0  0  0  0  0  0  0  0  0  0  0
  -12.1683    6.4924    2.5495 C   0  0  0  0  0  0  0  0  0  0  0  0
  -11.0192    8.1161    1.2605 C   0  0  0  0  0  0  0  0  0  0  0  0
  -13.3882    7.0919    2.2449 C   0  0  0  0  0  0  0  0  0  0  0  0
  -12.2136    8.7671    0.9160 C   0  0  0  0  0  0  0  0  0  0  0  0
  -13.3480    8.1936    1.4473 C   0  0  0  0  0  0  0  0  0  0  0  0
   -8.6284    7.0065    5.5026 N   0  0  0  0  0  0  0  0  0  0  0  0
   -8.2651    6.9495    6.9747 C   0  0  2  0  0  0  0  0  0  0  0  0
   -8.3981    5.5602    7.4116 C   0  0  0  0  0  0  0  0  0  0  0  0
   -8.3632    5.2942    8.6512 O   0  0  0  0  0  0  0  0  0  0  0  0
   -9.2978    7.8606    7.5444 C   0  0  0  0  0  0  0  0  0  0  0  0
  -10.5383    7.3886    6.8291 C   0  0  0  0  0  0  0  0  0  0  0  0
  -10.0562    6.9515    5.4665 C   0  0  0  0  0  0  0  0  0  0  0  0
   -8.5652    4.4929    6.5164 N   0  0  0  0  0  0  0  0  0  0  0  0
   -8.0893    3.1509    6.8177 C   0  0  2  0  0  0  0  0  0  0  0  0
   -9.2698    2.2572    6.7268 C   0  0  0  0  0  0  0  0  0  0  0  0
  -10.5794    2.7541    6.6345 O   0  0  0  0  0  1  0  0  0  0  0  0
   -7.4333    2.9793    8.1382 C   0  0  0  0  0  0  0  0  0  0  0  0
   -8.3947    3.0025    9.2432 C   0  0  0  0  0  0  0  0  0  0  0  0
   -9.5220    3.8277    9.2502 O   0  0  0  0  0  1  0  0  0  0  0  0
   -8.2742    2.2680   10.2877 O   0  0  0  0  0  0  0  0  0  0  0  0
   -9.1697    0.9861    6.7266 O   0  0  0  0  0  0  0  0  0  0  0  0
  1  2  2  0
  1  3  1  0
  1  4  1  0
  4  5  1  0
  5  6  1  0
  5  8  1  1
  6  7  2  0
  6 12  1  0
  8  9  1  0
  9 10  1  6
  9 11  1  0
 12 13  1  0
 13 14  1  0
 13 16  1  1
 14 15  2  0
 14 26  1  0
 16 17  1  0
 17 18  2  0
 17 19  1  0
 18 20  1  0
 19 21  2  0
 19 22  1  0
 20 21  1  0
 21 23  1  0
 22 24  2  0
 23 25  2  0
 24 25  1  0
 26 27  1  0
 27 28  1  0
 27 30  1  6
 28 29  2  0
 28 40  1  0
 30 31  1  0
 31 32  2  0
 31 33  1  0
 32 34  1  0
 33 35  2  0
 33 36  1  0
 34 35  1  0
 35 37  1  0
 36 38  2  0
 37 39  2  0
 38 39  1  0
 40 41  1  0
 40 46  1  0
 41 42  1  1
 41 44  1  0
 42 43  2  0
 42 47  1  0
 44 45  1  0
 45 46  1  0
 47 48  1  0
 48 49  1  0
 48 51  1  1
 49 50  1  0
 49 55  2  0
 51 52  1  0
 52 53  1  0
 52 54  2  0
M  CHG  2  50  -1  53  -1
M  END
$$$$
