
     RDKit          3D

 55 59  0  0  0  0  0  0  0  0999 V2000
   -2.8158    7.2081   -2.7461 C   0  0  0  0  0  0  0  0  0  0  0  0
   -1.8749    6.4668   -2.3048 O   0  0  0  0  0  0  0  0  0  0  0  0
   -3.5071    6.7658   -3.9813 C   0  0  0  0  0  0  0  0  0  0  0  0
   -3.1828    8.4040   -2.0838 N   0  0  0  0  0  0  0  0  0  0  0  0
   -2.4455    8.7712   -0.8840 C   0  0  2  0  0  0  0  0  0  0  0  0
   -2.7205    7.7861    0.1833 C   0  0  0  0  0  0  0  0  0  0  0  0
   -2.3178    6.5817    0.1033 O   0  0  0  0  0  0  0  0  0  0  0  0
   -2.7610   10.1381   -0.4111 C   0  0  0  0  0  0  0  0  0  0  0  0
   -2.4393   11.2653   -1.3383 C   0  0  1  0  0  0  0  0  0  0  0  0
   -3.1491   12.5511   -1.0112 C   0  0  0  0  0  0  0  0  0  0  0  0
   -0.9327   11.5591   -1.1792 C   0  0  0  0  0  0  0  0  0  0  0  0
   -3.4486    8.1342    1.3704 N   0  0  0  0  0  0  0  0  0  0  0  0
   -3.7276    7.1036    2.3506 C   0  0  2  0  0  0  0  0  0  0  0  0
   -5.1377    7.0091    2.6686 C   0  0  0  0  0  0  0  0  0  0  0  0
   -5.9383    7.9904    2.5306 O   0  0  0  0  0  0  0  0  0  0  0  0
   -3.0475    7.5065    3.6878 C   0  0  0  0  0  0  0  0  0  0  0  0
   -1.6506    7.8611    3.4695 C   0  0  0  0  0  0  0  0  0  0  0  0
   -0.5728    7.0284    3.4164 C   0  0  0  0  0  0  0  0  0  0  0  0
   -1.1513    9.1457    3.2835 C   0  0  0  0  0  0  0  0  0  0  0  0
    0.5368    7.7750    3.2056 N   0  0  0  0  0  0  0  0  0  0  0  0
    0.2128    9.0711    3.1209 C   0  0  0  0  0  0  0  0  0  0  0  0
   -1.7319   10.4005    3.2330 C   0  0  0  0  0  0  0  0  0  0  0  0
    0.9981   10.1927    2.9135 C   0  0  0  0  0  0  0  0  0  0  0  0
   -0.9496   11.5376    3.0241 C   0  0  0  0  0  0  0  0  0  0  0  0
    0.4036   11.4342    2.8656 C   0  0  0  0  0  0  0  0  0  0  0  0
   -5.7165    5.8029    3.1533 N   0  0  0  0  0  0  0  0  0  0  0  0
   -7.1309    5.6820    3.4437 C   0  0  2  0  0  0  0  0  0  0  0  0
   -7.5428    6.3230    4.6497 C   0  0  0  0  0  0  0  0  0  0  0  0
   -6.5629    6.8084    5.3831 O   0  0  0  0  0  0  0  0  0  0  0  0
   -7.4977    4.2818    3.1245 C   0  0  0  0  0  0  0  0  0  0  0  0
   -7.8904    3.3953    4.2235 C   0  0  0  0  0  0  0  0  0  0  0  0
   -7.6937    3.5521    5.5889 C   0  0  0  0  0  0  0  0  0  0  0  0
   -8.5511    2.1687    4.0938 C   0  0  0  0  0  0  0  0  0  0  0  0
   -8.2081    2.4805    6.2324 N   0  0  0  0  0  0  0  0  0  0  0  0
   -8.7347    1.6270    5.3498 C   0  0  0  0  0  0  0  0  0  0  0  0
   -9.0050    1.5261    2.9971 C   0  0  0  0  0  0  0  0  0  0  0  0
   -9.3922    0.4075    5.4929 C   0  0  0  0  0  0  0  0  0  0  0  0
   -9.6750    0.2954    3.0723 C   0  0  0  0  0  0  0  0  0  0  0  0
   -9.8266   -0.1928    4.3515 C   0  0  0  0  0  0  0  0  0  0  0  0
   -8.8039    6.5349    5.2301 N   0  0  0  0  0  0  0  0  0  0  0  0
   -8.9587    7.3144    6.5227 C   0  0  2  0  0  0  0  0  0  0  0  0
   -9.2024    6.3512    7.5958 C   0  0  0  0  0  0  0  0  0  0  0  0
   -9.4001    6.7740    8.7751 O   0  0  0  0  0  0  0  0  0  0  0  0
  -10.1421    8.1574    6.1910 C   0  0  0  0  0  0  0  0  0  0  0  0
  -11.0575    7.1458    5.5489 C   0  0  0  0  0  0  0  0  0  0  0  0
  -10.1339    6.1812    4.8442 C   0  0  0  0  0  0  0  0  0  0  0  0
   -9.2294    4.9647    7.3832 N   0  0  0  0  0  0  0  0  0  0  0  0
   -9.0460    4.0134    8.4693 C   0  0  2  0  0  0  0  0  0  0  0  0
   -8.8100    4.8161    9.6943 C   0  0  0  0  0  0  0  0  0  0  0  0
   -9.8299    5.5570   10.3117 O   0  0  0  0  0  1  0  0  0  0  0  0
   -7.9433    3.0356    8.2926 C   0  0  0  0  0  0  0  0  0  0  0  0
   -6.7645    3.6357    7.6631 C   0  0  0  0  0  0  0  0  0  0  0  0
   -6.6911    4.9897    7.3268 O   0  0  0  0  0  1  0  0  0  0  0  0
   -5.7114    2.9638    7.3723 O   0  0  0  0  0  0  0  0  0  0  0  0
   -7.6701    4.8833   10.2616 O   0  0  0  0  0  0  0  0  0  0  0  0
  1  2  2  0
  1  3  1  0
  1  4  1  0
  4  5  1  0
  5  6  1  0
  5  8  1  1
  6  7  2  0
  6 12  1  0
  8  9  1  0
  9 10  1  1
  9 11  1  0
 12 13  1  0
 13 14  1  0
 13 16  1  1
 14 15  2  0
 14 26  1  0
 16 17  1  0
 17 18  2  0
 17 19  1  0
 18 20  1  0
 19 21  2  0
 19 22  1  0
 20 21  1  0
 21 23  1  0
 22 24  2  0
 23 25  2  0
 24 25  1  0
 26 27  1  0
 27 28  1  0
 27 30  1  1
 28 29  2  0
 28 40  1  0
 30 31  1  0
 31 32  2  0
 31 33  1  0
 32 34  1  0
 33 35  2  0
 33 36  1  0
 34 35  1  0
 35 37  1  0
 36 38  2  0
 37 39  2  0
 38 39  1  0
 40 41  1  0
 40 46  1  0
 41 42  1  1
 41 44  1  0
 42 43  2  0
 42 47  1  0
 44 45  1  0
 45 46  1  0
 47 48  1  0
 48 49  1  0
 48 51  1  6
 49 50  1  0
 49 55  2  0
 51 52  1  0
 52 53  1  0
 52 54  2  0
M  CHG  2  50  -1  53  -1
M  END
$$$$
