
     RDKit          3D

 55 59  0  0  0  0  0  0  0  0999 V2000
   -0.9077    6.0607    0.7005 C   0  0  0  0  0  0  0  0  0  0  0  0
   -1.3753    5.2302    1.5498 O   0  0  0  0  0  0  0  0  0  0  0  0
   -0.7486    5.5875   -0.6960 C   0  0  0  0  0  0  0  0  0  0  0  0
   -0.5544    7.3785    1.0772 N   0  0  0  0  0  0  0  0  0  0  0  0
   -0.8530    7.8005    2.4376 C   0  0  2  0  0  0  0  0  0  0  0  0
   -2.1946    8.4197    2.4775 C   0  0  0  0  0  0  0  0  0  0  0  0
   -2.6091    9.0551    3.4991 O   0  0  0  0  0  0  0  0  0  0  0  0
    0.1571    8.7343    2.9846 C   0  0  0  0  0  0  0  0  0  0  0  0
    1.5027    8.7318    2.3340 C   0  0  1  0  0  0  0  0  0  0  0  0
    1.8792   10.0420    1.6971 C   0  0  0  0  0  0  0  0  0  0  0  0
    2.5391    8.4889    3.4513 C   0  0  0  0  0  0  0  0  0  0  0  0
   -3.0998    8.3460    1.3659 N   0  0  0  0  0  0  0  0  0  0  0  0
   -4.4043    8.9672    1.4800 C   0  0  2  0  0  0  0  0  0  0  0  0
   -5.4043    8.0622    2.0086 C   0  0  0  0  0  0  0  0  0  0  0  0
   -5.4902    6.8457    1.6404 O   0  0  0  0  0  0  0  0  0  0  0  0
   -4.9039    9.3168    0.0513 C   0  0  0  0  0  0  0  0  0  0  0  0
   -4.4131   10.6260   -0.3606 C   0  0  0  0  0  0  0  0  0  0  0  0
   -5.1239   11.7799   -0.5063 C   0  0  0  0  0  0  0  0  0  0  0  0
   -3.1012   10.9394   -0.6996 C   0  0  0  0  0  0  0  0  0  0  0  0
   -4.2795   12.7557   -0.9158 N   0  0  0  0  0  0  0  0  0  0  0  0
   -3.0384   12.2702   -1.0423 C   0  0  0  0  0  0  0  0  0  0  0  0
   -1.9258   10.2114   -0.7510 C   0  0  0  0  0  0  0  0  0  0  0  0
   -1.8577   12.8826   -1.4278 C   0  0  0  0  0  0  0  0  0  0  0  0
   -0.7300   10.8189   -1.1379 C   0  0  0  0  0  0  0  0  0  0  0  0
   -0.6966   12.1431   -1.4730 C   0  0  0  0  0  0  0  0  0  0  0  0
   -6.3539    8.4817    2.9817 N   0  0  0  0  0  0  0  0  0  0  0  0
   -7.5040    7.6774    3.3419 C   0  0  2  0  0  0  0  0  0  0  0  0
   -8.4835    7.5534    2.3122 C   0  0  0  0  0  0  0  0  0  0  0  0
   -8.5296    8.5608    1.4656 O   0  0  0  0  0  0  0  0  0  0  0  0
   -7.8562    8.0621    4.7294 C   0  0  0  0  0  0  0  0  0  0  0  0
   -8.7631    7.1938    5.4855 C   0  0  0  0  0  0  0  0  0  0  0  0
   -8.5396    5.9193    5.9888 C   0  0  0  0  0  0  0  0  0  0  0  0
  -10.0820    7.4953    5.8426 C   0  0  0  0  0  0  0  0  0  0  0  0
   -9.6610    5.4894    6.6089 N   0  0  0  0  0  0  0  0  0  0  0  0
  -10.6111    6.4257    6.5357 C   0  0  0  0  0  0  0  0  0  0  0  0
  -10.8183    8.6065    5.6303 C   0  0  0  0  0  0  0  0  0  0  0  0
  -11.9150    6.4872    7.0217 C   0  0  0  0  0  0  0  0  0  0  0  0
  -12.1371    8.7322    6.0930 C   0  0  0  0  0  0  0  0  0  0  0  0
  -12.6077    7.6324    6.7763 C   0  0  0  0  0  0  0  0  0  0  0  0
   -9.4343    6.5621    2.0198 N   0  0  0  0  0  0  0  0  0  0  0  0
  -10.3296    6.6607    0.7988 C   0  0  2  0  0  0  0  0  0  0  0  0
  -11.6583    7.0682    1.2540 C   0  0  0  0  0  0  0  0  0  0  0  0
  -11.9661    6.9243    2.4759 O   0  0  0  0  0  0  0  0  0  0  0  0
  -10.2682    5.2565    0.3032 C   0  0  0  0  0  0  0  0  0  0  0  0
  -10.4500    4.4809    1.5835 C   0  0  0  0  0  0  0  0  0  0  0  0
   -9.7878    5.3263    2.6449 C   0  0  0  0  0  0  0  0  0  0  0  0
  -12.6220    7.6183    0.3955 N   0  0  0  0  0  0  0  0  0  0  0  0
  -13.8549    8.2082    0.8958 C   0  0  2  0  0  0  0  0  0  0  0  0
  -14.8994    7.1618    0.7755 C   0  0  0  0  0  0  0  0  0  0  0  0
  -14.6126    5.8676    0.3138 O   0  0  0  0  0  1  0  0  0  0  0  0
  -14.3049    9.4447    0.2088 C   0  0  0  0  0  0  0  0  0  0  0  0
  -14.2213    9.3316   -1.2494 C   0  0  0  0  0  0  0  0  0  0  0  0
  -13.0089    9.3519   -1.9432 O   0  0  0  0  0  1  0  0  0  0  0  0
  -15.2543    9.2062   -1.9992 O   0  0  0  0  0  0  0  0  0  0  0  0
  -16.1190    7.3711    1.0829 O   0  0  0  0  0  0  0  0  0  0  0  0
  1  2  2  0
  1  3  1  0
  1  4  1  0
  4  5  1  0
  5  6  1  0
  5  8  1  6
  6  7  2  0
  6 12  1  0
  8  9  1  0
  9 10  1  1
  9 11  1  0
 12 13  1  0
 13 14  1  0
 13 16  1  6
 14 15  2  0
 14 26  1  0
 16 17  1  0
 17 18  2  0
 17 19  1  0
 18 20  1  0
 19 21  2  0
 19 22  1  0
 20 21  1  0
 21 23  1  0
 22 24  2  0
 23 25  2  0
 24 25  1  0
 26 27  1  0
 27 28  1  0
 27 30  1  1
 28 29  2  0
 28 40  1  0
 30 31  1  0
 31 32  2  0
 31 33  1  0
 32 34  1  0
 33 35  2  0
 33 36  1  0
 34 35  1  0
 35 37  1  0
 36 38  2  0
 37 39  2  0
 38 39  1  0
 40 41  1  0
 40 46  1  0
 41 42  1  1
 41 44  1  0
 42 43  2  0
 42 47  1  0
 44 45  1  0
 45 46  1  0
 47 48  1  0
 48 49  1  0
 48 51  1  6
 49 50  1  0
 49 55  2  0
 51 52  1  0
 52 53  1  0
 52 54  2  0
M  CHG  2  50  -1  53  -1
M  END
$$$$
