
     RDKit          3D

 55 59  0  0  0  0  0  0  0  0999 V2000
   -4.2816   10.4604   -2.4530 C   0  0  0  0  0  0  0  0  0  0  0  0
   -3.1482   11.0335   -2.3244 O   0  0  0  0  0  0  0  0  0  0  0  0
   -4.8030   10.2869   -3.8305 C   0  0  0  0  0  0  0  0  0  0  0  0
   -5.0110   10.0106   -1.3265 N   0  0  0  0  0  0  0  0  0  0  0  0
   -5.3013   10.9739   -0.2750 C   0  0  2  0  0  0  0  0  0  0  0  0
   -6.0392   10.3037    0.8164 C   0  0  0  0  0  0  0  0  0  0  0  0
   -6.2379   10.8710    1.9379 O   0  0  0  0  0  0  0  0  0  0  0  0
   -6.0639   12.1453   -0.7630 C   0  0  0  0  0  0  0  0  0  0  0  0
   -5.2699   13.3049   -1.2715 C   0  0  1  0  0  0  0  0  0  0  0  0
   -5.9697   14.6309   -1.1450 C   0  0  0  0  0  0  0  0  0  0  0  0
   -4.0081   13.4043   -0.3887 C   0  0  0  0  0  0  0  0  0  0  0  0
   -6.5785    8.9815    0.6700 N   0  0  0  0  0  0  0  0  0  0  0  0
   -6.4861    8.0580    1.7834 C   0  0  2  0  0  0  0  0  0  0  0  0
   -5.2948    7.2361    1.7236 C   0  0  0  0  0  0  0  0  0  0  0  0
   -4.3680    7.4340    0.8723 O   0  0  0  0  0  0  0  0  0  0  0  0
   -7.6653    7.0522    1.6809 C   0  0  0  0  0  0  0  0  0  0  0  0
   -8.7754    7.6331    0.9360 C   0  0  0  0  0  0  0  0  0  0  0  0
   -9.9962    7.0813    0.6849 C   0  0  0  0  0  0  0  0  0  0  0  0
   -8.7857    8.8807    0.3216 C   0  0  0  0  0  0  0  0  0  0  0  0
  -10.7203    7.9572   -0.0510 N   0  0  0  0  0  0  0  0  0  0  0  0
  -10.0054    9.0641   -0.2876 C   0  0  0  0  0  0  0  0  0  0  0  0
   -7.8605    9.9041    0.2175 C   0  0  0  0  0  0  0  0  0  0  0  0
  -10.3210   10.2183   -0.9846 C   0  0  0  0  0  0  0  0  0  0  0  0
   -8.1683   11.0719   -0.4825 C   0  0  0  0  0  0  0  0  0  0  0  0
   -9.3883   11.2274   -1.0780 C   0  0  0  0  0  0  0  0  0  0  0  0
   -5.0865    6.1534    2.6232 N   0  0  0  0  0  0  0  0  0  0  0  0
   -4.8812    6.3523    4.0437 C   0  0  2  0  0  0  0  0  0  0  0  0
   -5.8780    5.7579    4.8732 C   0  0  0  0  0  0  0  0  0  0  0  0
   -7.0948    6.2320    4.7054 O   0  0  0  0  0  0  0  0  0  0  0  0
   -4.4540    7.7627    4.2036 C   0  0  0  0  0  0  0  0  0  0  0  0
   -3.0569    8.0333    4.5538 C   0  0  0  0  0  0  0  0  0  0  0  0
   -2.3447    7.6446    5.6804 C   0  0  0  0  0  0  0  0  0  0  0  0
   -2.1481    8.7768    3.7926 C   0  0  0  0  0  0  0  0  0  0  0  0
   -1.0860    8.1292    5.5928 N   0  0  0  0  0  0  0  0  0  0  0  0
   -0.9397    8.8186    4.4579 C   0  0  0  0  0  0  0  0  0  0  0  0
   -2.2917    9.3795    2.5935 C   0  0  0  0  0  0  0  0  0  0  0  0
    0.1436    9.4873    3.8927 C   0  0  0  0  0  0  0  0  0  0  0  0
   -1.2407   10.0691    1.9699 C   0  0  0  0  0  0  0  0  0  0  0  0
   -0.0620   10.0755    2.6831 C   0  0  0  0  0  0  0  0  0  0  0  0
   -5.8217    4.7596    5.8592 N   0  0  0  0  0  0  0  0  0  0  0  0
   -6.9284    3.7323    6.0086 C   0  0  2  0  0  0  0  0  0  0  0  0
   -7.7301    4.1091    7.1722 C   0  0  0  0  0  0  0  0  0  0  0  0
   -8.8911    3.6177    7.3104 O   0  0  0  0  0  0  0  0  0  0  0  0
   -6.1238    2.4938    6.2081 C   0  0  0  0  0  0  0  0  0  0  0  0
   -5.0930    2.9656    7.2024 C   0  0  0  0  0  0  0  0  0  0  0  0
   -4.8539    4.4150    6.8530 C   0  0  0  0  0  0  0  0  0  0  0  0
   -7.2730    4.9981    8.1566 N   0  0  0  0  0  0  0  0  0  0  0  0
   -8.1864    5.7101    9.0380 C   0  0  2  0  0  0  0  0  0  0  0  0
   -9.0148    6.5809    8.1685 C   0  0  0  0  0  0  0  0  0  0  0  0
  -10.0106    7.4245    8.6852 O   0  0  0  0  0  1  0  0  0  0  0  0
   -7.5519    6.5263   10.1033 C   0  0  0  0  0  0  0  0  0  0  0  0
   -6.0986    6.6156    9.9430 C   0  0  0  0  0  0  0  0  0  0  0  0
   -5.2888    7.3837   10.7833 O   0  0  0  0  0  1  0  0  0  0  0  0
   -5.4597    5.9964    9.0192 O   0  0  0  0  0  0  0  0  0  0  0  0
   -8.8749    6.6179    6.9017 O   0  0  0  0  0  0  0  0  0  0  0  0
  1  2  2  0
  1  3  1  0
  1  4  1  0
  4  5  1  0
  5  6  1  0
  5  8  1  6
  6  7  2  0
  6 12  1  0
  8  9  1  0
  9 10  1  1
  9 11  1  0
 12 13  1  0
 13 14  1  0
 13 16  1  6
 14 15  2  0
 14 26  1  0
 16 17  1  0
 17 18  2  0
 17 19  1  0
 18 20  1  0
 19 21  2  0
 19 22  1  0
 20 21  1  0
 21 23  1  0
 22 24  2  0
 23 25  2  0
 24 25  1  0
 26 27  1  0
 27 28  1  0
 27 30  1  6
 28 29  2  0
 28 40  1  0
 30 31  1  0
 31 32  2  0
 31 33  1  0
 32 34  1  0
 33 35  2  0
 33 36  1  0
 34 35  1  0
 35 37  1  0
 36 38  2  0
 37 39  2  0
 38 39  1  0
 40 41  1  0
 40 46  1  0
 41 42  1  1
 41 44  1  0
 42 43  2  0
 42 47  1  0
 44 45  1  0
 45 46  1  0
 47 48  1  0
 48 49  1  0
 48 51  1  1
 49 50  1  0
 49 55  2  0
 51 52  1  0
 52 53  1  0
 52 54  2  0
M  CHG  2  50  -1  53  -1
M  END
$$$$
