
     RDKit          3D

 55 59  0  0  0  0  0  0  0  0999 V2000
   -3.5087    8.2317    0.4824 C   0  0  0  0  0  0  0  0  0  0  0  0
   -3.4618    8.1117    1.7525 O   0  0  0  0  0  0  0  0  0  0  0  0
   -2.9750    7.1092   -0.3265 C   0  0  0  0  0  0  0  0  0  0  0  0
   -4.0469    9.3898   -0.1281 N   0  0  0  0  0  0  0  0  0  0  0  0
   -4.5313   10.4534    0.7390 C   0  0  2  0  0  0  0  0  0  0  0  0
   -5.8596   10.0861    1.2734 C   0  0  0  0  0  0  0  0  0  0  0  0
   -6.3907   10.7187    2.2414 O   0  0  0  0  0  0  0  0  0  0  0  0
   -4.6004   11.7652    0.0562 C   0  0  0  0  0  0  0  0  0  0  0  0
   -3.3349   12.2788   -0.5509 C   0  0  1  0  0  0  0  0  0  0  0  0
   -3.5203   13.4905   -1.4236 C   0  0  0  0  0  0  0  0  0  0  0  0
   -2.4302   12.7293    0.6152 C   0  0  0  0  0  0  0  0  0  0  0  0
   -6.6265    9.0028    0.7267 N   0  0  0  0  0  0  0  0  0  0  0  0
   -7.9687    8.7721    1.2226 C   0  0  2  0  0  0  0  0  0  0  0  0
   -8.0168    7.7270    2.2245 C   0  0  0  0  0  0  0  0  0  0  0  0
   -9.0133    7.5689    3.0022 O   0  0  0  0  0  0  0  0  0  0  0  0
   -8.8354    8.2355    0.0505 C   0  0  0  0  0  0  0  0  0  0  0  0
   -9.5977    9.3155   -0.5636 C   0  0  0  0  0  0  0  0  0  0  0  0
  -10.6957    9.9533   -0.0682 C   0  0  0  0  0  0  0  0  0  0  0  0
   -9.3439    9.8962   -1.8015 C   0  0  0  0  0  0  0  0  0  0  0  0
  -11.0932   10.8848   -0.9668 N   0  0  0  0  0  0  0  0  0  0  0  0
  -10.2859   10.8713   -2.0346 C   0  0  0  0  0  0  0  0  0  0  0  0
   -8.3836    9.6911   -2.7762 C   0  0  0  0  0  0  0  0  0  0  0  0
  -10.2959   11.6324   -3.1914 C   0  0  0  0  0  0  0  0  0  0  0  0
   -8.3843   10.4530   -3.9460 C   0  0  0  0  0  0  0  0  0  0  0  0
   -9.3323   11.4154   -4.1513 C   0  0  0  0  0  0  0  0  0  0  0  0
   -6.9465    6.8052    2.3966 N   0  0  0  0  0  0  0  0  0  0  0  0
   -6.8961    5.8713    3.5032 C   0  0  2  0  0  0  0  0  0  0  0  0
   -7.3459    6.4051    4.7473 C   0  0  0  0  0  0  0  0  0  0  0  0
   -6.9373    7.6297    5.0061 O   0  0  0  0  0  0  0  0  0  0  0  0
   -5.6105    5.1454    3.3701 C   0  0  0  0  0  0  0  0  0  0  0  0
   -5.4631    4.1820    2.2754 C   0  0  0  0  0  0  0  0  0  0  0  0
   -4.7536    4.3059    1.0885 C   0  0  0  0  0  0  0  0  0  0  0  0
   -6.0462    2.9115    2.2149 C   0  0  0  0  0  0  0  0  0  0  0  0
   -4.9067    3.1743    0.3655 N   0  0  0  0  0  0  0  0  0  0  0  0
   -5.6850    2.3122    1.0255 C   0  0  0  0  0  0  0  0  0  0  0  0
   -6.8248    2.2581    3.1031 C   0  0  0  0  0  0  0  0  0  0  0  0
   -6.1249    1.0232    0.7334 C   0  0  0  0  0  0  0  0  0  0  0  0
   -7.3010    0.9589    2.8699 C   0  0  0  0  0  0  0  0  0  0  0  0
   -6.9068    0.4158    1.6668 C   0  0  0  0  0  0  0  0  0  0  0  0
   -8.1412    5.8754    5.7764 N   0  0  0  0  0  0  0  0  0  0  0  0
   -8.1081    6.4538    7.1788 C   0  0  2  0  0  0  0  0  0  0  0  0
   -7.3296    5.5425    8.0169 C   0  0  0  0  0  0  0  0  0  0  0  0
   -6.9829    4.4151    7.5506 O   0  0  0  0  0  0  0  0  0  0  0  0
   -9.5633    6.4708    7.4997 C   0  0  0  0  0  0  0  0  0  0  0  0
   -9.9899    5.1067    7.0192 C   0  0  0  0  0  0  0  0  0  0  0  0
   -9.1067    4.8228    5.8279 C   0  0  0  0  0  0  0  0  0  0  0  0
   -6.9415    5.8574    9.3278 N   0  0  0  0  0  0  0  0  0  0  0  0
   -5.8611    5.1538   10.0031 C   0  0  2  0  0  0  0  0  0  0  0  0
   -6.4670    3.9490   10.6209 C   0  0  0  0  0  0  0  0  0  0  0  0
   -5.7112    3.0279   11.3631 O   0  0  0  0  0  1  0  0  0  0  0  0
   -5.1299    5.9306   11.0353 C   0  0  0  0  0  0  0  0  0  0  0  0
   -5.9642    6.9707   11.6421 C   0  0  0  0  0  0  0  0  0  0  0  0
   -6.8850    6.7068   12.6591 O   0  0  0  0  0  1  0  0  0  0  0  0
   -5.9131    8.2016   11.2853 O   0  0  0  0  0  0  0  0  0  0  0  0
   -7.7080    3.6751   10.5173 O   0  0  0  0  0  0  0  0  0  0  0  0
  1  2  2  0
  1  3  1  0
  1  4  1  0
  4  5  1  0
  5  6  1  0
  5  8  1  6
  6  7  2  0
  6 12  1  0
  8  9  1  0
  9 10  1  6
  9 11  1  0
 12 13  1  0
 13 14  1  0
 13 16  1  6
 14 15  2  0
 14 26  1  0
 16 17  1  0
 17 18  2  0
 17 19  1  0
 18 20  1  0
 19 21  2  0
 19 22  1  0
 20 21  1  0
 21 23  1  0
 22 24  2  0
 23 25  2  0
 24 25  1  0
 26 27  1  0
 27 28  1  0
 27 30  1  1
 28 29  2  0
 28 40  1  0
 30 31  1  0
 31 32  2  0
 31 33  1  0
 32 34  1  0
 33 35  2  0
 33 36  1  0
 34 35  1  0
 35 37  1  0
 36 38  2  0
 37 39  2  0
 38 39  1  0
 40 41  1  0
 40 46  1  0
 41 42  1  1
 41 44  1  0
 42 43  2  0
 42 47  1  0
 44 45  1  0
 45 46  1  0
 47 48  1  0
 48 49  1  0
 48 51  1  1
 49 50  1  0
 49 55  2  0
 51 52  1  0
 52 53  1  0
 52 54  2  0
M  CHG  2  50  -1  53  -1
M  END
$$$$
