
     RDKit          3D

 55 59  0  0  0  0  0  0  0  0999 V2000
   -3.0417    7.2911   -0.3603 C   0  0  0  0  0  0  0  0  0  0  0  0
   -3.1702    6.9469    0.8623 O   0  0  0  0  0  0  0  0  0  0  0  0
   -2.5546    6.2605   -1.3088 C   0  0  0  0  0  0  0  0  0  0  0  0
   -3.3502    8.6033   -0.7918 N   0  0  0  0  0  0  0  0  0  0  0  0
   -3.8480    9.5460    0.1988 C   0  0  2  0  0  0  0  0  0  0  0  0
   -5.3058    9.3643    0.3622 C   0  0  0  0  0  0  0  0  0  0  0  0
   -6.0995    9.3884   -0.6321 O   0  0  0  0  0  0  0  0  0  0  0  0
   -3.5439   10.9539   -0.1435 C   0  0  0  0  0  0  0  0  0  0  0  0
   -2.1136   11.2891   -0.4181 C   0  0  1  0  0  0  0  0  0  0  0  0
   -1.8891   12.7117   -0.8539 C   0  0  0  0  0  0  0  0  0  0  0  0
   -1.3527   11.1277    0.9146 C   0  0  0  0  0  0  0  0  0  0  0  0
   -5.9055    9.1431    1.6474 N   0  0  0  0  0  0  0  0  0  0  0  0
   -6.9170    8.1138    1.7827 C   0  0  2  0  0  0  0  0  0  0  0  0
   -6.9036    7.4930    3.0914 C   0  0  0  0  0  0  0  0  0  0  0  0
   -5.8239    7.2399    3.7185 O   0  0  0  0  0  0  0  0  0  0  0  0
   -6.5762    6.9633    0.7963 C   0  0  0  0  0  0  0  0  0  0  0  0
   -7.2499    7.1624   -0.4808 C   0  0  0  0  0  0  0  0  0  0  0  0
   -8.1837    8.1032   -0.7982 C   0  0  0  0  0  0  0  0  0  0  0  0
   -7.0663    6.4023   -1.6309 C   0  0  0  0  0  0  0  0  0  0  0  0
   -8.5525    7.9241   -2.0885 N   0  0  0  0  0  0  0  0  0  0  0  0
   -7.8862    6.8923   -2.6209 C   0  0  0  0  0  0  0  0  0  0  0  0
   -6.2649    5.3190   -1.9445 C   0  0  0  0  0  0  0  0  0  0  0  0
   -7.9278    6.3413   -3.8907 C   0  0  0  0  0  0  0  0  0  0  0  0
   -6.2987    4.7561   -3.2215 C   0  0  0  0  0  0  0  0  0  0  0  0
   -7.1229    5.2634   -4.1860 C   0  0  0  0  0  0  0  0  0  0  0  0
   -8.1061    7.1308    3.7605 N   0  0  0  0  0  0  0  0  0  0  0  0
   -8.1726    6.9536    5.1970 C   0  0  2  0  0  0  0  0  0  0  0  0
   -6.9971    6.3913    5.7776 C   0  0  0  0  0  0  0  0  0  0  0  0
   -6.3523    5.5380    5.0096 O   0  0  0  0  0  0  0  0  0  0  0  0
   -9.5284    6.4276    5.4838 C   0  0  0  0  0  0  0  0  0  0  0  0
  -10.6731    7.3308    5.3357 C   0  0  0  0  0  0  0  0  0  0  0  0
  -11.3751    7.6751    4.1885 C   0  0  0  0  0  0  0  0  0  0  0  0
  -11.2871    8.0545    6.3639 C   0  0  0  0  0  0  0  0  0  0  0  0
  -12.3494    8.5524    4.5168 N   0  0  0  0  0  0  0  0  0  0  0  0
  -12.3189    8.7990    5.8294 C   0  0  0  0  0  0  0  0  0  0  0  0
  -11.0302    8.0908    7.6885 C   0  0  0  0  0  0  0  0  0  0  0  0
  -13.1042    9.5967    6.6584 C   0  0  0  0  0  0  0  0  0  0  0  0
  -11.7831    8.8730    8.5775 C   0  0  0  0  0  0  0  0  0  0  0  0
  -12.7970    9.5924    7.9840 C   0  0  0  0  0  0  0  0  0  0  0  0
   -6.3833    6.5570    7.0297 N   0  0  0  0  0  0  0  0  0  0  0  0
   -5.2427    5.6614    7.4761 C   0  0  2  0  0  0  0  0  0  0  0  0
   -5.7802    4.7077    8.4458 C   0  0  0  0  0  0  0  0  0  0  0  0
   -7.0050    4.7754    8.7682 O   0  0  0  0  0  0  0  0  0  0  0  0
   -4.3224    6.6708    8.0720 C   0  0  0  0  0  0  0  0  0  0  0  0
   -5.2808    7.5043    8.8846 C   0  0  0  0  0  0  0  0  0  0  0  0
   -6.5701    7.4869    8.0990 C   0  0  0  0  0  0  0  0  0  0  0  0
   -4.9988    3.7082    9.0446 N   0  0  0  0  0  0  0  0  0  0  0  0
   -5.5473    2.4070    9.3972 C   0  0  2  0  0  0  0  0  0  0  0  0
   -5.5720    2.3501   10.8793 C   0  0  0  0  0  0  0  0  0  0  0  0
   -4.8979    3.2890   11.6757 O   0  0  0  0  0  1  0  0  0  0  0  0
   -4.8148    1.2310    8.8642 C   0  0  0  0  0  0  0  0  0  0  0  0
   -3.3704    1.4633    8.7902 C   0  0  0  0  0  0  0  0  0  0  0  0
   -2.5036    1.1937    9.8522 O   0  0  0  0  0  1  0  0  0  0  0  0
   -2.7923    1.9323    7.7457 O   0  0  0  0  0  0  0  0  0  0  0  0
   -6.2049    1.4481   11.5208 O   0  0  0  0  0  0  0  0  0  0  0  0
  1  2  2  0
  1  3  1  0
  1  4  1  0
  4  5  1  0
  5  6  1  0
  5  8  1  6
  6  7  2  0
  6 12  1  0
  8  9  1  0
  9 10  1  1
  9 11  1  0
 12 13  1  0
 13 14  1  0
 13 16  1  6
 14 15  2  0
 14 26  1  0
 16 17  1  0
 17 18  2  0
 17 19  1  0
 18 20  1  0
 19 21  2  0
 19 22  1  0
 20 21  1  0
 21 23  1  0
 22 24  2  0
 23 25  2  0
 24 25  1  0
 26 27  1  0
 27 28  1  0
 27 30  1  6
 28 29  2  0
 28 40  1  0
 30 31  1  0
 31 32  2  0
 31 33  1  0
 32 34  1  0
 33 35  2  0
 33 36  1  0
 34 35  1  0
 35 37  1  0
 36 38  2  0
 37 39  2  0
 38 39  1  0
 40 41  1  0
 40 46  1  0
 41 42  1  1
 41 44  1  0
 42 43  2  0
 42 47  1  0
 44 45  1  0
 45 46  1  0
 47 48  1  0
 48 49  1  0
 48 51  1  1
 49 50  1  0
 49 55  2  0
 51 52  1  0
 52 53  1  0
 52 54  2  0
M  CHG  2  50  -1  53  -1
M  END
$$$$
