
     RDKit          3D

 55 59  0  0  0  0  0  0  0  0999 V2000
   -6.4929    8.4176   -3.5496 C   0  0  0  0  0  0  0  0  0  0  0  0
   -7.3625    7.8984   -2.7724 O   0  0  0  0  0  0  0  0  0  0  0  0
   -6.9835    9.0176   -4.8139 C   0  0  0  0  0  0  0  0  0  0  0  0
   -5.1168    8.4188   -3.2182 N   0  0  0  0  0  0  0  0  0  0  0  0
   -4.3732    7.1805   -3.3955 C   0  0  2  0  0  0  0  0  0  0  0  0
   -4.2251    6.5041   -2.0896 C   0  0  0  0  0  0  0  0  0  0  0  0
   -3.4579    5.5003   -1.9383 O   0  0  0  0  0  0  0  0  0  0  0  0
   -3.0452    7.3912   -4.0152 C   0  0  0  0  0  0  0  0  0  0  0  0
   -2.1839    6.1831   -4.1954 C   0  0  1  0  0  0  0  0  0  0  0  0
   -2.4447    5.4278   -5.4704 C   0  0  0  0  0  0  0  0  0  0  0  0
   -0.7268    6.6826   -4.2877 C   0  0  0  0  0  0  0  0  0  0  0  0
   -4.9307    6.9453   -0.9201 N   0  0  0  0  0  0  0  0  0  0  0  0
   -4.1827    7.5448    0.1671 C   0  0  2  0  0  0  0  0  0  0  0  0
   -5.0364    7.9748    1.2555 C   0  0  0  0  0  0  0  0  0  0  0  0
   -4.5770    8.5120    2.3153 O   0  0  0  0  0  0  0  0  0  0  0  0
   -3.5235    8.8500   -0.3570 C   0  0  0  0  0  0  0  0  0  0  0  0
   -2.7267    9.4808    0.6879 C   0  0  0  0  0  0  0  0  0  0  0  0
   -1.3899    9.7468    0.6772 C   0  0  0  0  0  0  0  0  0  0  0  0
   -3.1955    9.9252    1.9195 C   0  0  0  0  0  0  0  0  0  0  0  0
   -1.0586   10.3301    1.8533 N   0  0  0  0  0  0  0  0  0  0  0  0
   -2.1417   10.4509    2.6308 C   0  0  0  0  0  0  0  0  0  0  0  0
   -4.4410    9.9382    2.5217 C   0  0  0  0  0  0  0  0  0  0  0  0
   -2.2938   10.9786    3.9020 C   0  0  0  0  0  0  0  0  0  0  0  0
   -4.6056   10.4680    3.8027 C   0  0  0  0  0  0  0  0  0  0  0  0
   -3.5410   10.9839    4.4865 C   0  0  0  0  0  0  0  0  0  0  0  0
   -6.4505    7.8252    1.2017 N   0  0  0  0  0  0  0  0  0  0  0  0
   -7.2896    7.9458    2.3767 C   0  0  2  0  0  0  0  0  0  0  0  0
   -6.7661    7.3135    3.5435 C   0  0  0  0  0  0  0  0  0  0  0  0
   -6.0850    6.2094    3.3183 O   0  0  0  0  0  0  0  0  0  0  0  0
   -8.6804    7.7275    1.9127 C   0  0  0  0  0  0  0  0  0  0  0  0
   -9.7435    7.6275    2.9166 C   0  0  0  0  0  0  0  0  0  0  0  0
  -10.0783    6.5571    3.7349 C   0  0  0  0  0  0  0  0  0  0  0  0
  -10.6654    8.6293    3.2397 C   0  0  0  0  0  0  0  0  0  0  0  0
  -11.1376    6.9036    4.4995 N   0  0  0  0  0  0  0  0  0  0  0  0
  -11.5130    8.1549    4.2200 C   0  0  0  0  0  0  0  0  0  0  0  0
  -10.7976    9.8875    2.7692 C   0  0  0  0  0  0  0  0  0  0  0  0
  -12.5152    8.9761    4.7312 C   0  0  0  0  0  0  0  0  0  0  0  0
  -11.7856   10.7649    3.2414 C   0  0  0  0  0  0  0  0  0  0  0  0
  -12.5993   10.2334    4.2177 C   0  0  0  0  0  0  0  0  0  0  0  0
   -6.8412    7.6292    4.9098 N   0  0  0  0  0  0  0  0  0  0  0  0
   -6.2323    6.7247    5.9650 C   0  0  2  0  0  0  0  0  0  0  0  0
   -7.3238    5.9921    6.6057 C   0  0  0  0  0  0  0  0  0  0  0  0
   -8.0401    5.2118    5.9079 O   0  0  0  0  0  0  0  0  0  0  0  0
   -5.5863    7.7358    6.8490 C   0  0  0  0  0  0  0  0  0  0  0  0
   -6.6776    8.7698    6.9654 C   0  0  0  0  0  0  0  0  0  0  0  0
   -7.3877    8.7340    5.6333 C   0  0  0  0  0  0  0  0  0  0  0  0
   -7.6218    6.1101    7.9715 N   0  0  0  0  0  0  0  0  0  0  0  0
   -8.7512    5.4207    8.5776 C   0  0  2  0  0  0  0  0  0  0  0  0
   -8.8126    5.8762    9.9881 C   0  0  0  0  0  0  0  0  0  0  0  0
   -7.6838    6.3588   10.6685 O   0  0  0  0  0  1  0  0  0  0  0  0
   -8.7026    3.9377    8.5331 C   0  0  0  0  0  0  0  0  0  0  0  0
   -7.3913    3.4132    8.9220 C   0  0  0  0  0  0  0  0  0  0  0  0
   -6.2824    3.4381    8.0726 O   0  0  0  0  0  1  0  0  0  0  0  0
   -7.1621    2.8909   10.0707 O   0  0  0  0  0  0  0  0  0  0  0  0
   -9.8907    5.8580   10.6686 O   0  0  0  0  0  0  0  0  0  0  0  0
  1  2  2  0
  1  3  1  0
  1  4  1  0
  4  5  1  0
  5  6  1  0
  5  8  1  1
  6  7  2  0
  6 12  1  0
  8  9  1  0
  9 10  1  6
  9 11  1  0
 12 13  1  0
 13 14  1  0
 13 16  1  6
 14 15  2  0
 14 26  1  0
 16 17  1  0
 17 18  2  0
 17 19  1  0
 18 20  1  0
 19 21  2  0
 19 22  1  0
 20 21  1  0
 21 23  1  0
 22 24  2  0
 23 25  2  0
 24 25  1  0
 26 27  1  0
 27 28  1  0
 27 30  1  6
 28 29  2  0
 28 40  1  0
 30 31  1  0
 31 32  2  0
 31 33  1  0
 32 34  1  0
 33 35  2  0
 33 36  1  0
 34 35  1  0
 35 37  1  0
 36 38  2  0
 37 39  2  0
 38 39  1  0
 40 41  1  0
 40 46  1  0
 41 42  1  1
 41 44  1  0
 42 43  2  0
 42 47  1  0
 44 45  1  0
 45 46  1  0
 47 48  1  0
 48 49  1  0
 48 51  1  1
 49 50  1  0
 49 55  2  0
 51 52  1  0
 52 53  1  0
 52 54  2  0
M  CHG  2  50  -1  53  -1
M  END
$$$$
