
     RDKit          3D

 26 27  0  0  0  0  0  0  0  0999 V2000
    7.9056   53.1089   55.8143 C   0  0  0  0  0  0  0  0  0  0  0  0
    6.6683   53.2369   56.6466 C   0  0  0  0  0  0  0  0  0  0  0  0
    6.8097   54.1506   57.7032 O   0  0  0  0  0  0  0  0  0  0  0  0
    7.8222   55.0246   57.3169 C   0  0  0  0  0  0  0  0  0  0  0  0
    9.0437   54.8895   58.1679 C   0  0  1  0  0  0  0  0  0  0  0  0
    8.6380   54.1837   59.4429 C   0  0  0  0  0  0  0  0  0  0  0  0
    7.7024   55.0237   60.0656 O   0  0  0  0  0  0  0  0  0  0  0  0
    7.0655   54.4306   61.1325 C   0  0  0  0  0  0  0  0  0  0  0  0
    7.9503   54.3394   62.3632 C   0  0  0  0  0  0  0  0  0  0  0  0
   10.0819   54.0960   57.3961 C   0  0  0  0  0  0  0  0  0  0  0  0
   10.7796   55.0984   56.5086 C   0  0  0  0  0  0  0  0  0  0  0  0
    9.6312   56.2350   58.4212 C   0  0  0  0  0  0  0  0  0  0  0  0
   11.1543   56.1565   58.6232 C   0  0  0  0  0  0  0  0  0  0  0  0
   11.8815   55.7493   57.3636 C   0  0  1  0  0  0  0  0  0  0  0  0
   12.9115   54.7180   57.6012 C   0  0  0  0  0  0  0  0  0  0  0  0
   12.6505   53.4222   57.8418 N   0  0  0  0  0  0  0  0  0  0  0  0
   13.7460   52.7359   58.0888 N   0  0  0  0  0  0  0  0  0  0  0  0
   14.7666   53.5900   58.0114 C   0  0  0  0  0  0  0  0  0  0  0  0
   14.2714   54.8691   57.6989 C   0  0  0  0  0  0  0  0  0  0  0  0
   15.1529   55.9841   57.4724 C   0  0  0  0  0  0  0  0  0  0  0  0
   16.3407   56.0400   58.3565 N   0  0  1  0  0  4  0  0  0  0  0  0
   17.5370   56.0464   57.5791 C   0  0  0  0  0  0  0  0  0  0  0  0
   16.1665   56.8705   59.4464 C   0  0  0  0  0  0  0  0  0  0  0  0
   17.1580   57.0696   60.5054 C   0  0  0  0  0  0  0  0  0  0  0  0
   16.7773   57.6249   61.7530 N   0  0  0  0  0  4  0  0  0  0  0  0
   16.1302   58.8795   61.7770 C   0  0  0  0  0  0  0  0  0  0  0  0
  1  2  1  0
  2  3  1  0
  3  4  1  0
  5  4  1  6
  5  6  1  0
  5 10  1  0
  5 12  1  0
  6  7  1  0
  7  8  1  0
  8  9  1  0
 10 11  1  0
 11 14  1  0
 12 13  1  0
 13 14  1  0
 14 15  1  1
 15 16  1  0
 15 19  2  0
 16 17  1  0
 17 18  2  0
 18 19  1  0
 19 20  1  0
 20 21  1  0
 21 22  1  6
 21 23  1  0
 23 24  1  0
 24 25  1  0
 25 26  1  0
M  CHG  2  21   1  25   1
M  END
$$$$
