
     RDKit          3D

 26 27  0  0  0  0  0  0  0  0999 V2000
   -1.1284   36.6576   46.5942 C   0  0  0  0  0  0  0  0  0  0  0  0
   -0.0078   37.0535   47.5038 C   0  0  0  0  0  0  0  0  0  0  0  0
    1.2410   36.5747   47.0770 O   0  0  0  0  0  0  0  0  0  0  0  0
    2.0956   37.6737   47.0942 C   0  0  0  0  0  0  0  0  0  0  0  0
    2.6127   38.0118   45.7331 C   0  0  1  0  0  0  0  0  0  0  0  0
    2.3028   39.4696   45.4742 C   0  0  0  0  0  0  0  0  0  0  0  0
    3.5368   40.1364   45.5088 O   0  0  0  0  0  0  0  0  0  0  0  0
    3.6721   40.9727   46.5942 C   0  0  0  0  0  0  0  0  0  0  0  0
    2.7200   42.1545   46.5427 C   0  0  0  0  0  0  0  0  0  0  0  0
    4.1064   37.7449   45.7064 C   0  0  0  0  0  0  0  0  0  0  0  0
    4.2486   36.2690   45.4221 C   0  0  0  0  0  0  0  0  0  0  0  0
    1.9958   37.1078   44.7221 C   0  0  0  0  0  0  0  0  0  0  0  0
    2.9303   36.8840   43.5207 C   0  0  0  0  0  0  0  0  0  0  0  0
    4.1707   36.1070   43.8935 C   0  0  1  0  0  0  0  0  0  0  0  0
    5.4059   36.6905   43.3325 C   0  0  0  0  0  0  0  0  0  0  0  0
    5.5327   37.9677   42.9353 N   0  0  0  0  0  0  0  0  0  0  0  0
    6.7153   38.2057   42.4092 N   0  0  0  0  0  0  0  0  0  0  0  0
    7.3992   37.0624   42.4548 C   0  0  0  0  0  0  0  0  0  0  0  0
    6.5938   36.0693   43.0416 C   0  0  0  0  0  0  0  0  0  0  0  0
    7.0958   34.7447   43.2963 C   0  0  0  0  0  0  0  0  0  0  0  0
    7.6792   34.0537   42.1224 N   0  0  1  0  0  4  0  0  0  0  0  0
    9.0690   33.8090   42.3319 C   0  0  0  0  0  0  0  0  0  0  0  0
    6.8375   33.1021   41.5801 C   0  0  0  0  0  0  0  0  0  0  0  0
    7.0178   32.4881   40.2631 C   0  0  0  0  0  0  0  0  0  0  0  0
    6.1706   31.4339   39.8381 N   0  0  0  0  0  4  0  0  0  0  0  0
    6.7289   30.1601   39.5950 C   0  0  0  0  0  0  0  0  0  0  0  0
  1  2  1  0
  2  3  1  0
  3  4  1  0
  5  4  1  1
  5  6  1  0
  5 10  1  0
  5 12  1  0
  6  7  1  0
  7  8  1  0
  8  9  1  0
 10 11  1  0
 11 14  1  0
 12 13  1  0
 13 14  1  0
 14 15  1  6
 15 16  1  0
 15 19  2  0
 16 17  1  0
 17 18  2  0
 18 19  1  0
 19 20  1  0
 20 21  1  0
 21 22  1  1
 21 23  1  0
 23 24  1  0
 24 25  1  0
 25 26  1  0
M  CHG  2  21   1  25   1
M  END
$$$$
