
     RDKit          3D

 26 27  0  0  0  0  0  0  0  0999 V2000
   -1.8893   36.0536   49.5766 C   0  0  0  0  0  0  0  0  0  0  0  0
   -1.1903   37.3637   49.7638 C   0  0  0  0  0  0  0  0  0  0  0  0
   -0.2042   37.3219   50.7623 O   0  0  0  0  0  0  0  0  0  0  0  0
    0.8816   36.6589   50.1966 C   0  0  0  0  0  0  0  0  0  0  0  0
    2.0946   37.5281   50.1097 C   0  0  1  0  0  0  0  0  0  0  0  0
    2.6686   37.6543   51.5037 C   0  0  0  0  0  0  0  0  0  0  0  0
    2.8401   36.3416   51.9684 O   0  0  0  0  0  0  0  0  0  0  0  0
    3.3317   36.2801   53.2531 C   0  0  0  0  0  0  0  0  0  0  0  0
    2.2936   35.8028   54.2532 C   0  0  0  0  0  0  0  0  0  0  0  0
    3.0818   36.8817   49.1555 C   0  0  0  0  0  0  0  0  0  0  0  0
    2.6465   37.3068   47.7738 C   0  0  0  0  0  0  0  0  0  0  0  0
    1.7272   38.8465   49.5211 C   0  0  0  0  0  0  0  0  0  0  0  0
    2.9080   39.4729   48.7594 C   0  0  0  0  0  0  0  0  0  0  0  0
    3.2750   38.6890   47.5216 C   0  0  1  0  0  0  0  0  0  0  0  0
    4.7306   38.4839   47.3806 C   0  0  0  0  0  0  0  0  0  0  0  0
    5.4143   37.4701   47.9372 N   0  0  0  0  0  0  0  0  0  0  0  0
    6.7076   37.5648   47.7122 N   0  0  0  0  0  0  0  0  0  0  0  0
    6.8970   38.6671   46.9869 C   0  0  0  0  0  0  0  0  0  0  0  0
    5.6533   39.2815   46.7528 C   0  0  0  0  0  0  0  0  0  0  0  0
    5.5353   40.4541   45.9266 C   0  0  0  0  0  0  0  0  0  0  0  0
    6.4137   40.4771   44.7335 N   0  0  1  0  0  4  0  0  0  0  0  0
    7.7786   40.3253   45.1201 C   0  0  0  0  0  0  0  0  0  0  0  0
    5.8760   39.8073   43.6516 C   0  0  0  0  0  0  0  0  0  0  0  0
    5.3336   38.4482   43.7028 C   0  0  0  0  0  0  0  0  0  0  0  0
    4.4691   37.9791   42.6817 N   0  0  0  0  0  4  0  0  0  0  0  0
    4.5687   36.6347   42.2619 C   0  0  0  0  0  0  0  0  0  0  0  0
  1  2  1  0
  2  3  1  0
  3  4  1  0
  5  4  1  1
  5  6  1  0
  5 10  1  0
  5 12  1  0
  6  7  1  0
  7  8  1  0
  8  9  1  0
 10 11  1  0
 11 14  1  0
 12 13  1  0
 13 14  1  0
 14 15  1  1
 15 16  1  0
 15 19  2  0
 16 17  1  0
 17 18  2  0
 18 19  1  0
 19 20  1  0
 20 21  1  0
 21 22  1  1
 21 23  1  0
 23 24  1  0
 24 25  1  0
 25 26  1  0
M  CHG  2  21   1  25   1
M  END
$$$$
