
     RDKit          3D

 26 27  0  0  0  0  0  0  0  0999 V2000
    0.2269   36.1657   47.1798 C   0  0  0  0  0  0  0  0  0  0  0  0
    1.3377   35.9187   46.2077 C   0  0  0  0  0  0  0  0  0  0  0  0
    2.3206   36.9210   46.2312 O   0  0  0  0  0  0  0  0  0  0  0  0
    2.1997   37.6002   45.0218 C   0  0  0  0  0  0  0  0  0  0  0  0
    3.5232   38.0371   44.4817 C   0  0  1  0  0  0  0  0  0  0  0  0
    3.7515   39.4645   44.9276 C   0  0  0  0  0  0  0  0  0  0  0  0
    2.7595   40.2280   44.2936 O   0  0  0  0  0  0  0  0  0  0  0  0
    2.2967   41.2680   45.0682 C   0  0  0  0  0  0  0  0  0  0  0  0
    3.1675   42.5075   44.9619 C   0  0  0  0  0  0  0  0  0  0  0  0
    4.5934   37.1057   45.0203 C   0  0  0  0  0  0  0  0  0  0  0  0
    4.5856   35.9069   44.1026 C   0  0  0  0  0  0  0  0  0  0  0  0
    3.5335   37.8928   42.9989 C   0  0  0  0  0  0  0  0  0  0  0  0
    4.9514   37.6181   42.4686 C   0  0  0  0  0  0  0  0  0  0  0  0
    5.4756   36.2689   42.9002 C   0  0  1  0  0  0  0  0  0  0  0  0
    6.8672   36.3224   43.3917 C   0  0  0  0  0  0  0  0  0  0  0  0
    7.3094   37.1700   44.3356 N   0  0  0  0  0  0  0  0  0  0  0  0
    8.6053   37.0544   44.5346 N   0  0  0  0  0  0  0  0  0  0  0  0
    9.0436   36.1066   43.7059 C   0  0  0  0  0  0  0  0  0  0  0  0
    7.9585   35.6128   42.9590 C   0  0  0  0  0  0  0  0  0  0  0  0
    8.1145   34.5210   42.0343 C   0  0  0  0  0  0  0  0  0  0  0  0
    8.4198   33.2090   42.6516 N   0  0  1  0  0  4  0  0  0  0  0  0
    8.5304   33.3417   44.0678 C   0  0  0  0  0  0  0  0  0  0  0  0
    7.7408   32.1610   42.0611 C   0  0  0  0  0  0  0  0  0  0  0  0
    8.1875   31.4550   40.8585 C   0  0  0  0  0  0  0  0  0  0  0  0
    7.3382   30.5194   40.2157 N   0  0  0  0  0  4  0  0  0  0  0  0
    6.5513   29.6519   41.0042 C   0  0  0  0  0  0  0  0  0  0  0  0
  1  2  1  0
  2  3  1  0
  3  4  1  0
  5  4  1  1
  5  6  1  0
  5 10  1  0
  5 12  1  0
  6  7  1  0
  7  8  1  0
  8  9  1  0
 10 11  1  0
 11 14  1  0
 12 13  1  0
 13 14  1  0
 14 15  1  1
 15 16  1  0
 15 19  2  0
 16 17  1  0
 17 18  2  0
 18 19  1  0
 19 20  1  0
 20 21  1  0
 21 22  1  1
 21 23  1  0
 23 24  1  0
 24 25  1  0
 25 26  1  0
M  CHG  2  21   1  25   1
M  END
$$$$
