
     RDKit          3D

 26 27  0  0  0  0  0  0  0  0999 V2000
   12.4215   45.3909   56.9976 C   0  0  0  0  0  0  0  0  0  0  0  0
   11.3751   45.6714   55.9649 C   0  0  0  0  0  0  0  0  0  0  0  0
   10.7031   46.8851   56.1801 O   0  0  0  0  0  0  0  0  0  0  0  0
    9.5274   46.5551   56.8491 C   0  0  0  0  0  0  0  0  0  0  0  0
    8.5861   47.7122   56.9465 C   0  0  1  0  0  0  0  0  0  0  0  0
    7.1878   47.1867   56.7073 C   0  0  0  0  0  0  0  0  0  0  0  0
    7.1718   46.7282   55.3813 O   0  0  0  0  0  0  0  0  0  0  0  0
    5.9658   46.1754   55.0124 C   0  0  0  0  0  0  0  0  0  0  0  0
    5.9669   44.6596   55.1015 C   0  0  0  0  0  0  0  0  0  0  0  0
    8.7228   48.3283   58.3266 C   0  0  0  0  0  0  0  0  0  0  0  0
    9.9043   49.2639   58.2367 C   0  0  0  0  0  0  0  0  0  0  0  0
    8.9776   48.7628   55.9654 C   0  0  0  0  0  0  0  0  0  0  0  0
    8.5841   50.1670   56.4554 C   0  0  0  0  0  0  0  0  0  0  0  0
    9.3700   50.5926   57.6730 C   0  0  1  0  0  0  0  0  0  0  0  0
    8.5243   51.1990   58.7209 C   0  0  0  0  0  0  0  0  0  0  0  0
    7.3183   50.7355   59.0891 N   0  0  0  0  0  0  0  0  0  0  0  0
    6.7498   51.5035   59.9942 N   0  0  0  0  0  0  0  0  0  0  0  0
    7.5938   52.5055   60.2405 C   0  0  0  0  0  0  0  0  0  0  0  0
    8.7427   52.3434   59.4450 C   0  0  0  0  0  0  0  0  0  0  0  0
    9.8673   53.2351   59.5543 C   0  0  0  0  0  0  0  0  0  0  0  0
    9.5967   54.6422   59.1770 N   0  0  1  0  0  4  0  0  0  0  0  0
    8.4962   55.1534   59.9274 C   0  0  0  0  0  0  0  0  0  0  0  0
   10.7468   55.3768   58.9633 C   0  0  0  0  0  0  0  0  0  0  0  0
   11.6475   55.1959   57.8231 C   0  0  0  0  0  0  0  0  0  0  0  0
   12.8141   55.9911   57.6939 N   0  0  0  0  0  4  0  0  0  0  0  0
   14.0540   55.4644   58.1165 C   0  0  0  0  0  0  0  0  0  0  0  0
  1  2  1  0
  2  3  1  0
  3  4  1  0
  5  4  1  1
  5  6  1  0
  5 10  1  0
  5 12  1  0
  6  7  1  0
  7  8  1  0
  8  9  1  0
 10 11  1  0
 11 14  1  0
 12 13  1  0
 13 14  1  0
 14 15  1  1
 15 16  1  0
 15 19  2  0
 16 17  1  0
 17 18  2  0
 18 19  1  0
 19 20  1  0
 20 21  1  0
 21 22  1  1
 21 23  1  0
 23 24  1  0
 24 25  1  0
 25 26  1  0
M  CHG  2  21   1  25   1
M  END
$$$$
