
     RDKit          3D

 26 27  0  0  0  0  0  0  0  0999 V2000
    3.6945   49.8507   54.7943 C   0  0  0  0  0  0  0  0  0  0  0  0
    4.3800   48.5860   55.2073 C   0  0  0  0  0  0  0  0  0  0  0  0
    3.9060   47.4559   54.5222 O   0  0  0  0  0  0  0  0  0  0  0  0
    4.6376   47.3940   53.3392 C   0  0  0  0  0  0  0  0  0  0  0  0
    5.1092   46.0085   53.0355 C   0  0  1  0  0  0  0  0  0  0  0  0
    3.9289   45.0765   53.1993 C   0  0  0  0  0  0  0  0  0  0  0  0
    3.2824   45.4794   54.3776 O   0  0  0  0  0  0  0  0  0  0  0  0
    2.1317   44.7687   54.6360 C   0  0  0  0  0  0  0  0  0  0  0  0
    1.9891   44.4020   56.1026 C   0  0  0  0  0  0  0  0  0  0  0  0
    5.6476   45.9841   51.6168 C   0  0  0  0  0  0  0  0  0  0  0  0
    7.0719   46.4749   51.7162 C   0  0  0  0  0  0  0  0  0  0  0  0
    6.2449   45.6560   53.9331 C   0  0  0  0  0  0  0  0  0  0  0  0
    7.2020   44.6538   53.2649 C   0  0  0  0  0  0  0  0  0  0  0  0
    7.9321   45.2535   52.0865 C   0  0  1  0  0  0  0  0  0  0  0  0
    7.9515   44.3639   50.9079 C   0  0  0  0  0  0  0  0  0  0  0  0
    7.0420   44.3894   49.9194 N   0  0  0  0  0  0  0  0  0  0  0  0
    7.2546   43.4441   49.0287 N   0  0  0  0  0  0  0  0  0  0  0  0
    8.3326   42.7687   49.4274 C   0  0  0  0  0  0  0  0  0  0  0  0
    8.8080   43.3300   50.6265 C   0  0  0  0  0  0  0  0  0  0  0  0
   10.0131   42.8563   51.2549 C   0  0  0  0  0  0  0  0  0  0  0  0
    9.8557   41.6404   52.0870 N   0  0  1  0  0  4  0  0  0  0  0  0
   10.7038   40.5984   51.6070 C   0  0  0  0  0  0  0  0  0  0  0  0
    9.7210   41.9187   53.4333 C   0  0  0  0  0  0  0  0  0  0  0  0
   10.3054   41.1159   54.5094 C   0  0  0  0  0  0  0  0  0  0  0  0
   11.0697   41.7311   55.5328 N   0  0  0  0  0  4  0  0  0  0  0  0
   10.4010   42.4006   56.5807 C   0  0  0  0  0  0  0  0  0  0  0  0
  1  2  1  0
  2  3  1  0
  3  4  1  0
  5  4  1  1
  5  6  1  0
  5 10  1  0
  5 12  1  0
  6  7  1  0
  7  8  1  0
  8  9  1  0
 10 11  1  0
 11 14  1  0
 12 13  1  0
 13 14  1  0
 14 15  1  6
 15 16  1  0
 15 19  2  0
 16 17  1  0
 17 18  2  0
 18 19  1  0
 19 20  1  0
 20 21  1  0
 21 22  1  1
 21 23  1  0
 23 24  1  0
 24 25  1  0
 25 26  1  0
M  CHG  2  21   1  25   1
M  END
$$$$
