
     RDKit          3D

 26 27  0  0  0  0  0  0  0  0999 V2000
    1.4386   41.8794   52.1523 C   0  0  0  0  0  0  0  0  0  0  0  0
    2.4216   41.4977   51.0903 C   0  0  0  0  0  0  0  0  0  0  0  0
    3.0444   42.6061   50.4948 O   0  0  0  0  0  0  0  0  0  0  0  0
    4.0236   43.0202   51.3937 C   0  0  0  0  0  0  0  0  0  0  0  0
    5.1327   43.7637   50.7217 C   0  0  1  0  0  0  0  0  0  0  0  0
    4.7502   45.2270   50.6903 C   0  0  0  0  0  0  0  0  0  0  0  0
    3.6443   45.3162   49.8314 O   0  0  0  0  0  0  0  0  0  0  0  0
    3.1742   46.6018   49.6830 C   0  0  0  0  0  0  0  0  0  0  0  0
    2.7204   46.8973   48.2644 C   0  0  0  0  0  0  0  0  0  0  0  0
    6.4099   43.5370   51.5096 C   0  0  0  0  0  0  0  0  0  0  0  0
    6.9601   42.2199   51.0177 C   0  0  0  0  0  0  0  0  0  0  0  0
    5.3614   43.2031   49.3605 C   0  0  0  0  0  0  0  0  0  0  0  0
    6.8265   43.3682   48.9212 C   0  0  0  0  0  0  0  0  0  0  0  0
    7.7730   42.5306   49.7482 C   0  0  1  0  0  0  0  0  0  0  0  0
    8.9760   43.2732   50.1750 C   0  0  0  0  0  0  0  0  0  0  0  0
    8.9547   44.4523   50.8186 N   0  0  0  0  0  0  0  0  0  0  0  0
   10.1657   44.9279   51.0175 N   0  0  0  0  0  0  0  0  0  0  0  0
   11.0203   44.0475   50.4963 C   0  0  0  0  0  0  0  0  0  0  0  0
   10.2953   42.9732   49.9492 C   0  0  0  0  0  0  0  0  0  0  0  0
   10.9575   41.8270   49.3840 C   0  0  0  0  0  0  0  0  0  0  0  0
   11.7560   42.0961   48.1652 N   0  0  1  0  0  4  0  0  0  0  0  0
   12.9183   41.2691   48.1418 C   0  0  0  0  0  0  0  0  0  0  0  0
   10.9782   42.3048   47.0429 C   0  0  0  0  0  0  0  0  0  0  0  0
   10.6760   41.2814   46.0402 C   0  0  0  0  0  0  0  0  0  0  0  0
    9.3455   41.0828   45.5925 N   0  0  0  0  0  4  0  0  0  0  0  0
    8.8695   41.8383   44.4988 C   0  0  0  0  0  0  0  0  0  0  0  0
  1  2  1  0
  2  3  1  0
  3  4  1  0
  5  4  1  1
  5  6  1  0
  5 10  1  0
  5 12  1  0
  6  7  1  0
  7  8  1  0
  8  9  1  0
 10 11  1  0
 11 14  1  0
 12 13  1  0
 13 14  1  0
 14 15  1  1
 15 16  1  0
 15 19  2  0
 16 17  1  0
 17 18  2  0
 18 19  1  0
 19 20  1  0
 20 21  1  0
 21 22  1  6
 21 23  1  0
 23 24  1  0
 24 25  1  0
 25 26  1  0
M  CHG  2  21   1  25   1
M  END
$$$$
