
     RDKit          3D

 26 27  0  0  0  0  0  0  0  0999 V2000
   -1.4960   35.4593   47.8451 C   0  0  0  0  0  0  0  0  0  0  0  0
   -0.0009   35.5267   47.8584 C   0  0  0  0  0  0  0  0  0  0  0  0
    0.4894   36.7340   48.3810 O   0  0  0  0  0  0  0  0  0  0  0  0
    1.7223   36.4285   48.9512 C   0  0  0  0  0  0  0  0  0  0  0  0
    2.7180   37.5292   48.7736 C   0  0  1  0  0  0  0  0  0  0  0  0
    2.8173   38.2734   50.0869 C   0  0  0  0  0  0  0  0  0  0  0  0
    3.4029   37.3763   50.9930 O   0  0  0  0  0  0  0  0  0  0  0  0
    3.2856   37.7759   52.3055 C   0  0  0  0  0  0  0  0  0  0  0  0
    4.5962   37.6750   53.0657 C   0  0  0  0  0  0  0  0  0  0  0  0
    4.0480   36.9149   48.3776 C   0  0  0  0  0  0  0  0  0  0  0  0
    3.9699   36.7096   46.8839 C   0  0  0  0  0  0  0  0  0  0  0  0
    2.2982   38.4099   47.6477 C   0  0  0  0  0  0  0  0  0  0  0  0
    3.5103   39.0581   46.9565 C   0  0  0  0  0  0  0  0  0  0  0  0
    4.3702   38.0470   46.2356 C   0  0  1  0  0  0  0  0  0  0  0  0
    5.8132   38.2354   46.4865 C   0  0  0  0  0  0  0  0  0  0  0  0
    6.3769   38.2640   47.7057 N   0  0  0  0  0  0  0  0  0  0  0  0
    7.6672   38.5166   47.6470 N   0  0  0  0  0  0  0  0  0  0  0  0
    7.9778   38.6602   46.3586 C   0  0  0  0  0  0  0  0  0  0  0  0
    6.8162   38.4850   45.5846 C   0  0  0  0  0  0  0  0  0  0  0  0
    6.8587   38.5049   44.1461 C   0  0  0  0  0  0  0  0  0  0  0  0
    7.1224   39.8313   43.5402 N   0  0  1  0  0  4  0  0  0  0  0  0
    8.5271   40.0573   43.4351 C   0  0  0  0  0  0  0  0  0  0  0  0
    6.2478   40.1437   42.5178 C   0  0  0  0  0  0  0  0  0  0  0  0
    4.9395   40.7734   42.7078 C   0  0  0  0  0  0  0  0  0  0  0  0
    3.9556   40.7109   41.6890 N   0  0  0  0  0  4  0  0  0  0  0  0
    3.0638   39.6167   41.6623 C   0  0  0  0  0  0  0  0  0  0  0  0
  1  2  1  0
  2  3  1  0
  3  4  1  0
  5  4  1  1
  5  6  1  0
  5 10  1  0
  5 12  1  0
  6  7  1  0
  7  8  1  0
  8  9  1  0
 10 11  1  0
 11 14  1  0
 12 13  1  0
 13 14  1  0
 14 15  1  1
 15 16  1  0
 15 19  2  0
 16 17  1  0
 17 18  2  0
 18 19  1  0
 19 20  1  0
 20 21  1  0
 21 22  1  6
 21 23  1  0
 23 24  1  0
 24 25  1  0
 25 26  1  0
M  CHG  2  21   1  25   1
M  END
$$$$
