
     RDKit          3D

 26 27  0  0  0  0  0  0  0  0999 V2000
    8.2626   39.5739   52.5563 C   0  0  0  0  0  0  0  0  0  0  0  0
    8.4326   40.9474   51.9867 C   0  0  0  0  0  0  0  0  0  0  0  0
    8.5882   41.9349   52.9723 O   0  0  0  0  0  0  0  0  0  0  0  0
    9.6331   42.7454   52.5366 C   0  0  0  0  0  0  0  0  0  0  0  0
    9.3065   44.2000   52.6459 C   0  0  1  0  0  0  0  0  0  0  0  0
    9.9179   44.8979   51.4511 C   0  0  0  0  0  0  0  0  0  0  0  0
    9.9140   43.9547   50.4122 O   0  0  0  0  0  0  0  0  0  0  0  0
   11.1777   43.5797   50.0144 C   0  0  0  0  0  0  0  0  0  0  0  0
   11.1715   42.3282   49.1545 C   0  0  0  0  0  0  0  0  0  0  0  0
    7.7968   44.3531   52.6701 C   0  0  0  0  0  0  0  0  0  0  0  0
    7.3904   44.1275   54.1065 C   0  0  0  0  0  0  0  0  0  0  0  0
    9.8141   44.7333   53.9411 C   0  0  0  0  0  0  0  0  0  0  0  0
    8.9558   45.9074   54.4429 C   0  0  0  0  0  0  0  0  0  0  0  0
    7.5603   45.4766   54.8277 C   0  0  1  0  0  0  0  0  0  0  0  0
    6.5147   46.3806   54.3076 C   0  0  0  0  0  0  0  0  0  0  0  0
    6.0620   46.3734   53.0427 N   0  0  0  0  0  0  0  0  0  0  0  0
    5.1820   47.3282   52.8281 N   0  0  0  0  0  0  0  0  0  0  0  0
    5.0395   47.9917   53.9755 C   0  0  0  0  0  0  0  0  0  0  0  0
    5.8758   47.4123   54.9472 C   0  0  0  0  0  0  0  0  0  0  0  0
    5.8760   47.8703   56.3117 C   0  0  0  0  0  0  0  0  0  0  0  0
    4.5795   48.3938   56.8024 N   0  0  1  0  0  4  0  0  0  0  0  0
    3.8754   47.3805   57.5186 C   0  0  0  0  0  0  0  0  0  0  0  0
    4.6574   49.6964   57.2552 C   0  0  0  0  0  0  0  0  0  0  0  0
    5.0754   50.0828   58.6044 C   0  0  0  0  0  0  0  0  0  0  0  0
    5.9733   51.1626   58.7984 N   0  0  0  0  0  4  0  0  0  0  0  0
    5.8231   51.9842   59.9367 C   0  0  0  0  0  0  0  0  0  0  0  0
  1  2  1  0
  2  3  1  0
  3  4  1  0
  5  4  1  6
  5  6  1  0
  5 10  1  0
  5 12  1  0
  6  7  1  0
  7  8  1  0
  8  9  1  0
 10 11  1  0
 11 14  1  0
 12 13  1  0
 13 14  1  0
 14 15  1  6
 15 16  1  0
 15 19  2  0
 16 17  1  0
 17 18  2  0
 18 19  1  0
 19 20  1  0
 20 21  1  0
 21 22  1  1
 21 23  1  0
 23 24  1  0
 24 25  1  0
 25 26  1  0
M  CHG  2  21   1  25   1
M  END
$$$$
