
     RDKit          3D

 26 27  0  0  0  0  0  0  0  0999 V2000
   -0.4586   36.5121   47.8460 C   0  0  0  0  0  0  0  0  0  0  0  0
    0.8501   36.5813   47.1232 C   0  0  0  0  0  0  0  0  0  0  0  0
    0.8893   37.5973   46.1550 O   0  0  0  0  0  0  0  0  0  0  0  0
    2.2232   37.9864   46.0663 C   0  0  0  0  0  0  0  0  0  0  0  0
    2.8152   37.6821   44.7278 C   0  0  1  0  0  0  0  0  0  0  0  0
    2.2963   38.7149   43.7519 C   0  0  0  0  0  0  0  0  0  0  0  0
    2.5942   39.9631   44.3194 O   0  0  0  0  0  0  0  0  0  0  0  0
    1.8262   40.9874   43.8126 C   0  0  0  0  0  0  0  0  0  0  0  0
    2.6050   41.8912   42.8733 C   0  0  0  0  0  0  0  0  0  0  0  0
    4.3271   37.7364   44.8473 C   0  0  0  0  0  0  0  0  0  0  0  0
    4.7407   36.3807   45.3672 C   0  0  0  0  0  0  0  0  0  0  0  0
    2.4646   36.2905   44.3278 C   0  0  0  0  0  0  0  0  0  0  0  0
    3.5426   35.6767   43.4177 C   0  0  0  0  0  0  0  0  0  0  0  0
    4.8493   35.4553   44.1421 C   0  0  1  0  0  0  0  0  0  0  0  0
    6.0219   35.9027   43.3639 C   0  0  0  0  0  0  0  0  0  0  0  0
    6.6122   37.1021   43.4976 N   0  0  0  0  0  0  0  0  0  0  0  0
    7.5910   37.2695   42.6338 N   0  0  0  0  0  0  0  0  0  0  0  0
    7.6605   36.1564   41.9035 C   0  0  0  0  0  0  0  0  0  0  0  0
    6.6723   35.2569   42.3433 C   0  0  0  0  0  0  0  0  0  0  0  0
    6.5581   33.9329   41.7903 C   0  0  0  0  0  0  0  0  0  0  0  0
    7.4295   32.9101   42.4150 N   0  0  1  0  0  4  0  0  0  0  0  0
    6.8924   32.5028   43.6724 C   0  0  0  0  0  0  0  0  0  0  0  0
    7.9416   32.0056   41.5053 C   0  0  0  0  0  0  0  0  0  0  0  0
    7.1367   31.2478   40.5452 C   0  0  0  0  0  0  0  0  0  0  0  0
    7.7590   30.5206   39.4993 N   0  0  0  0  0  4  0  0  0  0  0  0
    9.1680   30.5181   39.4091 C   0  0  0  0  0  0  0  0  0  0  0  0
  1  2  1  0
  2  3  1  0
  3  4  1  0
  5  4  1  1
  5  6  1  0
  5 10  1  0
  5 12  1  0
  6  7  1  0
  7  8  1  0
  8  9  1  0
 10 11  1  0
 11 14  1  0
 12 13  1  0
 13 14  1  0
 14 15  1  6
 15 16  1  0
 15 19  2  0
 16 17  1  0
 17 18  2  0
 18 19  1  0
 19 20  1  0
 20 21  1  0
 21 22  1  1
 21 23  1  0
 23 24  1  0
 24 25  1  0
 25 26  1  0
M  CHG  2  21   1  25   1
M  END
$$$$
