
     RDKit          3D

 26 27  0  0  0  0  0  0  0  0999 V2000
    9.9336   40.0125   50.5502 C   0  0  0  0  0  0  0  0  0  0  0  0
    9.3227   40.6710   49.3531 C   0  0  0  0  0  0  0  0  0  0  0  0
    8.7502   39.7557   48.4555 O   0  0  0  0  0  0  0  0  0  0  0  0
    7.4231   40.1494   48.3060 C   0  0  0  0  0  0  0  0  0  0  0  0
    6.7788   39.5290   47.1084 C   0  0  1  0  0  0  0  0  0  0  0  0
    5.6460   40.4341   46.6771 C   0  0  0  0  0  0  0  0  0  0  0  0
    6.1034   41.7449   46.8804 O   0  0  0  0  0  0  0  0  0  0  0  0
    5.2459   42.7022   46.3862 C   0  0  0  0  0  0  0  0  0  0  0  0
    4.0211   42.8970   47.2623 C   0  0  0  0  0  0  0  0  0  0  0  0
    7.8257   39.3865   46.0190 C   0  0  0  0  0  0  0  0  0  0  0  0
    8.5552   38.1005   46.3248 C   0  0  0  0  0  0  0  0  0  0  0  0
    6.3155   38.1531   47.4429 C   0  0  0  0  0  0  0  0  0  0  0  0
    6.3248   37.2384   46.2060 C   0  0  0  0  0  0  0  0  0  0  0  0
    7.7226   36.9651   45.7030 C   0  0  1  0  0  0  0  0  0  0  0  0
    7.8420   37.0932   44.2366 C   0  0  0  0  0  0  0  0  0  0  0  0
    8.1878   38.2227   43.5965 N   0  0  0  0  0  0  0  0  0  0  0  0
    8.1493   38.0802   42.2887 N   0  0  0  0  0  0  0  0  0  0  0  0
    7.7698   36.8258   42.0445 C   0  0  0  0  0  0  0  0  0  0  0  0
    7.5656   36.1621   43.2680 C   0  0  0  0  0  0  0  0  0  0  0  0
    7.2253   34.7646   43.3199 C   0  0  0  0  0  0  0  0  0  0  0  0
    8.1070   33.8701   42.5336 N   0  0  1  0  0  4  0  0  0  0  0  0
    9.4235   33.8641   43.0832 C   0  0  0  0  0  0  0  0  0  0  0  0
    7.4759   32.7126   42.1213 C   0  0  0  0  0  0  0  0  0  0  0  0
    7.4355   32.2371   40.7369 C   0  0  0  0  0  0  0  0  0  0  0  0
    6.8758   30.9721   40.4263 N   0  0  0  0  0  4  0  0  0  0  0  0
    5.8228   30.8991   39.4886 C   0  0  0  0  0  0  0  0  0  0  0  0
  1  2  1  0
  2  3  1  0
  3  4  1  0
  5  4  1  1
  5  6  1  0
  5 10  1  0
  5 12  1  0
  6  7  1  0
  7  8  1  0
  8  9  1  0
 10 11  1  0
 11 14  1  0
 12 13  1  0
 13 14  1  0
 14 15  1  6
 15 16  1  0
 15 19  2  0
 16 17  1  0
 17 18  2  0
 18 19  1  0
 19 20  1  0
 20 21  1  0
 21 22  1  1
 21 23  1  0
 23 24  1  0
 24 25  1  0
 25 26  1  0
M  CHG  2  21   1  25   1
M  END
$$$$
