
     RDKit          3D

 26 27  0  0  0  0  0  0  0  0999 V2000
    0.2811   35.1384   43.4454 C   0  0  0  0  0  0  0  0  0  0  0  0
    1.6057   35.1541   44.1418 C   0  0  0  0  0  0  0  0  0  0  0  0
    2.6369   35.6809   43.3481 O   0  0  0  0  0  0  0  0  0  0  0  0
    2.8810   36.9597   43.8418 C   0  0  0  0  0  0  0  0  0  0  0  0
    4.3141   37.3596   43.6977 C   0  0  1  0  0  0  0  0  0  0  0  0
    4.4696   38.7349   44.3082 C   0  0  0  0  0  0  0  0  0  0  0  0
    3.8318   39.6206   43.4266 O   0  0  0  0  0  0  0  0  0  0  0  0
    3.8311   40.9236   43.8716 C   0  0  0  0  0  0  0  0  0  0  0  0
    3.0542   41.0984   45.1646 C   0  0  0  0  0  0  0  0  0  0  0  0
    5.1739   36.3317   44.4100 C   0  0  0  0  0  0  0  0  0  0  0  0
    5.3616   35.2063   43.4211 C   0  0  0  0  0  0  0  0  0  0  0  0
    4.7036   37.3248   42.2601 C   0  0  0  0  0  0  0  0  0  0  0  0
    6.1997   37.0100   42.0885 C   0  0  0  0  0  0  0  0  0  0  0  0
    6.5454   35.6051   42.5221 C   0  0  1  0  0  0  0  0  0  0  0  0
    7.7628   35.5431   43.3558 C   0  0  0  0  0  0  0  0  0  0  0  0
    8.3207   36.6004   43.9688 N   0  0  0  0  0  0  0  0  0  0  0  0
    9.4369   36.2795   44.5879 N   0  0  0  0  0  0  0  0  0  0  0  0
    9.6329   34.9763   44.3870 C   0  0  0  0  0  0  0  0  0  0  0  0
    8.5800   34.4696   43.6037 C   0  0  0  0  0  0  0  0  0  0  0  0
    8.4805   33.0684   43.2900 C   0  0  0  0  0  0  0  0  0  0  0  0
    9.5902   32.2273   43.7967 N   0  0  1  0  0  4  0  0  0  0  0  0
    9.3587   31.8695   45.1582 C   0  0  0  0  0  0  0  0  0  0  0  0
   10.0502   31.3178   42.8644 C   0  0  0  0  0  0  0  0  0  0  0  0
   11.4603   31.1212   42.5219 C   0  0  0  0  0  0  0  0  0  0  0  0
   11.9472   29.8322   42.1884 N   0  0  0  0  0  4  0  0  0  0  0  0
   11.7740   29.3525   40.8719 C   0  0  0  0  0  0  0  0  0  0  0  0
  1  2  1  0
  2  3  1  0
  3  4  1  0
  5  4  1  6
  5  6  1  0
  5 10  1  0
  5 12  1  0
  6  7  1  0
  7  8  1  0
  8  9  1  0
 10 11  1  0
 11 14  1  0
 12 13  1  0
 13 14  1  0
 14 15  1  1
 15 16  1  0
 15 19  2  0
 16 17  1  0
 17 18  2  0
 18 19  1  0
 19 20  1  0
 20 21  1  0
 21 22  1  1
 21 23  1  0
 23 24  1  0
 24 25  1  0
 25 26  1  0
M  CHG  2  21   1  25   1
M  END
$$$$
