
     RDKit          3D

 26 27  0  0  0  0  0  0  0  0999 V2000
    0.6605   36.3021   48.0210 C   0  0  0  0  0  0  0  0  0  0  0  0
    1.1831   37.1827   46.9296 C   0  0  0  0  0  0  0  0  0  0  0  0
    2.5653   37.0437   46.7266 O   0  0  0  0  0  0  0  0  0  0  0  0
    2.8730   37.8546   45.6375 C   0  0  0  0  0  0  0  0  0  0  0  0
    3.2935   37.0628   44.4414 C   0  0  1  0  0  0  0  0  0  0  0  0
    2.4619   37.5298   43.2672 C   0  0  0  0  0  0  0  0  0  0  0  0
    2.7768   38.8855   43.0889 O   0  0  0  0  0  0  0  0  0  0  0  0
    1.8418   39.5665   42.3420 C   0  0  0  0  0  0  0  0  0  0  0  0
    0.5958   39.9101   43.1391 C   0  0  0  0  0  0  0  0  0  0  0  0
    4.7742   37.2976   44.2058 C   0  0  0  0  0  0  0  0  0  0  0  0
    5.4876   36.3360   45.1254 C   0  0  0  0  0  0  0  0  0  0  0  0
    3.1269   35.6082   44.7175 C   0  0  0  0  0  0  0  0  0  0  0  0
    4.1394   34.7640   43.9243 C   0  0  0  0  0  0  0  0  0  0  0  0
    5.5609   34.9904   44.3819 C   0  0  1  0  0  0  0  0  0  0  0  0
    6.5056   35.1659   43.2604 C   0  0  0  0  0  0  0  0  0  0  0  0
    6.7163   36.3260   42.6166 N   0  0  0  0  0  0  0  0  0  0  0  0
    7.5557   36.1877   41.6124 N   0  0  0  0  0  0  0  0  0  0  0  0
    7.9179   34.9052   41.5814 C   0  0  0  0  0  0  0  0  0  0  0  0
    7.2672   34.2195   42.6232 C   0  0  0  0  0  0  0  0  0  0  0  0
    7.5263   32.8286   42.8877 C   0  0  0  0  0  0  0  0  0  0  0  0
    8.9499   32.4825   43.1100 N   0  0  1  0  0  4  0  0  0  0  0  0
    9.4595   33.1848   44.2424 C   0  0  0  0  0  0  0  0  0  0  0  0
    9.2241   31.1471   42.8872 C   0  0  0  0  0  0  0  0  0  0  0  0
    9.1160   30.4832   41.5865 C   0  0  0  0  0  0  0  0  0  0  0  0
    9.6466   29.1824   41.3959 N   0  0  0  0  0  4  0  0  0  0  0  0
    8.7614   28.1071   41.1642 C   0  0  0  0  0  0  0  0  0  0  0  0
  1  2  1  0
  2  3  1  0
  3  4  1  0
  5  4  1  1
  5  6  1  0
  5 10  1  0
  5 12  1  0
  6  7  1  0
  7  8  1  0
  8  9  1  0
 10 11  1  0
 11 14  1  0
 12 13  1  0
 13 14  1  0
 14 15  1  6
 15 16  1  0
 15 19  2  0
 16 17  1  0
 17 18  2  0
 18 19  1  0
 19 20  1  0
 20 21  1  0
 21 22  1  1
 21 23  1  0
 23 24  1  0
 24 25  1  0
 25 26  1  0
M  CHG  2  21   1  25   1
M  END
$$$$
