
     RDKit          3D

 26 27  0  0  0  0  0  0  0  0999 V2000
    1.3498   45.8475   59.6300 C   0  0  0  0  0  0  0  0  0  0  0  0
    1.0353   45.4191   58.2310 C   0  0  0  0  0  0  0  0  0  0  0  0
    2.1771   45.0601   57.4972 O   0  0  0  0  0  0  0  0  0  0  0  0
    2.6545   46.2410   56.9351 C   0  0  0  0  0  0  0  0  0  0  0  0
    4.0445   46.0957   56.4048 C   0  0  1  0  0  0  0  0  0  0  0  0
    3.9593   45.3392   55.0975 C   0  0  0  0  0  0  0  0  0  0  0  0
    3.3382   46.2103   54.1897 O   0  0  0  0  0  0  0  0  0  0  0  0
    3.7915   46.0622   52.8980 C   0  0  0  0  0  0  0  0  0  0  0  0
    3.0005   46.8931   51.9031 C   0  0  0  0  0  0  0  0  0  0  0  0
    4.6324   47.4813   56.2111 C   0  0  0  0  0  0  0  0  0  0  0  0
    5.1636   47.8881   57.5646 C   0  0  0  0  0  0  0  0  0  0  0  0
    4.8968   45.4032   57.4116 C   0  0  0  0  0  0  0  0  0  0  0  0
    6.3686   45.8365   57.2983 C   0  0  0  0  0  0  0  0  0  0  0  0
    6.5738   47.2828   57.6825 C   0  0  1  0  0  0  0  0  0  0  0  0
    7.4394   48.0130   56.7346 C   0  0  0  0  0  0  0  0  0  0  0  0
    7.9649   47.4812   55.6184 N   0  0  0  0  0  0  0  0  0  0  0  0
    8.7548   48.3280   54.9930 N   0  0  0  0  0  0  0  0  0  0  0  0
    8.7593   49.4550   55.7049 C   0  0  0  0  0  0  0  0  0  0  0  0
    7.9265   49.2920   56.8270 C   0  0  0  0  0  0  0  0  0  0  0  0
    7.6722   50.3745   57.7408 C   0  0  0  0  0  0  0  0  0  0  0  0
    8.8483   51.2145   58.0678 N   0  0  1  0  0  4  0  0  0  0  0  0
    9.2664   51.9502   56.9193 C   0  0  0  0  0  0  0  0  0  0  0  0
    8.7727   51.7879   59.3222 C   0  0  0  0  0  0  0  0  0  0  0  0
    8.6767   53.2275   59.5725 C   0  0  0  0  0  0  0  0  0  0  0  0
    7.7453   53.7341   60.5137 N   0  0  0  0  0  4  0  0  0  0  0  0
    8.2214   54.2706   61.7299 C   0  0  0  0  0  0  0  0  0  0  0  0
  1  2  1  0
  2  3  1  0
  3  4  1  0
  5  4  1  1
  5  6  1  0
  5 10  1  0
  5 12  1  0
  6  7  1  0
  7  8  1  0
  8  9  1  0
 10 11  1  0
 11 14  1  0
 12 13  1  0
 13 14  1  0
 14 15  1  6
 15 16  1  0
 15 19  2  0
 16 17  1  0
 17 18  2  0
 18 19  1  0
 19 20  1  0
 20 21  1  0
 21 22  1  6
 21 23  1  0
 23 24  1  0
 24 25  1  0
 25 26  1  0
M  CHG  2  21   1  25   1
M  END
$$$$
