
     RDKit          3D

 26 27  0  0  0  0  0  0  0  0999 V2000
   -0.5606   44.6710   55.2135 C   0  0  0  0  0  0  0  0  0  0  0  0
    0.6116   45.4907   54.7731 C   0  0  0  0  0  0  0  0  0  0  0  0
    1.6089   45.5948   55.7558 O   0  0  0  0  0  0  0  0  0  0  0  0
    1.4668   46.8648   56.3084 C   0  0  0  0  0  0  0  0  0  0  0  0
    2.5578   47.7939   55.8829 C   0  0  1  0  0  0  0  0  0  0  0  0
    1.9349   49.1506   55.6386 C   0  0  0  0  0  0  0  0  0  0  0  0
    1.6864   49.6932   56.9084 O   0  0  0  0  0  0  0  0  0  0  0  0
    1.2229   50.9890   56.8642 C   0  0  0  0  0  0  0  0  0  0  0  0
   -0.0451   51.1834   57.6767 C   0  0  0  0  0  0  0  0  0  0  0  0
    3.6000   47.8480   56.9848 C   0  0  0  0  0  0  0  0  0  0  0  0
    4.4933   46.6526   56.7556 C   0  0  0  0  0  0  0  0  0  0  0  0
    3.2377   47.2507   54.6736 C   0  0  0  0  0  0  0  0  0  0  0  0
    4.7105   47.6905   54.6091 C   0  0  0  0  0  0  0  0  0  0  0  0
    5.5417   47.0817   55.7135 C   0  0  1  0  0  0  0  0  0  0  0  0
    6.4309   48.0603   56.3711 C   0  0  0  0  0  0  0  0  0  0  0  0
    6.4424   49.3773   56.1059 N   0  0  0  0  0  0  0  0  0  0  0  0
    7.3793   50.0085   56.7811 N   0  0  0  0  0  0  0  0  0  0  0  0
    8.0114   49.0946   57.5176 C   0  0  0  0  0  0  0  0  0  0  0  0
    7.4305   47.8349   57.2831 C   0  0  0  0  0  0  0  0  0  0  0  0
    7.8556   46.6630   58.0024 C   0  0  0  0  0  0  0  0  0  0  0  0
    9.2900   46.3196   57.8592 N   0  0  1  0  0  4  0  0  0  0  0  0
    9.9460   46.3949   59.1238 C   0  0  0  0  0  0  0  0  0  0  0  0
    9.5132   45.2826   56.9744 C   0  0  0  0  0  0  0  0  0  0  0  0
   10.8028   44.9918   56.3446 C   0  0  0  0  0  0  0  0  0  0  0  0
   11.0684   43.7067   55.8080 N   0  0  0  0  0  4  0  0  0  0  0  0
   11.4018   43.5892   54.4411 C   0  0  0  0  0  0  0  0  0  0  0  0
  1  2  1  0
  2  3  1  0
  3  4  1  0
  5  4  1  1
  5  6  1  0
  5 10  1  0
  5 12  1  0
  6  7  1  0
  7  8  1  0
  8  9  1  0
 10 11  1  0
 11 14  1  0
 12 13  1  0
 13 14  1  0
 14 15  1  1
 15 16  1  0
 15 19  2  0
 16 17  1  0
 17 18  2  0
 18 19  1  0
 19 20  1  0
 20 21  1  0
 21 22  1  1
 21 23  1  0
 23 24  1  0
 24 25  1  0
 25 26  1  0
M  CHG  2  21   1  25   1
M  END
$$$$
