
     RDKit          3D

 26 27  0  0  0  0  0  0  0  0999 V2000
    1.6945   47.7348   57.0533 C   0  0  0  0  0  0  0  0  0  0  0  0
    1.5043   49.1781   57.4006 C   0  0  0  0  0  0  0  0  0  0  0  0
    2.7135   49.8867   57.4833 O   0  0  0  0  0  0  0  0  0  0  0  0
    3.6699   49.0787   56.8743 C   0  0  0  0  0  0  0  0  0  0  0  0
    4.8460   48.8246   57.7612 C   0  0  1  0  0  0  0  0  0  0  0  0
    4.5121   47.6364   58.6358 C   0  0  0  0  0  0  0  0  0  0  0  0
    5.3087   46.5800   58.1685 O   0  0  0  0  0  0  0  0  0  0  0  0
    4.6854   45.8126   57.2101 C   0  0  0  0  0  0  0  0  0  0  0  0
    5.6360   44.8438   56.5292 C   0  0  0  0  0  0  0  0  0  0  0  0
    6.0569   48.5526   56.8877 C   0  0  0  0  0  0  0  0  0  0  0  0
    6.5994   49.9111   56.5140 C   0  0  0  0  0  0  0  0  0  0  0  0
    5.1525   50.0490   58.5527 C   0  0  0  0  0  0  0  0  0  0  0  0
    6.6494   50.1383   58.8968 C   0  0  0  0  0  0  0  0  0  0  0  0
    7.5089   50.3546   57.6738 C   0  0  1  0  0  0  0  0  0  0  0  0
    8.7013   49.4837   57.6468 C   0  0  0  0  0  0  0  0  0  0  0  0
    8.7444   48.2359   58.1428 N   0  0  0  0  0  0  0  0  0  0  0  0
    9.9475   47.7103   58.0525 N   0  0  0  0  0  0  0  0  0  0  0  0
   10.7307   48.6257   57.4817 C   0  0  0  0  0  0  0  0  0  0  0  0
    9.9671   49.7746   57.2056 C   0  0  0  0  0  0  0  0  0  0  0  0
   10.5291   50.9051   56.5144 C   0  0  0  0  0  0  0  0  0  0  0  0
   11.2759   51.8594   57.3672 N   0  0  1  0  0  4  0  0  0  0  0  0
   12.5126   52.2126   56.7498 C   0  0  0  0  0  0  0  0  0  0  0  0
   10.4617   52.7961   57.9736 C   0  0  0  0  0  0  0  0  0  0  0  0
   10.9460   53.9822   58.6827 C   0  0  0  0  0  0  0  0  0  0  0  0
   10.1695   55.1679   58.7167 N   0  0  0  0  0  4  0  0  0  0  0  0
    9.9768   55.8270   59.9503 C   0  0  0  0  0  0  0  0  0  0  0  0
  1  2  1  0
  2  3  1  0
  3  4  1  0
  5  4  1  6
  5  6  1  0
  5 10  1  0
  5 12  1  0
  6  7  1  0
  7  8  1  0
  8  9  1  0
 10 11  1  0
 11 14  1  0
 12 13  1  0
 13 14  1  0
 14 15  1  1
 15 16  1  0
 15 19  2  0
 16 17  1  0
 17 18  2  0
 18 19  1  0
 19 20  1  0
 20 21  1  0
 21 22  1  6
 21 23  1  0
 23 24  1  0
 24 25  1  0
 25 26  1  0
M  CHG  2  21   1  25   1
M  END
$$$$
