
     RDKit          3D

 43 46  0  0  0  0  0  0  0  0999 V2000
   70.5518   57.1982   15.0727 C   0  0  1  0  0  0  0  0  0  0  0  0
   70.3562   57.7113   16.4506 C   0  0  2  0  0  0  0  0  0  0  0  0
   72.1139   58.4280   18.1001 C   0  0  0  0  0  0  0  0  0  0  0  0
   73.9921   59.6462   19.1849 C   0  0  1  0  0  0  0  0  0  0  0  0
   74.6806   60.7960   18.4931 C   0  0  0  0  0  0  0  0  0  0  0  0
   73.5722   61.6912   20.2146 C   0  0  1  0  0  0  0  0  0  0  0  0
   71.6726   62.2777   19.2196 C   0  0  0  0  0  0  0  0  0  0  0  0
   69.0422   58.2942   16.7816 C   0  0  0  0  0  0  0  0  0  0  0  0
   66.3941   51.4441   14.3160 C   0  0  0  0  0  0  0  0  0  0  0  0
   66.4207   52.7169   13.7937 C   0  0  0  0  0  0  0  0  0  0  0  0
   67.6078   53.3976   13.5932 C   0  0  0  0  0  0  0  0  0  0  0  0
   68.7989   52.7875   13.9253 C   0  0  0  0  0  0  0  0  0  0  0  0
   68.8016   51.5165   14.4483 C   0  0  0  0  0  0  0  0  0  0  0  0
   67.5861   50.8466   14.6425 C   0  0  0  0  0  0  0  0  0  0  0  0
   71.2201   54.1658   16.0705 C   0  0  0  0  0  0  0  0  0  0  0  0
   69.9420   55.8660   14.8426 C   0  0  0  0  0  0  0  0  0  0  0  0
   72.8779   60.3803   19.9226 C   0  0  1  0  0  0  0  0  0  0  0  0
   71.7597   60.7799   19.0189 C   0  0  0  0  0  0  0  0  0  0  0  0
   68.7844   58.7953   18.1131 C   0  0  0  0  0  0  0  0  0  0  0  0
   68.4864   57.8560   19.1086 C   0  0  0  0  0  0  0  0  0  0  0  0
   68.1856   58.1894   20.4019 C   0  0  0  0  0  0  0  0  0  0  0  0
   68.1648   59.5005   20.7796 C   0  0  0  0  0  0  0  0  0  0  0  0
   68.4496   60.4676   19.8452 C   0  0  0  0  0  0  0  0  0  0  0  0
   68.7545   60.1013   18.5283 C   0  0  0  0  0  0  0  0  0  0  0  0
   64.8566   49.9032   13.2629 C   0  0  0  0  0  0  0  0  0  0  0  0
   74.4697   52.1811   16.7723 C   0  0  0  0  0  0  0  0  0  0  0  0
   72.6593   53.7179   16.0048 C   0  0  2  0  0  0  0  0  0  0  0  0
   73.0334   52.6362   16.9549 C   0  0  0  0  0  0  0  0  0  0  0  0
   73.6143   54.8719   16.2430 C   0  0  0  0  0  0  0  0  0  0  0  0
   65.0892   50.7837   14.4957 C   0  0  2  0  0  0  0  0  0  0  0  0
   75.0102   54.3622   16.4385 C   0  0  0  0  0  0  0  0  0  0  0  0
   70.7336   54.7176   14.8886 N   0  0  0  0  0  0  0  0  0  0  0  0
   71.4692   58.5562   16.8597 N   0  0  0  0  0  0  0  0  0  0  0  0
   70.3563   54.3195   12.3554 O   0  0  0  0  0  0  0  0  0  0  0  0
   71.3701   52.5312   13.6011 O   0  0  0  0  0  0  0  0  0  0  0  0
   70.2086   58.1488   14.1327 O   0  0  0  0  0  0  0  0  0  0  0  0
   71.4619   58.0301   19.1015 O   0  0  0  0  0  0  0  0  0  0  0  0
   73.4498   58.7132   18.3129 O   0  0  0  0  0  0  0  0  0  0  0  0
   74.3959   61.9578   19.1573 O   0  0  0  0  0  0  0  0  0  0  0  0
   72.4857   62.5624   20.3244 O   0  0  0  0  0  0  0  0  0  0  0  0
   63.6547   49.2313   13.4263 O   0  0  0  0  0  0  0  0  0  0  0  0
   64.0965   51.7304   14.6382 O   0  0  0  0  0  0  0  0  0  0  0  0
   70.3186   53.5978   13.6825 S   0  0  2  0  0  6  0  0  0  0  0  0
  1  2  1  0
 16  1  1  0
  1 36  1  6
  2  8  1  6
  2 33  1  0
 33  3  1  0
  3 37  2  0
  3 38  1  0
  4  5  1  0
  4 17  1  0
  4 38  1  6
  5 39  1  0
 17  6  1  0
  6 39  1  6
  6 40  1  0
 18  7  1  0
  7 40  1  0
  8 19  1  0
 10  9  2  0
 14  9  1  0
  9 30  1  0
 11 10  1  0
 12 11  2  0
 12 13  1  0
 43 12  1  0
 13 14  2  0
 27 15  1  1
 32 15  1  0
 32 16  1  0
 17 18  1  6
 19 20  2  0
 19 24  1  0
 20 21  1  0
 21 22  2  0
 23 22  1  0
 24 23  2  0
 30 25  1  0
 25 41  1  0
 28 26  1  0
 27 28  1  0
 27 29  1  0
 29 31  1  0
 30 42  1  6
 43 32  1  1
 43 34  2  0
 43 35  2  0
M  END
$$$$
