
     RDKit          3D

 43 46  0  0  0  0  0  0  0  0999 V2000
   72.0721   55.6013   17.3703 C   0  0  1  0  0  0  0  0  0  0  0  0
   71.3416   56.8001   17.8493 C   0  0  2  0  0  0  0  0  0  0  0  0
   72.4798   58.9085   18.6129 C   0  0  0  0  0  0  0  0  0  0  0  0
   74.3566   60.2407   19.5571 C   0  0  1  0  0  0  0  0  0  0  0  0
   75.1498   61.4725   19.1994 C   0  0  0  0  0  0  0  0  0  0  0  0
   74.4361   61.7894   21.2931 C   0  0  1  0  0  0  0  0  0  0  0  0
   72.5650   62.9309   20.9207 C   0  0  0  0  0  0  0  0  0  0  0  0
   69.9201   56.9272   17.4764 C   0  0  0  0  0  0  0  0  0  0  0  0
   66.3501   51.8992   13.7035 C   0  0  0  0  0  0  0  0  0  0  0  0
   66.7633   51.7255   15.0046 C   0  0  0  0  0  0  0  0  0  0  0  0
   67.5308   52.6725   15.6580 C   0  0  0  0  0  0  0  0  0  0  0  0
   67.8941   53.8229   14.9904 C   0  0  0  0  0  0  0  0  0  0  0  0
   67.4948   54.0225   13.6904 C   0  0  0  0  0  0  0  0  0  0  0  0
   66.7175   53.0486   13.0491 C   0  0  0  0  0  0  0  0  0  0  0  0
   70.9163   54.4408   14.2891 C   0  0  0  0  0  0  0  0  0  0  0  0
   71.1984   54.5918   16.7242 C   0  0  0  0  0  0  0  0  0  0  0  0
   73.4890   60.7767   20.6905 C   0  0  1  0  0  0  0  0  0  0  0  0
   72.3587   61.6171   20.1977 C   0  0  0  0  0  0  0  0  0  0  0  0
   69.0278   57.7334   18.2789 C   0  0  0  0  0  0  0  0  0  0  0  0
   68.9162   57.4126   19.6379 C   0  0  0  0  0  0  0  0  0  0  0  0
   68.0835   58.0656   20.5066 C   0  0  0  0  0  0  0  0  0  0  0  0
   67.3027   59.0916   20.0597 C   0  0  0  0  0  0  0  0  0  0  0  0
   67.3699   59.4516   18.7348 C   0  0  0  0  0  0  0  0  0  0  0  0
   68.2297   58.7685   17.8657 C   0  0  0  0  0  0  0  0  0  0  0  0
   66.4842   49.7175   12.6695 C   0  0  0  0  0  0  0  0  0  0  0  0
   73.6691   53.9819   16.2505 C   0  0  0  0  0  0  0  0  0  0  0  0
   72.1643   53.5933   14.2977 C   0  0  2  0  0  0  0  0  0  0  0  0
   73.3930   54.2743   14.7871 C   0  0  0  0  0  0  0  0  0  0  0  0
   72.4765   53.0453   12.9182 C   0  0  0  0  0  0  0  0  0  0  0  0
   65.5310   50.8460   13.0782 C   0  0  2  0  0  0  0  0  0  0  0  0
   73.6893   52.1662   12.9681 C   0  0  0  0  0  0  0  0  0  0  0  0
   70.5253   54.9041   15.5423 N   0  0  0  0  0  0  0  0  0  0  0  0
   72.1034   58.0150   17.5976 N   0  0  0  0  0  0  0  0  0  0  0  0
   68.5931   55.0860   17.2603 O   0  0  0  0  0  0  0  0  0  0  0  0
   68.3795   56.3693   15.2392 O   0  0  0  0  0  0  0  0  0  0  0  0
   73.1775   55.9555   16.6236 O   0  0  0  0  0  0  0  0  0  0  0  0
   71.8168   58.9486   19.6830 O   0  0  0  0  0  0  0  0  0  0  0  0
   73.5548   59.7733   18.5257 O   0  0  0  0  0  0  0  0  0  0  0  0
   75.1596   62.3285   20.2668 O   0  0  0  0  0  0  0  0  0  0  0  0
   73.5438   62.6822   21.8918 O   0  0  0  0  0  0  0  0  0  0  0  0
   66.0085   49.1463   11.4989 O   0  0  0  0  0  0  0  0  0  0  0  0
   64.8538   51.3576   11.9910 O   0  0  0  0  0  0  0  0  0  0  0  0
   68.8497   55.0483   15.7717 S   0  0  2  0  0  6  0  0  0  0  0  0
  1  2  1  0
 16  1  1  0
  1 36  1  6
  2  8  1  6
  2 33  1  0
 33  3  1  0
  3 37  2  0
  3 38  1  0
  4  5  1  0
  4 17  1  0
  4 38  1  6
  5 39  1  0
 17  6  1  0
  6 39  1  6
  6 40  1  0
 18  7  1  0
  7 40  1  0
  8 19  1  0
 10  9  2  0
 14  9  1  0
  9 30  1  0
 11 10  1  0
 12 11  2  0
 12 13  1  0
 43 12  1  0
 13 14  2  0
 27 15  1  6
 32 15  1  0
 32 16  1  0
 17 18  1  6
 19 20  2  0
 19 24  1  0
 20 21  1  0
 21 22  2  0
 23 22  1  0
 24 23  2  0
 30 25  1  0
 25 41  1  0
 28 26  1  0
 27 28  1  0
 27 29  1  0
 29 31  1  0
 30 42  1  6
 43 32  1  1
 43 34  2  0
 43 35  2  0
M  END
$$$$
