
     RDKit          3D

 43 46  0  0  0  0  0  0  0  0999 V2000
   71.0235   57.2490   15.6489 C   0  0  1  0  0  0  0  0  0  0  0  0
   70.5564   58.0809   16.7846 C   0  0  2  0  0  0  0  0  0  0  0  0
   72.7512   58.0148   18.0103 C   0  0  0  0  0  0  0  0  0  0  0  0
   74.2014   59.1899   19.6549 C   0  0  1  0  0  0  0  0  0  0  0  0
   74.6810   60.0594   18.5198 C   0  0  0  0  0  0  0  0  0  0  0  0
   74.4414   61.4204   20.2759 C   0  0  1  0  0  0  0  0  0  0  0  0
   72.3781   62.1740   19.9328 C   0  0  0  0  0  0  0  0  0  0  0  0
   69.4278   58.9986   16.5394 C   0  0  0  0  0  0  0  0  0  0  0  0
   67.5032   50.3193   14.0591 C   0  0  0  0  0  0  0  0  0  0  0  0
   66.8778   51.4974   13.7206 C   0  0  0  0  0  0  0  0  0  0  0  0
   67.2640   52.7094   14.2634 C   0  0  0  0  0  0  0  0  0  0  0  0
   68.3032   52.7418   15.1691 C   0  0  0  0  0  0  0  0  0  0  0  0
   68.9459   51.5801   15.5246 C   0  0  0  0  0  0  0  0  0  0  0  0
   68.5368   50.3638   14.9614 C   0  0  0  0  0  0  0  0  0  0  0  0
   70.5903   54.3267   13.9371 C   0  0  0  0  0  0  0  0  0  0  0  0
   70.8902   55.7910   15.8861 C   0  0  0  0  0  0  0  0  0  0  0  0
   73.5524   60.2310   20.5601 C   0  0  1  0  0  0  0  0  0  0  0  0
   72.2186   60.6739   20.0584 C   0  0  0  0  0  0  0  0  0  0  0  0
   68.7472   59.6261   17.6500 C   0  0  0  0  0  0  0  0  0  0  0  0
   69.1848   59.3014   18.9404 C   0  0  0  0  0  0  0  0  0  0  0  0
   68.6101   59.7904   20.0828 C   0  0  0  0  0  0  0  0  0  0  0  0
   67.5491   60.6444   19.9992 C   0  0  0  0  0  0  0  0  0  0  0  0
   67.0757   60.9993   18.7585 C   0  0  0  0  0  0  0  0  0  0  0  0
   67.6806   60.4859   17.6045 C   0  0  0  0  0  0  0  0  0  0  0  0
   67.6407   49.0162   12.0268 C   0  0  0  0  0  0  0  0  0  0  0  0
   73.5925   52.5355   15.5789 C   0  0  0  0  0  0  0  0  0  0  0  0
   71.9756   53.7596   14.1241 C   0  0  2  0  0  0  0  0  0  0  0  0
   72.3140   53.3507   15.5138 C   0  0  0  0  0  0  0  0  0  0  0  0
   73.0444   54.7368   13.6731 C   0  0  0  0  0  0  0  0  0  0  0  0
   67.0361   49.0693   13.4342 C   0  0  2  0  0  0  0  0  0  0  0  0
   74.0566   54.0427   12.8128 C   0  0  0  0  0  0  0  0  0  0  0  0
   70.0953   55.0152   15.0413 N   0  0  0  0  0  0  0  0  0  0  0  0
   71.6743   58.7262   17.4581 N   0  0  0  0  0  0  0  0  0  0  0  0
   69.2733   54.0579   17.3053 O   0  0  0  0  0  0  0  0  0  0  0  0
   67.6352   55.1438   15.9214 O   0  0  0  0  0  0  0  0  0  0  0  0
   70.4795   57.6814   14.4565 O   0  0  0  0  0  0  0  0  0  0  0  0
   73.3075   57.1074   17.3370 O   0  0  0  0  0  0  0  0  0  0  0  0
   73.2635   58.2410   19.2742 O   0  0  0  0  0  0  0  0  0  0  0  0
   74.8064   61.3486   18.9610 O   0  0  0  0  0  0  0  0  0  0  0  0
   73.5855   62.4840   20.5724 O   0  0  0  0  0  0  0  0  0  0  0  0
   68.2204   47.7693   11.8471 O   0  0  0  0  0  0  0  0  0  0  0  0
   65.6576   49.0469   13.3960 O   0  0  0  0  0  0  0  0  0  0  0  0
   68.8328   54.2421   15.8716 S   0  0  2  0  0  6  0  0  0  0  0  0
  1  2  1  0
 16  1  1  0
  1 36  1  6
  2  8  1  6
  2 33  1  0
 33  3  1  0
  3 37  2  0
  3 38  1  0
  4  5  1  0
  4 17  1  0
  4 38  1  6
  5 39  1  0
 17  6  1  0
  6 39  1  6
  6 40  1  0
 18  7  1  0
  7 40  1  0
  8 19  1  0
 10  9  2  0
 14  9  1  0
  9 30  1  0
 11 10  1  0
 12 11  2  0
 12 13  1  0
 43 12  1  0
 13 14  2  0
 27 15  1  1
 32 15  1  0
 32 16  1  0
 17 18  1  6
 19 20  2  0
 19 24  1  0
 20 21  1  0
 21 22  2  0
 23 22  1  0
 24 23  2  0
 30 25  1  0
 25 41  1  0
 28 26  1  0
 27 28  1  0
 27 29  1  0
 29 31  1  0
 30 42  1  6
 43 32  1  6
 43 34  2  0
 43 35  2  0
M  END
$$$$
