
     RDKit          3D

 43 46  0  0  0  0  0  0  0  0999 V2000
   71.0386   57.3643   15.7622 C   0  0  1  0  0  0  0  0  0  0  0  0
   70.8360   58.1940   16.9749 C   0  0  2  0  0  0  0  0  0  0  0  0
   73.0221   58.2983   18.2134 C   0  0  0  0  0  0  0  0  0  0  0  0
   74.8475   59.8484   18.8871 C   0  0  1  0  0  0  0  0  0  0  0  0
   75.0177   61.0097   17.9401 C   0  0  0  0  0  0  0  0  0  0  0  0
   74.2236   61.8787   19.8395 C   0  0  1  0  0  0  0  0  0  0  0  0
   72.0433   61.8915   19.4052 C   0  0  0  0  0  0  0  0  0  0  0  0
   69.6590   59.0826   17.0049 C   0  0  0  0  0  0  0  0  0  0  0  0
   66.7270   51.3157   13.5632 C   0  0  0  0  0  0  0  0  0  0  0  0
   66.5036   52.6428   13.2758 C   0  0  0  0  0  0  0  0  0  0  0  0
   67.1451   53.6556   13.9655 C   0  0  0  0  0  0  0  0  0  0  0  0
   68.0326   53.3303   14.9693 C   0  0  0  0  0  0  0  0  0  0  0  0
   68.2749   52.0129   15.2768 C   0  0  0  0  0  0  0  0  0  0  0  0
   67.6130   51.0039   14.5643 C   0  0  0  0  0  0  0  0  0  0  0  0
   70.9912   54.0683   14.4100 C   0  0  0  0  0  0  0  0  0  0  0  0
   71.0641   55.9070   16.0367 C   0  0  0  0  0  0  0  0  0  0  0  0
   73.8250   60.4205   19.8626 C   0  0  1  0  0  0  0  0  0  0  0  0
   72.4429   60.4353   19.2999 C   0  0  0  0  0  0  0  0  0  0  0  0
   69.0504   59.4399   18.2669 C   0  0  0  0  0  0  0  0  0  0  0  0
   68.1467   58.5282   18.8274 C   0  0  0  0  0  0  0  0  0  0  0  0
   67.4697   58.7510   19.9963 C   0  0  0  0  0  0  0  0  0  0  0  0
   67.6599   59.9155   20.6817 C   0  0  0  0  0  0  0  0  0  0  0  0
   68.5358   60.8485   20.1799 C   0  0  0  0  0  0  0  0  0  0  0  0
   69.2167   60.5974   18.9822 C   0  0  0  0  0  0  0  0  0  0  0  0
   66.5388   50.3718   11.3449 C   0  0  0  0  0  0  0  0  0  0  0  0
   72.6676   52.2737   12.7701 C   0  0  0  0  0  0  0  0  0  0  0  0
   72.4959   54.0473   14.5175 C   0  0  2  0  0  0  0  0  0  0  0  0
   73.1446   52.7681   14.1234 C   0  0  0  0  0  0  0  0  0  0  0  0
   72.9594   54.3682   15.9256 C   0  0  0  0  0  0  0  0  0  0  0  0
   66.0080   50.2950   12.7807 C   0  0  2  0  0  0  0  0  0  0  0  0
   74.0553   53.4335   16.3400 C   0  0  0  0  0  0  0  0  0  0  0  0
   70.3697   55.0270   15.2055 N   0  0  0  0  0  0  0  0  0  0  0  0
   72.0661   58.8712   17.3599 N   0  0  0  0  0  0  0  0  0  0  0  0
   69.1051   54.1567   17.2939 O   0  0  0  0  0  0  0  0  0  0  0  0
   67.9592   55.7562   15.9133 O   0  0  0  0  0  0  0  0  0  0  0  0
   70.1738   57.7361   14.7529 O   0  0  0  0  0  0  0  0  0  0  0  0
   72.6886   57.3515   18.9741 O   0  0  0  0  0  0  0  0  0  0  0  0
   74.3413   58.7056   18.2848 O   0  0  0  0  0  0  0  0  0  0  0  0
   74.6415   62.1646   18.5702 O   0  0  0  0  0  0  0  0  0  0  0  0
   73.0249   62.5000   20.1983 O   0  0  0  0  0  0  0  0  0  0  0  0
   67.4461   49.3398   11.1587 O   0  0  0  0  0  0  0  0  0  0  0  0
   64.6499   50.5297   12.8332 O   0  0  0  0  0  0  0  0  0  0  0  0
   68.8719   54.5672   15.8584 S   0  0  2  0  0  6  0  0  0  0  0  0
  1  2  1  0
 16  1  1  0
  1 36  1  6
  2  8  1  6
  2 33  1  0
 33  3  1  0
  3 37  2  0
  3 38  1  0
  4  5  1  0
  4 17  1  0
  4 38  1  6
  5 39  1  0
 17  6  1  0
  6 39  1  6
  6 40  1  0
 18  7  1  0
  7 40  1  0
  8 19  1  0
 10  9  2  0
 14  9  1  0
  9 30  1  0
 11 10  1  0
 12 11  2  0
 12 13  1  0
 43 12  1  0
 13 14  2  0
 27 15  1  1
 32 15  1  0
 32 16  1  0
 17 18  1  6
 19 20  2  0
 19 24  1  0
 20 21  1  0
 21 22  2  0
 23 22  1  0
 24 23  2  0
 30 25  1  0
 25 41  1  0
 28 26  1  0
 27 28  1  0
 27 29  1  0
 29 31  1  0
 30 42  1  6
 43 32  1  6
 43 34  2  0
 43 35  2  0
M  END
$$$$
