
     RDKit          3D

 43 46  0  0  0  0  0  0  0  0999 V2000
   70.8896   57.0291   14.7704 C   0  0  1  0  0  0  0  0  0  0  0  0
   70.6393   57.6010   16.1159 C   0  0  2  0  0  0  0  0  0  0  0  0
   72.1523   58.8274   17.7067 C   0  0  0  0  0  0  0  0  0  0  0  0
   73.9397   59.7729   19.1558 C   0  0  1  0  0  0  0  0  0  0  0  0
   74.9863   60.8586   19.1334 C   0  0  0  0  0  0  0  0  0  0  0  0
   74.0956   60.9077   21.1822 C   0  0  1  0  0  0  0  0  0  0  0  0
   72.5296   62.4625   20.9119 C   0  0  0  0  0  0  0  0  0  0  0  0
   69.2526   57.9762   16.4507 C   0  0  0  0  0  0  0  0  0  0  0  0
   66.5251   52.0993   13.3151 C   0  0  0  0  0  0  0  0  0  0  0  0
   66.3279   53.3087   13.9413 C   0  0  0  0  0  0  0  0  0  0  0  0
   67.2563   53.8329   14.8223 C   0  0  0  0  0  0  0  0  0  0  0  0
   68.4116   53.1270   15.0830 C   0  0  0  0  0  0  0  0  0  0  0  0
   68.6344   51.9166   14.4710 C   0  0  0  0  0  0  0  0  0  0  0  0
   67.6791   51.4056   13.5821 C   0  0  0  0  0  0  0  0  0  0  0  0
   72.0391   54.7274   16.1802 C   0  0  0  0  0  0  0  0  0  0  0  0
   70.3865   55.6431   14.6108 C   0  0  0  0  0  0  0  0  0  0  0  0
   73.0564   60.2489   20.3037 C   0  0  1  0  0  0  0  0  0  0  0  0
   72.1710   61.3844   19.9117 C   0  0  0  0  0  0  0  0  0  0  0  0
   68.9206   58.4111   17.7890 C   0  0  0  0  0  0  0  0  0  0  0  0
   68.9045   59.7904   18.0328 C   0  0  0  0  0  0  0  0  0  0  0  0
   68.6440   60.3420   19.2585 C   0  0  0  0  0  0  0  0  0  0  0  0
   68.3811   59.5343   20.3265 C   0  0  0  0  0  0  0  0  0  0  0  0
   68.3828   58.1714   20.1474 C   0  0  0  0  0  0  0  0  0  0  0  0
   68.6521   57.6311   18.8838 C   0  0  0  0  0  0  0  0  0  0  0  0
   64.3643   51.0165   13.2397 C   0  0  0  0  0  0  0  0  0  0  0  0
   71.9659   52.6490   14.2650 C   0  0  0  0  0  0  0  0  0  0  0  0
   73.2975   54.4255   15.4048 C   0  0  2  0  0  0  0  0  0  0  0  0
   73.3352   53.0923   14.7463 C   0  0  0  0  0  0  0  0  0  0  0  0
   74.5310   54.5258   16.2819 C   0  0  0  0  0  0  0  0  0  0  0  0
   65.4908   51.6102   12.3866 C   0  0  2  0  0  0  0  0  0  0  0  0
   75.7713   54.5224   15.4404 C   0  0  0  0  0  0  0  0  0  0  0  0
   70.8660   54.6260   15.4373 N   0  0  0  0  0  0  0  0  0  0  0  0
   71.6002   58.6493   16.4284 N   0  0  0  0  0  0  0  0  0  0  0  0
   70.2475   52.6443   16.9892 O   0  0  0  0  0  0  0  0  0  0  0  0
   68.8954   54.6245   17.1579 O   0  0  0  0  0  0  0  0  0  0  0  0
   70.4854   57.8969   13.7761 O   0  0  0  0  0  0  0  0  0  0  0  0
   71.6901   58.1751   18.6799 O   0  0  0  0  0  0  0  0  0  0  0  0
   73.1959   59.6895   17.9875 O   0  0  0  0  0  0  0  0  0  0  0  0
   75.0260   61.4721   20.3558 O   0  0  0  0  0  0  0  0  0  0  0  0
   73.3196   61.8340   21.8834 O   0  0  0  0  0  0  0  0  0  0  0  0
   63.5341   50.2753   12.4124 O   0  0  0  0  0  0  0  0  0  0  0  0
   66.0294   50.6713   11.5318 O   0  0  0  0  0  0  0  0  0  0  0  0
   69.6142   53.7486   16.1750 S   0  0  2  0  0  6  0  0  0  0  0  0
  1  2  1  0
 16  1  1  0
  1 36  1  6
  2  8  1  6
  2 33  1  0
 33  3  1  0
  3 37  2  0
  3 38  1  0
  4  5  1  0
  4 17  1  0
  4 38  1  6
  5 39  1  0
 17  6  1  0
  6 39  1  6
  6 40  1  0
 18  7  1  0
  7 40  1  0
  8 19  1  0
 10  9  2  0
 14  9  1  0
  9 30  1  0
 11 10  1  0
 12 11  2  0
 12 13  1  0
 43 12  1  0
 13 14  2  0
 27 15  1  1
 32 15  1  0
 32 16  1  0
 17 18  1  6
 19 20  2  0
 19 24  1  0
 20 21  1  0
 21 22  2  0
 23 22  1  0
 24 23  2  0
 30 25  1  0
 25 41  1  0
 28 26  1  0
 27 28  1  0
 27 29  1  0
 29 31  1  0
 30 42  1  6
 43 32  1  6
 43 34  2  0
 43 35  2  0
M  END
$$$$
