
     RDKit          3D

 43 46  0  0  0  0  0  0  0  0999 V2000
   70.7687   56.9828   15.6574 C   0  0  1  0  0  0  0  0  0  0  0  0
   70.8596   57.8607   16.8496 C   0  0  2  0  0  0  0  0  0  0  0  0
   72.5975   59.2027   18.0753 C   0  0  0  0  0  0  0  0  0  0  0  0
   74.4107   60.2893   19.3868 C   0  0  1  0  0  0  0  0  0  0  0  0
   75.1629   61.5097   18.9184 C   0  0  0  0  0  0  0  0  0  0  0  0
   73.9496   62.1736   20.6735 C   0  0  1  0  0  0  0  0  0  0  0  0
   72.1335   62.9449   19.6491 C   0  0  0  0  0  0  0  0  0  0  0  0
   69.7630   58.8212   17.0749 C   0  0  0  0  0  0  0  0  0  0  0  0
   66.7342   51.0838   12.8435 C   0  0  0  0  0  0  0  0  0  0  0  0
   67.8020   50.5487   13.5272 C   0  0  0  0  0  0  0  0  0  0  0  0
   68.5406   51.2969   14.4258 C   0  0  0  0  0  0  0  0  0  0  0  0
   68.2010   52.6153   14.6445 C   0  0  0  0  0  0  0  0  0  0  0  0
   67.1389   53.1751   13.9756 C   0  0  0  0  0  0  0  0  0  0  0  0
   66.4053   52.3971   13.0697 C   0  0  0  0  0  0  0  0  0  0  0  0
   71.0055   54.0434   14.0468 C   0  0  0  0  0  0  0  0  0  0  0  0
   70.7713   55.5359   15.9833 C   0  0  0  0  0  0  0  0  0  0  0  0
   73.2584   60.9363   20.1471 C   0  0  1  0  0  0  0  0  0  0  0  0
   72.2124   61.4901   19.2382 C   0  0  0  0  0  0  0  0  0  0  0  0
   69.5094   59.3361   18.4019 C   0  0  0  0  0  0  0  0  0  0  0  0
   69.2694   58.4040   19.4196 C   0  0  0  0  0  0  0  0  0  0  0  0
   68.9791   58.7488   20.7124 C   0  0  0  0  0  0  0  0  0  0  0  0
   68.9107   60.0648   21.0669 C   0  0  0  0  0  0  0  0  0  0  0  0
   69.1375   61.0251   20.1099 C   0  0  0  0  0  0  0  0  0  0  0  0
   69.4329   60.6473   18.7942 C   0  0  0  0  0  0  0  0  0  0  0  0
   64.6397   49.9110   12.5524 C   0  0  0  0  0  0  0  0  0  0  0  0
   72.7084   52.8559   12.0973 C   0  0  0  0  0  0  0  0  0  0  0  0
   72.4622   53.8354   14.3795 C   0  0  2  0  0  0  0  0  0  0  0  0
   73.1687   52.8284   13.5432 C   0  0  0  0  0  0  0  0  0  0  0  0
   72.6509   53.4252   15.8276 C   0  0  0  0  0  0  0  0  0  0  0  0
   65.9945   50.2207   11.9060 C   0  0  2  0  0  0  0  0  0  0  0  0
   74.1083   53.2660   16.1392 C   0  0  0  0  0  0  0  0  0  0  0  0
   70.2556   54.6133   15.0721 N   0  0  0  0  0  0  0  0  0  0  0  0
   72.1771   58.4716   16.9530 N   0  0  0  0  0  0  0  0  0  0  0  0
   69.7909   52.7479   16.8105 O   0  0  0  0  0  0  0  0  0  0  0  0
   68.0862   54.4176   16.5208 O   0  0  0  0  0  0  0  0  0  0  0  0
   69.7389   57.3749   14.8262 O   0  0  0  0  0  0  0  0  0  0  0  0
   71.7429   59.6222   18.8999 O   0  0  0  0  0  0  0  0  0  0  0  0
   73.9173   59.5061   18.3534 O   0  0  0  0  0  0  0  0  0  0  0  0
   74.8494   62.5699   19.7245 O   0  0  0  0  0  0  0  0  0  0  0  0
   72.8710   63.0464   20.8360 O   0  0  0  0  0  0  0  0  0  0  0  0
   63.8910   49.1598   11.6591 O   0  0  0  0  0  0  0  0  0  0  0  0
   66.7129   49.0701   11.6561 O   0  0  0  0  0  0  0  0  0  0  0  0
   69.0923   53.5947   15.7721 S   0  0  2  0  0  6  0  0  0  0  0  0
  1  2  1  0
 16  1  1  0
  1 36  1  1
  2  8  1  6
  2 33  1  0
 33  3  1  0
  3 37  2  0
  3 38  1  0
  4  5  1  0
  4 17  1  0
  4 38  1  6
  5 39  1  0
 17  6  1  0
  6 39  1  6
  6 40  1  0
 18  7  1  0
  7 40  1  0
  8 19  1  0
 10  9  2  0
 14  9  1  0
  9 30  1  0
 11 10  1  0
 12 11  2  0
 12 13  1  0
 43 12  1  0
 13 14  2  0
 27 15  1  6
 32 15  1  0
 32 16  1  0
 17 18  1  6
 19 20  2  0
 19 24  1  0
 20 21  1  0
 21 22  2  0
 23 22  1  0
 24 23  2  0
 30 25  1  0
 25 41  1  0
 28 26  1  0
 27 28  1  0
 27 29  1  0
 29 31  1  0
 30 42  1  1
 43 32  1  6
 43 34  2  0
 43 35  2  0
M  END
$$$$
