
     RDKit          3D

 43 46  0  0  0  0  0  0  0  0999 V2000
   70.3073   57.1540   15.1872 C   0  0  1  0  0  0  0  0  0  0  0  0
   70.2769   57.7619   16.5398 C   0  0  2  0  0  0  0  0  0  0  0  0
   71.9993   58.2005   18.3188 C   0  0  0  0  0  0  0  0  0  0  0  0
   74.0984   59.1007   19.3046 C   0  0  1  0  0  0  0  0  0  0  0  0
   74.7599   59.9874   18.2795 C   0  0  0  0  0  0  0  0  0  0  0  0
   74.0939   61.3442   19.9253 C   0  0  1  0  0  0  0  0  0  0  0  0
   72.1123   61.9883   19.1500 C   0  0  0  0  0  0  0  0  0  0  0  0
   69.2636   58.8024   16.7976 C   0  0  0  0  0  0  0  0  0  0  0  0
   72.2009   50.0561   15.1006 C   0  0  0  0  0  0  0  0  0  0  0  0
   71.2501   50.3775   16.0421 C   0  0  0  0  0  0  0  0  0  0  0  0
   70.8382   51.6820   16.2458 C   0  0  0  0  0  0  0  0  0  0  0  0
   71.3937   52.6904   15.4871 C   0  0  0  0  0  0  0  0  0  0  0  0
   72.3450   52.3976   14.5393 C   0  0  0  0  0  0  0  0  0  0  0  0
   72.7465   51.0682   14.3509 C   0  0  0  0  0  0  0  0  0  0  0  0
   69.3787   54.1297   13.5836 C   0  0  0  0  0  0  0  0  0  0  0  0
   69.2309   56.1597   14.9581 C   0  0  0  0  0  0  0  0  0  0  0  0
   73.2250   60.1122   20.0386 C   0  0  1  0  0  0  0  0  0  0  0  0
   72.0043   60.4828   19.2642 C   0  0  0  0  0  0  0  0  0  0  0  0
   68.8772   59.1200   18.1541 C   0  0  0  0  0  0  0  0  0  0  0  0
   68.9266   60.4657   18.5398 C   0  0  0  0  0  0  0  0  0  0  0  0
   68.6250   60.9060   19.8006 C   0  0  0  0  0  0  0  0  0  0  0  0
   68.2518   60.0129   20.7624 C   0  0  0  0  0  0  0  0  0  0  0  0
   68.1851   58.6778   20.4419 C   0  0  0  0  0  0  0  0  0  0  0  0
   68.4983   58.2520   19.1451 C   0  0  0  0  0  0  0  0  0  0  0  0
   73.4173   48.2596   16.1684 C   0  0  0  0  0  0  0  0  0  0  0  0
   66.9791   51.8297   12.0601 C   0  0  0  0  0  0  0  0  0  0  0  0
   67.9448   53.7986   13.2515 C   0  0  2  0  0  0  0  0  0  0  0  0
   67.7317   53.1415   11.9341 C   0  0  0  0  0  0  0  0  0  0  0  0
   67.0652   55.0339   13.2822 C   0  0  0  0  0  0  0  0  0  0  0  0
   72.5836   48.6422   14.9405 C   0  0  2  0  0  0  0  0  0  0  0  0
   65.6207   54.6440   13.3703 C   0  0  0  0  0  0  0  0  0  0  0  0
   69.5494   54.8121   14.7850 N   0  0  0  0  0  0  0  0  0  0  0  0
   71.6116   58.1529   16.9704 N   0  0  0  0  0  0  0  0  0  0  0  0
   72.0249   55.3030   15.3755 O   0  0  0  0  0  0  0  0  0  0  0  0
   70.6116   54.5279   17.1586 O   0  0  0  0  0  0  0  0  0  0  0  0
   70.4036   58.1212   14.2072 O   0  0  0  0  0  0  0  0  0  0  0  0
   71.1233   58.3401   19.2130 O   0  0  0  0  0  0  0  0  0  0  0  0
   73.3079   58.1026   18.7534 O   0  0  0  0  0  0  0  0  0  0  0  0
   74.7272   61.2838   18.7160 O   0  0  0  0  0  0  0  0  0  0  0  0
   73.1437   62.3639   20.0207 O   0  0  0  0  0  0  0  0  0  0  0  0
   74.4092   47.3783   15.7657 O   0  0  0  0  0  0  0  0  0  0  0  0
   73.2956   48.4752   13.7711 O   0  0  0  0  0  0  0  0  0  0  0  0
   70.9017   54.3452   15.6983 S   0  0  2  0  0  6  0  0  0  0  0  0
  1  2  1  0
 16  1  1  0
  1 36  1  6
  2  8  1  6
  2 33  1  0
 33  3  1  0
  3 37  2  0
  3 38  1  0
  4  5  1  0
  4 17  1  0
  4 38  1  6
  5 39  1  0
 17  6  1  0
  6 39  1  6
  6 40  1  0
 18  7  1  0
  7 40  1  0
  8 19  1  0
 10  9  2  0
 14  9  1  0
  9 30  1  0
 11 10  1  0
 12 11  2  0
 12 13  1  0
 43 12  1  0
 13 14  2  0
 27 15  1  6
 32 15  1  0
 32 16  1  0
 17 18  1  6
 19 20  2  0
 19 24  1  0
 20 21  1  0
 21 22  2  0
 23 22  1  0
 24 23  2  0
 30 25  1  0
 25 41  1  0
 28 26  1  0
 27 28  1  0
 27 29  1  0
 29 31  1  0
 30 42  1  6
 43 32  1  6
 43 34  2  0
 43 35  2  0
M  END
$$$$
