
     RDKit          3D

 43 46  0  0  0  0  0  0  0  0999 V2000
   71.4121   57.0143   15.3772 C   0  0  1  0  0  0  0  0  0  0  0  0
   70.9870   57.5784   16.6815 C   0  0  2  0  0  0  0  0  0  0  0  0
   72.7855   58.5947   18.1155 C   0  0  0  0  0  0  0  0  0  0  0  0
   74.5409   60.1256   18.9891 C   0  0  1  0  0  0  0  0  0  0  0  0
   74.4890   61.5487   18.4926 C   0  0  0  0  0  0  0  0  0  0  0  0
   73.9328   61.6332   20.6552 C   0  0  1  0  0  0  0  0  0  0  0  0
   71.7161   61.5414   20.5130 C   0  0  0  0  0  0  0  0  0  0  0  0
   69.5523   57.8684   16.8643 C   0  0  0  0  0  0  0  0  0  0  0  0
   66.5951   51.7965   13.0800 C   0  0  0  0  0  0  0  0  0  0  0  0
   66.4638   53.1572   13.2380 C   0  0  0  0  0  0  0  0  0  0  0  0
   67.2475   53.8660   14.1303 C   0  0  0  0  0  0  0  0  0  0  0  0
   68.1865   53.1941   14.8840 C   0  0  0  0  0  0  0  0  0  0  0  0
   68.3391   51.8352   14.7459 C   0  0  0  0  0  0  0  0  0  0  0  0
   67.5334   51.1383   13.8354 C   0  0  0  0  0  0  0  0  0  0  0  0
   71.8151   54.1528   15.9532 C   0  0  0  0  0  0  0  0  0  0  0  0
   70.5208   55.9404   14.8753 C   0  0  0  0  0  0  0  0  0  0  0  0
   73.6405   60.2164   20.2162 C   0  0  1  0  0  0  0  0  0  0  0  0
   72.1918   60.2608   19.8610 C   0  0  0  0  0  0  0  0  0  0  0  0
   69.0836   58.4713   18.0920 C   0  0  0  0  0  0  0  0  0  0  0  0
   69.0592   57.6653   19.2374 C   0  0  0  0  0  0  0  0  0  0  0  0
   68.6060   58.0919   20.4568 C   0  0  0  0  0  0  0  0  0  0  0  0
   68.1442   59.3675   20.6031 C   0  0  0  0  0  0  0  0  0  0  0  0
   68.1443   60.2052   19.5133 C   0  0  0  0  0  0  0  0  0  0  0  0
   68.6131   59.7456   18.2763 C   0  0  0  0  0  0  0  0  0  0  0  0
   64.5144   50.5809   12.8792 C   0  0  0  0  0  0  0  0  0  0  0  0
   74.6019   54.1164   15.3817 C   0  0  0  0  0  0  0  0  0  0  0  0
   72.4030   52.9410   15.2736 C   0  0  2  0  0  0  0  0  0  0  0  0
   73.8755   52.7842   15.4136 C   0  0  0  0  0  0  0  0  0  0  0  0
   72.0913   52.9274   13.7892 C   0  0  0  0  0  0  0  0  0  0  0  0
   65.7257   51.1136   12.1058 C   0  0  2  0  0  0  0  0  0  0  0  0
   71.9083   54.3258   13.2816 C   0  0  0  0  0  0  0  0  0  0  0  0
   70.6526   54.6388   15.3610 N   0  0  0  0  0  0  0  0  0  0  0  0
   71.8433   58.6868   17.0789 N   0  0  0  0  0  0  0  0  0  0  0  0
   69.5569   53.1761   17.1989 O   0  0  0  0  0  0  0  0  0  0  0  0
   68.3904   55.1779   16.5588 O   0  0  0  0  0  0  0  0  0  0  0  0
   71.6674   58.0139   14.4604 O   0  0  0  0  0  0  0  0  0  0  0  0
   72.5123   57.9242   19.1462 O   0  0  0  0  0  0  0  0  0  0  0  0
   74.0275   59.2012   18.0909 O   0  0  0  0  0  0  0  0  0  0  0  0
   74.1354   62.3741   19.5250 O   0  0  0  0  0  0  0  0  0  0  0  0
   72.7628   61.9567   21.3466 O   0  0  0  0  0  0  0  0  0  0  0  0
   63.6974   49.8952   11.9931 O   0  0  0  0  0  0  0  0  0  0  0  0
   66.4198   50.0959   11.4855 O   0  0  0  0  0  0  0  0  0  0  0  0
   69.2032   54.0420   16.0121 S   0  0  2  0  0  6  0  0  0  0  0  0
  1  2  1  0
 16  1  1  0
  1 36  1  6
  2  8  1  6
  2 33  1  0
 33  3  1  0
  3 37  2  0
  3 38  1  0
  4  5  1  0
  4 17  1  0
  4 38  1  6
  5 39  1  0
 17  6  1  0
  6 39  1  6
  6 40  1  0
 18  7  1  0
  7 40  1  0
  8 19  1  0
 10  9  2  0
 14  9  1  0
  9 30  1  0
 11 10  1  0
 12 11  2  0
 12 13  1  0
 43 12  1  0
 13 14  2  0
 27 15  1  6
 32 15  1  0
 32 16  1  0
 17 18  1  6
 19 20  2  0
 19 24  1  0
 20 21  1  0
 21 22  2  0
 23 22  1  0
 24 23  2  0
 30 25  1  0
 25 41  1  0
 28 26  1  0
 27 28  1  0
 27 29  1  0
 29 31  1  0
 30 42  1  1
 43 32  1  6
 43 34  2  0
 43 35  2  0
M  END
$$$$
