
     RDKit          3D

 43 46  0  0  0  0  0  0  0  0999 V2000
   70.7136   56.9409   15.8299 C   0  0  1  0  0  0  0  0  0  0  0  0
   70.6247   57.8336   17.0111 C   0  0  2  0  0  0  0  0  0  0  0  0
   72.7892   58.2043   18.2364 C   0  0  0  0  0  0  0  0  0  0  0  0
   73.9699   59.8713   19.6560 C   0  0  1  0  0  0  0  0  0  0  0  0
   74.3616   60.6965   18.4560 C   0  0  0  0  0  0  0  0  0  0  0  0
   74.3213   62.1106   20.1857 C   0  0  1  0  0  0  0  0  0  0  0  0
   72.2538   62.9099   20.0144 C   0  0  0  0  0  0  0  0  0  0  0  0
   69.4413   58.7078   17.1181 C   0  0  0  0  0  0  0  0  0  0  0  0
   66.7861   50.6984   13.3122 C   0  0  0  0  0  0  0  0  0  0  0  0
   67.5344   50.2616   14.3814 C   0  0  0  0  0  0  0  0  0  0  0  0
   68.1810   51.1443   15.2273 C   0  0  0  0  0  0  0  0  0  0  0  0
   68.0758   52.4994   14.9956 C   0  0  0  0  0  0  0  0  0  0  0  0
   67.3345   52.9633   13.9352 C   0  0  0  0  0  0  0  0  0  0  0  0
   66.6882   52.0497   13.0917 C   0  0  0  0  0  0  0  0  0  0  0  0
   70.7322   53.9811   14.2395 C   0  0  0  0  0  0  0  0  0  0  0  0
   70.6498   55.4985   16.1691 C   0  0  0  0  0  0  0  0  0  0  0  0
   73.4343   60.9538   20.5866 C   0  0  1  0  0  0  0  0  0  0  0  0
   72.0704   61.4187   20.1986 C   0  0  0  0  0  0  0  0  0  0  0  0
   68.9431   59.1001   18.4174 C   0  0  0  0  0  0  0  0  0  0  0  0
   68.7889   60.4708   18.6614 C   0  0  0  0  0  0  0  0  0  0  0  0
   68.3630   60.9865   19.8560 C   0  0  0  0  0  0  0  0  0  0  0  0
   68.0629   60.1489   20.8906 C   0  0  0  0  0  0  0  0  0  0  0  0
   68.1950   58.7927   20.7097 C   0  0  0  0  0  0  0  0  0  0  0  0
   68.6323   58.2894   19.4782 C   0  0  0  0  0  0  0  0  0  0  0  0
   65.8277   50.3717   11.1164 C   0  0  0  0  0  0  0  0  0  0  0  0
   73.9897   52.0521   13.8756 C   0  0  0  0  0  0  0  0  0  0  0  0
   72.1578   53.6038   14.5576 C   0  0  2  0  0  0  0  0  0  0  0  0
   72.5267   52.1953   14.2533 C   0  0  0  0  0  0  0  0  0  0  0  0
   72.4867   53.8463   16.0184 C   0  0  0  0  0  0  0  0  0  0  0  0
   66.1241   49.6955   12.4595 C   0  0  2  0  0  0  0  0  0  0  0  0
   73.7761   53.1739   16.3815 C   0  0  0  0  0  0  0  0  0  0  0  0
   70.0521   54.5985   15.2857 N   0  0  0  0  0  0  0  0  0  0  0  0
   71.8759   58.5462   17.2266 N   0  0  0  0  0  0  0  0  0  0  0  0
   69.4992   52.9742   17.2283 O   0  0  0  0  0  0  0  0  0  0  0  0
   67.7867   54.5363   16.5922 O   0  0  0  0  0  0  0  0  0  0  0  0
   69.8319   57.3306   14.8421 O   0  0  0  0  0  0  0  0  0  0  0  0
   73.4966   57.1698   18.1105 O   0  0  0  0  0  0  0  0  0  0  0  0
   72.9776   58.9381   19.3927 O   0  0  0  0  0  0  0  0  0  0  0  0
   74.5592   61.9933   18.8452 O   0  0  0  0  0  0  0  0  0  0  0  0
   73.5231   63.2045   20.5291 O   0  0  0  0  0  0  0  0  0  0  0  0
   65.3681   49.4064   10.2333 O   0  0  0  0  0  0  0  0  0  0  0  0
   64.9705   49.2463   13.0675 O   0  0  0  0  0  0  0  0  0  0  0  0
   68.8616   53.6499   16.0366 S   0  0  2  0  0  6  0  0  0  0  0  0
  1  2  1  0
 16  1  1  0
  1 36  1  6
  2  8  1  6
  2 33  1  0
 33  3  1  0
  3 37  2  0
  3 38  1  0
  4  5  1  0
  4 17  1  0
  4 38  1  6
  5 39  1  0
 17  6  1  0
  6 39  1  6
  6 40  1  0
 18  7  1  0
  7 40  1  0
  8 19  1  0
 10  9  2  0
 14  9  1  0
  9 30  1  0
 11 10  1  0
 12 11  2  0
 12 13  1  0
 43 12  1  0
 13 14  2  0
 27 15  1  1
 32 15  1  0
 32 16  1  0
 17 18  1  6
 19 20  2  0
 19 24  1  0
 20 21  1  0
 21 22  2  0
 23 22  1  0
 24 23  2  0
 30 25  1  0
 25 41  1  0
 28 26  1  0
 27 28  1  0
 27 29  1  0
 29 31  1  0
 30 42  1  1
 43 32  1  6
 43 34  2  0
 43 35  2  0
M  END
$$$$
