
     RDKit          3D

 43 46  0  0  0  0  0  0  0  0999 V2000
   70.0084   55.9838   17.0199 C   0  0  1  0  0  0  0  0  0  0  0  0
   71.4402   56.3066   17.2341 C   0  0  2  0  0  0  0  0  0  0  0  0
   72.8539   58.2780   17.8966 C   0  0  0  0  0  0  0  0  0  0  0  0
   74.1566   59.7035   19.4649 C   0  0  1  0  0  0  0  0  0  0  0  0
   74.7029   60.4638   18.2825 C   0  0  0  0  0  0  0  0  0  0  0  0
   73.9820   62.0100   19.7257 C   0  0  1  0  0  0  0  0  0  0  0  0
   71.9262   62.3630   18.9564 C   0  0  0  0  0  0  0  0  0  0  0  0
   72.2626   55.3161   17.9541 C   0  0  0  0  0  0  0  0  0  0  0  0
   67.8963   49.6002   13.6618 C   0  0  0  0  0  0  0  0  0  0  0  0
   67.5184   50.6908   12.9124 C   0  0  0  0  0  0  0  0  0  0  0  0
   68.0938   51.9351   13.0951 C   0  0  0  0  0  0  0  0  0  0  0  0
   69.0726   52.0909   14.0537 C   0  0  0  0  0  0  0  0  0  0  0  0
   69.4696   51.0184   14.8161 C   0  0  0  0  0  0  0  0  0  0  0  0
   68.8720   49.7672   14.6129 C   0  0  0  0  0  0  0  0  0  0  0  0
   67.5609   54.8522   14.7442 C   0  0  0  0  0  0  0  0  0  0  0  0
   69.6343   55.8611   15.5899 C   0  0  0  0  0  0  0  0  0  0  0  0
   73.2264   60.7473   20.0728 C   0  0  1  0  0  0  0  0  0  0  0  0
   71.9517   60.8915   19.3104 C   0  0  0  0  0  0  0  0  0  0  0  0
   73.6861   55.2406   17.7125 C   0  0  0  0  0  0  0  0  0  0  0  0
   74.2246   56.1120   16.7571 C   0  0  0  0  0  0  0  0  0  0  0  0
   75.5464   56.1253   16.4007 C   0  0  0  0  0  0  0  0  0  0  0  0
   76.4184   55.2550   16.9875 C   0  0  0  0  0  0  0  0  0  0  0  0
   75.9471   54.3757   17.9332 C   0  0  0  0  0  0  0  0  0  0  0  0
   74.5905   54.3815   18.2809 C   0  0  0  0  0  0  0  0  0  0  0  0
   67.3956   48.0119   11.9086 C   0  0  0  0  0  0  0  0  0  0  0  0
   64.7282   55.4541   14.1527 C   0  0  0  0  0  0  0  0  0  0  0  0
   66.6269   55.4410   15.7723 C   0  0  2  0  0  0  0  0  0  0  0  0
   65.1842   55.1432   15.5664 C   0  0  0  0  0  0  0  0  0  0  0  0
   66.7648   56.9494   15.8527 C   0  0  0  0  0  0  0  0  0  0  0  0
   67.2388   48.3069   13.4044 C   0  0  2  0  0  0  0  0  0  0  0  0
   66.3601   57.4388   17.2103 C   0  0  0  0  0  0  0  0  0  0  0  0
   68.8885   54.7651   15.1542 N   0  0  0  0  0  0  0  0  0  0  0  0
   71.6027   57.6587   17.7492 N   0  0  0  0  0  0  0  0  0  0  0  0
   70.2593   54.2684   13.0112 O   0  0  0  0  0  0  0  0  0  0  0  0
   71.0988   53.3681   15.0758 O   0  0  0  0  0  0  0  0  0  0  0  0
   69.6146   54.9173   17.8024 O   0  0  0  0  0  0  0  0  0  0  0  0
   73.5127   58.6000   16.8726 O   0  0  0  0  0  0  0  0  0  0  0  0
   73.4355   58.5706   19.1161 O   0  0  0  0  0  0  0  0  0  0  0  0
   74.5747   61.8067   18.5114 O   0  0  0  0  0  0  0  0  0  0  0  0
   72.9519   62.9535   19.7062 O   0  0  0  0  0  0  0  0  0  0  0  0
   66.9928   46.7055   11.6764 O   0  0  0  0  0  0  0  0  0  0  0  0
   65.9112   48.3705   13.7731 O   0  0  0  0  0  0  0  0  0  0  0  0
   69.8339   53.6328   14.3144 S   0  0  2  0  0  6  0  0  0  0  0  0
  1  2  1  0
 16  1  1  0
  1 36  1  1
  2  8  1  1
  2 33  1  0
 33  3  1  0
  3 37  2  0
  3 38  1  0
  4  5  1  0
  4 17  1  0
  4 38  1  6
  5 39  1  0
 17  6  1  0
  6 39  1  6
  6 40  1  0
 18  7  1  0
  7 40  1  0
  8 19  1  0
 10  9  2  0
 14  9  1  0
  9 30  1  0
 11 10  1  0
 12 11  2  0
 12 13  1  0
 43 12  1  0
 13 14  2  0
 27 15  1  6
 32 15  1  0
 32 16  1  0
 17 18  1  6
 19 20  2  0
 19 24  1  0
 20 21  1  0
 21 22  2  0
 23 22  1  0
 24 23  2  0
 30 25  1  0
 25 41  1  0
 28 26  1  0
 27 28  1  0
 27 29  1  0
 29 31  1  0
 30 42  1  6
 43 32  1  1
 43 34  2  0
 43 35  2  0
M  END
$$$$
