
     RDKit          3D

 43 46  0  0  0  0  0  0  0  0999 V2000
   70.0649   57.4217   14.9141 C   0  0  1  0  0  0  0  0  0  0  0  0
   70.0865   57.6215   16.3837 C   0  0  2  0  0  0  0  0  0  0  0  0
   72.1250   57.5325   17.8536 C   0  0  0  0  0  0  0  0  0  0  0  0
   73.6416   59.0438   19.1202 C   0  0  1  0  0  0  0  0  0  0  0  0
   73.9606   59.8219   17.8683 C   0  0  0  0  0  0  0  0  0  0  0  0
   74.2380   61.2495   19.5648 C   0  0  1  0  0  0  0  0  0  0  0  0
   72.2389   62.2209   19.6153 C   0  0  0  0  0  0  0  0  0  0  0  0
   68.9495   58.3382   16.9916 C   0  0  0  0  0  0  0  0  0  0  0  0
   72.6813   50.0693   14.6118 C   0  0  0  0  0  0  0  0  0  0  0  0
   71.6601   50.1947   15.5257 C   0  0  0  0  0  0  0  0  0  0  0  0
   71.2179   51.4314   15.9592 C   0  0  0  0  0  0  0  0  0  0  0  0
   71.8147   52.5718   15.4647 C   0  0  0  0  0  0  0  0  0  0  0  0
   72.8365   52.4757   14.5505 C   0  0  0  0  0  0  0  0  0  0  0  0
   73.2675   51.2116   14.1262 C   0  0  0  0  0  0  0  0  0  0  0  0
   69.4821   54.0918   14.0800 C   0  0  0  0  0  0  0  0  0  0  0  0
   70.7292   56.1706   14.4747 C   0  0  0  0  0  0  0  0  0  0  0  0
   73.3092   60.1762   20.0855 C   0  0  1  0  0  0  0  0  0  0  0  0
   71.9536   60.7524   19.8467 C   0  0  0  0  0  0  0  0  0  0  0  0
   68.9743   58.6816   18.3959 C   0  0  0  0  0  0  0  0  0  0  0  0
   68.7372   57.6518   19.3153 C   0  0  0  0  0  0  0  0  0  0  0  0
   68.6941   57.8389   20.6709 C   0  0  0  0  0  0  0  0  0  0  0  0
   68.8881   59.0848   21.1926 C   0  0  0  0  0  0  0  0  0  0  0  0
   69.1255   60.1352   20.3383 C   0  0  0  0  0  0  0  0  0  0  0  0
   69.1650   59.9185   18.9553 C   0  0  0  0  0  0  0  0  0  0  0  0
   72.8123   48.6022   12.6941 C   0  0  0  0  0  0  0  0  0  0  0  0
   66.5219   55.6008   15.6897 C   0  0  0  0  0  0  0  0  0  0  0  0
   67.9992   54.3685   14.0999 C   0  0  2  0  0  0  0  0  0  0  0  0
   67.3688   54.3650   15.4472 C   0  0  0  0  0  0  0  0  0  0  0  0
   67.2345   53.3748   13.2462 C   0  0  0  0  0  0  0  0  0  0  0  0
   73.0925   48.7167   14.1966 C   0  0  2  0  0  0  0  0  0  0  0  0
   65.8051   53.8019   13.1023 C   0  0  0  0  0  0  0  0  0  0  0  0
   70.2365   54.9337   14.8926 N   0  0  0  0  0  0  0  0  0  0  0  0
   71.3773   58.1293   16.8262 N   0  0  0  0  0  0  0  0  0  0  0  0
   72.4586   55.0722   16.2198 O   0  0  0  0  0  0  0  0  0  0  0  0
   70.6110   53.9760   17.2980 O   0  0  0  0  0  0  0  0  0  0  0  0
   68.7943   57.5980   14.4050 O   0  0  0  0  0  0  0  0  0  0  0  0
   72.4441   56.3174   17.7650 O   0  0  0  0  0  0  0  0  0  0  0  0
   72.5509   58.1964   18.9889 O   0  0  0  0  0  0  0  0  0  0  0  0
   74.3096   61.1005   18.2084 O   0  0  0  0  0  0  0  0  0  0  0  0
   73.5791   62.4105   19.9766 O   0  0  0  0  0  0  0  0  0  0  0  0
   73.1670   47.3275   12.2794 O   0  0  0  0  0  0  0  0  0  0  0  0
   72.3956   47.7692   14.9168 O   0  0  0  0  0  0  0  0  0  0  0  0
   71.2876   54.1501   15.9707 S   0  0  2  0  0  6  0  0  0  0  0  0
  1  2  1  0
 16  1  1  0
  1 36  1  1
  2  8  1  6
  2 33  1  0
 33  3  1  0
  3 37  2  0
  3 38  1  0
  4  5  1  0
  4 17  1  0
  4 38  1  6
  5 39  1  0
 17  6  1  0
  6 39  1  6
  6 40  1  0
 18  7  1  0
  7 40  1  0
  8 19  1  0
 10  9  2  0
 14  9  1  0
  9 30  1  0
 11 10  1  0
 12 11  2  0
 12 13  1  0
 43 12  1  0
 13 14  2  0
 27 15  1  1
 32 15  1  0
 32 16  1  0
 17 18  1  6
 19 20  2  0
 19 24  1  0
 20 21  1  0
 21 22  2  0
 23 22  1  0
 24 23  2  0
 30 25  1  0
 25 41  1  0
 28 26  1  0
 27 28  1  0
 27 29  1  0
 29 31  1  0
 30 42  1  1
 43 32  1  6
 43 34  2  0
 43 35  2  0
M  END
$$$$
