
     RDKit          3D

 43 46  0  0  0  0  0  0  0  0999 V2000
   70.9987   56.9764   15.7761 C   0  0  1  0  0  0  0  0  0  0  0  0
   70.8484   57.3106   17.2134 C   0  0  2  0  0  0  0  0  0  0  0  0
   72.1290   58.5285   19.0025 C   0  0  0  0  0  0  0  0  0  0  0  0
   74.2759   59.5061   19.7919 C   0  0  1  0  0  0  0  0  0  0  0  0
   74.6783   60.2000   18.5148 C   0  0  0  0  0  0  0  0  0  0  0  0
   74.4303   61.8157   20.0384 C   0  0  1  0  0  0  0  0  0  0  0  0
   72.3241   62.4181   19.6590 C   0  0  0  0  0  0  0  0  0  0  0  0
   69.5072   57.7026   17.6862 C   0  0  0  0  0  0  0  0  0  0  0  0
   66.4257   51.4923   13.6525 C   0  0  0  0  0  0  0  0  0  0  0  0
   66.2621   52.8391   13.4225 C   0  0  0  0  0  0  0  0  0  0  0  0
   67.0823   53.7838   14.0122 C   0  0  0  0  0  0  0  0  0  0  0  0
   68.0918   53.3684   14.8544 C   0  0  0  0  0  0  0  0  0  0  0  0
   68.2780   52.0293   15.1014 C   0  0  0  0  0  0  0  0  0  0  0  0
   67.4343   51.0905   14.4925 C   0  0  0  0  0  0  0  0  0  0  0  0
   71.1675   53.5164   14.2733 C   0  0  0  0  0  0  0  0  0  0  0  0
   71.4919   55.5987   15.5348 C   0  0  0  0  0  0  0  0  0  0  0  0
   73.6075   60.6521   20.5432 C   0  0  1  0  0  0  0  0  0  0  0  0
   72.2393   60.9527   20.0289 C   0  0  0  0  0  0  0  0  0  0  0  0
   69.3659   58.6835   18.7389 C   0  0  0  0  0  0  0  0  0  0  0  0
   70.5407   59.1921   19.3076 C   0  0  0  0  0  0  0  0  0  0  0  0
   70.5574   60.0964   20.3353 C   0  0  0  0  0  0  0  0  0  0  0  0
   69.3831   60.5506   20.8614 C   0  0  0  0  0  0  0  0  0  0  0  0
   68.1974   60.0868   20.3432 C   0  0  0  0  0  0  0  0  0  0  0  0
   68.2064   59.1619   19.2917 C   0  0  0  0  0  0  0  0  0  0  0  0
   66.3850   49.5463   12.2177 C   0  0  0  0  0  0  0  0  0  0  0  0
   73.3440   51.1673   14.5886 C   0  0  0  0  0  0  0  0  0  0  0  0
   72.6602   53.5075   14.0553 C   0  0  2  0  0  0  0  0  0  0  0  0
   73.2179   52.2370   13.5193 C   0  0  0  0  0  0  0  0  0  0  0  0
   73.4129   53.8215   15.3343 C   0  0  0  0  0  0  0  0  0  0  0  0
   65.5136   50.5478   12.9837 C   0  0  2  0  0  0  0  0  0  0  0  0
   74.8541   54.1048   15.0355 C   0  0  0  0  0  0  0  0  0  0  0  0
   70.6804   54.6703   14.8812 N   0  0  0  0  0  0  0  0  0  0  0  0
   71.8927   58.2253   17.6523 N   0  0  0  0  0  0  0  0  0  0  0  0
   69.3783   54.1889   17.0699 O   0  0  0  0  0  0  0  0  0  0  0  0
   68.4509   55.8405   15.5903 O   0  0  0  0  0  0  0  0  0  0  0  0
   69.8615   57.3041   15.0659 O   0  0  0  0  0  0  0  0  0  0  0  0
   71.1686   58.8784   19.7384 O   0  0  0  0  0  0  0  0  0  0  0  0
   73.3721   58.4703   19.6043 O   0  0  0  0  0  0  0  0  0  0  0  0
   74.7568   61.5476   18.7389 O   0  0  0  0  0  0  0  0  0  0  0  0
   73.5351   62.8769   20.1938 O   0  0  0  0  0  0  0  0  0  0  0  0
   65.5512   48.6905   11.5139 O   0  0  0  0  0  0  0  0  0  0  0  0
   64.6628   51.2304   12.1397 O   0  0  0  0  0  0  0  0  0  0  0  0
   69.1560   54.5169   15.6117 S   0  0  2  0  0  6  0  0  0  0  0  0
  1  2  1  0
 16  1  1  0
  1 36  1  6
  2  8  1  6
  2 33  1  0
 33  3  1  0
  3 37  2  0
  3 38  1  0
  4  5  1  0
  4 17  1  0
  4 38  1  6
  5 39  1  0
 17  6  1  0
  6 39  1  6
  6 40  1  0
 18  7  1  0
  7 40  1  0
  8 19  1  0
 10  9  2  0
 14  9  1  0
  9 30  1  0
 11 10  1  0
 12 11  2  0
 12 13  1  0
 43 12  1  0
 13 14  2  0
 27 15  1  1
 32 15  1  0
 32 16  1  0
 17 18  1  6
 19 20  2  0
 19 24  1  0
 20 21  1  0
 21 22  2  0
 23 22  1  0
 24 23  2  0
 30 25  1  0
 25 41  1  0
 28 26  1  0
 27 28  1  0
 27 29  1  0
 29 31  1  0
 30 42  1  6
 43 32  1  6
 43 34  2  0
 43 35  2  0
M  END
$$$$
