
     RDKit          3D

 43 46  0  0  0  0  0  0  0  0999 V2000
   70.8454   57.4648   15.5221 C   0  0  1  0  0  0  0  0  0  0  0  0
   70.6852   58.0793   16.8626 C   0  0  2  0  0  0  0  0  0  0  0  0
   72.5145   58.5924   18.5100 C   0  0  0  0  0  0  0  0  0  0  0  0
   74.4580   59.6983   19.6001 C   0  0  1  0  0  0  0  0  0  0  0  0
   75.0954   60.8692   18.8949 C   0  0  0  0  0  0  0  0  0  0  0  0
   74.0978   61.7141   20.7071 C   0  0  1  0  0  0  0  0  0  0  0  0
   72.1351   62.3150   19.8528 C   0  0  0  0  0  0  0  0  0  0  0  0
   69.4573   58.8570   17.1143 C   0  0  0  0  0  0  0  0  0  0  0  0
   66.8564   50.9471   13.4266 C   0  0  0  0  0  0  0  0  0  0  0  0
   66.3719   52.2347   13.3944 C   0  0  0  0  0  0  0  0  0  0  0  0
   66.9923   53.2639   14.0789 C   0  0  0  0  0  0  0  0  0  0  0  0
   68.1270   52.9960   14.8150 C   0  0  0  0  0  0  0  0  0  0  0  0
   68.6329   51.7190   14.8641 C   0  0  0  0  0  0  0  0  0  0  0  0
   67.9869   50.6924   14.1624 C   0  0  0  0  0  0  0  0  0  0  0  0
   71.0459   54.8134   14.2236 C   0  0  0  0  0  0  0  0  0  0  0  0
   69.6771   56.6570   15.0952 C   0  0  0  0  0  0  0  0  0  0  0  0
   73.3912   60.4071   20.4272 C   0  0  1  0  0  0  0  0  0  0  0  0
   72.2150   60.8232   19.6085 C   0  0  0  0  0  0  0  0  0  0  0  0
   69.0891   59.2163   18.4655 C   0  0  0  0  0  0  0  0  0  0  0  0
   68.8204   58.1718   19.3594 C   0  0  0  0  0  0  0  0  0  0  0  0
   68.4257   58.3645   20.6562 C   0  0  0  0  0  0  0  0  0  0  0  0
   68.2744   59.6312   21.1405 C   0  0  0  0  0  0  0  0  0  0  0  0
   68.5244   60.6967   20.3089 C   0  0  0  0  0  0  0  0  0  0  0  0
   68.9273   60.4739   18.9863 C   0  0  0  0  0  0  0  0  0  0  0  0
   64.6453   50.2269   12.7633 C   0  0  0  0  0  0  0  0  0  0  0  0
   74.7016   54.9605   15.4937 C   0  0  0  0  0  0  0  0  0  0  0  0
   72.2322   55.0078   15.1352 C   0  0  2  0  0  0  0  0  0  0  0  0
   73.5596   54.7452   14.5175 C   0  0  0  0  0  0  0  0  0  0  0  0
   72.1344   54.1354   16.3722 C   0  0  0  0  0  0  0  0  0  0  0  0
   66.1411   49.9064   12.6674 C   0  0  2  0  0  0  0  0  0  0  0  0
   71.9289   52.7021   15.9849 C   0  0  0  0  0  0  0  0  0  0  0  0
   69.8490   55.3245   14.7180 N   0  0  0  0  0  0  0  0  0  0  0  0
   71.8938   58.7840   17.2656 N   0  0  0  0  0  0  0  0  0  0  0  0
   69.8807   53.6934   16.7320 O   0  0  0  0  0  0  0  0  0  0  0  0
   67.8994   55.0217   16.4357 O   0  0  0  0  0  0  0  0  0  0  0  0
   71.2607   58.3965   14.5923 O   0  0  0  0  0  0  0  0  0  0  0  0
   71.8263   58.2216   19.4975 O   0  0  0  0  0  0  0  0  0  0  0  0
   73.8638   58.7847   18.7415 O   0  0  0  0  0  0  0  0  0  0  0  0
   74.8499   62.0122   19.6058 O   0  0  0  0  0  0  0  0  0  0  0  0
   73.0172   62.5761   20.9095 O   0  0  0  0  0  0  0  0  0  0  0  0
   63.9378   49.1920   12.1705 O   0  0  0  0  0  0  0  0  0  0  0  0
   66.4280   48.6614   13.1870 O   0  0  0  0  0  0  0  0  0  0  0  0
   68.9494   54.2580   15.6846 S   0  0  2  0  0  6  0  0  0  0  0  0
  1  2  1  0
 16  1  1  0
  1 36  1  6
  2  8  1  6
  2 33  1  0
 33  3  1  0
  3 37  2  0
  3 38  1  0
  4  5  1  0
  4 17  1  0
  4 38  1  6
  5 39  1  0
 17  6  1  0
  6 39  1  6
  6 40  1  0
 18  7  1  0
  7 40  1  0
  8 19  1  0
 10  9  2  0
 14  9  1  0
  9 30  1  0
 11 10  1  0
 12 11  2  0
 12 13  1  0
 43 12  1  0
 13 14  2  0
 27 15  1  6
 32 15  1  0
 32 16  1  0
 17 18  1  6
 19 20  2  0
 19 24  1  0
 20 21  1  0
 21 22  2  0
 23 22  1  0
 24 23  2  0
 30 25  1  0
 25 41  1  0
 28 26  1  0
 27 28  1  0
 27 29  1  0
 29 31  1  0
 30 42  1  1
 43 32  1  6
 43 34  2  0
 43 35  2  0
M  END
$$$$
