
     RDKit          3D

 43 46  0  0  0  0  0  0  0  0999 V2000
   71.0116   57.4024   15.0194 C   0  0  1  0  0  0  0  0  0  0  0  0
   70.7847   57.9900   16.3623 C   0  0  2  0  0  0  0  0  0  0  0  0
   72.5504   57.7492   18.1366 C   0  0  0  0  0  0  0  0  0  0  0  0
   73.4275   59.3552   19.8219 C   0  0  1  0  0  0  0  0  0  0  0  0
   74.2126   60.0117   18.7141 C   0  0  0  0  0  0  0  0  0  0  0  0
   73.5706   61.6649   20.0735 C   0  0  1  0  0  0  0  0  0  0  0  0
   71.6920   62.3111   19.0754 C   0  0  0  0  0  0  0  0  0  0  0  0
   69.7426   59.0266   16.4863 C   0  0  0  0  0  0  0  0  0  0  0  0
   66.4890   51.5350   13.2981 C   0  0  0  0  0  0  0  0  0  0  0  0
   66.0063   52.8149   13.4486 C   0  0  0  0  0  0  0  0  0  0  0  0
   66.6530   53.7494   14.2369 C   0  0  0  0  0  0  0  0  0  0  0  0
   67.8126   53.3922   14.8916 C   0  0  0  0  0  0  0  0  0  0  0  0
   68.3173   52.1208   14.7585 C   0  0  0  0  0  0  0  0  0  0  0  0
   67.6445   51.1909   13.9544 C   0  0  0  0  0  0  0  0  0  0  0  0
   71.2813   54.6268   15.9145 C   0  0  0  0  0  0  0  0  0  0  0  0
   70.0408   56.3388   14.6645 C   0  0  0  0  0  0  0  0  0  0  0  0
   72.6003   60.5330   20.3248 C   0  0  1  0  0  0  0  0  0  0  0  0
   71.4569   60.8564   19.4220 C   0  0  0  0  0  0  0  0  0  0  0  0
   69.0181   59.1836   17.7276 C   0  0  0  0  0  0  0  0  0  0  0  0
   69.2546   58.2399   18.7354 C   0  0  0  0  0  0  0  0  0  0  0  0
   68.6133   58.2437   19.9450 C   0  0  0  0  0  0  0  0  0  0  0  0
   67.6849   59.2050   20.2203 C   0  0  0  0  0  0  0  0  0  0  0  0
   67.4110   60.1586   19.2688 C   0  0  0  0  0  0  0  0  0  0  0  0
   68.0803   60.1337   18.0390 C   0  0  0  0  0  0  0  0  0  0  0  0
   66.7818   49.7488   11.6947 C   0  0  0  0  0  0  0  0  0  0  0  0
   72.5164   53.3637   12.6192 C   0  0  0  0  0  0  0  0  0  0  0  0
   72.3366   54.0274   15.0183 C   0  0  2  0  0  0  0  0  0  0  0  0
   71.8277   53.1255   13.9505 C   0  0  0  0  0  0  0  0  0  0  0  0
   73.3642   53.2440   15.8128 C   0  0  0  0  0  0  0  0  0  0  0  0
   65.7449   50.5985   12.4377 C   0  0  2  0  0  0  0  0  0  0  0  0
   74.2085   54.1724   16.6324 C   0  0  0  0  0  0  0  0  0  0  0  0
   70.1448   55.0749   15.2469 N   0  0  0  0  0  0  0  0  0  0  0  0
   72.0424   58.3745   16.9870 N   0  0  0  0  0  0  0  0  0  0  0  0
   68.9427   53.9745   17.2624 O   0  0  0  0  0  0  0  0  0  0  0  0
   67.7499   55.7023   16.0921 O   0  0  0  0  0  0  0  0  0  0  0  0
   71.1506   58.3859   14.0611 O   0  0  0  0  0  0  0  0  0  0  0  0
   73.0066   56.5779   18.0571 O   0  0  0  0  0  0  0  0  0  0  0  0
   72.5900   58.3383   19.3866 O   0  0  0  0  0  0  0  0  0  0  0  0
   74.2611   61.3613   18.9341 O   0  0  0  0  0  0  0  0  0  0  0  0
   72.7019   62.7510   19.9411 O   0  0  0  0  0  0  0  0  0  0  0  0
   66.1096   48.7903   10.9515 O   0  0  0  0  0  0  0  0  0  0  0  0
   64.9407   51.2984   11.5626 O   0  0  0  0  0  0  0  0  0  0  0  0
   68.6681   54.5343   15.8860 S   0  0  2  0  0  6  0  0  0  0  0  0
  1  2  1  0
 16  1  1  0
  1 36  1  6
  2  8  1  6
  2 33  1  0
 33  3  1  0
  3 37  2  0
  3 38  1  0
  4  5  1  0
  4 17  1  0
  4 38  1  6
  5 39  1  0
 17  6  1  0
  6 39  1  6
  6 40  1  0
 18  7  1  0
  7 40  1  0
  8 19  1  0
 10  9  2  0
 14  9  1  0
  9 30  1  0
 11 10  1  0
 12 11  2  0
 12 13  1  0
 43 12  1  0
 13 14  2  0
 27 15  1  1
 32 15  1  0
 32 16  1  0
 17 18  1  6
 19 20  2  0
 19 24  1  0
 20 21  1  0
 21 22  2  0
 23 22  1  0
 24 23  2  0
 30 25  1  0
 25 41  1  0
 28 26  1  0
 27 28  1  0
 27 29  1  0
 29 31  1  0
 30 42  1  6
 43 32  1  6
 43 34  2  0
 43 35  2  0
M  END
$$$$
