
     RDKit          3D

 43 46  0  0  0  0  0  0  0  0999 V2000
   70.6761   57.1848   15.7507 C   0  0  1  0  0  0  0  0  0  0  0  0
   70.5796   57.9654   17.0082 C   0  0  2  0  0  0  0  0  0  0  0  0
   72.1505   58.5778   18.8740 C   0  0  0  0  0  0  0  0  0  0  0  0
   74.0601   59.7074   19.9992 C   0  0  1  0  0  0  0  0  0  0  0  0
   74.6464   60.6556   18.9835 C   0  0  0  0  0  0  0  0  0  0  0  0
   73.7691   61.9408   20.5872 C   0  0  1  0  0  0  0  0  0  0  0  0
   71.7527   62.3369   19.7388 C   0  0  0  0  0  0  0  0  0  0  0  0
   69.6471   59.1082   17.0321 C   0  0  0  0  0  0  0  0  0  0  0  0
   66.4437   50.9329   13.2507 C   0  0  0  0  0  0  0  0  0  0  0  0
   67.7553   50.8155   13.6501 C   0  0  0  0  0  0  0  0  0  0  0  0
   68.3710   51.7833   14.4229 C   0  0  0  0  0  0  0  0  0  0  0  0
   67.6542   52.8975   14.8048 C   0  0  0  0  0  0  0  0  0  0  0  0
   66.3424   53.0401   14.4204 C   0  0  0  0  0  0  0  0  0  0  0  0
   65.7399   52.0462   13.6372 C   0  0  0  0  0  0  0  0  0  0  0  0
   70.6693   54.5063   14.5758 C   0  0  0  0  0  0  0  0  0  0  0  0
   69.4302   56.4579   15.4055 C   0  0  0  0  0  0  0  0  0  0  0  0
   73.0488   60.6156   20.6899 C   0  0  1  0  0  0  0  0  0  0  0  0
   71.8198   60.8305   19.8711 C   0  0  0  0  0  0  0  0  0  0  0  0
   68.9984   59.4908   18.2663 C   0  0  0  0  0  0  0  0  0  0  0  0
   69.2556   58.7078   19.3990 C   0  0  0  0  0  0  0  0  0  0  0  0
   68.6826   58.9305   20.6223 C   0  0  0  0  0  0  0  0  0  0  0  0
   67.8064   59.9638   20.7856 C   0  0  0  0  0  0  0  0  0  0  0  0
   67.5154   60.7670   19.7087 C   0  0  0  0  0  0  0  0  0  0  0  0
   68.1145   60.5190   18.4675 C   0  0  0  0  0  0  0  0  0  0  0  0
   64.5225   49.4745   13.0791 C   0  0  0  0  0  0  0  0  0  0  0  0
   74.2440   55.2217   15.7474 C   0  0  0  0  0  0  0  0  0  0  0  0
   71.9212   55.3060   14.8384 C   0  0  2  0  0  0  0  0  0  0  0  0
   73.1751   54.5117   14.9370 C   0  0  0  0  0  0  0  0  0  0  0  0
   71.8064   56.1198   16.1133 C   0  0  0  0  0  0  0  0  0  0  0  0
   65.8580   49.8570   12.4317 C   0  0  2  0  0  0  0  0  0  0  0  0
   70.3729   56.4612   16.3872 C   0  0  0  0  0  0  0  0  0  0  0  0
   69.4912   55.1320   14.9745 N   0  0  0  0  0  0  0  0  0  0  0  0
   71.9002   58.3020   17.5205 N   0  0  0  0  0  0  0  0  0  0  0  0
   69.0830   53.5520   16.9882 O   0  0  0  0  0  0  0  0  0  0  0  0
   67.2589   54.9718   16.3289 O   0  0  0  0  0  0  0  0  0  0  0  0
   71.1872   57.9530   14.7242 O   0  0  0  0  0  0  0  0  0  0  0  0
   71.1858   58.8080   19.6503 O   0  0  0  0  0  0  0  0  0  0  0  0
   73.4125   58.6167   19.4371 O   0  0  0  0  0  0  0  0  0  0  0  0
   74.4458   61.9434   19.4000 O   0  0  0  0  0  0  0  0  0  0  0  0
   72.7022   62.8414   20.6370 O   0  0  0  0  0  0  0  0  0  0  0  0
   63.7165   48.8971   12.1097 O   0  0  0  0  0  0  0  0  0  0  0  0
   66.7213   48.7829   12.3757 O   0  0  0  0  0  0  0  0  0  0  0  0
   68.3803   54.1371   15.7852 S   0  0  2  0  0  6  0  0  0  0  0  0
  1  2  1  0
 16  1  1  0
  1 36  1  6
  2  8  1  6
  2 33  1  0
 33  3  1  0
  3 37  2  0
  3 38  1  0
  4  5  1  0
  4 17  1  0
  4 38  1  6
  5 39  1  0
 17  6  1  0
  6 39  1  6
  6 40  1  0
 18  7  1  0
  7 40  1  0
  8 19  1  0
 10  9  2  0
 14  9  1  0
  9 30  1  0
 11 10  1  0
 12 11  2  0
 12 13  1  0
 43 12  1  0
 13 14  2  0
 27 15  1  1
 32 15  1  0
 32 16  1  0
 17 18  1  6
 19 20  2  0
 19 24  1  0
 20 21  1  0
 21 22  2  0
 23 22  1  0
 24 23  2  0
 30 25  1  0
 25 41  1  0
 28 26  1  0
 27 28  1  0
 27 29  1  0
 29 31  1  0
 30 42  1  1
 43 32  1  6
 43 34  2  0
 43 35  2  0
M  END
$$$$
