
     RDKit          3D

 43 46  0  0  0  0  0  0  0  0999 V2000
   70.9490   57.5196   15.2459 C   0  0  1  0  0  0  0  0  0  0  0  0
   70.5418   57.8565   16.6318 C   0  0  2  0  0  0  0  0  0  0  0  0
   72.8448   58.2934   17.5424 C   0  0  0  0  0  0  0  0  0  0  0  0
   73.9932   59.9635   18.9848 C   0  0  1  0  0  0  0  0  0  0  0  0
   74.7239   61.2206   18.5845 C   0  0  0  0  0  0  0  0  0  0  0  0
   74.3563   61.3984   20.7814 C   0  0  1  0  0  0  0  0  0  0  0  0
   72.4544   62.5497   20.7877 C   0  0  0  0  0  0  0  0  0  0  0  0
   69.8830   59.1578   16.8522 C   0  0  0  0  0  0  0  0  0  0  0  0
   66.4792   51.6575   13.4147 C   0  0  0  0  0  0  0  0  0  0  0  0
   67.1736   51.2338   14.5247 C   0  0  0  0  0  0  0  0  0  0  0  0
   67.9048   52.1106   15.3053 C   0  0  0  0  0  0  0  0  0  0  0  0
   67.9416   53.4462   14.9646 C   0  0  0  0  0  0  0  0  0  0  0  0
   67.2569   53.8967   13.8614 C   0  0  0  0  0  0  0  0  0  0  0  0
   66.5229   52.9894   13.0856 C   0  0  0  0  0  0  0  0  0  0  0  0
   71.4517   54.6372   15.8459 C   0  0  0  0  0  0  0  0  0  0  0  0
   70.1931   56.3840   14.6639 C   0  0  0  0  0  0  0  0  0  0  0  0
   73.3207   60.4204   20.2745 C   0  0  1  0  0  0  0  0  0  0  0  0
   72.1294   61.2836   20.0242 C   0  0  0  0  0  0  0  0  0  0  0  0
   69.3643   59.4975   18.1583 C   0  0  0  0  0  0  0  0  0  0  0  0
   69.3926   60.8473   18.5317 C   0  0  0  0  0  0  0  0  0  0  0  0
   68.9698   61.3074   19.7499 C   0  0  0  0  0  0  0  0  0  0  0  0
   68.4877   60.4314   20.6784 C   0  0  0  0  0  0  0  0  0  0  0  0
   68.4356   59.0934   20.3680 C   0  0  0  0  0  0  0  0  0  0  0  0
   68.8739   58.6471   19.1151 C   0  0  0  0  0  0  0  0  0  0  0  0
   64.2569   50.7645   13.0810 C   0  0  0  0  0  0  0  0  0  0  0  0
   72.0296   52.5526   13.8375 C   0  0  0  0  0  0  0  0  0  0  0  0
   72.6849   54.6738   14.9776 C   0  0  2  0  0  0  0  0  0  0  0  0
   72.5688   53.9621   13.6766 C   0  0  0  0  0  0  0  0  0  0  0  0
   73.8905   54.0981   15.6959 C   0  0  0  0  0  0  0  0  0  0  0  0
   65.7202   50.6626   12.6367 C   0  0  2  0  0  0  0  0  0  0  0  0
   74.4896   52.9806   14.8966 C   0  0  0  0  0  0  0  0  0  0  0  0
   70.2977   55.1121   15.2286 N   0  0  0  0  0  0  0  0  0  0  0  0
   71.6229   57.6030   17.5735 N   0  0  0  0  0  0  0  0  0  0  0  0
   69.1527   54.0404   17.2921 O   0  0  0  0  0  0  0  0  0  0  0  0
   67.9368   55.7675   16.1449 O   0  0  0  0  0  0  0  0  0  0  0  0
   70.9840   58.6455   14.4483 O   0  0  0  0  0  0  0  0  0  0  0  0
   73.8503   57.7539   17.0093 O   0  0  0  0  0  0  0  0  0  0  0  0
   73.0346   59.5581   18.0673 O   0  0  0  0  0  0  0  0  0  0  0  0
   74.9081   62.0066   19.6893 O   0  0  0  0  0  0  0  0  0  0  0  0
   73.5751   62.2454   21.5714 O   0  0  0  0  0  0  0  0  0  0  0  0
   63.5211   49.8199   12.3817 O   0  0  0  0  0  0  0  0  0  0  0  0
   66.2312   49.4007   12.8575 O   0  0  0  0  0  0  0  0  0  0  0  0
   68.8382   54.5899   15.9201 S   0  0  2  0  0  6  0  0  0  0  0  0
  1  2  1  0
 16  1  1  0
  1 36  1  6
  2  8  1  6
  2 33  1  0
 33  3  1  0
  3 37  2  0
  3 38  1  0
  4  5  1  0
  4 17  1  0
  4 38  1  6
  5 39  1  0
 17  6  1  0
  6 39  1  6
  6 40  1  0
 18  7  1  0
  7 40  1  0
  8 19  1  0
 10  9  2  0
 14  9  1  0
  9 30  1  0
 11 10  1  0
 12 11  2  0
 12 13  1  0
 43 12  1  0
 13 14  2  0
 27 15  1  1
 32 15  1  0
 32 16  1  0
 17 18  1  6
 19 20  2  0
 19 24  1  0
 20 21  1  0
 21 22  2  0
 23 22  1  0
 24 23  2  0
 30 25  1  0
 25 41  1  0
 28 26  1  0
 27 28  1  0
 27 29  1  0
 29 31  1  0
 30 42  1  1
 43 32  1  6
 43 34  2  0
 43 35  2  0
M  END
$$$$
