
     RDKit          3D

 43 46  0  0  0  0  0  0  0  0999 V2000
   71.1013   57.3596   15.7633 C   0  0  1  0  0  0  0  0  0  0  0  0
   70.5565   57.8306   17.0600 C   0  0  2  0  0  0  0  0  0  0  0  0
   72.8445   58.4860   17.8719 C   0  0  0  0  0  0  0  0  0  0  0  0
   74.5041   59.4506   19.4542 C   0  0  1  0  0  0  0  0  0  0  0  0
   74.9846   60.3304   18.3274 C   0  0  0  0  0  0  0  0  0  0  0  0
   74.8643   61.6497   20.1269 C   0  0  1  0  0  0  0  0  0  0  0  0
   72.8267   62.5027   19.8752 C   0  0  0  0  0  0  0  0  0  0  0  0
   69.1592   58.3028   17.0819 C   0  0  0  0  0  0  0  0  0  0  0  0
   66.6539   51.2810   13.3814 C   0  0  0  0  0  0  0  0  0  0  0  0
   68.0179   51.2483   13.5607 C   0  0  0  0  0  0  0  0  0  0  0  0
   68.6863   52.2437   14.2500 C   0  0  0  0  0  0  0  0  0  0  0  0
   67.9697   53.2994   14.7726 C   0  0  0  0  0  0  0  0  0  0  0  0
   66.6063   53.3570   14.6089 C   0  0  0  0  0  0  0  0  0  0  0  0
   65.9509   52.3367   13.9065 C   0  0  0  0  0  0  0  0  0  0  0  0
   71.2731   54.4788   14.9295 C   0  0  0  0  0  0  0  0  0  0  0  0
   70.1088   56.6414   14.9274 C   0  0  0  0  0  0  0  0  0  0  0  0
   73.9327   60.4929   20.4090 C   0  0  1  0  0  0  0  0  0  0  0  0
   72.6043   61.0081   19.9653 C   0  0  0  0  0  0  0  0  0  0  0  0
   68.6222   58.9282   18.2697 C   0  0  0  0  0  0  0  0  0  0  0  0
   68.0880   58.0879   19.2549 C   0  0  0  0  0  0  0  0  0  0  0  0
   67.5138   58.5429   20.4115 C   0  0  0  0  0  0  0  0  0  0  0  0
   67.4394   59.8839   20.6528 C   0  0  0  0  0  0  0  0  0  0  0  0
   67.9477   60.7576   19.7213 C   0  0  0  0  0  0  0  0  0  0  0  0
   68.5303   60.2678   18.5458 C   0  0  0  0  0  0  0  0  0  0  0  0
   66.8866   49.9005   11.4098 C   0  0  0  0  0  0  0  0  0  0  0  0
   74.1530   54.4431   14.2940 C   0  0  0  0  0  0  0  0  0  0  0  0
   72.3165   54.9838   15.8950 C   0  0  2  0  0  0  0  0  0  0  0  0
   73.5845   55.4525   15.2744 C   0  0  0  0  0  0  0  0  0  0  0  0
   72.6844   53.9291   16.9212 C   0  0  0  0  0  0  0  0  0  0  0  0
   66.0146   50.1806   12.6388 C   0  0  2  0  0  0  0  0  0  0  0  0
   72.3828   52.5594   16.3928 C   0  0  0  0  0  0  0  0  0  0  0  0
   70.1128   55.2466   14.8810 N   0  0  0  0  0  0  0  0  0  0  0  0
   71.4754   58.7523   17.7125 N   0  0  0  0  0  0  0  0  0  0  0  0
   69.2067   54.1020   17.0226 O   0  0  0  0  0  0  0  0  0  0  0  0
   67.7349   55.6352   15.8998 O   0  0  0  0  0  0  0  0  0  0  0  0
   71.7698   58.3722   15.1054 O   0  0  0  0  0  0  0  0  0  0  0  0
   73.5355   58.1614   16.8700 O   0  0  0  0  0  0  0  0  0  0  0  0
   73.5126   58.5551   19.0802 O   0  0  0  0  0  0  0  0  0  0  0  0
   75.1822   61.5996   18.7989 O   0  0  0  0  0  0  0  0  0  0  0  0
   74.0672   62.7409   20.4813 O   0  0  0  0  0  0  0  0  0  0  0  0
   66.2755   48.9090   10.6573 O   0  0  0  0  0  0  0  0  0  0  0  0
   64.7310   50.5359   12.2804 O   0  0  0  0  0  0  0  0  0  0  0  0
   68.7628   54.5703   15.6563 S   0  0  2  0  0  6  0  0  0  0  0  0
  1  2  1  0
 16  1  1  0
  1 36  1  6
  2  8  1  6
  2 33  1  0
 33  3  1  0
  3 37  2  0
  3 38  1  0
  4  5  1  0
  4 17  1  0
  4 38  1  6
  5 39  1  0
 17  6  1  0
  6 39  1  6
  6 40  1  0
 18  7  1  0
  7 40  1  0
  8 19  1  0
 10  9  2  0
 14  9  1  0
  9 30  1  0
 11 10  1  0
 12 11  2  0
 12 13  1  0
 43 12  1  0
 13 14  2  0
 27 15  1  6
 32 15  1  0
 32 16  1  0
 17 18  1  6
 19 20  2  0
 19 24  1  0
 20 21  1  0
 21 22  2  0
 23 22  1  0
 24 23  2  0
 30 25  1  0
 25 41  1  0
 28 26  1  0
 27 28  1  0
 27 29  1  0
 29 31  1  0
 30 42  1  6
 43 32  1  6
 43 34  2  0
 43 35  2  0
M  END
$$$$
