
     RDKit          3D

 15 16  0  0  0  0  0  0  0  0999 V2000
   37.8098   14.5790   24.7327 N   0  0  0  0  0  4  0  0  0  0  0  0
   38.1003   15.5225   23.6959 C   0  0  2  0  0  0  0  0  0  0  0  0
   37.1393   16.6395   23.5889 C   0  0  0  0  0  0  0  0  0  0  0  0
   35.8662   16.5144   24.1073 O   0  0  0  0  0  1  0  0  0  0  0  0
   38.3947   14.8217   22.4274 C   0  0  0  0  0  0  0  0  0  0  0  0
   39.6321   14.0411   22.3743 C   0  0  0  0  0  0  0  0  0  0  0  0
   39.9264   12.7692   22.8029 C   0  0  0  0  0  0  0  0  0  0  0  0
   40.8213   14.5198   21.8279 C   0  0  0  0  0  0  0  0  0  0  0  0
   41.2270   12.4831   22.5337 N   0  0  0  0  0  0  0  0  0  0  0  0
   41.7829   13.5503   21.9363 C   0  0  0  0  0  0  0  0  0  0  0  0
   41.1795   15.7173   21.2364 C   0  0  0  0  0  0  0  0  0  0  0  0
   43.0874   13.7453   21.4709 C   0  0  0  0  0  0  0  0  0  0  0  0
   42.4601   15.9509   20.7624 C   0  0  0  0  0  0  0  0  0  0  0  0
   43.4010   14.9543   20.8880 C   0  0  0  0  0  0  0  0  0  0  0  0
   37.4488   17.7194   23.0322 O   0  0  0  0  0  0  0  0  0  0  0  0
  2  1  1  1
  2  3  1  0
  2  5  1  0
  3  4  1  0
  3 15  2  0
  5  6  1  0
  6  7  2  0
  6  8  1  0
  7  9  1  0
  8 10  2  0
  8 11  1  0
  9 10  1  0
 10 12  1  0
 11 13  2  0
 12 14  2  0
 13 14  1  0
M  CHG  2   1   1   4  -1
M  END
$$$$
