
     RDKit          3D

 15 16  0  0  0  0  0  0  0  0999 V2000
   38.0892   13.7119   23.5308 N   0  0  0  0  0  4  0  0  0  0  0  0
   38.4453   15.0864   23.3473 C   0  0  2  0  0  0  0  0  0  0  0  0
   37.3286   16.0410   23.5036 C   0  0  0  0  0  0  0  0  0  0  0  0
   37.5718   17.3995   23.5230 O   0  0  0  0  0  1  0  0  0  0  0  0
   39.2475   15.2522   22.1161 C   0  0  0  0  0  0  0  0  0  0  0  0
   40.5640   14.6123   22.0928 C   0  0  0  0  0  0  0  0  0  0  0  0
   41.6171   14.6617   22.9742 C   0  0  0  0  0  0  0  0  0  0  0  0
   40.9937   13.7725   21.0670 C   0  0  0  0  0  0  0  0  0  0  0  0
   42.6383   13.8932   22.5133 N   0  0  0  0  0  0  0  0  0  0  0  0
   42.2649   13.3446   21.3452 C   0  0  0  0  0  0  0  0  0  0  0  0
   40.4059   13.3249   19.8981 C   0  0  0  0  0  0  0  0  0  0  0  0
   42.9610   12.4848   20.4894 C   0  0  0  0  0  0  0  0  0  0  0  0
   41.0606   12.4730   19.0236 C   0  0  0  0  0  0  0  0  0  0  0  0
   42.3372   12.0632   19.3349 C   0  0  0  0  0  0  0  0  0  0  0  0
   36.1433   15.6496   23.6206 O   0  0  0  0  0  0  0  0  0  0  0  0
  2  1  1  6
  2  3  1  0
  2  5  1  0
  3  4  1  0
  3 15  2  0
  5  6  1  0
  6  7  2  0
  6  8  1  0
  7  9  1  0
  8 10  2  0
  8 11  1  0
  9 10  1  0
 10 12  1  0
 11 13  2  0
 12 14  2  0
 13 14  1  0
M  CHG  2   1   1   4  -1
M  END
$$$$
