
     RDKit          3D

 15 16  0  0  0  0  0  0  0  0999 V2000
   37.3600   14.0280   23.5722 N   0  0  0  0  0  4  0  0  0  0  0  0
   37.9999   15.2758   23.2838 C   0  0  2  0  0  0  0  0  0  0  0  0
   37.1345   16.4639   23.4334 C   0  0  0  0  0  0  0  0  0  0  0  0
   35.7701   16.3170   23.5813 O   0  0  0  0  0  1  0  0  0  0  0  0
   38.7407   15.1934   22.0066 C   0  0  0  0  0  0  0  0  0  0  0  0
   40.1245   14.7201   22.0735 C   0  0  0  0  0  0  0  0  0  0  0  0
   41.1221   14.9476   22.9907 C   0  0  0  0  0  0  0  0  0  0  0  0
   40.6991   13.8842   21.1181 C   0  0  0  0  0  0  0  0  0  0  0  0
   42.2487   14.2864   22.6174 N   0  0  0  0  0  0  0  0  0  0  0  0
   41.9985   13.6321   21.4710 C   0  0  0  0  0  0  0  0  0  0  0  0
   40.2242   13.3035   19.9564 C   0  0  0  0  0  0  0  0  0  0  0  0
   42.8320   12.8184   20.6968 C   0  0  0  0  0  0  0  0  0  0  0  0
   41.0165   12.4915   19.1614 C   0  0  0  0  0  0  0  0  0  0  0  0
   42.3175   12.2599   19.5465 C   0  0  0  0  0  0  0  0  0  0  0  0
   37.6087   17.6245   23.4312 O   0  0  0  0  0  0  0  0  0  0  0  0
  2  1  1  6
  2  3  1  0
  2  5  1  0
  3  4  1  0
  3 15  2  0
  5  6  1  0
  6  7  2  0
  6  8  1  0
  7  9  1  0
  8 10  2  0
  8 11  1  0
  9 10  1  0
 10 12  1  0
 11 13  2  0
 12 14  2  0
 13 14  1  0
M  CHG  2   1   1   4  -1
M  END
$$$$
