
     RDKit          3D

 15 16  0  0  0  0  0  0  0  0999 V2000
   37.3665   15.9551   21.5228 N   0  0  0  0  0  4  0  0  0  0  0  0
   37.8141   15.5477   22.8566 C   0  0  2  0  0  0  0  0  0  0  0  0
   37.0125   16.3720   23.8325 C   0  0  0  0  0  0  0  0  0  0  0  0
   37.4533   16.5459   25.1331 O   0  0  0  0  0  1  0  0  0  0  0  0
   39.2486   15.8499   23.1381 C   0  0  0  0  0  0  0  0  0  0  0  0
   40.1808   15.2522   22.1522 C   0  0  0  0  0  0  0  0  0  0  0  0
   40.5443   15.7053   20.9058 C   0  0  0  0  0  0  0  0  0  0  0  0
   40.9248   14.0909   22.3455 C   0  0  0  0  0  0  0  0  0  0  0  0
   41.4560   14.8650   20.3742 N   0  0  0  0  0  0  0  0  0  0  0  0
   41.7155   13.8484   21.2451 C   0  0  0  0  0  0  0  0  0  0  0  0
   40.9708   13.1926   23.3961 C   0  0  0  0  0  0  0  0  0  0  0  0
   42.5426   12.7503   21.1587 C   0  0  0  0  0  0  0  0  0  0  0  0
   41.8029   12.0833   23.3179 C   0  0  0  0  0  0  0  0  0  0  0  0
   42.5831   11.8616   22.2092 C   0  0  0  0  0  0  0  0  0  0  0  0
   35.9342   16.9231   23.5064 O   0  0  0  0  0  0  0  0  0  0  0  0
  1  2  1  1
  2  3  1  1
  2  5  1  0
  3  4  1  0
  3 15  2  0
  5  6  1  6
  6  7  2  0
  6  8  1  0
  7  9  1  0
  8 10  2  0
  8 11  1  0
  9 10  1  0
 10 12  1  0
 11 13  2  0
 12 14  2  0
 13 14  1  0
M  CHG  2   1   1   4  -1
M  END
$$$$
