
     RDKit          3D

 15 16  0  0  0  0  0  0  0  0999 V2000
   36.4096   14.3324   23.0305 N   0  0  0  0  0  4  0  0  0  0  0  0
   37.8722   14.3723   23.0997 C   0  0  2  0  0  0  0  0  0  0  0  0
   38.2305   15.7856   23.4851 C   0  0  0  0  0  0  0  0  0  0  0  0
   37.2468   16.7525   23.6020 O   0  0  0  0  0  1  0  0  0  0  0  0
   38.5524   14.1122   21.7966 C   0  0  0  0  0  0  0  0  0  0  0  0
   39.9442   13.6232   21.9461 C   0  0  0  0  0  0  0  0  0  0  0  0
   40.4105   12.4878   22.5660 C   0  0  0  0  0  0  0  0  0  0  0  0
   41.0769   14.2371   21.4172 C   0  0  0  0  0  0  0  0  0  0  0  0
   41.7500   12.4190   22.4216 N   0  0  0  0  0  0  0  0  0  0  0  0
   42.1972   13.4932   21.7107 C   0  0  0  0  0  0  0  0  0  0  0  0
   41.2387   15.4133   20.7078 C   0  0  0  0  0  0  0  0  0  0  0  0
   43.4615   13.8798   21.3238 C   0  0  0  0  0  0  0  0  0  0  0  0
   42.5096   15.8099   20.3125 C   0  0  0  0  0  0  0  0  0  0  0  0
   43.6136   15.0513   20.6172 C   0  0  0  0  0  0  0  0  0  0  0  0
   39.4143   16.1315   23.7117 O   0  0  0  0  0  0  0  0  0  0  0  0
  1  2  1  1
  2  3  1  6
  2  5  1  0
  3  4  1  0
  3 15  2  0
  5  6  1  6
  6  7  2  0
  6  8  1  0
  7  9  1  0
  8 10  2  0
  8 11  1  0
  9 10  1  0
 10 12  1  0
 11 13  2  0
 12 14  2  0
 13 14  1  0
M  CHG  2   1   1   4  -1
M  END
$$$$
