
     RDKit          3D

 15 16  0  0  0  0  0  0  0  0999 V2000
   37.3045   14.3473   23.9507 N   0  0  0  0  0  4  0  0  0  0  0  0
   37.8049   15.6634   23.6917 C   0  0  2  0  0  0  0  0  0  0  0  0
   36.8012   16.7412   23.8099 C   0  0  0  0  0  0  0  0  0  0  0  0
   35.4589   16.4347   23.9062 O   0  0  0  0  0  1  0  0  0  0  0  0
   38.6000   15.6777   22.4449 C   0  0  0  0  0  0  0  0  0  0  0  0
   39.9247   15.0569   22.4976 C   0  0  0  0  0  0  0  0  0  0  0  0
   40.9760   15.2249   23.3665 C   0  0  0  0  0  0  0  0  0  0  0  0
   40.3666   14.1065   21.5792 C   0  0  0  0  0  0  0  0  0  0  0  0
   42.0077   14.4204   23.0002 N   0  0  0  0  0  0  0  0  0  0  0  0
   41.6430   13.7316   21.9060 C   0  0  0  0  0  0  0  0  0  0  0  0
   39.7862   13.5150   20.4722 C   0  0  0  0  0  0  0  0  0  0  0  0
   42.3513   12.7850   21.1587 C   0  0  0  0  0  0  0  0  0  0  0  0
   40.4530   12.5735   19.7054 C   0  0  0  0  0  0  0  0  0  0  0  0
   41.7345   12.2205   20.0629 C   0  0  0  0  0  0  0  0  0  0  0  0
   37.1358   17.9493   23.8269 O   0  0  0  0  0  0  0  0  0  0  0  0
  2  1  1  6
  2  3  1  0
  2  5  1  0
  3  4  1  0
  3 15  2  0
  5  6  1  0
  6  7  2  0
  6  8  1  0
  7  9  1  0
  8 10  2  0
  8 11  1  0
  9 10  1  0
 10 12  1  0
 11 13  2  0
 12 14  2  0
 13 14  1  0
M  CHG  2   1   1   4  -1
M  END
$$$$
