
     RDKit          3D

 15 16  0  0  0  0  0  0  0  0999 V2000
   43.3432   12.1172   20.3969 N   0  0  0  0  0  4  0  0  0  0  0  0
   43.1680   13.5422   20.6867 C   0  0  2  0  0  0  0  0  0  0  0  0
   44.5563   14.1298   20.7311 C   0  0  0  0  0  0  0  0  0  0  0  0
   44.7467   15.4566   21.0767 O   0  0  0  0  0  1  0  0  0  0  0  0
   42.5554   13.8237   22.0185 C   0  0  0  0  0  0  0  0  0  0  0  0
   41.1237   13.4468   22.0997 C   0  0  0  0  0  0  0  0  0  0  0  0
   40.5545   12.2396   22.4312 C   0  0  0  0  0  0  0  0  0  0  0  0
   40.0490   14.3069   21.8880 C   0  0  0  0  0  0  0  0  0  0  0  0
   39.2110   12.3620   22.4196 N   0  0  0  0  0  0  0  0  0  0  0  0
   38.8627   13.6372   22.0852 C   0  0  0  0  0  0  0  0  0  0  0  0
   39.9960   15.6373   21.5138 C   0  0  0  0  0  0  0  0  0  0  0  0
   37.6370   14.2446   21.9232 C   0  0  0  0  0  0  0  0  0  0  0  0
   38.7645   16.2580   21.3495 C   0  0  0  0  0  0  0  0  0  0  0  0
   37.5932   15.5693   21.5515 C   0  0  0  0  0  0  0  0  0  0  0  0
   45.5739   13.4481   20.4620 O   0  0  0  0  0  0  0  0  0  0  0  0
  1  2  1  1
  2  3  1  1
  2  5  1  0
  3  4  1  0
  3 15  2  0
  5  6  1  6
  6  7  2  0
  6  8  1  0
  7  9  1  0
  8 10  2  0
  8 11  1  0
  9 10  1  0
 10 12  1  0
 11 13  2  0
 12 14  2  0
 13 14  1  0
M  CHG  2   1   1   4  -1
M  END
$$$$
