
     RDKit          3D

 15 16  0  0  0  0  0  0  0  0999 V2000
   36.8746   14.7100   22.0267 N   0  0  0  0  0  4  0  0  0  0  0  0
   37.4919   15.4384   23.0935 C   0  0  2  0  0  0  0  0  0  0  0  0
   36.6793   16.5456   23.6380 C   0  0  0  0  0  0  0  0  0  0  0  0
   37.1914   17.3658   24.6230 O   0  0  0  0  0  1  0  0  0  0  0  0
   38.8830   15.7937   22.7391 C   0  0  0  0  0  0  0  0  0  0  0  0
   39.8564   14.7008   22.7029 C   0  0  0  0  0  0  0  0  0  0  0  0
   39.9473   13.5369   23.4277 C   0  0  0  0  0  0  0  0  0  0  0  0
   40.9518   14.6738   21.8419 C   0  0  0  0  0  0  0  0  0  0  0  0
   41.0405   12.8338   23.0323 N   0  0  0  0  0  0  0  0  0  0  0  0
   41.6618   13.5230   22.0609 C   0  0  0  0  0  0  0  0  0  0  0  0
   41.4182   15.5424   20.8722 C   0  0  0  0  0  0  0  0  0  0  0  0
   42.8206   13.2189   21.3392 C   0  0  0  0  0  0  0  0  0  0  0  0
   42.5613   15.2788   20.1353 C   0  0  0  0  0  0  0  0  0  0  0  0
   43.2499   14.1129   20.3820 C   0  0  0  0  0  0  0  0  0  0  0  0
   35.5168   16.7698   23.2257 O   0  0  0  0  0  0  0  0  0  0  0  0
  2  1  1  6
  2  3  1  0
  2  5  1  0
  3  4  1  0
  3 15  2  0
  5  6  1  0
  6  7  2  0
  6  8  1  0
  7  9  1  0
  8 10  2  0
  8 11  1  0
  9 10  1  0
 10 12  1  0
 11 13  2  0
 12 14  2  0
 13 14  1  0
M  CHG  2   1   1   4  -1
M  END
$$$$
