
     RDKit          3D

 15 16  0  0  0  0  0  0  0  0999 V2000
   42.4441   13.1003   20.0073 N   0  0  0  0  0  4  0  0  0  0  0  0
   42.7927   14.3980   20.5015 C   0  0  2  0  0  0  0  0  0  0  0  0
   44.2122   14.7669   20.3238 C   0  0  0  0  0  0  0  0  0  0  0  0
   45.1721   13.7870   20.1707 O   0  0  0  0  0  1  0  0  0  0  0  0
   42.2581   14.5914   21.8667 C   0  0  0  0  0  0  0  0  0  0  0  0
   40.8241   14.8616   21.9838 C   0  0  0  0  0  0  0  0  0  0  0  0
   40.1020   16.0235   21.8540 C   0  0  0  0  0  0  0  0  0  0  0  0
   39.8777   13.8818   22.2776 C   0  0  0  0  0  0  0  0  0  0  0  0
   38.7829   15.7697   22.0575 N   0  0  0  0  0  0  0  0  0  0  0  0
   38.6364   14.4598   22.3176 C   0  0  0  0  0  0  0  0  0  0  0  0
   39.9623   12.5230   22.5195 C   0  0  0  0  0  0  0  0  0  0  0  0
   37.4825   13.7185   22.5919 C   0  0  0  0  0  0  0  0  0  0  0  0
   38.8443   11.7527   22.7949 C   0  0  0  0  0  0  0  0  0  0  0  0
   37.6129   12.3667   22.8272 C   0  0  0  0  0  0  0  0  0  0  0  0
   44.5807   15.9651   20.3062 O   0  0  0  0  0  0  0  0  0  0  0  0
  2  1  1  1
  2  3  1  0
  2  5  1  0
  3  4  1  0
  3 15  2  0
  5  6  1  0
  6  7  2  0
  6  8  1  0
  7  9  1  0
  8 10  2  0
  8 11  1  0
  9 10  1  0
 10 12  1  0
 11 13  2  0
 12 14  2  0
 13 14  1  0
M  CHG  2   1   1   4  -1
M  END
$$$$
