
     RDKit          3D

 15 16  0  0  0  0  0  0  0  0999 V2000
   36.5315   14.3553   23.6704 N   0  0  0  0  0  4  0  0  0  0  0  0
   37.4098   15.5255   23.6007 C   0  0  2  0  0  0  0  0  0  0  0  0
   36.4991   16.7276   23.5995 C   0  0  0  0  0  0  0  0  0  0  0  0
   36.9832   17.9757   23.9518 O   0  0  0  0  0  1  0  0  0  0  0  0
   38.2131   15.6120   22.3455 C   0  0  0  0  0  0  0  0  0  0  0  0
   39.5117   14.9010   22.4272 C   0  0  0  0  0  0  0  0  0  0  0  0
   40.4305   14.8727   23.4499 C   0  0  0  0  0  0  0  0  0  0  0  0
   40.0331   14.0571   21.4497 C   0  0  0  0  0  0  0  0  0  0  0  0
   41.4510   14.0585   23.1100 N   0  0  0  0  0  0  0  0  0  0  0  0
   41.2349   13.5340   21.8701 C   0  0  0  0  0  0  0  0  0  0  0  0
   39.5681   13.7051   20.1956 C   0  0  0  0  0  0  0  0  0  0  0  0
   41.9811   12.6796   21.0887 C   0  0  0  0  0  0  0  0  0  0  0  0
   40.3135   12.8432   19.4016 C   0  0  0  0  0  0  0  0  0  0  0  0
   41.5107   12.3337   19.8421 C   0  0  0  0  0  0  0  0  0  0  0  0
   35.2887   16.6425   23.2829 O   0  0  0  0  0  0  0  0  0  0  0  0
  1  2  1  1
  2  3  1  6
  2  5  1  0
  3  4  1  0
  3 15  2  0
  5  6  1  6
  6  7  2  0
  6  8  1  0
  7  9  1  0
  8 10  2  0
  8 11  1  0
  9 10  1  0
 10 12  1  0
 11 13  2  0
 12 14  2  0
 13 14  1  0
M  CHG  2   1   1   4  -1
M  END
$$$$
