
     RDKit          3D

 15 16  0  0  0  0  0  0  0  0999 V2000
   42.2452   14.2240   20.4671 N   0  0  0  0  0  4  0  0  0  0  0  0
   40.9686   14.4340   21.1539 C   0  0  2  0  0  0  0  0  0  0  0  0
   40.8537   15.9223   21.3690 C   0  0  0  0  0  0  0  0  0  0  0  0
   41.9679   16.6714   21.7058 O   0  0  0  0  0  1  0  0  0  0  0  0
   40.8948   13.8118   22.5089 C   0  0  0  0  0  0  0  0  0  0  0  0
   39.5612   13.9404   23.1441 C   0  0  0  0  0  0  0  0  0  0  0  0
   39.1088   14.8738   24.0469 C   0  0  0  0  0  0  0  0  0  0  0  0
   38.4631   13.1227   22.8889 C   0  0  0  0  0  0  0  0  0  0  0  0
   37.8104   14.6338   24.3234 N   0  0  0  0  0  0  0  0  0  0  0  0
   37.3770   13.5500   23.6186 C   0  0  0  0  0  0  0  0  0  0  0  0
   38.3140   12.0082   22.0837 C   0  0  0  0  0  0  0  0  0  0  0  0
   36.1588   12.9086   23.5723 C   0  0  0  0  0  0  0  0  0  0  0  0
   37.0890   11.3562   22.0300 C   0  0  0  0  0  0  0  0  0  0  0  0
   36.0187   11.8005   22.7677 C   0  0  0  0  0  0  0  0  0  0  0  0
   39.7614   16.5271   21.2512 O   0  0  0  0  0  0  0  0  0  0  0  0
  1  2  1  1
  2  3  1  1
  2  5  1  0
  3  4  1  0
  3 15  2  0
  5  6  1  6
  6  7  2  0
  6  8  1  0
  7  9  1  0
  8 10  2  0
  8 11  1  0
  9 10  1  0
 10 12  1  0
 11 13  2  0
 12 14  2  0
 13 14  1  0
M  CHG  2   1   1   4  -1
M  END
$$$$
