
     RDKit          3D

 15 16  0  0  0  0  0  0  0  0999 V2000
   44.1677   12.6135   20.6672 N   0  0  0  0  0  4  0  0  0  0  0  0
   43.6180   13.9352   20.6399 C   0  0  2  0  0  0  0  0  0  0  0  0
   44.5967   15.0066   20.3621 C   0  0  0  0  0  0  0  0  0  0  0  0
   45.9160   14.6942   20.1038 O   0  0  0  0  0  1  0  0  0  0  0  0
   42.7560   14.1606   21.8203 C   0  0  0  0  0  0  0  0  0  0  0  0
   41.5774   13.3024   21.9526 C   0  0  0  0  0  0  0  0  0  0  0  0
   41.4536   11.9482   22.1501 C   0  0  0  0  0  0  0  0  0  0  0  0
   40.2687   13.7769   21.8888 C   0  0  0  0  0  0  0  0  0  0  0  0
   40.1388   11.6102   22.2044 N   0  0  0  0  0  0  0  0  0  0  0  0
   39.4057   12.7246   22.0452 C   0  0  0  0  0  0  0  0  0  0  0  0
   39.7230   15.0345   21.7079 C   0  0  0  0  0  0  0  0  0  0  0  0
   38.0177   12.8957   22.0257 C   0  0  0  0  0  0  0  0  0  0  0  0
   38.3543   15.2471   21.6823 C   0  0  0  0  0  0  0  0  0  0  0  0
   37.5168   14.1667   21.8426 C   0  0  0  0  0  0  0  0  0  0  0  0
   44.2609   16.2144   20.3521 O   0  0  0  0  0  0  0  0  0  0  0  0
  2  1  1  1
  2  3  1  0
  2  5  1  0
  3  4  1  0
  3 15  2  0
  5  6  1  0
  6  7  2  0
  6  8  1  0
  7  9  1  0
  8 10  2  0
  8 11  1  0
  9 10  1  0
 10 12  1  0
 11 13  2  0
 12 14  2  0
 13 14  1  0
M  CHG  2   1   1   4  -1
M  END
$$$$
