
     RDKit          3D

 15 16  0  0  0  0  0  0  0  0999 V2000
   37.5276   14.0670   24.1790 N   0  0  0  0  0  4  0  0  0  0  0  0
   38.0741   15.1161   23.3726 C   0  0  2  0  0  0  0  0  0  0  0  0
   37.2971   16.3726   23.3823 C   0  0  0  0  0  0  0  0  0  0  0  0
   36.1020   16.4467   24.0689 O   0  0  0  0  0  1  0  0  0  0  0  0
   38.4280   14.6052   22.0307 C   0  0  0  0  0  0  0  0  0  0  0  0
   39.6302   13.7753   21.9344 C   0  0  0  0  0  0  0  0  0  0  0  0
   39.8289   12.4315   22.1417 C   0  0  0  0  0  0  0  0  0  0  0  0
   40.8837   14.2738   21.5852 C   0  0  0  0  0  0  0  0  0  0  0  0
   41.1350   12.1224   21.9308 N   0  0  0  0  0  0  0  0  0  0  0  0
   41.7886   13.2454   21.5894 C   0  0  0  0  0  0  0  0  0  0  0  0
   41.3457   15.5353   21.2576 C   0  0  0  0  0  0  0  0  0  0  0  0
   43.1372   13.4439   21.2762 C   0  0  0  0  0  0  0  0  0  0  0  0
   42.6730   15.7747   20.9412 C   0  0  0  0  0  0  0  0  0  0  0  0
   43.5546   14.7178   20.9556 C   0  0  0  0  0  0  0  0  0  0  0  0
   37.6962   17.3947   22.7758 O   0  0  0  0  0  0  0  0  0  0  0  0
  2  1  1  6
  2  3  1  0
  2  5  1  0
  3  4  1  0
  3 15  2  0
  5  6  1  0
  6  7  2  0
  6  8  1  0
  7  9  1  0
  8 10  2  0
  8 11  1  0
  9 10  1  0
 10 12  1  0
 11 13  2  0
 12 14  2  0
 13 14  1  0
M  CHG  2   1   1   4  -1
M  END
$$$$
