
     RDKit          3D

 15 16  0  0  0  0  0  0  0  0999 V2000
   37.3189   14.3637   24.3953 N   0  0  0  0  0  4  0  0  0  0  0  0
   37.9741   15.3989   23.5925 C   0  0  2  0  0  0  0  0  0  0  0  0
   36.9242   16.4507   23.3358 C   0  0  0  0  0  0  0  0  0  0  0  0
   37.2621   17.6458   22.7246 O   0  0  0  0  0  1  0  0  0  0  0  0
   38.4312   14.9324   22.2501 C   0  0  0  0  0  0  0  0  0  0  0  0
   39.6473   14.0858   22.3035 C   0  0  0  0  0  0  0  0  0  0  0  0
   40.1285   13.3101   23.3319 C   0  0  0  0  0  0  0  0  0  0  0  0
   40.5360   13.8819   21.2508 C   0  0  0  0  0  0  0  0  0  0  0  0
   41.2462   12.6735   22.9249 N   0  0  0  0  0  0  0  0  0  0  0  0
   41.5278   13.0075   21.6333 C   0  0  0  0  0  0  0  0  0  0  0  0
   40.5821   14.4062   19.9718 C   0  0  0  0  0  0  0  0  0  0  0  0
   42.5544   12.6421   20.7905 C   0  0  0  0  0  0  0  0  0  0  0  0
   41.6128   14.0422   19.1150 C   0  0  0  0  0  0  0  0  0  0  0  0
   42.5923   13.1679   19.5188 C   0  0  0  0  0  0  0  0  0  0  0  0
   35.7245   16.2835   23.6605 O   0  0  0  0  0  0  0  0  0  0  0  0
  1  2  1  1
  2  3  1  6
  2  5  1  0
  3  4  1  0
  3 15  2  0
  5  6  1  6
  6  7  2  0
  6  8  1  0
  7  9  1  0
  8 10  2  0
  8 11  1  0
  9 10  1  0
 10 12  1  0
 11 13  2  0
 12 14  2  0
 13 14  1  0
M  CHG  2   1   1   4  -1
M  END
$$$$
