
     RDKit          3D

 15 16  0  0  0  0  0  0  0  0999 V2000
   36.6071   14.6398   22.8022 N   0  0  0  0  0  4  0  0  0  0  0  0
   37.6587   15.3900   23.4926 C   0  0  2  0  0  0  0  0  0  0  0  0
   36.9985   16.6389   24.0204 C   0  0  0  0  0  0  0  0  0  0  0  0
   37.7077   17.5287   24.8088 O   0  0  0  0  0  1  0  0  0  0  0  0
   38.7654   15.8499   22.6026 C   0  0  0  0  0  0  0  0  0  0  0  0
   39.3324   14.7687   21.7611 C   0  0  0  0  0  0  0  0  0  0  0  0
   38.8033   14.1575   20.6487 C   0  0  0  0  0  0  0  0  0  0  0  0
   40.5852   14.1850   21.9325 C   0  0  0  0  0  0  0  0  0  0  0  0
   39.6856   13.2539   20.1743 N   0  0  0  0  0  0  0  0  0  0  0  0
   40.8064   13.2458   20.9508 C   0  0  0  0  0  0  0  0  0  0  0  0
   41.5663   14.3776   22.8880 C   0  0  0  0  0  0  0  0  0  0  0  0
   41.9627   12.4995   20.8911 C   0  0  0  0  0  0  0  0  0  0  0  0
   42.7358   13.6304   22.8347 C   0  0  0  0  0  0  0  0  0  0  0  0
   42.9346   12.6981   21.8455 C   0  0  0  0  0  0  0  0  0  0  0  0
   35.8015   16.9140   23.7674 O   0  0  0  0  0  0  0  0  0  0  0  0
  1  2  1  1
  2  3  1  6
  2  5  1  0
  3  4  1  0
  3 15  2  0
  5  6  1  6
  6  7  2  0
  6  8  1  0
  7  9  1  0
  8 10  2  0
  8 11  1  0
  9 10  1  0
 10 12  1  0
 11 13  2  0
 12 14  2  0
 13 14  1  0
M  CHG  2   1   1   4  -1
M  END
$$$$
