
     RDKit          3D

 15 16  0  0  0  0  0  0  0  0999 V2000
   37.1273   14.4208   23.3087 N   0  0  0  0  0  4  0  0  0  0  0  0
   37.7969   15.6632   23.5490 C   0  0  2  0  0  0  0  0  0  0  0  0
   36.9008   16.8230   23.7355 C   0  0  0  0  0  0  0  0  0  0  0  0
   35.5802   16.7528   23.3402 O   0  0  0  0  0  1  0  0  0  0  0  0
   38.8864   15.8608   22.5688 C   0  0  0  0  0  0  0  0  0  0  0  0
   40.0322   14.9542   22.6612 C   0  0  0  0  0  0  0  0  0  0  0  0
   40.7521   14.5024   23.7410 C   0  0  0  0  0  0  0  0  0  0  0  0
   40.6292   14.3529   21.5549 C   0  0  0  0  0  0  0  0  0  0  0  0
   41.7382   13.6684   23.3192 N   0  0  0  0  0  0  0  0  0  0  0  0
   41.6702   13.5711   21.9810 C   0  0  0  0  0  0  0  0  0  0  0  0
   40.3756   14.4014   20.1964 C   0  0  0  0  0  0  0  0  0  0  0  0
   42.4609   12.8397   21.0888 C   0  0  0  0  0  0  0  0  0  0  0  0
   41.1346   13.6926   19.2795 C   0  0  0  0  0  0  0  0  0  0  0  0
   42.1730   12.9172   19.7431 C   0  0  0  0  0  0  0  0  0  0  0  0
   37.3086   17.8899   24.2522 O   0  0  0  0  0  0  0  0  0  0  0  0
  2  1  1  6
  2  3  1  0
  2  5  1  0
  3  4  1  0
  3 15  2  0
  5  6  1  0
  6  7  2  0
  6  8  1  0
  7  9  1  0
  8 10  2  0
  8 11  1  0
  9 10  1  0
 10 12  1  0
 11 13  2  0
 12 14  2  0
 13 14  1  0
M  CHG  2   1   1   4  -1
M  END
$$$$
