
     RDKit          3D

 15 16  0  0  0  0  0  0  0  0999 V2000
   36.8778   16.6573   21.9148 N   0  0  0  0  0  4  0  0  0  0  0  0
   37.4074   15.9994   23.1115 C   0  0  2  0  0  0  0  0  0  0  0  0
   36.6652   16.6015   24.2782 C   0  0  0  0  0  0  0  0  0  0  0  0
   35.3478   17.0036   24.1405 O   0  0  0  0  0  1  0  0  0  0  0  0
   38.8557   16.2605   23.3615 C   0  0  0  0  0  0  0  0  0  0  0  0
   39.7521   15.5788   22.3970 C   0  0  0  0  0  0  0  0  0  0  0  0
   40.4092   16.0894   21.3023 C   0  0  0  0  0  0  0  0  0  0  0  0
   40.1416   14.2433   22.4616 C   0  0  0  0  0  0  0  0  0  0  0  0
   41.1536   15.1173   20.7356 N   0  0  0  0  0  0  0  0  0  0  0  0
   41.0097   13.9546   21.4332 C   0  0  0  0  0  0  0  0  0  0  0  0
   39.7949   13.2255   23.3316 C   0  0  0  0  0  0  0  0  0  0  0  0
   41.5385   12.6966   21.2454 C   0  0  0  0  0  0  0  0  0  0  0  0
   40.3244   11.9544   23.1505 C   0  0  0  0  0  0  0  0  0  0  0  0
   41.1890   11.6895   22.1164 C   0  0  0  0  0  0  0  0  0  0  0  0
   37.2054   16.7565   25.3992 O   0  0  0  0  0  0  0  0  0  0  0  0
  1  2  1  1
  2  3  1  1
  2  5  1  0
  3  4  1  0
  3 15  2  0
  5  6  1  6
  6  7  2  0
  6  8  1  0
  7  9  1  0
  8 10  2  0
  8 11  1  0
  9 10  1  0
 10 12  1  0
 11 13  2  0
 12 14  2  0
 13 14  1  0
M  CHG  2   1   1   4  -1
M  END
$$$$
