
     RDKit          3D

 15 16  0  0  0  0  0  0  0  0999 V2000
   37.7759   14.1559   24.0650 N   0  0  0  0  0  4  0  0  0  0  0  0
   38.3972   15.2218   23.2755 C   0  0  2  0  0  0  0  0  0  0  0  0
   37.3871   16.3404   23.2220 C   0  0  0  0  0  0  0  0  0  0  0  0
   36.2191   16.2680   23.9614 O   0  0  0  0  0  1  0  0  0  0  0  0
   38.6774   14.8474   21.8579 C   0  0  0  0  0  0  0  0  0  0  0  0
   39.8568   13.9620   21.7047 C   0  0  0  0  0  0  0  0  0  0  0  0
   39.9735   12.6121   21.9396 C   0  0  0  0  0  0  0  0  0  0  0  0
   41.1049   14.3548   21.2275 C   0  0  0  0  0  0  0  0  0  0  0  0
   41.2222   12.2108   21.6235 N   0  0  0  0  0  0  0  0  0  0  0  0
   41.9528   13.2718   21.1765 C   0  0  0  0  0  0  0  0  0  0  0  0
   41.5952   15.5895   20.8430 C   0  0  0  0  0  0  0  0  0  0  0  0
   43.2611   13.3783   20.7588 C   0  0  0  0  0  0  0  0  0  0  0  0
   42.9127   15.7058   20.4192 C   0  0  0  0  0  0  0  0  0  0  0  0
   43.7409   14.6107   20.3769 C   0  0  0  0  0  0  0  0  0  0  0  0
   37.5659   17.3624   22.5176 O   0  0  0  0  0  0  0  0  0  0  0  0
  1  2  1  1
  2  3  1  6
  2  5  1  0
  3  4  1  0
  3 15  2  0
  5  6  1  6
  6  7  2  0
  6  8  1  0
  7  9  1  0
  8 10  2  0
  8 11  1  0
  9 10  1  0
 10 12  1  0
 11 13  2  0
 12 14  2  0
 13 14  1  0
M  CHG  2   1   1   4  -1
M  END
$$$$
