
     RDKit          3D

 15 16  0  0  0  0  0  0  0  0999 V2000
   37.5256   13.9227   23.9172 N   0  0  0  0  0  4  0  0  0  0  0  0
   38.1703   15.1766   23.5201 C   0  0  2  0  0  0  0  0  0  0  0  0
   37.1388   16.2570   23.7282 C   0  0  0  0  0  0  0  0  0  0  0  0
   37.5123   17.5897   23.7506 O   0  0  0  0  0  1  0  0  0  0  0  0
   38.5503   15.2377   22.0778 C   0  0  0  0  0  0  0  0  0  0  0  0
   39.9880   14.9678   21.8357 C   0  0  0  0  0  0  0  0  0  0  0  0
   41.0852   15.7424   22.1309 C   0  0  0  0  0  0  0  0  0  0  0  0
   40.5081   13.8017   21.2796 C   0  0  0  0  0  0  0  0  0  0  0  0
   42.2061   15.0828   21.7726 N   0  0  0  0  0  0  0  0  0  0  0  0
   41.8823   13.8705   21.2390 C   0  0  0  0  0  0  0  0  0  0  0  0
   39.8936   12.6697   20.7758 C   0  0  0  0  0  0  0  0  0  0  0  0
   42.6564   12.8573   20.7177 C   0  0  0  0  0  0  0  0  0  0  0  0
   40.6665   11.6428   20.2496 C   0  0  0  0  0  0  0  0  0  0  0  0
   42.0368   11.7337   20.2192 C   0  0  0  0  0  0  0  0  0  0  0  0
   35.9231   15.9920   23.8848 O   0  0  0  0  0  0  0  0  0  0  0  0
  1  2  1  1
  2  3  1  6
  2  5  1  0
  3  4  1  0
  3 15  2  0
  5  6  1  6
  6  7  2  0
  6  8  1  0
  7  9  1  0
  8 10  2  0
  8 11  1  0
  9 10  1  0
 10 12  1  0
 11 13  2  0
 12 14  2  0
 13 14  1  0
M  CHG  2   1   1   4  -1
M  END
$$$$
