
     RDKit          3D

 15 16  0  0  0  0  0  0  0  0999 V2000
   36.6386   13.9282   24.0444 N   0  0  0  0  0  4  0  0  0  0  0  0
   37.8830   14.5865   23.6401 C   0  0  2  0  0  0  0  0  0  0  0  0
   37.5275   16.0321   23.3985 C   0  0  0  0  0  0  0  0  0  0  0  0
   36.2436   16.4895   23.6406 O   0  0  0  0  0  1  0  0  0  0  0  0
   38.4531   14.0793   22.3571 C   0  0  0  0  0  0  0  0  0  0  0  0
   39.9002   13.7666   22.4385 C   0  0  0  0  0  0  0  0  0  0  0  0
   40.6381   13.3122   23.5062 C   0  0  0  0  0  0  0  0  0  0  0  0
   40.8026   13.8387   21.3802 C   0  0  0  0  0  0  0  0  0  0  0  0
   41.9154   13.1211   23.1163 N   0  0  0  0  0  0  0  0  0  0  0  0
   42.0521   13.4396   21.7976 C   0  0  0  0  0  0  0  0  0  0  0  0
   40.6489   14.2438   20.0668 C   0  0  0  0  0  0  0  0  0  0  0  0
   43.1429   13.4311   20.9564 C   0  0  0  0  0  0  0  0  0  0  0  0
   41.7431   14.2372   19.2114 C   0  0  0  0  0  0  0  0  0  0  0  0
   42.9811   13.8350   19.6504 C   0  0  0  0  0  0  0  0  0  0  0  0
   38.3692   16.8607   22.9773 O   0  0  0  0  0  0  0  0  0  0  0  0
  1  2  1  1
  2  3  1  6
  2  5  1  0
  3  4  1  0
  3 15  2  0
  5  6  1  6
  6  7  2  0
  6  8  1  0
  7  9  1  0
  8 10  2  0
  8 11  1  0
  9 10  1  0
 10 12  1  0
 11 13  2  0
 12 14  2  0
 13 14  1  0
M  CHG  2   1   1   4  -1
M  END
$$$$
