
     RDKit          3D

 15 16  0  0  0  0  0  0  0  0999 V2000
   36.4294   16.3522   21.9561 N   0  0  0  0  0  4  0  0  0  0  0  0
   37.0833   15.9180   23.1927 C   0  0  2  0  0  0  0  0  0  0  0  0
   36.4767   16.7484   24.2959 C   0  0  0  0  0  0  0  0  0  0  0  0
   36.8125   16.5130   25.6179 O   0  0  0  0  0  1  0  0  0  0  0  0
   38.5517   16.1837   23.2327 C   0  0  0  0  0  0  0  0  0  0  0  0
   39.3241   15.3696   22.2636 C   0  0  0  0  0  0  0  0  0  0  0  0
   39.6190   15.6259   20.9452 C   0  0  0  0  0  0  0  0  0  0  0  0
   39.9574   14.1621   22.5473 C   0  0  0  0  0  0  0  0  0  0  0  0
   40.3866   14.6291   20.4580 N   0  0  0  0  0  0  0  0  0  0  0  0
   40.6162   13.7009   21.4301 C   0  0  0  0  0  0  0  0  0  0  0  0
   40.0039   13.3964   23.6981 C   0  0  0  0  0  0  0  0  0  0  0  0
   41.3132   12.5128   21.4228 C   0  0  0  0  0  0  0  0  0  0  0  0
   40.7054   12.1978   23.7000 C   0  0  0  0  0  0  0  0  0  0  0  0
   41.3553   11.7572   22.5727 C   0  0  0  0  0  0  0  0  0  0  0  0
   35.6594   17.6697   24.0597 O   0  0  0  0  0  0  0  0  0  0  0  0
  1  2  1  1
  2  3  1  1
  2  5  1  0
  3  4  1  0
  3 15  2  0
  5  6  1  6
  6  7  2  0
  6  8  1  0
  7  9  1  0
  8 10  2  0
  8 11  1  0
  9 10  1  0
 10 12  1  0
 11 13  2  0
 12 14  2  0
 13 14  1  0
M  CHG  2   1   1   4  -1
M  END
$$$$
