
     RDKit          3D

 15 16  0  0  0  0  0  0  0  0999 V2000
   43.7933   12.1112   20.4180 N   0  0  0  0  0  4  0  0  0  0  0  0
   42.7389   13.1160   20.5724 C   0  0  2  0  0  0  0  0  0  0  0  0
   43.2049   14.0407   21.6688 C   0  0  0  0  0  0  0  0  0  0  0  0
   42.8484   15.3782   21.6583 O   0  0  0  0  0  1  0  0  0  0  0  0
   41.4290   12.5617   21.0257 C   0  0  0  0  0  0  0  0  0  0  0  0
   40.3679   13.5892   21.1553 C   0  0  0  0  0  0  0  0  0  0  0  0
   40.1268   14.7000   20.3813 C   0  0  0  0  0  0  0  0  0  0  0  0
   39.3496   13.5830   22.1054 C   0  0  0  0  0  0  0  0  0  0  0  0
   39.0254   15.3312   20.8381 N   0  0  0  0  0  0  0  0  0  0  0  0
   38.5167   14.6615   21.9113 C   0  0  0  0  0  0  0  0  0  0  0  0
   39.0788   12.7269   23.1573 C   0  0  0  0  0  0  0  0  0  0  0  0
   37.4329   14.9120   22.7238 C   0  0  0  0  0  0  0  0  0  0  0  0
   37.9874   12.9711   23.9807 C   0  0  0  0  0  0  0  0  0  0  0  0
   37.1698   14.0544   23.7680 C   0  0  0  0  0  0  0  0  0  0  0  0
   43.9205   13.6380   22.6166 O   0  0  0  0  0  0  0  0  0  0  0  0
  1  2  1  1
  2  3  1  1
  2  5  1  0
  3  4  1  0
  3 15  2  0
  5  6  1  6
  6  7  2  0
  6  8  1  0
  7  9  1  0
  8 10  2  0
  8 11  1  0
  9 10  1  0
 10 12  1  0
 11 13  2  0
 12 14  2  0
 13 14  1  0
M  CHG  2   1   1   4  -1
M  END
$$$$
