
     RDKit          3D

 15 16  0  0  0  0  0  0  0  0999 V2000
   40.7829   12.7092   23.0155 N   0  0  0  0  0  4  0  0  0  0  0  0
   41.5449   13.9506   22.8612 C   0  0  2  0  0  0  0  0  0  0  0  0
   40.7632   15.0108   23.5955 C   0  0  0  0  0  0  0  0  0  0  0  0
   41.3605   16.2107   23.9414 O   0  0  0  0  0  1  0  0  0  0  0  0
   41.6620   14.4237   21.4502 C   0  0  0  0  0  0  0  0  0  0  0  0
   42.3408   13.4533   20.5581 C   0  0  0  0  0  0  0  0  0  0  0  0
   43.5994   12.9079   20.6554 C   0  0  0  0  0  0  0  0  0  0  0  0
   41.7756   12.8590   19.4325 C   0  0  0  0  0  0  0  0  0  0  0  0
   43.7858   12.0337   19.6449 N   0  0  0  0  0  0  0  0  0  0  0  0
   42.6690   11.9792   18.8646 C   0  0  0  0  0  0  0  0  0  0  0  0
   40.5432   13.0236   18.8268 C   0  0  0  0  0  0  0  0  0  0  0  0
   42.3767   11.2649   17.7236 C   0  0  0  0  0  0  0  0  0  0  0  0
   40.2396   12.3065   17.6769 C   0  0  0  0  0  0  0  0  0  0  0  0
   41.1474   11.4340   17.1276 C   0  0  0  0  0  0  0  0  0  0  0  0
   39.5613   14.8476   23.9138 O   0  0  0  0  0  0  0  0  0  0  0  0
  1  2  1  1
  2  3  1  1
  2  5  1  0
  3  4  1  0
  3 15  2  0
  5  6  1  6
  6  7  2  0
  6  8  1  0
  7  9  1  0
  8 10  2  0
  8 11  1  0
  9 10  1  0
 10 12  1  0
 11 13  2  0
 12 14  2  0
 13 14  1  0
M  CHG  2   1   1   4  -1
M  END
$$$$
