
     RDKit          3D

 15 16  0  0  0  0  0  0  0  0999 V2000
   43.6068   12.8087   21.1242 N   0  0  0  0  0  4  0  0  0  0  0  0
   42.8937   14.0595   20.8553 C   0  0  2  0  0  0  0  0  0  0  0  0
   43.9585   15.1073   20.6482 C   0  0  0  0  0  0  0  0  0  0  0  0
   43.6209   16.3727   20.2001 O   0  0  0  0  0  1  0  0  0  0  0  0
   42.0539   14.5401   21.9921 C   0  0  0  0  0  0  0  0  0  0  0  0
   41.0573   13.5428   22.4508 C   0  0  0  0  0  0  0  0  0  0  0  0
   41.1818   12.5538   23.3981 C   0  0  0  0  0  0  0  0  0  0  0  0
   39.7381   13.4588   22.0122 C   0  0  0  0  0  0  0  0  0  0  0  0
   40.0047   11.9070   23.5248 N   0  0  0  0  0  0  0  0  0  0  0  0
   39.0838   12.4458   22.6758 C   0  0  0  0  0  0  0  0  0  0  0  0
   39.0386   14.1768   21.0593 C   0  0  0  0  0  0  0  0  0  0  0  0
   37.7675   12.1283   22.4230 C   0  0  0  0  0  0  0  0  0  0  0  0
   37.7107   13.8642   20.7990 C   0  0  0  0  0  0  0  0  0  0  0  0
   37.0782   12.8484   21.4737 C   0  0  0  0  0  0  0  0  0  0  0  0
   45.1702   14.8748   20.8723 O   0  0  0  0  0  0  0  0  0  0  0  0
  1  2  1  1
  2  3  1  1
  2  5  1  0
  3  4  1  0
  3 15  2  0
  5  6  1  6
  6  7  2  0
  6  8  1  0
  7  9  1  0
  8 10  2  0
  8 11  1  0
  9 10  1  0
 10 12  1  0
 11 13  2  0
 12 14  2  0
 13 14  1  0
M  CHG  2   1   1   4  -1
M  END
$$$$
