
     RDKit          3D

 15 16  0  0  0  0  0  0  0  0999 V2000
   43.9305   11.8759   21.2816 N   0  0  0  0  0  4  0  0  0  0  0  0
   43.2026   13.0735   20.9893 C   0  0  2  0  0  0  0  0  0  0  0  0
   44.0375   14.2185   20.5716 C   0  0  0  0  0  0  0  0  0  0  0  0
   45.3725   14.2695   20.9181 O   0  0  0  0  0  1  0  0  0  0  0  0
   42.2304   13.3627   22.0655 C   0  0  0  0  0  0  0  0  0  0  0  0
   40.8963   13.8012   21.6519 C   0  0  0  0  0  0  0  0  0  0  0  0
   40.4069   14.2052   20.4331 C   0  0  0  0  0  0  0  0  0  0  0  0
   39.8104   13.8869   22.5210 C   0  0  0  0  0  0  0  0  0  0  0  0
   39.0908   14.5219   20.5487 N   0  0  0  0  0  0  0  0  0  0  0  0
   38.7170   14.3298   21.8247 C   0  0  0  0  0  0  0  0  0  0  0  0
   39.6505   13.6228   23.8689 C   0  0  0  0  0  0  0  0  0  0  0  0
   37.4735   14.5147   22.4376 C   0  0  0  0  0  0  0  0  0  0  0  0
   38.4365   13.7928   24.5141 C   0  0  0  0  0  0  0  0  0  0  0  0
   37.3590   14.2394   23.7833 C   0  0  0  0  0  0  0  0  0  0  0  0
   43.5636   15.1640   19.8983 O   0  0  0  0  0  0  0  0  0  0  0  0
  2  1  1  1
  2  3  1  0
  2  5  1  0
  3  4  1  0
  3 15  2  0
  5  6  1  0
  6  7  2  0
  6  8  1  0
  7  9  1  0
  8 10  2  0
  8 11  1  0
  9 10  1  0
 10 12  1  0
 11 13  2  0
 12 14  2  0
 13 14  1  0
M  CHG  2   1   1   4  -1
M  END
$$$$
