
     RDKit          3D

 15 16  0  0  0  0  0  0  0  0999 V2000
   43.0014   12.4254   22.2189 N   0  0  0  0  0  4  0  0  0  0  0  0
   43.1029   12.5311   20.7948 C   0  0  2  0  0  0  0  0  0  0  0  0
   44.4614   12.8208   20.2912 C   0  0  0  0  0  0  0  0  0  0  0  0
   45.0916   11.9356   19.4402 O   0  0  0  0  0  1  0  0  0  0  0  0
   42.0351   13.4060   20.2643 C   0  0  0  0  0  0  0  0  0  0  0  0
   40.7964   13.4834   21.0407 C   0  0  0  0  0  0  0  0  0  0  0  0
   39.8492   12.5347   21.3426 C   0  0  0  0  0  0  0  0  0  0  0  0
   40.3422   14.6509   21.6511 C   0  0  0  0  0  0  0  0  0  0  0  0
   38.8664   13.0910   22.0978 N   0  0  0  0  0  0  0  0  0  0  0  0
   39.1604   14.3874   22.2917 C   0  0  0  0  0  0  0  0  0  0  0  0
   40.8377   15.9400   21.7205 C   0  0  0  0  0  0  0  0  0  0  0  0
   38.4640   15.3743   22.9969 C   0  0  0  0  0  0  0  0  0  0  0  0
   40.1793   16.9463   22.4083 C   0  0  0  0  0  0  0  0  0  0  0  0
   38.9941   16.6458   23.0403 C   0  0  0  0  0  0  0  0  0  0  0  0
   45.0723   13.8659   20.6174 O   0  0  0  0  0  0  0  0  0  0  0  0
  2  1  1  1
  2  3  1  0
  2  5  1  0
  3  4  1  0
  3 15  2  0
  5  6  1  0
  6  7  2  0
  6  8  1  0
  7  9  1  0
  8 10  2  0
  8 11  1  0
  9 10  1  0
 10 12  1  0
 11 13  2  0
 12 14  2  0
 13 14  1  0
M  CHG  2   1   1   4  -1
M  END
$$$$
