
     RDKit          3D

 15 16  0  0  0  0  0  0  0  0999 V2000
   44.6344   11.8984   21.3229 N   0  0  0  0  0  4  0  0  0  0  0  0
   43.9171   12.9080   22.1050 C   0  0  2  0  0  0  0  0  0  0  0  0
   44.4830   12.8300   23.5007 C   0  0  0  0  0  0  0  0  0  0  0  0
   44.1874   13.8085   24.4341 O   0  0  0  0  0  1  0  0  0  0  0  0
   42.4524   12.6516   22.2360 C   0  0  0  0  0  0  0  0  0  0  0  0
   41.6868   12.9678   21.0062 C   0  0  0  0  0  0  0  0  0  0  0  0
   41.7536   12.3881   19.7611 C   0  0  0  0  0  0  0  0  0  0  0  0
   40.6816   13.9264   20.9049 C   0  0  0  0  0  0  0  0  0  0  0  0
   40.8411   12.9642   18.9514 N   0  0  0  0  0  0  0  0  0  0  0  0
   40.1562   13.9265   19.6326 C   0  0  0  0  0  0  0  0  0  0  0  0
   40.1795   14.8325   21.8213 C   0  0  0  0  0  0  0  0  0  0  0  0
   39.1561   14.7921   19.2477 C   0  0  0  0  0  0  0  0  0  0  0  0
   39.1702   15.7079   21.4421 C   0  0  0  0  0  0  0  0  0  0  0  0
   38.6613   15.6901   20.1662 C   0  0  0  0  0  0  0  0  0  0  0  0
   45.2297   11.8896   23.8622 O   0  0  0  0  0  0  0  0  0  0  0  0
  1  2  1  1
  2  3  1  1
  2  5  1  0
  3  4  1  0
  3 15  2  0
  5  6  1  6
  6  7  2  0
  6  8  1  0
  7  9  1  0
  8 10  2  0
  8 11  1  0
  9 10  1  0
 10 12  1  0
 11 13  2  0
 12 14  2  0
 13 14  1  0
M  CHG  2   1   1   4  -1
M  END
$$$$
