
     RDKit          3D

  9  8  0  0  0  0  0  0  0  0999 V2000
   19.0025   34.4471   49.3241 O   0  0  0  0  0  0  0  0  0  0  0  0
   18.4266   35.4588   48.8487 C   0  0  0  0  0  0  0  0  0  0  0  0
   19.0487   36.6924   49.0345 O   0  0  0  0  0  1  0  0  0  0  0  0
   17.1352   35.3126   48.1230 C   0  0  0  0  0  0  0  0  0  0  0  0
   16.1494   36.2463   48.7823 C   0  0  0  0  0  0  0  0  0  0  0  0
   14.4769   35.8949   48.3315 S   0  0  1  0  0  6  0  0  0  0  0  0
   13.5511   36.8379   49.0729 O   0  0  0  0  0  0  0  0  0  0  0  0
   14.3496   36.1610   46.8521 O   0  0  0  0  0  0  0  0  0  0  0  0
   14.0837   34.2884   48.6390 O   0  0  0  0  0  1  0  0  0  0  0  0
  1  2  2  0
  2  3  1  0
  4  2  1  6
  5  4  1  6
  5  6  1  0
  6  7  2  0
  6  8  2  0
  6  9  1  6
M  CHG  2   3  -1   9  -1
M  END
$$$$
