
     RDKit          3D

  9  8  0  0  0  0  0  0  0  0999 V2000
   29.9304   21.9146   51.7129 O   0  0  0  0  0  0  0  0  0  0  0  0
   28.6995   22.0005   51.9554 C   0  0  0  0  0  0  0  0  0  0  0  0
   27.8221   21.6751   50.9221 O   0  0  0  0  0  1  0  0  0  0  0  0
   28.2302   22.4345   53.2997 C   0  0  0  0  0  0  0  0  0  0  0  0
   27.4005   23.6791   53.0979 C   0  0  0  0  0  0  0  0  0  0  0  0
   26.5444   24.1685   54.5646 S   0  0  1  0  0  6  0  0  0  0  0  0
   25.7378   22.9968   55.0868 O   0  0  0  0  0  0  0  0  0  0  0  0
   27.5899   24.5276   55.5911 O   0  0  0  0  0  0  0  0  0  0  0  0
   25.5638   25.5064   54.2846 O   0  0  0  0  0  1  0  0  0  0  0  0
  1  2  2  0
  2  3  1  0
  4  2  1  6
  5  4  1  6
  5  6  1  0
  6  7  2  0
  6  8  2  0
  6  9  1  6
M  CHG  2   3  -1   9  -1
M  END
$$$$
