
     RDKit          3D

  9  8  0  0  0  0  0  0  0  0999 V2000
   19.8610   25.9946   55.4572 O   0  0  0  0  0  0  0  0  0  0  0  0
   20.0302   25.0197   54.6812 C   0  0  0  0  0  0  0  0  0  0  0  0
   21.0402   25.1324   53.7269 O   0  0  0  0  0  1  0  0  0  0  0  0
   19.1716   23.8097   54.8017 C   0  0  0  0  0  0  0  0  0  0  0  0
   17.8833   24.1075   54.0738 C   0  0  0  0  0  0  0  0  0  0  0  0
   16.9129   22.6574   53.7921 S   0  0  1  0  0  6  0  0  0  0  0  0
   17.3200   21.5840   54.7812 O   0  0  0  0  0  0  0  0  0  0  0  0
   15.4736   23.0281   54.0507 O   0  0  0  0  0  0  0  0  0  0  0  0
   17.0667   22.1152   52.2071 O   0  0  0  0  0  1  0  0  0  0  0  0
  1  2  2  0
  2  3  1  0
  4  2  1  6
  5  4  1  6
  5  6  1  0
  6  7  2  0
  6  8  2  0
  6  9  1  6
M  CHG  2   3  -1   9  -1
M  END
$$$$
