
     RDKit          3D

  9  8  0  0  0  0  0  0  0  0999 V2000
   24.6852   21.1495   54.7824 O   0  0  0  0  0  0  0  0  0  0  0  0
   23.8025   21.9181   55.2423 C   0  0  0  0  0  0  0  0  0  0  0  0
   23.0791   21.4696   56.3463 O   0  0  0  0  0  1  0  0  0  0  0  0
   23.5638   23.2452   54.6118 C   0  0  0  0  0  0  0  0  0  0  0  0
   24.3056   24.2673   55.4385 C   0  0  0  0  0  0  0  0  0  0  0  0
   23.2498   25.5540   56.0330 S   0  0  1  0  0  6  0  0  0  0  0  0
   23.0574   26.5868   54.9409 O   0  0  0  0  0  0  0  0  0  0  0  0
   21.9132   24.9261   56.3412 O   0  0  0  0  0  0  0  0  0  0  0  0
   23.8658   26.2550   57.4326 O   0  0  0  0  0  1  0  0  0  0  0  0
  1  2  2  0
  2  3  1  0
  4  2  1  6
  5  4  1  6
  5  6  1  0
  6  7  2  0
  6  8  2  0
  6  9  1  1
M  CHG  2   3  -1   9  -1
M  END
$$$$
