
     RDKit          3D

  9  8  0  0  0  0  0  0  0  0999 V2000
   28.6148   23.2609   54.6308 O   0  0  0  0  0  0  0  0  0  0  0  0
   27.3701   23.0898   54.6810 C   0  0  0  0  0  0  0  0  0  0  0  0
   26.7953   22.2959   53.6897 O   0  0  0  0  0  1  0  0  0  0  0  0
   26.5711   23.7219   55.7663 C   0  0  0  0  0  0  0  0  0  0  0  0
   25.5164   24.5723   55.1010 C   0  0  0  0  0  0  0  0  0  0  0  0
   24.2093   25.0178   56.2041 S   0  0  1  0  0  6  0  0  0  0  0  0
   24.7513   25.9466   57.2716 O   0  0  0  0  0  0  0  0  0  0  0  0
   23.1792   25.7656   55.3944 O   0  0  0  0  0  0  0  0  0  0  0  0
   23.4930   23.6574   56.8868 O   0  0  0  0  0  1  0  0  0  0  0  0
  1  2  2  0
  2  3  1  0
  4  2  1  6
  5  4  1  6
  5  6  1  0
  6  7  2  0
  6  8  2  0
  6  9  1  1
M  CHG  2   3  -1   9  -1
M  END
$$$$
