
     RDKit          3D

  9  8  0  0  0  0  0  0  0  0999 V2000
   28.6618   23.6758   53.7358 O   0  0  0  0  0  0  0  0  0  0  0  0
   28.0981   23.8668   54.8435 C   0  0  0  0  0  0  0  0  0  0  0  0
   28.9032   24.2720   55.9069 O   0  0  0  0  0  1  0  0  0  0  0  0
   26.6304   23.6605   54.9815 C   0  0  0  0  0  0  0  0  0  0  0  0
   26.0323   24.9889   55.3762 C   0  0  0  0  0  0  0  0  0  0  0  0
   24.3563   24.8437   55.9185 S   0  0  1  0  0  6  0  0  0  0  0  0
   23.5851   23.9881   54.9339 O   0  0  0  0  0  0  0  0  0  0  0  0
   24.3797   24.1388   57.2521 O   0  0  0  0  0  0  0  0  0  0  0  0
   23.6394   26.3539   56.1052 O   0  0  0  0  0  1  0  0  0  0  0  0
  1  2  2  0
  2  3  1  0
  4  2  1  6
  5  4  1  6
  5  6  1  0
  6  7  2  0
  6  8  2  0
  6  9  1  1
M  CHG  2   3  -1   9  -1
M  END
$$$$
