
     RDKit          3D

  9  8  0  0  0  0  0  0  0  0999 V2000
   26.0662   22.7934   57.2753 O   0  0  0  0  0  0  0  0  0  0  0  0
   26.2614   22.4609   56.0784 C   0  0  0  0  0  0  0  0  0  0  0  0
   25.6123   21.3150   55.6212 O   0  0  0  0  0  1  0  0  0  0  0  0
   27.1540   23.2774   55.2110 C   0  0  0  0  0  0  0  0  0  0  0  0
   28.5479   22.7179   55.3600 C   0  0  0  0  0  0  0  0  0  0  0  0
   29.4577   22.7517   53.8451 S   0  0  1  0  0  6  0  0  0  0  0  0
   30.8158   22.1161   54.0637 O   0  0  0  0  0  0  0  0  0  0  0  0
   28.6921   21.9182   52.8476 O   0  0  0  0  0  0  0  0  0  0  0  0
   29.6070   24.3197   53.2546 O   0  0  0  0  0  1  0  0  0  0  0  0
  1  2  2  0
  2  3  1  0
  4  2  1  6
  5  4  1  6
  5  6  1  0
  6  7  2  0
  6  8  2  0
  6  9  1  6
M  CHG  2   3  -1   9  -1
M  END
$$$$
