
     RDKit          3D

  9  8  0  0  0  0  0  0  0  0999 V2000
   18.5964   36.4182   48.5154 O   0  0  0  0  0  0  0  0  0  0  0  0
   18.2050   35.2836   48.1402 C   0  0  0  0  0  0  0  0  0  0  0  0
   18.9871   34.1878   48.5019 O   0  0  0  0  0  1  0  0  0  0  0  0
   16.9543   35.1491   47.3442 C   0  0  0  0  0  0  0  0  0  0  0  0
   15.9433   34.4541   48.2233 C   0  0  0  0  0  0  0  0  0  0  0  0
   14.6936   33.6210   47.2916 S   0  0  1  0  0  6  0  0  0  0  0  0
   14.2753   34.4932   46.1252 O   0  0  0  0  0  0  0  0  0  0  0  0
   15.3121   32.3567   46.7485 O   0  0  0  0  0  0  0  0  0  0  0  0
   13.3749   33.2199   48.2559 O   0  0  0  0  0  1  0  0  0  0  0  0
  1  2  2  0
  2  3  1  0
  4  2  1  6
  5  4  1  6
  5  6  1  0
  6  7  2  0
  6  8  2  0
  6  9  1  1
M  CHG  2   3  -1   9  -1
M  END
$$$$
