
     RDKit          3D

  9  8  0  0  0  0  0  0  0  0999 V2000
   18.8515   34.8021   47.8903 O   0  0  0  0  0  0  0  0  0  0  0  0
   18.1560   35.3450   48.7863 C   0  0  0  0  0  0  0  0  0  0  0  0
   18.4031   34.9630   50.1040 O   0  0  0  0  0  1  0  0  0  0  0  0
   17.1199   36.3501   48.4231 C   0  0  0  0  0  0  0  0  0  0  0  0
   16.3821   35.8103   47.2220 C   0  0  0  0  0  0  0  0  0  0  0  0
   14.8202   35.1012   47.6481 S   0  0  1  0  0  6  0  0  0  0  0  0
   15.0244   33.6601   48.0699 O   0  0  0  0  0  0  0  0  0  0  0  0
   14.2866   35.8760   48.8274 O   0  0  0  0  0  0  0  0  0  0  0  0
   13.7277   35.2139   46.3739 O   0  0  0  0  0  1  0  0  0  0  0  0
  1  2  2  0
  2  3  1  0
  4  2  1  6
  5  4  1  6
  5  6  1  0
  6  7  2  0
  6  8  2  0
  6  9  1  6
M  CHG  2   3  -1   9  -1
M  END
$$$$
