
     RDKit          3D

  9  8  0  0  0  0  0  0  0  0999 V2000
   19.3254   36.6906   49.2635 O   0  0  0  0  0  0  0  0  0  0  0  0
   18.5137   35.8865   48.7383 C   0  0  0  0  0  0  0  0  0  0  0  0
   18.8694   34.5387   48.7258 O   0  0  0  0  0  1  0  0  0  0  0  0
   17.2344   36.3841   48.1624 C   0  0  0  0  0  0  0  0  0  0  0  0
   16.1166   35.7380   48.9443 C   0  0  0  0  0  0  0  0  0  0  0  0
   14.5589   35.8470   48.1164 S   0  0  1  0  0  6  0  0  0  0  0  0
   14.4823   37.1620   47.3672 O   0  0  0  0  0  0  0  0  0  0  0  0
   14.5073   34.7199   47.1151 O   0  0  0  0  0  0  0  0  0  0  0  0
   13.2785   35.6854   49.1955 O   0  0  0  0  0  1  0  0  0  0  0  0
  1  2  2  0
  2  3  1  0
  4  2  1  6
  5  4  1  6
  5  6  1  0
  6  7  2  0
  6  8  2  0
  6  9  1  1
M  CHG  2   3  -1   9  -1
M  END
$$$$
