
     RDKit          3D

  9  8  0  0  0  0  0  0  0  0999 V2000
   29.3372   27.0771   52.0150 O   0  0  0  0  0  0  0  0  0  0  0  0
   30.0506   26.0425   51.9692 C   0  0  0  0  0  0  0  0  0  0  0  0
   31.3918   26.2078   51.6269 O   0  0  0  0  0  1  0  0  0  0  0  0
   29.4582   24.7112   52.2732 C   0  0  0  0  0  0  0  0  0  0  0  0
   30.2989   24.0916   53.3630 C   0  0  0  0  0  0  0  0  0  0  0  0
   29.5969   22.5975   53.9942 S   0  0  1  0  0  6  0  0  0  0  0  0
   30.3533   22.1767   55.2380 O   0  0  0  0  0  0  0  0  0  0  0  0
   28.1710   22.9040   54.3799 O   0  0  0  0  0  0  0  0  0  0  0  0
   29.6050   21.3786   52.8348 O   0  0  0  0  0  1  0  0  0  0  0  0
  1  2  2  0
  2  3  1  0
  4  2  1  6
  5  4  1  6
  5  6  1  0
  6  7  2  0
  6  8  2  0
  6  9  1  6
M  CHG  2   3  -1   9  -1
M  END
$$$$
