
     RDKit          3D

  9  8  0  0  0  0  0  0  0  0999 V2000
   33.6136   25.3933   52.5517 O   0  0  0  0  0  0  0  0  0  0  0  0
   32.6789   24.8785   51.8865 C   0  0  0  0  0  0  0  0  0  0  0  0
   32.6196   25.1848   50.5278 O   0  0  0  0  0  1  0  0  0  0  0  0
   31.6925   23.9833   52.5510 C   0  0  0  0  0  0  0  0  0  0  0  0
   30.3315   24.6083   52.3630 C   0  0  0  0  0  0  0  0  0  0  0  0
   29.0537   23.7129   53.1932 S   0  0  1  0  0  6  0  0  0  0  0  0
   29.0225   22.2897   52.6738 O   0  0  0  0  0  0  0  0  0  0  0  0
   29.4119   23.6818   54.6583 O   0  0  0  0  0  0  0  0  0  0  0  0
   27.5592   24.4623   53.0065 O   0  0  0  0  0  1  0  0  0  0  0  0
  1  2  2  0
  2  3  1  0
  4  2  1  6
  5  4  1  6
  5  6  1  0
  6  7  2  0
  6  8  2  0
  6  9  1  1
M  CHG  2   3  -1   9  -1
M  END
$$$$
