
     RDKit          3D

  9  8  0  0  0  0  0  0  0  0999 V2000
   27.7746   23.2871   50.9996 O   0  0  0  0  0  0  0  0  0  0  0  0
   28.5921   23.1416   51.9441 C   0  0  0  0  0  0  0  0  0  0  0  0
   28.0669   23.0363   53.2311 O   0  0  0  0  0  1  0  0  0  0  0  0
   30.0536   23.0879   51.6670 C   0  0  0  0  0  0  0  0  0  0  0  0
   30.5993   24.4756   51.9010 C   0  0  0  0  0  0  0  0  0  0  0  0
   32.3641   24.5325   51.8221 S   0  0  1  0  0  6  0  0  0  0  0  0
   32.9390   23.4462   52.7085 O   0  0  0  0  0  0  0  0  0  0  0  0
   32.7551   24.2442   50.3939 O   0  0  0  0  0  0  0  0  0  0  0  0
   32.9487   26.0481   52.2590 O   0  0  0  0  0  1  0  0  0  0  0  0
  1  2  2  0
  2  3  1  0
  4  2  1  6
  5  4  1  6
  5  6  1  0
  6  7  2  0
  6  8  2  0
  6  9  1  1
M  CHG  2   3  -1   9  -1
M  END
$$$$
