
     RDKit          3D

  9  8  0  0  0  0  0  0  0  0999 V2000
   23.3004   25.5273   57.5793 O   0  0  0  0  0  0  0  0  0  0  0  0
   23.8489   24.8908   56.6438 C   0  0  0  0  0  0  0  0  0  0  0  0
   23.4901   25.2361   55.3417 O   0  0  0  0  0  1  0  0  0  0  0  0
   24.8361   23.8186   56.9465 C   0  0  0  0  0  0  0  0  0  0  0  0
   26.1098   24.1718   56.2176 C   0  0  0  0  0  0  0  0  0  0  0  0
   27.0946   22.7519   55.8463 S   0  0  1  0  0  6  0  0  0  0  0  0
   26.5117   22.0409   54.6417 O   0  0  0  0  0  0  0  0  0  0  0  0
   28.4741   23.2480   55.4902 O   0  0  0  0  0  0  0  0  0  0  0  0
   27.2042   21.7188   57.1693 O   0  0  0  0  0  1  0  0  0  0  0  0
  1  2  2  0
  2  3  1  0
  4  2  1  6
  5  4  1  6
  5  6  1  0
  6  7  2  0
  6  8  2  0
  6  9  1  1
M  CHG  2   3  -1   9  -1
M  END
$$$$
