
     RDKit          3D

 21 22  0  0  0  0  0  0  0  0999 V2000
  -19.4519   17.2222  -13.1220 C   0  0  0  0  0  0  0  0  0  0  0  0
  -18.6105   17.9997  -12.3710 C   0  0  0  0  0  0  0  0  0  0  0  0
  -21.5625   16.6270  -13.9686 O   0  0  0  0  0  0  0  0  0  0  0  0
  -20.8933   17.3734  -13.1992 C   0  0  0  0  0  0  0  0  0  0  0  0
  -21.5939   18.2998  -12.4704 O   0  0  0  0  0  0  0  0  0  0  0  0
  -22.9570   18.5080  -12.3833 C   0  0  0  0  0  0  0  0  0  0  0  0
  -23.3821   19.6131  -11.4992 C   0  0  0  0  0  0  0  0  0  0  0  0
  -24.6962   20.0837  -11.5016 C   0  0  0  0  0  0  0  0  0  0  0  0
  -25.0605   21.1239  -10.6803 C   0  0  0  0  0  0  0  0  0  0  0  0
  -24.1467   21.7269   -9.8380 C   0  0  0  0  0  0  0  0  0  0  0  0
  -22.8488   21.2768   -9.8230 C   0  0  0  0  0  0  0  0  0  0  0  0
  -21.8819   21.8108   -9.0273 O   0  0  0  0  0  0  0  0  0  0  0  0
  -21.7720   21.7993   -7.6458 C   0  0  0  0  0  0  0  0  0  0  0  0
  -20.3690   21.9660   -7.2210 C   0  0  0  0  0  0  0  0  0  0  0  0
  -19.6848   21.0747   -6.4216 O   0  0  0  0  0  0  0  0  0  0  0  0
  -18.4452   21.3602   -5.7986 C   0  0  0  0  0  0  0  0  0  0  0  0
  -19.7101   22.9880   -7.5950 O   0  0  0  0  0  0  0  0  0  0  0  0
  -22.5006   20.2285  -10.6571 C   0  0  0  0  0  0  0  0  0  0  0  0
  -18.7102   16.2862  -13.7820 C   0  0  0  0  0  0  0  0  0  0  0  0
  -17.4165   16.5020  -13.4262 N   0  0  0  0  0  0  0  0  0  0  0  0
  -17.3714   17.5238  -12.5867 N   0  0  0  0  0  0  0  0  0  0  0  0
  1  2  2  0
  1  4  1  0
  1 19  1  0
  2 21  1  0
  4  3  2  0
  4  5  1  0
  6  5  1  1
  6  7  1  0
  7  8  2  0
  7 18  1  0
  8  9  1  0
  9 10  2  0
 10 11  1  0
 11 12  1  0
 11 18  2  0
 13 12  1  1
 13 14  1  0
 14 15  1  0
 14 17  2  0
 16 15  1  1
 19 20  2  0
 20 21  1  0
M  END
$$$$
