
     RDKit          3D

 21 22  0  0  0  0  0  0  0  0999 V2000
  -13.3285   11.2920  -22.9422 C   0  0  0  0  0  0  0  0  0  0  0  0
  -13.8025   10.0298  -22.6661 C   0  0  0  0  0  0  0  0  0  0  0  0
  -12.4521   12.9941  -24.3020 O   0  0  0  0  0  0  0  0  0  0  0  0
  -12.8560   11.8079  -24.2413 C   0  0  0  0  0  0  0  0  0  0  0  0
  -12.8419   11.0440  -25.3787 O   0  0  0  0  0  0  0  0  0  0  0  0
  -12.4585   11.5729  -26.6556 C   0  0  0  0  0  0  0  0  0  0  0  0
  -12.3733   10.5256  -27.6733 C   0  0  0  0  0  0  0  0  0  0  0  0
  -13.5028   10.0995  -28.3322 C   0  0  0  0  0  0  0  0  0  0  0  0
  -13.4063    9.1220  -29.2787 C   0  0  0  0  0  0  0  0  0  0  0  0
  -12.2061    8.5436  -29.5986 C   0  0  0  0  0  0  0  0  0  0  0  0
  -11.0672    8.9543  -28.9525 C   0  0  0  0  0  0  0  0  0  0  0  0
   -9.8551    8.4049  -29.2391 O   0  0  0  0  0  0  0  0  0  0  0  0
   -9.1206    8.4406  -30.4103 C   0  0  0  0  0  0  0  0  0  0  0  0
   -7.7652    7.8792  -30.3366 C   0  0  0  0  0  0  0  0  0  0  0  0
   -6.9438    7.8189  -31.4602 O   0  0  0  0  0  0  0  0  0  0  0  0
   -5.6347    7.2927  -31.3729 C   0  0  0  0  0  0  0  0  0  0  0  0
   -7.2638    7.4221  -29.2686 O   0  0  0  0  0  0  0  0  0  0  0  0
  -11.1696    9.9430  -27.9964 C   0  0  0  0  0  0  0  0  0  0  0  0
  -13.3789   11.9922  -21.7623 C   0  0  0  0  0  0  0  0  0  0  0  0
  -13.8596   11.1850  -20.8298 N   0  0  0  0  0  0  0  0  0  0  0  0
  -14.1166   10.0076  -21.3602 N   0  0  0  0  0  0  0  0  0  0  0  0
  1  2  2  0
  1  4  1  0
  1 19  1  0
  2 21  1  0
  4  3  2  0
  4  5  1  0
  5  6  1  0
  6  7  1  0
  7  8  2  0
  7 18  1  0
  8  9  1  0
  9 10  2  0
 10 11  1  0
 11 12  1  0
 11 18  2  0
 12 13  1  0
 13 14  1  0
 14 15  1  0
 14 17  2  0
 15 16  1  0
 19 20  2  0
 20 21  1  0
M  END
$$$$
