
     RDKit          3D

 21 22  0  0  0  0  0  0  0  0999 V2000
  -13.4147   15.4858  -21.4032 C   0  0  0  0  0  0  0  0  0  0  0  0
  -13.2786   15.1628  -20.0790 C   0  0  0  0  0  0  0  0  0  0  0  0
  -14.6614   16.1388  -23.2860 O   0  0  0  0  0  0  0  0  0  0  0  0
  -14.6664   15.7933  -22.0704 C   0  0  0  0  0  0  0  0  0  0  0  0
  -15.8869   15.7311  -21.4486 O   0  0  0  0  0  0  0  0  0  0  0  0
  -17.1517   15.9458  -21.9616 C   0  0  0  0  0  0  0  0  0  0  0  0
  -18.2588   15.8881  -20.9844 C   0  0  0  0  0  0  0  0  0  0  0  0
  -19.5825   16.1066  -21.3695 C   0  0  0  0  0  0  0  0  0  0  0  0
  -20.5910   16.0628  -20.4366 C   0  0  0  0  0  0  0  0  0  0  0  0
  -20.3265   15.8041  -19.1058 C   0  0  0  0  0  0  0  0  0  0  0  0
  -19.0293   15.5871  -18.7090 C   0  0  0  0  0  0  0  0  0  0  0  0
  -18.6756   15.3265  -17.4205 O   0  0  0  0  0  0  0  0  0  0  0  0
  -17.5678   15.7558  -16.7068 C   0  0  0  0  0  0  0  0  0  0  0  0
  -17.9530   16.2525  -15.3721 C   0  0  0  0  0  0  0  0  0  0  0  0
  -17.1193   16.9619  -14.5333 O   0  0  0  0  0  0  0  0  0  0  0  0
  -17.4053   17.2266  -13.1716 C   0  0  0  0  0  0  0  0  0  0  0  0
  -19.1241   16.0321  -14.9268 O   0  0  0  0  0  0  0  0  0  0  0  0
  -18.0271   15.6354  -19.6625 C   0  0  0  0  0  0  0  0  0  0  0  0
  -12.1812   15.4696  -21.9865 C   0  0  0  0  0  0  0  0  0  0  0  0
  -11.2992   15.1353  -21.0082 N   0  0  0  0  0  0  0  0  0  0  0  0
  -11.9651   14.9557  -19.8789 N   0  0  0  0  0  0  0  0  0  0  0  0
  1  2  2  0
  1  4  1  0
  1 19  1  0
  2 21  1  0
  4  3  2  0
  4  5  1  0
  6  5  1  1
  6  7  1  0
  7  8  2  0
  7 18  1  0
  8  9  1  0
  9 10  2  0
 10 11  1  0
 11 12  1  0
 11 18  2  0
 13 12  1  1
 13 14  1  0
 14 15  1  0
 14 17  2  0
 16 15  1  1
 19 20  2  0
 20 21  1  0
M  END
$$$$
