
     RDKit          3D

 21 22  0  0  0  0  0  0  0  0999 V2000
  -13.3920   10.2592  -23.2218 C   0  0  0  0  0  0  0  0  0  0  0  0
  -12.1399   10.8127  -23.1733 C   0  0  0  0  0  0  0  0  0  0  0  0
  -15.3571    9.6372  -24.3518 O   0  0  0  0  0  0  0  0  0  0  0  0
  -14.1444    9.9837  -24.4318 C   0  0  0  0  0  0  0  0  0  0  0  0
  -13.6085   10.0780  -25.6904 O   0  0  0  0  0  0  0  0  0  0  0  0
  -14.2235    9.9698  -26.9229 C   0  0  0  0  0  0  0  0  0  0  0  0
  -13.3271   10.0397  -28.0957 C   0  0  0  0  0  0  0  0  0  0  0  0
  -12.9600   11.2624  -28.6600 C   0  0  0  0  0  0  0  0  0  0  0  0
  -12.1375   11.2975  -29.7607 C   0  0  0  0  0  0  0  0  0  0  0  0
  -11.6559   10.1366  -30.3339 C   0  0  0  0  0  0  0  0  0  0  0  0
  -12.0076    8.9244  -29.7917 C   0  0  0  0  0  0  0  0  0  0  0  0
  -11.5819    7.7312  -30.2901 O   0  0  0  0  0  0  0  0  0  0  0  0
  -11.1288    6.6069  -29.6181 C   0  0  0  0  0  0  0  0  0  0  0  0
  -12.1287    5.5227  -29.6581 C   0  0  0  0  0  0  0  0  0  0  0  0
  -12.0138    4.3836  -30.4268 O   0  0  0  0  0  0  0  0  0  0  0  0
  -12.9875    3.3559  -30.4693 C   0  0  0  0  0  0  0  0  0  0  0  0
  -13.1829    5.6057  -28.9509 O   0  0  0  0  0  0  0  0  0  0  0  0
  -12.8367    8.9088  -28.6835 C   0  0  0  0  0  0  0  0  0  0  0  0
  -13.8105   10.0118  -21.9468 C   0  0  0  0  0  0  0  0  0  0  0  0
  -12.8052   10.4185  -21.1278 N   0  0  0  0  0  0  0  0  0  0  0  0
  -11.8178   10.8927  -21.8702 N   0  0  0  0  0  0  0  0  0  0  0  0
  1  2  2  0
  1  4  1  0
  1 19  1  0
  2 21  1  0
  4  3  2  0
  4  5  1  0
  6  5  1  1
  6  7  1  0
  7  8  2  0
  7 18  1  0
  8  9  1  0
  9 10  2  0
 10 11  1  0
 11 12  1  0
 11 18  2  0
 13 12  1  1
 13 14  1  0
 14 15  1  0
 14 17  2  0
 16 15  1  1
 19 20  2  0
 20 21  1  0
M  END
$$$$
