
     RDKit          3D

 21 22  0  0  0  0  0  0  0  0999 V2000
  -19.2198   17.7674  -13.6116 C   0  0  0  0  0  0  0  0  0  0  0  0
  -19.5108   16.5070  -13.1419 C   0  0  0  0  0  0  0  0  0  0  0  0
  -19.6575   20.0290  -14.0677 O   0  0  0  0  0  0  0  0  0  0  0  0
  -20.0668   18.9728  -13.5285 C   0  0  0  0  0  0  0  0  0  0  0  0
  -21.2778   18.9821  -12.8876 O   0  0  0  0  0  0  0  0  0  0  0  0
  -22.1186   20.1434  -12.8490 C   0  0  0  0  0  0  0  0  0  0  0  0
  -23.1428   20.0377  -11.8099 C   0  0  0  0  0  0  0  0  0  0  0  0
  -24.2408   19.2299  -11.9921 C   0  0  0  0  0  0  0  0  0  0  0  0
  -25.1867   19.1423  -11.0133 C   0  0  0  0  0  0  0  0  0  0  0  0
  -25.0776   19.8412   -9.8399 C   0  0  0  0  0  0  0  0  0  0  0  0
  -23.9897   20.6531   -9.6385 C   0  0  0  0  0  0  0  0  0  0  0  0
  -23.8433   21.3658   -8.4878 O   0  0  0  0  0  0  0  0  0  0  0  0
  -22.8987   22.3172   -8.1489 C   0  0  0  0  0  0  0  0  0  0  0  0
  -22.7124   22.5548   -6.7113 C   0  0  0  0  0  0  0  0  0  0  0  0
  -21.7270   23.4203   -6.2415 O   0  0  0  0  0  0  0  0  0  0  0  0
  -21.5617   23.6457   -4.8560 C   0  0  0  0  0  0  0  0  0  0  0  0
  -23.4209   21.9998   -5.8218 O   0  0  0  0  0  0  0  0  0  0  0  0
  -23.0357   20.7385  -10.6308 C   0  0  0  0  0  0  0  0  0  0  0  0
  -17.9730   17.6911  -14.1813 C   0  0  0  0  0  0  0  0  0  0  0  0
  -17.5435   16.4453  -14.0562 N   0  0  0  0  0  0  0  0  0  0  0  0
  -18.4565   15.7279  -13.4353 N   0  0  0  0  0  0  0  0  0  0  0  0
  1  2  2  0
  1  4  1  0
  1 19  1  0
  2 21  1  0
  4  3  2  0
  4  5  1  0
  5  6  1  0
  6  7  1  0
  7  8  2  0
  7 18  1  0
  8  9  1  0
  9 10  2  0
 10 11  1  0
 11 12  1  0
 11 18  2  0
 12 13  1  0
 13 14  1  0
 14 15  1  0
 14 17  2  0
 15 16  1  0
 19 20  2  0
 20 21  1  0
M  END
$$$$
