
     RDKit          3D

 21 22  0  0  0  0  0  0  0  0999 V2000
  -19.4318   17.0598  -13.7290 C   0  0  0  0  0  0  0  0  0  0  0  0
  -19.8454   15.8817  -13.1505 C   0  0  0  0  0  0  0  0  0  0  0  0
  -19.5083   19.3652  -14.1690 O   0  0  0  0  0  0  0  0  0  0  0  0
  -20.0303   18.3983  -13.5637 C   0  0  0  0  0  0  0  0  0  0  0  0
  -21.1297   18.6241  -12.7777 O   0  0  0  0  0  0  0  0  0  0  0  0
  -21.6643   19.9375  -12.5619 C   0  0  0  0  0  0  0  0  0  0  0  0
  -22.7410   19.9292  -11.5719 C   0  0  0  0  0  0  0  0  0  0  0  0
  -23.8228   19.0937  -11.7243 C   0  0  0  0  0  0  0  0  0  0  0  0
  -24.8184   19.0981  -10.7920 C   0  0  0  0  0  0  0  0  0  0  0  0
  -24.7757   19.9177   -9.6948 C   0  0  0  0  0  0  0  0  0  0  0  0
  -23.7052   20.7591   -9.5242 C   0  0  0  0  0  0  0  0  0  0  0  0
  -23.6242   21.5905   -8.4492 O   0  0  0  0  0  0  0  0  0  0  0  0
  -22.6376   22.4946   -8.1005 C   0  0  0  0  0  0  0  0  0  0  0  0
  -22.4955   22.7691   -6.6645 C   0  0  0  0  0  0  0  0  0  0  0  0
  -21.4292   23.5183   -6.1719 O   0  0  0  0  0  0  0  0  0  0  0  0
  -21.3210   23.8038   -4.7918 C   0  0  0  0  0  0  0  0  0  0  0  0
  -23.3162   22.3514   -5.7966 O   0  0  0  0  0  0  0  0  0  0  0  0
  -22.7008   20.7512  -10.4693 C   0  0  0  0  0  0  0  0  0  0  0  0
  -18.3397   16.7506  -14.5015 C   0  0  0  0  0  0  0  0  0  0  0  0
  -18.1151   15.4510  -14.3876 N   0  0  0  0  0  0  0  0  0  0  0  0
  -19.0108   14.9211  -13.5810 N   0  0  0  0  0  0  0  0  0  0  0  0
  1  2  2  0
  1  4  1  0
  1 19  1  0
  2 21  1  0
  4  3  2  0
  4  5  1  0
  5  6  1  0
  6  7  1  0
  7  8  2  0
  7 18  1  0
  8  9  1  0
  9 10  2  0
 10 11  1  0
 11 12  1  0
 11 18  2  0
 12 13  1  0
 13 14  1  0
 14 15  1  0
 14 17  2  0
 15 16  1  0
 19 20  2  0
 20 21  1  0
M  END
$$$$
