
     RDKit          3D

 21 22  0  0  0  0  0  0  0  0999 V2000
  -19.9941   17.2189  -13.3551 C   0  0  0  0  0  0  0  0  0  0  0  0
  -19.1561   18.2250  -13.7788 C   0  0  0  0  0  0  0  0  0  0  0  0
  -21.9611   16.3241  -12.4362 O   0  0  0  0  0  0  0  0  0  0  0  0
  -21.3151   17.3631  -12.7138 C   0  0  0  0  0  0  0  0  0  0  0  0
  -21.8606   18.5831  -12.4115 O   0  0  0  0  0  0  0  0  0  0  0  0
  -22.9210   18.7365  -11.4580 C   0  0  0  0  0  0  0  0  0  0  0  0
  -23.2363   20.1448  -11.2189 C   0  0  0  0  0  0  0  0  0  0  0  0
  -24.1518   20.7989  -12.0098 C   0  0  0  0  0  0  0  0  0  0  0  0
  -24.4346   22.1122  -11.7736 C   0  0  0  0  0  0  0  0  0  0  0  0
  -23.8292   22.8098  -10.7616 C   0  0  0  0  0  0  0  0  0  0  0  0
  -22.9125   22.1756   -9.9612 C   0  0  0  0  0  0  0  0  0  0  0  0
  -22.2870   22.8323   -8.9458 O   0  0  0  0  0  0  0  0  0  0  0  0
  -22.1557   22.4846   -7.6138 C   0  0  0  0  0  0  0  0  0  0  0  0
  -21.1423   23.2270   -6.8525 C   0  0  0  0  0  0  0  0  0  0  0  0
  -20.8949   22.9469   -5.5104 O   0  0  0  0  0  0  0  0  0  0  0  0
  -20.2958   23.9108   -4.6678 C   0  0  0  0  0  0  0  0  0  0  0  0
  -20.4405   24.1521   -7.3554 O   0  0  0  0  0  0  0  0  0  0  0  0
  -22.6298   20.8477  -10.2036 C   0  0  0  0  0  0  0  0  0  0  0  0
  -19.3595   16.0368  -13.6461 C   0  0  0  0  0  0  0  0  0  0  0  0
  -18.2000   16.3263  -14.2153 N   0  0  0  0  0  0  0  0  0  0  0  0
  -18.0682   17.6336  -14.2996 N   0  0  0  0  0  0  0  0  0  0  0  0
  1  2  2  0
  1  4  1  0
  1 19  1  0
  2 21  1  0
  4  3  2  0
  4  5  1  0
  5  6  1  0
  6  7  1  0
  7  8  2  0
  7 18  1  0
  8  9  1  0
  9 10  2  0
 10 11  1  0
 11 12  1  0
 11 18  2  0
 12 13  1  0
 13 14  1  0
 14 15  1  0
 14 17  2  0
 15 16  1  0
 19 20  2  0
 20 21  1  0
M  END
$$$$
