
     RDKit          3D

 21 22  0  0  0  0  0  0  0  0999 V2000
  -19.2003   17.6749  -12.9420 C   0  0  0  0  0  0  0  0  0  0  0  0
  -18.4398   18.4694  -12.1255 C   0  0  0  0  0  0  0  0  0  0  0  0
  -21.2251   17.0223  -13.9420 O   0  0  0  0  0  0  0  0  0  0  0  0
  -20.6354   17.7874  -13.1272 C   0  0  0  0  0  0  0  0  0  0  0  0
  -21.4129   18.6958  -12.4560 O   0  0  0  0  0  0  0  0  0  0  0  0
  -22.7696   18.9390  -12.5519 C   0  0  0  0  0  0  0  0  0  0  0  0
  -23.3203   19.8989  -11.5726 C   0  0  0  0  0  0  0  0  0  0  0  0
  -24.6950   20.0174  -11.3625 C   0  0  0  0  0  0  0  0  0  0  0  0
  -25.1807   20.9301  -10.4568 C   0  0  0  0  0  0  0  0  0  0  0  0
  -24.3317   21.7475   -9.7363 C   0  0  0  0  0  0  0  0  0  0  0  0
  -22.9756   21.6446   -9.9308 C   0  0  0  0  0  0  0  0  0  0  0  0
  -22.0654   22.4088   -9.2668 O   0  0  0  0  0  0  0  0  0  0  0  0
  -22.2708   23.4790   -8.4105 C   0  0  0  0  0  0  0  0  0  0  0  0
  -21.2488   23.5150   -7.3472 C   0  0  0  0  0  0  0  0  0  0  0  0
  -19.8895   23.4454   -7.5690 O   0  0  0  0  0  0  0  0  0  0  0  0
  -18.9138   23.5682   -6.5496 C   0  0  0  0  0  0  0  0  0  0  0  0
  -21.6034   23.6155   -6.1296 O   0  0  0  0  0  0  0  0  0  0  0  0
  -22.5051   20.7200  -10.8470 C   0  0  0  0  0  0  0  0  0  0  0  0
  -18.3853   16.7642  -13.5489 C   0  0  0  0  0  0  0  0  0  0  0  0
  -17.1286   17.0124  -13.0951 N   0  0  0  0  0  0  0  0  0  0  0  0
  -17.1753   18.0290  -12.2493 N   0  0  0  0  0  0  0  0  0  0  0  0
  1  2  2  0
  1  4  1  0
  1 19  1  0
  2 21  1  0
  4  3  2  0
  4  5  1  0
  6  5  1  1
  6  7  1  0
  7  8  2  0
  7 18  1  0
  8  9  1  0
  9 10  2  0
 10 11  1  0
 11 12  1  0
 11 18  2  0
 13 12  1  1
 13 14  1  0
 14 15  1  0
 14 17  2  0
 16 15  1  1
 19 20  2  0
 20 21  1  0
M  END
$$$$
