
     RDKit          3D

 21 22  0  0  0  0  0  0  0  0999 V2000
  -13.1898   10.9448  -23.5303 C   0  0  0  0  0  0  0  0  0  0  0  0
  -12.0354   11.6939  -23.5383 C   0  0  0  0  0  0  0  0  0  0  0  0
  -14.8243    9.5307  -24.4484 O   0  0  0  0  0  0  0  0  0  0  0  0
  -13.7426   10.1380  -24.6351 C   0  0  0  0  0  0  0  0  0  0  0  0
  -13.1221   10.0276  -25.8518 O   0  0  0  0  0  0  0  0  0  0  0  0
  -13.7015    9.3069  -26.9481 C   0  0  0  0  0  0  0  0  0  0  0  0
  -12.7307    9.0719  -28.0168 C   0  0  0  0  0  0  0  0  0  0  0  0
  -12.3353   10.1011  -28.8389 C   0  0  0  0  0  0  0  0  0  0  0  0
  -11.4290    9.8653  -29.8307 C   0  0  0  0  0  0  0  0  0  0  0  0
  -10.8930    8.6215  -30.0374 C   0  0  0  0  0  0  0  0  0  0  0  0
  -11.2745    7.5809  -29.2282 C   0  0  0  0  0  0  0  0  0  0  0  0
  -10.7674    6.3293  -29.4003 O   0  0  0  0  0  0  0  0  0  0  0  0
   -9.5850    5.7810  -28.9380 C   0  0  0  0  0  0  0  0  0  0  0  0
   -9.4078    4.3421  -29.1744 C   0  0  0  0  0  0  0  0  0  0  0  0
   -8.9216    3.4985  -28.1780 O   0  0  0  0  0  0  0  0  0  0  0  0
   -8.7680    2.1132  -28.4132 C   0  0  0  0  0  0  0  0  0  0  0  0
   -9.6796    3.7844  -30.2772 O   0  0  0  0  0  0  0  0  0  0  0  0
  -12.1910    7.8239  -28.2266 C   0  0  0  0  0  0  0  0  0  0  0  0
  -13.7392   11.0916  -22.2808 C   0  0  0  0  0  0  0  0  0  0  0  0
  -12.9493   11.8897  -21.5797 N   0  0  0  0  0  0  0  0  0  0  0  0
  -11.9262   12.2561  -22.3231 N   0  0  0  0  0  0  0  0  0  0  0  0
  1  2  2  0
  1  4  1  0
  1 19  1  0
  2 21  1  0
  4  3  2  0
  4  5  1  0
  5  6  1  0
  6  7  1  0
  7  8  2  0
  7 18  1  0
  8  9  1  0
  9 10  2  0
 10 11  1  0
 11 12  1  0
 11 18  2  0
 12 13  1  0
 13 14  1  0
 14 15  1  0
 14 17  2  0
 15 16  1  0
 19 20  2  0
 20 21  1  0
M  END
$$$$
