
     RDKit          3D

 21 22  0  0  0  0  0  0  0  0999 V2000
  -17.7094   16.4231  -13.9143 C   0  0  0  0  0  0  0  0  0  0  0  0
  -17.4119   15.4969  -14.8788 C   0  0  0  0  0  0  0  0  0  0  0  0
  -18.9230   15.4395  -12.1578 O   0  0  0  0  0  0  0  0  0  0  0  0
  -18.8465   16.3656  -13.0142 C   0  0  0  0  0  0  0  0  0  0  0  0
  -19.8706   17.2772  -13.0347 O   0  0  0  0  0  0  0  0  0  0  0  0
  -21.0356   17.3139  -12.2928 C   0  0  0  0  0  0  0  0  0  0  0  0
  -21.9124   18.4791  -12.5323 C   0  0  0  0  0  0  0  0  0  0  0  0
  -22.0647   19.0264  -13.8072 C   0  0  0  0  0  0  0  0  0  0  0  0
  -22.8743   20.1205  -13.9986 C   0  0  0  0  0  0  0  0  0  0  0  0
  -23.5531   20.7036  -12.9464 C   0  0  0  0  0  0  0  0  0  0  0  0
  -23.4144   20.1783  -11.6846 C   0  0  0  0  0  0  0  0  0  0  0  0
  -24.0434   20.6874  -10.5899 O   0  0  0  0  0  0  0  0  0  0  0  0
  -24.2802   20.1001   -9.3571 C   0  0  0  0  0  0  0  0  0  0  0  0
  -23.8208   20.9678   -8.2559 C   0  0  0  0  0  0  0  0  0  0  0  0
  -23.1174   22.1413   -8.4289 O   0  0  0  0  0  0  0  0  0  0  0  0
  -22.3543   22.7642   -7.4111 C   0  0  0  0  0  0  0  0  0  0  0  0
  -24.0690   20.6474   -7.0500 O   0  0  0  0  0  0  0  0  0  0  0  0
  -22.5948   19.0765  -11.5113 C   0  0  0  0  0  0  0  0  0  0  0  0
  -16.7612   17.4040  -13.9423 C   0  0  0  0  0  0  0  0  0  0  0  0
  -15.8893   17.0659  -14.9284 N   0  0  0  0  0  0  0  0  0  0  0  0
  -16.2881   15.9297  -15.4772 N   0  0  0  0  0  0  0  0  0  0  0  0
  1  2  2  0
  1  4  1  0
  1 19  1  0
  2 21  1  0
  4  3  2  0
  4  5  1  0
  6  5  1  1
  6  7  1  0
  7  8  2  0
  7 18  1  0
  8  9  1  0
  9 10  2  0
 10 11  1  0
 11 12  1  0
 11 18  2  0
 13 12  1  1
 13 14  1  0
 14 15  1  0
 14 17  2  0
 16 15  1  1
 19 20  2  0
 20 21  1  0
M  END
$$$$
