
     RDKit          3D

 21 22  0  0  0  0  0  0  0  0999 V2000
  -19.5162   17.4693  -13.5906 C   0  0  0  0  0  0  0  0  0  0  0  0
  -19.9396   16.2856  -13.0307 C   0  0  0  0  0  0  0  0  0  0  0  0
  -19.7766   19.6907  -14.3059 O   0  0  0  0  0  0  0  0  0  0  0  0
  -20.2171   18.7676  -13.5794 C   0  0  0  0  0  0  0  0  0  0  0  0
  -21.3257   19.0022  -12.8092 O   0  0  0  0  0  0  0  0  0  0  0  0
  -22.0163   20.2592  -12.8179 C   0  0  0  0  0  0  0  0  0  0  0  0
  -22.9821   20.3554  -11.7234 C   0  0  0  0  0  0  0  0  0  0  0  0
  -24.1597   19.6464  -11.7676 C   0  0  0  0  0  0  0  0  0  0  0  0
  -25.0496   19.7470  -10.7389 C   0  0  0  0  0  0  0  0  0  0  0  0
  -24.8059   20.5411   -9.6492 C   0  0  0  0  0  0  0  0  0  0  0  0
  -23.6369   21.2570   -9.5858 C   0  0  0  0  0  0  0  0  0  0  0  0
  -23.3563   22.0589   -8.5220 O   0  0  0  0  0  0  0  0  0  0  0  0
  -23.8856   22.0538   -7.2445 C   0  0  0  0  0  0  0  0  0  0  0  0
  -23.2738   22.9890   -6.2912 C   0  0  0  0  0  0  0  0  0  0  0  0
  -23.7751   23.1392   -5.0001 O   0  0  0  0  0  0  0  0  0  0  0  0
  -23.0797   23.9062   -4.0378 C   0  0  0  0  0  0  0  0  0  0  0  0
  -22.2705   23.7063   -6.5741 O   0  0  0  0  0  0  0  0  0  0  0  0
  -22.7400   21.1521  -10.6282 C   0  0  0  0  0  0  0  0  0  0  0  0
  -18.2991   17.2107  -14.1710 C   0  0  0  0  0  0  0  0  0  0  0  0
  -18.0129   15.9346  -13.9659 N   0  0  0  0  0  0  0  0  0  0  0  0
  -18.9885   15.3714  -13.2841 N   0  0  0  0  0  0  0  0  0  0  0  0
  1  2  2  0
  1  4  1  0
  1 19  1  0
  2 21  1  0
  4  3  2  0
  4  5  1  0
  5  6  1  0
  6  7  1  0
  7  8  2  0
  7 18  1  0
  8  9  1  0
  9 10  2  0
 10 11  1  0
 11 12  1  0
 11 18  2  0
 12 13  1  0
 13 14  1  0
 14 15  1  0
 14 17  2  0
 15 16  1  0
 19 20  2  0
 20 21  1  0
M  END
$$$$
