
     RDKit          3D

 21 22  0  0  0  0  0  0  0  0999 V2000
  -17.5604   17.0015  -14.4786 C   0  0  0  0  0  0  0  0  0  0  0  0
  -18.2750   15.8478  -14.6647 C   0  0  0  0  0  0  0  0  0  0  0  0
  -17.3612   19.2733  -13.9084 O   0  0  0  0  0  0  0  0  0  0  0  0
  -18.0859   18.2381  -13.9300 C   0  0  0  0  0  0  0  0  0  0  0  0
  -19.3530   18.3578  -13.4199 O   0  0  0  0  0  0  0  0  0  0  0  0
  -20.0050   19.4713  -12.9260 C   0  0  0  0  0  0  0  0  0  0  0  0
  -21.3629   19.2357  -12.3924 C   0  0  0  0  0  0  0  0  0  0  0  0
  -22.1092   18.1175  -12.7677 C   0  0  0  0  0  0  0  0  0  0  0  0
  -23.3762   17.9316  -12.2683 C   0  0  0  0  0  0  0  0  0  0  0  0
  -23.9412   18.8359  -11.3903 C   0  0  0  0  0  0  0  0  0  0  0  0
  -23.2210   19.9424  -11.0105 C   0  0  0  0  0  0  0  0  0  0  0  0
  -23.6972   20.8854  -10.1519 O   0  0  0  0  0  0  0  0  0  0  0  0
  -23.2795   22.1927   -9.9590 C   0  0  0  0  0  0  0  0  0  0  0  0
  -23.5194   22.6299   -8.5705 C   0  0  0  0  0  0  0  0  0  0  0  0
  -22.5274   22.9994   -7.6867 O   0  0  0  0  0  0  0  0  0  0  0  0
  -22.7495   23.7903   -6.5329 C   0  0  0  0  0  0  0  0  0  0  0  0
  -24.7073   22.6828   -8.1183 O   0  0  0  0  0  0  0  0  0  0  0  0
  -21.9469   20.1129  -11.5239 C   0  0  0  0  0  0  0  0  0  0  0  0
  -16.2773   16.7932  -14.8938 C   0  0  0  0  0  0  0  0  0  0  0  0
  -16.2203   15.5080  -15.3318 N   0  0  0  0  0  0  0  0  0  0  0  0
  -17.4152   14.9572  -15.1899 N   0  0  0  0  0  0  0  0  0  0  0  0
  1  2  2  0
  1  4  1  0
  1 19  1  0
  2 21  1  0
  4  3  2  0
  4  5  1  0
  6  5  1  1
  6  7  1  0
  7  8  2  0
  7 18  1  0
  8  9  1  0
  9 10  2  0
 10 11  1  0
 11 12  1  0
 11 18  2  0
 13 12  1  1
 13 14  1  0
 14 15  1  0
 14 17  2  0
 16 15  1  1
 19 20  2  0
 20 21  1  0
M  END
$$$$
