
     RDKit          3D

 21 22  0  0  0  0  0  0  0  0999 V2000
  -12.7081   11.4641  -25.6101 C   0  0  0  0  0  0  0  0  0  0  0  0
  -13.1117   10.6115  -24.6081 C   0  0  0  0  0  0  0  0  0  0  0  0
  -12.1068   12.0477  -27.8038 O   0  0  0  0  0  0  0  0  0  0  0  0
  -12.5166   11.1429  -27.0374 C   0  0  0  0  0  0  0  0  0  0  0  0
  -12.7682    9.8995  -27.5552 O   0  0  0  0  0  0  0  0  0  0  0  0
  -12.3494    9.5157  -28.8722 C   0  0  0  0  0  0  0  0  0  0  0  0
  -12.5104    8.0790  -29.0957 C   0  0  0  0  0  0  0  0  0  0  0  0
  -13.7250    7.5653  -29.4857 C   0  0  0  0  0  0  0  0  0  0  0  0
  -13.8584    6.2233  -29.6900 C   0  0  0  0  0  0  0  0  0  0  0  0
  -12.8090    5.3595  -29.5173 C   0  0  0  0  0  0  0  0  0  0  0  0
  -11.5887    5.8518  -29.1281 C   0  0  0  0  0  0  0  0  0  0  0  0
  -10.5206    5.0280  -28.9438 O   0  0  0  0  0  0  0  0  0  0  0  0
  -10.4821    3.6969  -28.5711 C   0  0  0  0  0  0  0  0  0  0  0  0
   -9.1699    3.1830  -28.1565 C   0  0  0  0  0  0  0  0  0  0  0  0
   -9.0115    1.8703  -27.7175 O   0  0  0  0  0  0  0  0  0  0  0  0
   -7.7298    1.3583  -27.4127 C   0  0  0  0  0  0  0  0  0  0  0  0
   -8.1171    3.8848  -28.1704 O   0  0  0  0  0  0  0  0  0  0  0  0
  -11.4584    7.2094  -28.9228 C   0  0  0  0  0  0  0  0  0  0  0  0
  -12.5140   12.6896  -25.0224 C   0  0  0  0  0  0  0  0  0  0  0  0
  -12.7891   12.5711  -23.7330 N   0  0  0  0  0  0  0  0  0  0  0  0
  -13.1480   11.3310  -23.4742 N   0  0  0  0  0  0  0  0  0  0  0  0
  1  2  2  0
  1  4  1  0
  1 19  1  0
  2 21  1  0
  4  3  2  0
  4  5  1  0
  5  6  1  0
  6  7  1  0
  7  8  2  0
  7 18  1  0
  8  9  1  0
  9 10  2  0
 10 11  1  0
 11 12  1  0
 11 18  2  0
 12 13  1  0
 13 14  1  0
 14 15  1  0
 14 17  2  0
 15 16  1  0
 19 20  2  0
 20 21  1  0
M  END
$$$$
