
     RDKit          3D

 21 22  0  0  0  0  0  0  0  0999 V2000
  -13.4022   10.5810  -23.5819 C   0  0  0  0  0  0  0  0  0  0  0  0
  -12.3039   11.4065  -23.5037 C   0  0  0  0  0  0  0  0  0  0  0  0
  -15.0930    9.4161  -24.7214 O   0  0  0  0  0  0  0  0  0  0  0  0
  -13.9505    9.9303  -24.7872 C   0  0  0  0  0  0  0  0  0  0  0  0
  -13.2624    9.8666  -25.9704 O   0  0  0  0  0  0  0  0  0  0  0  0
  -13.8479    9.3510  -27.1739 C   0  0  0  0  0  0  0  0  0  0  0  0
  -12.8785    9.2939  -28.2678 C   0  0  0  0  0  0  0  0  0  0  0  0
  -12.9453   10.1922  -29.3070 C   0  0  0  0  0  0  0  0  0  0  0  0
  -12.0336   10.1255  -30.3194 C   0  0  0  0  0  0  0  0  0  0  0  0
  -11.0410    9.1812  -30.3352 C   0  0  0  0  0  0  0  0  0  0  0  0
  -10.9570    8.2754  -29.3078 C   0  0  0  0  0  0  0  0  0  0  0  0
   -9.9872    7.3201  -29.2855 O   0  0  0  0  0  0  0  0  0  0  0  0
   -9.1489    6.8848  -30.2955 C   0  0  0  0  0  0  0  0  0  0  0  0
   -8.1558    5.8716  -29.9148 C   0  0  0  0  0  0  0  0  0  0  0  0
   -7.2114    5.4042  -30.8262 O   0  0  0  0  0  0  0  0  0  0  0  0
   -6.2749    4.4129  -30.4545 C   0  0  0  0  0  0  0  0  0  0  0  0
   -8.0935    5.3661  -28.7565 O   0  0  0  0  0  0  0  0  0  0  0  0
  -11.8809    8.3467  -28.2863 C   0  0  0  0  0  0  0  0  0  0  0  0
  -13.8998   10.4752  -22.3067 C   0  0  0  0  0  0  0  0  0  0  0  0
  -13.1341   11.2028  -21.5089 N   0  0  0  0  0  0  0  0  0  0  0  0
  -12.1755   11.7647  -22.2153 N   0  0  0  0  0  0  0  0  0  0  0  0
  1  2  2  0
  1  4  1  0
  1 19  1  0
  2 21  1  0
  4  3  2  0
  4  5  1  0
  5  6  1  0
  6  7  1  0
  7  8  2  0
  7 18  1  0
  8  9  1  0
  9 10  2  0
 10 11  1  0
 11 12  1  0
 11 18  2  0
 12 13  1  0
 13 14  1  0
 14 15  1  0
 14 17  2  0
 15 16  1  0
 19 20  2  0
 20 21  1  0
M  END
$$$$
