
     RDKit          3D

 21 22  0  0  0  0  0  0  0  0999 V2000
  -19.3060   17.4775  -13.5038 C   0  0  0  0  0  0  0  0  0  0  0  0
  -18.4340   18.5089  -13.2398 C   0  0  0  0  0  0  0  0  0  0  0  0
  -21.3911   16.3975  -13.5170 O   0  0  0  0  0  0  0  0  0  0  0  0
  -20.7663   17.4620  -13.2930 C   0  0  0  0  0  0  0  0  0  0  0  0
  -21.4625   18.5613  -12.8636 O   0  0  0  0  0  0  0  0  0  0  0  0
  -22.8784   18.5343  -12.6361 C   0  0  0  0  0  0  0  0  0  0  0  0
  -23.3325   19.7146  -11.9010 C   0  0  0  0  0  0  0  0  0  0  0  0
  -23.8717   20.7885  -12.5698 C   0  0  0  0  0  0  0  0  0  0  0  0
  -24.2905   21.8815  -11.8695 C   0  0  0  0  0  0  0  0  0  0  0  0
  -24.1904   21.9455  -10.5045 C   0  0  0  0  0  0  0  0  0  0  0  0
  -23.6551   20.8846   -9.8182 C   0  0  0  0  0  0  0  0  0  0  0  0
  -23.5362   20.9078   -8.4621 O   0  0  0  0  0  0  0  0  0  0  0  0
  -22.8554   21.7939   -7.6474 C   0  0  0  0  0  0  0  0  0  0  0  0
  -22.9724   21.5584   -6.2022 C   0  0  0  0  0  0  0  0  0  0  0  0
  -22.3734   22.4116   -5.2781 O   0  0  0  0  0  0  0  0  0  0  0  0
  -22.5203   22.1932   -3.8893 C   0  0  0  0  0  0  0  0  0  0  0  0
  -23.6126   20.5839   -5.7105 O   0  0  0  0  0  0  0  0  0  0  0  0
  -23.2331   19.7815  -10.5304 C   0  0  0  0  0  0  0  0  0  0  0  0
  -18.5494   16.4491  -14.0085 C   0  0  0  0  0  0  0  0  0  0  0  0
  -17.2883   16.8498  -14.0428 N   0  0  0  0  0  0  0  0  0  0  0  0
  -17.2080   18.0817  -13.5847 N   0  0  0  0  0  0  0  0  0  0  0  0
  1  2  2  0
  1  4  1  0
  1 19  1  0
  2 21  1  0
  4  3  2  0
  4  5  1  0
  5  6  1  0
  6  7  1  0
  7  8  2  0
  7 18  1  0
  8  9  1  0
  9 10  2  0
 10 11  1  0
 11 12  1  0
 11 18  2  0
 12 13  1  0
 13 14  1  0
 14 15  1  0
 14 17  2  0
 15 16  1  0
 19 20  2  0
 20 21  1  0
M  END
$$$$
