
     RDKit          3D

 21 22  0  0  0  0  0  0  0  0999 V2000
  -19.4176   17.4816  -13.7411 C   0  0  0  0  0  0  0  0  0  0  0  0
  -19.4020   16.4564  -12.8232 C   0  0  0  0  0  0  0  0  0  0  0  0
  -20.4000   19.2656  -14.9101 O   0  0  0  0  0  0  0  0  0  0  0  0
  -20.4396   18.5353  -13.8908 C   0  0  0  0  0  0  0  0  0  0  0  0
  -21.4257   18.7454  -12.9630 O   0  0  0  0  0  0  0  0  0  0  0  0
  -22.3766   19.8128  -13.0796 C   0  0  0  0  0  0  0  0  0  0  0  0
  -23.2282   19.9128  -11.8944 C   0  0  0  0  0  0  0  0  0  0  0  0
  -24.3888   19.1803  -11.8053 C   0  0  0  0  0  0  0  0  0  0  0  0
  -25.1717   19.2849  -10.6933 C   0  0  0  0  0  0  0  0  0  0  0  0
  -24.8357   20.1058   -9.6490 C   0  0  0  0  0  0  0  0  0  0  0  0
  -23.6819   20.8454   -9.7183 C   0  0  0  0  0  0  0  0  0  0  0  0
  -23.3120   21.6744   -8.7037 O   0  0  0  0  0  0  0  0  0  0  0  0
  -22.3148   22.6316   -8.6603 C   0  0  0  0  0  0  0  0  0  0  0  0
  -22.0505   23.2254   -7.3430 C   0  0  0  0  0  0  0  0  0  0  0  0
  -21.0851   24.2157   -7.1750 O   0  0  0  0  0  0  0  0  0  0  0  0
  -20.7979   24.7372   -5.8930 C   0  0  0  0  0  0  0  0  0  0  0  0
  -22.6702   22.8836   -6.2940 O   0  0  0  0  0  0  0  0  0  0  0  0
  -22.8933   20.7364  -10.8445 C   0  0  0  0  0  0  0  0  0  0  0  0
  -18.2851   17.3372  -14.5037 C   0  0  0  0  0  0  0  0  0  0  0  0
  -17.6279   16.2771  -14.0603 N   0  0  0  0  0  0  0  0  0  0  0  0
  -18.2878   15.7423  -13.0543 N   0  0  0  0  0  0  0  0  0  0  0  0
  1  2  2  0
  1  4  1  0
  1 19  1  0
  2 21  1  0
  4  3  2  0
  4  5  1  0
  5  6  1  0
  6  7  1  0
  7  8  2  0
  7 18  1  0
  8  9  1  0
  9 10  2  0
 10 11  1  0
 11 12  1  0
 11 18  2  0
 12 13  1  0
 13 14  1  0
 14 15  1  0
 14 17  2  0
 15 16  1  0
 19 20  2  0
 20 21  1  0
M  END
$$$$
