
     RDKit          3D

 21 22  0  0  0  0  0  0  0  0999 V2000
  -13.2753   10.9141  -23.2217 C   0  0  0  0  0  0  0  0  0  0  0  0
  -12.3682   11.9190  -23.4304 C   0  0  0  0  0  0  0  0  0  0  0  0
  -14.6748    9.1705  -23.9477 O   0  0  0  0  0  0  0  0  0  0  0  0
  -13.7580    9.9922  -24.2333 C   0  0  0  0  0  0  0  0  0  0  0  0
  -13.2693    9.9551  -25.5139 O   0  0  0  0  0  0  0  0  0  0  0  0
  -13.6395    9.1553  -26.5780 C   0  0  0  0  0  0  0  0  0  0  0  0
  -12.8200    9.2933  -27.8000 C   0  0  0  0  0  0  0  0  0  0  0  0
  -12.5974   10.5379  -28.3911 C   0  0  0  0  0  0  0  0  0  0  0  0
  -11.8442   10.6353  -29.5368 C   0  0  0  0  0  0  0  0  0  0  0  0
  -11.2920    9.5166  -30.1296 C   0  0  0  0  0  0  0  0  0  0  0  0
  -11.5013    8.2834  -29.5615 C   0  0  0  0  0  0  0  0  0  0  0  0
  -10.9975    7.1282  -30.0764 O   0  0  0  0  0  0  0  0  0  0  0  0
  -11.4223    5.8221  -29.8912 C   0  0  0  0  0  0  0  0  0  0  0  0
  -10.2783    4.8922  -29.8345 C   0  0  0  0  0  0  0  0  0  0  0  0
  -10.3128    3.6484  -29.2400 O   0  0  0  0  0  0  0  0  0  0  0  0
   -9.3407    2.6410  -29.4550 C   0  0  0  0  0  0  0  0  0  0  0  0
   -9.1662    5.2221  -30.3567 O   0  0  0  0  0  0  0  0  0  0  0  0
  -12.2625    8.2050  -28.4081 C   0  0  0  0  0  0  0  0  0  0  0  0
  -13.6469   10.9259  -21.9088 C   0  0  0  0  0  0  0  0  0  0  0  0
  -12.9597   11.9429  -21.3253 N   0  0  0  0  0  0  0  0  0  0  0  0
  -12.2031   12.5252  -22.2415 N   0  0  0  0  0  0  0  0  0  0  0  0
  1  2  2  0
  1  4  1  0
  1 19  1  0
  2 21  1  0
  4  3  2  0
  4  5  1  0
  6  5  1  1
  6  7  1  0
  7  8  2  0
  7 18  1  0
  8  9  1  0
  9 10  2  0
 10 11  1  0
 11 12  1  0
 11 18  2  0
 13 12  1  1
 13 14  1  0
 14 15  1  0
 14 17  2  0
 16 15  1  1
 19 20  2  0
 20 21  1  0
M  END
$$$$
