
     RDKit          3D

 21 22  0  0  0  0  0  0  0  0999 V2000
  -13.7419   11.4761  -23.0436 C   0  0  0  0  0  0  0  0  0  0  0  0
  -15.0715   11.2416  -23.3105 C   0  0  0  0  0  0  0  0  0  0  0  0
  -11.4318   11.3130  -23.4318 O   0  0  0  0  0  0  0  0  0  0  0  0
  -12.5847   11.1479  -23.8981 C   0  0  0  0  0  0  0  0  0  0  0  0
  -12.7209   10.6719  -25.1756 O   0  0  0  0  0  0  0  0  0  0  0  0
  -11.6594    9.9927  -25.8606 C   0  0  0  0  0  0  0  0  0  0  0  0
  -12.0461    9.6123  -27.2191 C   0  0  0  0  0  0  0  0  0  0  0  0
  -13.3641    9.6608  -27.6089 C   0  0  0  0  0  0  0  0  0  0  0  0
  -13.7080    9.3029  -28.8793 C   0  0  0  0  0  0  0  0  0  0  0  0
  -12.7720    8.8915  -29.7914 C   0  0  0  0  0  0  0  0  0  0  0  0
  -11.4514    8.8357  -29.4224 C   0  0  0  0  0  0  0  0  0  0  0  0
  -10.4898    8.4312  -30.2971 O   0  0  0  0  0  0  0  0  0  0  0  0
   -9.1677    8.0969  -30.0681 C   0  0  0  0  0  0  0  0  0  0  0  0
   -8.8343    6.6716  -30.1913 C   0  0  0  0  0  0  0  0  0  0  0  0
   -7.5173    6.2254  -30.1054 O   0  0  0  0  0  0  0  0  0  0  0  0
   -7.2008    4.8613  -30.2982 C   0  0  0  0  0  0  0  0  0  0  0  0
   -9.7042    5.7722  -30.3798 O   0  0  0  0  0  0  0  0  0  0  0  0
  -11.1083    9.1987  -28.1369 C   0  0  0  0  0  0  0  0  0  0  0  0
  -13.6941   12.0827  -21.8129 C   0  0  0  0  0  0  0  0  0  0  0  0
  -14.9356   12.2030  -21.3695 N   0  0  0  0  0  0  0  0  0  0  0  0
  -15.7682   11.7026  -22.2584 N   0  0  0  0  0  0  0  0  0  0  0  0
  1  2  2  0
  1  4  1  0
  1 19  1  0
  2 21  1  0
  4  3  2  0
  4  5  1  0
  5  6  1  0
  6  7  1  0
  7  8  2  0
  7 18  1  0
  8  9  1  0
  9 10  2  0
 10 11  1  0
 11 12  1  0
 11 18  2  0
 12 13  1  0
 13 14  1  0
 14 15  1  0
 14 17  2  0
 15 16  1  0
 19 20  2  0
 20 21  1  0
M  END
$$$$
