
     RDKit          3D

 21 22  0  0  0  0  0  0  0  0999 V2000
  -20.0985   17.2078  -13.2478 C   0  0  0  0  0  0  0  0  0  0  0  0
  -19.0252   17.7534  -12.5945 C   0  0  0  0  0  0  0  0  0  0  0  0
  -22.3936   17.0139  -13.7173 O   0  0  0  0  0  0  0  0  0  0  0  0
  -21.4848   17.5922  -13.0565 C   0  0  0  0  0  0  0  0  0  0  0  0
  -21.8818   18.5695  -12.1804 O   0  0  0  0  0  0  0  0  0  0  0  0
  -23.1422   19.0824  -11.9410 C   0  0  0  0  0  0  0  0  0  0  0  0
  -23.2195   20.1409  -10.9127 C   0  0  0  0  0  0  0  0  0  0  0  0
  -22.9259   21.4718  -11.2139 C   0  0  0  0  0  0  0  0  0  0  0  0
  -22.9904   22.4337  -10.2341 C   0  0  0  0  0  0  0  0  0  0  0  0
  -23.3437   22.1145   -8.9375 C   0  0  0  0  0  0  0  0  0  0  0  0
  -23.6355   20.8093   -8.6232 C   0  0  0  0  0  0  0  0  0  0  0  0
  -23.9914   20.4033   -7.3735 O   0  0  0  0  0  0  0  0  0  0  0  0
  -23.1897   20.0877   -6.2879 C   0  0  0  0  0  0  0  0  0  0  0  0
  -23.1922   21.1739   -5.2895 C   0  0  0  0  0  0  0  0  0  0  0  0
  -22.4054   21.1944   -4.1571 O   0  0  0  0  0  0  0  0  0  0  0  0
  -22.7074   21.9488   -2.9970 C   0  0  0  0  0  0  0  0  0  0  0  0
  -23.9582   22.1776   -5.4459 O   0  0  0  0  0  0  0  0  0  0  0  0
  -23.5651   19.8547   -9.6229 C   0  0  0  0  0  0  0  0  0  0  0  0
  -19.6467   16.2467  -14.1047 C   0  0  0  0  0  0  0  0  0  0  0  0
  -18.2952   16.2143  -13.9659 N   0  0  0  0  0  0  0  0  0  0  0  0
  -17.9388   17.1153  -13.0646 N   0  0  0  0  0  0  0  0  0  0  0  0
  1  2  2  0
  1  4  1  0
  1 19  1  0
  2 21  1  0
  4  3  2  0
  4  5  1  0
  6  5  1  1
  6  7  1  0
  7  8  2  0
  7 18  1  0
  8  9  1  0
  9 10  2  0
 10 11  1  0
 11 12  1  0
 11 18  2  0
 13 12  1  1
 13 14  1  0
 14 15  1  0
 14 17  2  0
 16 15  1  1
 19 20  2  0
 20 21  1  0
M  END
$$$$
