
     RDKit          3D

 21 22  0  0  0  0  0  0  0  0999 V2000
  -19.7472   17.4293  -13.7495 C   0  0  0  0  0  0  0  0  0  0  0  0
  -20.0110   16.3488  -12.9390 C   0  0  0  0  0  0  0  0  0  0  0  0
  -20.1930   19.5227  -14.7156 O   0  0  0  0  0  0  0  0  0  0  0  0
  -20.4824   18.7073  -13.8072 C   0  0  0  0  0  0  0  0  0  0  0  0
  -21.4649   19.0357  -12.9103 O   0  0  0  0  0  0  0  0  0  0  0  0
  -22.1639   20.2872  -12.9592 C   0  0  0  0  0  0  0  0  0  0  0  0
  -23.0476   20.4606  -11.8065 C   0  0  0  0  0  0  0  0  0  0  0  0
  -24.2929   19.8773  -11.7880 C   0  0  0  0  0  0  0  0  0  0  0  0
  -25.1048   20.0487  -10.7054 C   0  0  0  0  0  0  0  0  0  0  0  0
  -24.7155   20.7920   -9.6222 C   0  0  0  0  0  0  0  0  0  0  0  0
  -23.4769   21.3826   -9.6209 C   0  0  0  0  0  0  0  0  0  0  0  0
  -23.0518   22.1304   -8.5657 O   0  0  0  0  0  0  0  0  0  0  0  0
  -22.0903   23.1230   -8.5133 C   0  0  0  0  0  0  0  0  0  0  0  0
  -21.9005   23.7659   -7.2062 C   0  0  0  0  0  0  0  0  0  0  0  0
  -20.8731   24.6819   -6.9915 O   0  0  0  0  0  0  0  0  0  0  0  0
  -20.6630   25.2482   -5.7136 C   0  0  0  0  0  0  0  0  0  0  0  0
  -22.6432   23.5347   -6.2081 O   0  0  0  0  0  0  0  0  0  0  0  0
  -22.6593   21.2065  -10.7176 C   0  0  0  0  0  0  0  0  0  0  0  0
  -18.6536   17.0890  -14.5065 C   0  0  0  0  0  0  0  0  0  0  0  0
  -18.2850   15.8650  -14.1625 N   0  0  0  0  0  0  0  0  0  0  0  0
  -19.0910   15.4125  -13.2248 N   0  0  0  0  0  0  0  0  0  0  0  0
  1  2  2  0
  1  4  1  0
  1 19  1  0
  2 21  1  0
  4  3  2  0
  4  5  1  0
  5  6  1  0
  6  7  1  0
  7  8  2  0
  7 18  1  0
  8  9  1  0
  9 10  2  0
 10 11  1  0
 11 12  1  0
 11 18  2  0
 12 13  1  0
 13 14  1  0
 14 15  1  0
 14 17  2  0
 15 16  1  0
 19 20  2  0
 20 21  1  0
M  END
$$$$
