
     RDKit          3D

 21 22  0  0  0  0  0  0  0  0999 V2000
  -13.0587   10.9922  -23.2197 C   0  0  0  0  0  0  0  0  0  0  0  0
  -13.6692    9.7940  -22.9271 C   0  0  0  0  0  0  0  0  0  0  0  0
  -12.0377   12.5853  -24.6102 O   0  0  0  0  0  0  0  0  0  0  0  0
  -12.5823   11.4576  -24.5363 C   0  0  0  0  0  0  0  0  0  0  0  0
  -12.7116   10.7082  -25.6761 O   0  0  0  0  0  0  0  0  0  0  0  0
  -12.2027   11.1433  -26.9445 C   0  0  0  0  0  0  0  0  0  0  0  0
  -12.2682   10.0815  -27.9486 C   0  0  0  0  0  0  0  0  0  0  0  0
  -12.9894   10.2593  -29.1061 C   0  0  0  0  0  0  0  0  0  0  0  0
  -13.0403    9.2594  -30.0324 C   0  0  0  0  0  0  0  0  0  0  0  0
  -12.3885    8.0689  -29.8453 C   0  0  0  0  0  0  0  0  0  0  0  0
  -11.6636    7.8712  -28.6970 C   0  0  0  0  0  0  0  0  0  0  0  0
  -11.0024    6.7029  -28.4711 O   0  0  0  0  0  0  0  0  0  0  0  0
  -10.3388    5.8745  -29.3576 C   0  0  0  0  0  0  0  0  0  0  0  0
   -9.0522    5.3372  -28.8955 C   0  0  0  0  0  0  0  0  0  0  0  0
   -8.2575    4.5471  -29.7232 O   0  0  0  0  0  0  0  0  0  0  0  0
   -7.0606    3.9695  -29.2417 C   0  0  0  0  0  0  0  0  0  0  0  0
   -8.5895    5.5521  -27.7375 O   0  0  0  0  0  0  0  0  0  0  0  0
  -11.6148    8.8850  -27.7633 C   0  0  0  0  0  0  0  0  0  0  0  0
  -12.9749   11.6841  -22.0369 C   0  0  0  0  0  0  0  0  0  0  0  0
  -13.5099   10.9333  -21.0869 N   0  0  0  0  0  0  0  0  0  0  0  0
  -13.9287    9.7995  -21.6091 N   0  0  0  0  0  0  0  0  0  0  0  0
  1  2  2  0
  1  4  1  0
  1 19  1  0
  2 21  1  0
  4  3  2  0
  4  5  1  0
  5  6  1  0
  6  7  1  0
  7  8  2  0
  7 18  1  0
  8  9  1  0
  9 10  2  0
 10 11  1  0
 11 12  1  0
 11 18  2  0
 12 13  1  0
 13 14  1  0
 14 15  1  0
 14 17  2  0
 15 16  1  0
 19 20  2  0
 20 21  1  0
M  END
$$$$
