
     RDKit          3D

 21 22  0  0  0  0  0  0  0  0999 V2000
  -19.5497   17.4007  -13.5680 C   0  0  0  0  0  0  0  0  0  0  0  0
  -19.9083   16.3450  -12.7721 C   0  0  0  0  0  0  0  0  0  0  0  0
  -19.9869   19.4698  -14.5943 O   0  0  0  0  0  0  0  0  0  0  0  0
  -20.2556   18.6656  -13.6571 C   0  0  0  0  0  0  0  0  0  0  0  0
  -21.2215   19.0541  -12.7649 O   0  0  0  0  0  0  0  0  0  0  0  0
  -21.9910   20.2015  -12.7398 C   0  0  0  0  0  0  0  0  0  0  0  0
  -22.8975   20.3409  -11.5811 C   0  0  0  0  0  0  0  0  0  0  0  0
  -24.1538   19.7330  -11.5618 C   0  0  0  0  0  0  0  0  0  0  0  0
  -24.9834   19.8926  -10.4776 C   0  0  0  0  0  0  0  0  0  0  0  0
  -24.6020   20.6508   -9.3878 C   0  0  0  0  0  0  0  0  0  0  0  0
  -23.3690   21.2567   -9.3901 C   0  0  0  0  0  0  0  0  0  0  0  0
  -22.9106   22.0219   -8.3617 O   0  0  0  0  0  0  0  0  0  0  0  0
  -21.6200   22.4448   -8.0853 C   0  0  0  0  0  0  0  0  0  0  0  0
  -21.6222   23.7513   -7.3999 C   0  0  0  0  0  0  0  0  0  0  0  0
  -20.8897   24.8467   -7.8064 O   0  0  0  0  0  0  0  0  0  0  0  0
  -20.6347   25.9757   -6.9901 C   0  0  0  0  0  0  0  0  0  0  0  0
  -22.3338   23.9204   -6.3591 O   0  0  0  0  0  0  0  0  0  0  0  0
  -22.5475   21.0848  -10.4907 C   0  0  0  0  0  0  0  0  0  0  0  0
  -18.4225   17.0641  -14.2595 C   0  0  0  0  0  0  0  0  0  0  0  0
  -18.1019   15.7999  -13.8775 N   0  0  0  0  0  0  0  0  0  0  0  0
  -18.9937   15.3843  -12.9926 N   0  0  0  0  0  0  0  0  0  0  0  0
  1  2  2  0
  1  4  1  0
  1 19  1  0
  2 21  1  0
  4  3  2  0
  4  5  1  0
  6  5  1  1
  6  7  1  0
  7  8  2  0
  7 18  1  0
  8  9  1  0
  9 10  2  0
 10 11  1  0
 11 12  1  0
 11 18  2  0
 13 12  1  1
 13 14  1  0
 14 15  1  0
 14 17  2  0
 16 15  1  1
 19 20  2  0
 20 21  1  0
M  END
$$$$
