
     RDKit          3D

 21 22  0  0  0  0  0  0  0  0999 V2000
  -13.4983   10.3745  -22.5327 C   0  0  0  0  0  0  0  0  0  0  0  0
  -13.7747   10.2119  -21.2009 C   0  0  0  0  0  0  0  0  0  0  0  0
  -14.2444    8.2701  -23.2677 O   0  0  0  0  0  0  0  0  0  0  0  0
  -13.7700    9.4007  -23.5739 C   0  0  0  0  0  0  0  0  0  0  0  0
  -13.5385    9.6360  -24.9047 O   0  0  0  0  0  0  0  0  0  0  0  0
  -13.7438    8.8138  -25.9960 C   0  0  0  0  0  0  0  0  0  0  0  0
  -13.3171    9.3609  -27.3008 C   0  0  0  0  0  0  0  0  0  0  0  0
  -13.0414   10.7191  -27.4663 C   0  0  0  0  0  0  0  0  0  0  0  0
  -12.6619   11.2037  -28.6953 C   0  0  0  0  0  0  0  0  0  0  0  0
  -12.5436   10.3697  -29.7900 C   0  0  0  0  0  0  0  0  0  0  0  0
  -12.8116    9.0301  -29.6453 C   0  0  0  0  0  0  0  0  0  0  0  0
  -12.7223    8.1355  -30.6677 O   0  0  0  0  0  0  0  0  0  0  0  0
  -11.6129    7.7403  -31.3982 C   0  0  0  0  0  0  0  0  0  0  0  0
  -10.9815    6.5461  -30.8050 C   0  0  0  0  0  0  0  0  0  0  0  0
  -11.6751    5.4928  -30.2470 O   0  0  0  0  0  0  0  0  0  0  0  0
  -11.0580    4.3613  -29.6596 C   0  0  0  0  0  0  0  0  0  0  0  0
   -9.7137    6.4421  -30.7860 O   0  0  0  0  0  0  0  0  0  0  0  0
  -13.1925    8.5605  -28.4003 C   0  0  0  0  0  0  0  0  0  0  0  0
  -12.9272   11.6005  -22.7144 C   0  0  0  0  0  0  0  0  0  0  0  0
  -12.8599   12.1777  -21.4860 N   0  0  0  0  0  0  0  0  0  0  0  0
  -13.3673   11.3411  -20.5949 N   0  0  0  0  0  0  0  0  0  0  0  0
  1  2  2  0
  1  4  1  0
  1 19  1  0
  2 21  1  0
  4  3  2  0
  4  5  1  0
  6  5  1  1
  6  7  1  0
  7  8  2  0
  7 18  1  0
  8  9  1  0
  9 10  2  0
 10 11  1  0
 11 12  1  0
 11 18  2  0
 13 12  1  1
 13 14  1  0
 14 15  1  0
 14 17  2  0
 16 15  1  1
 19 20  2  0
 20 21  1  0
M  END
$$$$
