
     RDKit          3D

 21 22  0  0  0  0  0  0  0  0999 V2000
  -18.3820   17.5468  -13.7901 C   0  0  0  0  0  0  0  0  0  0  0  0
  -17.0454   17.5346  -14.0894 C   0  0  0  0  0  0  0  0  0  0  0  0
  -18.8648   19.7286  -14.5197 O   0  0  0  0  0  0  0  0  0  0  0  0
  -19.2608   18.6957  -13.9086 C   0  0  0  0  0  0  0  0  0  0  0  0
  -20.5278   18.7325  -13.3855 O   0  0  0  0  0  0  0  0  0  0  0  0
  -21.4633   19.7490  -13.4072 C   0  0  0  0  0  0  0  0  0  0  0  0
  -22.6780   19.5206  -12.5971 C   0  0  0  0  0  0  0  0  0  0  0  0
  -23.6248   18.5608  -12.9585 C   0  0  0  0  0  0  0  0  0  0  0  0
  -24.7536   18.3804  -12.1953 C   0  0  0  0  0  0  0  0  0  0  0  0
  -24.9811   19.1354  -11.0612 C   0  0  0  0  0  0  0  0  0  0  0  0
  -24.0599   20.0849  -10.6910 C   0  0  0  0  0  0  0  0  0  0  0  0
  -24.2015   20.8744   -9.5910 O   0  0  0  0  0  0  0  0  0  0  0  0
  -23.2349   21.5412   -8.8548 C   0  0  0  0  0  0  0  0  0  0  0  0
  -23.8340   22.2557   -7.7114 C   0  0  0  0  0  0  0  0  0  0  0  0
  -23.1426   22.6371   -6.5809 O   0  0  0  0  0  0  0  0  0  0  0  0
  -23.7140   23.3733   -5.5142 C   0  0  0  0  0  0  0  0  0  0  0  0
  -25.0695   22.5584   -7.7294 O   0  0  0  0  0  0  0  0  0  0  0  0
  -22.9295   20.2523  -11.4719 C   0  0  0  0  0  0  0  0  0  0  0  0
  -18.7462   16.3028  -13.3637 C   0  0  0  0  0  0  0  0  0  0  0  0
  -17.6231   15.5389  -13.4070 N   0  0  0  0  0  0  0  0  0  0  0  0
  -16.6189   16.2838  -13.8403 N   0  0  0  0  0  0  0  0  0  0  0  0
  1  2  2  0
  1  4  1  0
  1 19  1  0
  2 21  1  0
  4  3  2  0
  4  5  1  0
  6  5  1  1
  6  7  1  0
  7  8  2  0
  7 18  1  0
  8  9  1  0
  9 10  2  0
 10 11  1  0
 11 12  1  0
 11 18  2  0
 13 12  1  1
 13 14  1  0
 14 15  1  0
 14 17  2  0
 16 15  1  1
 19 20  2  0
 20 21  1  0
M  END
$$$$
