
     RDKit          3D

 21 22  0  0  0  0  0  0  0  0999 V2000
  -13.1348   10.5529  -23.0269 C   0  0  0  0  0  0  0  0  0  0  0  0
  -13.2865    9.2013  -22.8171 C   0  0  0  0  0  0  0  0  0  0  0  0
  -13.2086   12.5326  -24.2877 O   0  0  0  0  0  0  0  0  0  0  0  0
  -13.2382   11.2786  -24.3074 C   0  0  0  0  0  0  0  0  0  0  0  0
  -13.3647   10.6376  -25.5118 O   0  0  0  0  0  0  0  0  0  0  0  0
  -13.5610   11.3462  -26.7433 C   0  0  0  0  0  0  0  0  0  0  0  0
  -13.2413   10.5156  -27.9042 C   0  0  0  0  0  0  0  0  0  0  0  0
  -13.9482    9.3624  -28.1530 C   0  0  0  0  0  0  0  0  0  0  0  0
  -13.6376    8.5991  -29.2399 C   0  0  0  0  0  0  0  0  0  0  0  0
  -12.6320    8.9478  -30.1028 C   0  0  0  0  0  0  0  0  0  0  0  0
  -11.9144   10.0945  -29.8722 C   0  0  0  0  0  0  0  0  0  0  0  0
  -10.9065   10.4765  -30.7038 O   0  0  0  0  0  0  0  0  0  0  0  0
   -9.8196   11.2961  -30.4606 C   0  0  0  0  0  0  0  0  0  0  0  0
   -8.9786   11.6107  -31.6231 C   0  0  0  0  0  0  0  0  0  0  0  0
   -7.8319   12.3919  -31.4979 O   0  0  0  0  0  0  0  0  0  0  0  0
   -7.0076   12.6529  -32.6161 C   0  0  0  0  0  0  0  0  0  0  0  0
   -9.2350   11.2010  -32.7926 O   0  0  0  0  0  0  0  0  0  0  0  0
  -12.2320   10.8632  -28.7721 C   0  0  0  0  0  0  0  0  0  0  0  0
  -12.8649   11.1081  -21.8006 C   0  0  0  0  0  0  0  0  0  0  0  0
  -12.8565   10.1334  -20.9050 N   0  0  0  0  0  0  0  0  0  0  0  0
  -13.1078    8.9875  -21.5030 N   0  0  0  0  0  0  0  0  0  0  0  0
  1  2  2  0
  1  4  1  0
  1 19  1  0
  2 21  1  0
  4  3  2  0
  4  5  1  0
  5  6  1  0
  6  7  1  0
  7  8  2  0
  7 18  1  0
  8  9  1  0
  9 10  2  0
 10 11  1  0
 11 12  1  0
 11 18  2  0
 12 13  1  0
 13 14  1  0
 14 15  1  0
 14 17  2  0
 15 16  1  0
 19 20  2  0
 20 21  1  0
M  END
$$$$
