
     RDKit          3D

 21 22  0  0  0  0  0  0  0  0999 V2000
  -12.9762   10.5766  -23.6063 C   0  0  0  0  0  0  0  0  0  0  0  0
  -12.8086    9.2849  -23.1619 C   0  0  0  0  0  0  0  0  0  0  0  0
  -13.4016   12.2411  -25.2072 O   0  0  0  0  0  0  0  0  0  0  0  0
  -13.1498   11.0297  -24.9997 C   0  0  0  0  0  0  0  0  0  0  0  0
  -13.0469   10.1814  -26.0708 O   0  0  0  0  0  0  0  0  0  0  0  0
  -13.3155   10.6037  -27.4150 C   0  0  0  0  0  0  0  0  0  0  0  0
  -12.8630    9.6162  -28.3947 C   0  0  0  0  0  0  0  0  0  0  0  0
  -12.8141    9.9321  -29.7323 C   0  0  0  0  0  0  0  0  0  0  0  0
  -12.3897    8.9999  -30.6331 C   0  0  0  0  0  0  0  0  0  0  0  0
  -12.0057    7.7434  -30.2442 C   0  0  0  0  0  0  0  0  0  0  0  0
  -12.0474    7.4081  -28.9143 C   0  0  0  0  0  0  0  0  0  0  0  0
  -11.6761    6.1704  -28.4857 O   0  0  0  0  0  0  0  0  0  0  0  0
  -11.2595    5.0694  -29.2114 C   0  0  0  0  0  0  0  0  0  0  0  0
  -10.6335    3.9888  -28.4379 C   0  0  0  0  0  0  0  0  0  0  0  0
  -10.1418    2.8433  -29.0600 O   0  0  0  0  0  0  0  0  0  0  0  0
   -9.5965    1.7838  -28.2998 C   0  0  0  0  0  0  0  0  0  0  0  0
  -10.5020    4.0261  -27.1800 O   0  0  0  0  0  0  0  0  0  0  0  0
  -12.4770    8.3538  -28.0071 C   0  0  0  0  0  0  0  0  0  0  0  0
  -12.9511   11.3771  -22.4913 C   0  0  0  0  0  0  0  0  0  0  0  0
  -12.7769   10.5988  -21.4348 N   0  0  0  0  0  0  0  0  0  0  0  0
  -12.6904    9.3442  -21.8250 N   0  0  0  0  0  0  0  0  0  0  0  0
  1  2  2  0
  1  4  1  0
  1 19  1  0
  2 21  1  0
  4  3  2  0
  4  5  1  0
  5  6  1  0
  6  7  1  0
  7  8  2  0
  7 18  1  0
  8  9  1  0
  9 10  2  0
 10 11  1  0
 11 12  1  0
 11 18  2  0
 12 13  1  0
 13 14  1  0
 14 15  1  0
 14 17  2  0
 15 16  1  0
 19 20  2  0
 20 21  1  0
M  END
$$$$
