
     RDKit          3D

 21 22  0  0  0  0  0  0  0  0999 V2000
  -19.8035   17.4194  -13.2558 C   0  0  0  0  0  0  0  0  0  0  0  0
  -19.1727   17.0942  -12.0766 C   0  0  0  0  0  0  0  0  0  0  0  0
  -21.4394   18.4495  -14.5888 O   0  0  0  0  0  0  0  0  0  0  0  0
  -20.9794   18.2930  -13.4322 C   0  0  0  0  0  0  0  0  0  0  0  0
  -21.5852   18.9368  -12.3854 O   0  0  0  0  0  0  0  0  0  0  0  0
  -22.7238   19.7909  -12.5629 C   0  0  0  0  0  0  0  0  0  0  0  0
  -23.1829   20.3540  -11.2933 C   0  0  0  0  0  0  0  0  0  0  0  0
  -24.3621   19.9292  -10.7273 C   0  0  0  0  0  0  0  0  0  0  0  0
  -24.7761   20.4643   -9.5430 C   0  0  0  0  0  0  0  0  0  0  0  0
  -24.0467   21.4232   -8.8904 C   0  0  0  0  0  0  0  0  0  0  0  0
  -22.8673   21.8611   -9.4385 C   0  0  0  0  0  0  0  0  0  0  0  0
  -22.1129   22.8132   -8.8237 O   0  0  0  0  0  0  0  0  0  0  0  0
  -22.3214   23.4719   -7.6258 C   0  0  0  0  0  0  0  0  0  0  0  0
  -21.2992   24.4565   -7.2471 C   0  0  0  0  0  0  0  0  0  0  0  0
  -21.3534   25.1240   -6.0255 O   0  0  0  0  0  0  0  0  0  0  0  0
  -20.5709   26.2786   -5.7957 C   0  0  0  0  0  0  0  0  0  0  0  0
  -20.3209   24.7579   -7.9910 O   0  0  0  0  0  0  0  0  0  0  0  0
  -22.4525   21.3171  -10.6361 C   0  0  0  0  0  0  0  0  0  0  0  0
  -19.1217   16.7674  -14.2533 C   0  0  0  0  0  0  0  0  0  0  0  0
  -18.1332   16.0874  -13.6939 N   0  0  0  0  0  0  0  0  0  0  0  0
  -18.1546   16.2761  -12.3910 N   0  0  0  0  0  0  0  0  0  0  0  0
  1  2  2  0
  1  4  1  0
  1 19  1  0
  2 21  1  0
  4  3  2  0
  4  5  1  0
  5  6  1  0
  6  7  1  0
  7  8  2  0
  7 18  1  0
  8  9  1  0
  9 10  2  0
 10 11  1  0
 11 12  1  0
 11 18  2  0
 12 13  1  0
 13 14  1  0
 14 15  1  0
 14 17  2  0
 15 16  1  0
 19 20  2  0
 20 21  1  0
M  END
$$$$
