
     RDKit          3D

 21 22  0  0  0  0  0  0  0  0999 V2000
  -19.3403   17.3075  -13.2544 C   0  0  0  0  0  0  0  0  0  0  0  0
  -18.5091   18.4038  -13.2204 C   0  0  0  0  0  0  0  0  0  0  0  0
  -21.4021   16.1901  -13.1342 O   0  0  0  0  0  0  0  0  0  0  0  0
  -20.7860   17.2693  -12.9621 C   0  0  0  0  0  0  0  0  0  0  0  0
  -21.4780   18.3629  -12.5120 O   0  0  0  0  0  0  0  0  0  0  0  0
  -22.8615   18.2976  -12.1390 C   0  0  0  0  0  0  0  0  0  0  0  0
  -23.2965   19.5141  -11.4530 C   0  0  0  0  0  0  0  0  0  0  0  0
  -24.1470   20.3990  -12.0737 C   0  0  0  0  0  0  0  0  0  0  0  0
  -24.5433   21.5287  -11.4202 C   0  0  0  0  0  0  0  0  0  0  0  0
  -24.1168   21.8146  -10.1499 C   0  0  0  0  0  0  0  0  0  0  0  0
  -23.2676   20.9448   -9.5131 C   0  0  0  0  0  0  0  0  0  0  0  0
  -22.8190   21.1916   -8.2516 O   0  0  0  0  0  0  0  0  0  0  0  0
  -23.4208   20.9407   -7.0321 C   0  0  0  0  0  0  0  0  0  0  0  0
  -22.6899   21.4071   -5.8464 C   0  0  0  0  0  0  0  0  0  0  0  0
  -23.2098   21.2443   -4.5642 O   0  0  0  0  0  0  0  0  0  0  0  0
  -22.4810   21.6645   -3.4283 C   0  0  0  0  0  0  0  0  0  0  0  0
  -21.5617   21.9765   -5.9097 O   0  0  0  0  0  0  0  0  0  0  0  0
  -22.8696   19.8037  -10.1776 C   0  0  0  0  0  0  0  0  0  0  0  0
  -18.5586   16.2388  -13.6172 C   0  0  0  0  0  0  0  0  0  0  0  0
  -17.3222   16.6786  -13.7906 N   0  0  0  0  0  0  0  0  0  0  0  0
  -17.2814   17.9736  -13.5556 N   0  0  0  0  0  0  0  0  0  0  0  0
  1  2  2  0
  1  4  1  0
  1 19  1  0
  2 21  1  0
  4  3  2  0
  4  5  1  0
  5  6  1  0
  6  7  1  0
  7  8  2  0
  7 18  1  0
  8  9  1  0
  9 10  2  0
 10 11  1  0
 11 12  1  0
 11 18  2  0
 12 13  1  0
 13 14  1  0
 14 15  1  0
 14 17  2  0
 15 16  1  0
 19 20  2  0
 20 21  1  0
M  END
$$$$
