
     RDKit          3D

 21 22  0  0  0  0  0  0  0  0999 V2000
  -13.4592   10.7057  -23.3911 C   0  0  0  0  0  0  0  0  0  0  0  0
  -12.6029   11.7820  -23.3433 C   0  0  0  0  0  0  0  0  0  0  0  0
  -14.8286    9.1316  -24.4686 O   0  0  0  0  0  0  0  0  0  0  0  0
  -13.8888    9.9544  -24.5860 C   0  0  0  0  0  0  0  0  0  0  0  0
  -13.3030   10.1204  -25.8135 O   0  0  0  0  0  0  0  0  0  0  0  0
  -13.7093    9.3715  -26.9673 C   0  0  0  0  0  0  0  0  0  0  0  0
  -12.7872    9.5576  -28.0874 C   0  0  0  0  0  0  0  0  0  0  0  0
  -12.7794   10.7360  -28.7965 C   0  0  0  0  0  0  0  0  0  0  0  0
  -11.9132   10.8936  -29.8383 C   0  0  0  0  0  0  0  0  0  0  0  0
  -11.0396    9.9042  -30.2062 C   0  0  0  0  0  0  0  0  0  0  0  0
  -11.0316    8.7207  -29.5117 C   0  0  0  0  0  0  0  0  0  0  0  0
  -10.1807    7.7116  -29.8452 O   0  0  0  0  0  0  0  0  0  0  0  0
   -9.8664    6.5538  -29.1573 C   0  0  0  0  0  0  0  0  0  0  0  0
   -8.9388    5.6365  -29.8324 C   0  0  0  0  0  0  0  0  0  0  0  0
   -8.5769    4.4197  -29.2586 O   0  0  0  0  0  0  0  0  0  0  0  0
   -7.3398    3.8113  -29.5705 C   0  0  0  0  0  0  0  0  0  0  0  0
   -8.4171    5.8860  -30.9579 O   0  0  0  0  0  0  0  0  0  0  0  0
  -11.9090    8.5658  -28.4590 C   0  0  0  0  0  0  0  0  0  0  0  0
  -13.8446   10.4586  -22.0968 C   0  0  0  0  0  0  0  0  0  0  0  0
  -13.2463   11.3454  -21.3171 N   0  0  0  0  0  0  0  0  0  0  0  0
  -12.5004   12.1426  -22.0533 N   0  0  0  0  0  0  0  0  0  0  0  0
  1  2  2  0
  1  4  1  0
  1 19  1  0
  2 21  1  0
  4  3  2  0
  4  5  1  0
  5  6  1  0
  6  7  1  0
  7  8  2  0
  7 18  1  0
  8  9  1  0
  9 10  2  0
 10 11  1  0
 11 12  1  0
 11 18  2  0
 12 13  1  0
 13 14  1  0
 14 15  1  0
 14 17  2  0
 15 16  1  0
 19 20  2  0
 20 21  1  0
M  END
$$$$
