
     RDKit          3D

 21 22  0  0  0  0  0  0  0  0999 V2000
  -19.2097   17.3097  -13.2800 C   0  0  0  0  0  0  0  0  0  0  0  0
  -18.4495   18.3043  -12.7237 C   0  0  0  0  0  0  0  0  0  0  0  0
  -21.2536   16.2759  -13.8083 O   0  0  0  0  0  0  0  0  0  0  0  0
  -20.6590   17.2410  -13.2496 C   0  0  0  0  0  0  0  0  0  0  0  0
  -21.4454   18.1823  -12.6367 O   0  0  0  0  0  0  0  0  0  0  0  0
  -22.8223   18.2752  -12.5695 C   0  0  0  0  0  0  0  0  0  0  0  0
  -23.3514   19.3701  -11.7297 C   0  0  0  0  0  0  0  0  0  0  0  0
  -24.6846   19.7743  -11.8149 C   0  0  0  0  0  0  0  0  0  0  0  0
  -25.1462   20.8065  -11.0333 C   0  0  0  0  0  0  0  0  0  0  0  0
  -24.3131   21.4662  -10.1508 C   0  0  0  0  0  0  0  0  0  0  0  0
  -22.9978   21.0818  -10.0544 C   0  0  0  0  0  0  0  0  0  0  0  0
  -22.1056   21.6746   -9.2142 O   0  0  0  0  0  0  0  0  0  0  0  0
  -20.9291   22.3452   -9.5090 C   0  0  0  0  0  0  0  0  0  0  0  0
  -20.3711   22.9960   -8.3083 C   0  0  0  0  0  0  0  0  0  0  0  0
  -20.7629   24.2315   -7.8374 O   0  0  0  0  0  0  0  0  0  0  0  0
  -20.1551   24.8896   -6.7403 C   0  0  0  0  0  0  0  0  0  0  0  0
  -19.4643   22.4120   -7.6337 O   0  0  0  0  0  0  0  0  0  0  0  0
  -22.5511   20.0405  -10.8495 C   0  0  0  0  0  0  0  0  0  0  0  0
  -18.3786   16.3989  -13.8646 C   0  0  0  0  0  0  0  0  0  0  0  0
  -17.1126   16.8481  -13.6588 N   0  0  0  0  0  0  0  0  0  0  0  0
  -17.1692   17.9820  -12.9791 N   0  0  0  0  0  0  0  0  0  0  0  0
  1  2  2  0
  1  4  1  0
  1 19  1  0
  2 21  1  0
  4  3  2  0
  4  5  1  0
  6  5  1  1
  6  7  1  0
  7  8  2  0
  7 18  1  0
  8  9  1  0
  9 10  2  0
 10 11  1  0
 11 12  1  0
 11 18  2  0
 13 12  1  1
 13 14  1  0
 14 15  1  0
 14 17  2  0
 16 15  1  1
 19 20  2  0
 20 21  1  0
M  END
$$$$
