
     RDKit          3D

 21 22  0  0  0  0  0  0  0  0999 V2000
  -26.5214   17.6007   -7.3162 C   0  0  0  0  0  0  0  0  0  0  0  0
  -25.4886   17.7548   -6.4199 C   0  0  0  0  0  0  0  0  0  0  0  0
  -27.7388   18.1392   -9.2507 O   0  0  0  0  0  0  0  0  0  0  0  0
  -26.6278   18.1792   -8.6694 C   0  0  0  0  0  0  0  0  0  0  0  0
  -25.5640   18.7558   -9.3122 O   0  0  0  0  0  0  0  0  0  0  0  0
  -25.6699   19.3076  -10.6319 C   0  0  0  0  0  0  0  0  0  0  0  0
  -24.5012   20.1166  -10.9773 C   0  0  0  0  0  0  0  0  0  0  0  0
  -24.4526   21.4501  -10.6445 C   0  0  0  0  0  0  0  0  0  0  0  0
  -23.3554   22.1905  -10.9737 C   0  0  0  0  0  0  0  0  0  0  0  0
  -22.2867   21.6426  -11.6333 C   0  0  0  0  0  0  0  0  0  0  0  0
  -22.3155   20.3138  -11.9747 C   0  0  0  0  0  0  0  0  0  0  0  0
  -21.2755   19.7304  -12.6317 O   0  0  0  0  0  0  0  0  0  0  0  0
  -20.9804   18.3914  -12.8117 C   0  0  0  0  0  0  0  0  0  0  0  0
  -19.6332   18.0920  -13.3148 C   0  0  0  0  0  0  0  0  0  0  0  0
  -19.2398   16.7863  -13.6001 O   0  0  0  0  0  0  0  0  0  0  0  0
  -17.9320   16.5077  -14.0583 C   0  0  0  0  0  0  0  0  0  0  0  0
  -18.7578   18.9827  -13.5183 O   0  0  0  0  0  0  0  0  0  0  0  0
  -23.4268   19.5690  -11.6397 C   0  0  0  0  0  0  0  0  0  0  0  0
  -27.4491   16.7943   -6.7047 C   0  0  0  0  0  0  0  0  0  0  0  0
  -26.9898   16.4840   -5.5026 N   0  0  0  0  0  0  0  0  0  0  0  0
  -25.8166   17.0539   -5.3218 N   0  0  0  0  0  0  0  0  0  0  0  0
  1  2  2  0
  1  4  1  0
  1 19  1  0
  2 21  1  0
  4  3  2  0
  4  5  1  0
  5  6  1  0
  6  7  1  0
  7  8  2  0
  7 18  1  0
  8  9  1  0
  9 10  2  0
 10 11  1  0
 11 12  1  0
 11 18  2  0
 12 13  1  0
 13 14  1  0
 14 15  1  0
 14 17  2  0
 15 16  1  0
 19 20  2  0
 20 21  1  0
M  END
$$$$
