
     RDKit          3D

 21 22  0  0  0  0  0  0  0  0999 V2000
  -19.6790   17.4977  -13.6325 C   0  0  0  0  0  0  0  0  0  0  0  0
  -19.2743   17.0705  -12.3955 C   0  0  0  0  0  0  0  0  0  0  0  0
  -21.1386   18.6298  -15.0863 O   0  0  0  0  0  0  0  0  0  0  0  0
  -20.8122   18.3658  -13.8943 C   0  0  0  0  0  0  0  0  0  0  0  0
  -21.5716   18.9331  -12.9035 O   0  0  0  0  0  0  0  0  0  0  0  0
  -22.6953   19.7313  -12.9992 C   0  0  0  0  0  0  0  0  0  0  0  0
  -23.3084   20.1328  -11.7159 C   0  0  0  0  0  0  0  0  0  0  0  0
  -24.6148   19.7678  -11.3870 C   0  0  0  0  0  0  0  0  0  0  0  0
  -25.1657   20.1686  -10.1932 C   0  0  0  0  0  0  0  0  0  0  0  0
  -24.4503   20.9358   -9.2945 C   0  0  0  0  0  0  0  0  0  0  0  0
  -23.1632   21.3046   -9.6023 C   0  0  0  0  0  0  0  0  0  0  0  0
  -22.3849   22.0593   -8.7788 O   0  0  0  0  0  0  0  0  0  0  0  0
  -21.0728   21.8600   -8.3797 C   0  0  0  0  0  0  0  0  0  0  0  0
  -20.6118   22.9503   -7.4991 C   0  0  0  0  0  0  0  0  0  0  0  0
  -21.4433   23.8705   -6.8962 O   0  0  0  0  0  0  0  0  0  0  0  0
  -20.9846   24.9601   -6.1161 C   0  0  0  0  0  0  0  0  0  0  0  0
  -19.3708   23.0863   -7.2544 O   0  0  0  0  0  0  0  0  0  0  0  0
  -22.6254   20.8917  -10.8090 C   0  0  0  0  0  0  0  0  0  0  0  0
  -18.8413   16.9718  -14.5726 C   0  0  0  0  0  0  0  0  0  0  0  0
  -17.9285   16.2250  -13.8974 N   0  0  0  0  0  0  0  0  0  0  0  0
  -18.1976   16.2923  -12.6036 N   0  0  0  0  0  0  0  0  0  0  0  0
  1  2  2  0
  1  4  1  0
  1 19  1  0
  2 21  1  0
  4  3  2  0
  4  5  1  0
  6  5  1  1
  6  7  1  0
  7  8  2  0
  7 18  1  0
  8  9  1  0
  9 10  2  0
 10 11  1  0
 11 12  1  0
 11 18  2  0
 13 12  1  1
 13 14  1  0
 14 15  1  0
 14 17  2  0
 16 15  1  1
 19 20  2  0
 20 21  1  0
M  END
$$$$
