
     RDKit          3D

 21 22  0  0  0  0  0  0  0  0999 V2000
  -13.5089   10.4312  -23.2441 C   0  0  0  0  0  0  0  0  0  0  0  0
  -12.6549   11.5103  -23.2375 C   0  0  0  0  0  0  0  0  0  0  0  0
  -14.8879    8.8110  -24.2380 O   0  0  0  0  0  0  0  0  0  0  0  0
  -14.0254    9.7038  -24.4194 C   0  0  0  0  0  0  0  0  0  0  0  0
  -13.6006    9.9653  -25.6955 O   0  0  0  0  0  0  0  0  0  0  0  0
  -14.1019    9.2519  -26.8344 C   0  0  0  0  0  0  0  0  0  0  0  0
  -13.3925    9.6188  -28.0599 C   0  0  0  0  0  0  0  0  0  0  0  0
  -13.1078   10.9361  -28.3336 C   0  0  0  0  0  0  0  0  0  0  0  0
  -12.4455   11.2615  -29.4808 C   0  0  0  0  0  0  0  0  0  0  0  0
  -12.0495   10.3071  -30.3806 C   0  0  0  0  0  0  0  0  0  0  0  0
  -12.3242    8.9868  -30.1264 C   0  0  0  0  0  0  0  0  0  0  0  0
  -11.9498    8.0074  -30.9947 O   0  0  0  0  0  0  0  0  0  0  0  0
  -11.9241    6.6352  -30.8250 C   0  0  0  0  0  0  0  0  0  0  0  0
  -10.7418    6.0938  -30.1418 C   0  0  0  0  0  0  0  0  0  0  0  0
  -10.7504    4.8196  -29.5785 O   0  0  0  0  0  0  0  0  0  0  0  0
   -9.5928    4.2924  -28.9620 C   0  0  0  0  0  0  0  0  0  0  0  0
   -9.6583    6.7363  -30.0220 O   0  0  0  0  0  0  0  0  0  0  0  0
  -12.9939    8.6625  -28.9652 C   0  0  0  0  0  0  0  0  0  0  0  0
  -13.7946   10.1542  -21.9301 C   0  0  0  0  0  0  0  0  0  0  0  0
  -13.1418   11.0268  -21.1786 N   0  0  0  0  0  0  0  0  0  0  0  0
  -12.4563   11.8433  -21.9514 N   0  0  0  0  0  0  0  0  0  0  0  0
  1  2  2  0
  1  4  1  0
  1 19  1  0
  2 21  1  0
  4  3  2  0
  4  5  1  0
  5  6  1  0
  6  7  1  0
  7  8  2  0
  7 18  1  0
  8  9  1  0
  9 10  2  0
 10 11  1  0
 11 12  1  0
 11 18  2  0
 12 13  1  0
 13 14  1  0
 14 15  1  0
 14 17  2  0
 15 16  1  0
 19 20  2  0
 20 21  1  0
M  END
$$$$
