
     RDKit          3D

 21 22  0  0  0  0  0  0  0  0999 V2000
  -14.3337   15.8834  -16.1358 C   0  0  0  0  0  0  0  0  0  0  0  0
  -13.4908   16.0894  -17.1958 C   0  0  0  0  0  0  0  0  0  0  0  0
  -16.3088   15.0730  -15.1522 O   0  0  0  0  0  0  0  0  0  0  0  0
  -15.6414   15.2582  -16.2092 C   0  0  0  0  0  0  0  0  0  0  0  0
  -16.2140   14.8444  -17.3844 O   0  0  0  0  0  0  0  0  0  0  0  0
  -17.4812   14.3481  -17.6229 C   0  0  0  0  0  0  0  0  0  0  0  0
  -17.8325   14.1417  -19.0434 C   0  0  0  0  0  0  0  0  0  0  0  0
  -18.6573   15.0363  -19.7272 C   0  0  0  0  0  0  0  0  0  0  0  0
  -18.9811   14.8112  -21.0440 C   0  0  0  0  0  0  0  0  0  0  0  0
  -18.5048   13.7055  -21.7211 C   0  0  0  0  0  0  0  0  0  0  0  0
  -17.6921   12.8143  -21.0633 C   0  0  0  0  0  0  0  0  0  0  0  0
  -17.1781   11.6983  -21.6497 O   0  0  0  0  0  0  0  0  0  0  0  0
  -16.0847   11.5694  -22.4915 C   0  0  0  0  0  0  0  0  0  0  0  0
  -14.8515   11.3024  -21.7269 C   0  0  0  0  0  0  0  0  0  0  0  0
  -13.6321   11.8937  -21.9819 O   0  0  0  0  0  0  0  0  0  0  0  0
  -12.4008   11.1940  -21.9970 C   0  0  0  0  0  0  0  0  0  0  0  0
  -14.8713   10.4765  -20.7595 O   0  0  0  0  0  0  0  0  0  0  0  0
  -17.3771   13.0574  -19.7376 C   0  0  0  0  0  0  0  0  0  0  0  0
  -13.7395   16.3629  -15.0049 C   0  0  0  0  0  0  0  0  0  0  0  0
  -12.5336   16.8596  -15.3868 N   0  0  0  0  0  0  0  0  0  0  0  0
  -12.3984   16.6905  -16.6922 N   0  0  0  0  0  0  0  0  0  0  0  0
  1  2  2  0
  1  4  1  0
  1 19  1  0
  2 21  1  0
  4  3  2  0
  4  5  1  0
  6  5  1  1
  6  7  1  0
  7  8  2  0
  7 18  1  0
  8  9  1  0
  9 10  2  0
 10 11  1  0
 11 12  1  0
 11 18  2  0
 13 12  1  1
 13 14  1  0
 14 15  1  0
 14 17  2  0
 16 15  1  1
 19 20  2  0
 20 21  1  0
M  END
$$$$
