
     RDKit          3D

 21 22  0  0  0  0  0  0  0  0999 V2000
  -19.1083   17.3034  -13.4537 C   0  0  0  0  0  0  0  0  0  0  0  0
  -18.2500   18.2726  -12.9868 C   0  0  0  0  0  0  0  0  0  0  0  0
  -21.1934   16.4369  -14.0981 O   0  0  0  0  0  0  0  0  0  0  0  0
  -20.5809   17.3667  -13.5201 C   0  0  0  0  0  0  0  0  0  0  0  0
  -21.3015   18.3977  -12.9769 O   0  0  0  0  0  0  0  0  0  0  0  0
  -22.7244   18.5026  -13.1234 C   0  0  0  0  0  0  0  0  0  0  0  0
  -23.2865   19.5268  -12.2432 C   0  0  0  0  0  0  0  0  0  0  0  0
  -22.7127   20.7744  -12.1688 C   0  0  0  0  0  0  0  0  0  0  0  0
  -23.2493   21.7183  -11.3432 C   0  0  0  0  0  0  0  0  0  0  0  0
  -24.3549   21.4611  -10.5759 C   0  0  0  0  0  0  0  0  0  0  0  0
  -24.9424   20.2224  -10.6353 C   0  0  0  0  0  0  0  0  0  0  0  0
  -26.0412   19.9249   -9.8886 O   0  0  0  0  0  0  0  0  0  0  0  0
  -26.7199   18.7282   -9.7484 C   0  0  0  0  0  0  0  0  0  0  0  0
  -26.5882   18.0631   -8.4453 C   0  0  0  0  0  0  0  0  0  0  0  0
  -27.0280   16.7555   -8.2514 O   0  0  0  0  0  0  0  0  0  0  0  0
  -27.1128   16.2051   -6.9522 C   0  0  0  0  0  0  0  0  0  0  0  0
  -26.0764   18.6229   -7.4324 O   0  0  0  0  0  0  0  0  0  0  0  0
  -24.3966   19.2712  -11.4716 C   0  0  0  0  0  0  0  0  0  0  0  0
  -18.3238   16.2496  -13.8525 C   0  0  0  0  0  0  0  0  0  0  0  0
  -17.0600   16.5767  -13.6332 N   0  0  0  0  0  0  0  0  0  0  0  0
  -17.0044   17.7859  -13.1150 N   0  0  0  0  0  0  0  0  0  0  0  0
  1  2  2  0
  1  4  1  0
  1 19  1  0
  2 21  1  0
  4  3  2  0
  4  5  1  0
  5  6  1  0
  6  7  1  0
  7  8  2  0
  7 18  1  0
  8  9  1  0
  9 10  2  0
 10 11  1  0
 11 12  1  0
 11 18  2  0
 12 13  1  0
 13 14  1  0
 14 15  1  0
 14 17  2  0
 15 16  1  0
 19 20  2  0
 20 21  1  0
M  END
$$$$
