
     RDKit          3D

 21 22  0  0  0  0  0  0  0  0999 V2000
  -19.7748   17.3305  -13.6171 C   0  0  0  0  0  0  0  0  0  0  0  0
  -19.5853   16.5264  -12.5165 C   0  0  0  0  0  0  0  0  0  0  0  0
  -20.8557   18.9801  -14.8916 O   0  0  0  0  0  0  0  0  0  0  0  0
  -20.7613   18.4163  -13.7750 C   0  0  0  0  0  0  0  0  0  0  0  0
  -21.5745   18.8301  -12.7528 O   0  0  0  0  0  0  0  0  0  0  0  0
  -22.5470   19.8715  -12.9171 C   0  0  0  0  0  0  0  0  0  0  0  0
  -23.1450   20.2619  -11.6405 C   0  0  0  0  0  0  0  0  0  0  0  0
  -24.3461   19.7254  -11.2394 C   0  0  0  0  0  0  0  0  0  0  0  0
  -24.8902   20.0999  -10.0461 C   0  0  0  0  0  0  0  0  0  0  0  0
  -24.2718   21.0044   -9.2234 C   0  0  0  0  0  0  0  0  0  0  0  0
  -23.0727   21.5517   -9.6052 C   0  0  0  0  0  0  0  0  0  0  0  0
  -22.4257   22.4548   -8.8183 O   0  0  0  0  0  0  0  0  0  0  0  0
  -22.5121   22.6637   -7.4540 C   0  0  0  0  0  0  0  0  0  0  0  0
  -21.6540   23.7248   -6.9104 C   0  0  0  0  0  0  0  0  0  0  0  0
  -21.6648   24.0418   -5.5539 O   0  0  0  0  0  0  0  0  0  0  0  0
  -20.8584   25.0866   -5.0478 C   0  0  0  0  0  0  0  0  0  0  0  0
  -20.8635   24.4079   -7.6244 O   0  0  0  0  0  0  0  0  0  0  0  0
  -22.5262   21.1700  -10.8126 C   0  0  0  0  0  0  0  0  0  0  0  0
  -18.8584   16.9258  -14.5559 C   0  0  0  0  0  0  0  0  0  0  0  0
  -18.1579   15.9290  -14.0381 N   0  0  0  0  0  0  0  0  0  0  0  0
  -18.5849   15.6818  -12.8174 N   0  0  0  0  0  0  0  0  0  0  0  0
  1  2  2  0
  1  4  1  0
  1 19  1  0
  2 21  1  0
  4  3  2  0
  4  5  1  0
  5  6  1  0
  6  7  1  0
  7  8  2  0
  7 18  1  0
  8  9  1  0
  9 10  2  0
 10 11  1  0
 11 12  1  0
 11 18  2  0
 12 13  1  0
 13 14  1  0
 14 15  1  0
 14 17  2  0
 15 16  1  0
 19 20  2  0
 20 21  1  0
M  END
$$$$
