
     RDKit          3D

 59 60  0  0  0  0  0  0  0  0999 V2000
   -3.1741    3.1783  -26.7004 N   0  0  0  0  0  4  0  0  0  0  0  0
   -2.9319    1.9460  -26.0595 C   0  0  2  0  0  0  0  0  0  0  0  0
   -2.1856    2.2723  -24.7762 C   0  0  0  0  0  0  0  0  0  0  0  0
   -1.1786    3.0209  -24.8546 O   0  0  0  0  0  0  0  0  0  0  0  0
   -2.1295    0.9010  -26.7174 C   0  0  0  0  0  0  0  0  0  0  0  0
   -2.0470   -0.4619  -26.1435 C   0  0  0  0  0  0  0  0  0  0  0  0
   -3.3507   -1.0315  -25.7462 C   0  0  0  0  0  0  0  0  0  0  0  0
   -3.2377   -1.9587  -24.6224 N   0  0  0  0  0  0  0  0  0  0  0  0
   -3.1654   -3.3834  -24.8662 C   0  0  0  0  0  0  0  0  0  0  0  0
   -2.8091   -4.1116  -23.9651 N   0  0  0  0  0  0  0  0  0  0  0  0
   -3.5106   -3.8809  -26.1755 N   0  0  0  0  0  0  0  0  0  0  0  0
   -2.5955    1.7636  -23.5274 N   0  0  0  0  0  0  0  0  0  0  0  0
   -3.8703    1.1274  -23.2715 C   0  0  2  0  0  0  0  0  0  0  0  0
   -4.7849    1.0770  -24.4044 C   0  0  0  0  0  0  0  0  0  0  0  0
   -5.4870    2.1194  -24.6189 O   0  0  0  0  0  0  0  0  0  0  0  0
   -4.4898    1.4445  -21.9363 C   0  0  0  0  0  0  0  0  0  0  0  0
   -3.6352    2.3253  -21.1356 C   0  0  0  0  0  0  0  0  0  0  0  0
   -3.9101    2.8302  -19.8961 C   0  0  0  0  0  0  0  0  0  0  0  0
   -2.3951    2.6976  -21.6775 C   0  0  0  0  0  0  0  0  0  0  0  0
   -2.9953    3.6647  -19.2266 C   0  0  0  0  0  0  0  0  0  0  0  0
   -1.5080    3.5089  -21.0259 C   0  0  0  0  0  0  0  0  0  0  0  0
   -1.7923    4.0124  -19.7781 C   0  0  0  0  0  0  0  0  0  0  0  0
   -0.9042    4.8403  -19.0924 O   0  0  0  0  0  0  0  0  0  0  0  0
   -4.9436   -0.0365  -25.2634 N   0  0  0  0  0  0  0  0  0  0  0  0
   -6.1137   -0.8235  -25.3986 C   0  0  2  0  0  0  0  0  0  0  0  0
   -6.1557   -1.8708  -26.3885 C   0  0  0  0  0  0  0  0  0  0  0  0
   -5.4155   -1.7216  -27.4271 O   0  0  0  0  0  0  0  0  0  0  0  0
   -7.3495    0.0843  -25.6419 C   0  0  0  0  0  0  0  0  0  0  0  0
   -6.9271   -3.0457  -26.3324 N   0  0  0  0  0  0  0  0  0  0  0  0
   -6.8570   -4.0216  -27.4508 C   0  0  2  0  0  0  0  0  0  0  0  0
   -8.1923   -4.3314  -27.9716 C   0  0  0  0  0  0  0  0  0  0  0  0
   -8.8286   -5.3014  -27.4810 O   0  0  0  0  0  0  0  0  0  0  0  0
   -6.1915   -5.2509  -26.8363 C   0  0  1  0  0  0  0  0  0  0  0  0
   -6.2046   -6.4560  -27.7140 C   0  0  0  0  0  0  0  0  0  0  0  0
   -4.7672   -4.9655  -26.4227 C   0  0  0  0  0  0  0  0  0  0  0  0
   -8.7434   -3.5258  -29.0212 N   0  0  0  0  0  0  0  0  0  0  0  0
   -9.8453   -4.0542  -29.7482 C   0  0  2  0  0  0  0  0  0  0  0  0
   -9.6016   -4.9710  -30.8491 C   0  0  0  0  0  0  0  0  0  0  0  0
   -8.5212   -4.7678  -31.5730 O   0  0  0  0  0  0  0  0  0  0  0  0
  -10.7061   -2.8618  -30.2751 C   0  0  1  0  0  0  0  0  0  0  0  0
  -11.0115   -1.9253  -29.1303 C   0  0  0  0  0  0  0  0  0  0  0  0
   -9.9413   -2.2078  -31.3728 C   0  0  0  0  0  0  0  0  0  0  0  0
  -10.3474   -6.0858  -31.2959 N   0  0  0  0  0  0  0  0  0  0  0  0
   -9.7293   -7.1350  -32.1125 C   0  0  2  0  0  0  0  0  0  0  0  0
  -10.2470   -7.1970  -33.4890 C   0  0  0  0  0  0  0  0  0  0  0  0
  -10.8350   -6.2116  -33.9770 O   0  0  0  0  0  0  0  0  0  0  0  0
  -10.3060   -8.3693  -31.4028 C   0  0  0  0  0  0  0  0  0  0  0  0
  -11.7413   -8.0109  -31.2318 C   0  0  0  0  0  0  0  0  0  0  0  0
  -11.7138   -6.4964  -31.0721 C   0  0  0  0  0  0  0  0  0  0  0  0
  -10.1132   -8.3374  -34.3231 N   0  0  0  0  0  0  0  0  0  0  0  0
   -9.4812   -8.3343  -35.6272 C   0  0  2  0  0  0  0  0  0  0  0  0
   -9.4277   -9.6510  -36.2420 C   0  0  0  0  0  0  0  0  0  0  0  0
   -8.5850  -10.4962  -35.8209 O   0  0  0  0  0  0  0  0  0  0  0  0
   -8.1443   -7.6352  -35.5926 C   0  0  0  0  0  0  0  0  0  0  0  0
   -7.4878   -7.5599  -36.9250 C   0  0  0  0  0  0  0  0  0  0  0  0
   -6.2231   -6.9792  -37.0506 O   0  0  0  0  0  0  0  0  0  0  0  0
   -8.0236   -8.0041  -37.9858 O   0  0  0  0  0  0  0  0  0  0  0  0
  -10.2449  -10.0642  -37.2749 O   0  0  0  0  0  0  0  0  0  0  0  0
   -2.7535   -4.4181  -23.0404 H   0  0  0  0  0  0  0  0  0  0  0  0
  2  1  1  6
  2  3  1  0
  2  5  1  0
  3  4  2  0
  3 12  1  0
  5  6  1  0
  6  7  1  0
  7  8  1  0
  8  9  1  0
  9 10  2  0
  9 11  1  0
 12 13  1  0
 13 14  1  0
 13 16  1  1
 14 15  2  0
 14 24  1  0
 16 17  1  0
 17 18  2  0
 17 19  1  0
 18 20  1  0
 19 21  2  0
 20 22  2  0
 21 22  1  0
 22 23  1  0
 24 25  1  0
 25 26  1  0
 25 28  1  6
 26 27  2  0
 26 29  1  0
 30 29  1  1
 30 31  1  0
 30 33  1  0
 31 32  2  0
 31 36  1  0
 33 34  1  6
 33 35  1  0
 37 36  1  6
 37 38  1  0
 37 40  1  0
 38 39  2  0
 38 43  1  0
 40 41  1  1
 40 42  1  0
 43 44  1  0
 43 49  1  0
 44 45  1  6
 44 47  1  0
 45 46  2  0
 45 50  1  0
 47 48  1  0
 48 49  1  0
 50 51  1  0
 51 52  1  0
 51 54  1  1
 52 53  2  0
 52 58  1  0
 54 55  1  0
 55 56  1  0
 55 57  2  0
 10 59  1  0
M  CHG  1   1   1
M  END
$$$$
