
     RDKit          3D

 59 60  0  0  0  0  0  0  0  0999 V2000
   -5.3866    1.8111  -21.8328 N   0  0  0  0  0  4  0  0  0  0  0  0
   -4.1020    1.5006  -22.3239 C   0  0  2  0  0  0  0  0  0  0  0  0
   -4.3112    0.5647  -23.5033 C   0  0  0  0  0  0  0  0  0  0  0  0
   -3.3196    0.3031  -24.2306 O   0  0  0  0  0  0  0  0  0  0  0  0
   -3.1119    0.8263  -21.4673 C   0  0  0  0  0  0  0  0  0  0  0  0
   -1.6611    1.0305  -21.6841 C   0  0  0  0  0  0  0  0  0  0  0  0
   -1.3141    1.5255  -23.0319 C   0  0  0  0  0  0  0  0  0  0  0  0
    0.0881    1.2922  -23.3704 N   0  0  0  0  0  0  0  0  0  0  0  0
    1.0067    2.4077  -23.4510 C   0  0  0  0  0  0  0  0  0  0  0  0
    2.1402    2.2031  -23.8287 N   0  0  0  0  0  0  0  0  0  0  0  0
    0.5406    3.7183  -23.0691 N   0  0  0  0  0  0  0  0  0  0  0  0
   -5.5689   -0.0042  -23.7875 N   0  0  0  0  0  0  0  0  0  0  0  0
   -5.7718   -1.3150  -24.3670 C   0  0  2  0  0  0  0  0  0  0  0  0
   -5.4467   -1.4324  -25.7823 C   0  0  0  0  0  0  0  0  0  0  0  0
   -4.2416   -1.7345  -26.0686 O   0  0  0  0  0  0  0  0  0  0  0  0
   -7.0157   -2.0321  -23.9135 C   0  0  0  0  0  0  0  0  0  0  0  0
   -6.9935   -2.3020  -22.4733 C   0  0  0  0  0  0  0  0  0  0  0  0
   -5.9895   -1.9997  -21.5973 C   0  0  0  0  0  0  0  0  0  0  0  0
   -8.1153   -2.9318  -21.9118 C   0  0  0  0  0  0  0  0  0  0  0  0
   -6.0959   -2.3080  -20.2279 C   0  0  0  0  0  0  0  0  0  0  0  0
   -8.2165   -3.2309  -20.5815 C   0  0  0  0  0  0  0  0  0  0  0  0
   -7.2015   -2.9227  -19.7063 C   0  0  0  0  0  0  0  0  0  0  0  0
   -7.2810   -3.2159  -18.3454 O   0  0  0  0  0  0  0  0  0  0  0  0
   -6.3656   -1.2320  -26.8398 N   0  0  0  0  0  0  0  0  0  0  0  0
   -6.0526   -1.2077  -28.2213 C   0  0  2  0  0  0  0  0  0  0  0  0
   -6.3615   -0.0342  -28.9997 C   0  0  0  0  0  0  0  0  0  0  0  0
   -7.5905    0.3360  -29.0339 O   0  0  0  0  0  0  0  0  0  0  0  0
   -6.7029   -2.4186  -28.9432 C   0  0  0  0  0  0  0  0  0  0  0  0
   -5.4499    0.7514  -29.7280 N   0  0  0  0  0  0  0  0  0  0  0  0
   -5.9522    1.6571  -30.7937 C   0  0  2  0  0  0  0  0  0  0  0  0
   -6.5530    0.9000  -31.8964 C   0  0  0  0  0  0  0  0  0  0  0  0
   -6.9193    1.5170  -32.9316 O   0  0  0  0  0  0  0  0  0  0  0  0
   -4.7142    2.4278  -31.2466 C   0  0  1  0  0  0  0  0  0  0  0  0
   -4.8682    3.9102  -31.2057 C   0  0  0  0  0  0  0  0  0  0  0  0
   -3.4936    2.0430  -30.4448 C   0  0  0  0  0  0  0  0  0  0  0  0
   -6.7075   -0.5196  -31.7743 N   0  0  0  0  0  0  0  0  0  0  0  0
   -7.3526   -1.2064  -32.8393 C   0  0  2  0  0  0  0  0  0  0  0  0
   -7.5178   -2.6482  -32.7635 C   0  0  0  0  0  0  0  0  0  0  0  0
   -6.6746   -3.3873  -33.4529 O   0  0  0  0  0  0  0  0  0  0  0  0
   -6.6117   -0.8599  -34.1702 C   0  0  1  0  0  0  0  0  0  0  0  0
   -6.7812    0.6116  -34.4649 C   0  0  0  0  0  0  0  0  0  0  0  0
   -5.1864   -1.2593  -34.0067 C   0  0  0  0  0  0  0  0  0  0  0  0
   -8.4591   -3.4269  -32.0520 N   0  0  0  0  0  0  0  0  0  0  0  0
   -8.0311   -4.4016  -31.0438 C   0  0  2  0  0  0  0  0  0  0  0  0
   -8.2965   -5.7995  -31.4206 C   0  0  0  0  0  0  0  0  0  0  0  0
   -9.4242   -6.1270  -31.8400 O   0  0  0  0  0  0  0  0  0  0  0  0
   -9.0488   -4.0754  -29.9402 C   0  0  0  0  0  0  0  0  0  0  0  0
  -10.3305   -3.9766  -30.6922 C   0  0  0  0  0  0  0  0  0  0  0  0
   -9.9031   -3.4550  -32.0580 C   0  0  0  0  0  0  0  0  0  0  0  0
   -7.3227   -6.8287  -31.3390 N   0  0  0  0  0  0  0  0  0  0  0  0
   -7.5021   -8.1743  -31.8465 C   0  0  2  0  0  0  0  0  0  0  0  0
   -7.2864   -9.2008  -30.8394 C   0  0  0  0  0  0  0  0  0  0  0  0
   -7.0150   -8.8552  -29.6524 O   0  0  0  0  0  0  0  0  0  0  0  0
   -6.7087   -8.3995  -33.1101 C   0  0  0  0  0  0  0  0  0  0  0  0
   -7.4970   -9.0541  -34.1881 C   0  0  0  0  0  0  0  0  0  0  0  0
   -6.9270   -9.2571  -35.4476 O   0  0  0  0  0  0  0  0  0  0  0  0
   -8.6915   -9.4504  -34.0278 O   0  0  0  0  0  0  0  0  0  0  0  0
   -7.3567  -10.5581  -31.0805 O   0  0  0  0  0  0  0  0  0  0  0  0
    2.8288    1.9281  -24.4629 H   0  0  0  0  0  0  0  0  0  0  0  0
  2  1  1  1
  2  3  1  0
  2  5  1  0
  3  4  2  0
  3 12  1  0
  5  6  1  0
  6  7  1  0
  7  8  1  0
  8  9  1  0
  9 10  2  0
  9 11  1  0
 12 13  1  0
 13 14  1  0
 13 16  1  6
 14 15  2  0
 14 24  1  0
 16 17  1  0
 17 18  2  0
 17 19  1  0
 18 20  1  0
 19 21  2  0
 20 22  2  0
 21 22  1  0
 22 23  1  0
 24 25  1  0
 25 26  1  0
 25 28  1  6
 26 27  2  0
 26 29  1  0
 30 29  1  1
 30 31  1  0
 30 33  1  0
 31 32  2  0
 31 36  1  0
 33 34  1  1
 33 35  1  0
 37 36  1  1
 37 38  1  0
 37 40  1  0
 38 39  2  0
 38 43  1  0
 40 41  1  1
 40 42  1  0
 43 44  1  0
 43 49  1  0
 44 45  1  6
 44 47  1  0
 45 46  2  0
 45 50  1  0
 47 48  1  0
 48 49  1  0
 50 51  1  0
 51 52  1  0
 51 54  1  6
 52 53  2  0
 52 58  1  0
 54 55  1  0
 55 56  1  0
 55 57  2  0
 10 59  1  0
M  CHG  1   1   1
M  END
$$$$
