
     RDKit          3D

 59 60  0  0  0  0  0  0  0  0999 V2000
   -4.4788   -0.0777  -20.6557 N   0  0  0  0  0  4  0  0  0  0  0  0
   -5.8244    0.2593  -20.9083 C   0  0  2  0  0  0  0  0  0  0  0  0
   -5.8314    1.0355  -22.2152 C   0  0  0  0  0  0  0  0  0  0  0  0
   -6.8239    1.7674  -22.4602 O   0  0  0  0  0  0  0  0  0  0  0  0
   -6.5816    1.0936  -19.9600 C   0  0  0  0  0  0  0  0  0  0  0  0
   -6.9230    0.5850  -18.6115 C   0  0  0  0  0  0  0  0  0  0  0  0
   -5.7571    0.3847  -17.7270 C   0  0  0  0  0  0  0  0  0  0  0  0
   -6.0506    0.7062  -16.3320 N   0  0  0  0  0  0  0  0  0  0  0  0
   -5.8538    2.0547  -15.8449 C   0  0  0  0  0  0  0  0  0  0  0  0
   -6.2465    2.3360  -14.7332 N   0  0  0  0  0  0  0  0  0  0  0  0
   -5.2069    3.0149  -16.7054 N   0  0  0  0  0  0  0  0  0  0  0  0
   -4.7670    0.9527  -23.1353 N   0  0  0  0  0  0  0  0  0  0  0  0
   -4.5770    1.8410  -24.2623 C   0  0  2  0  0  0  0  0  0  0  0  0
   -4.2234    1.1937  -25.5186 C   0  0  0  0  0  0  0  0  0  0  0  0
   -3.5515    0.1133  -25.4356 O   0  0  0  0  0  0  0  0  0  0  0  0
   -3.8519    3.1240  -23.9535 C   0  0  0  0  0  0  0  0  0  0  0  0
   -3.7926    4.0096  -25.1195 C   0  0  0  0  0  0  0  0  0  0  0  0
   -4.7264    4.9328  -25.4969 C   0  0  0  0  0  0  0  0  0  0  0  0
   -2.6623    3.9213  -25.9470 C   0  0  0  0  0  0  0  0  0  0  0  0
   -4.5448    5.7310  -26.6421 C   0  0  0  0  0  0  0  0  0  0  0  0
   -2.4879    4.6971  -27.0593 C   0  0  0  0  0  0  0  0  0  0  0  0
   -3.4326    5.6245  -27.4319 C   0  0  0  0  0  0  0  0  0  0  0  0
   -3.2778    6.4286  -28.5606 O   0  0  0  0  0  0  0  0  0  0  0  0
   -4.5683    1.6813  -26.8016 N   0  0  0  0  0  0  0  0  0  0  0  0
   -4.5518    0.9373  -28.0071 C   0  0  2  0  0  0  0  0  0  0  0  0
   -5.4639   -0.1667  -28.1737 C   0  0  0  0  0  0  0  0  0  0  0  0
   -5.7450   -0.5144  -29.3773 O   0  0  0  0  0  0  0  0  0  0  0  0
   -3.1239    0.3960  -28.2876 C   0  0  0  0  0  0  0  0  0  0  0  0
   -6.0793   -0.9066  -27.1478 N   0  0  0  0  0  0  0  0  0  0  0  0
   -6.9655   -2.0469  -27.4980 C   0  0  2  0  0  0  0  0  0  0  0  0
   -6.8190   -2.4216  -28.9080 C   0  0  0  0  0  0  0  0  0  0  0  0
   -6.0051   -1.7840  -29.6274 O   0  0  0  0  0  0  0  0  0  0  0  0
   -8.3722   -1.5376  -27.1924 C   0  0  1  0  0  0  0  0  0  0  0  0
   -9.4453   -2.5553  -27.3814 C   0  0  0  0  0  0  0  0  0  0  0  0
   -8.4714   -0.9801  -25.7923 C   0  0  0  0  0  0  0  0  0  0  0  0
   -7.5994   -3.5023  -29.4344 N   0  0  0  0  0  0  0  0  0  0  0  0
   -7.2019   -4.0555  -30.6826 C   0  0  2  0  0  0  0  0  0  0  0  0
   -8.0635   -5.0216  -31.3430 C   0  0  0  0  0  0  0  0  0  0  0  0
   -8.3961   -6.0965  -30.6601 O   0  0  0  0  0  0  0  0  0  0  0  0
   -5.7837   -4.6882  -30.5127 C   0  0  1  0  0  0  0  0  0  0  0  0
   -5.4623   -5.5220  -31.7302 C   0  0  0  0  0  0  0  0  0  0  0  0
   -4.8187   -3.5742  -30.3000 C   0  0  0  0  0  0  0  0  0  0  0  0
   -8.6305   -5.0096  -32.6380 N   0  0  0  0  0  0  0  0  0  0  0  0
   -9.8652   -5.7431  -32.9333 C   0  0  2  0  0  0  0  0  0  0  0  0
   -9.6758   -6.8766  -33.8530 C   0  0  0  0  0  0  0  0  0  0  0  0
   -9.7585   -6.6985  -35.0844 O   0  0  0  0  0  0  0  0  0  0  0  0
  -10.5977   -4.6697  -33.7525 C   0  0  0  0  0  0  0  0  0  0  0  0
   -9.5359   -4.1746  -34.6718 C   0  0  0  0  0  0  0  0  0  0  0  0
   -8.2580   -4.3322  -33.8580 C   0  0  0  0  0  0  0  0  0  0  0  0
   -9.3931   -8.1973  -33.4171 N   0  0  0  0  0  0  0  0  0  0  0  0
   -9.9262   -9.3982  -34.0286 C   0  0  2  0  0  0  0  0  0  0  0  0
   -9.1660  -10.5941  -33.7024 C   0  0  0  0  0  0  0  0  0  0  0  0
   -9.4121  -11.6709  -34.3203 O   0  0  0  0  0  0  0  0  0  0  0  0
  -10.1456   -9.2142  -35.5102 C   0  0  0  0  0  0  0  0  0  0  0  0
  -11.5730   -9.3339  -35.9104 C   0  0  0  0  0  0  0  0  0  0  0  0
  -11.9131   -9.4708  -37.2588 O   0  0  0  0  0  0  0  0  0  0  0  0
  -12.5287   -9.3181  -35.0760 O   0  0  0  0  0  0  0  0  0  0  0  0
   -8.1703  -10.6501  -32.7480 O   0  0  0  0  0  0  0  0  0  0  0  0
   -6.7735    2.8280  -14.0758 H   0  0  0  0  0  0  0  0  0  0  0  0
  2  1  1  1
  2  3  1  0
  2  5  1  0
  3  4  2  0
  3 12  1  0
  5  6  1  0
  6  7  1  0
  7  8  1  0
  8  9  1  0
  9 10  2  0
  9 11  1  0
 12 13  1  0
 13 14  1  0
 13 16  1  1
 14 15  2  0
 14 24  1  0
 16 17  1  0
 17 18  2  0
 17 19  1  0
 18 20  1  0
 19 21  2  0
 20 22  2  0
 21 22  1  0
 22 23  1  0
 24 25  1  0
 25 26  1  0
 25 28  1  1
 26 27  2  0
 26 29  1  0
 30 29  1  6
 30 31  1  0
 30 33  1  0
 31 32  2  0
 31 36  1  0
 33 34  1  1
 33 35  1  0
 37 36  1  1
 37 38  1  0
 37 40  1  0
 38 39  2  0
 38 43  1  0
 40 41  1  6
 40 42  1  0
 43 44  1  0
 43 49  1  0
 44 45  1  6
 44 47  1  0
 45 46  2  0
 45 50  1  0
 47 48  1  0
 48 49  1  0
 50 51  1  0
 51 52  1  0
 51 54  1  6
 52 53  2  0
 52 58  1  0
 54 55  1  0
 55 56  1  0
 55 57  2  0
 10 59  1  0
M  CHG  1   1   1
M  END
$$$$
