
     RDKit          3D

 59 60  0  0  0  0  0  0  0  0999 V2000
    2.0314    2.2306  -23.4699 N   0  0  0  0  0  4  0  0  0  0  0  0
    1.2856    2.8455  -24.4964 C   0  0  2  0  0  0  0  0  0  0  0  0
   -0.1781    2.6284  -24.1486 C   0  0  0  0  0  0  0  0  0  0  0  0
   -0.4481    1.8624  -23.1889 O   0  0  0  0  0  0  0  0  0  0  0  0
    1.4202    2.4005  -25.8937 C   0  0  0  0  0  0  0  0  0  0  0  0
    2.5557    1.5447  -26.3083 C   0  0  0  0  0  0  0  0  0  0  0  0
    3.5999    2.2539  -27.0755 C   0  0  0  0  0  0  0  0  0  0  0  0
    4.1153    1.4584  -28.1876 N   0  0  0  0  0  0  0  0  0  0  0  0
    5.1129    2.0180  -29.0743 C   0  0  0  0  0  0  0  0  0  0  0  0
    6.2845    1.8652  -28.8039 N   0  0  0  0  0  0  0  0  0  0  0  0
    4.6741    2.7449  -30.2405 N   0  0  0  0  0  0  0  0  0  0  0  0
   -1.2145    3.2591  -24.8657 N   0  0  0  0  0  0  0  0  0  0  0  0
   -2.6267    3.0992  -24.5909 C   0  0  2  0  0  0  0  0  0  0  0  0
   -3.1749    1.7789  -24.8715 C   0  0  0  0  0  0  0  0  0  0  0  0
   -2.5163    1.0471  -25.6816 O   0  0  0  0  0  0  0  0  0  0  0  0
   -3.4924    4.2693  -24.9764 C   0  0  0  0  0  0  0  0  0  0  0  0
   -3.2194    5.4451  -24.1455 C   0  0  0  0  0  0  0  0  0  0  0  0
   -2.3469    5.5242  -23.0972 C   0  0  0  0  0  0  0  0  0  0  0  0
   -3.9123    6.6285  -24.4448 C   0  0  0  0  0  0  0  0  0  0  0  0
   -2.1707    6.7230  -22.3807 C   0  0  0  0  0  0  0  0  0  0  0  0
   -3.7403    7.7920  -23.7474 C   0  0  0  0  0  0  0  0  0  0  0  0
   -2.8595    7.8632  -22.6936 C   0  0  0  0  0  0  0  0  0  0  0  0
   -2.6650    9.0377  -21.9676 O   0  0  0  0  0  0  0  0  0  0  0  0
   -4.3719    1.2683  -24.3155 N   0  0  0  0  0  0  0  0  0  0  0  0
   -5.0386    0.0850  -24.7185 C   0  0  2  0  0  0  0  0  0  0  0  0
   -5.8719    0.1040  -25.8948 C   0  0  0  0  0  0  0  0  0  0  0  0
   -6.8180    0.9716  -25.9254 O   0  0  0  0  0  0  0  0  0  0  0  0
   -5.9040   -0.4697  -23.5549 C   0  0  0  0  0  0  0  0  0  0  0  0
   -5.7533   -0.7336  -27.0186 N   0  0  0  0  0  0  0  0  0  0  0  0
   -6.7372   -0.6166  -28.1260 C   0  0  2  0  0  0  0  0  0  0  0  0
   -7.9718   -1.3465  -27.8208 C   0  0  0  0  0  0  0  0  0  0  0  0
   -8.5814   -1.0925  -26.7482 O   0  0  0  0  0  0  0  0  0  0  0  0
   -6.0155   -1.2084  -29.3346 C   0  0  1  0  0  0  0  0  0  0  0  0
   -6.8408   -1.2585  -30.5752 C   0  0  0  0  0  0  0  0  0  0  0  0
   -4.7318   -0.4711  -29.6334 C   0  0  0  0  0  0  0  0  0  0  0  0
   -8.4577   -2.3268  -28.7465 N   0  0  0  0  0  0  0  0  0  0  0  0
   -8.2054   -3.6947  -28.4507 C   0  0  2  0  0  0  0  0  0  0  0  0
   -8.5591   -4.7134  -29.4247 C   0  0  0  0  0  0  0  0  0  0  0  0
   -8.2337   -5.9566  -29.1400 O   0  0  0  0  0  0  0  0  0  0  0  0
   -8.8975   -4.0419  -27.0940 C   0  0  1  0  0  0  0  0  0  0  0  0
   -8.0494   -3.5242  -25.9566 C   0  0  0  0  0  0  0  0  0  0  0  0
  -10.2612   -3.4443  -27.1208 C   0  0  0  0  0  0  0  0  0  0  0  0
   -9.2176   -4.6011  -30.6707 N   0  0  0  0  0  0  0  0  0  0  0  0
  -10.4210   -5.3846  -30.9670 C   0  0  2  0  0  0  0  0  0  0  0  0
  -10.2265   -6.3947  -32.0198 C   0  0  0  0  0  0  0  0  0  0  0  0
   -9.0764   -6.6590  -32.4228 O   0  0  0  0  0  0  0  0  0  0  0  0
  -11.2778   -4.2835  -31.6102 C   0  0  0  0  0  0  0  0  0  0  0  0
  -10.3188   -3.6166  -32.5339 C   0  0  0  0  0  0  0  0  0  0  0  0
   -8.9781   -3.7701  -31.8274 C   0  0  0  0  0  0  0  0  0  0  0  0
  -11.2936   -7.1114  -32.6212 N   0  0  0  0  0  0  0  0  0  0  0  0
  -11.1295   -8.2765  -33.4672 C   0  0  2  0  0  0  0  0  0  0  0  0
  -12.2853   -8.5420  -34.3087 C   0  0  0  0  0  0  0  0  0  0  0  0
  -12.1350   -9.2107  -35.3727 O   0  0  0  0  0  0  0  0  0  0  0  0
  -10.6788   -9.4780  -32.6731 C   0  0  0  0  0  0  0  0  0  0  0  0
  -10.3923  -10.6663  -33.5203 C   0  0  0  0  0  0  0  0  0  0  0  0
  -10.2754  -11.9306  -32.9367 O   0  0  0  0  0  0  0  0  0  0  0  0
  -10.2428  -10.5987  -34.7784 O   0  0  0  0  0  0  0  0  0  0  0  0
  -13.5676   -8.1123  -34.0321 O   0  0  0  0  0  0  0  0  0  0  0  0
    7.0393    1.5416  -28.2769 H   0  0  0  0  0  0  0  0  0  0  0  0
  2  1  1  1
  2  3  1  0
  2  5  1  0
  3  4  2  0
  3 12  1  0
  5  6  1  0
  6  7  1  0
  7  8  1  0
  8  9  1  0
  9 10  2  0
  9 11  1  0
 12 13  1  0
 13 14  1  0
 13 16  1  6
 14 15  2  0
 14 24  1  0
 16 17  1  0
 17 18  2  0
 17 19  1  0
 18 20  1  0
 19 21  2  0
 20 22  2  0
 21 22  1  0
 22 23  1  0
 24 25  1  0
 25 26  1  0
 25 28  1  1
 26 27  2  0
 26 29  1  0
 30 29  1  1
 30 31  1  0
 30 33  1  0
 31 32  2  0
 31 36  1  0
 33 34  1  6
 33 35  1  0
 37 36  1  6
 37 38  1  0
 37 40  1  0
 38 39  2  0
 38 43  1  0
 40 41  1  1
 40 42  1  0
 43 44  1  0
 43 49  1  0
 44 45  1  6
 44 47  1  0
 45 46  2  0
 45 50  1  0
 47 48  1  0
 48 49  1  0
 50 51  1  0
 51 52  1  0
 51 54  1  1
 52 53  2  0
 52 58  1  0
 54 55  1  0
 55 56  1  0
 55 57  2  0
 10 59  1  0
M  CHG  1   1   1
M  END
$$$$
