
     RDKit          3D

 59 60  0  0  0  0  0  0  0  0999 V2000
   -4.3398  -10.0204  -35.4104 N   0  0  0  0  0  4  0  0  0  0  0  0
   -4.9420   -9.0983  -36.2908 C   0  0  2  0  0  0  0  0  0  0  0  0
   -4.9526   -7.7619  -35.5666 C   0  0  0  0  0  0  0  0  0  0  0  0
   -5.8449   -6.9318  -35.8754 O   0  0  0  0  0  0  0  0  0  0  0  0
   -6.3252   -9.2959  -36.7562 C   0  0  0  0  0  0  0  0  0  0  0  0
   -6.7374  -10.5746  -37.3796 C   0  0  0  0  0  0  0  0  0  0  0  0
   -8.1736  -10.6486  -37.7166 C   0  0  0  0  0  0  0  0  0  0  0  0
   -8.4986   -9.9268  -38.9449 N   0  0  0  0  0  0  0  0  0  0  0  0
   -8.6380  -10.6489  -40.1913 C   0  0  0  0  0  0  0  0  0  0  0  0
   -8.9095  -10.0288  -41.1969 N   0  0  0  0  0  0  0  0  0  0  0  0
   -8.4587  -12.0802  -40.1870 N   0  0  0  0  0  0  0  0  0  0  0  0
   -4.0022   -7.4455  -34.5752 N   0  0  0  0  0  0  0  0  0  0  0  0
   -3.7221   -6.1092  -34.0943 C   0  0  2  0  0  0  0  0  0  0  0  0
   -4.8907   -5.2861  -33.8126 C   0  0  0  0  0  0  0  0  0  0  0  0
   -5.5966   -4.9339  -34.8143 O   0  0  0  0  0  0  0  0  0  0  0  0
   -2.5705   -5.4122  -34.7689 C   0  0  0  0  0  0  0  0  0  0  0  0
   -1.3284   -6.1818  -34.6578 C   0  0  0  0  0  0  0  0  0  0  0  0
   -1.1728   -7.4093  -34.0784 C   0  0  0  0  0  0  0  0  0  0  0  0
   -0.1636   -5.6198  -35.2033 C   0  0  0  0  0  0  0  0  0  0  0  0
    0.0810   -8.0483  -34.0437 C   0  0  0  0  0  0  0  0  0  0  0  0
    1.0536   -6.2418  -35.1681 C   0  0  0  0  0  0  0  0  0  0  0  0
    1.2014   -7.4778  -34.5834 C   0  0  0  0  0  0  0  0  0  0  0  0
    2.4312   -8.1334  -34.5358 O   0  0  0  0  0  0  0  0  0  0  0  0
   -5.2823   -4.8571  -32.5221 N   0  0  0  0  0  0  0  0  0  0  0  0
   -6.5924   -4.9183  -31.9864 C   0  0  2  0  0  0  0  0  0  0  0  0
   -6.7743   -4.9696  -30.5571 C   0  0  0  0  0  0  0  0  0  0  0  0
   -7.2985   -6.0375  -30.0739 O   0  0  0  0  0  0  0  0  0  0  0  0
   -7.3658   -6.1223  -32.5885 C   0  0  0  0  0  0  0  0  0  0  0  0
   -6.4334   -3.9654  -29.6330 N   0  0  0  0  0  0  0  0  0  0  0  0
   -5.4138   -4.2467  -28.5892 C   0  0  2  0  0  0  0  0  0  0  0  0
   -4.9144   -3.0075  -27.9850 C   0  0  0  0  0  0  0  0  0  0  0  0
   -3.6802   -2.7605  -28.0310 O   0  0  0  0  0  0  0  0  0  0  0  0
   -4.3110   -4.9966  -29.3329 C   0  0  1  0  0  0  0  0  0  0  0  0
   -3.1701   -5.4185  -28.4709 C   0  0  0  0  0  0  0  0  0  0  0  0
   -4.8501   -6.2089  -30.0546 C   0  0  0  0  0  0  0  0  0  0  0  0
   -5.8376   -2.1066  -27.3602 N   0  0  0  0  0  0  0  0  0  0  0  0
   -5.4123   -1.4430  -26.1767 C   0  0  2  0  0  0  0  0  0  0  0  0
   -6.3550   -0.6152  -25.4434 C   0  0  0  0  0  0  0  0  0  0  0  0
   -7.3033   -0.0235  -26.1385 O   0  0  0  0  0  0  0  0  0  0  0  0
   -4.1551   -0.5811  -26.5189 C   0  0  1  0  0  0  0  0  0  0  0  0
   -3.6742    0.1151  -25.2680 C   0  0  0  0  0  0  0  0  0  0  0  0
   -3.1337   -1.4921  -27.1061 C   0  0  0  0  0  0  0  0  0  0  0  0
   -6.4379   -0.3235  -24.0626 N   0  0  0  0  0  0  0  0  0  0  0  0
   -7.5424    0.4734  -23.5197 C   0  0  2  0  0  0  0  0  0  0  0  0
   -7.1262    1.7848  -22.9968 C   0  0  0  0  0  0  0  0  0  0  0  0
   -7.4581    2.1287  -21.8451 O   0  0  0  0  0  0  0  0  0  0  0  0
   -7.8709   -0.3749  -22.2817 C   0  0  0  0  0  0  0  0  0  0  0  0
   -6.5254   -0.6595  -21.7104 C   0  0  0  0  0  0  0  0  0  0  0  0
   -5.6212   -0.7081  -22.9352 C   0  0  0  0  0  0  0  0  0  0  0  0
   -6.3454    2.7092  -23.7384 N   0  0  0  0  0  0  0  0  0  0  0  0
   -5.8785    3.9847  -23.2329 C   0  0  2  0  0  0  0  0  0  0  0  0
   -5.1156    4.7446  -24.2101 C   0  0  0  0  0  0  0  0  0  0  0  0
   -3.8712    4.5403  -24.3176 O   0  0  0  0  0  0  0  0  0  0  0  0
   -5.1698    3.8296  -21.9097 C   0  0  0  0  0  0  0  0  0  0  0  0
   -6.0176    4.1969  -20.7444 C   0  0  0  0  0  0  0  0  0  0  0  0
   -7.3332    4.6243  -20.9426 O   0  0  0  0  0  0  0  0  0  0  0  0
   -5.6056    4.1442  -19.5455 O   0  0  0  0  0  0  0  0  0  0  0  0
   -5.6545    5.6956  -25.0531 O   0  0  0  0  0  0  0  0  0  0  0  0
   -8.7945   -9.3282  -41.8662 H   0  0  0  0  0  0  0  0  0  0  0  0
  2  1  1  1
  2  3  1  0
  2  5  1  0
  3  4  2  0
  3 12  1  0
  5  6  1  0
  6  7  1  0
  7  8  1  0
  8  9  1  0
  9 10  2  0
  9 11  1  0
 12 13  1  0
 13 14  1  0
 13 16  1  6
 14 15  2  0
 14 24  1  0
 16 17  1  0
 17 18  2  0
 17 19  1  0
 18 20  1  0
 19 21  2  0
 20 22  2  0
 21 22  1  0
 22 23  1  0
 24 25  1  0
 25 26  1  0
 25 28  1  6
 26 27  2  0
 26 29  1  0
 30 29  1  6
 30 31  1  0
 30 33  1  0
 31 32  2  0
 31 36  1  0
 33 34  1  1
 33 35  1  0
 37 36  1  6
 37 38  1  0
 37 40  1  0
 38 39  2  0
 38 43  1  0
 40 41  1  1
 40 42  1  0
 43 44  1  0
 43 49  1  0
 44 45  1  1
 44 47  1  0
 45 46  2  0
 45 50  1  0
 47 48  1  0
 48 49  1  0
 50 51  1  0
 51 52  1  0
 51 54  1  1
 52 53  2  0
 52 58  1  0
 54 55  1  0
 55 56  1  0
 55 57  2  0
 10 59  1  0
M  CHG  1   1   1
M  END
$$$$
