
     RDKit          3D

 59 60  0  0  0  0  0  0  0  0999 V2000
    0.5010    0.4381  -25.9321 N   0  0  0  0  0  4  0  0  0  0  0  0
    0.4708   -0.9488  -25.6800 C   0  0  2  0  0  0  0  0  0  0  0  0
   -0.9949   -1.3232  -25.5309 C   0  0  0  0  0  0  0  0  0  0  0  0
   -1.2692   -2.4916  -25.1566 O   0  0  0  0  0  0  0  0  0  0  0  0
    1.1355   -1.5122  -24.4928 C   0  0  0  0  0  0  0  0  0  0  0  0
    2.5146   -2.0453  -24.5805 C   0  0  0  0  0  0  0  0  0  0  0  0
    3.2675   -1.5849  -25.7649 C   0  0  0  0  0  0  0  0  0  0  0  0
    4.6628   -1.2785  -25.4573 N   0  0  0  0  0  0  0  0  0  0  0  0
    5.1712   -1.4932  -24.1194 C   0  0  0  0  0  0  0  0  0  0  0  0
    4.4346   -1.9758  -23.2865 N   0  0  0  0  0  0  0  0  0  0  0  0
    6.5321   -1.1152  -23.8262 N   0  0  0  0  0  0  0  0  0  0  0  0
   -2.0285   -0.4026  -25.7966 N   0  0  0  0  0  0  0  0  0  0  0  0
   -2.9080    0.1648  -24.7967 C   0  0  2  0  0  0  0  0  0  0  0  0
   -3.8552    1.1580  -25.2852 C   0  0  0  0  0  0  0  0  0  0  0  0
   -3.3946    2.0476  -26.0739 O   0  0  0  0  0  0  0  0  0  0  0  0
   -2.2628    0.4642  -23.4696 C   0  0  0  0  0  0  0  0  0  0  0  0
   -2.4416    1.8660  -23.0817 C   0  0  0  0  0  0  0  0  0  0  0  0
   -3.0486    2.8483  -23.8120 C   0  0  0  0  0  0  0  0  0  0  0  0
   -1.9503    2.2621  -21.8280 C   0  0  0  0  0  0  0  0  0  0  0  0
   -3.1626    4.1620  -23.3191 C   0  0  0  0  0  0  0  0  0  0  0  0
   -2.0614    3.5388  -21.3511 C   0  0  0  0  0  0  0  0  0  0  0  0
   -2.6744    4.5216  -22.0925 C   0  0  0  0  0  0  0  0  0  0  0  0
   -2.8017    5.8303  -21.6282 O   0  0  0  0  0  0  0  0  0  0  0  0
   -5.2278    1.1998  -24.9428 N   0  0  0  0  0  0  0  0  0  0  0  0
   -6.2375    0.3421  -25.4448 C   0  0  2  0  0  0  0  0  0  0  0  0
   -5.9143   -0.6054  -26.4822 C   0  0  0  0  0  0  0  0  0  0  0  0
   -4.7084   -0.5989  -26.9230 O   0  0  0  0  0  0  0  0  0  0  0  0
   -7.4501    1.1720  -25.9461 C   0  0  0  0  0  0  0  0  0  0  0  0
   -6.7887   -1.5420  -27.0627 N   0  0  0  0  0  0  0  0  0  0  0  0
   -6.2320   -2.7470  -27.7309 C   0  0  2  0  0  0  0  0  0  0  0  0
   -7.2951   -3.5705  -28.3155 C   0  0  0  0  0  0  0  0  0  0  0  0
   -7.8031   -4.4923  -27.6235 O   0  0  0  0  0  0  0  0  0  0  0  0
   -5.4925   -3.4862  -26.6180 C   0  0  1  0  0  0  0  0  0  0  0  0
   -4.9082   -4.7928  -27.0355 C   0  0  0  0  0  0  0  0  0  0  0  0
   -4.4006   -2.6357  -26.0136 C   0  0  0  0  0  0  0  0  0  0  0  0
   -7.7332   -3.3084  -29.6547 N   0  0  0  0  0  0  0  0  0  0  0  0
   -8.8108   -4.0867  -30.1598 C   0  0  2  0  0  0  0  0  0  0  0  0
   -8.5269   -5.2728  -30.9498 C   0  0  0  0  0  0  0  0  0  0  0  0
   -7.5143   -5.2088  -31.7883 O   0  0  0  0  0  0  0  0  0  0  0  0
   -9.7499   -3.1513  -30.9867 C   0  0  1  0  0  0  0  0  0  0  0  0
  -10.9148   -3.9556  -31.5127 C   0  0  0  0  0  0  0  0  0  0  0  0
  -10.1698   -2.0356  -30.0941 C   0  0  0  0  0  0  0  0  0  0  0  0
   -9.1695   -6.5317  -30.9768 N   0  0  0  0  0  0  0  0  0  0  0  0
   -8.5447   -7.6896  -31.6238 C   0  0  2  0  0  0  0  0  0  0  0  0
   -9.2552   -8.1512  -32.8274 C   0  0  0  0  0  0  0  0  0  0  0  0
   -8.8985   -9.2025  -33.3951 O   0  0  0  0  0  0  0  0  0  0  0  0
   -8.8265   -8.7517  -30.5502 C   0  0  0  0  0  0  0  0  0  0  0  0
  -10.2538   -8.5025  -30.2064 C   0  0  0  0  0  0  0  0  0  0  0  0
  -10.4140   -7.0022  -30.4148 C   0  0  0  0  0  0  0  0  0  0  0  0
  -10.3549   -7.4593  -33.3986 N   0  0  0  0  0  0  0  0  0  0  0  0
  -11.0862   -7.8994  -34.5699 C   0  0  2  0  0  0  0  0  0  0  0  0
  -11.0496   -9.3404  -34.7612 C   0  0  0  0  0  0  0  0  0  0  0  0
  -10.3386  -10.0487  -33.9899 O   0  0  0  0  0  0  0  0  0  0  0  0
  -10.6826   -7.1221  -35.7987 C   0  0  0  0  0  0  0  0  0  0  0  0
  -10.7275   -5.6487  -35.6009 C   0  0  0  0  0  0  0  0  0  0  0  0
  -11.6133   -4.8685  -36.3488 O   0  0  0  0  0  0  0  0  0  0  0  0
   -9.9875   -5.0398  -34.7695 O   0  0  0  0  0  0  0  0  0  0  0  0
  -11.7475  -10.0157  -35.7421 O   0  0  0  0  0  0  0  0  0  0  0  0
    3.5747   -2.2339  -22.9043 H   0  0  0  0  0  0  0  0  0  0  0  0
  2  1  1  1
  2  3  1  0
  2  5  1  0
  3  4  2  0
  3 12  1  0
  5  6  1  0
  6  7  1  0
  7  8  1  0
  8  9  1  0
  9 10  2  0
  9 11  1  0
 12 13  1  0
 13 14  1  0
 13 16  1  1
 14 15  2  0
 14 24  1  0
 16 17  1  0
 17 18  2  0
 17 19  1  0
 18 20  1  0
 19 21  2  0
 20 22  2  0
 21 22  1  0
 22 23  1  0
 24 25  1  0
 25 26  1  0
 25 28  1  6
 26 27  2  0
 26 29  1  0
 30 29  1  1
 30 31  1  0
 30 33  1  0
 31 32  2  0
 31 36  1  0
 33 34  1  6
 33 35  1  0
 37 36  1  6
 37 38  1  0
 37 40  1  0
 38 39  2  0
 38 43  1  0
 40 41  1  1
 40 42  1  0
 43 44  1  0
 43 49  1  0
 44 45  1  6
 44 47  1  0
 45 46  2  0
 45 50  1  0
 47 48  1  0
 48 49  1  0
 50 51  1  0
 51 52  1  0
 51 54  1  6
 52 53  2  0
 52 58  1  0
 54 55  1  0
 55 56  1  0
 55 57  2  0
 10 59  1  0
M  CHG  1   1   1
M  END
$$$$
