
     RDKit          3D

 59 60  0  0  0  0  0  0  0  0999 V2000
   -1.1414    1.9633  -22.6282 N   0  0  0  0  0  4  0  0  0  0  0  0
   -2.4999    2.0704  -22.2665 C   0  0  2  0  0  0  0  0  0  0  0  0
   -3.2013    2.7401  -23.4370 C   0  0  0  0  0  0  0  0  0  0  0  0
   -4.0381    3.6435  -23.1836 O   0  0  0  0  0  0  0  0  0  0  0  0
   -2.9037    2.8447  -21.0806 C   0  0  0  0  0  0  0  0  0  0  0  0
   -4.3182    2.8728  -20.6422 C   0  0  0  0  0  0  0  0  0  0  0  0
   -4.6086    2.0104  -19.4787 C   0  0  0  0  0  0  0  0  0  0  0  0
   -6.0145    1.6177  -19.4097 N   0  0  0  0  0  0  0  0  0  0  0  0
   -6.4833    0.8021  -18.3100 C   0  0  0  0  0  0  0  0  0  0  0  0
   -7.0130   -0.2600  -18.5565 N   0  0  0  0  0  0  0  0  0  0  0  0
   -6.3111    1.2893  -16.9632 N   0  0  0  0  0  0  0  0  0  0  0  0
   -2.9336    2.3756  -24.7719 N   0  0  0  0  0  0  0  0  0  0  0  0
   -3.7481    2.7461  -25.9097 C   0  0  2  0  0  0  0  0  0  0  0  0
   -5.0148    2.0369  -26.0320 C   0  0  0  0  0  0  0  0  0  0  0  0
   -5.9570    2.4127  -25.2596 O   0  0  0  0  0  0  0  0  0  0  0  0
   -2.9934    2.9759  -27.1921 C   0  0  0  0  0  0  0  0  0  0  0  0
   -2.8779    4.4023  -27.5074 C   0  0  0  0  0  0  0  0  0  0  0  0
   -2.1828    5.3445  -26.8032 C   0  0  0  0  0  0  0  0  0  0  0  0
   -3.5384    4.8710  -28.6537 C   0  0  0  0  0  0  0  0  0  0  0  0
   -2.1454    6.6887  -27.2192 C   0  0  0  0  0  0  0  0  0  0  0  0
   -3.5013    6.1773  -29.0560 C   0  0  0  0  0  0  0  0  0  0  0  0
   -2.7988    7.1194  -28.3417 C   0  0  0  0  0  0  0  0  0  0  0  0
   -2.7443    8.4571  -28.7315 O   0  0  0  0  0  0  0  0  0  0  0  0
   -5.2599    0.9743  -26.9340 N   0  0  0  0  0  0  0  0  0  0  0  0
   -6.4765    0.2612  -27.0695 C   0  0  2  0  0  0  0  0  0  0  0  0
   -6.5574   -0.8362  -28.0010 C   0  0  0  0  0  0  0  0  0  0  0  0
   -7.4568   -0.7609  -28.9142 O   0  0  0  0  0  0  0  0  0  0  0  0
   -7.6374    1.2346  -27.4090 C   0  0  0  0  0  0  0  0  0  0  0  0
   -5.7470   -1.9859  -28.0128 N   0  0  0  0  0  0  0  0  0  0  0  0
   -5.4731   -2.6752  -29.3004 C   0  0  2  0  0  0  0  0  0  0  0  0
   -6.3504   -3.8363  -29.4800 C   0  0  0  0  0  0  0  0  0  0  0  0
   -6.2466   -4.5228  -30.5310 O   0  0  0  0  0  0  0  0  0  0  0  0
   -4.0057   -3.0861  -29.2024 C   0  0  1  0  0  0  0  0  0  0  0  0
   -3.6879   -3.9415  -28.0234 C   0  0  0  0  0  0  0  0  0  0  0  0
   -3.5390   -3.7902  -30.4544 C   0  0  0  0  0  0  0  0  0  0  0  0
   -7.3010   -4.1655  -28.4592 N   0  0  0  0  0  0  0  0  0  0  0  0
   -8.1235   -5.3066  -28.6676 C   0  0  2  0  0  0  0  0  0  0  0  0
   -7.9443   -6.1072  -29.8671 C   0  0  0  0  0  0  0  0  0  0  0  0
   -7.7322   -5.4622  -30.9946 O   0  0  0  0  0  0  0  0  0  0  0  0
   -9.6180   -4.8590  -28.5870 C   0  0  1  0  0  0  0  0  0  0  0  0
   -9.9581   -4.0397  -29.8093 C   0  0  0  0  0  0  0  0  0  0  0  0
  -10.4480   -6.0891  -28.4627 C   0  0  0  0  0  0  0  0  0  0  0  0
   -7.9563   -7.5099  -30.0432 N   0  0  0  0  0  0  0  0  0  0  0  0
   -7.6043   -8.1166  -31.3307 C   0  0  2  0  0  0  0  0  0  0  0  0
   -8.7322   -8.7861  -31.9987 C   0  0  0  0  0  0  0  0  0  0  0  0
   -9.7246   -9.1439  -31.3340 O   0  0  0  0  0  0  0  0  0  0  0  0
   -6.6964   -9.2492  -30.8276 C   0  0  0  0  0  0  0  0  0  0  0  0
   -7.4704   -9.8097  -29.6855 C   0  0  0  0  0  0  0  0  0  0  0  0
   -8.2208   -8.6030  -29.1371 C   0  0  0  0  0  0  0  0  0  0  0  0
   -8.7666   -9.0554  -33.3917 N   0  0  0  0  0  0  0  0  0  0  0  0
   -9.3919   -8.2003  -34.3806 C   0  0  2  0  0  0  0  0  0  0  0  0
   -9.3546   -8.7547  -35.7243 C   0  0  0  0  0  0  0  0  0  0  0  0
   -8.5770   -9.7219  -35.9728 O   0  0  0  0  0  0  0  0  0  0  0  0
   -8.8678   -6.7874  -34.3013 C   0  0  0  0  0  0  0  0  0  0  0  0
   -9.5284   -5.8628  -35.2607 C   0  0  0  0  0  0  0  0  0  0  0  0
   -9.1291   -4.5256  -35.3324 O   0  0  0  0  0  0  0  0  0  0  0  0
  -10.4608   -6.2261  -36.0407 O   0  0  0  0  0  0  0  0  0  0  0  0
  -10.1204   -8.2990  -36.7785 O   0  0  0  0  0  0  0  0  0  0  0  0
   -7.0458   -1.1861  -18.8619 H   0  0  0  0  0  0  0  0  0  0  0  0
  2  1  1  6
  2  3  1  0
  2  5  1  0
  3  4  2  0
  3 12  1  0
  5  6  1  0
  6  7  1  0
  7  8  1  0
  8  9  1  0
  9 10  2  0
  9 11  1  0
 12 13  1  0
 13 14  1  0
 13 16  1  6
 14 15  2  0
 14 24  1  0
 16 17  1  0
 17 18  2  0
 17 19  1  0
 18 20  1  0
 19 21  2  0
 20 22  2  0
 21 22  1  0
 22 23  1  0
 24 25  1  0
 25 26  1  0
 25 28  1  6
 26 27  2  0
 26 29  1  0
 30 29  1  1
 30 31  1  0
 30 33  1  0
 31 32  2  0
 31 36  1  0
 33 34  1  1
 33 35  1  0
 37 36  1  6
 37 38  1  0
 37 40  1  0
 38 39  2  0
 38 43  1  0
 40 41  1  6
 40 42  1  0
 43 44  1  0
 43 49  1  0
 44 45  1  1
 44 47  1  0
 45 46  2  0
 45 50  1  0
 47 48  1  0
 48 49  1  0
 50 51  1  0
 51 52  1  0
 51 54  1  6
 52 53  2  0
 52 58  1  0
 54 55  1  0
 55 56  1  0
 55 57  2  0
 10 59  1  0
M  CHG  1   1   1
M  END
$$$$
