
     RDKit          3D

 59 60  0  0  0  0  0  0  0  0999 V2000
   -3.0685    0.7169  -26.4982 N   0  0  0  0  0  4  0  0  0  0  0  0
   -2.4860    0.3010  -25.2834 C   0  0  2  0  0  0  0  0  0  0  0  0
   -3.5187   -0.5755  -24.5935 C   0  0  0  0  0  0  0  0  0  0  0  0
   -3.1663   -1.1987  -23.5601 O   0  0  0  0  0  0  0  0  0  0  0  0
   -2.0773    1.2870  -24.2688 C   0  0  0  0  0  0  0  0  0  0  0  0
   -1.3852    0.8563  -23.0321 C   0  0  0  0  0  0  0  0  0  0  0  0
   -0.9988    1.9659  -22.1369 C   0  0  0  0  0  0  0  0  0  0  0  0
   -2.1206    2.8474  -21.8211 N   0  0  0  0  0  0  0  0  0  0  0  0
   -2.0319    3.7546  -20.6970 C   0  0  0  0  0  0  0  0  0  0  0  0
   -2.9565    4.5083  -20.4819 N   0  0  0  0  0  0  0  0  0  0  0  0
   -0.8419    3.7339  -19.8819 N   0  0  0  0  0  0  0  0  0  0  0  0
   -4.8359   -0.6965  -25.0801 N   0  0  0  0  0  0  0  0  0  0  0  0
   -5.8485   -1.5652  -24.5185 C   0  0  2  0  0  0  0  0  0  0  0  0
   -7.1263   -1.5734  -25.2181 C   0  0  0  0  0  0  0  0  0  0  0  0
   -7.7474   -2.6861  -25.2607 O   0  0  0  0  0  0  0  0  0  0  0  0
   -5.9189   -1.5809  -23.0145 C   0  0  0  0  0  0  0  0  0  0  0  0
   -5.5925   -0.2725  -22.4410 C   0  0  0  0  0  0  0  0  0  0  0  0
   -4.4127    0.0972  -21.8595 C   0  0  0  0  0  0  0  0  0  0  0  0
   -6.5801    0.7238  -22.4889 C   0  0  0  0  0  0  0  0  0  0  0  0
   -4.2232    1.3959  -21.3506 C   0  0  0  0  0  0  0  0  0  0  0  0
   -6.3944    1.9846  -21.9934 C   0  0  0  0  0  0  0  0  0  0  0  0
   -5.2034    2.3487  -21.4101 C   0  0  0  0  0  0  0  0  0  0  0  0
   -4.9886    3.6281  -20.8988 O   0  0  0  0  0  0  0  0  0  0  0  0
   -7.7091   -0.4467  -25.8455 N   0  0  0  0  0  0  0  0  0  0  0  0
   -8.8356   -0.4620  -26.7045 C   0  0  2  0  0  0  0  0  0  0  0  0
   -8.6926   -0.9430  -28.0560 C   0  0  0  0  0  0  0  0  0  0  0  0
   -9.7300   -0.8808  -28.8100 O   0  0  0  0  0  0  0  0  0  0  0  0
   -9.4695    0.9528  -26.7883 C   0  0  0  0  0  0  0  0  0  0  0  0
   -7.5270   -1.4749  -28.6366 N   0  0  0  0  0  0  0  0  0  0  0  0
   -7.6273   -2.2538  -29.8981 C   0  0  2  0  0  0  0  0  0  0  0  0
   -8.1312   -3.6081  -29.6490 C   0  0  0  0  0  0  0  0  0  0  0  0
   -8.3828   -3.9574  -28.4653 O   0  0  0  0  0  0  0  0  0  0  0  0
   -6.2008   -2.2734  -30.4426 C   0  0  1  0  0  0  0  0  0  0  0  0
   -6.0131   -3.1503  -31.6336 C   0  0  0  0  0  0  0  0  0  0  0  0
   -5.7135   -0.8841  -30.7794 C   0  0  0  0  0  0  0  0  0  0  0  0
   -8.3285   -4.5004  -30.7531 N   0  0  0  0  0  0  0  0  0  0  0  0
   -9.1211   -5.6598  -30.5301 C   0  0  2  0  0  0  0  0  0  0  0  0
   -9.3196   -6.6088  -31.6126 C   0  0  0  0  0  0  0  0  0  0  0  0
  -10.5565   -6.9788  -31.8687 O   0  0  0  0  0  0  0  0  0  0  0  0
  -10.5201   -5.2070  -30.0027 C   0  0  1  0  0  0  0  0  0  0  0  0
  -11.5927   -6.0470  -30.6544 C   0  0  0  0  0  0  0  0  0  0  0  0
  -10.5027   -5.3354  -28.5192 C   0  0  0  0  0  0  0  0  0  0  0  0
   -8.3836   -7.2270  -32.4729 N   0  0  0  0  0  0  0  0  0  0  0  0
   -7.1685   -7.8564  -31.9464 C   0  0  2  0  0  0  0  0  0  0  0  0
   -5.9275   -7.1671  -32.3355 C   0  0  0  0  0  0  0  0  0  0  0  0
   -5.2308   -6.6042  -31.4680 O   0  0  0  0  0  0  0  0  0  0  0  0
   -7.1897   -9.1546  -32.7675 C   0  0  0  0  0  0  0  0  0  0  0  0
   -7.4983   -8.6708  -34.1417 C   0  0  0  0  0  0  0  0  0  0  0  0
   -8.3683   -7.4440  -33.9007 C   0  0  0  0  0  0  0  0  0  0  0  0
   -5.4563   -7.1027  -33.6727 N   0  0  0  0  0  0  0  0  0  0  0  0
   -4.1915   -6.5192  -34.0729 C   0  0  2  0  0  0  0  0  0  0  0  0
   -3.9794   -6.5405  -35.5113 C   0  0  0  0  0  0  0  0  0  0  0  0
   -4.8063   -7.1518  -36.2492 O   0  0  0  0  0  0  0  0  0  0  0  0
   -3.0408   -7.1017  -33.2896 C   0  0  0  0  0  0  0  0  0  0  0  0
   -2.9193   -6.5369  -31.9192 C   0  0  0  0  0  0  0  0  0  0  0  0
   -3.9268   -6.7617  -30.9773 O   0  0  0  0  0  0  0  0  0  0  0  0
   -1.9265   -5.8422  -31.5432 O   0  0  0  0  0  0  0  0  0  0  0  0
   -2.9209   -5.9303  -36.1535 O   0  0  0  0  0  0  0  0  0  0  0  0
   -3.8902    4.7475  -20.3303 H   0  0  0  0  0  0  0  0  0  0  0  0
  2  1  1  6
  2  3  1  0
  2  5  1  0
  3  4  2  0
  3 12  1  0
  5  6  1  0
  6  7  1  0
  7  8  1  0
  8  9  1  0
  9 10  2  0
  9 11  1  0
 12 13  1  0
 13 14  1  0
 13 16  1  1
 14 15  2  0
 14 24  1  0
 16 17  1  0
 17 18  2  0
 17 19  1  0
 18 20  1  0
 19 21  2  0
 20 22  2  0
 21 22  1  0
 22 23  1  0
 24 25  1  0
 25 26  1  0
 25 28  1  6
 26 27  2  0
 26 29  1  0
 30 29  1  1
 30 31  1  0
 30 33  1  0
 31 32  2  0
 31 36  1  0
 33 34  1  6
 33 35  1  0
 37 36  1  6
 37 38  1  0
 37 40  1  0
 38 39  2  0
 38 43  1  0
 40 41  1  6
 40 42  1  0
 43 44  1  0
 43 49  1  0
 44 45  1  6
 44 47  1  0
 45 46  2  0
 45 50  1  0
 47 48  1  0
 48 49  1  0
 50 51  1  0
 51 52  1  0
 51 54  1  1
 52 53  2  0
 52 58  1  0
 54 55  1  0
 55 56  1  0
 55 57  2  0
 10 59  1  0
M  CHG  1   1   1
M  END
$$$$
