
     RDKit          3D

 59 60  0  0  0  0  0  0  0  0999 V2000
   -2.5399    0.5825  -22.5271 N   0  0  0  0  0  4  0  0  0  0  0  0
   -3.5382    0.9572  -21.6047 C   0  0  2  0  0  0  0  0  0  0  0  0
   -4.8693    0.6218  -22.2575 C   0  0  0  0  0  0  0  0  0  0  0  0
   -5.9183    0.8278  -21.5957 O   0  0  0  0  0  0  0  0  0  0  0  0
   -3.6669    2.3561  -21.1628 C   0  0  0  0  0  0  0  0  0  0  0  0
   -2.6821    2.9468  -20.2274 C   0  0  0  0  0  0  0  0  0  0  0  0
   -2.2312    2.0275  -19.1629 C   0  0  0  0  0  0  0  0  0  0  0  0
   -2.2128    2.6612  -17.8463 N   0  0  0  0  0  0  0  0  0  0  0  0
   -0.9965    3.2741  -17.3569 C   0  0  0  0  0  0  0  0  0  0  0  0
   -0.9806    3.7181  -16.2291 N   0  0  0  0  0  0  0  0  0  0  0  0
    0.1468    3.3421  -18.2338 N   0  0  0  0  0  0  0  0  0  0  0  0
   -4.9463    0.0980  -23.5636 N   0  0  0  0  0  0  0  0  0  0  0  0
   -5.0903    0.8914  -24.7658 C   0  0  2  0  0  0  0  0  0  0  0  0
   -5.5798    0.1745  -25.9357 C   0  0  0  0  0  0  0  0  0  0  0  0
   -4.7298   -0.0675  -26.8547 O   0  0  0  0  0  0  0  0  0  0  0  0
   -3.9878    1.8863  -25.0144 C   0  0  0  0  0  0  0  0  0  0  0  0
   -4.2691    2.7304  -26.1788 C   0  0  0  0  0  0  0  0  0  0  0  0
   -3.3735    3.4903  -26.8769 C   0  0  0  0  0  0  0  0  0  0  0  0
   -5.5914    2.7728  -26.6477 C   0  0  0  0  0  0  0  0  0  0  0  0
   -3.7733    4.2553  -27.9889 C   0  0  0  0  0  0  0  0  0  0  0  0
   -5.9779    3.5170  -27.7277 C   0  0  0  0  0  0  0  0  0  0  0  0
   -5.0699    4.2787  -28.4252 C   0  0  0  0  0  0  0  0  0  0  0  0
   -5.4384    5.0450  -29.5304 O   0  0  0  0  0  0  0  0  0  0  0  0
   -6.9151   -0.2584  -26.1155 N   0  0  0  0  0  0  0  0  0  0  0  0
   -7.4941   -0.6875  -27.3351 C   0  0  2  0  0  0  0  0  0  0  0  0
   -7.0916   -1.9474  -27.9087 C   0  0  0  0  0  0  0  0  0  0  0  0
   -6.1114   -1.9242  -28.7377 O   0  0  0  0  0  0  0  0  0  0  0  0
   -7.3052    0.3946  -28.4323 C   0  0  0  0  0  0  0  0  0  0  0  0
   -7.6645   -3.2060  -27.6510 N   0  0  0  0  0  0  0  0  0  0  0  0
   -8.6326   -3.7820  -28.6202 C   0  0  2  0  0  0  0  0  0  0  0  0
   -8.0808   -3.7975  -29.9786 C   0  0  0  0  0  0  0  0  0  0  0  0
   -8.3481   -2.8438  -30.7567 O   0  0  0  0  0  0  0  0  0  0  0  0
   -9.8544   -2.8718  -28.5174 C   0  0  1  0  0  0  0  0  0  0  0  0
  -10.5010   -2.5666  -29.8257 C   0  0  0  0  0  0  0  0  0  0  0  0
  -10.8948   -3.4387  -27.5808 C   0  0  0  0  0  0  0  0  0  0  0  0
   -7.2506   -4.8912  -30.3891 N   0  0  0  0  0  0  0  0  0  0  0  0
   -6.6096   -4.7933  -31.6547 C   0  0  2  0  0  0  0  0  0  0  0  0
   -5.8882   -5.9398  -32.1810 C   0  0  0  0  0  0  0  0  0  0  0  0
   -4.8039   -6.3157  -31.5365 O   0  0  0  0  0  0  0  0  0  0  0  0
   -5.6414   -3.5677  -31.6239 C   0  0  1  0  0  0  0  0  0  0  0  0
   -4.8091   -3.5600  -32.8840 C   0  0  0  0  0  0  0  0  0  0  0  0
   -6.4741   -2.3427  -31.4700 C   0  0  0  0  0  0  0  0  0  0  0  0
   -6.1564   -6.7546  -33.3048 N   0  0  0  0  0  0  0  0  0  0  0  0
   -7.3606   -6.5555  -34.1171 C   0  0  2  0  0  0  0  0  0  0  0  0
   -8.3221   -7.6669  -34.0342 C   0  0  0  0  0  0  0  0  0  0  0  0
   -8.0010   -8.7988  -34.4472 O   0  0  0  0  0  0  0  0  0  0  0  0
   -6.7330   -6.6613  -35.5153 C   0  0  0  0  0  0  0  0  0  0  0  0
   -5.8491   -7.8533  -35.3908 C   0  0  0  0  0  0  0  0  0  0  0  0
   -5.4155   -7.8245  -33.9310 C   0  0  0  0  0  0  0  0  0  0  0  0
   -9.6280   -7.5312  -33.4953 N   0  0  0  0  0  0  0  0  0  0  0  0
  -10.5851   -8.6126  -33.3737 C   0  0  2  0  0  0  0  0  0  0  0  0
  -11.4344   -8.7615  -34.5447 C   0  0  0  0  0  0  0  0  0  0  0  0
  -12.6806   -8.9178  -34.3887 O   0  0  0  0  0  0  0  0  0  0  0  0
  -11.3584   -8.5245  -32.0809 C   0  0  0  0  0  0  0  0  0  0  0  0
  -12.1521   -9.7477  -31.7884 C   0  0  0  0  0  0  0  0  0  0  0  0
  -12.2216  -10.7789  -32.7289 O   0  0  0  0  0  0  0  0  0  0  0  0
  -12.7892   -9.9158  -30.7042 O   0  0  0  0  0  0  0  0  0  0  0  0
  -10.9781   -8.7444  -35.8473 O   0  0  0  0  0  0  0  0  0  0  0  0
   -1.3667    4.1138  -15.4251 H   0  0  0  0  0  0  0  0  0  0  0  0
  2  1  1  6
  2  3  1  0
  2  5  1  0
  3  4  2  0
  3 12  1  0
  5  6  1  0
  6  7  1  0
  7  8  1  0
  8  9  1  0
  9 10  2  0
  9 11  1  0
 12 13  1  0
 13 14  1  0
 13 16  1  6
 14 15  2  0
 14 24  1  0
 16 17  1  0
 17 18  2  0
 17 19  1  0
 18 20  1  0
 19 21  2  0
 20 22  2  0
 21 22  1  0
 22 23  1  0
 24 25  1  0
 25 26  1  0
 25 28  1  6
 26 27  2  0
 26 29  1  0
 30 29  1  1
 30 31  1  0
 30 33  1  0
 31 32  2  0
 31 36  1  0
 33 34  1  6
 33 35  1  0
 37 36  1  1
 37 38  1  0
 37 40  1  0
 38 39  2  0
 38 43  1  0
 40 41  1  6
 40 42  1  0
 43 44  1  0
 43 49  1  0
 44 45  1  1
 44 47  1  0
 45 46  2  0
 45 50  1  0
 47 48  1  0
 48 49  1  0
 50 51  1  0
 51 52  1  0
 51 54  1  1
 52 53  2  0
 52 58  1  0
 54 55  1  0
 55 56  1  0
 55 57  2  0
 10 59  1  0
M  CHG  1   1   1
M  END
$$$$
