
     RDKit          3D

 59 60  0  0  0  0  0  0  0  0999 V2000
   -6.3463   -2.2720  -22.2288 N   0  0  0  0  0  4  0  0  0  0  0  0
   -7.6531   -2.7695  -22.0475 C   0  0  2  0  0  0  0  0  0  0  0  0
   -8.5007   -1.5891  -21.6018 C   0  0  0  0  0  0  0  0  0  0  0  0
   -9.7096   -1.8016  -21.3296 O   0  0  0  0  0  0  0  0  0  0  0  0
   -7.9236   -3.8319  -21.0642 C   0  0  0  0  0  0  0  0  0  0  0  0
   -9.3141   -4.1803  -20.6914 C   0  0  0  0  0  0  0  0  0  0  0  0
   -9.6531   -3.8938  -19.2825 C   0  0  0  0  0  0  0  0  0  0  0  0
   -9.3556   -5.0163  -18.3955 N   0  0  0  0  0  0  0  0  0  0  0  0
  -10.3952   -5.5644  -17.5510 C   0  0  0  0  0  0  0  0  0  0  0  0
  -10.2669   -6.6925  -17.1264 N   0  0  0  0  0  0  0  0  0  0  0  0
  -11.5491   -4.7507  -17.2555 N   0  0  0  0  0  0  0  0  0  0  0  0
   -7.9660   -0.2901  -21.4884 N   0  0  0  0  0  0  0  0  0  0  0  0
   -6.7942    0.1864  -22.1922 C   0  0  2  0  0  0  0  0  0  0  0  0
   -6.5524   -0.4236  -23.4929 C   0  0  0  0  0  0  0  0  0  0  0  0
   -6.4306   -1.6926  -23.5152 O   0  0  0  0  0  0  0  0  0  0  0  0
   -5.5785    0.4152  -21.3338 C   0  0  0  0  0  0  0  0  0  0  0  0
   -4.8953    1.6645  -21.6803 C   0  0  0  0  0  0  0  0  0  0  0  0
   -5.2512    2.5505  -22.6576 C   0  0  0  0  0  0  0  0  0  0  0  0
   -3.7555    2.0105  -20.9378 C   0  0  0  0  0  0  0  0  0  0  0  0
   -4.5097    3.7251  -22.8856 C   0  0  0  0  0  0  0  0  0  0  0  0
   -3.0362    3.1517  -21.1611 C   0  0  0  0  0  0  0  0  0  0  0  0
   -3.4016    4.0386  -22.1466 C   0  0  0  0  0  0  0  0  0  0  0  0
   -2.6858    5.2096  -22.3932 O   0  0  0  0  0  0  0  0  0  0  0  0
   -6.4418    0.2901  -24.7099 N   0  0  0  0  0  0  0  0  0  0  0  0
   -6.1879   -0.2727  -25.9850 C   0  0  2  0  0  0  0  0  0  0  0  0
   -6.1365    0.5845  -27.1430 C   0  0  0  0  0  0  0  0  0  0  0  0
   -6.3329    1.8385  -26.9495 O   0  0  0  0  0  0  0  0  0  0  0  0
   -7.2148   -1.3955  -26.2934 C   0  0  0  0  0  0  0  0  0  0  0  0
   -5.8905    0.1861  -28.4694 N   0  0  0  0  0  0  0  0  0  0  0  0
   -4.7277    0.7532  -29.2005 C   0  0  2  0  0  0  0  0  0  0  0  0
   -4.5743    0.1328  -30.5202 C   0  0  0  0  0  0  0  0  0  0  0  0
   -4.0787   -1.0226  -30.5973 O   0  0  0  0  0  0  0  0  0  0  0  0
   -3.5338    0.4576  -28.2954 C   0  0  1  0  0  0  0  0  0  0  0  0
   -3.4170    1.3682  -27.1207 C   0  0  0  0  0  0  0  0  0  0  0  0
   -3.5465   -0.9707  -27.8046 C   0  0  0  0  0  0  0  0  0  0  0  0
   -4.9923    0.8500  -31.6885 N   0  0  0  0  0  0  0  0  0  0  0  0
   -5.0242    0.1410  -32.9208 C   0  0  2  0  0  0  0  0  0  0  0  0
   -3.7796   -0.1391  -33.6166 C   0  0  0  0  0  0  0  0  0  0  0  0
   -2.6602    0.1083  -32.9699 O   0  0  0  0  0  0  0  0  0  0  0  0
   -5.9822    0.8940  -33.8985 C   0  0  1  0  0  0  0  0  0  0  0  0
   -7.3601    0.2817  -33.8142 C   0  0  0  0  0  0  0  0  0  0  0  0
   -5.9626    2.3351  -33.5236 C   0  0  0  0  0  0  0  0  0  0  0  0
   -3.5500   -0.6513  -34.9141 N   0  0  0  0  0  0  0  0  0  0  0  0
   -2.9962   -1.9942  -35.1133 C   0  0  2  0  0  0  0  0  0  0  0  0
   -1.6452   -1.9977  -35.6977 C   0  0  0  0  0  0  0  0  0  0  0  0
   -0.8332   -2.8895  -35.3812 O   0  0  0  0  0  0  0  0  0  0  0  0
   -3.9278   -2.4794  -36.2344 C   0  0  0  0  0  0  0  0  0  0  0  0
   -3.9657   -1.3131  -37.1596 C   0  0  0  0  0  0  0  0  0  0  0  0
   -3.8039   -0.1164  -36.2314 C   0  0  0  0  0  0  0  0  0  0  0  0
   -1.1944   -1.0256  -36.6283 N   0  0  0  0  0  0  0  0  0  0  0  0
   -1.1508   -1.2181  -38.0641 C   0  0  2  0  0  0  0  0  0  0  0  0
   -0.7009   -2.5456  -38.4515 C   0  0  0  0  0  0  0  0  0  0  0  0
   -0.0672   -3.2524  -37.6145 O   0  0  0  0  0  0  0  0  0  0  0  0
   -0.3942   -0.1063  -38.7487 C   0  0  0  0  0  0  0  0  0  0  0  0
   -0.2130   -0.3327  -40.2074 C   0  0  0  0  0  0  0  0  0  0  0  0
   -0.6358   -1.5315  -40.7878 O   0  0  0  0  0  0  0  0  0  0  0  0
    0.3187    0.5226  -40.9790 O   0  0  0  0  0  0  0  0  0  0  0  0
   -0.9163   -3.1118  -39.6918 O   0  0  0  0  0  0  0  0  0  0  0  0
   -9.8267   -7.4117  -16.6354 H   0  0  0  0  0  0  0  0  0  0  0  0
  2  1  1  1
  2  3  1  0
  2  5  1  0
  3  4  2  0
  3 12  1  0
  5  6  1  0
  6  7  1  0
  7  8  1  0
  8  9  1  0
  9 10  2  0
  9 11  1  0
 12 13  1  0
 13 14  1  0
 13 16  1  1
 14 15  2  0
 14 24  1  0
 16 17  1  0
 17 18  2  0
 17 19  1  0
 18 20  1  0
 19 21  2  0
 20 22  2  0
 21 22  1  0
 22 23  1  0
 24 25  1  0
 25 26  1  0
 25 28  1  6
 26 27  2  0
 26 29  1  0
 30 29  1  1
 30 31  1  0
 30 33  1  0
 31 32  2  0
 31 36  1  0
 33 34  1  1
 33 35  1  0
 37 36  1  1
 37 38  1  0
 37 40  1  0
 38 39  2  0
 38 43  1  0
 40 41  1  1
 40 42  1  0
 43 44  1  0
 43 49  1  0
 44 45  1  6
 44 47  1  0
 45 46  2  0
 45 50  1  0
 47 48  1  0
 48 49  1  0
 50 51  1  0
 51 52  1  0
 51 54  1  6
 52 53  2  0
 52 58  1  0
 54 55  1  0
 55 56  1  0
 55 57  2  0
 10 59  1  0
M  CHG  1   1   1
M  END
$$$$
