
     RDKit          3D

 59 60  0  0  0  0  0  0  0  0999 V2000
   -1.7083    0.9434  -21.3245 N   0  0  0  0  0  4  0  0  0  0  0  0
   -1.6006    2.0574  -22.1821 C   0  0  2  0  0  0  0  0  0  0  0  0
   -2.3284    1.6817  -23.4625 C   0  0  0  0  0  0  0  0  0  0  0  0
   -1.7548    0.8935  -24.2565 O   0  0  0  0  0  0  0  0  0  0  0  0
   -0.2816    2.5466  -22.6174 C   0  0  0  0  0  0  0  0  0  0  0  0
   -0.1600    3.8003  -23.3966 C   0  0  0  0  0  0  0  0  0  0  0  0
   -0.2921    5.0302  -22.5893 C   0  0  0  0  0  0  0  0  0  0  0  0
    0.2045    6.2142  -23.2870 N   0  0  0  0  0  0  0  0  0  0  0  0
    1.3776    6.1171  -24.1290 C   0  0  0  0  0  0  0  0  0  0  0  0
    1.5985    7.0039  -24.9254 N   0  0  0  0  0  0  0  0  0  0  0  0
    2.2334    4.9636  -23.9950 N   0  0  0  0  0  0  0  0  0  0  0  0
   -3.6079    2.1884  -23.7669 N   0  0  0  0  0  0  0  0  0  0  0  0
   -4.3605    1.8707  -24.9619 C   0  0  2  0  0  0  0  0  0  0  0  0
   -4.9783    0.5514  -24.9820 C   0  0  0  0  0  0  0  0  0  0  0  0
   -5.1141   -0.0332  -23.8571 O   0  0  0  0  0  0  0  0  0  0  0  0
   -3.7369    2.3276  -26.2540 C   0  0  0  0  0  0  0  0  0  0  0  0
   -3.4434    3.7632  -26.2386 C   0  0  0  0  0  0  0  0  0  0  0  0
   -4.3337    4.7806  -26.0408 C   0  0  0  0  0  0  0  0  0  0  0  0
   -2.1114    4.1573  -26.4401 C   0  0  0  0  0  0  0  0  0  0  0  0
   -3.9194    6.1260  -26.0424 C   0  0  0  0  0  0  0  0  0  0  0  0
   -1.7110    5.4648  -26.4418 C   0  0  0  0  0  0  0  0  0  0  0  0
   -2.6135    6.4829  -26.2414 C   0  0  0  0  0  0  0  0  0  0  0  0
   -2.2303    7.8236  -26.2372 O   0  0  0  0  0  0  0  0  0  0  0  0
   -5.4250   -0.1118  -26.1497 N   0  0  0  0  0  0  0  0  0  0  0  0
   -6.2313   -1.2760  -26.1889 C   0  0  2  0  0  0  0  0  0  0  0  0
   -6.6167   -1.8312  -27.4624 C   0  0  0  0  0  0  0  0  0  0  0  0
   -7.5772   -1.2500  -28.0854 O   0  0  0  0  0  0  0  0  0  0  0  0
   -7.5340   -1.0579  -25.3730 C   0  0  0  0  0  0  0  0  0  0  0  0
   -6.0445   -2.9491  -28.0961 N   0  0  0  0  0  0  0  0  0  0  0  0
   -6.4203   -3.2679  -29.4980 C   0  0  2  0  0  0  0  0  0  0  0  0
   -7.4769   -4.2834  -29.5483 C   0  0  0  0  0  0  0  0  0  0  0  0
   -7.4638   -5.2197  -28.7059 O   0  0  0  0  0  0  0  0  0  0  0  0
   -5.1241   -3.7700  -30.1300 C   0  0  1  0  0  0  0  0  0  0  0  0
   -4.6852   -5.1090  -29.6430 C   0  0  0  0  0  0  0  0  0  0  0  0
   -5.2163   -3.8064  -31.6371 C   0  0  0  0  0  0  0  0  0  0  0  0
   -8.4988   -4.1877  -30.5486 N   0  0  0  0  0  0  0  0  0  0  0  0
   -9.4660   -5.2286  -30.6044 C   0  0  2  0  0  0  0  0  0  0  0  0
   -9.3230   -6.2849  -31.5921 C   0  0  0  0  0  0  0  0  0  0  0  0
   -9.0259   -5.9221  -32.8219 O   0  0  0  0  0  0  0  0  0  0  0  0
  -10.8783   -4.5814  -30.7691 C   0  0  1  0  0  0  0  0  0  0  0  0
  -11.9176   -5.6732  -30.8623 C   0  0  0  0  0  0  0  0  0  0  0  0
  -11.0927   -3.6725  -29.6091 C   0  0  0  0  0  0  0  0  0  0  0  0
   -9.4499   -7.6867  -31.4600 N   0  0  0  0  0  0  0  0  0  0  0  0
   -8.4463   -8.5963  -32.0214 C   0  0  2  0  0  0  0  0  0  0  0  0
   -8.9483   -9.4191  -33.1338 C   0  0  0  0  0  0  0  0  0  0  0  0
   -8.2538  -10.3547  -33.5778 O   0  0  0  0  0  0  0  0  0  0  0  0
   -8.2982   -9.5601  -30.8343 C   0  0  0  0  0  0  0  0  0  0  0  0
   -9.7111   -9.8192  -30.4414 C   0  0  0  0  0  0  0  0  0  0  0  0
  -10.4219   -8.5176  -30.7887 C   0  0  0  0  0  0  0  0  0  0  0  0
  -10.2103   -9.2135  -33.7497 N   0  0  0  0  0  0  0  0  0  0  0  0
  -10.3982   -8.8368  -35.1365 C   0  0  2  0  0  0  0  0  0  0  0  0
   -9.6819   -9.6951  -36.0663 C   0  0  0  0  0  0  0  0  0  0  0  0
   -8.9413  -10.6159  -35.6128 O   0  0  0  0  0  0  0  0  0  0  0  0
  -10.1315   -7.3672  -35.3517 C   0  0  0  0  0  0  0  0  0  0  0  0
  -11.1098   -6.4866  -34.6593 C   0  0  0  0  0  0  0  0  0  0  0  0
  -10.9863   -5.0975  -34.7474 O   0  0  0  0  0  0  0  0  0  0  0  0
  -12.0782   -6.9345  -33.9728 O   0  0  0  0  0  0  0  0  0  0  0  0
   -9.7475   -9.5837  -37.4406 O   0  0  0  0  0  0  0  0  0  0  0  0
    1.8150    7.3781  -25.8001 H   0  0  0  0  0  0  0  0  0  0  0  0
  2  1  1  1
  2  3  1  0
  2  5  1  0
  3  4  2  0
  3 12  1  0
  5  6  1  0
  6  7  1  0
  7  8  1  0
  8  9  1  0
  9 10  2  0
  9 11  1  0
 12 13  1  0
 13 14  1  0
 13 16  1  6
 14 15  2  0
 14 24  1  0
 16 17  1  0
 17 18  2  0
 17 19  1  0
 18 20  1  0
 19 21  2  0
 20 22  2  0
 21 22  1  0
 22 23  1  0
 24 25  1  0
 25 26  1  0
 25 28  1  1
 26 27  2  0
 26 29  1  0
 30 29  1  1
 30 31  1  0
 30 33  1  0
 31 32  2  0
 31 36  1  0
 33 34  1  1
 33 35  1  0
 37 36  1  6
 37 38  1  0
 37 40  1  0
 38 39  2  0
 38 43  1  0
 40 41  1  1
 40 42  1  0
 43 44  1  0
 43 49  1  0
 44 45  1  6
 44 47  1  0
 45 46  2  0
 45 50  1  0
 47 48  1  0
 48 49  1  0
 50 51  1  0
 51 52  1  0
 51 54  1  1
 52 53  2  0
 52 58  1  0
 54 55  1  0
 55 56  1  0
 55 57  2  0
 10 59  1  0
M  CHG  1   1   1
M  END
$$$$
