
     RDKit          3D

 59 60  0  0  0  0  0  0  0  0999 V2000
   -1.7478    1.9854  -26.9526 N   0  0  0  0  0  4  0  0  0  0  0  0
   -1.1190    1.3601  -25.8564 C   0  0  2  0  0  0  0  0  0  0  0  0
   -2.1707    0.4724  -25.2112 C   0  0  0  0  0  0  0  0  0  0  0  0
   -1.8431   -0.7026  -24.9066 O   0  0  0  0  0  0  0  0  0  0  0  0
   -0.5599    2.1599  -24.7535 C   0  0  0  0  0  0  0  0  0  0  0  0
    0.6612    1.7168  -24.0421 C   0  0  0  0  0  0  0  0  0  0  0  0
    0.5237    1.6742  -22.5720 C   0  0  0  0  0  0  0  0  0  0  0  0
    1.0031    0.4176  -22.0008 N   0  0  0  0  0  0  0  0  0  0  0  0
    2.3772    0.3020  -21.5613 C   0  0  0  0  0  0  0  0  0  0  0  0
    3.0814   -0.5454  -22.0665 N   0  0  0  0  0  0  0  0  0  0  0  0
    2.8527    1.1932  -20.5315 N   0  0  0  0  0  0  0  0  0  0  0  0
   -3.4767    0.9343  -24.9519 N   0  0  0  0  0  0  0  0  0  0  0  0
   -4.6459    0.0885  -24.8382 C   0  0  2  0  0  0  0  0  0  0  0  0
   -4.7246   -1.0052  -25.7975 C   0  0  0  0  0  0  0  0  0  0  0  0
   -4.5447   -0.7042  -27.0233 O   0  0  0  0  0  0  0  0  0  0  0  0
   -5.9358    0.8109  -24.5530 C   0  0  0  0  0  0  0  0  0  0  0  0
   -5.7879    1.7781  -23.4621 C   0  0  0  0  0  0  0  0  0  0  0  0
   -5.8713    1.5230  -22.1225 C   0  0  0  0  0  0  0  0  0  0  0  0
   -5.5260    3.1132  -23.8072 C   0  0  0  0  0  0  0  0  0  0  0  0
   -5.7017    2.5463  -21.1708 C   0  0  0  0  0  0  0  0  0  0  0  0
   -5.3621    4.1060  -22.8814 C   0  0  0  0  0  0  0  0  0  0  0  0
   -5.4471    3.8406  -21.5347 C   0  0  0  0  0  0  0  0  0  0  0  0
   -5.2824    4.8348  -20.5709 O   0  0  0  0  0  0  0  0  0  0  0  0
   -4.9875   -2.3546  -25.4616 N   0  0  0  0  0  0  0  0  0  0  0  0
   -6.0363   -3.1527  -25.9813 C   0  0  2  0  0  0  0  0  0  0  0  0
   -6.3883   -3.0444  -27.3752 C   0  0  0  0  0  0  0  0  0  0  0  0
   -7.0358   -1.9951  -27.7334 O   0  0  0  0  0  0  0  0  0  0  0  0
   -7.3376   -2.9330  -25.1636 C   0  0  0  0  0  0  0  0  0  0  0  0
   -6.0924   -3.9744  -28.3883 N   0  0  0  0  0  0  0  0  0  0  0  0
   -6.5188   -3.6964  -29.7844 C   0  0  2  0  0  0  0  0  0  0  0  0
   -7.6538   -4.5399  -30.1724 C   0  0  0  0  0  0  0  0  0  0  0  0
   -8.1495   -4.4045  -31.3224 O   0  0  0  0  0  0  0  0  0  0  0  0
   -5.2789   -3.9973  -30.6234 C   0  0  1  0  0  0  0  0  0  0  0  0
   -5.5284   -4.0299  -32.0929 C   0  0  0  0  0  0  0  0  0  0  0  0
   -4.1636   -3.0190  -30.3406 C   0  0  0  0  0  0  0  0  0  0  0  0
   -8.1707   -5.4978  -29.2401 N   0  0  0  0  0  0  0  0  0  0  0  0
   -9.1423   -6.4214  -29.7145 C   0  0  2  0  0  0  0  0  0  0  0  0
   -8.9933   -6.9976  -31.0402 C   0  0  0  0  0  0  0  0  0  0  0  0
   -8.8229   -6.1625  -32.0432 O   0  0  0  0  0  0  0  0  0  0  0  0
  -10.5494   -5.7495  -29.6195 C   0  0  1  0  0  0  0  0  0  0  0  0
  -11.6163   -6.8129  -29.7274 C   0  0  0  0  0  0  0  0  0  0  0  0
  -10.6027   -5.0014  -28.3329 C   0  0  0  0  0  0  0  0  0  0  0  0
   -8.9974   -8.3480  -31.4585 N   0  0  0  0  0  0  0  0  0  0  0  0
   -8.7324   -8.7115  -32.8540 C   0  0  2  0  0  0  0  0  0  0  0  0
   -9.8964   -9.2852  -33.5485 C   0  0  0  0  0  0  0  0  0  0  0  0
  -10.8218   -9.7999  -32.8899 O   0  0  0  0  0  0  0  0  0  0  0  0
   -7.7732   -9.8889  -32.6225 C   0  0  0  0  0  0  0  0  0  0  0  0
   -8.4524  -10.6607  -31.5451 C   0  0  0  0  0  0  0  0  0  0  0  0
   -9.1781   -9.5889  -30.7421 C   0  0  0  0  0  0  0  0  0  0  0  0
  -10.0404   -9.2876  -34.9604 N   0  0  0  0  0  0  0  0  0  0  0  0
  -11.2942   -9.0929  -35.6606 C   0  0  2  0  0  0  0  0  0  0  0  0
  -11.1852   -9.2881  -37.0975 C   0  0  0  0  0  0  0  0  0  0  0  0
  -12.2375   -9.3062  -37.8006 O   0  0  0  0  0  0  0  0  0  0  0  0
  -11.9420   -7.7836  -35.2819 C   0  0  0  0  0  0  0  0  0  0  0  0
  -13.2728   -7.5837  -35.9150 C   0  0  0  0  0  0  0  0  0  0  0  0
  -13.9459   -6.3688  -35.7614 O   0  0  0  0  0  0  0  0  0  0  0  0
  -13.8509   -8.4769  -36.6061 O   0  0  0  0  0  0  0  0  0  0  0  0
   -9.9943   -9.4586  -37.7741 O   0  0  0  0  0  0  0  0  0  0  0  0
    3.7735   -0.8831  -22.6656 H   0  0  0  0  0  0  0  0  0  0  0  0
  2  1  1  6
  2  3  1  0
  2  5  1  0
  3  4  2  0
  3 12  1  0
  5  6  1  0
  6  7  1  0
  7  8  1  0
  8  9  1  0
  9 10  2  0
  9 11  1  0
 12 13  1  0
 13 14  1  0
 13 16  1  6
 14 15  2  0
 14 24  1  0
 16 17  1  0
 17 18  2  0
 17 19  1  0
 18 20  1  0
 19 21  2  0
 20 22  2  0
 21 22  1  0
 22 23  1  0
 24 25  1  0
 25 26  1  0
 25 28  1  1
 26 27  2  0
 26 29  1  0
 30 29  1  1
 30 31  1  0
 30 33  1  0
 31 32  2  0
 31 36  1  0
 33 34  1  6
 33 35  1  0
 37 36  1  6
 37 38  1  0
 37 40  1  0
 38 39  2  0
 38 43  1  0
 40 41  1  1
 40 42  1  0
 43 44  1  0
 43 49  1  0
 44 45  1  1
 44 47  1  0
 45 46  2  0
 45 50  1  0
 47 48  1  0
 48 49  1  0
 50 51  1  0
 51 52  1  0
 51 54  1  6
 52 53  2  0
 52 58  1  0
 54 55  1  0
 55 56  1  0
 55 57  2  0
 10 59  1  0
M  CHG  1   1   1
M  END
$$$$
