
     RDKit          3D

 59 60  0  0  0  0  0  0  0  0999 V2000
   -0.3284    1.5142  -23.8576 N   0  0  0  0  0  4  0  0  0  0  0  0
   -1.4307    1.7392  -24.7075 C   0  0  2  0  0  0  0  0  0  0  0  0
   -2.4590    0.6741  -24.3631 C   0  0  0  0  0  0  0  0  0  0  0  0
   -2.9604    0.0124  -25.3073 O   0  0  0  0  0  0  0  0  0  0  0  0
   -1.2788    1.6701  -26.1706 C   0  0  0  0  0  0  0  0  0  0  0  0
   -2.3567    2.1502  -27.0659 C   0  0  0  0  0  0  0  0  0  0  0  0
   -2.8094    1.1531  -28.0572 C   0  0  0  0  0  0  0  0  0  0  0  0
   -2.3620   -0.2002  -27.7348 N   0  0  0  0  0  0  0  0  0  0  0  0
   -3.2309   -1.3285  -27.9925 C   0  0  0  0  0  0  0  0  0  0  0  0
   -3.4604   -1.6368  -29.1421 N   0  0  0  0  0  0  0  0  0  0  0  0
   -3.7985   -2.0365  -26.8711 N   0  0  0  0  0  0  0  0  0  0  0  0
   -2.8493    0.4193  -23.0331 N   0  0  0  0  0  0  0  0  0  0  0  0
   -4.0845    0.8754  -22.4317 C   0  0  2  0  0  0  0  0  0  0  0  0
   -5.3035    0.3185  -23.0031 C   0  0  0  0  0  0  0  0  0  0  0  0
   -6.2918    0.1737  -22.2106 O   0  0  0  0  0  0  0  0  0  0  0  0
   -4.1272    2.3398  -22.0842 C   0  0  0  0  0  0  0  0  0  0  0  0
   -4.8382    2.5797  -20.8255 C   0  0  0  0  0  0  0  0  0  0  0  0
   -5.3412    3.7699  -20.3814 C   0  0  0  0  0  0  0  0  0  0  0  0
   -5.0407    1.4831  -19.9732 C   0  0  0  0  0  0  0  0  0  0  0  0
   -6.0144    3.8653  -19.1488 C   0  0  0  0  0  0  0  0  0  0  0  0
   -5.6944    1.5779  -18.7759 C   0  0  0  0  0  0  0  0  0  0  0  0
   -6.1982    2.7797  -18.3365 C   0  0  0  0  0  0  0  0  0  0  0  0
   -6.8697    2.9023  -17.1205 O   0  0  0  0  0  0  0  0  0  0  0  0
   -5.4560   -0.0688  -24.3557 N   0  0  0  0  0  0  0  0  0  0  0  0
   -5.0754    0.6931  -25.4877 C   0  0  2  0  0  0  0  0  0  0  0  0
   -5.4514    0.2449  -26.8054 C   0  0  0  0  0  0  0  0  0  0  0  0
   -5.4504    1.1228  -27.7424 O   0  0  0  0  0  0  0  0  0  0  0  0
   -3.5381    0.9094  -25.5006 C   0  0  0  0  0  0  0  0  0  0  0  0
   -5.8198   -1.0622  -27.1719 N   0  0  0  0  0  0  0  0  0  0  0  0
   -6.9396   -1.2666  -28.1271 C   0  0  2  0  0  0  0  0  0  0  0  0
   -7.2715   -2.6885  -28.2620 C   0  0  0  0  0  0  0  0  0  0  0  0
   -6.8034   -3.5063  -27.4262 O   0  0  0  0  0  0  0  0  0  0  0  0
   -6.4262   -0.6796  -29.4399 C   0  0  1  0  0  0  0  0  0  0  0  0
   -7.4062   -0.7412  -30.5617 C   0  0  0  0  0  0  0  0  0  0  0  0
   -5.9696    0.7500  -29.2705 C   0  0  0  0  0  0  0  0  0  0  0  0
   -8.1199   -3.1150  -29.3356 N   0  0  0  0  0  0  0  0  0  0  0  0
   -8.6493   -4.4333  -29.2734 C   0  0  2  0  0  0  0  0  0  0  0  0
   -9.5788   -4.8792  -30.2976 C   0  0  0  0  0  0  0  0  0  0  0  0
  -10.5983   -4.0920  -30.5684 O   0  0  0  0  0  0  0  0  0  0  0  0
   -9.3172   -4.6314  -27.8752 C   0  0  1  0  0  0  0  0  0  0  0  0
   -8.3096   -4.3195  -26.7943 C   0  0  0  0  0  0  0  0  0  0  0  0
  -10.5168   -3.7505  -27.8230 C   0  0  0  0  0  0  0  0  0  0  0  0
   -9.5806   -6.0529  -31.0856 N   0  0  0  0  0  0  0  0  0  0  0  0
   -8.3439   -6.7976  -31.3417 C   0  0  2  0  0  0  0  0  0  0  0  0
   -7.9131   -6.7655  -32.7488 C   0  0  0  0  0  0  0  0  0  0  0  0
   -8.7486   -6.5546  -33.6501 O   0  0  0  0  0  0  0  0  0  0  0  0
   -8.8635   -8.2239  -31.1057 C   0  0  0  0  0  0  0  0  0  0  0  0
  -10.1555   -8.2310  -31.8464 C   0  0  0  0  0  0  0  0  0  0  0  0
  -10.6414   -6.7922  -31.7292 C   0  0  0  0  0  0  0  0  0  0  0  0
   -6.5684   -6.9607  -33.1586 N   0  0  0  0  0  0  0  0  0  0  0  0
   -5.6094   -5.8952  -33.3713 C   0  0  2  0  0  0  0  0  0  0  0  0
   -4.2914   -6.3772  -33.7521 C   0  0  0  0  0  0  0  0  0  0  0  0
   -3.4466   -5.5607  -34.2228 O   0  0  0  0  0  0  0  0  0  0  0  0
   -5.5822   -4.9346  -32.2078 C   0  0  0  0  0  0  0  0  0  0  0  0
   -5.7878   -3.5183  -32.6124 C   0  0  0  0  0  0  0  0  0  0  0  0
   -6.4524   -3.2202  -33.8049 O   0  0  0  0  0  0  0  0  0  0  0  0
   -5.3834   -2.5356  -31.9193 O   0  0  0  0  0  0  0  0  0  0  0  0
   -3.8765   -7.6887  -33.6373 O   0  0  0  0  0  0  0  0  0  0  0  0
   -3.2325   -1.8525  -30.0660 H   0  0  0  0  0  0  0  0  0  0  0  0
  2  1  1  1
  2  3  1  0
  2  5  1  0
  3  4  2  0
  3 12  1  0
  5  6  1  0
  6  7  1  0
  7  8  1  0
  8  9  1  0
  9 10  2  0
  9 11  1  0
 12 13  1  0
 13 14  1  0
 13 16  1  6
 14 15  2  0
 14 24  1  0
 16 17  1  0
 17 18  2  0
 17 19  1  0
 18 20  1  0
 19 21  2  0
 20 22  2  0
 21 22  1  0
 22 23  1  0
 24 25  1  0
 25 26  1  0
 25 28  1  6
 26 27  2  0
 26 29  1  0
 30 29  1  1
 30 31  1  0
 30 33  1  0
 31 32  2  0
 31 36  1  0
 33 34  1  6
 33 35  1  0
 37 36  1  6
 37 38  1  0
 37 40  1  0
 38 39  2  0
 38 43  1  0
 40 41  1  1
 40 42  1  0
 43 44  1  0
 43 49  1  0
 44 45  1  6
 44 47  1  0
 45 46  2  0
 45 50  1  0
 47 48  1  0
 48 49  1  0
 50 51  1  0
 51 52  1  0
 51 54  1  1
 52 53  2  0
 52 58  1  0
 54 55  1  0
 55 56  1  0
 55 57  2  0
 10 59  1  0
M  CHG  1   1   1
M  END
$$$$
