
     RDKit          3D

 27 28  0  0  0  0  0  0  0  0999 V2000
   23.4782   -6.6415   47.9020 C   0  0  0  0  0  0  0  0  0  0  0  0
   22.8140   -6.7242   46.5436 C   0  0  0  0  0  0  0  0  0  0  0  0
   23.7968   -7.1883   45.4875 C   0  0  0  0  0  0  0  0  0  0  0  0
   22.9811   -7.5708   44.2657 C   0  0  0  0  0  0  0  0  0  0  0  0
   23.8310   -7.4653   43.0025 C   0  0  0  0  0  0  0  0  0  0  0  0
   22.9236   -7.3067   41.7826 C   0  0  0  0  0  0  0  0  0  0  0  0
   23.7981   -6.7488   40.6798 C   0  0  2  0  0  0  0  0  0  0  0  0
   24.5558   -5.5744   41.2421 C   0  0  0  0  0  0  0  0  0  0  0  0
   22.9134   -6.2398   39.5619 C   0  0  0  0  0  0  0  0  0  0  0  0
   24.7197   -7.8043   40.1454 C   0  0  0  0  0  0  0  0  0  0  0  0
   25.9755   -7.5341   39.7057 C   0  0  0  0  0  0  0  0  0  0  0  0
   26.7731   -8.5677   39.2230 C   0  0  0  0  0  0  0  0  0  0  0  0
   26.3288   -9.8683   39.1753 C   0  0  0  0  0  0  0  0  0  0  0  0
   27.1396  -10.9762   38.6844 C   0  0  2  0  0  0  0  0  0  0  0  0
   28.3474  -11.1038   39.5891 C   0  0  0  0  0  0  0  0  0  0  0  0
   29.0715  -12.4055   39.2980 C   0  0  1  0  0  0  0  0  0  0  0  0
   28.4770  -13.0681   38.0794 C   0  0  0  0  0  0  0  0  0  0  0  0
   28.3257  -12.1029   36.9207 C   0  0  0  0  0  0  0  0  0  0  0  0
   27.6592  -10.7951   37.2586 C   0  0  1  0  0  0  0  0  0  0  0  0
   26.5353  -10.4966   36.3373 C   0  0  0  0  0  0  0  0  0  0  0  0
   26.7420  -10.8016   34.9148 C   0  0  0  0  0  0  0  0  0  0  0  0
   26.2136   -9.8831   33.8645 C   0  0  0  0  0  0  0  0  0  0  0  0
   25.0520  -10.1195   39.6264 C   0  0  0  0  0  0  0  0  0  0  0  0
   24.2411   -9.0924   40.1131 C   0  0  0  0  0  0  0  0  0  0  0  0
   30.4286  -12.2191   39.1377 O   0  0  0  0  0  0  0  0  0  0  0  0
   27.1038   -8.7507   33.7529 O   0  0  0  0  0  0  0  0  0  0  0  0
   24.4968  -11.3907   39.6265 O   0  0  0  0  0  0  0  0  0  0  0  0
  1  2  1  0
  2  3  1  0
  3  4  1  0
  4  5  1  0
  5  6  1  0
  6  7  1  0
  7  8  1  1
  7  9  1  0
  7 10  1  0
 10 11  2  0
 10 24  1  0
 11 12  1  0
 12 13  2  0
 14 13  1  1
 13 23  1  0
 14 15  1  0
 14 19  1  0
 15 16  1  0
 16 17  1  0
 16 25  1  6
 17 18  1  0
 18 19  1  0
 19 20  1  6
 20 21  1  0
 21 22  1  0
 22 26  1  0
 23 24  2  0
 23 27  1  0
M  END
$$$$
