
     RDKit          3D

 27 28  0  0  0  0  0  0  0  0999 V2000
   25.3651   -8.8641   47.9604 C   0  0  0  0  0  0  0  0  0  0  0  0
   24.5632   -8.6897   46.6877 C   0  0  0  0  0  0  0  0  0  0  0  0
   25.0262   -7.4685   45.9189 C   0  0  0  0  0  0  0  0  0  0  0  0
   23.7782   -6.7717   45.4077 C   0  0  0  0  0  0  0  0  0  0  0  0
   23.4671   -7.2137   43.9805 C   0  0  0  0  0  0  0  0  0  0  0  0
   23.5225   -6.0072   43.0436 C   0  0  0  0  0  0  0  0  0  0  0  0
   23.0317   -6.4985   41.6984 C   0  0  2  0  0  0  0  0  0  0  0  0
   22.8584   -5.2983   40.8045 C   0  0  0  0  0  0  0  0  0  0  0  0
   21.6749   -7.1454   41.8773 C   0  0  0  0  0  0  0  0  0  0  0  0
   23.9870   -7.4964   41.1149 C   0  0  0  0  0  0  0  0  0  0  0  0
   25.2524   -7.1760   40.7412 C   0  0  0  0  0  0  0  0  0  0  0  0
   26.0817   -8.1577   40.2066 C   0  0  0  0  0  0  0  0  0  0  0  0
   25.6598   -9.4562   40.0417 C   0  0  0  0  0  0  0  0  0  0  0  0
   26.5038  -10.5112   39.4936 C   0  0  2  0  0  0  0  0  0  0  0  0
   27.7251  -10.6361   40.3803 C   0  0  0  0  0  0  0  0  0  0  0  0
   28.4915  -11.8966   40.0238 C   0  0  1  0  0  0  0  0  0  0  0  0
   27.9075  -12.5246   38.7819 C   0  0  0  0  0  0  0  0  0  0  0  0
   27.7096  -11.5143   37.6697 C   0  0  0  0  0  0  0  0  0  0  0  0
   27.0011  -10.2477   38.0727 C   0  0  1  0  0  0  0  0  0  0  0  0
   25.8573   -9.9485   37.1763 C   0  0  0  0  0  0  0  0  0  0  0  0
   25.5752  -10.9199   36.1106 C   0  0  0  0  0  0  0  0  0  0  0  0
   25.8146  -10.5602   34.6826 C   0  0  0  0  0  0  0  0  0  0  0  0
   24.3728   -9.7588   40.4275 C   0  0  0  0  0  0  0  0  0  0  0  0
   23.5301   -8.7841   40.9651 C   0  0  0  0  0  0  0  0  0  0  0  0
   29.8394  -11.6548   39.8594 O   0  0  0  0  0  0  0  0  0  0  0  0
   24.5687  -10.6830   33.9618 O   0  0  0  0  0  0  0  0  0  0  0  0
   23.8379  -11.0332   40.3087 O   0  0  0  0  0  0  0  0  0  0  0  0
  1  2  1  0
  2  3  1  0
  3  4  1  0
  4  5  1  0
  5  6  1  0
  6  7  1  0
  7  8  1  6
  7  9  1  0
  7 10  1  0
 10 11  2  0
 10 24  1  0
 11 12  1  0
 12 13  2  0
 14 13  1  1
 13 23  1  0
 14 15  1  0
 14 19  1  0
 15 16  1  0
 16 17  1  0
 16 25  1  6
 17 18  1  0
 18 19  1  0
 19 20  1  6
 20 21  1  0
 21 22  1  0
 22 26  1  0
 23 24  2  0
 23 27  1  0
M  END
$$$$
