
     RDKit          3D

 27 28  0  0  0  0  0  0  0  0999 V2000
   22.1465   -2.5541   44.4720 C   0  0  0  0  0  0  0  0  0  0  0  0
   22.6763   -3.8925   44.0015 C   0  0  0  0  0  0  0  0  0  0  0  0
   23.8375   -3.7096   43.0451 C   0  0  0  0  0  0  0  0  0  0  0  0
   24.6975   -4.9557   43.1543 C   0  0  0  0  0  0  0  0  0  0  0  0
   24.4221   -5.8981   41.9859 C   0  0  0  0  0  0  0  0  0  0  0  0
   24.5969   -7.3471   42.4402 C   0  0  0  0  0  0  0  0  0  0  0  0
   23.4270   -8.1124   41.8590 C   0  0  2  0  0  0  0  0  0  0  0  0
   22.2879   -7.1437   41.6759 C   0  0  0  0  0  0  0  0  0  0  0  0
   22.9870   -9.1658   42.8530 C   0  0  0  0  0  0  0  0  0  0  0  0
   23.8111   -8.7734   40.5689 C   0  0  0  0  0  0  0  0  0  0  0  0
   23.1711   -8.5314   39.3962 C   0  0  0  0  0  0  0  0  0  0  0  0
   23.5854   -9.1838   38.2385 C   0  0  0  0  0  0  0  0  0  0  0  0
   24.6325  -10.0753   38.2406 C   0  0  0  0  0  0  0  0  0  0  0  0
   25.0983  -10.7695   37.0460 C   0  0  2  0  0  0  0  0  0  0  0  0
   24.6832  -12.2213   37.1614 C   0  0  0  0  0  0  0  0  0  0  0  0
   24.8909  -12.9219   35.8312 C   0  0  1  0  0  0  0  0  0  0  0  0
   25.6180  -12.0103   34.8732 C   0  0  0  0  0  0  0  0  0  0  0  0
   26.8420  -11.3774   35.5043 C   0  0  0  0  0  0  0  0  0  0  0  0
   26.6141  -10.7461   36.8528 C   0  0  1  0  0  0  0  0  0  0  0  0
   27.1154   -9.3504   36.8983 C   0  0  0  0  0  0  0  0  0  0  0  0
   27.5354   -8.7524   35.6236 C   0  0  0  0  0  0  0  0  0  0  0  0
   27.3450   -7.2930   35.3788 C   0  0  0  0  0  0  0  0  0  0  0  0
   25.2672  -10.3056   39.4409 C   0  0  0  0  0  0  0  0  0  0  0  0
   24.8622   -9.6583   40.6098 C   0  0  0  0  0  0  0  0  0  0  0  0
   25.5658  -14.1162   35.9742 O   0  0  0  0  0  0  0  0  0  0  0  0
   28.5989   -6.6179   35.6220 O   0  0  0  0  0  0  0  0  0  0  0  0
   26.3345  -11.1829   39.5649 O   0  0  0  0  0  0  0  0  0  0  0  0
  1  2  1  0
  2  3  1  0
  3  4  1  0
  4  5  1  0
  5  6  1  0
  6  7  1  0
  7  8  1  6
  7  9  1  0
  7 10  1  0
 10 11  2  0
 10 24  1  0
 11 12  1  0
 12 13  2  0
 14 13  1  1
 13 23  1  0
 14 15  1  0
 14 19  1  0
 15 16  1  0
 16 17  1  0
 16 25  1  1
 17 18  1  0
 18 19  1  0
 19 20  1  6
 20 21  1  0
 21 22  1  0
 22 26  1  0
 23 24  2  0
 23 27  1  0
M  END
$$$$
