
     RDKit          3D

 27 28  0  0  0  0  0  0  0  0999 V2000
   25.3294   -6.5192   48.2875 C   0  0  0  0  0  0  0  0  0  0  0  0
   24.4462   -7.2854   47.3251 C   0  0  0  0  0  0  0  0  0  0  0  0
   24.5931   -6.7528   45.9139 C   0  0  0  0  0  0  0  0  0  0  0  0
   23.6362   -7.5462   45.0427 C   0  0  0  0  0  0  0  0  0  0  0  0
   24.0303   -7.4284   43.5731 C   0  0  0  0  0  0  0  0  0  0  0  0
   22.7751   -7.4371   42.7006 C   0  0  0  0  0  0  0  0  0  0  0  0
   23.1922   -6.8685   41.3609 C   0  0  2  0  0  0  0  0  0  0  0  0
   23.8018   -5.5127   41.6052 C   0  0  0  0  0  0  0  0  0  0  0  0
   21.9595   -6.6769   40.5036 C   0  0  0  0  0  0  0  0  0  0  0  0
   24.1459   -7.7925   40.6639 C   0  0  0  0  0  0  0  0  0  0  0  0
   25.3422   -7.3829   40.1693 C   0  0  0  0  0  0  0  0  0  0  0  0
   26.1748   -8.2998   39.5341 C   0  0  0  0  0  0  0  0  0  0  0  0
   25.8243   -9.6216   39.3881 C   0  0  0  0  0  0  0  0  0  0  0  0
   26.6749  -10.6104   38.7365 C   0  0  2  0  0  0  0  0  0  0  0  0
   27.9270  -10.7693   39.5736 C   0  0  0  0  0  0  0  0  0  0  0  0
   28.7110  -11.9793   39.0999 C   0  0  1  0  0  0  0  0  0  0  0  0
   28.1021  -12.5279   37.8326 C   0  0  0  0  0  0  0  0  0  0  0  0
   27.8445  -11.4430   36.8063 C   0  0  0  0  0  0  0  0  0  0  0  0
   27.1195  -10.2288   37.3251 C   0  0  1  0  0  0  0  0  0  0  0  0
   25.9406   -9.8935   36.4891 C   0  0  0  0  0  0  0  0  0  0  0  0
   25.3367  -10.9901   35.7198 C   0  0  0  0  0  0  0  0  0  0  0  0
   24.2342  -10.7127   34.7537 C   0  0  0  0  0  0  0  0  0  0  0  0
   24.6067  -10.0150   39.8972 C   0  0  0  0  0  0  0  0  0  0  0  0
   23.7616   -9.1061   40.5366 C   0  0  0  0  0  0  0  0  0  0  0  0
   30.0468  -11.6909   38.9132 O   0  0  0  0  0  0  0  0  0  0  0  0
   24.0035  -11.9008   33.9648 O   0  0  0  0  0  0  0  0  0  0  0  0
   24.1474  -11.3210   39.8090 O   0  0  0  0  0  0  0  0  0  0  0  0
  1  2  1  0
  2  3  1  0
  3  4  1  0
  4  5  1  0
  5  6  1  0
  6  7  1  0
  7  8  1  1
  7  9  1  0
  7 10  1  0
 10 11  2  0
 10 24  1  0
 11 12  1  0
 12 13  2  0
 14 13  1  1
 13 23  1  0
 14 15  1  0
 14 19  1  0
 15 16  1  0
 16 17  1  0
 16 25  1  6
 17 18  1  0
 18 19  1  0
 19 20  1  6
 20 21  1  0
 21 22  1  0
 22 26  1  0
 23 24  2  0
 23 27  1  0
M  END
$$$$
