
     RDKit          3D

 27 28  0  0  0  0  0  0  0  0999 V2000
   22.0396   -7.0381   46.0876 C   0  0  0  0  0  0  0  0  0  0  0  0
   22.2032   -7.9146   44.8635 C   0  0  0  0  0  0  0  0  0  0  0  0
   22.9251   -7.1712   43.7576 C   0  0  0  0  0  0  0  0  0  0  0  0
   23.0175   -8.1210   42.5771 C   0  0  0  0  0  0  0  0  0  0  0  0
   23.5606   -7.3949   41.3495 C   0  0  0  0  0  0  0  0  0  0  0  0
   24.9724   -6.8836   41.6359 C   0  0  0  0  0  0  0  0  0  0  0  0
   25.4570   -6.2490   40.3496 C   0  0  2  0  0  0  0  0  0  0  0  0
   26.5762   -5.3019   40.6960 C   0  0  0  0  0  0  0  0  0  0  0  0
   24.3300   -5.4374   39.7476 C   0  0  0  0  0  0  0  0  0  0  0  0
   25.8951   -7.2972   39.3707 C   0  0  0  0  0  0  0  0  0  0  0  0
   25.2582   -7.5191   38.1923 C   0  0  0  0  0  0  0  0  0  0  0  0
   25.7241   -8.5110   37.3341 C   0  0  0  0  0  0  0  0  0  0  0  0
   26.8197   -9.2833   37.6413 C   0  0  0  0  0  0  0  0  0  0  0  0
   27.3398  -10.3244   36.7628 C   0  0  2  0  0  0  0  0  0  0  0  0
   27.7044   -9.6781   35.4426 C   0  0  0  0  0  0  0  0  0  0  0  0
   28.5062  -10.6518   34.5986 C   0  0  1  0  0  0  0  0  0  0  0  0
   28.5253  -12.0114   35.2532 C   0  0  0  0  0  0  0  0  0  0  0  0
   27.1414  -12.4615   35.6764 C   0  0  0  0  0  0  0  0  0  0  0  0
   26.3488  -11.4472   36.4586 C   0  0  1  0  0  0  0  0  0  0  0  0
   25.8182  -12.0188   37.7208 C   0  0  0  0  0  0  0  0  0  0  0  0
   24.5446  -12.7468   37.6380 C   0  0  0  0  0  0  0  0  0  0  0  0
   24.2462  -13.8512   38.5957 C   0  0  0  0  0  0  0  0  0  0  0  0
   27.4502   -9.0412   38.8414 C   0  0  0  0  0  0  0  0  0  0  0  0
   26.9938   -8.0495   39.7118 C   0  0  0  0  0  0  0  0  0  0  0  0
   28.0243  -10.7389   33.3092 O   0  0  0  0  0  0  0  0  0  0  0  0
   24.2654  -15.1033   37.8752 O   0  0  0  0  0  0  0  0  0  0  0  0
   28.5637   -9.7563   39.2575 O   0  0  0  0  0  0  0  0  0  0  0  0
  1  2  1  0
  2  3  1  0
  3  4  1  0
  4  5  1  0
  5  6  1  0
  6  7  1  0
  7  8  1  1
  7  9  1  0
  7 10  1  0
 10 11  2  0
 10 24  1  0
 11 12  1  0
 12 13  2  0
 14 13  1  1
 13 23  1  0
 14 15  1  0
 14 19  1  0
 15 16  1  0
 16 17  1  0
 16 25  1  6
 17 18  1  0
 18 19  1  0
 19 20  1  1
 20 21  1  0
 21 22  1  0
 22 26  1  0
 23 24  2  0
 23 27  1  0
M  END
$$$$
