
     RDKit          3D

 27 28  0  0  0  0  0  0  0  0999 V2000
   22.2043   -6.8158   45.5161 C   0  0  0  0  0  0  0  0  0  0  0  0
   22.1675   -5.8579   44.3438 C   0  0  0  0  0  0  0  0  0  0  0  0
   22.3369   -6.5993   43.0329 C   0  0  0  0  0  0  0  0  0  0  0  0
   22.4278   -5.5478   41.9418 C   0  0  0  0  0  0  0  0  0  0  0  0
   23.8266   -5.5318   41.3316 C   0  0  0  0  0  0  0  0  0  0  0  0
   23.7234   -5.5063   39.8067 C   0  0  0  0  0  0  0  0  0  0  0  0
   25.1418   -5.3804   39.2929 C   0  0  2  0  0  0  0  0  0  0  0  0
   25.9252   -4.5736   40.2953 C   0  0  0  0  0  0  0  0  0  0  0  0
   25.1251   -4.6124   37.9885 C   0  0  0  0  0  0  0  0  0  0  0  0
   25.7488   -6.7331   39.0676 C   0  0  0  0  0  0  0  0  0  0  0  0
   26.7578   -7.2260   39.8308 C   0  0  0  0  0  0  0  0  0  0  0  0
   27.2702   -8.4916   39.5606 C   0  0  0  0  0  0  0  0  0  0  0  0
   26.7849   -9.2696   38.5358 C   0  0  0  0  0  0  0  0  0  0  0  0
   27.2917  -10.6022   38.2301 C   0  0  2  0  0  0  0  0  0  0  0  0
   28.2651  -10.4752   37.0769 C   0  0  0  0  0  0  0  0  0  0  0  0
   29.0291  -11.7752   36.9046 C   0  0  1  0  0  0  0  0  0  0  0  0
   28.4504  -12.8397   37.8042 C   0  0  0  0  0  0  0  0  0  0  0  0
   26.9410  -12.9212   37.6954 C   0  0  0  0  0  0  0  0  0  0  0  0
   26.2181  -11.6045   37.8079 C   0  0  1  0  0  0  0  0  0  0  0  0
   25.1370  -11.6559   38.8227 C   0  0  0  0  0  0  0  0  0  0  0  0
   25.5461  -11.8367   40.2223 C   0  0  0  0  0  0  0  0  0  0  0  0
   24.5186  -11.9287   41.3002 C   0  0  0  0  0  0  0  0  0  0  0  0
   25.7616   -8.7500   37.7745 C   0  0  0  0  0  0  0  0  0  0  0  0
   25.2381   -7.4820   38.0343 C   0  0  0  0  0  0  0  0  0  0  0  0
   29.0404  -12.1998   35.5924 O   0  0  0  0  0  0  0  0  0  0  0  0
   23.3259  -12.5295   40.7492 O   0  0  0  0  0  0  0  0  0  0  0  0
   25.1928   -9.4424   36.7156 O   0  0  0  0  0  0  0  0  0  0  0  0
  1  2  1  0
  2  3  1  0
  3  4  1  0
  4  5  1  0
  5  6  1  0
  6  7  1  0
  7  8  1  1
  7  9  1  0
  7 10  1  0
 10 11  2  0
 10 24  1  0
 11 12  1  0
 12 13  2  0
 14 13  1  6
 13 23  1  0
 14 15  1  0
 14 19  1  0
 15 16  1  0
 16 17  1  0
 16 25  1  6
 17 18  1  0
 18 19  1  0
 19 20  1  1
 20 21  1  0
 21 22  1  0
 22 26  1  0
 23 24  2  0
 23 27  1  0
M  END
$$$$
