
     RDKit          3D

 27 28  0  0  0  0  0  0  0  0999 V2000
   21.6078   -4.2299   46.3626 C   0  0  0  0  0  0  0  0  0  0  0  0
   22.8145   -4.6551   45.5524 C   0  0  0  0  0  0  0  0  0  0  0  0
   22.3911   -5.3151   44.2556 C   0  0  0  0  0  0  0  0  0  0  0  0
   23.6613   -5.6192   43.4820 C   0  0  0  0  0  0  0  0  0  0  0  0
   23.3256   -6.2279   42.1233 C   0  0  0  0  0  0  0  0  0  0  0  0
   24.6092   -6.4324   41.3188 C   0  0  0  0  0  0  0  0  0  0  0  0
   24.1729   -6.6901   39.8923 C   0  0  2  0  0  0  0  0  0  0  0  0
   24.6061   -5.5129   39.0580 C   0  0  0  0  0  0  0  0  0  0  0  0
   22.6616   -6.7619   39.8465 C   0  0  0  0  0  0  0  0  0  0  0  0
   24.7491   -7.9778   39.3834 C   0  0  0  0  0  0  0  0  0  0  0  0
   25.7709   -8.6244   40.0009 C   0  0  0  0  0  0  0  0  0  0  0  0
   26.2529   -9.8167   39.4685 C   0  0  0  0  0  0  0  0  0  0  0  0
   25.7244  -10.3694   38.3255 C   0  0  0  0  0  0  0  0  0  0  0  0
   26.1986  -11.6201   37.7452 C   0  0  2  0  0  0  0  0  0  0  0  0
   25.7109  -12.7535   38.6234 C   0  0  0  0  0  0  0  0  0  0  0  0
   25.9320  -14.0798   37.9196 C   0  0  1  0  0  0  0  0  0  0  0  0
   26.7352  -13.8703   36.6593 C   0  0  0  0  0  0  0  0  0  0  0  0
   27.9648  -13.0178   36.9003 C   0  0  0  0  0  0  0  0  0  0  0  0
   27.7196  -11.7384   37.6566 C   0  0  1  0  0  0  0  0  0  0  0  0
   28.2849  -10.5639   36.9479 C   0  0  0  0  0  0  0  0  0  0  0  0
   28.5868  -10.7304   35.5196 C   0  0  0  0  0  0  0  0  0  0  0  0
   29.6618   -9.9184   34.8786 C   0  0  0  0  0  0  0  0  0  0  0  0
   24.6888   -9.6968   37.7157 C   0  0  0  0  0  0  0  0  0  0  0  0
   24.1955   -8.5000   38.2388 C   0  0  0  0  0  0  0  0  0  0  0  0
   26.5438  -15.0056   38.7387 O   0  0  0  0  0  0  0  0  0  0  0  0
   30.3301  -10.7356   33.8924 O   0  0  0  0  0  0  0  0  0  0  0  0
   24.0775  -10.1579   36.5590 O   0  0  0  0  0  0  0  0  0  0  0  0
  1  2  1  0
  2  3  1  0
  3  4  1  0
  4  5  1  0
  5  6  1  0
  6  7  1  0
  7  8  1  6
  7  9  1  0
  7 10  1  0
 10 11  2  0
 10 24  1  0
 11 12  1  0
 12 13  2  0
 14 13  1  1
 13 23  1  0
 14 15  1  0
 14 19  1  0
 15 16  1  0
 16 17  1  0
 16 25  1  1
 17 18  1  0
 18 19  1  0
 19 20  1  6
 20 21  1  0
 21 22  1  0
 22 26  1  0
 23 24  2  0
 23 27  1  0
M  END
$$$$
