
     RDKit          3D

 27 28  0  0  0  0  0  0  0  0999 V2000
   22.5507   -1.9838   45.8925 C   0  0  0  0  0  0  0  0  0  0  0  0
   23.0963   -2.9235   44.8376 C   0  0  0  0  0  0  0  0  0  0  0  0
   22.1498   -3.0220   43.6582 C   0  0  0  0  0  0  0  0  0  0  0  0
   22.9155   -3.6981   42.5353 C   0  0  0  0  0  0  0  0  0  0  0  0
   23.1370   -5.1740   42.8540 C   0  0  0  0  0  0  0  0  0  0  0  0
   23.9382   -5.8295   41.7292 C   0  0  0  0  0  0  0  0  0  0  0  0
   23.8939   -7.3190   41.9963 C   0  0  2  0  0  0  0  0  0  0  0  0
   22.4492   -7.7165   42.1524 C   0  0  0  0  0  0  0  0  0  0  0  0
   24.5991   -7.6043   43.3049 C   0  0  0  0  0  0  0  0  0  0  0  0
   24.5659   -8.0785   40.8915 C   0  0  0  0  0  0  0  0  0  0  0  0
   25.1370   -7.4716   39.8195 C   0  0  0  0  0  0  0  0  0  0  0  0
   25.7429   -8.2443   38.8330 C   0  0  0  0  0  0  0  0  0  0  0  0
   25.7841   -9.6169   38.9066 C   0  0  0  0  0  0  0  0  0  0  0  0
   26.4173  -10.4564   37.8966 C   0  0  2  0  0  0  0  0  0  0  0  0
   27.9170  -10.2962   38.0337 C   0  0  0  0  0  0  0  0  0  0  0  0
   28.6240  -11.3524   37.2043 C   0  0  1  0  0  0  0  0  0  0  0  0
   27.6239  -12.1036   36.3599 C   0  0  0  0  0  0  0  0  0  0  0  0
   26.6894  -11.1710   35.6157 C   0  0  0  0  0  0  0  0  0  0  0  0
   26.0533  -10.0955   36.4569 C   0  0  1  0  0  0  0  0  0  0  0  0
   24.5791  -10.0685   36.2920 C   0  0  0  0  0  0  0  0  0  0  0  0
   23.8868  -11.3644   36.2811 C   0  0  0  0  0  0  0  0  0  0  0  0
   22.4182  -11.4303   36.0266 C   0  0  0  0  0  0  0  0  0  0  0  0
   25.1987  -10.2113   40.0024 C   0  0  0  0  0  0  0  0  0  0  0  0
   24.5875   -9.4486   40.9994 C   0  0  0  0  0  0  0  0  0  0  0  0
   29.6188  -10.8125   36.4162 O   0  0  0  0  0  0  0  0  0  0  0  0
   22.2063  -11.8008   34.6464 O   0  0  0  0  0  0  0  0  0  0  0  0
   25.1787  -11.5864   40.1842 O   0  0  0  0  0  0  0  0  0  0  0  0
  1  2  1  0
  2  3  1  0
  3  4  1  0
  4  5  1  0
  5  6  1  0
  6  7  1  0
  7  8  1  1
  7  9  1  0
  7 10  1  0
 10 11  2  0
 10 24  1  0
 11 12  1  0
 12 13  2  0
 14 13  1  1
 13 23  1  0
 14 15  1  0
 14 19  1  0
 15 16  1  0
 16 17  1  0
 16 25  1  6
 17 18  1  0
 18 19  1  0
 19 20  1  1
 20 21  1  0
 21 22  1  0
 22 26  1  0
 23 24  2  0
 23 27  1  0
M  END
$$$$
