
     RDKit          3D

 27 28  0  0  0  0  0  0  0  0999 V2000
   23.8573   -6.5623   48.2374 C   0  0  0  0  0  0  0  0  0  0  0  0
   23.4228   -7.2278   46.9484 C   0  0  0  0  0  0  0  0  0  0  0  0
   24.5366   -7.1979   45.9212 C   0  0  0  0  0  0  0  0  0  0  0  0
   23.9986   -7.8679   44.6698 C   0  0  0  0  0  0  0  0  0  0  0  0
   24.3343   -7.0378   43.4339 C   0  0  0  0  0  0  0  0  0  0  0  0
   23.0788   -6.8502   42.5824 C   0  0  0  0  0  0  0  0  0  0  0  0
   23.5632   -6.4641   41.2011 C   0  0  2  0  0  0  0  0  0  0  0  0
   24.4590   -5.2616   41.3462 C   0  0  0  0  0  0  0  0  0  0  0  0
   22.3726   -6.0587   40.3588 C   0  0  0  0  0  0  0  0  0  0  0  0
   24.2709   -7.6120   40.5447 C   0  0  0  0  0  0  0  0  0  0  0  0
   23.8900   -8.9049   40.7084 C   0  0  0  0  0  0  0  0  0  0  0  0
   24.5970   -9.9173   40.0659 C   0  0  0  0  0  0  0  0  0  0  0  0
   25.6803   -9.6510   39.2618 C   0  0  0  0  0  0  0  0  0  0  0  0
   26.4381  -10.6851   38.5673 C   0  0  2  0  0  0  0  0  0  0  0  0
   27.8532  -10.6646   39.1064 C   0  0  0  0  0  0  0  0  0  0  0  0
   28.6027  -11.8944   38.6278 C   0  0  1  0  0  0  0  0  0  0  0  0
   27.7714  -12.6480   37.6186 C   0  0  0  0  0  0  0  0  0  0  0  0
   27.2099  -11.7365   36.5459 C   0  0  0  0  0  0  0  0  0  0  0  0
   26.5275  -10.4934   37.0538 C   0  0  1  0  0  0  0  0  0  0  0  0
   25.1702  -10.3361   36.4757 C   0  0  0  0  0  0  0  0  0  0  0  0
   24.6392  -11.4697   35.7062 C   0  0  0  0  0  0  0  0  0  0  0  0
   23.2305  -11.4510   35.2152 C   0  0  0  0  0  0  0  0  0  0  0  0
   26.0490   -8.3328   39.1100 C   0  0  0  0  0  0  0  0  0  0  0  0
   25.3490   -7.3073   39.7484 C   0  0  0  0  0  0  0  0  0  0  0  0
   29.8375  -11.5769   38.1017 O   0  0  0  0  0  0  0  0  0  0  0  0
   22.9439  -10.1367   34.6884 O   0  0  0  0  0  0  0  0  0  0  0  0
   27.1241   -7.9439   38.3244 O   0  0  0  0  0  0  0  0  0  0  0  0
  1  2  1  0
  2  3  1  0
  3  4  1  0
  4  5  1  0
  5  6  1  0
  6  7  1  0
  7  8  1  1
  7  9  1  0
  7 10  1  0
 10 11  2  0
 10 24  1  0
 11 12  1  0
 12 13  2  0
 14 13  1  1
 13 23  1  0
 14 15  1  0
 14 19  1  0
 15 16  1  0
 16 17  1  0
 16 25  1  6
 17 18  1  0
 18 19  1  0
 19 20  1  6
 20 21  1  0
 21 22  1  0
 22 26  1  0
 23 24  2  0
 23 27  1  0
M  END
$$$$
