
     RDKit          3D

 27 28  0  0  0  0  0  0  0  0999 V2000
   24.3174   -9.4053   47.3479 C   0  0  0  0  0  0  0  0  0  0  0  0
   23.9825   -8.9535   45.9418 C   0  0  0  0  0  0  0  0  0  0  0  0
   24.7633   -7.7083   45.5725 C   0  0  0  0  0  0  0  0  0  0  0  0
   25.2010   -7.8758   44.1287 C   0  0  0  0  0  0  0  0  0  0  0  0
   24.0396   -7.5855   43.1821 C   0  0  0  0  0  0  0  0  0  0  0  0
   24.0591   -6.1110   42.7794 C   0  0  0  0  0  0  0  0  0  0  0  0
   23.5107   -6.0545   41.3695 C   0  0  2  0  0  0  0  0  0  0  0  0
   23.4849   -4.6100   40.9425 C   0  0  0  0  0  0  0  0  0  0  0  0
   22.0851   -6.5634   41.3765 C   0  0  0  0  0  0  0  0  0  0  0  0
   24.3363   -6.8963   40.4427 C   0  0  0  0  0  0  0  0  0  0  0  0
   25.6249   -6.6041   40.1306 C   0  0  0  0  0  0  0  0  0  0  0  0
   26.3279   -7.4339   39.2618 C   0  0  0  0  0  0  0  0  0  0  0  0
   25.7565   -8.5524   38.7019 C   0  0  0  0  0  0  0  0  0  0  0  0
   26.4654   -9.4479   37.7955 C   0  0  2  0  0  0  0  0  0  0  0  0
   25.9406   -9.2026   36.3962 C   0  0  0  0  0  0  0  0  0  0  0  0
   26.8330   -9.8975   35.3842 C   0  0  1  0  0  0  0  0  0  0  0  0
   27.8436  -10.7652   36.0937 C   0  0  0  0  0  0  0  0  0  0  0  0
   27.2018  -11.6446   37.1480 C   0  0  0  0  0  0  0  0  0  0  0  0
   26.2730  -10.9336   38.0971 C   0  0  1  0  0  0  0  0  0  0  0  0
   26.6115  -11.2175   39.5135 C   0  0  0  0  0  0  0  0  0  0  0  0
   27.6967  -12.1772   39.7589 C   0  0  0  0  0  0  0  0  0  0  0  0
   27.8916  -12.7603   41.1183 C   0  0  0  0  0  0  0  0  0  0  0  0
   24.4486   -8.8297   39.0323 C   0  0  0  0  0  0  0  0  0  0  0  0
   23.7316   -8.0062   39.9024 C   0  0  0  0  0  0  0  0  0  0  0  0
   26.1069  -10.6391   34.4758 O   0  0  0  0  0  0  0  0  0  0  0  0
   28.3772  -11.7232   41.9990 O   0  0  0  0  0  0  0  0  0  0  0  0
   23.7685   -9.9293   38.5296 O   0  0  0  0  0  0  0  0  0  0  0  0
  1  2  1  0
  2  3  1  0
  3  4  1  0
  4  5  1  0
  5  6  1  0
  6  7  1  0
  7  8  1  6
  7  9  1  0
  7 10  1  0
 10 11  2  0
 10 24  1  0
 11 12  1  0
 12 13  2  0
 14 13  1  1
 13 23  1  0
 14 15  1  0
 14 19  1  0
 15 16  1  0
 16 17  1  0
 16 25  1  6
 17 18  1  0
 18 19  1  0
 19 20  1  1
 20 21  1  0
 21 22  1  0
 22 26  1  0
 23 24  2  0
 23 27  1  0
M  END
$$$$
