
     RDKit          3D

 27 28  0  0  0  0  0  0  0  0999 V2000
   22.3492   -9.3816   46.0237 C   0  0  0  0  0  0  0  0  0  0  0  0
   23.3090   -8.2268   45.8278 C   0  0  0  0  0  0  0  0  0  0  0  0
   23.6775   -8.0707   44.3662 C   0  0  0  0  0  0  0  0  0  0  0  0
   24.0798   -6.6206   44.1667 C   0  0  0  0  0  0  0  0  0  0  0  0
   24.4473   -6.3648   42.7077 C   0  0  0  0  0  0  0  0  0  0  0  0
   23.1754   -6.1723   41.8819 C   0  0  0  0  0  0  0  0  0  0  0  0
   23.6144   -5.5426   40.5771 C   0  0  2  0  0  0  0  0  0  0  0  0
   24.3964   -4.2977   40.9062 C   0  0  0  0  0  0  0  0  0  0  0  0
   22.3868   -5.1278   39.7946 C   0  0  0  0  0  0  0  0  0  0  0  0
   24.4210   -6.5103   39.7635 C   0  0  0  0  0  0  0  0  0  0  0  0
   25.6885   -6.2514   39.3513 C   0  0  0  0  0  0  0  0  0  0  0  0
   26.3748   -7.1998   38.5983 C   0  0  0  0  0  0  0  0  0  0  0  0
   25.8076   -8.4041   38.2531 C   0  0  0  0  0  0  0  0  0  0  0  0
   26.4998   -9.4234   37.4735 C   0  0  2  0  0  0  0  0  0  0  0  0
   25.9038   -9.4271   36.0813 C   0  0  0  0  0  0  0  0  0  0  0  0
   26.7684  -10.2625   35.1550 C   0  0  1  0  0  0  0  0  0  0  0  0
   27.8359  -10.9774   35.9468 C   0  0  0  0  0  0  0  0  0  0  0  0
   27.2697  -11.6813   37.1636 C   0  0  0  0  0  0  0  0  0  0  0  0
   26.3654  -10.8414   38.0272 C   0  0  1  0  0  0  0  0  0  0  0  0
   26.7773  -10.8768   39.4520 C   0  0  0  0  0  0  0  0  0  0  0  0
   27.6171  -12.0063   39.8741 C   0  0  0  0  0  0  0  0  0  0  0  0
   27.7529  -12.3426   41.3213 C   0  0  0  0  0  0  0  0  0  0  0  0
   24.5213   -8.6457   38.6818 C   0  0  0  0  0  0  0  0  0  0  0  0
   23.8212   -7.7034   39.4376 C   0  0  0  0  0  0  0  0  0  0  0  0
   26.0232  -11.1609   34.4203 O   0  0  0  0  0  0  0  0  0  0  0  0
   28.6034  -13.5038   41.4462 O   0  0  0  0  0  0  0  0  0  0  0  0
   23.8475   -9.8237   38.3946 O   0  0  0  0  0  0  0  0  0  0  0  0
  1  2  1  0
  2  3  1  0
  3  4  1  0
  4  5  1  0
  5  6  1  0
  6  7  1  0
  7  8  1  1
  7  9  1  0
  7 10  1  0
 10 11  2  0
 10 24  1  0
 11 12  1  0
 12 13  2  0
 14 13  1  1
 13 23  1  0
 14 15  1  0
 14 19  1  0
 15 16  1  0
 16 17  1  0
 16 25  1  1
 17 18  1  0
 18 19  1  0
 19 20  1  1
 20 21  1  0
 21 22  1  0
 22 26  1  0
 23 24  2  0
 23 27  1  0
M  END
$$$$
