
     RDKit          3D

 27 28  0  0  0  0  0  0  0  0999 V2000
   21.3390   -7.4205   45.2459 C   0  0  0  0  0  0  0  0  0  0  0  0
   21.7414   -6.4470   44.1580 C   0  0  0  0  0  0  0  0  0  0  0  0
   22.9479   -6.9558   43.3950 C   0  0  0  0  0  0  0  0  0  0  0  0
   23.3346   -5.8688   42.4085 C   0  0  0  0  0  0  0  0  0  0  0  0
   24.2265   -6.4390   41.3091 C   0  0  0  0  0  0  0  0  0  0  0  0
   24.4696   -5.3748   40.2389 C   0  0  0  0  0  0  0  0  0  0  0  0
   25.9117   -5.5364   39.8074 C   0  0  2  0  0  0  0  0  0  0  0  0
   26.7678   -5.5245   41.0470 C   0  0  0  0  0  0  0  0  0  0  0  0
   26.3061   -4.3473   38.9579 C   0  0  0  0  0  0  0  0  0  0  0  0
   26.0925   -6.7971   39.0156 C   0  0  0  0  0  0  0  0  0  0  0  0
   25.6101   -6.9535   37.7561 C   0  0  0  0  0  0  0  0  0  0  0  0
   25.8179   -8.1543   37.0835 C   0  0  0  0  0  0  0  0  0  0  0  0
   26.5028   -9.2002   37.6564 C   0  0  0  0  0  0  0  0  0  0  0  0
   26.7463  -10.4678   36.9783 C   0  0  2  0  0  0  0  0  0  0  0  0
   27.9190  -10.2744   36.0399 C   0  0  0  0  0  0  0  0  0  0  0  0
   28.3913  -11.6213   35.5242 C   0  0  1  0  0  0  0  0  0  0  0  0
   27.4334  -12.7056   35.9533 C   0  0  0  0  0  0  0  0  0  0  0  0
   25.9907  -12.3389   35.6688 C   0  0  0  0  0  0  0  0  0  0  0  0
   25.5725  -10.9701   36.1384 C   0  0  1  0  0  0  0  0  0  0  0  0
   24.3391  -11.0242   36.9611 C   0  0  0  0  0  0  0  0  0  0  0  0
   24.1676  -12.1990   37.8268 C   0  0  0  0  0  0  0  0  0  0  0  0
   22.9612  -12.3229   38.6958 C   0  0  0  0  0  0  0  0  0  0  0  0
   26.9833   -9.0197   38.9344 C   0  0  0  0  0  0  0  0  0  0  0  0
   26.7821   -7.8207   39.6208 C   0  0  0  0  0  0  0  0  0  0  0  0
   28.5493  -11.6254   34.1540 O   0  0  0  0  0  0  0  0  0  0  0  0
   23.0577  -13.5546   39.4447 O   0  0  0  0  0  0  0  0  0  0  0  0
   27.6881  -10.0032   39.6129 O   0  0  0  0  0  0  0  0  0  0  0  0
  1  2  1  0
  2  3  1  0
  3  4  1  0
  4  5  1  0
  5  6  1  0
  6  7  1  0
  7  8  1  1
  7  9  1  0
  7 10  1  0
 10 11  2  0
 10 24  1  0
 11 12  1  0
 12 13  2  0
 14 13  1  6
 13 23  1  0
 14 15  1  0
 14 19  1  0
 15 16  1  0
 16 17  1  0
 16 25  1  6
 17 18  1  0
 18 19  1  0
 19 20  1  1
 20 21  1  0
 21 22  1  0
 22 26  1  0
 23 24  2  0
 23 27  1  0
M  END
$$$$
