
     RDKit          3D

 27 28  0  0  0  0  0  0  0  0999 V2000
   19.3044   -3.8747   44.4024 C   0  0  0  0  0  0  0  0  0  0  0  0
   19.7333   -4.9961   43.4795 C   0  0  0  0  0  0  0  0  0  0  0  0
   20.9728   -4.6100   42.6976 C   0  0  0  0  0  0  0  0  0  0  0  0
   22.0438   -5.6298   43.0398 C   0  0  0  0  0  0  0  0  0  0  0  0
   23.3684   -5.2534   42.3818 C   0  0  0  0  0  0  0  0  0  0  0  0
   23.6519   -6.1999   41.2154 C   0  0  0  0  0  0  0  0  0  0  0  0
   25.1507   -6.1676   41.0044 C   0  0  2  0  0  0  0  0  0  0  0  0
   25.8063   -6.1302   42.3603 C   0  0  0  0  0  0  0  0  0  0  0  0
   25.5165   -4.8926   40.2752 C   0  0  0  0  0  0  0  0  0  0  0  0
   25.6007   -7.3497   40.1987 C   0  0  0  0  0  0  0  0  0  0  0  0
   26.3587   -8.3504   40.7160 C   0  0  0  0  0  0  0  0  0  0  0  0
   26.7378   -9.4163   39.9052 C   0  0  0  0  0  0  0  0  0  0  0  0
   26.3674   -9.4926   38.5830 C   0  0  0  0  0  0  0  0  0  0  0  0
   26.7391  -10.5978   37.7076 C   0  0  2  0  0  0  0  0  0  0  0  0
   27.8797  -10.1297   36.8281 C   0  0  0  0  0  0  0  0  0  0  0  0
   28.4883  -11.3155   36.1024 C   0  0  1  0  0  0  0  0  0  0  0  0
   27.6523  -12.5502   36.3348 C   0  0  0  0  0  0  0  0  0  0  0  0
   26.1774  -12.2947   36.0977 C   0  0  0  0  0  0  0  0  0  0  0  0
   25.6201  -11.0741   36.7821 C   0  0  1  0  0  0  0  0  0  0  0  0
   24.4039  -11.3927   37.5699 C   0  0  0  0  0  0  0  0  0  0  0  0
   23.3637  -12.1831   36.8975 C   0  0  0  0  0  0  0  0  0  0  0  0
   22.1352  -12.5938   37.6378 C   0  0  0  0  0  0  0  0  0  0  0  0
   25.5987   -8.4669   38.0793 C   0  0  0  0  0  0  0  0  0  0  0  0
   25.2112   -7.3916   38.8811 C   0  0  0  0  0  0  0  0  0  0  0  0
   28.6381  -11.0759   34.7524 O   0  0  0  0  0  0  0  0  0  0  0  0
   21.2742  -11.4420   37.7760 O   0  0  0  0  0  0  0  0  0  0  0  0
   25.1659   -8.4358   36.7617 O   0  0  0  0  0  0  0  0  0  0  0  0
  1  2  1  0
  2  3  1  0
  3  4  1  0
  4  5  1  0
  5  6  1  0
  6  7  1  0
  7  8  1  1
  7  9  1  0
  7 10  1  0
 10 11  2  0
 10 24  1  0
 11 12  1  0
 12 13  2  0
 14 13  1  6
 13 23  1  0
 14 15  1  0
 14 19  1  0
 15 16  1  0
 16 17  1  0
 16 25  1  6
 17 18  1  0
 18 19  1  0
 19 20  1  1
 20 21  1  0
 21 22  1  0
 22 26  1  0
 23 24  2  0
 23 27  1  0
M  END
$$$$
