
     RDKit          3D

 27 28  0  0  0  0  0  0  0  0999 V2000
   22.7950   -8.6309   46.2855 C   0  0  0  0  0  0  0  0  0  0  0  0
   22.3203   -7.6756   45.2106 C   0  0  0  0  0  0  0  0  0  0  0  0
   23.2254   -7.7334   43.9964 C   0  0  0  0  0  0  0  0  0  0  0  0
   22.6604   -6.7576   42.9801 C   0  0  0  0  0  0  0  0  0  0  0  0
   23.7090   -6.4211   41.9235 C   0  0  0  0  0  0  0  0  0  0  0  0
   23.1223   -5.4391   40.9096 C   0  0  0  0  0  0  0  0  0  0  0  0
   24.2392   -5.1232   39.9376 C   0  0  2  0  0  0  0  0  0  0  0  0
   25.2870   -4.3352   40.6798 C   0  0  0  0  0  0  0  0  0  0  0  0
   23.6938   -4.2458   38.8313 C   0  0  0  0  0  0  0  0  0  0  0  0
   24.8015   -6.3811   39.3454 C   0  0  0  0  0  0  0  0  0  0  0  0
   24.0368   -7.3000   38.7016 C   0  0  0  0  0  0  0  0  0  0  0  0
   24.6310   -8.4444   38.1775 C   0  0  0  0  0  0  0  0  0  0  0  0
   25.9812   -8.6800   38.2901 C   0  0  0  0  0  0  0  0  0  0  0  0
   26.6379   -9.8627   37.7462 C   0  0  2  0  0  0  0  0  0  0  0  0
   26.7399   -9.6879   36.2453 C   0  0  0  0  0  0  0  0  0  0  0  0
   27.6588  -10.7480   35.6664 C   0  0  1  0  0  0  0  0  0  0  0  0
   28.0279  -11.7517   36.7312 C   0  0  0  0  0  0  0  0  0  0  0  0
   26.8157  -12.2483   37.4931 C   0  0  0  0  0  0  0  0  0  0  0  0
   25.8916  -11.1720   37.9996 C   0  0  1  0  0  0  0  0  0  0  0  0
   25.6070  -11.3282   39.4473 C   0  0  0  0  0  0  0  0  0  0  0  0
   26.4419  -12.2819   40.1905 C   0  0  0  0  0  0  0  0  0  0  0  0
   25.8097  -13.3142   41.0627 C   0  0  0  0  0  0  0  0  0  0  0  0
   26.7375   -7.7349   38.9469 C   0  0  0  0  0  0  0  0  0  0  0  0
   26.1548   -6.5824   39.4775 C   0  0  0  0  0  0  0  0  0  0  0  0
   27.0993  -11.3792   34.5751 O   0  0  0  0  0  0  0  0  0  0  0  0
   26.4133  -14.5943   40.7727 O   0  0  0  0  0  0  0  0  0  0  0  0
   28.1076   -7.8646   39.1215 O   0  0  0  0  0  0  0  0  0  0  0  0
  1  2  1  0
  2  3  1  0
  3  4  1  0
  4  5  1  0
  5  6  1  0
  6  7  1  0
  7  8  1  1
  7  9  1  0
  7 10  1  0
 10 11  2  0
 10 24  1  0
 11 12  1  0
 12 13  2  0
 14 13  1  6
 13 23  1  0
 14 15  1  0
 14 19  1  0
 15 16  1  0
 16 17  1  0
 16 25  1  6
 17 18  1  0
 18 19  1  0
 19 20  1  1
 20 21  1  0
 21 22  1  0
 22 26  1  0
 23 24  2  0
 23 27  1  0
M  END
$$$$
