
     RDKit          3D

 27 28  0  0  0  0  0  0  0  0999 V2000
   19.9749   -6.5301   45.2320 C   0  0  0  0  0  0  0  0  0  0  0  0
   21.4637   -6.4558   44.9650 C   0  0  0  0  0  0  0  0  0  0  0  0
   21.7430   -5.7786   43.6384 C   0  0  0  0  0  0  0  0  0  0  0  0
   23.2506   -5.7630   43.4616 C   0  0  0  0  0  0  0  0  0  0  0  0
   23.6284   -5.0515   42.1653 C   0  0  0  0  0  0  0  0  0  0  0  0
   23.6889   -6.0632   41.0209 C   0  0  0  0  0  0  0  0  0  0  0  0
   24.9927   -5.8002   40.2979 C   0  0  2  0  0  0  0  0  0  0  0  0
   26.0292   -5.4439   41.3314 C   0  0  0  0  0  0  0  0  0  0  0  0
   24.8157   -4.6056   39.3852 C   0  0  0  0  0  0  0  0  0  0  0  0
   25.4009   -6.9927   39.4852 C   0  0  0  0  0  0  0  0  0  0  0  0
   24.5354   -7.9780   39.1338 C   0  0  0  0  0  0  0  0  0  0  0  0
   24.9886   -9.0549   38.3773 C   0  0  0  0  0  0  0  0  0  0  0  0
   26.2976   -9.1573   37.9684 C   0  0  0  0  0  0  0  0  0  0  0  0
   26.8044  -10.2660   37.1685 C   0  0  2  0  0  0  0  0  0  0  0  0
   26.2246  -10.1364   35.7755 C   0  0  0  0  0  0  0  0  0  0  0  0
   26.9341  -11.0913   34.8332 C   0  0  1  0  0  0  0  0  0  0  0  0
   27.8553  -11.9987   35.6115 C   0  0  0  0  0  0  0  0  0  0  0  0
   27.1678  -12.6172   36.8122 C   0  0  0  0  0  0  0  0  0  0  0  0
   26.4202  -11.6495   37.6917 C   0  0  1  0  0  0  0  0  0  0  0  0
   26.8118  -11.7860   39.1162 C   0  0  0  0  0  0  0  0  0  0  0  0
   27.0411  -13.1487   39.6157 C   0  0  0  0  0  0  0  0  0  0  0  0
   27.8521  -13.3712   40.8481 C   0  0  0  0  0  0  0  0  0  0  0  0
   27.1580   -8.1467   38.3360 C   0  0  0  0  0  0  0  0  0  0  0  0
   26.7171   -7.0608   39.0946 C   0  0  0  0  0  0  0  0  0  0  0  0
   26.0468  -11.8297   34.0784 O   0  0  0  0  0  0  0  0  0  0  0  0
   27.0365  -13.0581   41.9988 O   0  0  0  0  0  0  0  0  0  0  0  0
   28.4992   -8.1422   37.9817 O   0  0  0  0  0  0  0  0  0  0  0  0
  1  2  1  0
  2  3  1  0
  3  4  1  0
  4  5  1  0
  5  6  1  0
  6  7  1  0
  7  8  1  1
  7  9  1  0
  7 10  1  0
 10 11  2  0
 10 24  1  0
 11 12  1  0
 12 13  2  0
 14 13  1  1
 13 23  1  0
 14 15  1  0
 14 19  1  0
 15 16  1  0
 16 17  1  0
 16 25  1  1
 17 18  1  0
 18 19  1  0
 19 20  1  1
 20 21  1  0
 21 22  1  0
 22 26  1  0
 23 24  2  0
 23 27  1  0
M  END
$$$$
