
     RDKit          3D

 27 28  0  0  0  0  0  0  0  0999 V2000
   22.4600   -2.7626   46.8646 C   0  0  0  0  0  0  0  0  0  0  0  0
   23.2096   -2.9741   45.5659 C   0  0  0  0  0  0  0  0  0  0  0  0
   22.6403   -4.1495   44.7972 C   0  0  0  0  0  0  0  0  0  0  0  0
   23.4413   -4.2643   43.5128 C   0  0  0  0  0  0  0  0  0  0  0  0
   22.8874   -5.3846   42.6369 C   0  0  0  0  0  0  0  0  0  0  0  0
   24.0412   -6.1853   42.0333 C   0  0  0  0  0  0  0  0  0  0  0  0
   23.4060   -7.3467   41.2988 C   0  0  2  0  0  0  0  0  0  0  0  0
   22.2026   -6.8219   40.5598 C   0  0  0  0  0  0  0  0  0  0  0  0
   22.9236   -8.3632   42.3113 C   0  0  0  0  0  0  0  0  0  0  0  0
   24.3917   -7.9943   40.3725 C   0  0  0  0  0  0  0  0  0  0  0  0
   25.6707   -7.5599   40.2347 C   0  0  0  0  0  0  0  0  0  0  0  0
   26.5284   -8.2130   39.3541 C   0  0  0  0  0  0  0  0  0  0  0  0
   26.1212   -9.2954   38.6101 C   0  0  0  0  0  0  0  0  0  0  0  0
   26.9945  -10.0082   37.6853 C   0  0  2  0  0  0  0  0  0  0  0  0
   26.6350   -9.5743   36.2796 C   0  0  0  0  0  0  0  0  0  0  0  0
   27.6903  -10.0647   35.3053 C   0  0  1  0  0  0  0  0  0  0  0  0
   28.6575  -10.9851   36.0087 C   0  0  0  0  0  0  0  0  0  0  0  0
   27.9462  -12.0440   36.8270 C   0  0  0  0  0  0  0  0  0  0  0  0
   26.8617  -11.5298   37.7372 C   0  0  1  0  0  0  0  0  0  0  0  0
   27.0372  -12.0127   39.1290 C   0  0  0  0  0  0  0  0  0  0  0  0
   28.3984  -12.3862   39.5372 C   0  0  0  0  0  0  0  0  0  0  0  0
   28.6258  -13.5992   40.3756 C   0  0  0  0  0  0  0  0  0  0  0  0
   24.8200   -9.7189   38.7656 C   0  0  0  0  0  0  0  0  0  0  0  0
   23.9489   -9.0733   39.6452 C   0  0  0  0  0  0  0  0  0  0  0  0
   27.1333  -10.6893   34.2090 O   0  0  0  0  0  0  0  0  0  0  0  0
   30.0401  -13.8939   40.3848 O   0  0  0  0  0  0  0  0  0  0  0  0
   24.2979  -10.7987   38.0687 O   0  0  0  0  0  0  0  0  0  0  0  0
  1  2  1  0
  2  3  1  0
  3  4  1  0
  4  5  1  0
  5  6  1  0
  6  7  1  0
  7  8  1  6
  7  9  1  0
  7 10  1  0
 10 11  2  0
 10 24  1  0
 11 12  1  0
 12 13  2  0
 14 13  1  1
 13 23  1  0
 14 15  1  0
 14 19  1  0
 15 16  1  0
 16 17  1  0
 16 25  1  6
 17 18  1  0
 18 19  1  0
 19 20  1  1
 20 21  1  0
 21 22  1  0
 22 26  1  0
 23 24  2  0
 23 27  1  0
M  END
$$$$
