
     RDKit          3D

 27 28  0  0  0  0  0  0  0  0999 V2000
   21.8224   -3.4970   46.5691 C   0  0  0  0  0  0  0  0  0  0  0  0
   22.1131   -4.7145   45.7168 C   0  0  0  0  0  0  0  0  0  0  0  0
   23.5630   -4.7338   45.2764 C   0  0  0  0  0  0  0  0  0  0  0  0
   23.7359   -5.9510   44.3860 C   0  0  0  0  0  0  0  0  0  0  0  0
   23.9285   -5.5259   42.9329 C   0  0  0  0  0  0  0  0  0  0  0  0
   24.6955   -6.6102   42.1762 C   0  0  0  0  0  0  0  0  0  0  0  0
   23.7454   -7.1370   41.1218 C   0  0  2  0  0  0  0  0  0  0  0  0
   23.0757   -5.9541   40.4725 C   0  0  0  0  0  0  0  0  0  0  0  0
   22.6737   -7.9660   41.7969 C   0  0  0  0  0  0  0  0  0  0  0  0
   24.4754   -7.9839   40.1223 C   0  0  0  0  0  0  0  0  0  0  0  0
   24.0430   -9.2128   39.7400 C   0  0  0  0  0  0  0  0  0  0  0  0
   24.7750   -9.9404   38.8060 C   0  0  0  0  0  0  0  0  0  0  0  0
   25.9345   -9.4526   38.2504 C   0  0  0  0  0  0  0  0  0  0  0  0
   26.7213  -10.1832   37.2639 C   0  0  2  0  0  0  0  0  0  0  0  0
   25.9335  -10.2115   35.9708 C   0  0  0  0  0  0  0  0  0  0  0  0
   26.8181  -10.7074   34.8416 C   0  0  1  0  0  0  0  0  0  0  0  0
   28.1367  -11.1937   35.3914 C   0  0  0  0  0  0  0  0  0  0  0  0
   27.9545  -12.1287   36.5702 C   0  0  0  0  0  0  0  0  0  0  0  0
   27.0209  -11.6329   37.6433 C   0  0  1  0  0  0  0  0  0  0  0  0
   27.6468  -11.6925   38.9871 C   0  0  0  0  0  0  0  0  0  0  0  0
   28.8731  -12.4918   39.1151 C   0  0  0  0  0  0  0  0  0  0  0  0
   29.6620  -12.4609   40.3811 C   0  0  0  0  0  0  0  0  0  0  0  0
   26.3546   -8.2042   38.6526 C   0  0  0  0  0  0  0  0  0  0  0  0
   25.6302   -7.4634   39.5884 C   0  0  0  0  0  0  0  0  0  0  0  0
   26.2060  -11.6955   34.0992 O   0  0  0  0  0  0  0  0  0  0  0  0
   30.7922  -13.3499   40.2411 O   0  0  0  0  0  0  0  0  0  0  0  0
   27.5078   -7.6102   38.1611 O   0  0  0  0  0  0  0  0  0  0  0  0
  1  2  1  0
  2  3  1  0
  3  4  1  0
  4  5  1  0
  5  6  1  0
  6  7  1  0
  7  8  1  6
  7  9  1  0
  7 10  1  0
 10 11  2  0
 10 24  1  0
 11 12  1  0
 12 13  2  0
 14 13  1  1
 13 23  1  0
 14 15  1  0
 14 19  1  0
 15 16  1  0
 16 17  1  0
 16 25  1  1
 17 18  1  0
 18 19  1  0
 19 20  1  1
 20 21  1  0
 21 22  1  0
 22 26  1  0
 23 24  2  0
 23 27  1  0
M  END
$$$$
