
     RDKit          3D

 27 28  0  0  0  0  0  0  0  0999 V2000
   21.2847   -6.1771   47.0234 C   0  0  0  0  0  0  0  0  0  0  0  0
   21.2966   -7.0325   45.7738 C   0  0  0  0  0  0  0  0  0  0  0  0
   22.2346   -6.4567   44.7322 C   0  0  0  0  0  0  0  0  0  0  0  0
   22.1473   -7.3594   43.5149 C   0  0  0  0  0  0  0  0  0  0  0  0
   22.7100   -6.6524   42.2850 C   0  0  0  0  0  0  0  0  0  0  0  0
   24.2373   -6.6439   42.3491 C   0  0  0  0  0  0  0  0  0  0  0  0
   24.7128   -6.2706   40.9611 C   0  0  2  0  0  0  0  0  0  0  0  0
   25.6824   -5.1258   41.0984 C   0  0  0  0  0  0  0  0  0  0  0  0
   23.5300   -5.7842   40.1513 C   0  0  0  0  0  0  0  0  0  0  0  0
   25.3350   -7.4506   40.2760 C   0  0  0  0  0  0  0  0  0  0  0  0
   26.2553   -7.3284   39.2852 C   0  0  0  0  0  0  0  0  0  0  0  0
   26.7887   -8.4713   38.6964 C   0  0  0  0  0  0  0  0  0  0  0  0
   26.4122   -9.7348   39.0875 C   0  0  0  0  0  0  0  0  0  0  0  0
   26.9563  -10.9528   38.4990 C   0  0  2  0  0  0  0  0  0  0  0  0
   28.4656  -10.8840   38.6023 C   0  0  0  0  0  0  0  0  0  0  0  0
   29.0653  -12.2371   38.2662 C   0  0  1  0  0  0  0  0  0  0  0  0
   27.9927  -13.1666   37.7536 C   0  0  0  0  0  0  0  0  0  0  0  0
   27.1393  -12.5185   36.6819 C   0  0  0  0  0  0  0  0  0  0  0  0
   26.6121  -11.1494   37.0231 C   0  0  1  0  0  0  0  0  0  0  0  0
   25.1448  -11.0595   36.8223 C   0  0  0  0  0  0  0  0  0  0  0  0
   24.6797  -10.6244   35.4982 C   0  0  0  0  0  0  0  0  0  0  0  0
   23.4673  -11.2424   34.8866 C   0  0  0  0  0  0  0  0  0  0  0  0
   25.4776   -9.8353   40.0940 C   0  0  0  0  0  0  0  0  0  0  0  0
   24.9342   -8.6974   40.6934 C   0  0  0  0  0  0  0  0  0  0  0  0
   30.0971  -12.1353   37.3565 O   0  0  0  0  0  0  0  0  0  0  0  0
   22.3018  -10.7728   35.5994 O   0  0  0  0  0  0  0  0  0  0  0  0
   25.0220  -11.0557   40.5707 O   0  0  0  0  0  0  0  0  0  0  0  0
  1  2  1  0
  2  3  1  0
  3  4  1  0
  4  5  1  0
  5  6  1  0
  6  7  1  0
  7  8  1  1
  7  9  1  0
  7 10  1  0
 10 11  2  0
 10 24  1  0
 11 12  1  0
 12 13  2  0
 14 13  1  6
 13 23  1  0
 14 15  1  0
 14 19  1  0
 15 16  1  0
 16 17  1  0
 16 25  1  6
 17 18  1  0
 18 19  1  0
 19 20  1  1
 20 21  1  0
 21 22  1  0
 22 26  1  0
 23 24  2  0
 23 27  1  0
M  END
$$$$
