
     RDKit          3D

 23 25  0  0  0  0  0  0  0  0999 V2000
  -22.6256   18.9592  133.5017 O   0  0  0  0  0  1  0  0  0  0  0  0
  -21.4149   18.5569  132.9752 C   0  0  0  0  0  0  0  0  0  0  0  0
  -21.1077   18.8557  131.7916 O   0  0  0  0  0  0  0  0  0  0  0  0
  -20.4637   17.7685  133.7989 C   0  0  0  0  0  0  0  0  0  0  0  0
  -20.7612   17.3918  134.9700 N   0  0  0  0  0  0  0  0  0  0  0  0
  -19.1435   17.4252  133.2205 C   0  0  0  0  0  0  0  0  0  0  0  0
  -19.2662   16.7528  131.9956 O   0  0  0  0  0  0  0  0  0  0  0  0
  -18.3238   16.6473  134.1559 C   0  0  0  0  0  0  0  0  0  0  0  0
  -17.1641   16.2719  133.8171 O   0  0  0  0  0  0  0  0  0  0  0  0
  -18.7818   16.2657  135.5044 C   0  0  0  0  0  0  0  0  0  0  0  0
  -19.9768   16.6409  135.8800 C   0  0  0  0  0  0  0  0  0  0  0  0
  -20.4826   16.2885  137.2110 C   0  0  0  0  0  0  0  0  0  0  0  0
  -20.2494   17.1354  138.2527 C   0  0  0  0  0  0  0  0  0  0  0  0
  -19.5111   18.3959  138.1124 C   0  0  0  0  0  0  0  0  0  0  0  0
  -20.7346   16.7957  139.5261 C   0  0  0  0  0  0  0  0  0  0  0  0
  -21.1857   15.1226  137.4273 C   0  0  0  0  0  0  0  0  0  0  0  0
  -21.6740   14.7787  138.7040 C   0  0  0  0  0  0  0  0  0  0  0  0
  -21.4333   15.6398  139.7478 C   0  0  0  0  0  0  0  0  0  0  0  0
  -21.9245   15.3186  141.0921 C   0  0  0  0  0  0  0  0  0  0  0  0
  -21.9402   14.1077  141.6693 N   0  0  0  0  0  0  0  0  0  0  0  0
  -22.4562   14.2197  142.8817 N   0  0  0  0  0  0  0  0  0  0  0  0
  -22.7597   15.4979  143.0554 N   0  0  0  0  0  0  0  0  0  0  0  0
  -22.4430   16.1896  141.9729 N   0  0  0  0  0  0  0  0  0  0  0  0
  1  2  1  0
  2  3  2  0
  2  4  1  0
  4  5  2  0
  4  6  1  0
  5 11  1  0
  6  7  1  0
  6  8  1  0
  8  9  2  0
  8 10  1  0
 10 11  2  0
 11 12  1  0
 12 13  2  0
 12 16  1  0
 13 14  1  0
 13 15  1  0
 15 18  2  0
 16 17  2  0
 17 18  1  0
 18 19  1  0
 19 20  2  0
 19 23  1  0
 20 21  1  0
 21 22  2  0
 22 23  1  0
M  CHG  1   1  -1
M  END
$$$$
