
     RDKit          3D

 23 25  0  0  0  0  0  0  0  0999 V2000
  -22.3301   19.3208  133.5842 O   0  0  0  0  0  1  0  0  0  0  0  0
  -21.1868   18.7916  133.0208 C   0  0  0  0  0  0  0  0  0  0  0  0
  -20.8900   19.0521  131.8255 O   0  0  0  0  0  0  0  0  0  0  0  0
  -20.2963   17.9105  133.8181 C   0  0  0  0  0  0  0  0  0  0  0  0
  -20.6203   17.5222  134.9784 N   0  0  0  0  0  0  0  0  0  0  0  0
  -19.0056   17.4876  133.2261 C   0  0  0  0  0  0  0  0  0  0  0  0
  -19.1785   16.8629  131.9821 O   0  0  0  0  0  0  0  0  0  0  0  0
  -18.2454   16.6235  134.1358 C   0  0  0  0  0  0  0  0  0  0  0  0
  -17.1170   16.1733  133.7828 O   0  0  0  0  0  0  0  0  0  0  0  0
  -18.7298   16.2369  135.4736 C   0  0  0  0  0  0  0  0  0  0  0  0
  -19.8934   16.6885  135.8635 C   0  0  0  0  0  0  0  0  0  0  0  0
  -20.4232   16.3351  137.1849 C   0  0  0  0  0  0  0  0  0  0  0  0
  -20.3966   17.2667  138.1788 C   0  0  0  0  0  0  0  0  0  0  0  0
  -19.8602   18.6204  137.9959 C   0  0  0  0  0  0  0  0  0  0  0  0
  -20.9043   16.9260  139.4431 C   0  0  0  0  0  0  0  0  0  0  0  0
  -20.9449   15.0847  137.4392 C   0  0  0  0  0  0  0  0  0  0  0  0
  -21.4553   14.7394  138.7069 C   0  0  0  0  0  0  0  0  0  0  0  0
  -21.4237   15.6863  139.7025 C   0  0  0  0  0  0  0  0  0  0  0  0
  -21.9449   15.3669  141.0358 C   0  0  0  0  0  0  0  0  0  0  0  0
  -22.6037   16.1986  141.8568 N   0  0  0  0  0  0  0  0  0  0  0  0
  -22.9111   15.5479  142.9663 N   0  0  0  0  0  0  0  0  0  0  0  0
  -22.4435   14.3151  142.8329 N   0  0  0  0  0  0  0  0  0  0  0  0
  -21.8481   14.1814  141.6589 N   0  0  0  0  0  0  0  0  0  0  0  0
  1  2  1  0
  2  3  2  0
  2  4  1  0
  4  5  2  0
  4  6  1  0
  5 11  1  0
  6  7  1  0
  6  8  1  0
  8  9  2  0
  8 10  1  0
 10 11  2  0
 11 12  1  0
 12 13  2  0
 12 16  1  0
 13 14  1  0
 13 15  1  0
 15 18  2  0
 16 17  2  0
 17 18  1  0
 18 19  1  0
 19 20  2  0
 19 23  1  0
 20 21  1  0
 21 22  2  0
 22 23  1  0
M  CHG  1   1  -1
M  END
$$$$
