
     RDKit          3D

 23 25  0  0  0  0  0  0  0  0999 V2000
  -22.3189   19.6588  133.6777 O   0  0  0  0  0  1  0  0  0  0  0  0
  -21.2060   19.1044  133.0788 C   0  0  0  0  0  0  0  0  0  0  0  0
  -20.8969   19.4201  131.9000 O   0  0  0  0  0  0  0  0  0  0  0  0
  -20.3630   18.1309  133.8181 C   0  0  0  0  0  0  0  0  0  0  0  0
  -20.6631   17.7549  134.9888 N   0  0  0  0  0  0  0  0  0  0  0  0
  -19.1492   17.5997  133.1549 C   0  0  0  0  0  0  0  0  0  0  0  0
  -19.4427   17.0149  131.9141 O   0  0  0  0  0  0  0  0  0  0  0  0
  -18.4285   16.6533  134.0134 C   0  0  0  0  0  0  0  0  0  0  0  0
  -17.3666   16.1060  133.5970 O   0  0  0  0  0  0  0  0  0  0  0  0
  -18.8789   16.2909  135.3698 C   0  0  0  0  0  0  0  0  0  0  0  0
  -19.9738   16.8422  135.8250 C   0  0  0  0  0  0  0  0  0  0  0  0
  -20.4671   16.5174  137.1676 C   0  0  0  0  0  0  0  0  0  0  0  0
  -19.5933   16.5251  138.2130 C   0  0  0  0  0  0  0  0  0  0  0  0
  -18.1686   16.8448  138.0658 C   0  0  0  0  0  0  0  0  0  0  0  0
  -20.0679   16.2136  139.4975 C   0  0  0  0  0  0  0  0  0  0  0  0
  -21.7913   16.2060  137.3910 C   0  0  0  0  0  0  0  0  0  0  0  0
  -22.2710   15.8929  138.6789 C   0  0  0  0  0  0  0  0  0  0  0  0
  -21.3814   15.9035  139.7264 C   0  0  0  0  0  0  0  0  0  0  0  0
  -21.8404   15.5835  141.0823 C   0  0  0  0  0  0  0  0  0  0  0  0
  -21.3952   16.1256  142.2257 N   0  0  0  0  0  0  0  0  0  0  0  0
  -22.0497   15.5827  143.2385 N   0  0  0  0  0  0  0  0  0  0  0  0
  -22.8990   14.7055  142.7233 N   0  0  0  0  0  0  0  0  0  0  0  0
  -22.7885   14.6890  141.4049 N   0  0  0  0  0  0  0  0  0  0  0  0
  1  2  1  0
  2  3  2  0
  2  4  1  0
  4  5  2  0
  4  6  1  0
  5 11  1  0
  6  7  1  0
  6  8  1  0
  8  9  2  0
  8 10  1  0
 10 11  2  0
 11 12  1  0
 12 13  2  0
 12 16  1  0
 13 14  1  0
 13 15  1  0
 15 18  2  0
 16 17  2  0
 17 18  1  0
 18 19  1  0
 19 20  2  0
 19 23  1  0
 20 21  1  0
 21 22  2  0
 22 23  1  0
M  CHG  1   1  -1
M  END
$$$$
