
     RDKit          3D

 23 25  0  0  0  0  0  0  0  0999 V2000
  -17.5174   16.0429  134.0495 O   0  0  0  0  0  1  0  0  0  0  0  0
  -18.5761   16.2440  134.9118 C   0  0  0  0  0  0  0  0  0  0  0  0
  -18.5009   15.8604  136.1084 O   0  0  0  0  0  0  0  0  0  0  0  0
  -19.8132   16.9142  134.4370 C   0  0  0  0  0  0  0  0  0  0  0  0
  -20.7838   17.1363  135.2184 N   0  0  0  0  0  0  0  0  0  0  0  0
  -19.8944   17.3240  133.0155 C   0  0  0  0  0  0  0  0  0  0  0  0
  -18.8232   18.1509  132.6459 O   0  0  0  0  0  0  0  0  0  0  0  0
  -21.1748   17.9697  132.7063 C   0  0  0  0  0  0  0  0  0  0  0  0
  -21.4070   18.3810  131.5326 O   0  0  0  0  0  0  0  0  0  0  0  0
  -22.2373   18.1744  133.7079 C   0  0  0  0  0  0  0  0  0  0  0  0
  -22.0232   17.7587  134.9291 C   0  0  0  0  0  0  0  0  0  0  0  0
  -23.0462   17.9369  135.9651 C   0  0  0  0  0  0  0  0  0  0  0  0
  -23.0586   19.0899  136.6910 C   0  0  0  0  0  0  0  0  0  0  0  0
  -22.0922   20.1757  136.4892 C   0  0  0  0  0  0  0  0  0  0  0  0
  -24.0390   19.2580  137.6824 C   0  0  0  0  0  0  0  0  0  0  0  0
  -23.9906   16.9648  136.2173 C   0  0  0  0  0  0  0  0  0  0  0  0
  -24.9759   17.1303  137.2117 C   0  0  0  0  0  0  0  0  0  0  0  0
  -24.9795   18.2970  137.9381 C   0  0  0  0  0  0  0  0  0  0  0  0
  -25.9882   18.5083  138.9819 C   0  0  0  0  0  0  0  0  0  0  0  0
  -26.4696   17.5844  139.8270 N   0  0  0  0  0  0  0  0  0  0  0  0
  -27.3611   18.1547  140.6199 N   0  0  0  0  0  0  0  0  0  0  0  0
  -27.4320   19.4300  140.2665 N   0  0  0  0  0  0  0  0  0  0  0  0
  -26.6003   19.6693  139.2657 N   0  0  0  0  0  0  0  0  0  0  0  0
  1  2  1  0
  2  3  2  0
  2  4  1  0
  4  5  2  0
  4  6  1  0
  5 11  1  0
  6  7  1  0
  6  8  1  0
  8  9  2  0
  8 10  1  0
 10 11  2  0
 11 12  1  0
 12 13  2  0
 12 16  1  0
 13 14  1  0
 13 15  1  0
 15 18  2  0
 16 17  2  0
 17 18  1  0
 18 19  1  0
 19 20  2  0
 19 23  1  0
 20 21  1  0
 21 22  2  0
 22 23  1  0
M  CHG  1   1  -1
M  END
$$$$
