
     RDKit          3D

 23 25  0  0  0  0  0  0  0  0999 V2000
  -22.2751   19.0583  133.4221 O   0  0  0  0  0  1  0  0  0  0  0  0
  -21.0780   18.5784  132.9364 C   0  0  0  0  0  0  0  0  0  0  0  0
  -20.7266   18.8584  131.7788 O   0  0  0  0  0  0  0  0  0  0  0  0
  -20.2497   17.7399  133.8219 C   0  0  0  0  0  0  0  0  0  0  0  0
  -20.6207   17.4297  134.9932 N   0  0  0  0  0  0  0  0  0  0  0  0
  -18.9719   17.2868  133.2668 C   0  0  0  0  0  0  0  0  0  0  0  0
  -19.3111   16.4343  132.1823 O   0  0  0  0  0  0  0  0  0  0  0  0
  -18.2375   16.4670  134.2263 C   0  0  0  0  0  0  0  0  0  0  0  0
  -17.0918   15.9630  133.9517 O   0  0  0  0  0  0  0  0  0  0  0  0
  -18.7588   16.1734  135.5467 C   0  0  0  0  0  0  0  0  0  0  0  0
  -19.9255   16.6352  135.9438 C   0  0  0  0  0  0  0  0  0  0  0  0
  -20.4792   16.3607  137.2609 C   0  0  0  0  0  0  0  0  0  0  0  0
  -19.8388   16.7827  138.4225 C   0  0  0  0  0  0  0  0  0  0  0  0
  -18.5729   17.5249  138.3568 C   0  0  0  0  0  0  0  0  0  0  0  0
  -20.3926   16.5054  139.6670 C   0  0  0  0  0  0  0  0  0  0  0  0
  -21.6510   15.6771  137.4115 C   0  0  0  0  0  0  0  0  0  0  0  0
  -22.2053   15.4001  138.6705 C   0  0  0  0  0  0  0  0  0  0  0  0
  -21.5744   15.8152  139.7986 C   0  0  0  0  0  0  0  0  0  0  0  0
  -22.1513   15.5275  141.1239 C   0  0  0  0  0  0  0  0  0  0  0  0
  -22.7351   14.3812  141.4990 N   0  0  0  0  0  0  0  0  0  0  0  0
  -23.1330   14.4938  142.7648 N   0  0  0  0  0  0  0  0  0  0  0  0
  -22.8044   15.7075  143.1961 N   0  0  0  0  0  0  0  0  0  0  0  0
  -22.1999   16.3455  142.1873 N   0  0  0  0  0  0  0  0  0  0  0  0
  1  2  1  0
  2  3  2  0
  2  4  1  0
  4  5  2  0
  4  6  1  0
  5 11  1  0
  6  7  1  0
  6  8  1  0
  8  9  2  0
  8 10  1  0
 10 11  2  0
 11 12  1  0
 12 13  2  0
 12 16  1  0
 14 13  1  1
 13 15  1  0
 15 18  2  0
 16 17  2  0
 17 18  1  0
 18 19  1  0
 19 20  2  0
 19 23  1  0
 20 21  1  0
 21 22  2  0
 22 23  1  0
M  CHG  1   1  -1
M  END
$$$$
