
     RDKit          3D

 23 25  0  0  0  0  0  0  0  0999 V2000
  -21.0054   19.2673  131.5581 O   0  0  0  0  0  1  0  0  0  0  0  0
  -21.3404   18.9481  132.8583 C   0  0  0  0  0  0  0  0  0  0  0  0
  -22.3997   19.3974  133.3687 O   0  0  0  0  0  0  0  0  0  0  0  0
  -20.4553   18.0722  133.6673 C   0  0  0  0  0  0  0  0  0  0  0  0
  -20.7621   17.7354  134.8482 N   0  0  0  0  0  0  0  0  0  0  0  0
  -19.1907   17.5926  133.0623 C   0  0  0  0  0  0  0  0  0  0  0  0
  -19.4097   16.9282  131.8465 O   0  0  0  0  0  0  0  0  0  0  0  0
  -18.4327   16.7413  133.9859 C   0  0  0  0  0  0  0  0  0  0  0  0
  -17.3254   16.2476  133.6244 O   0  0  0  0  0  0  0  0  0  0  0  0
  -18.8955   16.4171  135.3477 C   0  0  0  0  0  0  0  0  0  0  0  0
  -20.0371   16.9145  135.7469 C   0  0  0  0  0  0  0  0  0  0  0  0
  -20.5449   16.6241  137.0920 C   0  0  0  0  0  0  0  0  0  0  0  0
  -19.7539   16.8899  138.1691 C   0  0  0  0  0  0  0  0  0  0  0  0
  -18.4057   17.4579  138.0541 C   0  0  0  0  0  0  0  0  0  0  0  0
  -20.2423   16.6108  139.4560 C   0  0  0  0  0  0  0  0  0  0  0  0
  -21.8008   16.0900  137.2863 C   0  0  0  0  0  0  0  0  0  0  0  0
  -22.2940   15.8087  138.5764 C   0  0  0  0  0  0  0  0  0  0  0  0
  -21.4882   16.0805  139.6561 C   0  0  0  0  0  0  0  0  0  0  0  0
  -21.9642   15.8024  141.0154 C   0  0  0  0  0  0  0  0  0  0  0  0
  -21.7374   16.5451  142.1093 N   0  0  0  0  0  0  0  0  0  0  0  0
  -22.3280   15.9716  143.1442 N   0  0  0  0  0  0  0  0  0  0  0  0
  -22.9197   14.8753  142.6922 N   0  0  0  0  0  0  0  0  0  0  0  0
  -22.7104   14.7513  141.3917 N   0  0  0  0  0  0  0  0  0  0  0  0
  1  2  1  0
  2  3  2  0
  2  4  1  0
  4  5  2  0
  4  6  1  0
  5 11  1  0
  6  7  1  0
  6  8  1  0
  8  9  2  0
  8 10  1  0
 10 11  2  0
 11 12  1  0
 12 13  2  0
 12 16  1  0
 13 14  1  0
 13 15  1  0
 15 18  2  0
 16 17  2  0
 17 18  1  0
 18 19  1  0
 19 20  2  0
 19 23  1  0
 20 21  1  0
 21 22  2  0
 22 23  1  0
M  CHG  1   1  -1
M  END
$$$$
