
     RDKit          3D

 23 25  0  0  0  0  0  0  0  0999 V2000
  -20.5419   18.5812  131.6826 O   0  0  0  0  0  1  0  0  0  0  0  0
  -20.8319   18.5864  133.0298 C   0  0  0  0  0  0  0  0  0  0  0  0
  -21.7702   19.2797  133.4551 O   0  0  0  0  0  0  0  0  0  0  0  0
  -20.0057   17.7575  133.9263 C   0  0  0  0  0  0  0  0  0  0  0  0
  -20.3811   17.4572  135.0988 N   0  0  0  0  0  0  0  0  0  0  0  0
  -18.7248   17.3016  133.3807 C   0  0  0  0  0  0  0  0  0  0  0  0
  -19.0579   16.4388  132.3026 O   0  0  0  0  0  0  0  0  0  0  0  0
  -17.9930   16.4920  134.3508 C   0  0  0  0  0  0  0  0  0  0  0  0
  -16.8452   15.9876  134.0855 O   0  0  0  0  0  0  0  0  0  0  0  0
  -18.5193   16.2094  135.6716 C   0  0  0  0  0  0  0  0  0  0  0  0
  -19.6885   16.6726  136.0596 C   0  0  0  0  0  0  0  0  0  0  0  0
  -20.2472   16.4091  137.3767 C   0  0  0  0  0  0  0  0  0  0  0  0
  -20.8018   17.4256  138.1493 C   0  0  0  0  0  0  0  0  0  0  0  0
  -20.8415   18.8089  137.6566 C   0  0  0  0  0  0  0  0  0  0  0  0
  -21.3281   17.1427  139.4044 C   0  0  0  0  0  0  0  0  0  0  0  0
  -20.2506   15.1524  137.9095 C   0  0  0  0  0  0  0  0  0  0  0  0
  -20.7834   14.8729  139.1772 C   0  0  0  0  0  0  0  0  0  0  0  0
  -21.3224   15.8700  139.9243 C   0  0  0  0  0  0  0  0  0  0  0  0
  -21.8836   15.5831  141.2565 C   0  0  0  0  0  0  0  0  0  0  0  0
  -22.1061   14.3675  141.7745 N   0  0  0  0  0  0  0  0  0  0  0  0
  -22.6190   14.5061  142.9956 N   0  0  0  0  0  0  0  0  0  0  0  0
  -22.7235   15.8054  143.2560 N   0  0  0  0  0  0  0  0  0  0  0  0
  -22.2712   16.4702  142.1866 N   0  0  0  0  0  0  0  0  0  0  0  0
  1  2  1  0
  2  3  2  0
  2  4  1  0
  4  5  2  0
  4  6  1  0
  5 11  1  0
  6  7  1  0
  6  8  1  0
  8  9  2  0
  8 10  1  0
 10 11  2  0
 11 12  1  0
 12 13  2  0
 12 16  1  0
 14 13  1  1
 13 15  1  0
 15 18  2  0
 16 17  2  0
 17 18  1  0
 18 19  1  0
 19 20  2  0
 19 23  1  0
 20 21  1  0
 21 22  2  0
 22 23  1  0
M  CHG  1   1  -1
M  END
$$$$
