
     RDKit          3D

 23 25  0  0  0  0  0  0  0  0999 V2000
  -20.1233   19.1740  131.1672 O   0  0  0  0  0  1  0  0  0  0  0  0
  -20.7397   19.2530  132.3996 C   0  0  0  0  0  0  0  0  0  0  0  0
  -21.6751   20.0738  132.5891 O   0  0  0  0  0  0  0  0  0  0  0  0
  -20.3061   18.3713  133.5129 C   0  0  0  0  0  0  0  0  0  0  0  0
  -20.9761   18.2833  134.5831 N   0  0  0  0  0  0  0  0  0  0  0  0
  -19.0605   17.5859  133.3488 C   0  0  0  0  0  0  0  0  0  0  0  0
  -19.0908   16.7892  132.1948 O   0  0  0  0  0  0  0  0  0  0  0  0
  -18.7712   16.7686  134.5323 C   0  0  0  0  0  0  0  0  0  0  0  0
  -17.7404   16.0356  134.5563 O   0  0  0  0  0  0  0  0  0  0  0  0
  -19.6326   16.7488  135.7287 C   0  0  0  0  0  0  0  0  0  0  0  0
  -20.7048   17.4974  135.7303 C   0  0  0  0  0  0  0  0  0  0  0  0
  -21.5969   17.5159  136.8946 C   0  0  0  0  0  0  0  0  0  0  0  0
  -22.9160   17.2217  136.7218 C   0  0  0  0  0  0  0  0  0  0  0  0
  -23.4987   16.8831  135.4181 C   0  0  0  0  0  0  0  0  0  0  0  0
  -23.7681   17.2403  137.8380 C   0  0  0  0  0  0  0  0  0  0  0  0
  -21.1286   17.8239  138.1540 C   0  0  0  0  0  0  0  0  0  0  0  0
  -21.9810   17.8435  139.2764 C   0  0  0  0  0  0  0  0  0  0  0  0
  -23.3097   17.5452  139.0912 C   0  0  0  0  0  0  0  0  0  0  0  0
  -24.2300   17.5545  140.2334 C   0  0  0  0  0  0  0  0  0  0  0  0
  -23.9577   17.9808  141.4759 N   0  0  0  0  0  0  0  0  0  0  0  0
  -25.0374   17.8312  142.2245 N   0  0  0  0  0  0  0  0  0  0  0  0
  -25.9773   17.3130  141.4471 N   0  0  0  0  0  0  0  0  0  0  0  0
  -25.5056   17.1350  140.2238 N   0  0  0  0  0  0  0  0  0  0  0  0
  1  2  1  0
  2  3  2  0
  2  4  1  0
  4  5  2  0
  4  6  1  0
  5 11  1  0
  6  7  1  0
  6  8  1  0
  8  9  2  0
  8 10  1  0
 10 11  2  0
 11 12  1  0
 12 13  2  0
 12 16  1  0
 13 14  1  0
 13 15  1  0
 15 18  2  0
 16 17  2  0
 17 18  1  0
 18 19  1  0
 19 20  2  0
 19 23  1  0
 20 21  1  0
 21 22  2  0
 22 23  1  0
M  CHG  1   1  -1
M  END
$$$$
