
     RDKit          3D

 23 25  0  0  0  0  0  0  0  0999 V2000
  -18.4280   16.1185  136.6805 O   0  0  0  0  0  1  0  0  0  0  0  0
  -18.4579   16.4853  135.3525 C   0  0  0  0  0  0  0  0  0  0  0  0
  -17.4446   16.3377  134.6499 O   0  0  0  0  0  0  0  0  0  0  0  0
  -19.7085   17.0462  134.8097 C   0  0  0  0  0  0  0  0  0  0  0  0
  -20.7078   17.2970  135.5475 N   0  0  0  0  0  0  0  0  0  0  0  0
  -19.7270   17.2964  133.3664 C   0  0  0  0  0  0  0  0  0  0  0  0
  -18.7557   18.3091  133.1450 O   0  0  0  0  0  0  0  0  0  0  0  0
  -21.0094   17.8497  132.9403 C   0  0  0  0  0  0  0  0  0  0  0  0
  -21.2479   18.1456  131.7165 O   0  0  0  0  0  0  0  0  0  0  0  0
  -22.0898   18.0979  133.8743 C   0  0  0  0  0  0  0  0  0  0  0  0
  -21.9638   17.8343  135.1575 C   0  0  0  0  0  0  0  0  0  0  0  0
  -23.0265   18.0706  136.1227 C   0  0  0  0  0  0  0  0  0  0  0  0
  -23.5972   17.0280  136.8472 C   0  0  0  0  0  0  0  0  0  0  0  0
  -23.1422   15.6440  136.6600 C   0  0  0  0  0  0  0  0  0  0  0  0
  -24.6112   17.2852  137.7626 C   0  0  0  0  0  0  0  0  0  0  0  0
  -23.5079   19.3261  136.3575 C   0  0  0  0  0  0  0  0  0  0  0  0
  -24.5317   19.5795  137.2829 C   0  0  0  0  0  0  0  0  0  0  0  0
  -25.0831   18.5572  137.9855 C   0  0  0  0  0  0  0  0  0  0  0  0
  -26.1588   18.8167  138.9590 C   0  0  0  0  0  0  0  0  0  0  0  0
  -26.3778   18.1381  140.0934 N   0  0  0  0  0  0  0  0  0  0  0  0
  -27.4362   18.6596  140.7106 N   0  0  0  0  0  0  0  0  0  0  0  0
  -27.8912   19.6674  139.9729 N   0  0  0  0  0  0  0  0  0  0  0  0
  -27.1060   19.7658  138.8940 N   0  0  0  0  0  0  0  0  0  0  0  0
  1  2  1  0
  2  3  2  0
  2  4  1  0
  4  5  2  0
  4  6  1  0
  5 11  1  0
  6  7  1  0
  6  8  1  0
  8  9  2  0
  8 10  1  0
 10 11  2  0
 11 12  1  0
 12 13  2  0
 12 16  1  0
 14 13  1  1
 13 15  1  0
 15 18  2  0
 16 17  2  0
 17 18  1  0
 18 19  1  0
 19 20  2  0
 19 23  1  0
 20 21  1  0
 21 22  2  0
 22 23  1  0
M  CHG  1   1  -1
M  END
$$$$
