
     RDKit          3D

 23 25  0  0  0  0  0  0  0  0999 V2000
  -17.9405   15.3266  134.0817 O   0  0  0  0  0  1  0  0  0  0  0  0
  -18.9205   15.6869  134.9810 C   0  0  0  0  0  0  0  0  0  0  0  0
  -18.8640   15.2751  136.1512 O   0  0  0  0  0  0  0  0  0  0  0  0
  -20.0131   16.5589  134.5128 C   0  0  0  0  0  0  0  0  0  0  0  0
  -21.0206   16.8199  135.2358 N   0  0  0  0  0  0  0  0  0  0  0  0
  -19.8646   17.1056  133.1618 C   0  0  0  0  0  0  0  0  0  0  0  0
  -18.7287   17.9565  133.2203 O   0  0  0  0  0  0  0  0  0  0  0  0
  -20.9999   17.9512  132.8039 C   0  0  0  0  0  0  0  0  0  0  0  0
  -21.0797   18.5342  131.6655 O   0  0  0  0  0  0  0  0  0  0  0  0
  -22.1049   18.1828  133.7132 C   0  0  0  0  0  0  0  0  0  0  0  0
  -22.1357   17.6380  134.9108 C   0  0  0  0  0  0  0  0  0  0  0  0
  -23.2278   17.8485  135.8487 C   0  0  0  0  0  0  0  0  0  0  0  0
  -22.9909   18.1751  137.1810 C   0  0  0  0  0  0  0  0  0  0  0  0
  -21.6199   18.3191  137.6882 C   0  0  0  0  0  0  0  0  0  0  0  0
  -24.0554   18.3702  138.0534 C   0  0  0  0  0  0  0  0  0  0  0  0
  -24.5313   17.7342  135.4600 C   0  0  0  0  0  0  0  0  0  0  0  0
  -25.6017   17.9324  136.3453 C   0  0  0  0  0  0  0  0  0  0  0  0
  -25.3621   18.2507  137.6431 C   0  0  0  0  0  0  0  0  0  0  0  0
  -26.4820   18.4601  138.5781 C   0  0  0  0  0  0  0  0  0  0  0  0
  -26.3783   18.7728  139.8769 N   0  0  0  0  0  0  0  0  0  0  0  0
  -27.6008   18.8806  140.3936 N   0  0  0  0  0  0  0  0  0  0  0  0
  -28.4817   18.6376  139.4281 N   0  0  0  0  0  0  0  0  0  0  0  0
  -27.7948   18.3785  138.3095 N   0  0  0  0  0  0  0  0  0  0  0  0
  1  2  1  0
  2  3  2  0
  2  4  1  0
  4  5  2  0
  4  6  1  0
  5 11  1  0
  6  7  1  0
  6  8  1  0
  8  9  2  0
  8 10  1  0
 10 11  2  0
 11 12  1  0
 12 13  2  0
 12 16  1  0
 14 13  1  1
 13 15  1  0
 15 18  2  0
 16 17  2  0
 17 18  1  0
 18 19  1  0
 19 20  2  0
 19 23  1  0
 20 21  1  0
 21 22  2  0
 22 23  1  0
M  CHG  1   1  -1
M  END
$$$$
