
     RDKit          3D

 23 25  0  0  0  0  0  0  0  0999 V2000
  -21.2473   19.1663  132.0475 O   0  0  0  0  0  1  0  0  0  0  0  0
  -20.2419   18.3038  132.4349 C   0  0  0  0  0  0  0  0  0  0  0  0
  -19.2277   18.1445  131.7065 O   0  0  0  0  0  0  0  0  0  0  0  0
  -20.3466   17.5559  133.7134 C   0  0  0  0  0  0  0  0  0  0  0  0
  -21.3506   17.6863  134.4730 N   0  0  0  0  0  0  0  0  0  0  0  0
  -19.2427   16.6425  134.0907 C   0  0  0  0  0  0  0  0  0  0  0  0
  -18.9820   15.6935  133.0911 O   0  0  0  0  0  0  0  0  0  0  0  0
  -19.4966   15.9816  135.3755 C   0  0  0  0  0  0  0  0  0  0  0  0
  -18.6497   15.1670  135.8444 O   0  0  0  0  0  0  0  0  0  0  0  0
  -20.7125   16.2154  136.1761 C   0  0  0  0  0  0  0  0  0  0  0  0
  -21.6044   17.0528  135.7145 C   0  0  0  0  0  0  0  0  0  0  0  0
  -22.8322   17.3225  136.4703 C   0  0  0  0  0  0  0  0  0  0  0  0
  -22.7996   18.2355  137.4812 C   0  0  0  0  0  0  0  0  0  0  0  0
  -21.5877   18.9721  137.8585 C   0  0  0  0  0  0  0  0  0  0  0  0
  -23.9765   18.4918  138.2034 C   0  0  0  0  0  0  0  0  0  0  0  0
  -24.0128   16.6731  136.1789 C   0  0  0  0  0  0  0  0  0  0  0  0
  -25.1957   16.9279  136.9018 C   0  0  0  0  0  0  0  0  0  0  0  0
  -25.1520   17.8506  137.9194 C   0  0  0  0  0  0  0  0  0  0  0  0
  -26.3612   18.1446  138.6958 C   0  0  0  0  0  0  0  0  0  0  0  0
  -27.4403   17.3578  138.8234 N   0  0  0  0  0  0  0  0  0  0  0  0
  -28.3213   17.9647  139.6007 N   0  0  0  0  0  0  0  0  0  0  0  0
  -27.7890   19.1257  139.9541 N   0  0  0  0  0  0  0  0  0  0  0  0
  -26.5893   19.2574  139.4119 N   0  0  0  0  0  0  0  0  0  0  0  0
  1  2  1  0
  2  3  2  0
  2  4  1  0
  4  5  2  0
  4  6  1  0
  5 11  1  0
  6  7  1  0
  6  8  1  0
  8  9  2  0
  8 10  1  0
 10 11  2  0
 11 12  1  0
 12 13  2  0
 12 16  1  0
 13 14  1  0
 13 15  1  0
 15 18  2  0
 16 17  2  0
 17 18  1  0
 18 19  1  0
 19 20  2  0
 19 23  1  0
 20 21  1  0
 21 22  2  0
 22 23  1  0
M  CHG  1   1  -1
M  END
$$$$
