
     RDKit          3D

 23 25  0  0  0  0  0  0  0  0999 V2000
  -20.0856   20.8188  133.7097 O   0  0  0  0  0  1  0  0  0  0  0  0
  -19.4553   19.5988  133.5714 C   0  0  0  0  0  0  0  0  0  0  0  0
  -18.3233   19.5283  133.0255 O   0  0  0  0  0  0  0  0  0  0  0  0
  -20.1056   18.3585  134.0650 C   0  0  0  0  0  0  0  0  0  0  0  0
  -21.1263   18.4020  134.8123 N   0  0  0  0  0  0  0  0  0  0  0  0
  -19.5333   17.0522  133.6635 C   0  0  0  0  0  0  0  0  0  0  0  0
  -19.4376   16.9274  132.2696 O   0  0  0  0  0  0  0  0  0  0  0  0
  -20.2871   15.9289  134.2311 C   0  0  0  0  0  0  0  0  0  0  0  0
  -19.9295   14.7405  133.9853 O   0  0  0  0  0  0  0  0  0  0  0  0
  -21.4690   16.1054  135.0948 C   0  0  0  0  0  0  0  0  0  0  0  0
  -21.8603   17.3235  135.3649 C   0  0  0  0  0  0  0  0  0  0  0  0
  -23.0298   17.5566  136.2188 C   0  0  0  0  0  0  0  0  0  0  0  0
  -24.1331   18.1493  135.6821 C   0  0  0  0  0  0  0  0  0  0  0  0
  -24.2147   18.5717  134.2790 C   0  0  0  0  0  0  0  0  0  0  0  0
  -25.2515   18.3716  136.5018 C   0  0  0  0  0  0  0  0  0  0  0  0
  -23.0342   17.1894  137.5476 C   0  0  0  0  0  0  0  0  0  0  0  0
  -24.1551   17.4109  138.3730 C   0  0  0  0  0  0  0  0  0  0  0  0
  -25.2626   18.0095  137.8218 C   0  0  0  0  0  0  0  0  0  0  0  0
  -26.4497   18.2577  138.6470 C   0  0  0  0  0  0  0  0  0  0  0  0
  -27.7260   18.2502  138.2340 N   0  0  0  0  0  0  0  0  0  0  0  0
  -28.5096   18.5168  139.2654 N   0  0  0  0  0  0  0  0  0  0  0  0
  -27.7200   18.6892  140.3156 N   0  0  0  0  0  0  0  0  0  0  0  0
  -26.4547   18.5354  139.9608 N   0  0  0  0  0  0  0  0  0  0  0  0
  1  2  1  0
  2  3  2  0
  2  4  1  0
  4  5  2  0
  4  6  1  0
  5 11  1  0
  6  7  1  0
  6  8  1  0
  8  9  2  0
  8 10  1  0
 10 11  2  0
 11 12  1  0
 12 13  2  0
 12 16  1  0
 13 14  1  0
 13 15  1  0
 15 18  2  0
 16 17  2  0
 17 18  1  0
 18 19  1  0
 19 20  2  0
 19 23  1  0
 20 21  1  0
 21 22  2  0
 22 23  1  0
M  CHG  1   1  -1
M  END
$$$$
