
     RDKit          3D

 23 25  0  0  0  0  0  0  0  0999 V2000
  -17.5044   15.9637  134.7672 O   0  0  0  0  0  1  0  0  0  0  0  0
  -18.6120   16.2129  135.5483 C   0  0  0  0  0  0  0  0  0  0  0  0
  -18.5948   15.9156  136.7539 O   0  0  0  0  0  0  0  0  0  0  0  0
  -19.7905   16.8311  134.9141 C   0  0  0  0  0  0  0  0  0  0  0  0
  -20.8266   17.1369  135.5765 N   0  0  0  0  0  0  0  0  0  0  0  0
  -19.6922   17.0709  133.4722 C   0  0  0  0  0  0  0  0  0  0  0  0
  -18.6579   18.0323  133.3177 O   0  0  0  0  0  0  0  0  0  0  0  0
  -20.9111   17.6839  132.9520 C   0  0  0  0  0  0  0  0  0  0  0  0
  -21.0456   17.9818  131.7129 O   0  0  0  0  0  0  0  0  0  0  0  0
  -22.0424   17.9926  133.8042 C   0  0  0  0  0  0  0  0  0  0  0  0
  -22.0227   17.7329  135.0943 C   0  0  0  0  0  0  0  0  0  0  0  0
  -23.1391   18.0291  135.9789 C   0  0  0  0  0  0  0  0  0  0  0  0
  -24.0079   17.0323  136.4140 C   0  0  0  0  0  0  0  0  0  0  0  0
  -23.8251   15.6375  135.9911 C   0  0  0  0  0  0  0  0  0  0  0  0
  -25.0658   17.3463  137.2592 C   0  0  0  0  0  0  0  0  0  0  0  0
  -23.3805   19.2984  136.4191 C   0  0  0  0  0  0  0  0  0  0  0  0
  -24.4502   19.6093  137.2723 C   0  0  0  0  0  0  0  0  0  0  0  0
  -25.2930   18.6313  137.6921 C   0  0  0  0  0  0  0  0  0  0  0  0
  -26.4183   18.9512  138.5883 C   0  0  0  0  0  0  0  0  0  0  0  0
  -27.6870   18.5471  138.4380 N   0  0  0  0  0  0  0  0  0  0  0  0
  -28.4162   19.0326  139.4409 N   0  0  0  0  0  0  0  0  0  0  0  0
  -27.6158   19.7440  140.2285 N   0  0  0  0  0  0  0  0  0  0  0  0
  -26.3853   19.6952  139.7054 N   0  0  0  0  0  0  0  0  0  0  0  0
  1  2  1  0
  2  3  2  0
  2  4  1  0
  4  5  2  0
  4  6  1  0
  5 11  1  0
  6  7  1  0
  6  8  1  0
  8  9  2  0
  8 10  1  0
 10 11  2  0
 11 12  1  0
 12 13  2  0
 12 16  1  0
 14 13  1  1
 13 15  1  0
 15 18  2  0
 16 17  2  0
 17 18  1  0
 18 19  1  0
 19 20  2  0
 19 23  1  0
 20 21  1  0
 21 22  2  0
 22 23  1  0
M  CHG  1   1  -1
M  END
$$$$
