
     RDKit          3D

 23 25  0  0  0  0  0  0  0  0999 V2000
  -20.9803   19.0687  131.8788 O   0  0  0  0  0  1  0  0  0  0  0  0
  -21.3015   18.9077  133.2092 C   0  0  0  0  0  0  0  0  0  0  0  0
  -22.3306   19.4347  133.6623 O   0  0  0  0  0  0  0  0  0  0  0  0
  -20.3989   18.1052  134.0546 C   0  0  0  0  0  0  0  0  0  0  0  0
  -20.7062   17.7729  135.2382 N   0  0  0  0  0  0  0  0  0  0  0  0
  -19.1254   17.7149  133.4446 C   0  0  0  0  0  0  0  0  0  0  0  0
  -19.4690   16.8522  132.3696 O   0  0  0  0  0  0  0  0  0  0  0  0
  -18.3144   16.9265  134.3680 C   0  0  0  0  0  0  0  0  0  0  0  0
  -17.1588   16.4780  134.0432 O   0  0  0  0  0  0  0  0  0  0  0  0
  -18.7663   16.6030  135.7068 C   0  0  0  0  0  0  0  0  0  0  0  0
  -19.9358   17.0078  136.1545 C   0  0  0  0  0  0  0  0  0  0  0  0
  -20.4211   16.7020  137.4915 C   0  0  0  0  0  0  0  0  0  0  0  0
  -21.3331   15.6751  137.7180 C   0  0  0  0  0  0  0  0  0  0  0  0
  -21.8399   14.8598  136.6062 C   0  0  0  0  0  0  0  0  0  0  0  0
  -21.7785   15.4066  139.0072 C   0  0  0  0  0  0  0  0  0  0  0  0
  -20.0012   17.4106  138.5800 C   0  0  0  0  0  0  0  0  0  0  0  0
  -20.4544   17.1349  139.8790 C   0  0  0  0  0  0  0  0  0  0  0  0
  -21.3439   16.1316  140.0915 C   0  0  0  0  0  0  0  0  0  0  0  0
  -21.8237   15.8370  141.4535 C   0  0  0  0  0  0  0  0  0  0  0  0
  -22.0112   14.6184  141.9782 N   0  0  0  0  0  0  0  0  0  0  0  0
  -22.4507   14.7500  143.2284 N   0  0  0  0  0  0  0  0  0  0  0  0
  -22.5434   16.0479  143.5005 N   0  0  0  0  0  0  0  0  0  0  0  0
  -22.1579   16.7188  142.4090 N   0  0  0  0  0  0  0  0  0  0  0  0
  1  2  1  0
  2  3  2  0
  2  4  1  0
  4  5  2  0
  4  6  1  0
  5 11  1  0
  6  7  1  0
  6  8  1  0
  8  9  2  0
  8 10  1  0
 10 11  2  0
 11 12  1  0
 12 13  2  0
 12 16  1  0
 14 13  1  1
 13 15  1  0
 15 18  2  0
 16 17  2  0
 17 18  1  0
 18 19  1  0
 19 20  2  0
 19 23  1  0
 20 21  1  0
 21 22  2  0
 22 23  1  0
M  CHG  1   1  -1
M  END
$$$$
