
     RDKit          3D

 23 25  0  0  0  0  0  0  0  0999 V2000
  -18.4474   15.7985  136.5549 O   0  0  0  0  0  1  0  0  0  0  0  0
  -18.4343   16.1327  135.2181 C   0  0  0  0  0  0  0  0  0  0  0  0
  -17.4160   15.9199  134.5400 O   0  0  0  0  0  0  0  0  0  0  0  0
  -19.6462   16.7382  134.6366 C   0  0  0  0  0  0  0  0  0  0  0  0
  -20.6622   17.0162  135.3411 N   0  0  0  0  0  0  0  0  0  0  0  0
  -19.6058   16.9992  133.1957 C   0  0  0  0  0  0  0  0  0  0  0  0
  -18.5949   17.9811  133.0168 O   0  0  0  0  0  0  0  0  0  0  0  0
  -20.8537   17.5972  132.7296 C   0  0  0  0  0  0  0  0  0  0  0  0
  -21.0392   17.9095  131.5007 O   0  0  0  0  0  0  0  0  0  0  0  0
  -21.9578   17.8739  133.6272 C   0  0  0  0  0  0  0  0  0  0  0  0
  -21.8856   17.5971  134.9119 C   0  0  0  0  0  0  0  0  0  0  0  0
  -22.9734   17.8611  135.8412 C   0  0  0  0  0  0  0  0  0  0  0  0
  -23.4537   19.1503  136.0529 C   0  0  0  0  0  0  0  0  0  0  0  0
  -22.8738   20.2960  135.3396 C   0  0  0  0  0  0  0  0  0  0  0  0
  -24.4945   19.3710  136.9475 C   0  0  0  0  0  0  0  0  0  0  0  0
  -23.5683   16.8538  136.5446 C   0  0  0  0  0  0  0  0  0  0  0  0
  -24.6187   17.0828  137.4463 C   0  0  0  0  0  0  0  0  0  0  0  0
  -25.0813   18.3432  137.6470 C   0  0  0  0  0  0  0  0  0  0  0  0
  -26.1843   18.5904  138.5927 C   0  0  0  0  0  0  0  0  0  0  0  0
  -26.5202   17.8166  139.6338 N   0  0  0  0  0  0  0  0  0  0  0  0
  -27.5650   18.3597  140.2557 N   0  0  0  0  0  0  0  0  0  0  0  0
  -27.8948   19.4761  139.6138 N   0  0  0  0  0  0  0  0  0  0  0  0
  -27.0459   19.6200  138.5897 N   0  0  0  0  0  0  0  0  0  0  0  0
  1  2  1  0
  2  3  2  0
  2  4  1  0
  4  5  2  0
  4  6  1  0
  5 11  1  0
  6  7  1  0
  6  8  1  0
  8  9  2  0
  8 10  1  0
 10 11  2  0
 11 12  1  0
 12 13  2  0
 12 16  1  0
 14 13  1  1
 13 15  1  0
 15 18  2  0
 16 17  2  0
 17 18  1  0
 18 19  1  0
 19 20  2  0
 19 23  1  0
 20 21  1  0
 21 22  2  0
 22 23  1  0
M  CHG  1   1  -1
M  END
$$$$
