
     RDKit          3D

 23 25  0  0  0  0  0  0  0  0999 V2000
  -22.6417   19.0909  133.5157 O   0  0  0  0  0  1  0  0  0  0  0  0
  -21.4106   18.6543  133.0699 C   0  0  0  0  0  0  0  0  0  0  0  0
  -21.0171   18.9443  131.9099 O   0  0  0  0  0  0  0  0  0  0  0  0
  -20.5391   17.8388  133.9533 C   0  0  0  0  0  0  0  0  0  0  0  0
  -20.8624   17.5916  135.1518 N   0  0  0  0  0  0  0  0  0  0  0  0
  -19.2685   17.3124  133.4023 C   0  0  0  0  0  0  0  0  0  0  0  0
  -19.4740   16.5599  132.2365 O   0  0  0  0  0  0  0  0  0  0  0  0
  -18.5254   16.5303  134.3965 C   0  0  0  0  0  0  0  0  0  0  0  0
  -17.4152   16.0083  134.0873 O   0  0  0  0  0  0  0  0  0  0  0  0
  -19.0069   16.3094  135.7725 C   0  0  0  0  0  0  0  0  0  0  0  0
  -20.1518   16.8380  136.1185 C   0  0  0  0  0  0  0  0  0  0  0  0
  -20.6780   16.6498  137.4747 C   0  0  0  0  0  0  0  0  0  0  0  0
  -21.8879   16.0444  137.6366 C   0  0  0  0  0  0  0  0  0  0  0  0
  -22.7021   15.5650  136.5137 C   0  0  0  0  0  0  0  0  0  0  0  0
  -22.3895   15.8655  138.9361 C   0  0  0  0  0  0  0  0  0  0  0  0
  -19.9753   17.0716  138.5832 C   0  0  0  0  0  0  0  0  0  0  0  0
  -20.4759   16.8936  139.8888 C   0  0  0  0  0  0  0  0  0  0  0  0
  -21.6972   16.2819  140.0410 C   0  0  0  0  0  0  0  0  0  0  0  0
  -22.2534   16.0778  141.3828 C   0  0  0  0  0  0  0  0  0  0  0  0
  -22.9447   15.0094  141.8075 N   0  0  0  0  0  0  0  0  0  0  0  0
  -23.2770   15.1923  143.0744 N   0  0  0  0  0  0  0  0  0  0  0  0
  -22.7923   16.3721  143.4340 N   0  0  0  0  0  0  0  0  0  0  0  0
  -22.1617   16.9323  142.4146 N   0  0  0  0  0  0  0  0  0  0  0  0
  1  2  1  0
  2  3  2  0
  2  4  1  0
  4  5  2  0
  4  6  1  0
  5 11  1  0
  6  7  1  0
  6  8  1  0
  8  9  2  0
  8 10  1  0
 10 11  2  0
 11 12  1  0
 12 13  2  0
 12 16  1  0
 13 14  1  0
 13 15  1  0
 15 18  2  0
 16 17  2  0
 17 18  1  0
 18 19  1  0
 19 20  2  0
 19 23  1  0
 20 21  1  0
 21 22  2  0
 22 23  1  0
M  CHG  1   1  -1
M  END
$$$$
