
     RDKit          3D

 23 25  0  0  0  0  0  0  0  0999 V2000
  -18.6037   15.8068  136.4839 O   0  0  0  0  0  1  0  0  0  0  0  0
  -18.5715   16.2934  135.1950 C   0  0  0  0  0  0  0  0  0  0  0  0
  -17.5232   16.2164  134.5338 O   0  0  0  0  0  0  0  0  0  0  0  0
  -19.7993   16.8947  134.6434 C   0  0  0  0  0  0  0  0  0  0  0  0
  -20.8207   17.1134  135.3608 N   0  0  0  0  0  0  0  0  0  0  0  0
  -19.7680   17.2241  133.2163 C   0  0  0  0  0  0  0  0  0  0  0  0
  -18.7826   18.2386  133.0833 O   0  0  0  0  0  0  0  0  0  0  0  0
  -21.0315   17.8116  132.7796 C   0  0  0  0  0  0  0  0  0  0  0  0
  -21.2270   18.1765  131.5669 O   0  0  0  0  0  0  0  0  0  0  0  0
  -22.1406   18.0177  133.6899 C   0  0  0  0  0  0  0  0  0  0  0  0
  -22.0591   17.6827  134.9601 C   0  0  0  0  0  0  0  0  0  0  0  0
  -23.1516   17.8750  135.9015 C   0  0  0  0  0  0  0  0  0  0  0  0
  -23.5326   16.8732  136.7896 C   0  0  0  0  0  0  0  0  0  0  0  0
  -22.8391   15.5784  136.8060 C   0  0  0  0  0  0  0  0  0  0  0  0
  -24.5806   17.0867  137.6775 C   0  0  0  0  0  0  0  0  0  0  0  0
  -23.8486   19.0476  135.9524 C   0  0  0  0  0  0  0  0  0  0  0  0
  -24.9056   19.2573  136.8510 C   0  0  0  0  0  0  0  0  0  0  0  0
  -25.2710   18.2751  137.7139 C   0  0  0  0  0  0  0  0  0  0  0  0
  -26.3804   18.4891  138.6602 C   0  0  0  0  0  0  0  0  0  0  0  0
  -27.4524   19.2669  138.4573 N   0  0  0  0  0  0  0  0  0  0  0  0
  -28.2362   19.2103  139.5323 N   0  0  0  0  0  0  0  0  0  0  0  0
  -27.6665   18.3993  140.4182 N   0  0  0  0  0  0  0  0  0  0  0  0
  -26.5238   17.9542  139.8832 N   0  0  0  0  0  0  0  0  0  0  0  0
  1  2  1  0
  2  3  2  0
  2  4  1  0
  4  5  2  0
  4  6  1  0
  5 11  1  0
  6  7  1  0
  6  8  1  0
  8  9  2  0
  8 10  1  0
 10 11  2  0
 11 12  1  0
 12 13  2  0
 12 16  1  0
 14 13  1  1
 13 15  1  0
 15 18  2  0
 16 17  2  0
 17 18  1  0
 18 19  1  0
 19 20  2  0
 19 23  1  0
 20 21  1  0
 21 22  2  0
 22 23  1  0
M  CHG  1   1  -1
M  END
$$$$
