
     RDKit          3D

 23 25  0  0  0  0  0  0  0  0999 V2000
  -18.3231   17.3300  137.0105 O   0  0  0  0  0  1  0  0  0  0  0  0
  -18.3212   17.2230  135.6366 C   0  0  0  0  0  0  0  0  0  0  0  0
  -17.2502   17.0425  135.0346 O   0  0  0  0  0  0  0  0  0  0  0  0
  -19.6079   17.3283  134.9250 C   0  0  0  0  0  0  0  0  0  0  0  0
  -20.6949   17.5602  135.5337 N   0  0  0  0  0  0  0  0  0  0  0  0
  -19.5550   17.1489  133.4720 C   0  0  0  0  0  0  0  0  0  0  0  0
  -18.7864   18.2391  132.9835 O   0  0  0  0  0  0  0  0  0  0  0  0
  -20.8809   17.2734  132.8734 C   0  0  0  0  0  0  0  0  0  0  0  0
  -21.0701   17.1523  131.6117 O   0  0  0  0  0  0  0  0  0  0  0  0
  -22.0631   17.5412  133.6684 C   0  0  0  0  0  0  0  0  0  0  0  0
  -21.9950   17.6855  134.9748 C   0  0  0  0  0  0  0  0  0  0  0  0
  -23.1601   17.9548  135.8036 C   0  0  0  0  0  0  0  0  0  0  0  0
  -23.5510   17.0829  136.8158 C   0  0  0  0  0  0  0  0  0  0  0  0
  -22.7946   15.8524  137.0829 C   0  0  0  0  0  0  0  0  0  0  0  0
  -24.6691   17.3675  137.5912 C   0  0  0  0  0  0  0  0  0  0  0  0
  -23.9184   19.0752  135.6221 C   0  0  0  0  0  0  0  0  0  0  0  0
  -25.0460   19.3571  136.4081 C   0  0  0  0  0  0  0  0  0  0  0  0
  -25.4207   18.5016  137.3933 C   0  0  0  0  0  0  0  0  0  0  0  0
  -26.6041   18.7920  138.2224 C   0  0  0  0  0  0  0  0  0  0  0  0
  -27.7353   19.3772  137.8064 N   0  0  0  0  0  0  0  0  0  0  0  0
  -28.5758   19.4715  138.8349 N   0  0  0  0  0  0  0  0  0  0  0  0
  -27.9832   18.9484  139.9036 N   0  0  0  0  0  0  0  0  0  0  0  0
  -26.7691   18.5294  139.5286 N   0  0  0  0  0  0  0  0  0  0  0  0
  1  2  1  0
  2  3  2  0
  2  4  1  0
  4  5  2  0
  4  6  1  0
  5 11  1  0
  6  7  1  0
  6  8  1  0
  8  9  2  0
  8 10  1  0
 10 11  2  0
 11 12  1  0
 12 13  2  0
 12 16  1  0
 14 13  1  1
 13 15  1  0
 15 18  2  0
 16 17  2  0
 17 18  1  0
 18 19  1  0
 19 20  2  0
 19 23  1  0
 20 21  1  0
 21 22  2  0
 22 23  1  0
M  CHG  1   1  -1
M  END
$$$$
