
     RDKit          3D

 23 25  0  0  0  0  0  0  0  0999 V2000
  -22.7434   19.2538  133.5253 O   0  0  0  0  0  1  0  0  0  0  0  0
  -21.5453   18.7999  133.0121 C   0  0  0  0  0  0  0  0  0  0  0  0
  -21.1982   19.1107  131.8427 O   0  0  0  0  0  0  0  0  0  0  0  0
  -20.6548   17.9413  133.8335 C   0  0  0  0  0  0  0  0  0  0  0  0
  -20.9664   17.6075  135.0139 N   0  0  0  0  0  0  0  0  0  0  0  0
  -19.3790   17.4753  133.2415 C   0  0  0  0  0  0  0  0  0  0  0  0
  -19.5791   16.8006  132.0281 O   0  0  0  0  0  0  0  0  0  0  0  0
  -18.6168   16.6403  134.1763 C   0  0  0  0  0  0  0  0  0  0  0  0
  -17.5000   16.1596  133.8266 O   0  0  0  0  0  0  0  0  0  0  0  0
  -19.0860   16.3180  135.5364 C   0  0  0  0  0  0  0  0  0  0  0  0
  -20.2374   16.8022  135.9234 C   0  0  0  0  0  0  0  0  0  0  0  0
  -20.7519   16.5131  137.2663 C   0  0  0  0  0  0  0  0  0  0  0  0
  -20.0502   16.9465  138.3508 C   0  0  0  0  0  0  0  0  0  0  0  0
  -18.7927   17.6959  138.2460 C   0  0  0  0  0  0  0  0  0  0  0  0
  -20.5447   16.6683  139.6355 C   0  0  0  0  0  0  0  0  0  0  0  0
  -21.9259   15.8146  137.4512 C   0  0  0  0  0  0  0  0  0  0  0  0
  -22.4251   15.5338  138.7391 C   0  0  0  0  0  0  0  0  0  0  0  0
  -21.7097   15.9754  139.8263 C   0  0  0  0  0  0  0  0  0  0  0  0
  -22.1949   15.7037  141.1836 C   0  0  0  0  0  0  0  0  0  0  0  0
  -21.5250   15.9079  142.3278 N   0  0  0  0  0  0  0  0  0  0  0  0
  -22.2914   15.5429  143.3418 N   0  0  0  0  0  0  0  0  0  0  0  0
  -23.4343   15.1133  142.8266 N   0  0  0  0  0  0  0  0  0  0  0  0
  -23.3979   15.2025  141.5071 N   0  0  0  0  0  0  0  0  0  0  0  0
  1  2  1  0
  2  3  2  0
  2  4  1  0
  4  5  2  0
  4  6  1  0
  5 11  1  0
  6  7  1  0
  6  8  1  0
  8  9  2  0
  8 10  1  0
 10 11  2  0
 11 12  1  0
 12 13  2  0
 12 16  1  0
 13 14  1  0
 13 15  1  0
 15 18  2  0
 16 17  2  0
 17 18  1  0
 18 19  1  0
 19 20  2  0
 19 23  1  0
 20 21  1  0
 21 22  2  0
 22 23  1  0
M  CHG  1   1  -1
M  END
$$$$
