
     RDKit          3D

 23 25  0  0  0  0  0  0  0  0999 V2000
  -19.9268   17.7277  131.3678 O   0  0  0  0  0  1  0  0  0  0  0  0
  -20.7417   18.0372  132.4352 C   0  0  0  0  0  0  0  0  0  0  0  0
  -21.6639   18.8557  132.2887 O   0  0  0  0  0  0  0  0  0  0  0  0
  -20.4837   17.3756  133.7271 C   0  0  0  0  0  0  0  0  0  0  0  0
  -21.3306   17.3897  134.6697 N   0  0  0  0  0  0  0  0  0  0  0  0
  -19.1897   16.7011  133.8563 C   0  0  0  0  0  0  0  0  0  0  0  0
  -19.2195   15.6405  132.9116 O   0  0  0  0  0  0  0  0  0  0  0  0
  -19.0424   16.0831  135.1710 C   0  0  0  0  0  0  0  0  0  0  0  0
  -17.9861   15.4380  135.5032 O   0  0  0  0  0  0  0  0  0  0  0  0
  -20.0805   16.1614  136.1797 C   0  0  0  0  0  0  0  0  0  0  0  0
  -21.2108   16.7971  135.9553 C   0  0  0  0  0  0  0  0  0  0  0  0
  -22.2737   16.8956  136.9438 C   0  0  0  0  0  0  0  0  0  0  0  0
  -22.7470   18.1285  137.3839 C   0  0  0  0  0  0  0  0  0  0  0  0
  -22.1848   19.3807  136.8608 C   0  0  0  0  0  0  0  0  0  0  0  0
  -23.7640   18.1905  138.3296 C   0  0  0  0  0  0  0  0  0  0  0  0
  -22.8511   15.7815  137.4809 C   0  0  0  0  0  0  0  0  0  0  0  0
  -23.8774   15.8504  138.4353 C   0  0  0  0  0  0  0  0  0  0  0  0
  -24.3333   17.0568  138.8593 C   0  0  0  0  0  0  0  0  0  0  0  0
  -25.4110   17.1360  139.8615 C   0  0  0  0  0  0  0  0  0  0  0  0
  -25.6135   18.1399  140.7255 N   0  0  0  0  0  0  0  0  0  0  0  0
  -26.6801   17.8584  141.4715 N   0  0  0  0  0  0  0  0  0  0  0  0
  -27.1566   16.6792  141.0850 N   0  0  0  0  0  0  0  0  0  0  0  0
  -26.3767   16.2327  140.0938 N   0  0  0  0  0  0  0  0  0  0  0  0
  1  2  1  0
  2  3  2  0
  2  4  1  0
  4  5  2  0
  4  6  1  0
  5 11  1  0
  6  7  1  0
  6  8  1  0
  8  9  2  0
  8 10  1  0
 10 11  2  0
 11 12  1  0
 12 13  2  0
 12 16  1  0
 14 13  1  1
 13 15  1  0
 15 18  2  0
 16 17  2  0
 17 18  1  0
 18 19  1  0
 19 20  2  0
 19 23  1  0
 20 21  1  0
 21 22  2  0
 22 23  1  0
M  CHG  1   1  -1
M  END
$$$$
