
     RDKit          3D

 23 25  0  0  0  0  0  0  0  0999 V2000
  -17.5128   15.9415  134.6448 O   0  0  0  0  0  1  0  0  0  0  0  0
  -18.6164   16.1992  135.4325 C   0  0  0  0  0  0  0  0  0  0  0  0
  -18.5977   15.9217  136.6602 O   0  0  0  0  0  0  0  0  0  0  0  0
  -19.8355   16.8056  134.8402 C   0  0  0  0  0  0  0  0  0  0  0  0
  -20.8413   17.0933  135.5527 N   0  0  0  0  0  0  0  0  0  0  0  0
  -19.8561   17.0721  133.3829 C   0  0  0  0  0  0  0  0  0  0  0  0
  -18.7751   17.8700  132.9801 O   0  0  0  0  0  0  0  0  0  0  0  0
  -21.1258   17.6701  132.9557 C   0  0  0  0  0  0  0  0  0  0  0  0
  -21.3083   17.9608  131.7380 O   0  0  0  0  0  0  0  0  0  0  0  0
  -22.2330   17.9611  133.8849 C   0  0  0  0  0  0  0  0  0  0  0  0
  -22.0707   17.6705  135.1494 C   0  0  0  0  0  0  0  0  0  0  0  0
  -23.1398   17.9389  136.1171 C   0  0  0  0  0  0  0  0  0  0  0  0
  -23.8036   16.8892  136.6774 C   0  0  0  0  0  0  0  0  0  0  0  0
  -23.5025   15.4882  136.3611 C   0  0  0  0  0  0  0  0  0  0  0  0
  -24.8270   17.1488  137.6035 C   0  0  0  0  0  0  0  0  0  0  0  0
  -23.4843   19.2266  136.4687 C   0  0  0  0  0  0  0  0  0  0  0  0
  -24.5109   19.4907  137.3979 C   0  0  0  0  0  0  0  0  0  0  0  0
  -25.1741   18.4248  137.9571 C   0  0  0  0  0  0  0  0  0  0  0  0
  -26.2487   18.6568  138.9282 C   0  0  0  0  0  0  0  0  0  0  0  0
  -27.2479   19.5452  138.8177 N   0  0  0  0  0  0  0  0  0  0  0  0
  -28.0157   19.4592  139.8910 N   0  0  0  0  0  0  0  0  0  0  0  0
  -27.4931   18.5192  140.6651 N   0  0  0  0  0  0  0  0  0  0  0  0
  -26.4107   18.0140  140.0960 N   0  0  0  0  0  0  0  0  0  0  0  0
  1  2  1  0
  2  3  2  0
  2  4  1  0
  4  5  2  0
  4  6  1  0
  5 11  1  0
  6  7  1  0
  6  8  1  0
  8  9  2  0
  8 10  1  0
 10 11  2  0
 11 12  1  0
 12 13  2  0
 12 16  1  0
 13 14  1  0
 13 15  1  0
 15 18  2  0
 16 17  2  0
 17 18  1  0
 18 19  1  0
 19 20  2  0
 19 23  1  0
 20 21  1  0
 21 22  2  0
 22 23  1  0
M  CHG  1   1  -1
M  END
$$$$
