
     RDKit          3D

 23 25  0  0  0  0  0  0  0  0999 V2000
  -21.1109   18.7727  131.4918 O   0  0  0  0  0  1  0  0  0  0  0  0
  -21.3708   18.6761  132.8417 C   0  0  0  0  0  0  0  0  0  0  0  0
  -22.3827   19.2189  133.3144 O   0  0  0  0  0  0  0  0  0  0  0  0
  -20.4247   17.9218  133.6839 C   0  0  0  0  0  0  0  0  0  0  0  0
  -20.7024   17.5914  134.8753 N   0  0  0  0  0  0  0  0  0  0  0  0
  -19.1442   17.5772  133.0611 C   0  0  0  0  0  0  0  0  0  0  0  0
  -19.4658   16.6880  132.0010 O   0  0  0  0  0  0  0  0  0  0  0  0
  -18.2892   16.8341  133.9824 C   0  0  0  0  0  0  0  0  0  0  0  0
  -17.1203   16.4299  133.6472 O   0  0  0  0  0  0  0  0  0  0  0  0
  -18.7096   16.5084  135.3309 C   0  0  0  0  0  0  0  0  0  0  0  0
  -19.8890   16.8699  135.7898 C   0  0  0  0  0  0  0  0  0  0  0  0
  -20.3436   16.5604  137.1367 C   0  0  0  0  0  0  0  0  0  0  0  0
  -20.9365   15.3387  137.4425 C   0  0  0  0  0  0  0  0  0  0  0  0
  -21.1243   14.3134  136.4076 C   0  0  0  0  0  0  0  0  0  0  0  0
  -21.3607   15.0720  138.7392 C   0  0  0  0  0  0  0  0  0  0  0  0
  -20.2071   17.4568  138.1571 C   0  0  0  0  0  0  0  0  0  0  0  0
  -20.6374   17.1819  139.4640 C   0  0  0  0  0  0  0  0  0  0  0  0
  -21.2146   15.9879  139.7540 C   0  0  0  0  0  0  0  0  0  0  0  0
  -21.6687   15.6929  141.1248 C   0  0  0  0  0  0  0  0  0  0  0  0
  -21.9426   14.4791  141.6218 N   0  0  0  0  0  0  0  0  0  0  0  0
  -22.3234   14.6087  142.8913 N   0  0  0  0  0  0  0  0  0  0  0  0
  -22.2925   15.9004  143.2034 N   0  0  0  0  0  0  0  0  0  0  0  0
  -21.8897   16.5697  142.1171 N   0  0  0  0  0  0  0  0  0  0  0  0
  1  2  1  0
  2  3  2  0
  2  4  1  0
  4  5  2  0
  4  6  1  0
  5 11  1  0
  6  7  1  0
  6  8  1  0
  8  9  2  0
  8 10  1  0
 10 11  2  0
 11 12  1  0
 12 13  2  0
 12 16  1  0
 14 13  1  1
 13 15  1  0
 15 18  2  0
 16 17  2  0
 17 18  1  0
 18 19  1  0
 19 20  2  0
 19 23  1  0
 20 21  1  0
 21 22  2  0
 22 23  1  0
M  CHG  1   1  -1
M  END
$$$$
