
     RDKit          3D

 23 25  0  0  0  0  0  0  0  0999 V2000
  -18.7235   15.5193  136.3655 O   0  0  0  0  0  1  0  0  0  0  0  0
  -18.7724   15.9366  135.0509 C   0  0  0  0  0  0  0  0  0  0  0  0
  -17.8202   15.6803  134.2686 O   0  0  0  0  0  0  0  0  0  0  0  0
  -19.9477   16.6912  134.5468 C   0  0  0  0  0  0  0  0  0  0  0  0
  -20.9535   16.9131  135.2825 N   0  0  0  0  0  0  0  0  0  0  0  0
  -19.9241   17.1868  133.1507 C   0  0  0  0  0  0  0  0  0  0  0  0
  -18.7972   17.9821  132.8953 O   0  0  0  0  0  0  0  0  0  0  0  0
  -21.1538   17.9095  132.8075 C   0  0  0  0  0  0  0  0  0  0  0  0
  -21.2958   18.3991  131.6497 O   0  0  0  0  0  0  0  0  0  0  0  0
  -22.2653   18.1054  133.7563 C   0  0  0  0  0  0  0  0  0  0  0  0
  -22.1445   17.6094  134.9602 C   0  0  0  0  0  0  0  0  0  0  0  0
  -23.2199   17.7751  135.9438 C   0  0  0  0  0  0  0  0  0  0  0  0
  -22.9326   18.3433  137.1484 C   0  0  0  0  0  0  0  0  0  0  0  0
  -21.5893   18.8040  137.5185 C   0  0  0  0  0  0  0  0  0  0  0  0
  -23.9639   18.5006  138.0886 C   0  0  0  0  0  0  0  0  0  0  0  0
  -24.5093   17.3687  135.6743 C   0  0  0  0  0  0  0  0  0  0  0  0
  -25.5467   17.5251  136.6157 C   0  0  0  0  0  0  0  0  0  0  0  0
  -25.2463   18.0994  137.8276 C   0  0  0  0  0  0  0  0  0  0  0  0
  -26.2973   18.2801  138.8346 C   0  0  0  0  0  0  0  0  0  0  0  0
  -27.3519   17.4773  139.0424 N   0  0  0  0  0  0  0  0  0  0  0  0
  -28.0740   17.9698  140.0347 N   0  0  0  0  0  0  0  0  0  0  0  0
  -27.4679   19.0760  140.4411 N   0  0  0  0  0  0  0  0  0  0  0  0
  -26.3780   19.2858  139.7208 N   0  0  0  0  0  0  0  0  0  0  0  0
  1  2  1  0
  2  3  2  0
  2  4  1  0
  4  5  2  0
  4  6  1  0
  5 11  1  0
  6  7  1  0
  6  8  1  0
  8  9  2  0
  8 10  1  0
 10 11  2  0
 11 12  1  0
 12 13  2  0
 12 16  1  0
 13 14  1  0
 13 15  1  0
 15 18  2  0
 16 17  2  0
 17 18  1  0
 18 19  1  0
 19 20  2  0
 19 23  1  0
 20 21  1  0
 21 22  2  0
 22 23  1  0
M  CHG  1   1  -1
M  END
$$$$
