
     RDKit          3D

 23 25  0  0  0  0  0  0  0  0999 V2000
  -19.1629   18.9849  131.9803 O   0  0  0  0  0  1  0  0  0  0  0  0
  -20.3679   18.8054  132.6290 C   0  0  0  0  0  0  0  0  0  0  0  0
  -21.3758   19.4800  132.2921 O   0  0  0  0  0  0  0  0  0  0  0  0
  -20.4870   17.8158  133.7296 C   0  0  0  0  0  0  0  0  0  0  0  0
  -21.4542   17.8505  134.5453 N   0  0  0  0  0  0  0  0  0  0  0  0
  -19.4420   16.7735  133.8595 C   0  0  0  0  0  0  0  0  0  0  0  0
  -19.2836   16.0389  132.6751 O   0  0  0  0  0  0  0  0  0  0  0  0
  -19.7032   15.8773  134.9911 C   0  0  0  0  0  0  0  0  0  0  0  0
  -18.9043   14.9291  135.2427 O   0  0  0  0  0  0  0  0  0  0  0  0
  -20.8727   16.0181  135.8779 C   0  0  0  0  0  0  0  0  0  0  0  0
  -21.7146   16.9900  135.6402 C   0  0  0  0  0  0  0  0  0  0  0  0
  -22.8949   17.1759  136.4911 C   0  0  0  0  0  0  0  0  0  0  0  0
  -22.7596   17.0675  137.8426 C   0  0  0  0  0  0  0  0  0  0  0  0
  -21.4814   16.7714  138.5000 C   0  0  0  0  0  0  0  0  0  0  0  0
  -23.8911   17.2458  138.6551 C   0  0  0  0  0  0  0  0  0  0  0  0
  -24.1323   17.4568  135.9523 C   0  0  0  0  0  0  0  0  0  0  0  0
  -25.2700   17.6364  136.7649 C   0  0  0  0  0  0  0  0  0  0  0  0
  -25.1226   17.5248  138.1267 C   0  0  0  0  0  0  0  0  0  0  0  0
  -26.2818   17.7046  139.0074 C   0  0  0  0  0  0  0  0  0  0  0  0
  -26.2803   18.2645  140.2265 N   0  0  0  0  0  0  0  0  0  0  0  0
  -27.5126   18.2460  140.7059 N   0  0  0  0  0  0  0  0  0  0  0  0
  -28.2764   17.6756  139.7853 N   0  0  0  0  0  0  0  0  0  0  0  0
  -27.5444   17.3360  138.7368 N   0  0  0  0  0  0  0  0  0  0  0  0
  1  2  1  0
  2  3  2  0
  2  4  1  0
  4  5  2  0
  4  6  1  0
  5 11  1  0
  6  7  1  0
  6  8  1  0
  8  9  2  0
  8 10  1  0
 10 11  2  0
 11 12  1  0
 12 13  2  0
 12 16  1  0
 13 14  1  0
 13 15  1  0
 15 18  2  0
 16 17  2  0
 17 18  1  0
 18 19  1  0
 19 20  2  0
 19 23  1  0
 20 21  1  0
 21 22  2  0
 22 23  1  0
M  CHG  1   1  -1
M  END
$$$$
