
     RDKit          3D

 23 25  0  0  0  0  0  0  0  0999 V2000
  -20.8179   19.0834  131.7572 O   0  0  0  0  0  1  0  0  0  0  0  0
  -21.1850   18.8449  133.0661 C   0  0  0  0  0  0  0  0  0  0  0  0
  -22.2681   19.3036  133.5143 O   0  0  0  0  0  0  0  0  0  0  0  0
  -20.3068   18.0456  133.9576 C   0  0  0  0  0  0  0  0  0  0  0  0
  -20.6452   17.7760  135.1471 N   0  0  0  0  0  0  0  0  0  0  0  0
  -19.0110   17.5625  133.4258 C   0  0  0  0  0  0  0  0  0  0  0  0
  -19.1723   16.8171  132.2485 O   0  0  0  0  0  0  0  0  0  0  0  0
  -18.2643   16.7916  134.4259 C   0  0  0  0  0  0  0  0  0  0  0  0
  -17.1336   16.3056  134.1327 O   0  0  0  0  0  0  0  0  0  0  0  0
  -18.7650   16.5419  135.7900 C   0  0  0  0  0  0  0  0  0  0  0  0
  -19.9313   17.0330  136.1194 C   0  0  0  0  0  0  0  0  0  0  0  0
  -20.4772   16.8148  137.4632 C   0  0  0  0  0  0  0  0  0  0  0  0
  -21.3923   15.8231  137.6523 C   0  0  0  0  0  0  0  0  0  0  0  0
  -21.8662   14.9515  136.5709 C   0  0  0  0  0  0  0  0  0  0  0  0
  -21.9137   15.6162  138.9398 C   0  0  0  0  0  0  0  0  0  0  0  0
  -20.0843   17.5900  138.5333 C   0  0  0  0  0  0  0  0  0  0  0  0
  -20.6056   17.3851  139.8268 C   0  0  0  0  0  0  0  0  0  0  0  0
  -21.5279   16.3823  140.0066 C   0  0  0  0  0  0  0  0  0  0  0  0
  -22.0946   16.1365  141.3371 C   0  0  0  0  0  0  0  0  0  0  0  0
  -22.0642   14.9809  142.0179 N   0  0  0  0  0  0  0  0  0  0  0  0
  -22.6776   15.1523  143.1768 N   0  0  0  0  0  0  0  0  0  0  0  0
  -23.0875   16.4119  143.2139 N   0  0  0  0  0  0  0  0  0  0  0  0
  -22.7417   17.0336  142.0984 N   0  0  0  0  0  0  0  0  0  0  0  0
  1  2  1  0
  2  3  2  0
  2  4  1  0
  4  5  2  0
  4  6  1  0
  5 11  1  0
  6  7  1  0
  6  8  1  0
  8  9  2  0
  8 10  1  0
 10 11  2  0
 11 12  1  0
 12 13  2  0
 12 16  1  0
 13 14  1  0
 13 15  1  0
 15 18  2  0
 16 17  2  0
 17 18  1  0
 18 19  1  0
 19 20  2  0
 19 23  1  0
 20 21  1  0
 21 22  2  0
 22 23  1  0
M  CHG  1   1  -1
M  END
$$$$
