
     RDKit          3D

 23 25  0  0  0  0  0  0  0  0999 V2000
  -20.9095   19.4215  131.9037 O   0  0  0  0  0  1  0  0  0  0  0  0
  -21.1876   19.1902  133.2355 C   0  0  0  0  0  0  0  0  0  0  0  0
  -22.1487   19.7806  133.7943 O   0  0  0  0  0  0  0  0  0  0  0  0
  -20.3566   18.2436  134.0218 C   0  0  0  0  0  0  0  0  0  0  0  0
  -20.6813   17.8998  135.1958 N   0  0  0  0  0  0  0  0  0  0  0  0
  -19.1251   17.7007  133.4020 C   0  0  0  0  0  0  0  0  0  0  0  0
  -19.3870   17.0786  132.1724 O   0  0  0  0  0  0  0  0  0  0  0  0
  -18.4192   16.7839  134.3038 C   0  0  0  0  0  0  0  0  0  0  0  0
  -17.3452   16.2311  133.9276 O   0  0  0  0  0  0  0  0  0  0  0  0
  -18.8985   16.4582  135.6596 C   0  0  0  0  0  0  0  0  0  0  0  0
  -20.0065   17.0158  136.0735 C   0  0  0  0  0  0  0  0  0  0  0  0
  -20.5286   16.7271  137.4135 C   0  0  0  0  0  0  0  0  0  0  0  0
  -21.7631   16.1635  137.5350 C   0  0  0  0  0  0  0  0  0  0  0  0
  -22.6080   15.8258  136.3837 C   0  0  0  0  0  0  0  0  0  0  0  0
  -22.2609   15.8882  138.8191 C   0  0  0  0  0  0  0  0  0  0  0  0
  -19.7978   17.0137  138.5468 C   0  0  0  0  0  0  0  0  0  0  0  0
  -20.2943   16.7386  139.8370 C   0  0  0  0  0  0  0  0  0  0  0  0
  -21.5406   16.1702  139.9484 C   0  0  0  0  0  0  0  0  0  0  0  0
  -22.0936   15.8682  141.2730 C   0  0  0  0  0  0  0  0  0  0  0  0
  -22.7909   14.7753  141.6179 N   0  0  0  0  0  0  0  0  0  0  0  0
  -23.1175   14.8635  142.8963 N   0  0  0  0  0  0  0  0  0  0  0  0
  -22.6233   16.0092  143.3428 N   0  0  0  0  0  0  0  0  0  0  0  0
  -21.9924   16.6411  142.3664 N   0  0  0  0  0  0  0  0  0  0  0  0
  1  2  1  0
  2  3  2  0
  2  4  1  0
  4  5  2  0
  4  6  1  0
  5 11  1  0
  6  7  1  0
  6  8  1  0
  8  9  2  0
  8 10  1  0
 10 11  2  0
 11 12  1  0
 12 13  2  0
 12 16  1  0
 13 14  1  0
 13 15  1  0
 15 18  2  0
 16 17  2  0
 17 18  1  0
 18 19  1  0
 19 20  2  0
 19 23  1  0
 20 21  1  0
 21 22  2  0
 22 23  1  0
M  CHG  1   1  -1
M  END
$$$$
