
     RDKit          3D

 23 25  0  0  0  0  0  0  0  0999 V2000
  -18.6143   16.0647  136.6421 O   0  0  0  0  0  1  0  0  0  0  0  0
  -18.6328   16.5176  135.3407 C   0  0  0  0  0  0  0  0  0  0  0  0
  -17.6066   16.4371  134.6461 O   0  0  0  0  0  0  0  0  0  0  0  0
  -19.8870   17.0877  134.8163 C   0  0  0  0  0  0  0  0  0  0  0  0
  -20.8943   17.2904  135.5580 N   0  0  0  0  0  0  0  0  0  0  0  0
  -19.8995   17.4060  133.3864 C   0  0  0  0  0  0  0  0  0  0  0  0
  -18.9400   18.4403  133.2202 O   0  0  0  0  0  0  0  0  0  0  0  0
  -21.1861   17.9625  132.9779 C   0  0  0  0  0  0  0  0  0  0  0  0
  -21.4205   18.3132  131.7678 O   0  0  0  0  0  0  0  0  0  0  0  0
  -22.2758   18.1523  133.9148 C   0  0  0  0  0  0  0  0  0  0  0  0
  -22.1547   17.8295  135.1850 C   0  0  0  0  0  0  0  0  0  0  0  0
  -23.2266   18.0061  136.1527 C   0  0  0  0  0  0  0  0  0  0  0  0
  -23.7836   16.9238  136.8280 C   0  0  0  0  0  0  0  0  0  0  0  0
  -23.3041   15.5570  136.5843 C   0  0  0  0  0  0  0  0  0  0  0  0
  -24.8070   17.1243  137.7472 C   0  0  0  0  0  0  0  0  0  0  0  0
  -23.7306   19.2421  136.4383 C   0  0  0  0  0  0  0  0  0  0  0  0
  -24.7638   19.4381  137.3673 C   0  0  0  0  0  0  0  0  0  0  0  0
  -25.3017   18.3773  138.0217 C   0  0  0  0  0  0  0  0  0  0  0  0
  -26.3870   18.5765  138.9986 C   0  0  0  0  0  0  0  0  0  0  0  0
  -26.5375   17.9195  140.1566 N   0  0  0  0  0  0  0  0  0  0  0  0
  -27.6312   18.3693  140.7689 N   0  0  0  0  0  0  0  0  0  0  0  0
  -28.1768   19.3100  140.0045 N   0  0  0  0  0  0  0  0  0  0  0  0
  -27.4123   19.4391  138.9140 N   0  0  0  0  0  0  0  0  0  0  0  0
  1  2  1  0
  2  3  2  0
  2  4  1  0
  4  5  2  0
  4  6  1  0
  5 11  1  0
  6  7  1  0
  6  8  1  0
  8  9  2  0
  8 10  1  0
 10 11  2  0
 11 12  1  0
 12 13  2  0
 12 16  1  0
 14 13  1  1
 13 15  1  0
 15 18  2  0
 16 17  2  0
 17 18  1  0
 18 19  1  0
 19 20  2  0
 19 23  1  0
 20 21  1  0
 21 22  2  0
 22 23  1  0
M  CHG  1   1  -1
M  END
$$$$
