
     RDKit          3D

 23 25  0  0  0  0  0  0  0  0999 V2000
  -18.4663   15.5107  136.6930 O   0  0  0  0  0  1  0  0  0  0  0  0
  -18.4823   15.8967  135.3701 C   0  0  0  0  0  0  0  0  0  0  0  0
  -17.5121   15.6352  134.6405 O   0  0  0  0  0  0  0  0  0  0  0  0
  -19.6667   16.6149  134.8654 C   0  0  0  0  0  0  0  0  0  0  0  0
  -20.6361   16.9253  135.6203 N   0  0  0  0  0  0  0  0  0  0  0  0
  -19.6561   16.9484  133.4389 C   0  0  0  0  0  0  0  0  0  0  0  0
  -18.5843   17.8657  133.2724 O   0  0  0  0  0  0  0  0  0  0  0  0
  -20.8730   17.6555  133.0503 C   0  0  0  0  0  0  0  0  0  0  0  0
  -21.0769   18.0446  131.8465 O   0  0  0  0  0  0  0  0  0  0  0  0
  -21.9238   17.9605  134.0012 C   0  0  0  0  0  0  0  0  0  0  0  0
  -21.8286   17.6117  135.2667 C   0  0  0  0  0  0  0  0  0  0  0  0
  -22.8630   17.9012  136.2480 C   0  0  0  0  0  0  0  0  0  0  0  0
  -24.1395   17.3560  136.1429 C   0  0  0  0  0  0  0  0  0  0  0  0
  -24.4873   16.4635  135.0293 C   0  0  0  0  0  0  0  0  0  0  0  0
  -25.1069   17.6512  137.0965 C   0  0  0  0  0  0  0  0  0  0  0  0
  -22.6236   18.7203  137.3133 C   0  0  0  0  0  0  0  0  0  0  0  0
  -23.6043   19.0147  138.2727 C   0  0  0  0  0  0  0  0  0  0  0  0
  -24.8468   18.4789  138.1630 C   0  0  0  0  0  0  0  0  0  0  0  0
  -25.8814   18.7841  139.1673 C   0  0  0  0  0  0  0  0  0  0  0  0
  -27.1962   18.5596  139.0398 N   0  0  0  0  0  0  0  0  0  0  0  0
  -27.8124   18.9642  140.1488 N   0  0  0  0  0  0  0  0  0  0  0  0
  -26.8943   19.4451  140.9812 N   0  0  0  0  0  0  0  0  0  0  0  0
  -25.7046   19.3351  140.3787 N   0  0  0  0  0  0  0  0  0  0  0  0
  1  2  1  0
  2  3  2  0
  2  4  1  0
  4  5  2  0
  4  6  1  0
  5 11  1  0
  6  7  1  0
  6  8  1  0
  8  9  2  0
  8 10  1  0
 10 11  2  0
 11 12  1  0
 12 13  2  0
 12 16  1  0
 14 13  1  1
 13 15  1  0
 15 18  2  0
 16 17  2  0
 17 18  1  0
 18 19  1  0
 19 20  2  0
 19 23  1  0
 20 21  1  0
 21 22  2  0
 22 23  1  0
M  CHG  1   1  -1
M  END
$$$$
