
     RDKit          3D

 23 25  0  0  0  0  0  0  0  0999 V2000
  -17.3769   16.4289  134.2763 O   0  0  0  0  0  1  0  0  0  0  0  0
  -18.5011   16.5599  135.0625 C   0  0  0  0  0  0  0  0  0  0  0  0
  -18.4676   16.1982  136.2500 O   0  0  0  0  0  0  0  0  0  0  0  0
  -19.7166   17.1320  134.4553 C   0  0  0  0  0  0  0  0  0  0  0  0
  -20.7453   17.4062  135.1426 N   0  0  0  0  0  0  0  0  0  0  0  0
  -19.6641   17.3645  133.0099 C   0  0  0  0  0  0  0  0  0  0  0  0
  -18.6685   18.3603  132.8224 O   0  0  0  0  0  0  0  0  0  0  0  0
  -20.9168   17.9308  132.5178 C   0  0  0  0  0  0  0  0  0  0  0  0
  -21.0935   18.2149  131.2808 O   0  0  0  0  0  0  0  0  0  0  0  0
  -22.0358   18.2061  133.3972 C   0  0  0  0  0  0  0  0  0  0  0  0
  -21.9736   17.9565  134.6880 C   0  0  0  0  0  0  0  0  0  0  0  0
  -23.0765   18.2200  135.5995 C   0  0  0  0  0  0  0  0  0  0  0  0
  -23.5038   17.2673  136.5201 C   0  0  0  0  0  0  0  0  0  0  0  0
  -22.8506   15.9543  136.6025 C   0  0  0  0  0  0  0  0  0  0  0  0
  -24.5607   17.5484  137.3783 C   0  0  0  0  0  0  0  0  0  0  0  0
  -23.7382   19.4138  135.5892 C   0  0  0  0  0  0  0  0  0  0  0  0
  -24.8044   19.6918  136.4580 C   0  0  0  0  0  0  0  0  0  0  0  0
  -25.2151   18.7573  137.3530 C   0  0  0  0  0  0  0  0  0  0  0  0
  -26.3343   19.0430  138.2683 C   0  0  0  0  0  0  0  0  0  0  0  0
  -26.7095   18.2947  139.3145 N   0  0  0  0  0  0  0  0  0  0  0  0
  -27.7572   18.8692  139.9023 N   0  0  0  0  0  0  0  0  0  0  0  0
  -28.0497   19.9802  139.2336 N   0  0  0  0  0  0  0  0  0  0  0  0
  -27.1748   20.0890  138.2271 N   0  0  0  0  0  0  0  0  0  0  0  0
  1  2  1  0
  2  3  2  0
  2  4  1  0
  4  5  2  0
  4  6  1  0
  5 11  1  0
  6  7  1  0
  6  8  1  0
  8  9  2  0
  8 10  1  0
 10 11  2  0
 11 12  1  0
 12 13  2  0
 12 16  1  0
 14 13  1  1
 13 15  1  0
 15 18  2  0
 16 17  2  0
 17 18  1  0
 18 19  1  0
 19 20  2  0
 19 23  1  0
 20 21  1  0
 21 22  2  0
 22 23  1  0
M  CHG  1   1  -1
M  END
$$$$
