
     RDKit          3D

 23 25  0  0  0  0  0  0  0  0999 V2000
  -18.5152   15.6385  136.4713 O   0  0  0  0  0  1  0  0  0  0  0  0
  -18.5191   16.1811  135.2046 C   0  0  0  0  0  0  0  0  0  0  0  0
  -17.4821   16.1589  134.5220 O   0  0  0  0  0  0  0  0  0  0  0  0
  -19.7713   16.7750  134.7019 C   0  0  0  0  0  0  0  0  0  0  0  0
  -20.7723   16.9683  135.4545 N   0  0  0  0  0  0  0  0  0  0  0  0
  -19.7893   17.1283  133.2803 C   0  0  0  0  0  0  0  0  0  0  0  0
  -18.8216   18.1579  133.1336 O   0  0  0  0  0  0  0  0  0  0  0  0
  -21.0733   17.7060  132.8934 C   0  0  0  0  0  0  0  0  0  0  0  0
  -21.3116   18.0883  131.6937 O   0  0  0  0  0  0  0  0  0  0  0  0
  -22.1557   17.8823  133.8413 C   0  0  0  0  0  0  0  0  0  0  0  0
  -22.0300   17.5275  135.1025 C   0  0  0  0  0  0  0  0  0  0  0  0
  -23.0946   17.6898  136.0807 C   0  0  0  0  0  0  0  0  0  0  0  0
  -23.5136   16.6324  136.8831 C   0  0  0  0  0  0  0  0  0  0  0  0
  -22.8902   15.3074  136.7681 C   0  0  0  0  0  0  0  0  0  0  0  0
  -24.5336   16.8183  137.8091 C   0  0  0  0  0  0  0  0  0  0  0  0
  -23.7268   18.8874  136.2519 C   0  0  0  0  0  0  0  0  0  0  0  0
  -24.7559   19.0690  137.1883 C   0  0  0  0  0  0  0  0  0  0  0  0
  -25.1587   18.0326  137.9671 C   0  0  0  0  0  0  0  0  0  0  0  0
  -26.2390   18.2168  138.9526 C   0  0  0  0  0  0  0  0  0  0  0  0
  -27.2933   19.0339  138.8250 N   0  0  0  0  0  0  0  0  0  0  0  0
  -28.0527   18.9315  139.9140 N   0  0  0  0  0  0  0  0  0  0  0  0
  -27.4853   18.0523  140.7338 N   0  0  0  0  0  0  0  0  0  0  0  0
  -26.3684   17.6111  140.1436 N   0  0  0  0  0  0  0  0  0  0  0  0
  1  2  1  0
  2  3  2  0
  2  4  1  0
  4  5  2  0
  4  6  1  0
  5 11  1  0
  6  7  1  0
  6  8  1  0
  8  9  2  0
  8 10  1  0
 10 11  2  0
 11 12  1  0
 12 13  2  0
 12 16  1  0
 14 13  1  1
 13 15  1  0
 15 18  2  0
 16 17  2  0
 17 18  1  0
 18 19  1  0
 19 20  2  0
 19 23  1  0
 20 21  1  0
 21 22  2  0
 22 23  1  0
M  CHG  1   1  -1
M  END
$$$$
