
     RDKit          3D

 23 25  0  0  0  0  0  0  0  0999 V2000
  -21.9131   19.0799  132.5174 O   0  0  0  0  0  1  0  0  0  0  0  0
  -20.7229   18.4128  132.7110 C   0  0  0  0  0  0  0  0  0  0  0  0
  -19.8831   18.3738  131.7971 O   0  0  0  0  0  0  0  0  0  0  0  0
  -20.4895   17.7622  134.0131 C   0  0  0  0  0  0  0  0  0  0  0  0
  -21.3235   17.8439  134.9637 N   0  0  0  0  0  0  0  0  0  0  0  0
  -19.2357   17.0157  134.1426 C   0  0  0  0  0  0  0  0  0  0  0  0
  -19.3378   15.9408  133.2195 O   0  0  0  0  0  0  0  0  0  0  0  0
  -19.1099   16.4156  135.4678 C   0  0  0  0  0  0  0  0  0  0  0  0
  -18.0895   15.7163  135.8021 O   0  0  0  0  0  0  0  0  0  0  0  0
  -20.1304   16.5738  136.4851 C   0  0  0  0  0  0  0  0  0  0  0  0
  -21.2242   17.2702  136.2596 C   0  0  0  0  0  0  0  0  0  0  0  0
  -22.2684   17.4497  137.2566 C   0  0  0  0  0  0  0  0  0  0  0  0
  -23.5710   17.0125  137.0337 C   0  0  0  0  0  0  0  0  0  0  0  0
  -23.9375   16.3503  135.7748 C   0  0  0  0  0  0  0  0  0  0  0  0
  -24.5473   17.1983  138.0057 C   0  0  0  0  0  0  0  0  0  0  0  0
  -22.0130   18.0551  138.4530 C   0  0  0  0  0  0  0  0  0  0  0  0
  -23.0027   18.2398  139.4304 C   0  0  0  0  0  0  0  0  0  0  0  0
  -24.2707   17.8105  139.2052 C   0  0  0  0  0  0  0  0  0  0  0  0
  -25.3148   18.0015  140.2277 C   0  0  0  0  0  0  0  0  0  0  0  0
  -25.1838   18.6867  141.3716 N   0  0  0  0  0  0  0  0  0  0  0  0
  -26.3362   18.6395  142.0373 N   0  0  0  0  0  0  0  0  0  0  0  0
  -27.1996   17.9266  141.3208 N   0  0  0  0  0  0  0  0  0  0  0  0
  -26.5727   17.5329  140.2062 N   0  0  0  0  0  0  0  0  0  0  0  0
  1  2  1  0
  2  3  2  0
  2  4  1  0
  4  5  2  0
  4  6  1  0
  5 11  1  0
  6  7  1  0
  6  8  1  0
  8  9  2  0
  8 10  1  0
 10 11  2  0
 11 12  1  0
 12 13  2  0
 12 16  1  0
 14 13  1  1
 13 15  1  0
 15 18  2  0
 16 17  2  0
 17 18  1  0
 18 19  1  0
 19 20  2  0
 19 23  1  0
 20 21  1  0
 21 22  2  0
 22 23  1  0
M  CHG  1   1  -1
M  END
$$$$
