
     RDKit          3D

 23 25  0  0  0  0  0  0  0  0999 V2000
  -18.6741   15.5139  136.5833 O   0  0  0  0  0  1  0  0  0  0  0  0
  -18.5875   15.8961  135.2599 C   0  0  0  0  0  0  0  0  0  0  0  0
  -17.5896   15.5640  134.5682 O   0  0  0  0  0  0  0  0  0  0  0  0
  -19.6695   16.7020  134.6397 C   0  0  0  0  0  0  0  0  0  0  0  0
  -20.7132   17.0118  135.2852 N   0  0  0  0  0  0  0  0  0  0  0  0
  -19.5057   17.1434  133.2348 C   0  0  0  0  0  0  0  0  0  0  0  0
  -18.3140   17.8585  133.0451 O   0  0  0  0  0  0  0  0  0  0  0  0
  -20.6564   17.9266  132.7716 C   0  0  0  0  0  0  0  0  0  0  0  0
  -20.6764   18.3810  131.5910 O   0  0  0  0  0  0  0  0  0  0  0  0
  -21.8236   18.2249  133.6217 C   0  0  0  0  0  0  0  0  0  0  0  0
  -21.8287   17.7671  134.8466 C   0  0  0  0  0  0  0  0  0  0  0  0
  -22.9646   18.0342  135.7354 C   0  0  0  0  0  0  0  0  0  0  0  0
  -22.7576   18.7493  136.8766 C   0  0  0  0  0  0  0  0  0  0  0  0
  -21.4438   19.2728  137.2684 C   0  0  0  0  0  0  0  0  0  0  0  0
  -23.8467   19.0035  137.7260 C   0  0  0  0  0  0  0  0  0  0  0  0
  -24.2313   17.5777  135.4397 C   0  0  0  0  0  0  0  0  0  0  0  0
  -25.3266   17.8311  136.2900 C   0  0  0  0  0  0  0  0  0  0  0  0
  -25.1070   18.5533  137.4385 C   0  0  0  0  0  0  0  0  0  0  0  0
  -26.2202   18.8386  138.3501 C   0  0  0  0  0  0  0  0  0  0  0  0
  -27.5046   18.4927  138.1760 N   0  0  0  0  0  0  0  0  0  0  0  0
  -28.2067   18.9253  139.2098 N   0  0  0  0  0  0  0  0  0  0  0  0
  -27.3587   19.5382  140.0230 N   0  0  0  0  0  0  0  0  0  0  0  0
  -26.1368   19.4975  139.5172 N   0  0  0  0  0  0  0  0  0  0  0  0
  1  2  1  0
  2  3  2  0
  2  4  1  0
  4  5  2  0
  4  6  1  0
  5 11  1  0
  6  7  1  0
  6  8  1  0
  8  9  2  0
  8 10  1  0
 10 11  2  0
 11 12  1  0
 12 13  2  0
 12 16  1  0
 13 14  1  0
 13 15  1  0
 15 18  2  0
 16 17  2  0
 17 18  1  0
 18 19  1  0
 19 20  2  0
 19 23  1  0
 20 21  1  0
 21 22  2  0
 22 23  1  0
M  CHG  1   1  -1
M  END
$$$$
