
     RDKit          3D

 23 25  0  0  0  0  0  0  0  0999 V2000
  -17.4853   16.0110  134.3536 O   0  0  0  0  0  1  0  0  0  0  0  0
  -18.5445   16.1778  135.2192 C   0  0  0  0  0  0  0  0  0  0  0  0
  -18.4443   15.7944  136.3961 O   0  0  0  0  0  0  0  0  0  0  0  0
  -19.7724   16.8133  134.7078 C   0  0  0  0  0  0  0  0  0  0  0  0
  -20.7778   17.0254  135.4494 N   0  0  0  0  0  0  0  0  0  0  0  0
  -19.7610   17.1852  133.2908 C   0  0  0  0  0  0  0  0  0  0  0  0
  -18.7627   18.1886  133.1706 O   0  0  0  0  0  0  0  0  0  0  0  0
  -21.0227   17.8040  132.8945 C   0  0  0  0  0  0  0  0  0  0  0  0
  -21.2337   18.2081  131.6968 O   0  0  0  0  0  0  0  0  0  0  0  0
  -22.1126   17.9988  133.8301 C   0  0  0  0  0  0  0  0  0  0  0  0
  -22.0142   17.6245  135.0881 C   0  0  0  0  0  0  0  0  0  0  0  0
  -23.0871   17.8045  136.0541 C   0  0  0  0  0  0  0  0  0  0  0  0
  -23.7456   19.0230  136.1926 C   0  0  0  0  0  0  0  0  0  0  0  0
  -23.3762   20.1767  135.3618 C   0  0  0  0  0  0  0  0  0  0  0  0
  -24.7671   19.1642  137.1247 C   0  0  0  0  0  0  0  0  0  0  0  0
  -23.4925   16.7841  136.8652 C   0  0  0  0  0  0  0  0  0  0  0  0
  -24.5244   16.9327  137.8043 C   0  0  0  0  0  0  0  0  0  0  0  0
  -25.1616   18.1245  137.9332 C   0  0  0  0  0  0  0  0  0  0  0  0
  -26.2462   18.2871  138.9176 C   0  0  0  0  0  0  0  0  0  0  0  0
  -26.4184   17.5603  140.0300 N   0  0  0  0  0  0  0  0  0  0  0  0
  -27.5034   17.9967  140.6669 N   0  0  0  0  0  0  0  0  0  0  0  0
  -28.0219   18.9985  139.9636 N   0  0  0  0  0  0  0  0  0  0  0  0
  -27.2493   19.1789  138.8861 N   0  0  0  0  0  0  0  0  0  0  0  0
  1  2  1  0
  2  3  2  0
  2  4  1  0
  4  5  2  0
  4  6  1  0
  5 11  1  0
  6  7  1  0
  6  8  1  0
  8  9  2  0
  8 10  1  0
 10 11  2  0
 11 12  1  0
 12 13  2  0
 12 16  1  0
 14 13  1  1
 13 15  1  0
 15 18  2  0
 16 17  2  0
 17 18  1  0
 18 19  1  0
 19 20  2  0
 19 23  1  0
 20 21  1  0
 21 22  2  0
 22 23  1  0
M  CHG  1   1  -1
M  END
$$$$
