
     RDKit          3D

119126  0  0  0  0  0  0  0  0999 V2000
   26.9543   53.4832    9.2577 C   0  0  0  0  0  0  0  0  0  0  0  0
   25.8571   49.5935   10.7427 N   0  0  0  0  0  0  0  0  0  0  0  0
   28.1385   52.7313    9.7316 C   0  0  0  0  0  0  0  0  0  0  0  0
   25.9938   50.6118    9.6939 C   0  0  0  0  0  0  0  0  0  0  0  0
   27.9216   44.2978   14.7826 O   0  0  0  0  0  1  0  0  0  0  0  0
   27.2553   50.5030    8.9035 C   0  0  2  0  0  0  0  0  0  0  0  0
   25.6148   44.7432   13.9723 C   0  0  0  0  0  0  0  0  0  0  0  0
   24.3105   44.5204   14.3470 C   0  0  0  0  0  0  0  0  0  0  0  0
   23.2437   45.3888   14.0061 C   0  0  0  0  0  0  0  0  0  0  0  0
   23.5191   46.5133   13.2620 C   0  0  0  0  0  0  0  0  0  0  0  0
   26.4519   48.6686   12.6043 N   0  0  0  0  0  0  0  0  0  0  0  0
   25.8201   45.8627   13.2462 C   0  0  0  0  0  0  0  0  0  0  0  0
   24.8005   46.7881   12.8628 C   0  0  0  0  0  0  0  0  0  0  0  0
   25.3466   47.9563   12.0996 C   0  0  0  0  0  0  0  0  0  0  0  0
   27.8917   50.2932    6.6911 O   0  0  0  0  0  0  0  0  0  0  0  0
   28.3262   51.3348    9.4358 N   0  0  0  0  0  0  0  0  0  0  0  0
   26.4651   55.4643    7.8719 C   0  0  0  0  0  0  0  0  0  0  0  0
   26.4556   42.5931   14.2545 O   0  0  0  0  0  0  0  0  0  0  0  0
   25.0218   48.5889   10.9251 C   0  0  0  0  0  0  0  0  0  0  0  0
   24.5478   41.1884   17.4867 O   0  0  0  0  0  0  0  0  0  0  0  0
   21.3226   42.5351   16.0188 O   0  0  0  0  0  0  0  0  0  0  0  0
   16.8556   40.9419   15.1022 O   0  0  0  0  0  0  0  0  0  0  0  0
   27.4296   54.6311    8.5060 N   0  0  0  0  0  0  0  0  0  0  0  0
   25.1588   54.9628    7.4209 C   0  0  0  0  0  0  0  0  0  0  0  0
   26.7140   56.7057    7.6711 O   0  0  0  0  0  0  0  0  0  0  0  0
   29.0677   53.2639   10.4238 O   0  0  0  0  0  0  0  0  0  0  0  0
   26.7251   49.6081   11.8027 N   0  0  0  0  0  0  0  0  0  0  0  0
   19.9260   44.3611   15.1687 N   0  0  0  0  0  0  0  0  0  0  0  0
   17.6582   43.2854   13.1488 N   0  0  0  0  0  0  0  0  0  0  0  0
   18.9588   41.2084   15.9378 N   0  0  0  0  0  0  0  0  0  0  0  0
   22.5577   40.5453   15.9987 N   0  0  0  0  0  0  0  0  0  0  0  0
   26.1571   41.6134   15.9156 N   0  0  0  0  0  0  0  0  0  0  0  0
   20.7210   44.1846   16.2546 N   0  0  0  0  0  0  0  0  0  0  0  0
   21.9015   44.5048   15.9536 N   0  0  0  0  0  0  0  0  0  0  0  0
   21.9516   44.9256   14.6095 C   0  0  0  0  0  0  0  0  0  0  0  0
   20.6588   44.8083   14.1641 C   0  0  0  0  0  0  0  0  0  0  0  0
   18.4828   44.0865   15.2887 C   0  0  0  0  0  0  0  0  0  0  0  0
   18.0108   42.9612   14.3833 C   0  0  1  0  0  0  0  0  0  0  0  0
   17.8572   41.6686   15.1238 C   0  0  0  0  0  0  0  0  0  0  0  0
   20.1274   40.6290   15.3176 C   0  0  0  0  0  0  0  0  0  0  0  0
   21.3571   41.3051   15.7974 C   0  0  0  0  0  0  0  0  0  0  0  0
   23.7782   40.9179   15.2760 C   0  0  0  0  0  0  0  0  0  0  0  0
   24.8249   41.2391   16.2500 C   0  0  0  0  0  0  0  0  0  0  0  0
   26.6913   43.8338   14.3457 C   0  0  0  0  0  0  0  0  0  0  0  0
   27.0727   50.9046    7.4702 C   0  0  0  0  0  0  0  0  0  0  0  0
   26.2004   51.7876    6.8985 N   0  0  0  0  0  0  0  0  0  0  0  0
   26.0406   53.2347    7.0745 C   0  0  2  0  0  0  0  0  0  0  0  0
   24.6264   53.5426    7.3771 C   0  0  0  0  0  0  0  0  0  0  0  0
   24.3391   53.3238    8.6267 O   0  0  0  0  0  0  0  0  0  0  0  0
   26.5196   53.9591    5.8480 C   0  0  0  0  0  0  0  0  0  0  0  0
   25.6256   53.7641    4.6284 C   0  0  0  0  0  0  0  0  0  0  0  0
   24.6066   52.6924    4.8630 C   0  0  0  0  0  0  0  0  0  0  0  0
   23.8371   52.8477    6.0558 N   0  0  0  0  0  0  0  0  0  0  0  0
   24.0778   53.8127    7.0574 C   0  0  0  0  0  0  0  0  0  0  0  0
   23.3786   54.8630    7.1486 N   0  0  0  0  0  4  0  0  0  0  0  0
   25.1462   53.6023    8.0197 N   0  0  0  0  0  0  0  0  0  0  0  0
   23.5993   54.0023    6.5760 N   0  0  0  0  0  0  0  0  0  0  0  0
   23.3475   55.3006    5.9945 C   0  0  2  0  0  0  0  0  0  0  0  0
   22.1418   55.9419    6.5721 C   0  0  0  0  0  0  0  0  0  0  0  0
   22.4441   56.4413    7.7495 O   0  0  0  0  0  0  0  0  0  0  0  0
   23.3856   55.2292    4.5049 C   0  0  0  0  0  0  0  0  0  0  0  0
   24.2542   56.3087    3.8948 C   0  0  1  0  0  0  0  0  0  0  0  0
   24.6419   57.3572    4.9125 C   0  0  0  0  0  0  0  0  0  0  0  0
   25.5391   55.7077    3.3730 C   0  0  0  0  0  0  0  0  0  0  0  0
   20.8342   56.1115    6.1443 N   0  0  0  0  0  0  0  0  0  0  0  0
   19.6738   55.3011    5.9860 C   0  0  2  0  0  0  0  0  0  0  0  0
   19.7716   53.8758    5.8137 C   0  0  0  0  0  0  0  0  0  0  0  0
   20.5693   53.2824    5.0230 O   0  0  0  0  0  0  0  0  0  0  0  0
   18.6644   55.8538    4.9802 C   0  0  0  0  0  0  0  0  0  0  0  0
   18.0034   54.8903    4.1301 C   0  0  0  0  0  0  0  0  0  0  0  0
   18.7026   54.1822    3.1693 C   0  0  0  0  0  0  0  0  0  0  0  0
   16.6459   54.6440    4.2334 C   0  0  0  0  0  0  0  0  0  0  0  0
   18.0571   53.2780    2.3600 C   0  0  0  0  0  0  0  0  0  0  0  0
   16.0028   53.7315    3.4158 C   0  0  0  0  0  0  0  0  0  0  0  0
   16.7118   53.0275    2.4545 C   0  0  0  0  0  0  0  0  0  0  0  0
   16.0708   52.1036    1.6259 O   0  0  0  0  0  0  0  0  0  0  0  0
   18.9324   52.9782    6.5543 N   0  0  0  0  0  0  0  0  0  0  0  0
   17.5159   53.1996    6.7425 C   0  0  0  0  0  0  0  0  0  0  0  0
   16.9804   52.2452    7.7385 C   0  0  0  0  0  0  0  0  0  0  0  0
   17.8441   51.8643    8.6140 O   0  0  0  0  0  0  0  0  0  0  0  0
   15.6558   51.7454    7.8020 N   0  0  0  0  0  0  0  0  0  0  0  0
   14.9276   50.9852    6.8476 C   0  0  2  0  0  0  0  0  0  0  0  0
   15.6289   49.7464    6.4243 C   0  0  0  0  0  0  0  0  0  0  0  0
   16.8564   49.8838    6.1157 O   0  0  0  0  0  0  0  0  0  0  0  0
   14.4554   51.6896    5.6250 C   0  0  0  0  0  0  0  0  0  0  0  0
   15.3650   51.6703    4.4660 C   0  0  0  0  0  0  0  0  0  0  0  0
   15.0067   51.1674    3.2391 C   0  0  0  0  0  0  0  0  0  0  0  0
   16.6482   52.2060    4.5811 C   0  0  0  0  0  0  0  0  0  0  0  0
   15.8896   51.1928    2.1560 C   0  0  0  0  0  0  0  0  0  0  0  0
   17.5215   52.2354    3.5205 C   0  0  0  0  0  0  0  0  0  0  0  0
   17.1444   51.7276    2.2992 C   0  0  0  0  0  0  0  0  0  0  0  0
   15.0265   48.4905    6.3522 N   0  0  0  0  0  0  0  0  0  0  0  0
   13.8981   48.0388    7.1705 C   0  0  2  0  0  0  0  0  0  0  0  0
   13.9491   46.5712    7.3587 C   0  0  0  0  0  0  0  0  0  0  0  0
   14.1936   45.9536    6.2318 O   0  0  0  0  0  0  0  0  0  0  0  0
   12.5941   48.2912    6.4113 C   0  0  0  0  0  0  0  0  0  0  0  0
   12.8293   49.1648    5.2074 C   0  0  0  0  0  0  0  0  0  0  0  0
   14.3137   49.4463    5.0249 C   0  0  0  0  0  0  0  0  0  0  0  0
   14.6298   50.7104    5.8059 C   0  0  0  0  0  0  0  0  0  0  0  0
   15.9672   51.1753    5.5605 N   0  0  0  0  0  4  0  0  0  0  0  0
   13.7825   45.7921    8.4921 N   0  0  0  0  0  0  0  0  0  0  0  0
   14.5558   45.6149    9.6935 C   0  0  2  0  0  0  0  0  0  0  0  0
   15.0003   44.1810    9.7936 C   0  0  0  0  0  0  0  0  0  0  0  0
   15.6169   43.8030    8.7231 O   0  0  0  0  0  0  0  0  0  0  0  0
   13.7575   46.0795   10.8579 C   0  0  2  0  0  0  0  0  0  0  0  0
   14.3021   45.5246   12.1466 C   0  0  0  0  0  0  0  0  0  0  0  0
   12.3377   45.5819   10.7112 C   0  0  0  0  0  0  0  0  0  0  0  0
   15.1088   44.2503   11.9410 C   0  0  0  0  0  0  0  0  0  0  0  0
   14.8470   43.2700   10.8138 N   0  0  0  0  0  0  0  0  0  0  0  0
   15.2620   43.2780   12.1880 C   0  0  2  0  0  0  0  0  0  0  0  0
   16.6334   43.8244   12.3781 C   0  0  0  0  0  0  0  0  0  0  0  0
   16.8049   44.9238   11.7198 O   0  0  0  0  0  0  0  0  0  0  0  0
   15.1380   41.9092   12.8490 C   0  0  0  0  0  0  0  0  0  0  0  0
   15.7458   41.9661   14.1948 C   0  0  0  0  0  0  0  0  0  0  0  0
   15.4068   42.5446   15.3320 N   0  0  0  0  0  0  0  0  0  0  0  0
   16.9568   41.3152   14.4634 C   0  0  0  0  0  0  0  0  0  0  0  0
   16.3364   42.2819   16.2611 C   0  0  0  0  0  0  0  0  0  0  0  0
   17.3097   41.5187   15.7413 N   0  0  0  0  0  0  0  0  0  0  0  0
   18.9869   42.7335   13.3228 O   0  0  0  0  0  0  0  0  0  0  0  0
  3  1  1  0
  1 23  1  0
  2  4  1  0
 19  2  1  0
  2 27  1  0
 16  3  1  0
  3 26  2  0
  4  6  1  0
 44  5  1  0
  6 16  1  1
  6 45  1  0
  8  7  1  0
  7 12  2  0
  7 44  1  0
  9  8  2  0
  9 10  1  0
 35  9  1  0
 10 13  2  0
 14 11  1  0
 11 27  2  0
 13 12  1  0
 13 14  1  0
 14 19  2  0
 45 15  2  0
 23 17  1  0
 17 24  1  0
 17 25  2  0
 44 18  2  0
 43 20  2  0
 41 21  2  0
 39 22  2  0
 28 33  1  0
 28 36  1  0
 37 28  1  0
 38 29  1  0
 29111  1  0
119 29  1  0
 30 39  1  0
 40 30  1  0
 31 41  1  0
 42 31  1  0
 43 32  1  0
 33 34  2  0
 35 34  1  0
 36 35  2  0
 38 37  1  0
 38 39  1  1
 38119  1  0
 41 40  1  0
 42 43  1  0
 45 46  1  0
 46 47  1  0
 47 48  1  0
 47 50  1  6
 48 49  2  0
 48 57  1  0
 50 51  1  0
 51 52  1  0
 52 53  1  0
 53 54  1  0
 54 55  2  0
 54 56  1  0
 57 58  1  0
 58 59  1  0
 58 61  1  6
 59 60  2  0
 59 65  1  0
 61 62  1  0
 62 63  1  1
 62 64  1  0
 65 66  1  0
 66 67  1  0
 66 69  1  6
 67 68  2  0
 67 77  1  0
 69 70  1  0
 70 71  2  0
 70 72  1  0
 71 73  1  0
 72 74  2  0
 73 75  2  0
 74 75  1  0
 75 76  1  0
 77 78  1  0
 78 79  1  0
 79 80  2  0
 79 81  1  0
 81 82  1  0
 82 83  1  0
 82 85  1  6
 83 84  2  0
 83 92  1  0
 85 86  1  0
 86 87  2  0
 86 88  1  0
 87 89  1  0
 88 90  2  0
 89 91  2  0
 90 91  1  0
 92 93  1  0
 93 94  1  0
 93 96  1  6
 94 95  2  0
 94101  1  0
 96 97  1  0
 97 98  1  0
 98 99  1  0
 99100  1  0
102101  1  6
102103  1  0
102105  1  0
103104  2  0
103109  1  0
105106  1  0
105107  1  6
106108  1  0
109110  1  0
110111  1  0
110113  1  6
111112  2  0
113114  1  0
114115  1  0
114116  2  0
115117  2  0
116118  1  0
117118  1  0
M  CHG  3   5  -1  55   1 100   1
M  END
$$$$
