
     RDKit          3D

119126  0  0  0  0  0  0  0  0999 V2000
   30.7365   43.6153    8.4257 C   0  0  0  0  0  0  0  0  0  0  0  0
   25.9817   41.2728    8.6113 N   0  0  0  0  0  0  0  0  0  0  0  0
   30.5281   42.1843    8.7431 C   0  0  0  0  0  0  0  0  0  0  0  0
   26.8593   41.7463    9.6889 C   0  0  0  0  0  0  0  0  0  0  0  0
   24.0018   41.4445    2.0645 O   0  0  0  0  0  1  0  0  0  0  0  0
   28.0555   42.4998    9.2101 C   0  0  2  0  0  0  0  0  0  0  0  0
   22.5848   40.5917    3.9195 C   0  0  0  0  0  0  0  0  0  0  0  0
   21.2939   40.3591    4.3324 C   0  0  0  0  0  0  0  0  0  0  0  0
   20.9169   40.2698    5.6956 C   0  0  0  0  0  0  0  0  0  0  0  0
   21.8861   40.4235    6.6606 C   0  0  0  0  0  0  0  0  0  0  0  0
   25.5566   40.0322    6.8923 N   0  0  0  0  0  0  0  0  0  0  0  0
   23.4886   40.7316    4.9126 C   0  0  0  0  0  0  0  0  0  0  0  0
   23.1898   40.6544    6.3083 C   0  0  0  0  0  0  0  0  0  0  0  0
   24.4109   40.8052    7.1635 C   0  0  0  0  0  0  0  0  0  0  0  0
   29.0370   44.5668    9.5384 O   0  0  0  0  0  0  0  0  0  0  0  0
   29.2244   41.6480    9.0362 N   0  0  0  0  0  0  0  0  0  0  0  0
   32.6398   45.1842    8.3971 C   0  0  0  0  0  0  0  0  0  0  0  0
   22.2388   39.9983    1.6975 O   0  0  0  0  0  0  0  0  0  0  0  0
   24.7454   41.5656    8.2566 C   0  0  0  0  0  0  0  0  0  0  0  0
    7.7538   42.2602    9.7499 O   0  0  0  0  0  0  0  0  0  0  0  0
   11.4127   42.8784    7.0451 O   0  0  0  0  0  0  0  0  0  0  0  0
   14.6289   40.7297    4.3067 O   0  0  0  0  0  0  0  0  0  0  0  0
   32.0571   43.9872    8.9014 N   0  0  0  0  0  0  0  0  0  0  0  0
   31.9895   46.0102    7.3694 C   0  0  0  0  0  0  0  0  0  0  0  0
   33.7756   45.5859    8.8352 O   0  0  0  0  0  0  0  0  0  0  0  0
   31.4784   41.3344    8.7741 O   0  0  0  0  0  0  0  0  0  0  0  0
   26.4473   40.3209    7.7426 N   0  0  0  0  0  0  0  0  0  0  0  0
   17.3538   39.7001    6.3240 N   0  0  0  0  0  0  0  0  0  0  0  0
   15.4394   41.9889    7.5391 N   0  0  0  0  0  0  0  0  0  0  0  0
   12.9084   41.1715    5.7339 N   0  0  0  0  0  0  0  0  0  0  0  0
   10.4516   41.3536    8.5405 N   0  0  0  0  0  0  0  0  0  0  0  0
    8.5081   44.0347    8.5165 N   0  0  0  0  0  0  0  0  0  0  0  0
   17.6580   38.8118    5.3439 N   0  0  0  0  0  0  0  0  0  0  0  0
   18.8753   38.9347    5.0439 N   0  0  0  0  0  0  0  0  0  0  0  0
   19.4607   39.9422    5.8367 C   0  0  0  0  0  0  0  0  0  0  0  0
   18.4364   40.3928    6.6313 C   0  0  0  0  0  0  0  0  0  0  0  0
   15.9854   39.7181    6.8712 C   0  0  0  0  0  0  0  0  0  0  0  0
   15.2648   41.0352    6.6372 C   0  0  1  0  0  0  0  0  0  0  0  0
   14.3154   40.9609    5.4814 C   0  0  0  0  0  0  0  0  0  0  0  0
   12.3131   40.7022    6.9634 C   0  0  0  0  0  0  0  0  0  0  0  0
   11.3767   41.7166    7.5054 C   0  0  0  0  0  0  0  0  0  0  0  0
   10.1024   42.3340    9.5737 C   0  0  0  0  0  0  0  0  0  0  0  0
    8.7675   42.8668    9.2881 C   0  0  0  0  0  0  0  0  0  0  0  0
   22.9415   40.6706    2.5083 C   0  0  0  0  0  0  0  0  0  0  0  0
   28.4597   43.5955   10.1508 C   0  0  0  0  0  0  0  0  0  0  0  0
   28.3100   43.7053   11.5046 N   0  0  0  0  0  0  0  0  0  0  0  0
   28.8446   42.8928   12.6021 C   0  0  2  0  0  0  0  0  0  0  0  0
   27.7411   42.4840   13.4974 C   0  0  0  0  0  0  0  0  0  0  0  0
   27.0810   41.4692   13.0214 O   0  0  0  0  0  0  0  0  0  0  0  0
   29.9075   43.6577   13.3394 C   0  0  0  0  0  0  0  0  0  0  0  0
   31.2708   43.6320   12.6572 C   0  0  0  0  0  0  0  0  0  0  0  0
   31.3167   42.6086   11.5652 C   0  0  0  0  0  0  0  0  0  0  0  0
   30.0959   41.8974   11.3585 N   0  0  0  0  0  0  0  0  0  0  0  0
   29.8735   40.9448   10.3407 C   0  0  0  0  0  0  0  0  0  0  0  0
   30.4963   40.9915    9.2407 N   0  0  0  0  0  4  0  0  0  0  0  0
   28.9146   39.8736   10.5527 N   0  0  0  0  0  0  0  0  0  0  0  0
   27.3114   42.9901   14.7087 N   0  0  0  0  0  0  0  0  0  0  0  0
   27.8858   42.9202   16.0325 C   0  0  2  0  0  0  0  0  0  0  0  0
   27.0513   42.1151   16.9566 C   0  0  0  0  0  0  0  0  0  0  0  0
   27.2543   40.8392   16.7163 O   0  0  0  0  0  0  0  0  0  0  0  0
   28.2554   44.2805   16.5210 C   0  0  0  0  0  0  0  0  0  0  0  0
   27.3907   45.3675   15.9185 C   0  0  1  0  0  0  0  0  0  0  0  0
   27.4469   45.3547   14.4079 C   0  0  0  0  0  0  0  0  0  0  0  0
   25.9452   45.1550   16.3055 C   0  0  0  0  0  0  0  0  0  0  0  0
   26.1516   42.4201   17.9661 N   0  0  0  0  0  0  0  0  0  0  0  0
   24.8249   42.9288   18.0640 C   0  0  2  0  0  0  0  0  0  0  0  0
   24.2484   43.7282   17.0155 C   0  0  0  0  0  0  0  0  0  0  0  0
   24.8196   44.7017   16.4327 O   0  0  0  0  0  0  0  0  0  0  0  0
   24.5070   43.5753   19.4120 C   0  0  0  0  0  0  0  0  0  0  0  0
   23.3913   43.0249   20.1470 C   0  0  0  0  0  0  0  0  0  0  0  0
   23.4073   42.9530   21.5283 C   0  0  0  0  0  0  0  0  0  0  0  0
   22.2683   42.5381   19.5020 C   0  0  0  0  0  0  0  0  0  0  0  0
   22.3432   42.4153   22.2124 C   0  0  0  0  0  0  0  0  0  0  0  0
   21.2003   41.9990   20.1972 C   0  0  0  0  0  0  0  0  0  0  0  0
   21.2261   41.9298   21.5817 C   0  0  0  0  0  0  0  0  0  0  0  0
   20.1518   41.3883   22.2915 O   0  0  0  0  0  0  0  0  0  0  0  0
   22.9216   43.4750   16.5318 N   0  0  0  0  0  0  0  0  0  0  0  0
   21.8023   43.2073   17.4073 C   0  0  0  0  0  0  0  0  0  0  0  0
   20.6369   42.7521   16.6172 C   0  0  0  0  0  0  0  0  0  0  0  0
   20.9505   42.1440   15.5267 O   0  0  0  0  0  0  0  0  0  0  0  0
   19.2706   42.9224   16.9529 N   0  0  0  0  0  0  0  0  0  0  0  0
   18.5284   44.1179   17.1503 C   0  0  2  0  0  0  0  0  0  0  0  0
   18.6096   45.0564   16.0021 C   0  0  0  0  0  0  0  0  0  0  0  0
   19.7781   45.2688   15.5432 O   0  0  0  0  0  0  0  0  0  0  0  0
   18.7873   44.8887   18.3963 C   0  0  0  0  0  0  0  0  0  0  0  0
   17.7130   44.8832   19.4046 C   0  0  0  0  0  0  0  0  0  0  0  0
   17.5635   43.8852   20.3365 C   0  0  0  0  0  0  0  0  0  0  0  0
   16.8054   45.9415   19.4584 C   0  0  0  0  0  0  0  0  0  0  0  0
   16.5474   43.9306   21.2950 C   0  0  0  0  0  0  0  0  0  0  0  0
   15.8043   45.9936   20.3984 C   0  0  0  0  0  0  0  0  0  0  0  0
   15.6710   44.9852   21.3241 C   0  0  0  0  0  0  0  0  0  0  0  0
   17.5075   45.6899   15.4282 N   0  0  0  0  0  0  0  0  0  0  0  0
   16.1395   45.1655   15.4062 C   0  0  2  0  0  0  0  0  0  0  0  0
   15.4129   45.6627   14.2160 C   0  0  0  0  0  0  0  0  0  0  0  0
   15.5951   46.9470   14.0476 O   0  0  0  0  0  0  0  0  0  0  0  0
   15.3665   45.7283   16.6004 C   0  0  0  0  0  0  0  0  0  0  0  0
   16.2590   46.5681   17.4757 C   0  0  0  0  0  0  0  0  0  0  0  0
   17.7253   46.2762   17.1912 C   0  0  0  0  0  0  0  0  0  0  0  0
   18.1352   47.1445   16.0139 C   0  0  0  0  0  0  0  0  0  0  0  0
   19.5406   47.4441   16.0287 N   0  0  0  0  0  4  0  0  0  0  0  0
   14.6069   45.0054   13.3007 N   0  0  0  0  0  0  0  0  0  0  0  0
   14.8638   44.0145   12.2884 C   0  0  2  0  0  0  0  0  0  0  0  0
   14.5039   44.5749   10.9392 C   0  0  0  0  0  0  0  0  0  0  0  0
   15.1000   45.7002   10.7222 O   0  0  0  0  0  0  0  0  0  0  0  0
   14.1351   42.7663   12.6347 C   0  0  2  0  0  0  0  0  0  0  0  0
   13.1367   43.0071   13.7350 C   0  0  0  0  0  0  0  0  0  0  0  0
   15.1262   41.7404   13.1349 C   0  0  0  0  0  0  0  0  0  0  0  0
   13.6267   44.0213   14.7588 C   0  0  0  0  0  0  0  0  0  0  0  0
   13.6724   44.0783    9.9613 N   0  0  0  0  0  0  0  0  0  0  0  0
   13.6783   42.8495    9.2192 C   0  0  2  0  0  0  0  0  0  0  0  0
   15.0431   42.4320    8.7966 C   0  0  0  0  0  0  0  0  0  0  0  0
   15.8917   42.5207    9.7678 O   0  0  0  0  0  0  0  0  0  0  0  0
   12.7360   42.8806    8.0205 C   0  0  0  0  0  0  0  0  0  0  0  0
   13.3078   43.7599    6.9795 C   0  0  0  0  0  0  0  0  0  0  0  0
   13.3525   43.7134    5.6610 N   0  0  0  0  0  0  0  0  0  0  0  0
   13.9907   44.9327    7.3266 C   0  0  0  0  0  0  0  0  0  0  0  0
   14.0176   44.7814    5.1988 C   0  0  0  0  0  0  0  0  0  0  0  0
   14.4237   45.5526    6.2188 N   0  0  0  0  0  0  0  0  0  0  0  0
   16.2323   42.0834    6.3296 O   0  0  0  0  0  0  0  0  0  0  0  0
  3  1  1  0
  1 23  1  0
  2  4  1  0
 19  2  1  0
  2 27  1  0
 16  3  1  0
  3 26  2  0
  4  6  1  0
 44  5  1  0
  6 16  1  1
  6 45  1  0
  8  7  1  0
  7 12  2  0
  7 44  1  0
  9  8  2  0
  9 10  1  0
 35  9  1  0
 10 13  2  0
 14 11  1  0
 11 27  2  0
 13 12  1  0
 13 14  1  0
 14 19  2  0
 45 15  2  0
 23 17  1  0
 17 24  1  0
 17 25  2  0
 44 18  2  0
 43 20  2  0
 41 21  2  0
 39 22  2  0
 28 33  1  0
 28 36  1  0
 37 28  1  0
 38 29  1  0
 29111  1  0
119 29  1  0
 30 39  1  0
 40 30  1  0
 31 41  1  0
 42 31  1  0
 43 32  1  0
 33 34  2  0
 35 34  1  0
 36 35  2  0
 38 37  1  0
 38 39  1  6
 38119  1  0
 41 40  1  0
 42 43  1  0
 45 46  1  0
 46 47  1  0
 47 48  1  0
 47 50  1  1
 48 49  2  0
 48 57  1  0
 50 51  1  0
 51 52  1  0
 52 53  1  0
 53 54  1  0
 54 55  2  0
 54 56  1  0
 57 58  1  0
 58 59  1  0
 58 61  1  1
 59 60  2  0
 59 65  1  0
 61 62  1  0
 62 63  1  6
 62 64  1  0
 65 66  1  0
 66 67  1  0
 66 69  1  1
 67 68  2  0
 67 77  1  0
 69 70  1  0
 70 71  2  0
 70 72  1  0
 71 73  1  0
 72 74  2  0
 73 75  2  0
 74 75  1  0
 75 76  1  0
 77 78  1  0
 78 79  1  0
 79 80  2  0
 79 81  1  0
 81 82  1  0
 82 83  1  0
 82 85  1  1
 83 84  2  0
 83 92  1  0
 85 86  1  0
 86 87  2  0
 86 88  1  0
 87 89  1  0
 88 90  2  0
 89 91  2  0
 90 91  1  0
 92 93  1  0
 93 94  1  0
 93 96  1  1
 94 95  2  0
 94101  1  0
 96 97  1  0
 97 98  1  0
 98 99  1  0
 99100  1  0
102101  1  1
102103  1  0
102105  1  0
103104  2  0
103109  1  0
105106  1  0
105107  1  1
106108  1  0
109110  1  0
110111  1  0
110113  1  6
111112  2  0
113114  1  0
114115  1  0
114116  2  0
115117  2  0
116118  1  0
117118  1  0
M  CHG  3   5  -1  55   1 100   1
M  END
$$$$
