
     RDKit          3D

119126  0  0  0  0  0  0  0  0999 V2000
   24.8344   41.1882   15.6376 C   0  0  0  0  0  0  0  0  0  0  0  0
   24.1747   40.4422   11.3537 N   0  0  0  0  0  0  0  0  0  0  0  0
   26.1068   40.8401   14.9653 C   0  0  0  0  0  0  0  0  0  0  0  0
   24.1818   41.2364   12.5886 C   0  0  0  0  0  0  0  0  0  0  0  0
   26.9684   38.6485    5.4642 O   0  0  0  0  0  1  0  0  0  0  0  0
   25.4441   42.0015   12.8105 C   0  0  2  0  0  0  0  0  0  0  0  0
   24.5399   38.3715    5.9137 C   0  0  0  0  0  0  0  0  0  0  0  0
   23.2741   38.0861    5.4582 C   0  0  0  0  0  0  0  0  0  0  0  0
   22.1078   38.2514    6.2461 C   0  0  0  0  0  0  0  0  0  0  0  0
   22.2407   38.7218    7.5327 C   0  0  0  0  0  0  0  0  0  0  0  0
   24.8854   38.8177   10.1164 N   0  0  0  0  0  0  0  0  0  0  0  0
   24.6040   38.8271    7.1829 C   0  0  0  0  0  0  0  0  0  0  0  0
   23.4774   39.0202    8.0412 C   0  0  0  0  0  0  0  0  0  0  0  0
   23.8735   39.4932    9.4067 C   0  0  0  0  0  0  0  0  0  0  0  0
   26.0928   44.1899   13.1759 O   0  0  0  0  0  0  0  0  0  0  0  0
   26.4073   41.2734   13.6256 N   0  0  0  0  0  0  0  0  0  0  0  0
   22.8063   40.0160   16.4106 C   0  0  0  0  0  0  0  0  0  0  0  0
   25.5606   37.5729    3.9824 O   0  0  0  0  0  0  0  0  0  0  0  0
   23.4693   40.5060   10.2409 C   0  0  0  0  0  0  0  0  0  0  0  0
   24.7711   35.2101    2.2228 O   0  0  0  0  0  0  0  0  0  0  0  0
   20.5923   36.6706    0.0395 O   0  0  0  0  0  0  0  0  0  0  0  0
   16.2891   38.2570    0.9503 O   0  0  0  0  0  0  0  0  0  0  0  0
   24.1635   39.9485   15.9863 N   0  0  0  0  0  0  0  0  0  0  0  0
   22.2196   41.2287   16.9994 C   0  0  0  0  0  0  0  0  0  0  0  0
   22.0383   38.9969   16.2884 O   0  0  0  0  0  0  0  0  0  0  0  0
   27.0181   40.1431   15.5220 O   0  0  0  0  0  0  0  0  0  0  0  0
   25.0386   39.3851   11.2364 N   0  0  0  0  0  0  0  0  0  0  0  0
   18.9452   37.4230    4.5949 N   0  0  0  0  0  0  0  0  0  0  0  0
   16.8182   39.6833    3.7308 N   0  0  0  0  0  0  0  0  0  0  0  0
   18.4074   37.4670    1.2352 N   0  0  0  0  0  0  0  0  0  0  0  0
   21.9001   36.3422    1.9545 N   0  0  0  0  0  0  0  0  0  0  0  0
   24.7064   37.0823    3.5380 N   0  0  0  0  0  0  0  0  0  0  0  0
   19.7600   36.3846    4.2782 N   0  0  0  0  0  0  0  0  0  0  0  0
   20.8914   36.5796    4.7967 N   0  0  0  0  0  0  0  0  0  0  0  0
   20.8844   37.7959    5.5087 C   0  0  0  0  0  0  0  0  0  0  0  0
   19.6139   38.2863    5.3389 C   0  0  0  0  0  0  0  0  0  0  0  0
   17.5470   37.4005    4.1293 C   0  0  0  0  0  0  0  0  0  0  0  0
   17.2126   38.5431    3.1851 C   0  0  1  0  0  0  0  0  0  0  0  0
   17.2210   38.1106    1.7514 C   0  0  0  0  0  0  0  0  0  0  0  0
   19.5879   37.3521    2.0594 C   0  0  0  0  0  0  0  0  0  0  0  0
   20.7090   36.7729    1.2800 C   0  0  0  0  0  0  0  0  0  0  0  0
   23.2072   36.8092    1.4813 C   0  0  0  0  0  0  0  0  0  0  0  0
   24.2400   36.3463    2.4122 C   0  0  0  0  0  0  0  0  0  0  0  0
   25.7209   38.1834    5.0801 C   0  0  0  0  0  0  0  0  0  0  0  0
   25.2082   43.3143   13.4958 C   0  0  0  0  0  0  0  0  0  0  0  0
   24.2323   43.6969   14.3725 N   0  0  0  0  0  0  0  0  0  0  0  0
   23.8974   43.2091   15.7143 C   0  0  2  0  0  0  0  0  0  0  0  0
   22.4573   42.8792   15.7751 C   0  0  0  0  0  0  0  0  0  0  0  0
   22.2038   41.7159   15.2512 O   0  0  0  0  0  0  0  0  0  0  0  0
   24.2795   44.2335   16.7454 C   0  0  0  0  0  0  0  0  0  0  0  0
   24.0339   45.6725   16.3052 C   0  0  0  0  0  0  0  0  0  0  0  0
   23.1795   45.7304   15.0770 C   0  0  0  0  0  0  0  0  0  0  0  0
   22.9750   44.4745   14.4292 N   0  0  0  0  0  0  0  0  0  0  0  0
   22.2895   44.2924   13.2087 C   0  0  0  0  0  0  0  0  0  0  0  0
   21.2312   43.6030   13.1386 N   0  0  0  0  0  4  0  0  0  0  0  0
   22.7963   44.9146   11.9972 N   0  0  0  0  0  0  0  0  0  0  0  0
   21.3786   43.5826   16.2747 N   0  0  0  0  0  0  0  0  0  0  0  0
   20.9677   43.8684   17.6300 C   0  0  2  0  0  0  0  0  0  0  0  0
   19.6949   43.1916   17.9772 C   0  0  0  0  0  0  0  0  0  0  0  0
   19.9384   41.9263   18.2349 O   0  0  0  0  0  0  0  0  0  0  0  0
   21.0084   45.3356   17.8966 C   0  0  0  0  0  0  0  0  0  0  0  0
   19.7968   45.8190   18.6649 C   0  0  1  0  0  0  0  0  0  0  0  0
   18.5242   45.1709   18.1691 C   0  0  0  0  0  0  0  0  0  0  0  0
   19.9316   45.4590   20.1266 C   0  0  0  0  0  0  0  0  0  0  0  0
   18.3747   43.6019   18.0794 N   0  0  0  0  0  0  0  0  0  0  0  0
   17.3215   43.9626   17.1911 C   0  0  2  0  0  0  0  0  0  0  0  0
   17.5922   44.4434   15.8621 C   0  0  0  0  0  0  0  0  0  0  0  0
   18.4534   45.3269   15.5596 O   0  0  0  0  0  0  0  0  0  0  0  0
   16.2482   44.8447   17.8284 C   0  0  0  0  0  0  0  0  0  0  0  0
   14.9071   44.3079   17.8655 C   0  0  0  0  0  0  0  0  0  0  0  0
   13.8466   45.0587   18.3398 C   0  0  0  0  0  0  0  0  0  0  0  0
   14.6298   43.0210   17.4400 C   0  0  0  0  0  0  0  0  0  0  0  0
   12.5786   44.5295   18.3802 C   0  0  0  0  0  0  0  0  0  0  0  0
   13.3506   42.4951   17.4826 C   0  0  0  0  0  0  0  0  0  0  0  0
   12.2942   43.2548   17.9612 C   0  0  0  0  0  0  0  0  0  0  0  0
   10.9996   42.7322   18.0066 O   0  0  0  0  0  0  0  0  0  0  0  0
   16.8719   43.9396   14.7282 N   0  0  0  0  0  0  0  0  0  0  0  0
   15.4397   43.7403   14.7305 C   0  0  0  0  0  0  0  0  0  0  0  0
   15.0289   42.9929   13.5214 C   0  0  0  0  0  0  0  0  0  0  0  0
   15.9360   42.2033   13.0620 O   0  0  0  0  0  0  0  0  0  0  0  0
   13.7756   43.0725   12.8646 N   0  0  0  0  0  0  0  0  0  0  0  0
   13.1420   44.1882   12.2538 C   0  0  2  0  0  0  0  0  0  0  0  0
   13.9879   44.8583   11.2335 C   0  0  0  0  0  0  0  0  0  0  0  0
   15.1883   45.1001   11.5825 O   0  0  0  0  0  0  0  0  0  0  0  0
   12.5826   45.2354   13.1505 C   0  0  0  0  0  0  0  0  0  0  0  0
   13.2363   46.5550   13.1033 C   0  0  0  0  0  0  0  0  0  0  0  0
   14.4057   46.7893   12.4219 C   0  0  0  0  0  0  0  0  0  0  0  0
   12.6498   47.6442   13.7486 C   0  0  0  0  0  0  0  0  0  0  0  0
   14.9799   48.0627   12.3779 C   0  0  0  0  0  0  0  0  0  0  0  0
   13.2079   48.8994   13.7091 C   0  0  0  0  0  0  0  0  0  0  0  0
   14.3791   49.1147   13.0208 C   0  0  0  0  0  0  0  0  0  0  0  0
   13.5434   45.2204    9.9621 N   0  0  0  0  0  0  0  0  0  0  0  0
   12.4819   44.5489    9.2076 C   0  0  2  0  0  0  0  0  0  0  0  0
   12.7127   44.6888    7.7519 C   0  0  0  0  0  0  0  0  0  0  0  0
   13.0265   45.9183    7.4343 O   0  0  0  0  0  0  0  0  0  0  0  0
   11.1539   45.2639    9.4640 C   0  0  0  0  0  0  0  0  0  0  0  0
   10.1787   44.3579   10.1683 C   0  0  0  0  0  0  0  0  0  0  0  0
   10.8649   43.0816   10.6334 C   0  0  0  0  0  0  0  0  0  0  0  0
   12.3623   43.3080   10.5128 C   0  0  0  0  0  0  0  0  0  0  0  0
   13.1128   42.1194   10.8114 N   0  0  0  0  0  4  0  0  0  0  0  0
   12.6470   43.7599    6.7261 N   0  0  0  0  0  0  0  0  0  0  0  0
   13.4409   42.6097    6.3805 C   0  0  2  0  0  0  0  0  0  0  0  0
   14.0578   42.8187    5.0242 C   0  0  0  0  0  0  0  0  0  0  0  0
   14.7117   43.9315    4.9705 O   0  0  0  0  0  0  0  0  0  0  0  0
   12.5962   41.3905    6.4752 C   0  0  2  0  0  0  0  0  0  0  0  0
   11.2218   41.6362    5.9131 C   0  0  0  0  0  0  0  0  0  0  0  0
   12.4334   41.0164    7.9307 C   0  0  0  0  0  0  0  0  0  0  0  0
   10.7442   43.0640    6.1371 C   0  0  0  0  0  0  0  0  0  0  0  0
   14.0209   42.0291    3.8975 N   0  0  0  0  0  0  0  0  0  0  0  0
   14.4372   40.6778    3.6496 C   0  0  2  0  0  0  0  0  0  0  0  0
   15.7322   40.3395    4.3007 C   0  0  0  0  0  0  0  0  0  0  0  0
   15.7654   40.7342    5.5313 O   0  0  0  0  0  0  0  0  0  0  0  0
   14.4840   40.3389    2.1634 C   0  0  0  0  0  0  0  0  0  0  0  0
   15.7051   40.9253    1.5728 C   0  0  0  0  0  0  0  0  0  0  0  0
   16.5383   41.8794    1.9447 N   0  0  0  0  0  0  0  0  0  0  0  0
   16.1968   40.4707    0.3424 C   0  0  0  0  0  0  0  0  0  0  0  0
   17.4945   42.0241    1.0166 C   0  0  0  0  0  0  0  0  0  0  0  0
   17.3004   41.1573    0.0110 N   0  0  0  0  0  0  0  0  0  0  0  0
   18.2051   39.6045    3.3178 O   0  0  0  0  0  0  0  0  0  0  0  0
  3  1  1  0
  1 23  1  0
  2  4  1  0
 19  2  1  0
  2 27  1  0
 16  3  1  0
  3 26  2  0
  4  6  1  0
 44  5  1  0
  6 16  1  1
  6 45  1  0
  8  7  1  0
  7 12  2  0
  7 44  1  0
  9  8  2  0
  9 10  1  0
 35  9  1  0
 10 13  2  0
 14 11  1  0
 11 27  2  0
 13 12  1  0
 13 14  1  0
 14 19  2  0
 45 15  2  0
 23 17  1  0
 17 24  1  0
 17 25  2  0
 44 18  2  0
 43 20  2  0
 41 21  2  0
 39 22  2  0
 28 33  1  0
 28 36  1  0
 37 28  1  0
 38 29  1  0
 29111  1  0
119 29  1  0
 30 39  1  0
 40 30  1  0
 31 41  1  0
 42 31  1  0
 43 32  1  0
 33 34  2  0
 35 34  1  0
 36 35  2  0
 38 37  1  0
 38 39  1  6
 38119  1  0
 41 40  1  0
 42 43  1  0
 45 46  1  0
 46 47  1  0
 47 48  1  0
 47 50  1  1
 48 49  2  0
 48 57  1  0
 50 51  1  0
 51 52  1  0
 52 53  1  0
 53 54  1  0
 54 55  2  0
 54 56  1  0
 57 58  1  0
 58 59  1  0
 58 61  1  6
 59 60  2  0
 59 65  1  0
 61 62  1  0
 62 63  1  6
 62 64  1  0
 65 66  1  0
 66 67  1  0
 66 69  1  1
 67 68  2  0
 67 77  1  0
 69 70  1  0
 70 71  2  0
 70 72  1  0
 71 73  1  0
 72 74  2  0
 73 75  2  0
 74 75  1  0
 75 76  1  0
 77 78  1  0
 78 79  1  0
 79 80  2  0
 79 81  1  0
 81 82  1  0
 82 83  1  0
 82 85  1  1
 83 84  2  0
 83 92  1  0
 85 86  1  0
 86 87  2  0
 86 88  1  0
 87 89  1  0
 88 90  2  0
 89 91  2  0
 90 91  1  0
 92 93  1  0
 93 94  1  0
 93 96  1  6
 94 95  2  0
 94101  1  0
 96 97  1  0
 97 98  1  0
 98 99  1  0
 99100  1  0
102101  1  6
102103  1  0
102105  1  0
103104  2  0
103109  1  0
105106  1  0
105107  1  1
106108  1  0
109110  1  0
110111  1  0
110113  1  6
111112  2  0
113114  1  0
114115  1  0
114116  2  0
115117  2  0
116118  1  0
117118  1  0
M  CHG  3   5  -1  55   1 100   1
M  END
$$$$
