
     RDKit          3D

119126  0  0  0  0  0  0  0  0999 V2000
   29.3908   42.1058   11.9285 C   0  0  0  0  0  0  0  0  0  0  0  0
   25.0759   41.6070   13.9233 N   0  0  0  0  0  0  0  0  0  0  0  0
   29.3873   41.5481   13.3000 C   0  0  0  0  0  0  0  0  0  0  0  0
   26.1414   41.6344   12.9135 C   0  0  0  0  0  0  0  0  0  0  0  0
   20.0064   38.1539   18.6116 O   0  0  0  0  0  1  0  0  0  0  0  0
   27.0991   40.4937   13.0109 C   0  0  2  0  0  0  0  0  0  0  0  0
   20.7066   40.2919   17.5557 C   0  0  0  0  0  0  0  0  0  0  0  0
   19.5888   41.0026   17.1861 C   0  0  0  0  0  0  0  0  0  0  0  0
   19.5732   41.9240   16.1094 C   0  0  0  0  0  0  0  0  0  0  0  0
   20.7312   42.1220   15.3923 C   0  0  0  0  0  0  0  0  0  0  0  0
   24.3643   41.7275   15.9614 N   0  0  0  0  0  0  0  0  0  0  0  0
   21.8099   40.5316   16.8155 C   0  0  0  0  0  0  0  0  0  0  0  0
   21.8764   41.4437   15.7170 C   0  0  0  0  0  0  0  0  0  0  0  0
   23.2501   41.5251   15.1239 C   0  0  0  0  0  0  0  0  0  0  0  0
   27.9180   38.8088   11.6566 O   0  0  0  0  0  0  0  0  0  0  0  0
   28.2678   40.8081   13.8217 N   0  0  0  0  0  0  0  0  0  0  0  0
   27.5534   43.1894   10.6896 C   0  0  0  0  0  0  0  0  0  0  0  0
   21.3355   39.6890   19.7122 O   0  0  0  0  0  0  0  0  0  0  0  0
   23.7672   41.4565   13.8540 C   0  0  0  0  0  0  0  0  0  0  0  0
   11.5181   46.7278   20.2599 O   0  0  0  0  0  0  0  0  0  0  0  0
   10.7891   46.5820   16.7786 O   0  0  0  0  0  0  0  0  0  0  0  0
   12.4276   41.7194   14.8106 O   0  0  0  0  0  0  0  0  0  0  0  0
   28.0266   42.0708   11.4321 N   0  0  0  0  0  0  0  0  0  0  0  0
   26.5427   44.1189   11.2150 C   0  0  0  0  0  0  0  0  0  0  0  0
   28.0058   43.4240    9.5134 O   0  0  0  0  0  0  0  0  0  0  0  0
   30.3675   41.6789   14.1052 O   0  0  0  0  0  0  0  0  0  0  0  0
   25.4046   41.7715   15.2432 N   0  0  0  0  0  0  0  0  0  0  0  0
   16.3539   43.5413   15.4497 N   0  0  0  0  0  0  0  0  0  0  0  0
   14.5809   42.8367   12.8536 N   0  0  0  0  0  0  0  0  0  0  0  0
   12.6569   43.6695   15.9670 N   0  0  0  0  0  0  0  0  0  0  0  0
   12.5146   45.5209   17.9542 N   0  0  0  0  0  0  0  0  0  0  0  0
   13.6542   46.8970   21.0645 N   0  0  0  0  0  0  0  0  0  0  0  0
   16.4930   43.6296   16.7970 N   0  0  0  0  0  0  0  0  0  0  0  0
   17.5789   43.0863   17.1326 N   0  0  0  0  0  0  0  0  0  0  0  0
   18.2383   42.5955   15.9878 C   0  0  0  0  0  0  0  0  0  0  0  0
   17.4035   42.9157   14.9465 C   0  0  0  0  0  0  0  0  0  0  0  0
   15.1696   44.1456   14.8135 C   0  0  0  0  0  0  0  0  0  0  0  0
   14.2847   43.1299   14.1105 C   0  0  1  0  0  0  0  0  0  0  0  0
   13.0905   42.7572   14.9337 C   0  0  0  0  0  0  0  0  0  0  0  0
   11.8261   44.8028   15.6331 C   0  0  0  0  0  0  0  0  0  0  0  0
   11.6669   45.6923   16.8091 C   0  0  0  0  0  0  0  0  0  0  0  0
   13.1525   46.6927   18.5628 C   0  0  0  0  0  0  0  0  0  0  0  0
   12.7523   46.7714   19.9703 C   0  0  0  0  0  0  0  0  0  0  0  0
   20.6918   39.3565   18.6737 C   0  0  0  0  0  0  0  0  0  0  0  0
   27.6118   40.0569   11.6710 C   0  0  0  0  0  0  0  0  0  0  0  0
   27.7927   40.7627   10.5150 N   0  0  0  0  0  0  0  0  0  0  0  0
   28.6622   41.9032   10.2086 C   0  0  2  0  0  0  0  0  0  0  0  0
   27.8625   42.9820    9.5895 C   0  0  0  0  0  0  0  0  0  0  0  0
   27.2106   43.6733   10.4779 O   0  0  0  0  0  0  0  0  0  0  0  0
   29.7922   41.4657    9.3199 C   0  0  0  0  0  0  0  0  0  0  0  0
   30.5184   42.6176    8.6338 C   0  0  0  0  0  0  0  0  0  0  0  0
   29.8096   43.9183    8.8521 C   0  0  0  0  0  0  0  0  0  0  0  0
   29.8495   44.4049   10.1940 N   0  0  0  0  0  0  0  0  0  0  0  0
   29.2305   45.5900   10.6467 C   0  0  0  0  0  0  0  0  0  0  0  0
   29.5704   46.1430   11.7324 N   0  0  0  0  0  4  0  0  0  0  0  0
   28.1819   46.2054    9.8507 N   0  0  0  0  0  0  0  0  0  0  0  0
   27.6984   43.3562    8.2700 N   0  0  0  0  0  0  0  0  0  0  0  0
   28.5877   44.0233    7.3473 C   0  0  2  0  0  0  0  0  0  0  0  0
   28.0943   45.3725    6.9800 C   0  0  0  0  0  0  0  0  0  0  0  0
   28.3586   46.2072    7.9599 O   0  0  0  0  0  0  0  0  0  0  0  0
   28.9280   43.1302    6.2018 C   0  0  0  0  0  0  0  0  0  0  0  0
   28.1347   41.8408    6.2164 C   0  0  1  0  0  0  0  0  0  0  0  0
   28.1494   41.1897    7.5807 C   0  0  0  0  0  0  0  0  0  0  0  0
   26.6879   42.1179    5.8783 C   0  0  0  0  0  0  0  0  0  0  0  0
   27.4474   45.9007    5.8735 N   0  0  0  0  0  0  0  0  0  0  0  0
   26.1424   45.8528    5.3052 C   0  0  2  0  0  0  0  0  0  0  0  0
   25.2461   44.7598    5.5749 C   0  0  0  0  0  0  0  0  0  0  0  0
   25.5536   43.5279    5.5349 O   0  0  0  0  0  0  0  0  0  0  0  0
   26.1059   46.1664    3.8098 C   0  0  0  0  0  0  0  0  0  0  0  0
   26.3328   45.0587    2.9101 C   0  0  0  0  0  0  0  0  0  0  0  0
   26.9402   43.8943    3.3445 C   0  0  0  0  0  0  0  0  0  0  0  0
   25.9633   45.1197    1.5783 C   0  0  0  0  0  0  0  0  0  0  0  0
   27.1602   42.8540    2.4734 C   0  0  0  0  0  0  0  0  0  0  0  0
   26.1871   44.0681    0.7072 C   0  0  0  0  0  0  0  0  0  0  0  0
   26.7980   42.9055    1.1514 C   0  0  0  0  0  0  0  0  0  0  0  0
   27.0266   41.8387    0.2792 O   0  0  0  0  0  0  0  0  0  0  0  0
   23.8732   44.9922    5.9206 N   0  0  0  0  0  0  0  0  0  0  0  0
   23.0392   45.9512    5.2308 C   0  0  0  0  0  0  0  0  0  0  0  0
   21.7661   46.1359    5.9618 C   0  0  0  0  0  0  0  0  0  0  0  0
   21.8586   45.9371    7.2305 O   0  0  0  0  0  0  0  0  0  0  0  0
   20.5160   46.4998    5.4021 N   0  0  0  0  0  0  0  0  0  0  0  0
   19.7295   45.8279    4.4279 C   0  0  2  0  0  0  0  0  0  0  0  0
   19.4281   44.4184    4.7862 C   0  0  0  0  0  0  0  0  0  0  0  0
   20.4185   43.7259    5.1869 O   0  0  0  0  0  0  0  0  0  0  0  0
   20.2109   45.8540    3.0203 C   0  0  0  0  0  0  0  0  0  0  0  0
   20.8234   47.1130    2.5613 C   0  0  0  0  0  0  0  0  0  0  0  0
   20.8656   47.4894    1.2410 C   0  0  0  0  0  0  0  0  0  0  0  0
   21.3705   47.9985    3.4905 C   0  0  0  0  0  0  0  0  0  0  0  0
   21.4311   48.7057    0.8486 C   0  0  0  0  0  0  0  0  0  0  0  0
   21.9274   49.1966    3.1124 C   0  0  0  0  0  0  0  0  0  0  0  0
   21.9597   49.5566    1.7853 C   0  0  0  0  0  0  0  0  0  0  0  0
   18.1601   43.8433    4.7057 N   0  0  0  0  0  0  0  0  0  0  0  0
   16.8894   44.5600    4.8428 C   0  0  2  0  0  0  0  0  0  0  0  0
   15.8437   43.6622    5.3835 C   0  0  0  0  0  0  0  0  0  0  0  0
   15.8481   42.5040    4.7758 O   0  0  0  0  0  0  0  0  0  0  0  0
   16.3846   44.9577    3.4545 C   0  0  0  0  0  0  0  0  0  0  0  0
   15.7652   43.7816    2.7465 C   0  0  0  0  0  0  0  0  0  0  0  0
   15.8043   42.5395    3.6250 C   0  0  0  0  0  0  0  0  0  0  0  0
   16.4220   42.9476    4.9516 C   0  0  0  0  0  0  0  0  0  0  0  0
   16.2356   44.3460    5.2253 N   0  0  0  0  0  4  0  0  0  0  0  0
   14.9061   43.8558    6.3849 N   0  0  0  0  0  0  0  0  0  0  0  0
   15.0019   44.0185    7.8121 C   0  0  2  0  0  0  0  0  0  0  0  0
   14.2637   42.8978    8.4925 C   0  0  0  0  0  0  0  0  0  0  0  0
   14.6708   41.7445    8.0766 O   0  0  0  0  0  0  0  0  0  0  0  0
   14.5116   45.3723    8.1806 C   0  0  2  0  0  0  0  0  0  0  0  0
   15.3149   45.9516    9.3140 C   0  0  0  0  0  0  0  0  0  0  0  0
   13.0773   45.2665    8.6459 C   0  0  0  0  0  0  0  0  0  0  0  0
   15.9515   44.8803   10.1881 C   0  0  0  0  0  0  0  0  0  0  0  0
   13.2697   42.9341    9.4438 N   0  0  0  0  0  0  0  0  0  0  0  0
   13.2148   43.4948   10.7642 C   0  0  2  0  0  0  0  0  0  0  0  0
   14.4667   43.2794   11.5399 C   0  0  0  0  0  0  0  0  0  0  0  0
   15.5167   43.5601   10.8398 O   0  0  0  0  0  0  0  0  0  0  0  0
   12.0061   43.0126   11.5594 C   0  0  0  0  0  0  0  0  0  0  0  0
   11.4800   41.7795   10.9377 C   0  0  0  0  0  0  0  0  0  0  0  0
   10.5529   41.5314   10.0312 N   0  0  0  0  0  0  0  0  0  0  0  0
   11.9771   40.5224   11.3046 C   0  0  0  0  0  0  0  0  0  0  0  0
   10.4640   40.2087    9.8338 C   0  0  0  0  0  0  0  0  0  0  0  0
   11.3413   39.5625   10.6166 N   0  0  0  0  0  0  0  0  0  0  0  0
   15.0348   41.9027   13.8645 O   0  0  0  0  0  0  0  0  0  0  0  0
  3  1  1  0
  1 23  1  0
  2  4  1  0
 19  2  1  0
  2 27  1  0
 16  3  1  0
  3 26  2  0
  4  6  1  0
 44  5  1  0
  6 16  1  1
  6 45  1  0
  8  7  1  0
  7 12  2  0
  7 44  1  0
  9  8  2  0
  9 10  1  0
 35  9  1  0
 10 13  2  0
 14 11  1  0
 11 27  2  0
 13 12  1  0
 13 14  1  0
 14 19  2  0
 45 15  2  0
 23 17  1  0
 17 24  1  0
 17 25  2  0
 44 18  2  0
 43 20  2  0
 41 21  2  0
 39 22  2  0
 28 33  1  0
 28 36  1  0
 37 28  1  0
 38 29  1  0
 29111  1  0
119 29  1  0
 30 39  1  0
 40 30  1  0
 31 41  1  0
 42 31  1  0
 43 32  1  0
 33 34  2  0
 35 34  1  0
 36 35  2  0
 38 37  1  0
 38 39  1  6
 38119  1  0
 41 40  1  0
 42 43  1  0
 45 46  1  0
 46 47  1  0
 47 48  1  0
 47 50  1  6
 48 49  2  0
 48 57  1  0
 50 51  1  0
 51 52  1  0
 52 53  1  0
 53 54  1  0
 54 55  2  0
 54 56  1  0
 57 58  1  0
 58 59  1  0
 58 61  1  6
 59 60  2  0
 59 65  1  0
 61 62  1  0
 62 63  1  1
 62 64  1  0
 65 66  1  0
 66 67  1  0
 66 69  1  6
 67 68  2  0
 67 77  1  0
 69 70  1  0
 70 71  2  0
 70 72  1  0
 71 73  1  0
 72 74  2  0
 73 75  2  0
 74 75  1  0
 75 76  1  0
 77 78  1  0
 78 79  1  0
 79 80  2  0
 79 81  1  0
 81 82  1  0
 82 83  1  0
 82 85  1  6
 83 84  2  0
 83 92  1  0
 85 86  1  0
 86 87  2  0
 86 88  1  0
 87 89  1  0
 88 90  2  0
 89 91  2  0
 90 91  1  0
 92 93  1  0
 93 94  1  0
 93 96  1  6
 94 95  2  0
 94101  1  0
 96 97  1  0
 97 98  1  0
 98 99  1  0
 99100  1  0
102101  1  6
102103  1  0
102105  1  0
103104  2  0
103109  1  0
105106  1  0
105107  1  1
106108  1  0
109110  1  0
110111  1  0
110113  1  1
111112  2  0
113114  1  0
114115  1  0
114116  2  0
115117  2  0
116118  1  0
117118  1  0
M  CHG  3   5  -1  55   1 100   1
M  END
$$$$
