
     RDKit          3D

119126  0  0  0  0  0  0  0  0999 V2000
   23.9123   57.6380    3.2796 C   0  0  0  0  0  0  0  0  0  0  0  0
   24.2642   57.1799    7.3329 N   0  0  0  0  0  0  0  0  0  0  0  0
   24.0118   56.4115    4.1031 C   0  0  0  0  0  0  0  0  0  0  0  0
   23.0183   57.3669    6.5790 C   0  0  0  0  0  0  0  0  0  0  0  0
   30.0186   53.9191   12.1079 O   0  0  0  0  0  1  0  0  0  0  0  0
   22.4279   56.0986    6.0587 C   0  0  2  0  0  0  0  0  0  0  0  0
   28.5458   55.5446   10.9396 C   0  0  0  0  0  0  0  0  0  0  0  0
   28.8135   56.5740   11.8113 C   0  0  0  0  0  0  0  0  0  0  0  0
   28.1494   57.8251   11.7655 C   0  0  0  0  0  0  0  0  0  0  0  0
   27.1860   58.0270   10.8036 C   0  0  0  0  0  0  0  0  0  0  0  0
   26.3520   56.6372    7.4791 N   0  0  0  0  0  0  0  0  0  0  0  0
   27.5931   55.8050   10.0191 C   0  0  0  0  0  0  0  0  0  0  0  0
   26.8792   57.0382    9.9063 C   0  0  0  0  0  0  0  0  0  0  0  0
   25.9174   57.0388    8.7573 C   0  0  0  0  0  0  0  0  0  0  0  0
   20.4234   54.9533    6.1772 O   0  0  0  0  0  0  0  0  0  0  0  0
   22.8555   55.7950    4.6995 N   0  0  0  0  0  0  0  0  0  0  0  0
   22.8732   59.8690    3.4466 C   0  0  0  0  0  0  0  0  0  0  0  0
   29.1376   53.4938   10.0157 O   0  0  0  0  0  0  0  0  0  0  0  0
   24.5939   57.3662    8.5965 C   0  0  0  0  0  0  0  0  0  0  0  0
   33.8883   62.4211   13.0249 O   0  0  0  0  0  0  0  0  0  0  0  0
   31.3441   61.7503   15.1013 O   0  0  0  0  0  0  0  0  0  0  0  0
   29.3205   60.3626   18.9040 O   0  0  0  0  0  0  0  0  0  0  0  0
   22.9726   58.5337    3.9302 N   0  0  0  0  0  0  0  0  0  0  0  0
   23.8162   60.4295    2.4678 C   0  0  0  0  0  0  0  0  0  0  0  0
   21.9360   60.6394    3.8605 O   0  0  0  0  0  0  0  0  0  0  0  0
   25.1169   55.8190    4.3352 O   0  0  0  0  0  0  0  0  0  0  0  0
   25.3790   56.7288    6.6762 N   0  0  0  0  0  0  0  0  0  0  0  0
   29.1461   60.2467   14.3262 N   0  0  0  0  0  0  0  0  0  0  0  0
   27.2119   61.0468   16.7754 N   0  0  0  0  0  0  0  0  0  0  0  0
   30.8871   60.2177   17.2556 N   0  0  0  0  0  0  0  0  0  0  0  0
   32.5766   60.1017   13.9840 N   0  0  0  0  0  0  0  0  0  0  0  0
   34.4715   61.1887   11.1864 N   0  0  0  0  0  0  0  0  0  0  0  0
   30.3249   59.7593   13.8621 N   0  0  0  0  0  0  0  0  0  0  0  0
   30.0898   58.8996   12.9719 N   0  0  0  0  0  0  0  0  0  0  0  0
   28.6980   58.7698   12.7924 C   0  0  0  0  0  0  0  0  0  0  0  0
   28.1519   59.6549   13.6879 C   0  0  0  0  0  0  0  0  0  0  0  0
   29.1659   61.3021   15.3549 C   0  0  0  0  0  0  0  0  0  0  0  0
   28.5200   60.8751   16.6623 C   0  0  1  0  0  0  0  0  0  0  0  0
   29.5353   60.4837   17.6912 C   0  0  0  0  0  0  0  0  0  0  0  0
   31.1272   59.5762   15.9840 C   0  0  0  0  0  0  0  0  0  0  0  0
   31.6777   60.5490   15.0092 C   0  0  0  0  0  0  0  0  0  0  0  0
   32.4287   60.6163   12.6187 C   0  0  0  0  0  0  0  0  0  0  0  0
   33.6037   61.4276   12.2894 C   0  0  0  0  0  0  0  0  0  0  0  0
   29.2525   54.2714   11.0083 C   0  0  0  0  0  0  0  0  0  0  0  0
   20.9286   56.1270    6.0401 C   0  0  0  0  0  0  0  0  0  0  0  0
   20.0608   57.1737    5.9041 N   0  0  0  0  0  0  0  0  0  0  0  0
   19.8535   58.1161    4.7998 C   0  0  2  0  0  0  0  0  0  0  0  0
   19.9078   59.5010    5.3150 C   0  0  0  0  0  0  0  0  0  0  0  0
   21.1318   59.9095    5.4796 O   0  0  0  0  0  0  0  0  0  0  0  0
   18.5483   57.8266    4.1134 C   0  0  0  0  0  0  0  0  0  0  0  0
   18.4825   58.3314    2.6761 C   0  0  0  0  0  0  0  0  0  0  0  0
   19.8164   58.8252    2.2083 C   0  0  0  0  0  0  0  0  0  0  0  0
   20.8983   58.5689    3.1041 N   0  0  0  0  0  0  0  0  0  0  0  0
   22.2307   58.3113    2.7154 C   0  0  0  0  0  0  0  0  0  0  0  0
   23.0039   57.6046    3.4246 N   0  0  0  0  0  4  0  0  0  0  0  0
   22.7363   58.8579    1.4674 N   0  0  0  0  0  0  0  0  0  0  0  0
   18.9067   60.3946    5.6422 N   0  0  0  0  0  0  0  0  0  0  0  0
   17.9969   61.1558    4.8175 C   0  0  2  0  0  0  0  0  0  0  0  0
   18.2570   62.6130    4.9052 C   0  0  0  0  0  0  0  0  0  0  0  0
   19.3004   62.9079    4.1627 O   0  0  0  0  0  0  0  0  0  0  0  0
   16.5857   60.7395    5.0637 C   0  0  0  0  0  0  0  0  0  0  0  0
   16.4881   59.5230    5.9596 C   0  0  1  0  0  0  0  0  0  0  0  0
   17.6444   58.5737    5.7428 C   0  0  0  0  0  0  0  0  0  0  0  0
   16.5314   59.9426    7.4109 C   0  0  0  0  0  0  0  0  0  0  0  0
   17.6550   63.6671    5.5745 N   0  0  0  0  0  0  0  0  0  0  0  0
   17.5718   64.1420    6.9147 C   0  0  2  0  0  0  0  0  0  0  0  0
   17.7703   63.2626    8.0362 C   0  0  0  0  0  0  0  0  0  0  0  0
   17.2470   62.1131    8.1726 O   0  0  0  0  0  0  0  0  0  0  0  0
   16.3526   65.0231    7.1853 C   0  0  0  0  0  0  0  0  0  0  0  0
   15.0636   64.3705    7.1597 C   0  0  0  0  0  0  0  0  0  0  0  0
   14.0182   64.8759    6.4080 C   0  0  0  0  0  0  0  0  0  0  0  0
   14.8181   63.2227    7.8920 C   0  0  0  0  0  0  0  0  0  0  0  0
   12.7942   64.2505    6.4038 C   0  0  0  0  0  0  0  0  0  0  0  0
   13.5836   62.5977    7.8823 C   0  0  0  0  0  0  0  0  0  0  0  0
   12.5412   63.1126    7.1269 C   0  0  0  0  0  0  0  0  0  0  0  0
   11.2922   62.4874    7.1103 O   0  0  0  0  0  0  0  0  0  0  0  0
   18.6100   63.6394    9.1368 N   0  0  0  0  0  0  0  0  0  0  0  0
   18.5755   64.9534    9.7394 C   0  0  0  0  0  0  0  0  0  0  0  0
   19.7095   65.1124   10.6766 C   0  0  0  0  0  0  0  0  0  0  0  0
   20.7442   64.4111   10.3684 O   0  0  0  0  0  0  0  0  0  0  0  0
   19.7441   65.9382   11.8278 N   0  0  0  0  0  0  0  0  0  0  0  0
   18.9316   65.9027   12.9930 C   0  0  2  0  0  0  0  0  0  0  0  0
   18.9108   64.5733   13.6548 C   0  0  0  0  0  0  0  0  0  0  0  0
   18.7191   63.5762   12.8866 O   0  0  0  0  0  0  0  0  0  0  0  0
   17.5272   66.3771   12.8650 C   0  0  0  0  0  0  0  0  0  0  0  0
   16.4747   65.4124   13.2290 C   0  0  0  0  0  0  0  0  0  0  0  0
   15.4008   65.7369   14.0215 C   0  0  0  0  0  0  0  0  0  0  0  0
   16.5289   64.1073   12.7386 C   0  0  0  0  0  0  0  0  0  0  0  0
   14.4079   64.8001   14.3212 C   0  0  0  0  0  0  0  0  0  0  0  0
   15.5560   63.1809   13.0282 C   0  0  0  0  0  0  0  0  0  0  0  0
   14.4876   63.5248   13.8230 C   0  0  0  0  0  0  0  0  0  0  0  0
   19.0843   64.3770   15.0247 N   0  0  0  0  0  0  0  0  0  0  0  0
   19.8555   65.2448   15.9186 C   0  0  2  0  0  0  0  0  0  0  0  0
   20.4060   64.4648   17.0503 C   0  0  0  0  0  0  0  0  0  0  0  0
   19.5025   63.6741   17.5693 O   0  0  0  0  0  0  0  0  0  0  0  0
   18.9145   66.2628   16.5656 C   0  0  0  0  0  0  0  0  0  0  0  0
   17.4759   65.8463   16.4082 C   0  0  0  0  0  0  0  0  0  0  0  0
   17.3734   64.5309   15.6498 C   0  0  0  0  0  0  0  0  0  0  0  0
   18.7884   64.0125   15.4577 C   0  0  0  0  0  0  0  0  0  0  0  0
   18.8080   62.7173   14.8356 N   0  0  0  0  0  4  0  0  0  0  0  0
   21.6706   64.4493   17.6158 N   0  0  0  0  0  0  0  0  0  0  0  0
   22.9582   64.0061   17.1484 C   0  0  2  0  0  0  0  0  0  0  0  0
   23.4602   62.9036   18.0407 C   0  0  0  0  0  0  0  0  0  0  0  0
   22.5939   61.9511   18.1456 O   0  0  0  0  0  0  0  0  0  0  0  0
   23.8728   65.1745   17.0639 C   0  0  2  0  0  0  0  0  0  0  0  0
   24.7354   65.1018   15.8326 C   0  0  0  0  0  0  0  0  0  0  0  0
   24.7909   65.1688   18.2647 C   0  0  0  0  0  0  0  0  0  0  0  0
   25.2342   63.6919   15.5494 C   0  0  0  0  0  0  0  0  0  0  0  0
   24.6501   62.7806   18.7213 N   0  0  0  0  0  0  0  0  0  0  0  0
   26.0174   62.7677   18.2842 C   0  0  2  0  0  0  0  0  0  0  0  0
   26.2205   61.9880   17.0327 C   0  0  0  0  0  0  0  0  0  0  0  0
   25.3342   62.2810   16.1383 O   0  0  0  0  0  0  0  0  0  0  0  0
   26.9785   62.2932   19.3691 C   0  0  0  0  0  0  0  0  0  0  0  0
   26.9265   60.8184   19.4485 C   0  0  0  0  0  0  0  0  0  0  0  0
   27.5211   59.9182   20.2093 N   0  0  0  0  0  0  0  0  0  0  0  0
   26.1157   60.0809   18.5764 C   0  0  0  0  0  0  0  0  0  0  0  0
   27.1184   58.6919   19.8478 C   0  0  0  0  0  0  0  0  0  0  0  0
   26.2441   58.7707   18.8332 N   0  0  0  0  0  0  0  0  0  0  0  0
   27.6668   59.7126   16.4390 O   0  0  0  0  0  0  0  0  0  0  0  0
  3  1  1  0
  1 23  1  0
  2  4  1  0
 19  2  1  0
  2 27  1  0
 16  3  1  0
  3 26  2  0
  4  6  1  0
 44  5  1  0
  6 16  1  6
  6 45  1  0
  8  7  1  0
  7 12  2  0
  7 44  1  0
  9  8  2  0
  9 10  1  0
 35  9  1  0
 10 13  2  0
 14 11  1  0
 11 27  2  0
 13 12  1  0
 13 14  1  0
 14 19  2  0
 45 15  2  0
 23 17  1  0
 17 24  1  0
 17 25  2  0
 44 18  2  0
 43 20  2  0
 41 21  2  0
 39 22  2  0
 28 33  1  0
 28 36  1  0
 37 28  1  0
 38 29  1  0
 29111  1  0
119 29  1  0
 30 39  1  0
 40 30  1  0
 31 41  1  0
 42 31  1  0
 43 32  1  0
 33 34  2  0
 35 34  1  0
 36 35  2  0
 38 37  1  0
 38 39  1  1
 38119  1  0
 41 40  1  0
 42 43  1  0
 45 46  1  0
 46 47  1  0
 47 48  1  0
 47 50  1  1
 48 49  2  0
 48 57  1  0
 50 51  1  0
 51 52  1  0
 52 53  1  0
 53 54  1  0
 54 55  2  0
 54 56  1  0
 57 58  1  0
 58 59  1  0
 58 61  1  1
 59 60  2  0
 59 65  1  0
 61 62  1  0
 62 63  1  6
 62 64  1  0
 65 66  1  0
 66 67  1  0
 66 69  1  1
 67 68  2  0
 67 77  1  0
 69 70  1  0
 70 71  2  0
 70 72  1  0
 71 73  1  0
 72 74  2  0
 73 75  2  0
 74 75  1  0
 75 76  1  0
 77 78  1  0
 78 79  1  0
 79 80  2  0
 79 81  1  0
 81 82  1  0
 82 83  1  0
 82 85  1  6
 83 84  2  0
 83 92  1  0
 85 86  1  0
 86 87  2  0
 86 88  1  0
 87 89  1  0
 88 90  2  0
 89 91  2  0
 90 91  1  0
 92 93  1  0
 93 94  1  0
 93 96  1  1
 94 95  2  0
 94101  1  0
 96 97  1  0
 97 98  1  0
 98 99  1  0
 99100  1  0
102101  1  1
102103  1  0
102105  1  0
103104  2  0
103109  1  0
105106  1  0
105107  1  1
106108  1  0
109110  1  0
110111  1  0
110113  1  1
111112  2  0
113114  1  0
114115  1  0
114116  2  0
115117  2  0
116118  1  0
117118  1  0
M  CHG  3   5  -1  55   1 100   1
M  END
$$$$
