
     RDKit          3D

119126  0  0  0  0  0  0  0  0999 V2000
   23.8410   41.3606   16.5891 C   0  0  0  0  0  0  0  0  0  0  0  0
   23.9506   41.7685   13.1086 N   0  0  0  0  0  0  0  0  0  0  0  0
   24.9812   42.2896   16.7591 C   0  0  0  0  0  0  0  0  0  0  0  0
   23.5247   42.5883   14.2498 C   0  0  0  0  0  0  0  0  0  0  0  0
   28.3738   39.5862    8.2745 O   0  0  0  0  0  1  0  0  0  0  0  0
   24.5173   43.6268   14.6548 C   0  0  2  0  0  0  0  0  0  0  0  0
   25.9000   39.6369    8.0420 C   0  0  0  0  0  0  0  0  0  0  0  0
   24.8512   39.0560    7.3684 C   0  0  0  0  0  0  0  0  0  0  0  0
   23.5361   38.9818    7.8912 C   0  0  0  0  0  0  0  0  0  0  0  0
   23.2882   39.5167    9.1349 C   0  0  0  0  0  0  0  0  0  0  0  0
   25.2387   40.3029   12.1773 N   0  0  0  0  0  0  0  0  0  0  0  0
   25.5934   40.1412    9.2562 C   0  0  0  0  0  0  0  0  0  0  0  0
   24.2952   40.1056    9.8533 C   0  0  0  0  0  0  0  0  0  0  0  0
   24.2809   40.7055   11.2264 C   0  0  0  0  0  0  0  0  0  0  0  0
   24.5905   45.9171   14.9592 O   0  0  0  0  0  0  0  0  0  0  0  0
   25.4176   43.1659   15.7032 N   0  0  0  0  0  0  0  0  0  0  0  0
   25.2007   39.3353   16.9559 C   0  0  0  0  0  0  0  0  0  0  0  0
   27.3383   39.8371    6.2253 O   0  0  0  0  0  0  0  0  0  0  0  0
   23.5015   41.6303   11.8760 C   0  0  0  0  0  0  0  0  0  0  0  0
   18.3288   30.3430    4.2775 O   0  0  0  0  0  0  0  0  0  0  0  0
   18.9111   35.1614    4.7133 O   0  0  0  0  0  0  0  0  0  0  0  0
   20.2309   38.3006    1.6064 O   0  0  0  0  0  0  0  0  0  0  0  0
   24.1215   40.1674   17.3677 N   0  0  0  0  0  0  0  0  0  0  0  0
   25.9902   38.5348   17.9032 C   0  0  0  0  0  0  0  0  0  0  0  0
   25.5227   39.2582   15.7176 O   0  0  0  0  0  0  0  0  0  0  0  0
   25.6467   42.3811   17.8431 O   0  0  0  0  0  0  0  0  0  0  0  0
   25.0250   40.9308   13.2543 N   0  0  0  0  0  0  0  0  0  0  0  0
   21.0496   37.3994    5.7168 N   0  0  0  0  0  0  0  0  0  0  0  0
   18.7228   39.0866    4.2610 N   0  0  0  0  0  0  0  0  0  0  0  0
   19.8365   36.1558    2.2670 N   0  0  0  0  0  0  0  0  0  0  0  0
   18.2597   33.2166    3.5824 N   0  0  0  0  0  0  0  0  0  0  0  0
   20.2924   31.0014    5.2519 N   0  0  0  0  0  0  0  0  0  0  0  0
   22.1157   36.5614    5.6564 N   0  0  0  0  0  0  0  0  0  0  0  0
   23.0422   37.0263    6.3722 N   0  0  0  0  0  0  0  0  0  0  0  0
   22.6241   38.2345    6.9650 C   0  0  0  0  0  0  0  0  0  0  0  0
   21.3442   38.4182    6.5050 C   0  0  0  0  0  0  0  0  0  0  0  0
   19.8205   37.0441    4.9850 C   0  0  0  0  0  0  0  0  0  0  0  0
   19.4587   38.0461    3.9015 C   0  0  1  0  0  0  0  0  0  0  0  0
   19.8646   37.5746    2.5393 C   0  0  0  0  0  0  0  0  0  0  0  0
   18.6016   35.4170    2.3913 C   0  0  0  0  0  0  0  0  0  0  0  0
   18.6048   34.6086    3.6346 C   0  0  0  0  0  0  0  0  0  0  0  0
   19.2894   32.2294    3.2424 C   0  0  0  0  0  0  0  0  0  0  0  0
   19.2867   31.1741    4.2592 C   0  0  0  0  0  0  0  0  0  0  0  0
   27.2438   39.6905    7.4794 C   0  0  0  0  0  0  0  0  0  0  0  0
   23.8660   44.8763   15.1678 C   0  0  0  0  0  0  0  0  0  0  0  0
   22.6671   45.0599   15.7973 N   0  0  0  0  0  0  0  0  0  0  0  0
   22.1662   44.5584   17.0810 C   0  0  2  0  0  0  0  0  0  0  0  0
   20.8507   43.9136   16.8805 C   0  0  0  0  0  0  0  0  0  0  0  0
   20.9692   42.7047   16.4149 O   0  0  0  0  0  0  0  0  0  0  0  0
   22.0919   45.6796   18.0789 C   0  0  0  0  0  0  0  0  0  0  0  0
   21.7058   45.2299   19.4837 C   0  0  0  0  0  0  0  0  0  0  0  0
   21.3262   43.7817   19.5095 C   0  0  0  0  0  0  0  0  0  0  0  0
   21.1046   43.1973   18.2256 N   0  0  0  0  0  0  0  0  0  0  0  0
   20.7243   41.8570   17.9983 C   0  0  0  0  0  0  0  0  0  0  0  0
   20.9269   40.9544   18.8611 N   0  0  0  0  0  4  0  0  0  0  0  0
   20.0747   41.4935   16.7503 N   0  0  0  0  0  0  0  0  0  0  0  0
   19.5655   44.3724   17.0945 N   0  0  0  0  0  0  0  0  0  0  0  0
   18.8241   44.6071   18.3121 C   0  0  2  0  0  0  0  0  0  0  0  0
   17.6811   43.6731   18.4533 C   0  0  0  0  0  0  0  0  0  0  0  0
   18.1287   42.5059   18.8586 O   0  0  0  0  0  0  0  0  0  0  0  0
   18.4926   46.0542   18.4587 C   0  0  0  0  0  0  0  0  0  0  0  0
   18.8374   46.8561   17.2217 C   0  0  1  0  0  0  0  0  0  0  0  0
   20.3037   46.7429   16.8717 C   0  0  0  0  0  0  0  0  0  0  0  0
   18.0616   46.3363   16.0333 C   0  0  0  0  0  0  0  0  0  0  0  0
   16.3131   43.7774   18.2556 N   0  0  0  0  0  0  0  0  0  0  0  0
   15.4211   43.8578   17.1482 C   0  0  2  0  0  0  0  0  0  0  0  0
   15.8596   44.3385   15.8647 C   0  0  0  0  0  0  0  0  0  0  0  0
   16.5564   45.3822   15.6678 O   0  0  0  0  0  0  0  0  0  0  0  0
   14.0736   44.4967   17.4830 C   0  0  0  0  0  0  0  0  0  0  0  0
   13.4445   45.2678   16.4352 C   0  0  0  0  0  0  0  0  0  0  0  0
   12.0691   45.2935   16.2903 C   0  0  0  0  0  0  0  0  0  0  0  0
   14.1891   46.0015   15.5290 C   0  0  0  0  0  0  0  0  0  0  0  0
   11.4864   46.0220   15.2809 C   0  0  0  0  0  0  0  0  0  0  0  0
   13.5956   46.7335   14.5157 C   0  0  0  0  0  0  0  0  0  0  0  0
   12.2162   46.7520   14.3776 C   0  0  0  0  0  0  0  0  0  0  0  0
   11.6087   47.4891   13.3584 O   0  0  0  0  0  0  0  0  0  0  0  0
   15.5221   43.6436   14.6557 N   0  0  0  0  0  0  0  0  0  0  0  0
   14.1987   43.1256   14.3887 C   0  0  0  0  0  0  0  0  0  0  0  0
   14.2242   42.2609   13.1882 C   0  0  0  0  0  0  0  0  0  0  0  0
   15.3557   41.6808   12.9863 O   0  0  0  0  0  0  0  0  0  0  0  0
   13.1522   42.0308   12.2903 N   0  0  0  0  0  0  0  0  0  0  0  0
   12.4400   42.9511   11.4749 C   0  0  2  0  0  0  0  0  0  0  0  0
   13.3206   43.7576   10.5918 C   0  0  0  0  0  0  0  0  0  0  0  0
   14.3390   44.2772   11.1521 O   0  0  0  0  0  0  0  0  0  0  0  0
   11.4918   43.8766   12.1518 C   0  0  0  0  0  0  0  0  0  0  0  0
   10.8461   44.8905   11.2997 C   0  0  0  0  0  0  0  0  0  0  0  0
    9.9332   45.7998   11.7757 C   0  0  0  0  0  0  0  0  0  0  0  0
   11.1772   44.9739    9.9469 C   0  0  0  0  0  0  0  0  0  0  0  0
    9.3636   46.7647   10.9405 C   0  0  0  0  0  0  0  0  0  0  0  0
   10.6221   45.9205    9.1196 C   0  0  0  0  0  0  0  0  0  0  0  0
    9.7101   46.8232    9.6148 C   0  0  0  0  0  0  0  0  0  0  0  0
   13.0903   43.9630    9.2317 N   0  0  0  0  0  0  0  0  0  0  0  0
   12.3824   43.0416    8.3390 C   0  0  2  0  0  0  0  0  0  0  0  0
   12.8827   43.1768    6.9521 C   0  0  0  0  0  0  0  0  0  0  0  0
   12.9868   44.4329    6.6025 O   0  0  0  0  0  0  0  0  0  0  0  0
   10.9089   43.4464    8.2649 C   0  0  0  0  0  0  0  0  0  0  0  0
   10.7347   44.9121    8.5636 C   0  0  0  0  0  0  0  0  0  0  0  0
   12.0212   45.5082    9.1165 C   0  0  0  0  0  0  0  0  0  0  0  0
   13.1756   44.8055    8.4225 C   0  0  0  0  0  0  0  0  0  0  0  0
   13.4034   43.4899    8.9539 N   0  0  0  0  0  4  0  0  0  0  0  0
   13.2370   42.2203    6.0146 N   0  0  0  0  0  0  0  0  0  0  0  0
   14.3132   41.2677    5.9311 C   0  0  2  0  0  0  0  0  0  0  0  0
   15.1457   41.5612    4.7126 C   0  0  0  0  0  0  0  0  0  0  0  0
   15.5428   42.7904    4.6982 O   0  0  0  0  0  0  0  0  0  0  0  0
   13.7483   39.8932    5.9563 C   0  0  2  0  0  0  0  0  0  0  0  0
   12.8517   39.6522    4.7716 C   0  0  0  0  0  0  0  0  0  0  0  0
   12.9101   39.7284    7.2034 C   0  0  0  0  0  0  0  0  0  0  0  0
   12.4178   40.9437    4.0931 C   0  0  0  0  0  0  0  0  0  0  0  0
   15.5193   40.7431    3.6708 N   0  0  0  0  0  0  0  0  0  0  0  0
   16.2576   39.5129    3.6239 C   0  0  2  0  0  0  0  0  0  0  0  0
   17.4258   39.5004    4.5462 C   0  0  0  0  0  0  0  0  0  0  0  0
   17.1110   39.9371    5.7216 O   0  0  0  0  0  0  0  0  0  0  0  0
   16.6913   39.1393    2.2104 C   0  0  0  0  0  0  0  0  0  0  0  0
   15.5196   38.6373    1.4628 C   0  0  0  0  0  0  0  0  0  0  0  0
   14.8447   39.0704    0.4141 N   0  0  0  0  0  0  0  0  0  0  0  0
   14.8751   37.4548    1.8484 C   0  0  0  0  0  0  0  0  0  0  0  0
   13.8397   38.2240    0.1491 C   0  0  0  0  0  0  0  0  0  0  0  0
   13.8405   37.2121    1.0300 N   0  0  0  0  0  0  0  0  0  0  0  0
   20.1499   39.3087    4.1410 O   0  0  0  0  0  0  0  0  0  0  0  0
  3  1  1  0
  1 23  1  0
  2  4  1  0
 19  2  1  0
  2 27  1  0
 16  3  1  0
  3 26  2  0
  4  6  1  0
 44  5  1  0
  6 16  1  1
  6 45  1  0
  8  7  1  0
  7 12  2  0
  7 44  1  0
  9  8  2  0
  9 10  1  0
 35  9  1  0
 10 13  2  0
 14 11  1  0
 11 27  2  0
 13 12  1  0
 13 14  1  0
 14 19  2  0
 45 15  2  0
 23 17  1  0
 17 24  1  0
 17 25  2  0
 44 18  2  0
 43 20  2  0
 41 21  2  0
 39 22  2  0
 28 33  1  0
 28 36  1  0
 37 28  1  0
 38 29  1  0
 29111  1  0
119 29  1  0
 30 39  1  0
 40 30  1  0
 31 41  1  0
 42 31  1  0
 43 32  1  0
 33 34  2  0
 35 34  1  0
 36 35  2  0
 38 37  1  0
 38 39  1  6
 38119  1  0
 41 40  1  0
 42 43  1  0
 45 46  1  0
 46 47  1  0
 47 48  1  0
 47 50  1  1
 48 49  2  0
 48 57  1  0
 50 51  1  0
 51 52  1  0
 52 53  1  0
 53 54  1  0
 54 55  2  0
 54 56  1  0
 57 58  1  0
 58 59  1  0
 58 61  1  6
 59 60  2  0
 59 65  1  0
 61 62  1  0
 62 63  1  6
 62 64  1  0
 65 66  1  0
 66 67  1  0
 66 69  1  1
 67 68  2  0
 67 77  1  0
 69 70  1  0
 70 71  2  0
 70 72  1  0
 71 73  1  0
 72 74  2  0
 73 75  2  0
 74 75  1  0
 75 76  1  0
 77 78  1  0
 78 79  1  0
 79 80  2  0
 79 81  1  0
 81 82  1  0
 82 83  1  0
 82 85  1  1
 83 84  2  0
 83 92  1  0
 85 86  1  0
 86 87  2  0
 86 88  1  0
 87 89  1  0
 88 90  2  0
 89 91  2  0
 90 91  1  0
 92 93  1  0
 93 94  1  0
 93 96  1  6
 94 95  2  0
 94101  1  0
 96 97  1  0
 97 98  1  0
 98 99  1  0
 99100  1  0
102101  1  6
102103  1  0
102105  1  0
103104  2  0
103109  1  0
105106  1  0
105107  1  1
106108  1  0
109110  1  0
110111  1  0
110113  1  6
111112  2  0
113114  1  0
114115  1  0
114116  2  0
115117  2  0
116118  1  0
117118  1  0
M  CHG  3   5  -1  55   1 100   1
M  END
$$$$
