
     RDKit          3D

119126  0  0  0  0  0  0  0  0999 V2000
   27.6468   39.9206   13.0657 C   0  0  0  0  0  0  0  0  0  0  0  0
   25.5259   41.3219   10.0211 N   0  0  0  0  0  0  0  0  0  0  0  0
   28.2888   40.5114   11.8696 C   0  0  0  0  0  0  0  0  0  0  0  0
   25.8887   41.8636   11.3366 C   0  0  0  0  0  0  0  0  0  0  0  0
   26.1219   41.4144    3.1563 O   0  0  0  0  0  1  0  0  0  0  0  0
   27.1256   42.6990   11.3285 C   0  0  2  0  0  0  0  0  0  0  0  0
   24.2472   40.3712    4.4107 C   0  0  0  0  0  0  0  0  0  0  0  0
   22.9147   40.0481    4.3045 C   0  0  0  0  0  0  0  0  0  0  0  0
   22.0490   39.9392    5.4212 C   0  0  0  0  0  0  0  0  0  0  0  0
   22.5602   40.1679    6.6785 C   0  0  0  0  0  0  0  0  0  0  0  0
   25.8760   40.0444    8.3122 N   0  0  0  0  0  0  0  0  0  0  0  0
   24.6882   40.5816    5.6692 C   0  0  0  0  0  0  0  0  0  0  0  0
   23.8811   40.4906    6.8454 C   0  0  0  0  0  0  0  0  0  0  0  0
   24.6667   40.7340    8.0980 C   0  0  0  0  0  0  0  0  0  0  0  0
   27.7693   44.8334   11.9398 O   0  0  0  0  0  0  0  0  0  0  0  0
   28.3239   41.9330   11.6441 N   0  0  0  0  0  0  0  0  0  0  0  0
   28.1237   37.5621   12.5224 C   0  0  0  0  0  0  0  0  0  0  0  0
   24.9065   39.6462    2.3014 O   0  0  0  0  0  0  0  0  0  0  0  0
   24.5050   41.5226    9.2101 C   0  0  0  0  0  0  0  0  0  0  0  0
   16.5094   33.6304    3.9130 O   0  0  0  0  0  0  0  0  0  0  0  0
   16.0375   38.3537    4.6881 O   0  0  0  0  0  0  0  0  0  0  0  0
   15.3078   40.9526    2.0404 O   0  0  0  0  0  0  0  0  0  0  0  0
   27.1655   38.5993   12.7035 N   0  0  0  0  0  0  0  0  0  0  0  0
   29.5728   37.8079   12.5540 C   0  0  0  0  0  0  0  0  0  0  0  0
   27.7412   36.3552   12.3219 O   0  0  0  0  0  0  0  0  0  0  0  0
   28.8540   39.8098   10.9670 O   0  0  0  0  0  0  0  0  0  0  0  0
   26.3503   40.4015    9.4290 N   0  0  0  0  0  0  0  0  0  0  0  0
   18.5633   39.1168    4.6541 N   0  0  0  0  0  0  0  0  0  0  0  0
   16.1850   41.2677    4.9665 N   0  0  0  0  0  0  0  0  0  0  0  0
   16.4419   38.9786    1.9435 N   0  0  0  0  0  0  0  0  0  0  0  0
   15.9031   36.1261    3.9772 N   0  0  0  0  0  0  0  0  0  0  0  0
   16.7238   33.1739    6.1456 N   0  0  0  0  0  0  0  0  0  0  0  0
   19.2779   38.2474    3.8952 N   0  0  0  0  0  0  0  0  0  0  0  0
   20.5062   38.4564    4.0809 N   0  0  0  0  0  0  0  0  0  0  0  0
   20.6750   39.5079    5.0040 C   0  0  0  0  0  0  0  0  0  0  0  0
   19.3970   39.8876    5.3300 C   0  0  0  0  0  0  0  0  0  0  0  0
   17.0916   39.0387    4.6340 C   0  0  0  0  0  0  0  0  0  0  0  0
   16.4330   40.2989    4.0985 C   0  0  1  0  0  0  0  0  0  0  0  0
   16.0082   40.1498    2.6702 C   0  0  0  0  0  0  0  0  0  0  0  0
   17.1035   37.8978    2.6365 C   0  0  0  0  0  0  0  0  0  0  0  0
   16.3205   37.4910    3.8286 C   0  0  0  0  0  0  0  0  0  0  0  0
   16.0082   35.4772    5.2881 C   0  0  0  0  0  0  0  0  0  0  0  0
   16.4167   34.0833    5.0942 C   0  0  0  0  0  0  0  0  0  0  0  0
   25.1134   40.4680    3.2422 C   0  0  0  0  0  0  0  0  0  0  0  0
   27.0650   43.8262   12.3157 C   0  0  0  0  0  0  0  0  0  0  0  0
   26.3992   43.9323   13.5043 N   0  0  0  0  0  0  0  0  0  0  0  0
   26.5218   43.1666   14.7489 C   0  0  2  0  0  0  0  0  0  0  0  0
   25.1877   42.6839   15.1657 C   0  0  0  0  0  0  0  0  0  0  0  0
   24.8287   41.6214   14.5067 O   0  0  0  0  0  0  0  0  0  0  0  0
   27.1673   44.0104   15.8118 C   0  0  0  0  0  0  0  0  0  0  0  0
   27.7893   45.2982   15.2832 C   0  0  0  0  0  0  0  0  0  0  0  0
   26.7850   46.1277   14.5447 C   0  0  0  0  0  0  0  0  0  0  0  0
   27.2605   47.4041   14.1163 N   0  0  0  0  0  0  0  0  0  0  0  0
   26.4937   48.3655   13.4233 C   0  0  0  0  0  0  0  0  0  0  0  0
   25.5220   48.0325   12.6850 N   0  0  0  0  0  4  0  0  0  0  0  0
   26.8120   49.7768   13.5600 N   0  0  0  0  0  0  0  0  0  0  0  0
   24.2933   43.1643   16.1024 N   0  0  0  0  0  0  0  0  0  0  0  0
   24.3175   43.1434   17.5468 C   0  0  2  0  0  0  0  0  0  0  0  0
   23.2456   42.2850   18.1063 C   0  0  0  0  0  0  0  0  0  0  0  0
   23.6075   41.0259   18.0043 O   0  0  0  0  0  0  0  0  0  0  0  0
   24.3818   44.5294   18.0946 C   0  0  0  0  0  0  0  0  0  0  0  0
   24.9523   45.5195   17.1013 C   0  0  1  0  0  0  0  0  0  0  0  0
   26.3493   45.1366   16.6687 C   0  0  0  0  0  0  0  0  0  0  0  0
   24.1002   45.5522   15.8535 C   0  0  0  0  0  0  0  0  0  0  0  0
   22.0091   42.5297   18.6831 N   0  0  0  0  0  0  0  0  0  0  0  0
   20.7170   42.9416   18.2482 C   0  0  2  0  0  0  0  0  0  0  0  0
   20.5378   43.6914   17.0331 C   0  0  0  0  0  0  0  0  0  0  0  0
   21.2250   44.7005   16.6822 O   0  0  0  0  0  0  0  0  0  0  0  0
   19.8639   43.5707   19.3493 C   0  0  0  0  0  0  0  0  0  0  0  0
   19.5164   44.9634   19.1831 C   0  0  0  0  0  0  0  0  0  0  0  0
   20.4537   45.9639   19.3676 C   0  0  0  0  0  0  0  0  0  0  0  0
   18.2333   45.3545   18.8443 C   0  0  0  0  0  0  0  0  0  0  0  0
   20.1044   47.2848   19.2178 C   0  0  0  0  0  0  0  0  0  0  0  0
   17.8890   46.6863   18.6942 C   0  0  0  0  0  0  0  0  0  0  0  0
   18.8350   47.6821   18.8827 C   0  0  0  0  0  0  0  0  0  0  0  0
   18.4964   49.0289   18.7320 O   0  0  0  0  0  0  0  0  0  0  0  0
   19.5186   43.3403   16.0864 N   0  0  0  0  0  0  0  0  0  0  0  0
   18.1685   42.9971   16.4742 C   0  0  0  0  0  0  0  0  0  0  0  0
   17.4289   42.4545   15.3131 C   0  0  0  0  0  0  0  0  0  0  0  0
   18.1765   41.8647   14.4468 O   0  0  0  0  0  0  0  0  0  0  0  0
   16.0307   42.5273   15.0937 N   0  0  0  0  0  0  0  0  0  0  0  0
   15.1940   43.6671   14.9520 C   0  0  2  0  0  0  0  0  0  0  0  0
   15.6498   44.6027   13.8924 C   0  0  0  0  0  0  0  0  0  0  0  0
   16.8885   44.8966   13.9098 O   0  0  0  0  0  0  0  0  0  0  0  0
   14.9032   44.4614   16.1760 C   0  0  0  0  0  0  0  0  0  0  0  0
   14.5905   43.6948   17.3948 C   0  0  0  0  0  0  0  0  0  0  0  0
   15.0303   42.4110   17.6075 C   0  0  0  0  0  0  0  0  0  0  0  0
   13.8369   44.2830   18.4111 C   0  0  0  0  0  0  0  0  0  0  0  0
   14.7355   41.7271   18.7901 C   0  0  0  0  0  0  0  0  0  0  0  0
   13.5437   43.6173   19.5770 C   0  0  0  0  0  0  0  0  0  0  0  0
   13.9937   42.3323   19.7723 C   0  0  0  0  0  0  0  0  0  0  0  0
   14.8149   45.1517   12.9194 N   0  0  0  0  0  0  0  0  0  0  0  0
   13.5976   44.5296   12.3920 C   0  0  2  0  0  0  0  0  0  0  0  0
   13.3544   44.9664   10.9985 C   0  0  0  0  0  0  0  0  0  0  0  0
   13.5038   46.2596   10.8707 O   0  0  0  0  0  0  0  0  0  0  0  0
   12.3900   45.0415   13.1794 C   0  0  0  0  0  0  0  0  0  0  0  0
   12.6707   46.3925   13.7829 C   0  0  0  0  0  0  0  0  0  0  0  0
   13.9440   46.9905   13.2021 C   0  0  0  0  0  0  0  0  0  0  0  0
   14.2857   46.1929   11.9550 C   0  0  0  0  0  0  0  0  0  0  0  0
   14.7801   47.0313   10.8978 N   0  0  0  0  0  4  0  0  0  0  0  0
   13.0068   44.2476    9.8663 N   0  0  0  0  0  0  0  0  0  0  0  0
   13.6969   43.2723    9.0630 C   0  0  2  0  0  0  0  0  0  0  0  0
   13.8483   43.7978    7.6613 C   0  0  0  0  0  0  0  0  0  0  0  0
   14.4079   44.9621    7.6525 O   0  0  0  0  0  0  0  0  0  0  0  0
   12.9734   41.9766    9.1443 C   0  0  2  0  0  0  0  0  0  0  0  0
   11.7944   41.9526    8.2090 C   0  0  0  0  0  0  0  0  0  0  0  0
   12.4450   41.7952   10.5489 C   0  0  0  0  0  0  0  0  0  0  0  0
   11.4290   43.3366    7.6917 C   0  0  0  0  0  0  0  0  0  0  0  0
   13.4911   43.2370    6.4562 N   0  0  0  0  0  0  0  0  0  0  0  0
   13.8615   42.0078    5.8139 C   0  0  2  0  0  0  0  0  0  0  0  0
   15.3077   41.6878    5.9607 C   0  0  0  0  0  0  0  0  0  0  0  0
   15.7097   41.8430    7.1796 O   0  0  0  0  0  0  0  0  0  0  0  0
   13.4530   41.9640    4.3452 C   0  0  0  0  0  0  0  0  0  0  0  0
   14.6678   41.8730    3.5087 C   0  0  0  0  0  0  0  0  0  0  0  0
   15.2927   40.8812    2.9017 N   0  0  0  0  0  0  0  0  0  0  0  0
   15.4298   43.0133    3.2235 C   0  0  0  0  0  0  0  0  0  0  0  0
   16.3778   41.3550    2.2734 C   0  0  0  0  0  0  0  0  0  0  0  0
   16.4817   42.6794    2.4613 N   0  0  0  0  0  0  0  0  0  0  0  0
   17.3743   41.4127    4.1510 O   0  0  0  0  0  0  0  0  0  0  0  0
  3  1  1  0
  1 23  1  0
  2  4  1  0
 19  2  1  0
  2 27  1  0
 16  3  1  0
  3 26  2  0
  4  6  1  0
 44  5  1  0
  6 16  1  1
  6 45  1  0
  8  7  1  0
  7 12  2  0
  7 44  1  0
  9  8  2  0
  9 10  1  0
 35  9  1  0
 10 13  2  0
 14 11  1  0
 11 27  2  0
 13 12  1  0
 13 14  1  0
 14 19  2  0
 45 15  2  0
 23 17  1  0
 17 24  1  0
 17 25  2  0
 44 18  2  0
 43 20  2  0
 41 21  2  0
 39 22  2  0
 28 33  1  0
 28 36  1  0
 37 28  1  0
 38 29  1  0
 29111  1  0
119 29  1  0
 30 39  1  0
 40 30  1  0
 31 41  1  0
 42 31  1  0
 43 32  1  0
 33 34  2  0
 35 34  1  0
 36 35  2  0
 38 37  1  0
 38 39  1  6
 38119  1  0
 41 40  1  0
 42 43  1  0
 45 46  1  0
 46 47  1  0
 47 48  1  0
 47 50  1  1
 48 49  2  0
 48 57  1  0
 50 51  1  0
 51 52  1  0
 52 53  1  0
 53 54  1  0
 54 55  2  0
 54 56  1  0
 57 58  1  0
 58 59  1  0
 58 61  1  1
 59 60  2  0
 59 65  1  0
 61 62  1  0
 62 63  1  6
 62 64  1  0
 65 66  1  0
 66 67  1  0
 66 69  1  1
 67 68  2  0
 67 77  1  0
 69 70  1  0
 70 71  2  0
 70 72  1  0
 71 73  1  0
 72 74  2  0
 73 75  2  0
 74 75  1  0
 75 76  1  0
 77 78  1  0
 78 79  1  0
 79 80  2  0
 79 81  1  0
 81 82  1  0
 82 83  1  0
 82 85  1  1
 83 84  2  0
 83 92  1  0
 85 86  1  0
 86 87  2  0
 86 88  1  0
 87 89  1  0
 88 90  2  0
 89 91  2  0
 90 91  1  0
 92 93  1  0
 93 94  1  0
 93 96  1  1
 94 95  2  0
 94101  1  0
 96 97  1  0
 97 98  1  0
 98 99  1  0
 99100  1  0
102101  1  1
102103  1  0
102105  1  0
103104  2  0
103109  1  0
105106  1  0
105107  1  1
106108  1  0
109110  1  0
110111  1  0
110113  1  6
111112  2  0
113114  1  0
114115  1  0
114116  2  0
115117  2  0
116118  1  0
117118  1  0
M  CHG  3   5  -1  55   1 100   1
M  END
$$$$
