
     RDKit          3D

119126  0  0  0  0  0  0  0  0999 V2000
   29.0365   41.4923    9.4834 C   0  0  0  0  0  0  0  0  0  0  0  0
   25.9271   43.3599    7.9781 N   0  0  0  0  0  0  0  0  0  0  0  0
   29.4978   42.8755    9.7404 C   0  0  0  0  0  0  0  0  0  0  0  0
   26.5933   43.5439    9.2735 C   0  0  0  0  0  0  0  0  0  0  0  0
   22.8078   44.8134    0.5769 O   0  0  0  0  0  1  0  0  0  0  0  0
   27.6754   44.5719    9.2587 C   0  0  2  0  0  0  0  0  0  0  0  0
   23.1926   43.8972    2.8548 C   0  0  0  0  0  0  0  0  0  0  0  0
   21.9303   43.3625    2.9637 C   0  0  0  0  0  0  0  0  0  0  0  0
   21.4421   42.7546    4.1471 C   0  0  0  0  0  0  0  0  0  0  0  0
   22.2668   42.6935    5.2472 C   0  0  0  0  0  0  0  0  0  0  0  0
   25.9060   42.7486    5.9043 N   0  0  0  0  0  0  0  0  0  0  0  0
   23.9530   43.8047    3.9665 C   0  0  0  0  0  0  0  0  0  0  0  0
   23.5358   43.2073    5.1962 C   0  0  0  0  0  0  0  0  0  0  0  0
   24.6184   43.2159    6.2322 C   0  0  0  0  0  0  0  0  0  0  0  0
   28.2298   46.5088   10.3920 O   0  0  0  0  0  0  0  0  0  0  0  0
   28.9902   44.0009    8.9995 N   0  0  0  0  0  0  0  0  0  0  0  0
   29.7850   39.1855    9.9348 C   0  0  0  0  0  0  0  0  0  0  0  0
   24.9072   44.7545    1.5378 O   0  0  0  0  0  0  0  0  0  0  0  0
   24.6997   43.5869    7.5514 C   0  0  0  0  0  0  0  0  0  0  0  0
    9.0261   42.2369    2.1635 O   0  0  0  0  0  0  0  0  0  0  0  0
   11.6562   43.0127    3.3231 O   0  0  0  0  0  0  0  0  0  0  0  0
   15.0389   43.4904    2.3345 O   0  0  0  0  0  0  0  0  0  0  0  0
   30.0263   40.5849   10.0363 N   0  0  0  0  0  0  0  0  0  0  0  0
   28.6069   38.6322    9.2513 C   0  0  0  0  0  0  0  0  0  0  0  0
   30.6079   38.3477   10.4488 O   0  0  0  0  0  0  0  0  0  0  0  0
   30.3647   43.1643   10.6300 O   0  0  0  0  0  0  0  0  0  0  0  0
   26.6410   42.8420    6.9295 N   0  0  0  0  0  0  0  0  0  0  0  0
   17.9959   41.5236    3.9947 N   0  0  0  0  0  0  0  0  0  0  0  0
   15.5885   42.9646    5.5784 N   0  0  0  0  0  0  0  0  0  0  0  0
   13.8255   41.6312    2.8481 N   0  0  0  0  0  0  0  0  0  0  0  0
   10.6197   41.4874    4.7668 N   0  0  0  0  0  0  0  0  0  0  0  0
    7.8231   42.9630    3.9703 N   0  0  0  0  0  0  0  0  0  0  0  0
   18.5514   41.0814    2.8378 N   0  0  0  0  0  0  0  0  0  0  0  0
   19.7501   41.4651    2.7870 N   0  0  0  0  0  0  0  0  0  0  0  0
   20.0622   42.2038    3.9459 C   0  0  0  0  0  0  0  0  0  0  0  0
   18.8996   42.2065    4.6752 C   0  0  0  0  0  0  0  0  0  0  0  0
   16.5992   41.1640    4.2986 C   0  0  0  0  0  0  0  0  0  0  0  0
   15.6795   42.3695    4.3990 C   0  0  1  0  0  0  0  0  0  0  0  0
   14.8788   42.5732    3.1499 C   0  0  0  0  0  0  0  0  0  0  0  0
   12.9663   41.1411    3.9005 C   0  0  0  0  0  0  0  0  0  0  0  0
   11.7213   41.9441    3.9686 C   0  0  0  0  0  0  0  0  0  0  0  0
    9.4178   40.9655    4.1083 C   0  0  0  0  0  0  0  0  0  0  0  0
    8.7588   42.0601    3.3907 C   0  0  0  0  0  0  0  0  0  0  0  0
   23.6677   44.5094    1.6200 C   0  0  0  0  0  0  0  0  0  0  0  0
   27.7795   45.3164   10.5562 C   0  0  0  0  0  0  0  0  0  0  0  0
   27.4786   44.9274   11.8312 N   0  0  0  0  0  0  0  0  0  0  0  0
   28.0393   43.8647   12.6719 C   0  0  2  0  0  0  0  0  0  0  0  0
   26.9443   43.0243   13.2021 C   0  0  0  0  0  0  0  0  0  0  0  0
   26.5290   42.1586   12.3246 O   0  0  0  0  0  0  0  0  0  0  0  0
   28.8679   44.4625   13.7739 C   0  0  0  0  0  0  0  0  0  0  0  0
   29.0045   45.9788   13.6893 C   0  0  0  0  0  0  0  0  0  0  0  0
   28.3138   46.5233   12.4775 C   0  0  0  0  0  0  0  0  0  0  0  0
   28.9872   46.2774   11.2426 N   0  0  0  0  0  0  0  0  0  0  0  0
   28.5839   46.7752    9.9848 C   0  0  0  0  0  0  0  0  0  0  0  0
   27.3625   46.8761    9.6717 N   0  0  0  0  0  4  0  0  0  0  0  0
   29.5865   47.1944    9.0200 N   0  0  0  0  0  0  0  0  0  0  0  0
   26.3120   43.0145   14.4302 N   0  0  0  0  0  0  0  0  0  0  0  0
   26.7551   42.5676   15.7306 C   0  0  2  0  0  0  0  0  0  0  0  0
   25.9920   41.3860   16.2000 C   0  0  0  0  0  0  0  0  0  0  0  0
   26.4448   40.3134   15.5906 O   0  0  0  0  0  0  0  0  0  0  0  0
   26.8225   43.7100   16.6876 C   0  0  0  0  0  0  0  0  0  0  0  0
   25.6425   44.6489   16.5536 C   0  0  1  0  0  0  0  0  0  0  0  0
   25.6864   45.4215   15.2548 C   0  0  0  0  0  0  0  0  0  0  0  0
   24.3515   43.8631   16.5530 C   0  0  0  0  0  0  0  0  0  0  0  0
   24.9562   41.1958   17.1013 N   0  0  0  0  0  0  0  0  0  0  0  0
   23.5564   41.4535   17.1531 C   0  0  2  0  0  0  0  0  0  0  0  0
   22.9522   42.4812   16.3473 C   0  0  0  0  0  0  0  0  0  0  0  0
   23.3933   43.6646   16.2103 O   0  0  0  0  0  0  0  0  0  0  0  0
   22.9946   41.5415   18.5718 C   0  0  0  0  0  0  0  0  0  0  0  0
   22.9944   42.8485   19.1882 C   0  0  0  0  0  0  0  0  0  0  0  0
   23.9464   43.1984   20.1287 C   0  0  0  0  0  0  0  0  0  0  0  0
   22.0388   43.7980   18.8729 C   0  0  0  0  0  0  0  0  0  0  0  0
   23.9254   44.4414   20.7151 C   0  0  0  0  0  0  0  0  0  0  0  0
   22.0244   45.0478   19.4666 C   0  0  0  0  0  0  0  0  0  0  0  0
   22.9819   45.3890   20.4095 C   0  0  0  0  0  0  0  0  0  0  0  0
   22.9754   46.6488   21.0128 O   0  0  0  0  0  0  0  0  0  0  0  0
   21.7477   42.2342   15.6080 N   0  0  0  0  0  0  0  0  0  0  0  0
   20.6137   41.5295   16.1633 C   0  0  0  0  0  0  0  0  0  0  0  0
   19.6341   41.2235   15.0974 C   0  0  0  0  0  0  0  0  0  0  0  0
   20.1591   41.0809   13.9306 O   0  0  0  0  0  0  0  0  0  0  0  0
   18.2330   41.0791   15.2542 N   0  0  0  0  0  0  0  0  0  0  0  0
   17.2712   42.0188   15.7136 C   0  0  2  0  0  0  0  0  0  0  0  0
   17.2954   43.2996   14.9622 C   0  0  0  0  0  0  0  0  0  0  0  0
   18.4461   43.8149   14.7848 O   0  0  0  0  0  0  0  0  0  0  0  0
   17.2616   42.3360   17.1672 C   0  0  0  0  0  0  0  0  0  0  0  0
   18.4272   43.0745   17.6838 C   0  0  0  0  0  0  0  0  0  0  0  0
   18.9211   44.2092   17.0877 C   0  0  0  0  0  0  0  0  0  0  0  0
   19.0642   42.6413   18.8471 C   0  0  0  0  0  0  0  0  0  0  0  0
   20.0124   44.8975   17.6248 C   0  0  0  0  0  0  0  0  0  0  0  0
   20.1371   43.3133   19.3817 C   0  0  0  0  0  0  0  0  0  0  0  0
   20.6170   44.4483   18.7710 C   0  0  0  0  0  0  0  0  0  0  0  0
   16.1597   43.9371   14.4632 N   0  0  0  0  0  0  0  0  0  0  0  0
   14.9179   43.2723   14.0594 C   0  0  2  0  0  0  0  0  0  0  0  0
   14.2355   44.0486   12.9995 C   0  0  0  0  0  0  0  0  0  0  0  0
   14.1986   45.3234   13.2902 O   0  0  0  0  0  0  0  0  0  0  0  0
   13.9411   43.2744   15.2369 C   0  0  0  0  0  0  0  0  0  0  0  0
   14.1992   44.4422   16.1520 C   0  0  0  0  0  0  0  0  0  0  0  0
   15.4952   45.1468   15.7777 C   0  0  0  0  0  0  0  0  0  0  0  0
   15.1212   46.5171   15.2390 C   0  0  0  0  0  0  0  0  0  0  0  0
   16.0711   46.9933   14.2715 N   0  0  0  0  0  4  0  0  0  0  0  0
   13.6564   43.6474   11.8065 N   0  0  0  0  0  0  0  0  0  0  0  0
   14.1873   43.1148   10.5789 C   0  0  2  0  0  0  0  0  0  0  0  0
   13.8681   44.0548    9.4482 C   0  0  0  0  0  0  0  0  0  0  0  0
   14.2699   45.2552    9.7058 O   0  0  0  0  0  0  0  0  0  0  0  0
   13.6653   41.7374   10.3811 C   0  0  2  0  0  0  0  0  0  0  0  0
   12.1611   41.7137   10.4311 C   0  0  0  0  0  0  0  0  0  0  0  0
   14.1725   40.8537   11.4977 C   0  0  0  0  0  0  0  0  0  0  0  0
   11.5903   42.7562   11.3820 C   0  0  0  0  0  0  0  0  0  0  0  0
   13.2414   43.8210    8.2454 N   0  0  0  0  0  0  0  0  0  0  0  0
   13.5428   42.9397    7.1530 C   0  0  2  0  0  0  0  0  0  0  0  0
   14.9956   42.8847    6.8342 C   0  0  0  0  0  0  0  0  0  0  0  0
   15.7135   42.7447    7.9002 O   0  0  0  0  0  0  0  0  0  0  0  0
   12.7343   43.2571    5.8995 C   0  0  0  0  0  0  0  0  0  0  0  0
   12.5673   44.7214    5.7906 C   0  0  0  0  0  0  0  0  0  0  0  0
   13.2035   45.6718    5.1313 N   0  0  0  0  0  0  0  0  0  0  0  0
   11.5554   45.3828    6.4981 C   0  0  0  0  0  0  0  0  0  0  0  0
   12.6377   46.8569    5.3996 C   0  0  0  0  0  0  0  0  0  0  0  0
   11.6106   46.6995    6.2483 N   0  0  0  0  0  0  0  0  0  0  0  0
   16.4675   43.5803    4.6045 O   0  0  0  0  0  0  0  0  0  0  0  0
  3  1  1  0
  1 23  1  0
  2  4  1  0
 19  2  1  0
  2 27  1  0
 16  3  1  0
  3 26  2  0
  4  6  1  0
 44  5  1  0
  6 16  1  1
  6 45  1  0
  8  7  1  0
  7 12  2  0
  7 44  1  0
  9  8  2  0
  9 10  1  0
 35  9  1  0
 10 13  2  0
 14 11  1  0
 11 27  2  0
 13 12  1  0
 13 14  1  0
 14 19  2  0
 45 15  2  0
 23 17  1  0
 17 24  1  0
 17 25  2  0
 44 18  2  0
 43 20  2  0
 41 21  2  0
 39 22  2  0
 28 33  1  0
 28 36  1  0
 37 28  1  0
 38 29  1  0
 29111  1  0
119 29  1  0
 30 39  1  0
 40 30  1  0
 31 41  1  0
 42 31  1  0
 43 32  1  0
 33 34  2  0
 35 34  1  0
 36 35  2  0
 38 37  1  0
 38 39  1  6
 38119  1  0
 41 40  1  0
 42 43  1  0
 45 46  1  0
 46 47  1  0
 47 48  1  0
 47 50  1  1
 48 49  2  0
 48 57  1  0
 50 51  1  0
 51 52  1  0
 52 53  1  0
 53 54  1  0
 54 55  2  0
 54 56  1  0
 57 58  1  0
 58 59  1  0
 58 61  1  1
 59 60  2  0
 59 65  1  0
 61 62  1  0
 62 63  1  6
 62 64  1  0
 65 66  1  0
 66 67  1  0
 66 69  1  1
 67 68  2  0
 67 77  1  0
 69 70  1  0
 70 71  2  0
 70 72  1  0
 71 73  1  0
 72 74  2  0
 73 75  2  0
 74 75  1  0
 75 76  1  0
 77 78  1  0
 78 79  1  0
 79 80  2  0
 79 81  1  0
 81 82  1  0
 82 83  1  0
 82 85  1  1
 83 84  2  0
 83 92  1  0
 85 86  1  0
 86 87  2  0
 86 88  1  0
 87 89  1  0
 88 90  2  0
 89 91  2  0
 90 91  1  0
 92 93  1  0
 93 94  1  0
 93 96  1  1
 94 95  2  0
 94101  1  0
 96 97  1  0
 97 98  1  0
 98 99  1  0
 99100  1  0
102101  1  1
102103  1  0
102105  1  0
103104  2  0
103109  1  0
105106  1  0
105107  1  1
106108  1  0
109110  1  0
110111  1  0
110113  1  6
111112  2  0
113114  1  0
114115  1  0
114116  2  0
115117  2  0
116118  1  0
117118  1  0
M  CHG  3   5  -1  55   1 100   1
M  END
$$$$
