
     RDKit          3D

119126  0  0  0  0  0  0  0  0999 V2000
   28.2045   44.2716   14.1863 C   0  0  0  0  0  0  0  0  0  0  0  0
   25.6656   42.2844   10.1196 N   0  0  0  0  0  0  0  0  0  0  0  0
   28.8428   43.4190   13.1578 C   0  0  0  0  0  0  0  0  0  0  0  0
   25.9022   42.8960   11.4332 C   0  0  0  0  0  0  0  0  0  0  0  0
   25.1721   41.3780    2.0623 O   0  0  0  0  0  1  0  0  0  0  0  0
   27.0245   43.8799   11.4511 C   0  0  2  0  0  0  0  0  0  0  0  0
   24.7538   41.0581    4.4911 C   0  0  0  0  0  0  0  0  0  0  0  0
   23.4777   40.5679    4.3415 C   0  0  0  0  0  0  0  0  0  0  0  0
   22.5858   40.3755    5.4259 C   0  0  0  0  0  0  0  0  0  0  0  0
   23.0109   40.6941    6.6956 C   0  0  0  0  0  0  0  0  0  0  0  0
   26.2442   41.0240    8.4609 N   0  0  0  0  0  0  0  0  0  0  0  0
   25.1116   41.3497    5.7598 C   0  0  0  0  0  0  0  0  0  0  0  0
   24.2731   41.1838    6.9055 C   0  0  0  0  0  0  0  0  0  0  0  0
   24.9685   41.5513    8.1809 C   0  0  0  0  0  0  0  0  0  0  0  0
   27.3707   46.0911   12.0294 O   0  0  0  0  0  0  0  0  0  0  0  0
   28.2945   43.2776   11.8340 N   0  0  0  0  0  0  0  0  0  0  0  0
   28.4837   44.7189   16.5961 C   0  0  0  0  0  0  0  0  0  0  0  0
   26.8922   41.2599    3.5990 O   0  0  0  0  0  0  0  0  0  0  0  0
   24.6629   42.3375    9.2641 C   0  0  0  0  0  0  0  0  0  0  0  0
   20.9113   34.2401    4.2449 O   0  0  0  0  0  0  0  0  0  0  0  0
   17.9816   36.1525    0.7752 O   0  0  0  0  0  0  0  0  0  0  0  0
   16.1080   40.5695    1.6948 O   0  0  0  0  0  0  0  0  0  0  0  0
   28.7206   43.8656   15.4814 N   0  0  0  0  0  0  0  0  0  0  0  0
   28.9181   46.1232   16.6252 C   0  0  0  0  0  0  0  0  0  0  0  0
   27.8702   44.2768   17.6311 O   0  0  0  0  0  0  0  0  0  0  0  0
   29.9143   42.7607   13.3690 O   0  0  0  0  0  0  0  0  0  0  0  0
   26.6227   41.4622    9.5854 N   0  0  0  0  0  0  0  0  0  0  0  0
   19.2655   39.1050    4.5452 N   0  0  0  0  0  0  0  0  0  0  0  0
   16.6266   40.9464    4.7059 N   0  0  0  0  0  0  0  0  0  0  0  0
   17.0573   38.5029    1.8370 N   0  0  0  0  0  0  0  0  0  0  0  0
   18.9784   35.5742    2.8142 N   0  0  0  0  0  0  0  0  0  0  0  0
   22.3278   34.2625    2.4471 N   0  0  0  0  0  0  0  0  0  0  0  0
   20.1143   38.3160    3.8386 N   0  0  0  0  0  0  0  0  0  0  0  0
   21.2980   38.6817    4.0667 N   0  0  0  0  0  0  0  0  0  0  0  0
   21.2952   39.7660    4.9669 C   0  0  0  0  0  0  0  0  0  0  0  0
   19.9673   39.9891    5.2322 C   0  0  0  0  0  0  0  0  0  0  0  0
   17.8171   38.8422    4.4695 C   0  0  0  0  0  0  0  0  0  0  0  0
   17.0298   39.9977    3.8748 C   0  0  1  0  0  0  0  0  0  0  0  0
   16.6878   39.7651    2.4354 C   0  0  0  0  0  0  0  0  0  0  0  0
   17.1556   37.3143    2.6517 C   0  0  0  0  0  0  0  0  0  0  0  0
   18.0520   36.3209    2.0120 C   0  0  0  0  0  0  0  0  0  0  0  0
   19.7949   34.5282    2.1898 C   0  0  0  0  0  0  0  0  0  0  0  0
   21.0118   34.3409    2.9845 C   0  0  0  0  0  0  0  0  0  0  0  0
   25.6499   41.2374    3.3553 C   0  0  0  0  0  0  0  0  0  0  0  0
   26.7822   45.0118   12.4044 C   0  0  0  0  0  0  0  0  0  0  0  0
   26.0587   45.0594   13.5626 N   0  0  0  0  0  0  0  0  0  0  0  0
   26.2230   44.3426   14.8313 C   0  0  2  0  0  0  0  0  0  0  0  0
   24.9431   43.7053   15.2084 C   0  0  0  0  0  0  0  0  0  0  0  0
   24.7475   42.5920   14.5647 O   0  0  0  0  0  0  0  0  0  0  0  0
   26.7128   45.2839   15.8955 C   0  0  0  0  0  0  0  0  0  0  0  0
   26.6868   44.6927   17.3008 C   0  0  0  0  0  0  0  0  0  0  0  0
   25.9119   43.4122   17.3412 C   0  0  0  0  0  0  0  0  0  0  0  0
   25.1599   43.1291   16.1609 N   0  0  0  0  0  0  0  0  0  0  0  0
   24.5458   41.8926   15.8664 C   0  0  0  0  0  0  0  0  0  0  0  0
   24.3481   41.5172   14.6747 N   0  0  0  0  0  4  0  0  0  0  0  0
   24.1343   41.0157   16.9496 N   0  0  0  0  0  0  0  0  0  0  0  0
   23.9570   44.0899   16.0959 N   0  0  0  0  0  0  0  0  0  0  0  0
   23.9225   44.1038   17.5402 C   0  0  2  0  0  0  0  0  0  0  0  0
   22.9433   43.1300   18.0803 C   0  0  0  0  0  0  0  0  0  0  0  0
   23.4632   41.9243   18.0265 O   0  0  0  0  0  0  0  0  0  0  0  0
   23.7903   45.4986   18.0525 C   0  0  0  0  0  0  0  0  0  0  0  0
   23.1186   46.4206   17.0571 C   0  0  1  0  0  0  0  0  0  0  0  0
   23.8421   46.4339   15.7297 C   0  0  0  0  0  0  0  0  0  0  0  0
   21.7087   45.9501   16.7834 C   0  0  0  0  0  0  0  0  0  0  0  0
   21.6626   43.2299   18.6013 N   0  0  0  0  0  0  0  0  0  0  0  0
   20.3488   43.4665   18.1051 C   0  0  2  0  0  0  0  0  0  0  0  0
   20.1291   44.1612   16.8642 C   0  0  0  0  0  0  0  0  0  0  0  0
   20.6994   45.2407   16.5133 O   0  0  0  0  0  0  0  0  0  0  0  0
   19.3781   44.0074   19.1546 C   0  0  0  0  0  0  0  0  0  0  0  0
   18.7558   43.0348   20.0232 C   0  0  0  0  0  0  0  0  0  0  0  0
   18.2214   43.4019   21.2451 C   0  0  0  0  0  0  0  0  0  0  0  0
   18.6781   41.6979   19.6756 C   0  0  0  0  0  0  0  0  0  0  0  0
   17.6437   42.4626   22.0657 C   0  0  0  0  0  0  0  0  0  0  0  0
   18.0941   40.7579   20.5064 C   0  0  0  0  0  0  0  0  0  0  0  0
   17.5625   41.1351   21.7300 C   0  0  0  0  0  0  0  0  0  0  0  0
   16.9701   40.1930   22.5742 O   0  0  0  0  0  0  0  0  0  0  0  0
   19.2026   43.6642   15.8880 N   0  0  0  0  0  0  0  0  0  0  0  0
   17.8906   43.1626   16.2316 C   0  0  0  0  0  0  0  0  0  0  0  0
   17.2741   42.5061   15.0576 C   0  0  0  0  0  0  0  0  0  0  0  0
   18.1254   41.9961   14.2374 O   0  0  0  0  0  0  0  0  0  0  0  0
   15.8883   42.3978   14.7815 N   0  0  0  0  0  0  0  0  0  0  0  0
   14.9228   43.4200   14.5764 C   0  0  2  0  0  0  0  0  0  0  0  0
   15.3028   44.3821   13.5107 C   0  0  0  0  0  0  0  0  0  0  0  0
   16.4934   44.8296   13.5687 O   0  0  0  0  0  0  0  0  0  0  0  0
   14.4838   44.1981   15.7662 C   0  0  0  0  0  0  0  0  0  0  0  0
   15.4054   44.2118   16.9158 C   0  0  0  0  0  0  0  0  0  0  0  0
   15.6949   45.3475   17.6321 C   0  0  0  0  0  0  0  0  0  0  0  0
   16.0068   43.0257   17.3381 C   0  0  0  0  0  0  0  0  0  0  0  0
   16.5532   45.3138   18.7345 C   0  0  0  0  0  0  0  0  0  0  0  0
   16.8511   42.9845   18.4216 C   0  0  0  0  0  0  0  0  0  0  0  0
   17.1284   44.1322   19.1270 C   0  0  0  0  0  0  0  0  0  0  0  0
   14.4479   44.8004   12.4913 N   0  0  0  0  0  0  0  0  0  0  0  0
   13.3411   44.0189   11.9335 C   0  0  2  0  0  0  0  0  0  0  0  0
   13.1044   44.3911   10.5202 C   0  0  0  0  0  0  0  0  0  0  0  0
   13.0968   45.6897   10.3635 O   0  0  0  0  0  0  0  0  0  0  0  0
   12.0468   44.3922   12.6588 C   0  0  0  0  0  0  0  0  0  0  0  0
   12.2622   44.4638   14.1476 C   0  0  0  0  0  0  0  0  0  0  0  0
   13.4751   43.6417   14.5589 C   0  0  0  0  0  0  0  0  0  0  0  0
   14.6847   44.5577   14.4820 C   0  0  0  0  0  0  0  0  0  0  0  0
   15.8251   44.0022   15.1573 N   0  0  0  0  0  4  0  0  0  0  0  0
   12.8974   43.6097    9.3951 N   0  0  0  0  0  0  0  0  0  0  0  0
   13.7369   42.7116    8.6461 C   0  0  2  0  0  0  0  0  0  0  0  0
   13.8808   43.2211    7.2377 C   0  0  0  0  0  0  0  0  0  0  0  0
   14.2908   44.4460    7.2195 O   0  0  0  0  0  0  0  0  0  0  0  0
   13.1779   41.3373    8.7339 C   0  0  2  0  0  0  0  0  0  0  0  0
   12.6673   40.8715    7.3968 C   0  0  0  0  0  0  0  0  0  0  0  0
   12.0087   41.3418    9.6920 C   0  0  0  0  0  0  0  0  0  0  0  0
   12.4671   42.0173    6.4150 C   0  0  0  0  0  0  0  0  0  0  0  0
   13.6475   42.5937    6.0351 N   0  0  0  0  0  0  0  0  0  0  0  0
   14.1951   41.4070    5.4412 C   0  0  2  0  0  0  0  0  0  0  0  0
   15.6624   41.2746    5.6533 C   0  0  0  0  0  0  0  0  0  0  0  0
   15.9901   41.5056    6.8823 O   0  0  0  0  0  0  0  0  0  0  0  0
   13.8577   41.2801    3.9594 C   0  0  0  0  0  0  0  0  0  0  0  0
   13.4365   42.6001    3.4455 C   0  0  0  0  0  0  0  0  0  0  0  0
   14.0654   43.7358    3.2059 N   0  0  0  0  0  0  0  0  0  0  0  0
   12.0996   42.8449    3.1065 C   0  0  0  0  0  0  0  0  0  0  0  0
   13.1912   44.6421    2.7467 C   0  0  0  0  0  0  0  0  0  0  0  0
   11.9623   44.1083    2.6776 N   0  0  0  0  0  0  0  0  0  0  0  0
   17.8219   41.2218    3.9341 O   0  0  0  0  0  0  0  0  0  0  0  0
  3  1  1  0
  1 23  1  0
  2  4  1  0
 19  2  1  0
  2 27  1  0
 16  3  1  0
  3 26  2  0
  4  6  1  0
 44  5  1  0
  6 16  1  1
  6 45  1  0
  8  7  1  0
  7 12  2  0
  7 44  1  0
  9  8  2  0
  9 10  1  0
 35  9  1  0
 10 13  2  0
 14 11  1  0
 11 27  2  0
 13 12  1  0
 13 14  1  0
 14 19  2  0
 45 15  2  0
 23 17  1  0
 17 24  1  0
 17 25  2  0
 44 18  2  0
 43 20  2  0
 41 21  2  0
 39 22  2  0
 28 33  1  0
 28 36  1  0
 37 28  1  0
 38 29  1  0
 29111  1  0
119 29  1  0
 30 39  1  0
 40 30  1  0
 31 41  1  0
 42 31  1  0
 43 32  1  0
 33 34  2  0
 35 34  1  0
 36 35  2  0
 38 37  1  0
 38 39  1  6
 38119  1  0
 41 40  1  0
 42 43  1  0
 45 46  1  0
 46 47  1  0
 47 48  1  0
 47 50  1  1
 48 49  2  0
 48 57  1  0
 50 51  1  0
 51 52  1  0
 52 53  1  0
 53 54  1  0
 54 55  2  0
 54 56  1  0
 57 58  1  0
 58 59  1  0
 58 61  1  6
 59 60  2  0
 59 65  1  0
 61 62  1  0
 62 63  1  6
 62 64  1  0
 65 66  1  0
 66 67  1  0
 66 69  1  1
 67 68  2  0
 67 77  1  0
 69 70  1  0
 70 71  2  0
 70 72  1  0
 71 73  1  0
 72 74  2  0
 73 75  2  0
 74 75  1  0
 75 76  1  0
 77 78  1  0
 78 79  1  0
 79 80  2  0
 79 81  1  0
 81 82  1  0
 82 83  1  0
 82 85  1  1
 83 84  2  0
 83 92  1  0
 85 86  1  0
 86 87  2  0
 86 88  1  0
 87 89  1  0
 88 90  2  0
 89 91  2  0
 90 91  1  0
 92 93  1  0
 93 94  1  0
 93 96  1  1
 94 95  2  0
 94101  1  0
 96 97  1  0
 97 98  1  0
 98 99  1  0
 99100  1  0
102101  1  1
102103  1  0
102105  1  0
103104  2  0
103109  1  0
105106  1  0
105107  1  1
106108  1  0
109110  1  0
110111  1  0
110113  1  6
111112  2  0
113114  1  0
114115  1  0
114116  2  0
115117  2  0
116118  1  0
117118  1  0
M  CHG  3   5  -1  55   1 100   1
M  END
$$$$
