
     RDKit          3D

119126  0  0  0  0  0  0  0  0999 V2000
   27.5860   41.0567   15.2388 C   0  0  0  0  0  0  0  0  0  0  0  0
   25.7413   41.3053   11.2677 N   0  0  0  0  0  0  0  0  0  0  0  0
   28.6898   41.2067   14.2635 C   0  0  0  0  0  0  0  0  0  0  0  0
   26.0722   41.7874   12.6145 C   0  0  0  0  0  0  0  0  0  0  0  0
   25.4713   39.8693    3.3838 O   0  0  0  0  0  1  0  0  0  0  0  0
   27.3093   42.6204   12.6738 C   0  0  2  0  0  0  0  0  0  0  0  0
   24.5998   40.6071    5.5911 C   0  0  0  0  0  0  0  0  0  0  0  0
   23.2701   40.2912    5.4382 C   0  0  0  0  0  0  0  0  0  0  0  0
   22.3773   40.1341    6.5274 C   0  0  0  0  0  0  0  0  0  0  0  0
   22.8577   40.3059    7.8057 C   0  0  0  0  0  0  0  0  0  0  0  0
   26.1325   40.1046    9.5128 N   0  0  0  0  0  0  0  0  0  0  0  0
   25.0100   40.7607    6.8681 C   0  0  0  0  0  0  0  0  0  0  0  0
   24.1743   40.6187    8.0191 C   0  0  0  0  0  0  0  0  0  0  0  0
   24.9292   40.8050    9.3000 C   0  0  0  0  0  0  0  0  0  0  0  0
   27.9389   44.7244   13.3951 O   0  0  0  0  0  0  0  0  0  0  0  0
   28.4991   41.8393   12.9842 N   0  0  0  0  0  0  0  0  0  0  0  0
   27.2477   40.1803   17.5197 C   0  0  0  0  0  0  0  0  0  0  0  0
   26.2998   41.7312    4.4705 O   0  0  0  0  0  0  0  0  0  0  0  0
   24.7407   41.5435   10.4418 C   0  0  0  0  0  0  0  0  0  0  0  0
   12.1687   34.5580    4.0790 O   0  0  0  0  0  0  0  0  0  0  0  0
   14.9358   37.4588    1.6018 O   0  0  0  0  0  0  0  0  0  0  0  0
   16.1797   41.4408    2.8999 O   0  0  0  0  0  0  0  0  0  0  0  0
   28.1250   40.4110   16.4225 N   0  0  0  0  0  0  0  0  0  0  0  0
   25.9441   40.8483   17.6459 C   0  0  0  0  0  0  0  0  0  0  0  0
   27.5770   39.3640   18.4515 O   0  0  0  0  0  0  0  0  0  0  0  0
   29.8755   40.7944   14.4880 O   0  0  0  0  0  0  0  0  0  0  0  0
   26.5796   40.4109   10.6556 N   0  0  0  0  0  0  0  0  0  0  0  0
   18.9110   39.3521    5.6396 N   0  0  0  0  0  0  0  0  0  0  0  0
   16.5269   41.4908    5.9892 N   0  0  0  0  0  0  0  0  0  0  0  0
   16.2782   39.1687    3.0406 N   0  0  0  0  0  0  0  0  0  0  0  0
   14.0236   36.1934    3.3488 N   0  0  0  0  0  0  0  0  0  0  0  0
   12.9649   32.6026    3.1950 N   0  0  0  0  0  0  0  0  0  0  0  0
   19.6435   38.5162    4.8604 N   0  0  0  0  0  0  0  0  0  0  0  0
   20.8670   38.7148    5.0852 N   0  0  0  0  0  0  0  0  0  0  0  0
   21.0137   39.7240    6.0580 C   0  0  0  0  0  0  0  0  0  0  0  0
   19.7284   40.0908    6.3693 C   0  0  0  0  0  0  0  0  0  0  0  0
   17.4402   39.2773    5.5801 C   0  0  0  0  0  0  0  0  0  0  0  0
   16.7955   40.5612    5.0853 C   0  0  1  0  0  0  0  0  0  0  0  0
   16.4058   40.4764    3.6418 C   0  0  0  0  0  0  0  0  0  0  0  0
   15.6293   38.0984    3.7613 C   0  0  0  0  0  0  0  0  0  0  0  0
   14.8523   37.2441    2.8306 C   0  0  0  0  0  0  0  0  0  0  0  0
   14.0881   34.8583    2.7455 C   0  0  0  0  0  0  0  0  0  0  0  0
   13.0558   34.0144    3.3535 C   0  0  0  0  0  0  0  0  0  0  0  0
   25.4944   40.7544    4.4496 C   0  0  0  0  0  0  0  0  0  0  0  0
   27.2251   43.7027   13.7085 C   0  0  0  0  0  0  0  0  0  0  0  0
   26.5305   43.7568   14.8840 N   0  0  0  0  0  0  0  0  0  0  0  0
   26.6222   42.9363   16.0959 C   0  0  2  0  0  0  0  0  0  0  0  0
   25.2781   42.4377   16.4581 C   0  0  0  0  0  0  0  0  0  0  0  0
   24.9348   41.4062   15.7439 O   0  0  0  0  0  0  0  0  0  0  0  0
   27.2420   43.7310   17.2107 C   0  0  0  0  0  0  0  0  0  0  0  0
   26.4829   45.0082   17.5532 C   0  0  0  0  0  0  0  0  0  0  0  0
   25.4382   45.3158   16.5256 C   0  0  0  0  0  0  0  0  0  0  0  0
   24.6412   44.1996   16.1283 N   0  0  0  0  0  0  0  0  0  0  0  0
   23.5802   44.2494   15.1986 C   0  0  0  0  0  0  0  0  0  0  0  0
   22.5286   44.9144   15.4268 N   0  0  0  0  0  4  0  0  0  0  0  0
   23.6899   43.5309   13.9402 N   0  0  0  0  0  0  0  0  0  0  0  0
   24.3613   42.8773   17.3931 N   0  0  0  0  0  0  0  0  0  0  0  0
   24.3501   42.7922   18.8353 C   0  0  2  0  0  0  0  0  0  0  0  0
   23.2645   41.9115   19.3298 C   0  0  0  0  0  0  0  0  0  0  0  0
   23.6281   40.6576   19.1806 O   0  0  0  0  0  0  0  0  0  0  0  0
   24.4017   44.1524   19.4457 C   0  0  0  0  0  0  0  0  0  0  0  0
   23.0409   44.8134   19.5046 C   0  0  1  0  0  0  0  0  0  0  0  0
   22.4732   45.0501   18.1236 C   0  0  0  0  0  0  0  0  0  0  0  0
   22.0623   43.9223   20.2342 C   0  0  0  0  0  0  0  0  0  0  0  0
   22.0143   42.1322   19.8865 N   0  0  0  0  0  0  0  0  0  0  0  0
   20.7334   42.5651   19.4390 C   0  0  2  0  0  0  0  0  0  0  0  0
   20.5844   43.3685   18.2545 C   0  0  0  0  0  0  0  0  0  0  0  0
   21.2805   44.3911   17.9656 O   0  0  0  0  0  0  0  0  0  0  0  0
   19.8540   43.1460   20.5458 C   0  0  0  0  0  0  0  0  0  0  0  0
   18.4326   42.9114   20.4337 C   0  0  0  0  0  0  0  0  0  0  0  0
   17.8954   42.2745   19.3295 C   0  0  0  0  0  0  0  0  0  0  0  0
   17.5507   43.3222   21.4173 C   0  0  0  0  0  0  0  0  0  0  0  0
   16.5397   42.0697   19.2318 C   0  0  0  0  0  0  0  0  0  0  0  0
   16.1870   43.1119   21.3127 C   0  0  0  0  0  0  0  0  0  0  0  0
   15.6576   42.4739   20.2014 C   0  0  0  0  0  0  0  0  0  0  0  0
   14.2825   42.2564   20.0883 O   0  0  0  0  0  0  0  0  0  0  0  0
   19.5885   43.0615   17.2684 N   0  0  0  0  0  0  0  0  0  0  0  0
   18.2292   42.7035   17.6075 C   0  0  0  0  0  0  0  0  0  0  0  0
   17.5178   42.2143   16.4057 C   0  0  0  0  0  0  0  0  0  0  0  0
   18.2861   41.6624   15.5325 O   0  0  0  0  0  0  0  0  0  0  0  0
   16.1255   42.2990   16.1556 N   0  0  0  0  0  0  0  0  0  0  0  0
   15.2931   43.4452   16.0444 C   0  0  2  0  0  0  0  0  0  0  0  0
   15.7752   44.4263   15.0390 C   0  0  0  0  0  0  0  0  0  0  0  0
   17.0132   44.7172   15.0997 O   0  0  0  0  0  0  0  0  0  0  0  0
   14.9729   44.1848   17.2951 C   0  0  0  0  0  0  0  0  0  0  0  0
   15.8279   45.3433   17.6077 C   0  0  0  0  0  0  0  0  0  0  0  0
   16.2020   45.6767   18.8866 C   0  0  0  0  0  0  0  0  0  0  0  0
   16.3192   46.1427   16.5750 C   0  0  0  0  0  0  0  0  0  0  0  0
   17.0379   46.7678   19.1394 C   0  0  0  0  0  0  0  0  0  0  0  0
   17.1422   47.2166   16.8157 C   0  0  0  0  0  0  0  0  0  0  0  0
   17.5066   47.5344   18.1033 C   0  0  0  0  0  0  0  0  0  0  0  0
   14.9645   45.0194   14.0713 N   0  0  0  0  0  0  0  0  0  0  0  0
   13.7602   44.4232   13.4871 C   0  0  2  0  0  0  0  0  0  0  0  0
   13.5513   44.9220   12.1089 C   0  0  0  0  0  0  0  0  0  0  0  0
   13.7046   46.2194   12.0425 O   0  0  0  0  0  0  0  0  0  0  0  0
   12.5340   44.9016   14.2668 C   0  0  0  0  0  0  0  0  0  0  0  0
   12.9123   45.9482   15.2814 C   0  0  0  0  0  0  0  0  0  0  0  0
   14.3084   45.6905   15.8297 C   0  0  0  0  0  0  0  0  0  0  0  0
   15.0633   44.8951   14.7784 C   0  0  0  0  0  0  0  0  0  0  0  0
   16.0523   44.0319   15.3629 N   0  0  0  0  0  4  0  0  0  0  0  0
   13.2313   44.2548   10.9377 N   0  0  0  0  0  0  0  0  0  0  0  0
   13.9403   43.3151   10.1089 C   0  0  2  0  0  0  0  0  0  0  0  0
   14.1262   43.9022    8.7361 C   0  0  0  0  0  0  0  0  0  0  0  0
   14.6865   45.0648    8.7928 O   0  0  0  0  0  0  0  0  0  0  0  0
   13.2144   42.0182   10.1148 C   0  0  2  0  0  0  0  0  0  0  0  0
   13.4636   41.2500    8.8446 C   0  0  0  0  0  0  0  0  0  0  0  0
   11.7293   42.2857   10.2019 C   0  0  0  0  0  0  0  0  0  0  0  0
   13.5690   42.1540    7.6246 C   0  0  0  0  0  0  0  0  0  0  0  0
   13.7983   43.3962    7.4989 N   0  0  0  0  0  0  0  0  0  0  0  0
   14.1837   42.1961    6.8117 C   0  0  2  0  0  0  0  0  0  0  0  0
   15.6257   41.8677    6.9794 C   0  0  0  0  0  0  0  0  0  0  0  0
   15.9979   41.9678    8.2135 O   0  0  0  0  0  0  0  0  0  0  0  0
   13.8112   42.2184    5.3330 C   0  0  0  0  0  0  0  0  0  0  0  0
   14.5024   43.3484    4.6780 C   0  0  0  0  0  0  0  0  0  0  0  0
   15.1090   44.4345    5.1198 N   0  0  0  0  0  0  0  0  0  0  0  0
   14.6026   43.4167    3.2825 C   0  0  0  0  0  0  0  0  0  0  0  0
   15.5640   45.1464    4.0793 C   0  0  0  0  0  0  0  0  0  0  0  0
   15.2591   44.5310    2.9268 N   0  0  0  0  0  0  0  0  0  0  0  0
   17.7358   41.6700    5.2103 O   0  0  0  0  0  0  0  0  0  0  0  0
  3  1  1  0
  1 23  1  0
  2  4  1  0
 19  2  1  0
  2 27  1  0
 16  3  1  0
  3 26  2  0
  4  6  1  0
 44  5  1  0
  6 16  1  1
  6 45  1  0
  8  7  1  0
  7 12  2  0
  7 44  1  0
  9  8  2  0
  9 10  1  0
 35  9  1  0
 10 13  2  0
 14 11  1  0
 11 27  2  0
 13 12  1  0
 13 14  1  0
 14 19  2  0
 45 15  2  0
 23 17  1  0
 17 24  1  0
 17 25  2  0
 44 18  2  0
 43 20  2  0
 41 21  2  0
 39 22  2  0
 28 33  1  0
 28 36  1  0
 37 28  1  0
 38 29  1  0
 29111  1  0
119 29  1  0
 30 39  1  0
 40 30  1  0
 31 41  1  0
 42 31  1  0
 43 32  1  0
 33 34  2  0
 35 34  1  0
 36 35  2  0
 38 37  1  0
 38 39  1  6
 38119  1  0
 41 40  1  0
 42 43  1  0
 45 46  1  0
 46 47  1  0
 47 48  1  0
 47 50  1  1
 48 49  2  0
 48 57  1  0
 50 51  1  0
 51 52  1  0
 52 53  1  0
 53 54  1  0
 54 55  2  0
 54 56  1  0
 57 58  1  0
 58 59  1  0
 58 61  1  1
 59 60  2  0
 59 65  1  0
 61 62  1  0
 62 63  1  6
 62 64  1  0
 65 66  1  0
 66 67  1  0
 66 69  1  1
 67 68  2  0
 67 77  1  0
 69 70  1  0
 70 71  2  0
 70 72  1  0
 71 73  1  0
 72 74  2  0
 73 75  2  0
 74 75  1  0
 75 76  1  0
 77 78  1  0
 78 79  1  0
 79 80  2  0
 79 81  1  0
 81 82  1  0
 82 83  1  0
 82 85  1  1
 83 84  2  0
 83 92  1  0
 85 86  1  0
 86 87  2  0
 86 88  1  0
 87 89  1  0
 88 90  2  0
 89 91  2  0
 90 91  1  0
 92 93  1  0
 93 94  1  0
 93 96  1  1
 94 95  2  0
 94101  1  0
 96 97  1  0
 97 98  1  0
 98 99  1  0
 99100  1  0
102101  1  1
102103  1  0
102105  1  0
103104  2  0
103109  1  0
105106  1  0
105107  1  6
106108  1  0
109110  1  0
110111  1  0
110113  1  6
111112  2  0
113114  1  0
114115  1  0
114116  2  0
115117  2  0
116118  1  0
117118  1  0
M  CHG  3   5  -1  55   1 100   1
M  END
$$$$
