
     RDKit          3D

119126  0  0  0  0  0  0  0  0999 V2000
   27.7532   40.9031   13.2617 C   0  0  0  0  0  0  0  0  0  0  0  0
   25.5804   41.5398    9.8583 N   0  0  0  0  0  0  0  0  0  0  0  0
   28.7569   41.1516   12.2020 C   0  0  0  0  0  0  0  0  0  0  0  0
   26.0931   42.0118   11.1506 C   0  0  0  0  0  0  0  0  0  0  0  0
   23.6813   41.2779    1.9438 O   0  0  0  0  0  1  0  0  0  0  0  0
   27.3043   42.8774   11.0432 C   0  0  2  0  0  0  0  0  0  0  0  0
   23.6362   40.8902    4.3981 C   0  0  0  0  0  0  0  0  0  0  0  0
   22.3069   40.5401    4.4357 C   0  0  0  0  0  0  0  0  0  0  0  0
   21.5877   40.3434    5.6409 C   0  0  0  0  0  0  0  0  0  0  0  0
   22.2460   40.5103    6.8380 C   0  0  0  0  0  0  0  0  0  0  0  0
   25.7398   40.3749    8.0438 N   0  0  0  0  0  0  0  0  0  0  0  0
   24.2254   41.0370    5.6040 C   0  0  0  0  0  0  0  0  0  0  0  0
   23.5715   40.8561    6.8620 C   0  0  0  0  0  0  0  0  0  0  0  0
   24.5011   41.0450    8.0219 C   0  0  0  0  0  0  0  0  0  0  0  0
   27.9800   44.9876   11.7020 O   0  0  0  0  0  0  0  0  0  0  0  0
   28.5459   42.1249   11.1621 N   0  0  0  0  0  0  0  0  0  0  0  0
   25.2975   40.6800   13.1947 C   0  0  0  0  0  0  0  0  0  0  0  0
   25.6148   41.0510    3.1863 O   0  0  0  0  0  0  0  0  0  0  0  0
   24.4638   41.7621    9.1920 C   0  0  0  0  0  0  0  0  0  0  0  0
   11.8530   40.4117    5.1469 O   0  0  0  0  0  0  0  0  0  0  0  0
   12.3894   44.4338    3.4858 O   0  0  0  0  0  0  0  0  0  0  0  0
   15.7087   39.9119    2.7185 O   0  0  0  0  0  0  0  0  0  0  0  0
   26.4683   41.3721   12.7742 N   0  0  0  0  0  0  0  0  0  0  0  0
   24.0730   41.3769   13.6149 C   0  0  0  0  0  0  0  0  0  0  0  0
   25.2767   39.3985   13.2196 O   0  0  0  0  0  0  0  0  0  0  0  0
   29.8689   40.5306   12.1395 O   0  0  0  0  0  0  0  0  0  0  0  0
   26.3419   40.6773    9.1143 N   0  0  0  0  0  0  0  0  0  0  0  0
   18.0494   39.4794    5.2558 N   0  0  0  0  0  0  0  0  0  0  0  0
   15.6896   41.5469    5.9886 N   0  0  0  0  0  0  0  0  0  0  0  0
   14.0378   41.3021    3.4024 N   0  0  0  0  0  0  0  0  0  0  0  0
   11.4837   42.2852    3.2654 N   0  0  0  0  0  0  0  0  0  0  0  0
   11.0302   38.6942    3.8773 N   0  0  0  0  0  0  0  0  0  0  0  0
   18.6803   38.6749    4.3631 N   0  0  0  0  0  0  0  0  0  0  0  0
   19.9182   38.9037    4.4100 N   0  0  0  0  0  0  0  0  0  0  0  0
   20.1807   39.9028    5.3687 C   0  0  0  0  0  0  0  0  0  0  0  0
   18.9462   40.2298    5.8712 C   0  0  0  0  0  0  0  0  0  0  0  0
   16.5881   39.3651    5.4108 C   0  0  0  0  0  0  0  0  0  0  0  0
   15.8458   40.6377    5.0387 C   0  0  1  0  0  0  0  0  0  0  0  0
   15.2508   40.5625    3.6665 C   0  0  0  0  0  0  0  0  0  0  0  0
   13.9109   42.6708    3.8459 C   0  0  0  0  0  0  0  0  0  0  0  0
   12.5618   43.1962    3.5246 C   0  0  0  0  0  0  0  0  0  0  0  0
   11.7830   40.9125    2.8454 C   0  0  0  0  0  0  0  0  0  0  0  0
   11.5597   40.0117    3.9795 C   0  0  0  0  0  0  0  0  0  0  0  0
   24.3498   41.0779    3.1409 C   0  0  0  0  0  0  0  0  0  0  0  0
   27.3457   43.9424   12.0981 C   0  0  0  0  0  0  0  0  0  0  0  0
   26.8300   43.9611   13.3634 N   0  0  0  0  0  0  0  0  0  0  0  0
   27.1190   43.1265   14.5340 C   0  0  2  0  0  0  0  0  0  0  0  0
   25.8555   42.5862   15.0800 C   0  0  0  0  0  0  0  0  0  0  0  0
   25.4370   41.5558   14.4054 O   0  0  0  0  0  0  0  0  0  0  0  0
   27.8755   43.9221   15.5602 C   0  0  0  0  0  0  0  0  0  0  0  0
   26.9926   44.5210   16.6495 C   0  0  0  0  0  0  0  0  0  0  0  0
   25.8579   43.6080   16.9973 C   0  0  0  0  0  0  0  0  0  0  0  0
   26.0772   42.2325   16.6828 N   0  0  0  0  0  0  0  0  0  0  0  0
   25.0679   41.3067   16.3411 C   0  0  0  0  0  0  0  0  0  0  0  0
   23.8531   41.6497   16.2597 N   0  0  0  0  0  4  0  0  0  0  0  0
   25.4209   39.9244   16.0646 N   0  0  0  0  0  0  0  0  0  0  0  0
   25.0750   42.9874   16.1468 N   0  0  0  0  0  0  0  0  0  0  0  0
   25.2777   42.8818   17.5733 C   0  0  2  0  0  0  0  0  0  0  0  0
   24.2987   41.9649   18.2055 C   0  0  0  0  0  0  0  0  0  0  0  0
   24.6678   40.7236   17.9824 O   0  0  0  0  0  0  0  0  0  0  0  0
   25.3842   44.2343   18.1938 C   0  0  0  0  0  0  0  0  0  0  0  0
   26.2969   45.1586   17.4161 C   0  0  1  0  0  0  0  0  0  0  0  0
   27.6140   44.4953   17.0835 C   0  0  0  0  0  0  0  0  0  0  0  0
   25.6533   45.5389   16.1026 C   0  0  0  0  0  0  0  0  0  0  0  0
   23.1387   42.1435   18.9430 N   0  0  0  0  0  0  0  0  0  0  0  0
   21.7955   42.5474   18.6954 C   0  0  2  0  0  0  0  0  0  0  0  0
   21.4543   43.3629   17.5600 C   0  0  0  0  0  0  0  0  0  0  0  0
   22.0747   44.4081   17.1907 O   0  0  0  0  0  0  0  0  0  0  0  0
   21.0737   43.0884   19.9292 C   0  0  0  0  0  0  0  0  0  0  0  0
   19.6479   43.2897   19.8089 C   0  0  0  0  0  0  0  0  0  0  0  0
   18.9740   42.9708   18.6437 C   0  0  0  0  0  0  0  0  0  0  0  0
   18.9008   43.8183   20.8464 C   0  0  0  0  0  0  0  0  0  0  0  0
   17.6193   43.1797   18.5405 C   0  0  0  0  0  0  0  0  0  0  0  0
   17.5370   44.0250   20.7358 C   0  0  0  0  0  0  0  0  0  0  0  0
   16.8704   43.7037   19.5633 C   0  0  0  0  0  0  0  0  0  0  0  0
   15.4938   43.9079   19.4435 O   0  0  0  0  0  0  0  0  0  0  0  0
   20.3325   43.0426   16.7249 N   0  0  0  0  0  0  0  0  0  0  0  0
   19.0470   42.6428   17.2527 C   0  0  0  0  0  0  0  0  0  0  0  0
   18.1795   42.1512   16.1594 C   0  0  0  0  0  0  0  0  0  0  0  0
   18.8250   41.6328   15.1734 O   0  0  0  0  0  0  0  0  0  0  0  0
   16.7639   42.2012   16.1172 N   0  0  0  0  0  0  0  0  0  0  0  0
   15.8957   43.3257   16.1495 C   0  0  2  0  0  0  0  0  0  0  0  0
   16.2004   44.3336   15.1021 C   0  0  0  0  0  0  0  0  0  0  0  0
   17.4263   44.6574   14.9862 O   0  0  0  0  0  0  0  0  0  0  0  0
   15.7440   44.0386   17.4466 C   0  0  0  0  0  0  0  0  0  0  0  0
   15.2597   45.4284   17.3769 C   0  0  0  0  0  0  0  0  0  0  0  0
   15.9167   46.4824   17.9635 C   0  0  0  0  0  0  0  0  0  0  0  0
   14.0961   45.7237   16.6657 C   0  0  0  0  0  0  0  0  0  0  0  0
   15.4395   47.7912   17.8508 C   0  0  0  0  0  0  0  0  0  0  0  0
   13.6212   47.0080   16.5498 C   0  0  0  0  0  0  0  0  0  0  0  0
   14.2935   48.0507   17.1435 C   0  0  0  0  0  0  0  0  0  0  0  0
   15.2420   44.9178   14.2741 N   0  0  0  0  0  0  0  0  0  0  0  0
   13.9803   44.2971   13.8618 C   0  0  2  0  0  0  0  0  0  0  0  0
   13.5591   44.8093   12.5382 C   0  0  0  0  0  0  0  0  0  0  0  0
   13.6683   46.1111   12.4732 O   0  0  0  0  0  0  0  0  0  0  0  0
   12.8701   44.7308   14.8210 C   0  0  0  0  0  0  0  0  0  0  0  0
   13.3773   45.7439   15.8131 C   0  0  0  0  0  0  0  0  0  0  0  0
   14.6307   46.4316   15.2914 C   0  0  0  0  0  0  0  0  0  0  0  0
   15.7523   45.4076   15.3280 C   0  0  0  0  0  0  0  0  0  0  0  0
   16.7599   45.6764   14.3394 N   0  0  0  0  0  4  0  0  0  0  0  0
   13.0874   44.1500   11.4146 N   0  0  0  0  0  0  0  0  0  0  0  0
   13.6905   43.2418   10.4743 C   0  0  2  0  0  0  0  0  0  0  0  0
   13.6582   43.8529    9.0998 C   0  0  0  0  0  0  0  0  0  0  0  0
   14.1915   45.0296    9.0947 O   0  0  0  0  0  0  0  0  0  0  0  0
   13.0060   41.9255   10.5632 C   0  0  2  0  0  0  0  0  0  0  0  0
   11.5118   42.0825   10.4728 C   0  0  0  0  0  0  0  0  0  0  0  0
   13.3183   41.2977   11.9023 C   0  0  0  0  0  0  0  0  0  0  0  0
   11.0665   43.5324   10.6004 C   0  0  0  0  0  0  0  0  0  0  0  0
   13.1651   43.3555    7.9151 N   0  0  0  0  0  0  0  0  0  0  0  0
   13.4754   42.1762    7.1575 C   0  0  2  0  0  0  0  0  0  0  0  0
   14.9342   41.8850    7.1066 C   0  0  0  0  0  0  0  0  0  0  0  0
   15.4808   41.9780    8.2745 O   0  0  0  0  0  0  0  0  0  0  0  0
   12.8896   42.2089    5.7499 C   0  0  0  0  0  0  0  0  0  0  0  0
   12.8619   40.8350    5.2065 C   0  0  0  0  0  0  0  0  0  0  0  0
   13.6273   40.1643    4.3657 N   0  0  0  0  0  0  0  0  0  0  0  0
   11.8484   39.9394    5.5710 C   0  0  0  0  0  0  0  0  0  0  0  0
   13.1366   38.9274    4.2044 C   0  0  0  0  0  0  0  0  0  0  0  0
   12.0296   38.7670    4.9453 N   0  0  0  0  0  0  0  0  0  0  0  0
   16.7663   41.7700    5.0446 O   0  0  0  0  0  0  0  0  0  0  0  0
  3  1  1  0
  1 23  1  0
  2  4  1  0
 19  2  1  0
  2 27  1  0
 16  3  1  0
  3 26  2  0
  4  6  1  0
 44  5  1  0
  6 16  1  1
  6 45  1  0
  8  7  1  0
  7 12  2  0
  7 44  1  0
  9  8  2  0
  9 10  1  0
 35  9  1  0
 10 13  2  0
 14 11  1  0
 11 27  2  0
 13 12  1  0
 13 14  1  0
 14 19  2  0
 45 15  2  0
 23 17  1  0
 17 24  1  0
 17 25  2  0
 44 18  2  0
 43 20  2  0
 41 21  2  0
 39 22  2  0
 28 33  1  0
 28 36  1  0
 37 28  1  0
 38 29  1  0
 29111  1  0
119 29  1  0
 30 39  1  0
 40 30  1  0
 31 41  1  0
 42 31  1  0
 43 32  1  0
 33 34  2  0
 35 34  1  0
 36 35  2  0
 38 37  1  0
 38 39  1  6
 38119  1  0
 41 40  1  0
 42 43  1  0
 45 46  1  0
 46 47  1  0
 47 48  1  0
 47 50  1  1
 48 49  2  0
 48 57  1  0
 50 51  1  0
 51 52  1  0
 52 53  1  0
 53 54  1  0
 54 55  2  0
 54 56  1  0
 57 58  1  0
 58 59  1  0
 58 61  1  1
 59 60  2  0
 59 65  1  0
 61 62  1  0
 62 63  1  6
 62 64  1  0
 65 66  1  0
 66 67  1  0
 66 69  1  1
 67 68  2  0
 67 77  1  0
 69 70  1  0
 70 71  2  0
 70 72  1  0
 71 73  1  0
 72 74  2  0
 73 75  2  0
 74 75  1  0
 75 76  1  0
 77 78  1  0
 78 79  1  0
 79 80  2  0
 79 81  1  0
 81 82  1  0
 82 83  1  0
 82 85  1  1
 83 84  2  0
 83 92  1  0
 85 86  1  0
 86 87  2  0
 86 88  1  0
 87 89  1  0
 88 90  2  0
 89 91  2  0
 90 91  1  0
 92 93  1  0
 93 94  1  0
 93 96  1  1
 94 95  2  0
 94101  1  0
 96 97  1  0
 97 98  1  0
 98 99  1  0
 99100  1  0
102101  1  1
102103  1  0
102105  1  0
103104  2  0
103109  1  0
105106  1  0
105107  1  1
106108  1  0
109110  1  0
110111  1  0
110113  1  6
111112  2  0
113114  1  0
114115  1  0
114116  2  0
115117  2  0
116118  1  0
117118  1  0
M  CHG  3   5  -1  55   1 100   1
M  END
$$$$
