
     RDKit          3D

119126  0  0  0  0  0  0  0  0999 V2000
   27.7141   40.7618   11.1971 C   0  0  0  0  0  0  0  0  0  0  0  0
   24.8321   41.8227    8.4697 N   0  0  0  0  0  0  0  0  0  0  0  0
   28.2439   41.0691    9.8492 C   0  0  0  0  0  0  0  0  0  0  0  0
   25.5942   42.1932    9.6686 C   0  0  0  0  0  0  0  0  0  0  0  0
   23.4027   42.6818    1.8725 O   0  0  0  0  0  1  0  0  0  0  0  0
   26.7646   43.0780    9.3941 C   0  0  2  0  0  0  0  0  0  0  0  0
   21.8367   41.5997    3.4704 C   0  0  0  0  0  0  0  0  0  0  0  0
   20.5395   41.2332    3.7425 C   0  0  0  0  0  0  0  0  0  0  0  0
   20.0735   40.9309    5.0463 C   0  0  0  0  0  0  0  0  0  0  0  0
   20.9577   41.0068    6.0982 C   0  0  0  0  0  0  0  0  0  0  0  0
   24.6208   40.8116    6.5703 N   0  0  0  0  0  0  0  0  0  0  0  0
   22.6549   41.6541    4.5429 C   0  0  0  0  0  0  0  0  0  0  0  0
   22.2633   41.3639    5.8867 C   0  0  0  0  0  0  0  0  0  0  0  0
   23.4062   41.4677    6.8501 C   0  0  0  0  0  0  0  0  0  0  0  0
   27.5695   45.1347   10.0767 O   0  0  0  0  0  0  0  0  0  0  0  0
   28.0009   42.3319    9.2017 N   0  0  0  0  0  0  0  0  0  0  0  0
   27.2898   38.7764   12.5983 C   0  0  0  0  0  0  0  0  0  0  0  0
   21.6126   41.4063    1.1635 O   0  0  0  0  0  0  0  0  0  0  0  0
   23.6064   42.0864    8.0592 C   0  0  0  0  0  0  0  0  0  0  0  0
   15.5768   35.5117    5.3122 O   0  0  0  0  0  0  0  0  0  0  0  0
   12.2410   37.6748    3.2582 O   0  0  0  0  0  0  0  0  0  0  0  0
   13.5007   42.1150    3.5198 O   0  0  0  0  0  0  0  0  0  0  0  0
   27.6707   39.3171   11.3377 N   0  0  0  0  0  0  0  0  0  0  0  0
   27.0848   39.6129   13.7899 C   0  0  0  0  0  0  0  0  0  0  0  0
   27.1103   37.5145   12.7340 O   0  0  0  0  0  0  0  0  0  0  0  0
   28.9493   40.2469    9.1763 O   0  0  0  0  0  0  0  0  0  0  0  0
   25.4255   41.0322    7.5208 N   0  0  0  0  0  0  0  0  0  0  0  0
   16.5245   40.0624    5.3025 N   0  0  0  0  0  0  0  0  0  0  0  0
   14.3692   42.0372    6.6571 N   0  0  0  0  0  0  0  0  0  0  0  0
   12.5243   40.1690    4.1923 N   0  0  0  0  0  0  0  0  0  0  0  0
   13.2005   36.6708    5.1441 N   0  0  0  0  0  0  0  0  0  0  0  0
   15.4540   34.3727    3.3306 N   0  0  0  0  0  0  0  0  0  0  0  0
   16.9608   39.3404    4.2391 N   0  0  0  0  0  0  0  0  0  0  0  0
   18.1845   39.5782    4.0577 N   0  0  0  0  0  0  0  0  0  0  0  0
   18.6380   40.4985    5.0239 C   0  0  0  0  0  0  0  0  0  0  0  0
   17.5300   40.7700    5.7869 C   0  0  0  0  0  0  0  0  0  0  0  0
   15.1227   39.9199    5.7349 C   0  0  0  0  0  0  0  0  0  0  0  0
   14.3283   41.2104    5.6236 C   0  0  1  0  0  0  0  0  0  0  0  0
   13.4717   41.2410    4.3956 C   0  0  0  0  0  0  0  0  0  0  0  0
   12.4454   39.0806    5.1384 C   0  0  0  0  0  0  0  0  0  0  0  0
   12.6151   37.7798    4.4464 C   0  0  0  0  0  0  0  0  0  0  0  0
   13.3890   35.3956    4.4448 C   0  0  0  0  0  0  0  0  0  0  0  0
   14.8227   35.0997    4.3793 C   0  0  0  0  0  0  0  0  0  0  0  0
   22.2868   41.8972    2.1161 C   0  0  0  0  0  0  0  0  0  0  0  0
   27.0210   44.0537   10.5037 C   0  0  0  0  0  0  0  0  0  0  0  0
   26.7674   43.9634   11.8434 N   0  0  0  0  0  0  0  0  0  0  0  0
   27.2790   43.0392   12.8606 C   0  0  2  0  0  0  0  0  0  0  0  0
   26.1464   42.4424   13.6005 C   0  0  0  0  0  0  0  0  0  0  0  0
   25.5964   41.4659   12.9402 O   0  0  0  0  0  0  0  0  0  0  0  0
   28.2290   43.7567   13.7778 C   0  0  0  0  0  0  0  0  0  0  0  0
   28.0426   43.4111   15.2511 C   0  0  0  0  0  0  0  0  0  0  0  0
   26.8616   42.5141   15.4573 C   0  0  0  0  0  0  0  0  0  0  0  0
   26.9314   41.2638   14.7712 N   0  0  0  0  0  0  0  0  0  0  0  0
   26.0271   40.1932   14.9403 C   0  0  0  0  0  0  0  0  0  0  0  0
   25.5683   39.5499   13.9525 N   0  0  0  0  0  4  0  0  0  0  0  0
   25.6122   39.8041   16.2776 N   0  0  0  0  0  0  0  0  0  0  0  0
   25.5961   42.7466   14.8304 N   0  0  0  0  0  0  0  0  0  0  0  0
   26.0780   42.5271   16.1746 C   0  0  2  0  0  0  0  0  0  0  0  0
   25.2393   41.5510   16.9112 C   0  0  0  0  0  0  0  0  0  0  0  0
   25.5497   40.3362   16.5180 O   0  0  0  0  0  0  0  0  0  0  0  0
   26.3133   43.8255   16.8706 C   0  0  0  0  0  0  0  0  0  0  0  0
   25.3086   44.8863   16.4738 C   0  0  1  0  0  0  0  0  0  0  0  0
   25.1279   44.9535   14.9744 C   0  0  0  0  0  0  0  0  0  0  0  0
   23.9549   44.5659   17.0647 C   0  0  0  0  0  0  0  0  0  0  0  0
   24.2502   41.6560   17.8767 N   0  0  0  0  0  0  0  0  0  0  0  0
   22.8869   42.0640   17.9351 C   0  0  2  0  0  0  0  0  0  0  0  0
   22.3311   42.9658   16.9611 C   0  0  0  0  0  0  0  0  0  0  0  0
   22.8713   44.0444   16.5630 O   0  0  0  0  0  0  0  0  0  0  0  0
   22.4280   42.4946   19.3280 C   0  0  0  0  0  0  0  0  0  0  0  0
   22.0171   43.8719   19.4773 C   0  0  0  0  0  0  0  0  0  0  0  0
   22.0110   44.7397   18.4002 C   0  0  0  0  0  0  0  0  0  0  0  0
   21.6241   44.3819   20.7019 C   0  0  0  0  0  0  0  0  0  0  0  0
   21.6291   46.0503   18.5610 C   0  0  0  0  0  0  0  0  0  0  0  0
   21.2400   45.7023   20.8562 C   0  0  0  0  0  0  0  0  0  0  0  0
   21.2386   46.5651   19.7710 C   0  0  0  0  0  0  0  0  0  0  0  0
   20.8511   47.8991   19.9176 O   0  0  0  0  0  0  0  0  0  0  0  0
   21.0638   42.7024   16.3422 N   0  0  0  0  0  0  0  0  0  0  0  0
   19.9068   42.2468   17.0803 C   0  0  0  0  0  0  0  0  0  0  0  0
   18.8365   41.8366   16.1446 C   0  0  0  0  0  0  0  0  0  0  0  0
   19.2699   41.4075   15.0108 O   0  0  0  0  0  0  0  0  0  0  0  0
   17.4410   41.8744   16.3889 N   0  0  0  0  0  0  0  0  0  0  0  0
   16.6029   42.9829   16.6853 C   0  0  2  0  0  0  0  0  0  0  0  0
   16.6986   44.0762   15.6847 C   0  0  0  0  0  0  0  0  0  0  0  0
   17.8787   44.4218   15.3545 O   0  0  0  0  0  0  0  0  0  0  0  0
   16.7163   43.5858   18.0408 C   0  0  0  0  0  0  0  0  0  0  0  0
   17.6501   44.7172   18.1779 C   0  0  0  0  0  0  0  0  0  0  0  0
   19.0125   44.5606   18.2566 C   0  0  0  0  0  0  0  0  0  0  0  0
   17.1598   46.0233   18.2043 C   0  0  0  0  0  0  0  0  0  0  0  0
   19.8671   45.6618   18.3579 C   0  0  0  0  0  0  0  0  0  0  0  0
   17.9939   47.1110   18.3028 C   0  0  0  0  0  0  0  0  0  0  0  0
   19.3557   46.9342   18.3798 C   0  0  0  0  0  0  0  0  0  0  0  0
   15.5978   44.7154   15.1146 N   0  0  0  0  0  0  0  0  0  0  0  0
   14.2759   44.1167   14.9118 C   0  0  2  0  0  0  0  0  0  0  0  0
   13.6026   44.7306   13.7449 C   0  0  0  0  0  0  0  0  0  0  0  0
   13.7039   46.0345   13.7667 O   0  0  0  0  0  0  0  0  0  0  0  0
   13.3812   44.4584   16.1047 C   0  0  0  0  0  0  0  0  0  0  0  0
   14.0448   44.0838   17.4037 C   0  0  0  0  0  0  0  0  0  0  0  0
   15.4872   43.6577   17.1712 C   0  0  0  0  0  0  0  0  0  0  0  0
   15.5186   42.8710   15.8719 C   0  0  0  0  0  0  0  0  0  0  0  0
   16.7683   42.1863   15.6866 N   0  0  0  0  0  4  0  0  0  0  0  0
   12.9132   44.1601   12.6872 N   0  0  0  0  0  0  0  0  0  0  0  0
   13.3120   43.3383   11.5744 C   0  0  2  0  0  0  0  0  0  0  0  0
   13.0103   44.0592   10.2887 C   0  0  0  0  0  0  0  0  0  0  0  0
   13.5384   45.2381   10.2744 O   0  0  0  0  0  0  0  0  0  0  0  0
   12.6517   42.0118   11.6890 C   0  0  2  0  0  0  0  0  0  0  0  0
   11.5392   41.8697   10.6853 C   0  0  0  0  0  0  0  0  0  0  0  0
   12.0424   41.8826   13.0663 C   0  0  0  0  0  0  0  0  0  0  0  0
   10.8796   43.1999   10.3500 C   0  0  0  0  0  0  0  0  0  0  0  0
   12.2886   43.6547    9.1888 N   0  0  0  0  0  0  0  0  0  0  0  0
   12.4354   42.5447    8.2904 C   0  0  2  0  0  0  0  0  0  0  0  0
   13.8533   42.2747    7.9268 C   0  0  0  0  0  0  0  0  0  0  0  0
   14.6218   42.2780    8.9664 O   0  0  0  0  0  0  0  0  0  0  0  0
   11.5814   42.6858    7.0348 C   0  0  0  0  0  0  0  0  0  0  0  0
   12.2107   43.6713    6.1312 C   0  0  0  0  0  0  0  0  0  0  0  0
   12.8959   44.7839    6.3197 N   0  0  0  0  0  0  0  0  0  0  0  0
   12.1325   43.5223    4.7406 C   0  0  0  0  0  0  0  0  0  0  0  0
   13.2311   45.3085    5.1327 C   0  0  0  0  0  0  0  0  0  0  0  0
   12.7655   44.5392    4.1370 N   0  0  0  0  0  0  0  0  0  0  0  0
   15.2377   42.3485    5.5394 O   0  0  0  0  0  0  0  0  0  0  0  0
  3  1  1  0
  1 23  1  0
  2  4  1  0
 19  2  1  0
  2 27  1  0
 16  3  1  0
  3 26  2  0
  4  6  1  0
 44  5  1  0
  6 16  1  1
  6 45  1  0
  8  7  1  0
  7 12  2  0
  7 44  1  0
  9  8  2  0
  9 10  1  0
 35  9  1  0
 10 13  2  0
 14 11  1  0
 11 27  2  0
 13 12  1  0
 13 14  1  0
 14 19  2  0
 45 15  2  0
 23 17  1  0
 17 24  1  0
 17 25  2  0
 44 18  2  0
 43 20  2  0
 41 21  2  0
 39 22  2  0
 28 33  1  0
 28 36  1  0
 37 28  1  0
 38 29  1  0
 29111  1  0
119 29  1  0
 30 39  1  0
 40 30  1  0
 31 41  1  0
 42 31  1  0
 43 32  1  0
 33 34  2  0
 35 34  1  0
 36 35  2  0
 38 37  1  0
 38 39  1  6
 38119  1  0
 41 40  1  0
 42 43  1  0
 45 46  1  0
 46 47  1  0
 47 48  1  0
 47 50  1  1
 48 49  2  0
 48 57  1  0
 50 51  1  0
 51 52  1  0
 52 53  1  0
 53 54  1  0
 54 55  2  0
 54 56  1  0
 57 58  1  0
 58 59  1  0
 58 61  1  1
 59 60  2  0
 59 65  1  0
 61 62  1  0
 62 63  1  6
 62 64  1  0
 65 66  1  0
 66 67  1  0
 66 69  1  1
 67 68  2  0
 67 77  1  0
 69 70  1  0
 70 71  2  0
 70 72  1  0
 71 73  1  0
 72 74  2  0
 73 75  2  0
 74 75  1  0
 75 76  1  0
 77 78  1  0
 78 79  1  0
 79 80  2  0
 79 81  1  0
 81 82  1  0
 82 83  1  0
 82 85  1  1
 83 84  2  0
 83 92  1  0
 85 86  1  0
 86 87  2  0
 86 88  1  0
 87 89  1  0
 88 90  2  0
 89 91  2  0
 90 91  1  0
 92 93  1  0
 93 94  1  0
 93 96  1  1
 94 95  2  0
 94101  1  0
 96 97  1  0
 97 98  1  0
 98 99  1  0
 99100  1  0
102101  1  1
102103  1  0
102105  1  0
103104  2  0
103109  1  0
105106  1  0
105107  1  1
106108  1  0
109110  1  0
110111  1  0
110113  1  6
111112  2  0
113114  1  0
114115  1  0
114116  2  0
115117  2  0
116118  1  0
117118  1  0
M  CHG  3   5  -1  55   1 100   1
M  END
$$$$
