
     RDKit          3D

119126  0  0  0  0  0  0  0  0999 V2000
   26.9538   39.3008   12.8869 C   0  0  0  0  0  0  0  0  0  0  0  0
   24.8178   39.6161    9.4210 N   0  0  0  0  0  0  0  0  0  0  0  0
   27.8725   39.0926   11.7447 C   0  0  0  0  0  0  0  0  0  0  0  0
   25.4362   40.2598   10.5867 C   0  0  0  0  0  0  0  0  0  0  0  0
   23.3721   38.9179    1.9589 O   0  0  0  0  0  1  0  0  0  0  0  0
   26.7706   40.8676   10.3072 C   0  0  2  0  0  0  0  0  0  0  0  0
   22.6458   38.1539    4.2095 C   0  0  0  0  0  0  0  0  0  0  0  0
   21.2784   38.0473    4.3091 C   0  0  0  0  0  0  0  0  0  0  0  0
   20.5695   38.2348    5.5219 C   0  0  0  0  0  0  0  0  0  0  0  0
   21.2785   38.5402    6.6613 C   0  0  0  0  0  0  0  0  0  0  0  0
   24.7331   38.0819    7.8999 N   0  0  0  0  0  0  0  0  0  0  0  0
   23.2836   38.4533    5.3611 C   0  0  0  0  0  0  0  0  0  0  0  0
   22.6430   38.6564    6.6227 C   0  0  0  0  0  0  0  0  0  0  0  0
   23.6222   38.9295    7.7236 C   0  0  0  0  0  0  0  0  0  0  0  0
   27.8035   42.9262   10.5046 O   0  0  0  0  0  0  0  0  0  0  0  0
   27.8734   39.9608   10.5961 N   0  0  0  0  0  0  0  0  0  0  0  0
   25.5714   37.7132   14.1729 C   0  0  0  0  0  0  0  0  0  0  0  0
   23.9350   36.8379    2.7900 O   0  0  0  0  0  0  0  0  0  0  0  0
   23.7356   39.8751    8.7124 C   0  0  0  0  0  0  0  0  0  0  0  0
   18.8282   37.4722    3.4849 O   0  0  0  0  0  0  0  0  0  0  0  0
   16.5855   37.5858    4.6816 O   0  0  0  0  0  0  0  0  0  0  0  0
   13.2827   39.6348    3.0581 O   0  0  0  0  0  0  0  0  0  0  0  0
   26.0147   38.1934   12.9081 N   0  0  0  0  0  0  0  0  0  0  0  0
   26.1384   38.1877   15.4436 C   0  0  0  0  0  0  0  0  0  0  0  0
   24.6428   36.8322   14.2416 O   0  0  0  0  0  0  0  0  0  0  0  0
   28.7218   38.1423   11.7011 O   0  0  0  0  0  0  0  0  0  0  0  0
   25.4057   38.5001    8.8861 N   0  0  0  0  0  0  0  0  0  0  0  0
   16.9278   37.9131    5.2987 N   0  0  0  0  0  0  0  0  0  0  0  0
   14.9631   40.4541    5.5497 N   0  0  0  0  0  0  0  0  0  0  0  0
   14.9189   38.1119    2.6153 N   0  0  0  0  0  0  0  0  0  0  0  0
   17.1059   35.4519    3.8687 N   0  0  0  0  0  0  0  0  0  0  0  0
   20.6996   36.1817    3.7521 N   0  0  0  0  0  0  0  0  0  0  0  0
   17.3927   36.8430    4.6050 N   0  0  0  0  0  0  0  0  0  0  0  0
   18.6521   36.8662    4.6130 N   0  0  0  0  0  0  0  0  0  0  0  0
   19.1021   37.9881    5.3376 C   0  0  0  0  0  0  0  0  0  0  0  0
   17.9527   38.6164    5.7470 C   0  0  0  0  0  0  0  0  0  0  0  0
   15.4725   38.0806    5.4612 C   0  0  0  0  0  0  0  0  0  0  0  0
   14.9411   39.3506    4.8182 C   0  0  1  0  0  0  0  0  0  0  0  0
   14.3049   39.0857    3.4886 C   0  0  0  0  0  0  0  0  0  0  0  0
   15.0961   36.7488    3.0586 C   0  0  0  0  0  0  0  0  0  0  0  0
   16.2979   36.6367    3.9204 C   0  0  0  0  0  0  0  0  0  0  0  0
   18.3945   35.4251    4.5682 C   0  0  0  0  0  0  0  0  0  0  0  0
   19.3008   36.3811    3.9265 C   0  0  0  0  0  0  0  0  0  0  0  0
   23.3462   37.9476    2.9478 C   0  0  0  0  0  0  0  0  0  0  0  0
   27.0161   42.1104   11.1097 C   0  0  0  0  0  0  0  0  0  0  0  0
   26.5450   42.4840   12.3368 N   0  0  0  0  0  0  0  0  0  0  0  0
   26.7236   41.8814   13.6617 C   0  0  2  0  0  0  0  0  0  0  0  0
   25.4034   41.6889   14.2993 C   0  0  0  0  0  0  0  0  0  0  0  0
   24.8022   40.6234   13.8574 O   0  0  0  0  0  0  0  0  0  0  0  0
   27.6288   42.7392   14.5003 C   0  0  0  0  0  0  0  0  0  0  0  0
   27.6412   44.2075   14.0897 C   0  0  0  0  0  0  0  0  0  0  0  0
   26.8494   44.4323   12.8388 C   0  0  0  0  0  0  0  0  0  0  0  0
   27.5542   45.1073   11.7964 N   0  0  0  0  0  0  0  0  0  0  0  0
   27.0317   45.3948   10.5170 C   0  0  0  0  0  0  0  0  0  0  0  0
   27.7020   46.0329    9.6546 N   0  0  0  0  0  4  0  0  0  0  0  0
   25.6954   44.9444   10.1659 N   0  0  0  0  0  0  0  0  0  0  0  0
   24.7292   42.4328   15.2481 N   0  0  0  0  0  0  0  0  0  0  0  0
   24.9502   42.6008   16.6659 C   0  0  2  0  0  0  0  0  0  0  0  0
   23.8506   42.0165   17.4709 C   0  0  0  0  0  0  0  0  0  0  0  0
   24.0031   40.7123   17.5225 O   0  0  0  0  0  0  0  0  0  0  0  0
   25.2957   44.0170   16.9829 C   0  0  0  0  0  0  0  0  0  0  0  0
   24.1466   44.9669   16.7194 C   0  0  1  0  0  0  0  0  0  0  0  0
   23.7062   44.9256   15.2739 C   0  0  0  0  0  0  0  0  0  0  0  0
   22.9487   44.5766   17.5543 C   0  0  0  0  0  0  0  0  0  0  0  0
   22.7564   42.5394   18.1424 N   0  0  0  0  0  0  0  0  0  0  0  0
   21.4924   43.1003   17.8017 C   0  0  2  0  0  0  0  0  0  0  0  0
   21.2600   43.7008   16.5148 C   0  0  0  0  0  0  0  0  0  0  0  0
   22.0345   44.5246   15.9358 O   0  0  0  0  0  0  0  0  0  0  0  0
   20.9036   44.0045   18.8843 C   0  0  0  0  0  0  0  0  0  0  0  0
   19.7237   43.5188   19.5624 C   0  0  0  0  0  0  0  0  0  0  0  0
   19.4509   43.8739   20.8711 C   0  0  0  0  0  0  0  0  0  0  0  0
   18.8257   42.6722   18.9371 C   0  0  0  0  0  0  0  0  0  0  0  0
   18.3306   43.3937   21.5065 C   0  0  0  0  0  0  0  0  0  0  0  0
   17.6993   42.1933   19.5826 C   0  0  0  0  0  0  0  0  0  0  0  0
   17.4350   42.5536   20.8951 C   0  0  0  0  0  0  0  0  0  0  0  0
   16.2997   42.0758   21.5539 O   0  0  0  0  0  0  0  0  0  0  0  0
   20.0786   43.4024   15.7577 N   0  0  0  0  0  0  0  0  0  0  0  0
   18.7594   43.3450   16.3471 C   0  0  0  0  0  0  0  0  0  0  0  0
   17.7933   42.7841   15.3768 C   0  0  0  0  0  0  0  0  0  0  0  0
   18.3172   41.9672   14.5308 O   0  0  0  0  0  0  0  0  0  0  0  0
   16.4048   43.0602   15.3119 N   0  0  0  0  0  0  0  0  0  0  0  0
   15.7357   44.2948   15.0945 C   0  0  2  0  0  0  0  0  0  0  0  0
   16.1744   44.9911   13.8582 C   0  0  0  0  0  0  0  0  0  0  0  0
   17.4333   45.0730   13.6868 O   0  0  0  0  0  0  0  0  0  0  0  0
   15.7392   45.2825   16.2071 C   0  0  0  0  0  0  0  0  0  0  0  0
   14.5378   46.1254   16.3379 C   0  0  0  0  0  0  0  0  0  0  0  0
   14.5213   47.3044   17.0425 C   0  0  0  0  0  0  0  0  0  0  0  0
   13.3529   45.7490   15.7046 C   0  0  0  0  0  0  0  0  0  0  0  0
   13.3681   48.0902   17.1196 C   0  0  0  0  0  0  0  0  0  0  0  0
   12.2154   46.5169   15.7751 C   0  0  0  0  0  0  0  0  0  0  0  0
   12.2184   47.6949   16.4849 C   0  0  0  0  0  0  0  0  0  0  0  0
   15.3037   45.5376   12.9155 N   0  0  0  0  0  0  0  0  0  0  0  0
   13.9460   45.0634   12.6344 C   0  0  2  0  0  0  0  0  0  0  0  0
   13.5796   45.3452   11.2279 C   0  0  0  0  0  0  0  0  0  0  0  0
   13.9008   46.5663   10.8864 O   0  0  0  0  0  0  0  0  0  0  0  0
   12.9492   45.8708   13.4681 C   0  0  0  0  0  0  0  0  0  0  0  0
   13.6527   46.9258   14.2805 C   0  0  0  0  0  0  0  0  0  0  0  0
   15.1266   47.0014   13.9090 C   0  0  0  0  0  0  0  0  0  0  0  0
   15.8267   45.8531   14.6156 C   0  0  0  0  0  0  0  0  0  0  0  0
   17.2428   45.8535   14.3718 N   0  0  0  0  0  4  0  0  0  0  0  0
   12.9752   44.5503   10.2676 N   0  0  0  0  0  0  0  0  0  0  0  0
   13.3941   43.3750    9.5494 C   0  0  2  0  0  0  0  0  0  0  0  0
   13.4261   43.6761    8.0756 C   0  0  0  0  0  0  0  0  0  0  0  0
   14.1462   44.7185    7.8232 O   0  0  0  0  0  0  0  0  0  0  0  0
   12.5041   42.2413    9.9121 C   0  0  2  0  0  0  0  0  0  0  0  0
   11.6870   41.7920    8.7305 C   0  0  0  0  0  0  0  0  0  0  0  0
   11.5417   42.6950   10.9858 C   0  0  0  0  0  0  0  0  0  0  0  0
   10.9230   42.9354    8.0781 C   0  0  0  0  0  0  0  0  0  0  0  0
   12.8256   43.0276    7.0206 N   0  0  0  0  0  0  0  0  0  0  0  0
   12.9160   41.6792    6.5363 C   0  0  2  0  0  0  0  0  0  0  0  0
   14.3046   41.1440    6.5623 C   0  0  0  0  0  0  0  0  0  0  0  0
   14.8905   41.3906    7.6881 O   0  0  0  0  0  0  0  0  0  0  0  0
   12.3058   41.5091    5.1491 C   0  0  0  0  0  0  0  0  0  0  0  0
   13.0673   42.3280    4.1830 C   0  0  0  0  0  0  0  0  0  0  0  0
   13.7239   43.4704    4.2640 N   0  0  0  0  0  0  0  0  0  0  0  0
   13.1939   41.9284    2.8464 C   0  0  0  0  0  0  0  0  0  0  0  0
   14.2335   43.7788    3.0633 C   0  0  0  0  0  0  0  0  0  0  0  0
   13.9150   42.8326    2.1669 N   0  0  0  0  0  0  0  0  0  0  0  0
   16.0359   40.2878    4.5896 O   0  0  0  0  0  0  0  0  0  0  0  0
  3  1  1  0
  1 23  1  0
  2  4  1  0
 19  2  1  0
  2 27  1  0
 16  3  1  0
  3 26  2  0
  4  6  1  0
 44  5  1  0
  6 16  1  1
  6 45  1  0
  8  7  1  0
  7 12  2  0
  7 44  1  0
  9  8  2  0
  9 10  1  0
 35  9  1  0
 10 13  2  0
 14 11  1  0
 11 27  2  0
 13 12  1  0
 13 14  1  0
 14 19  2  0
 45 15  2  0
 23 17  1  0
 17 24  1  0
 17 25  2  0
 44 18  2  0
 43 20  2  0
 41 21  2  0
 39 22  2  0
 28 33  1  0
 28 36  1  0
 37 28  1  0
 38 29  1  0
 29111  1  0
119 29  1  0
 30 39  1  0
 40 30  1  0
 31 41  1  0
 42 31  1  0
 43 32  1  0
 33 34  2  0
 35 34  1  0
 36 35  2  0
 38 37  1  0
 38 39  1  6
 38119  1  0
 41 40  1  0
 42 43  1  0
 45 46  1  0
 46 47  1  0
 47 48  1  0
 47 50  1  1
 48 49  2  0
 48 57  1  0
 50 51  1  0
 51 52  1  0
 52 53  1  0
 53 54  1  0
 54 55  2  0
 54 56  1  0
 57 58  1  0
 58 59  1  0
 58 61  1  6
 59 60  2  0
 59 65  1  0
 61 62  1  0
 62 63  1  6
 62 64  1  0
 65 66  1  0
 66 67  1  0
 66 69  1  1
 67 68  2  0
 67 77  1  0
 69 70  1  0
 70 71  2  0
 70 72  1  0
 71 73  1  0
 72 74  2  0
 73 75  2  0
 74 75  1  0
 75 76  1  0
 77 78  1  0
 78 79  1  0
 79 80  2  0
 79 81  1  0
 81 82  1  0
 82 83  1  0
 82 85  1  1
 83 84  2  0
 83 92  1  0
 85 86  1  0
 86 87  2  0
 86 88  1  0
 87 89  1  0
 88 90  2  0
 89 91  2  0
 90 91  1  0
 92 93  1  0
 93 94  1  0
 93 96  1  1
 94 95  2  0
 94101  1  0
 96 97  1  0
 97 98  1  0
 98 99  1  0
 99100  1  0
102101  1  1
102103  1  0
102105  1  0
103104  2  0
103109  1  0
105106  1  0
105107  1  1
106108  1  0
109110  1  0
110111  1  0
110113  1  6
111112  2  0
113114  1  0
114115  1  0
114116  2  0
115117  2  0
116118  1  0
117118  1  0
M  CHG  3   5  -1  55   1 100   1
M  END
$$$$
