
     RDKit          3D

 41 44  0  0  0  0  0  0  0  0999 V2000
   71.0743   57.8655   14.7130 C   0  0  1  0  0  0  0  0  0  0  0  0
   71.1128   56.3418   14.8172 C   0  0  2  0  0  0  0  0  0  0  0  0
   69.6851   54.3881   14.3084 C   0  0  0  0  0  0  0  0  0  0  0  0
   68.1117   52.5761   14.0916 C   0  0  1  0  0  0  0  0  0  0  0  0
   66.8200   52.3898   13.2808 C   0  0  0  0  0  0  0  0  0  0  0  0
   68.4093   51.1744   12.2508 C   0  0  1  0  0  0  0  0  0  0  0  0
   70.6084   51.5883   12.1717 C   0  0  0  0  0  0  0  0  0  0  0  0
   72.3233   55.7945   14.1617 C   0  0  0  0  0  0  0  0  0  0  0  0
   75.2453   60.5737   20.3067 C   0  0  0  0  0  0  0  0  0  0  0  0
   74.6817   59.4376   21.0510 C   0  0  0  0  0  0  0  0  0  0  0  0
   73.5486   58.6727   20.4235 C   0  0  0  0  0  0  0  0  0  0  0  0
   73.4481   58.7991   18.9754 C   0  0  0  0  0  0  0  0  0  0  0  0
   74.8045   59.0452   18.3220 C   0  0  0  0  0  0  0  0  0  0  0  0
   75.4823   60.2553   18.8928 C   0  0  0  0  0  0  0  0  0  0  0  0
   70.4845   59.0755   17.8378 C   0  0  0  0  0  0  0  0  0  0  0  0
   71.7108   58.4867   15.8859 C   0  0  0  0  0  0  0  0  0  0  0  0
   68.8449   51.3136   13.6898 C   0  0  1  0  0  0  0  0  0  0  0  0
   70.3277   51.4571   13.6605 C   0  0  0  0  0  0  0  0  0  0  0  0
   72.6338   54.3911   14.3634 C   0  0  0  0  0  0  0  0  0  0  0  0
   72.8374   53.8814   15.6187 C   0  0  0  0  0  0  0  0  0  0  0  0
   73.1347   52.5462   15.8450 C   0  0  0  0  0  0  0  0  0  0  0  0
   73.2324   51.6871   14.7790 C   0  0  0  0  0  0  0  0  0  0  0  0
   73.0313   52.1775   13.5055 C   0  0  0  0  0  0  0  0  0  0  0  0
   72.7357   53.5063   13.2812 C   0  0  0  0  0  0  0  0  0  0  0  0
   73.0706   61.7072   20.5222 C   0  0  0  0  0  0  0  0  0  0  0  0
   68.7973   60.6159   19.7564 C   0  0  0  0  0  0  0  0  0  0  0  0
   69.0179   59.1651   17.7385 C   0  0  2  0  0  0  0  0  0  0  0  0
   68.5030   59.2617   19.2018 C   0  0  0  0  0  0  0  0  0  0  0  0
   68.2814   58.0095   17.1431 C   0  0  0  0  0  0  0  0  0  0  0  0
   74.5762   61.9046   20.5800 C   0  0  2  0  0  0  0  0  0  0  0  0
   71.2255   58.0509   17.1895 N   0  0  0  0  0  0  0  0  0  0  0  0
   69.8826   55.7696   14.3154 N   0  0  0  0  0  0  0  0  0  0  0  0
   72.1017   56.5213   19.1774 O   0  0  0  0  0  0  0  0  0  0  0  0
   73.5170   56.6983   17.2638 O   0  0  0  0  0  0  0  0  0  0  0  0
   71.5026   58.2177   13.4709 O   0  0  0  0  0  0  0  0  0  0  0  0
   70.4306   53.6804   15.0327 O   0  0  0  0  0  0  0  0  0  0  0  0
   68.7202   53.7345   13.5564 O   0  0  0  0  0  0  0  0  0  0  0  0
   67.2354   51.8550   12.0856 O   0  0  0  0  0  0  0  0  0  0  0  0
   69.4139   51.8565   11.5516 O   0  0  0  0  0  0  0  0  0  0  0  0
   74.9823   62.9361   19.7795 O   0  0  0  0  0  0  0  0  0  0  0  0
   72.5678   57.5597   18.1224 S   0  0  2  0  0  6  0  0  0  0  0  0
  1  2  1  0
 16  1  1  0
  1 35  1  6
  2  8  1  6
  2 32  1  0
 32  3  1  0
  3 36  2  0
  3 37  1  0
  4  5  1  0
  4 17  1  0
  4 37  1  6
  5 38  1  0
 17  6  1  0
  6 38  1  1
  6 39  1  0
 18  7  1  0
  7 39  1  0
  8 19  1  0
 10  9  1  0
 14  9  1  0
  9 30  1  0
 11 10  1  0
 12 11  1  0
 12 13  1  0
 41 12  1  0
 13 14  1  0
 15 27  1  0
 31 15  1  0
 31 16  1  0
 17 18  1  6
 19 20  2  0
 19 24  1  0
 20 21  1  0
 21 22  2  0
 23 22  1  0
 24 23  2  0
 30 25  1  6
 28 26  1  0
 27 28  1  0
 27 29  1  1
 30 40  1  0
 41 31  1  6
 41 33  2  0
 41 34  2  0
M  END
$$$$
