
     RDKit          3D

 41 44  0  0  0  0  0  0  0  0999 V2000
   71.2293   57.6447   14.9874 C   0  0  1  0  0  0  0  0  0  0  0  0
   71.0450   57.9911   16.4639 C   0  0  2  0  0  0  0  0  0  0  0  0
   72.8309   58.8931   17.9167 C   0  0  0  0  0  0  0  0  0  0  0  0
   74.7803   59.5273   19.1831 C   0  0  1  0  0  0  0  0  0  0  0  0
   76.0599   60.3190   18.8729 C   0  0  0  0  0  0  0  0  0  0  0  0
   74.4786   61.8302   19.4017 C   0  0  1  0  0  0  0  0  0  0  0  0
   72.2697   61.6675   19.0732 C   0  0  0  0  0  0  0  0  0  0  0  0
   69.6255   58.2872   16.7673 C   0  0  0  0  0  0  0  0  0  0  0  0
   67.8836   51.3147   13.6663 C   0  0  0  0  0  0  0  0  0  0  0  0
   68.9273   52.0307   12.9179 C   0  0  0  0  0  0  0  0  0  0  0  0
   69.1893   53.4696   13.2695 C   0  0  0  0  0  0  0  0  0  0  0  0
   68.7591   53.8651   14.6043 C   0  0  0  0  0  0  0  0  0  0  0  0
   68.7982   52.7027   15.5914 C   0  0  0  0  0  0  0  0  0  0  0  0
   67.9751   51.5433   15.1140 C   0  0  0  0  0  0  0  0  0  0  0  0
   71.7243   53.9636   15.2715 C   0  0  0  0  0  0  0  0  0  0  0  0
   71.8092   56.3005   14.8335 C   0  0  0  0  0  0  0  0  0  0  0  0
   74.0678   60.5351   20.0605 C   0  0  1  0  0  0  0  0  0  0  0  0
   72.5819   60.4770   19.9665 C   0  0  0  0  0  0  0  0  0  0  0  0
   69.3017   58.8008   18.0856 C   0  0  0  0  0  0  0  0  0  0  0  0
   70.1767   58.6748   19.1322 C   0  0  0  0  0  0  0  0  0  0  0  0
   69.8978   59.1549   20.4027 C   0  0  0  0  0  0  0  0  0  0  0  0
   68.7011   59.7846   20.6379 C   0  0  0  0  0  0  0  0  0  0  0  0
   67.8040   59.9233   19.5992 C   0  0  0  0  0  0  0  0  0  0  0  0
   68.0823   59.4451   18.3354 C   0  0  0  0  0  0  0  0  0  0  0  0
   65.5468   50.5815   13.9165 C   0  0  0  0  0  0  0  0  0  0  0  0
   72.6870   51.3497   14.6937 C   0  0  0  0  0  0  0  0  0  0  0  0
   73.1265   53.8007   14.8518 C   0  0  2  0  0  0  0  0  0  0  0  0
   73.1467   52.5481   13.9318 C   0  0  0  0  0  0  0  0  0  0  0  0
   74.1487   53.5248   15.9061 C   0  0  0  0  0  0  0  0  0  0  0  0
   66.4952   51.4135   13.0694 C   0  0  2  0  0  0  0  0  0  0  0  0
   71.1744   55.2330   15.5963 N   0  0  0  0  0  0  0  0  0  0  0  0
   71.9461   59.0549   16.8498 N   0  0  0  0  0  0  0  0  0  0  0  0
   68.7493   55.5894   16.6215 O   0  0  0  0  0  0  0  0  0  0  0  0
   69.1495   56.5442   14.4710 O   0  0  0  0  0  0  0  0  0  0  0  0
   70.0730   57.9388   14.3341 O   0  0  0  0  0  0  0  0  0  0  0  0
   72.4230   58.2791   18.9355 O   0  0  0  0  0  0  0  0  0  0  0  0
   74.1358   59.3627   17.9357 O   0  0  0  0  0  0  0  0  0  0  0  0
   75.6336   61.6139   18.7034 O   0  0  0  0  0  0  0  0  0  0  0  0
   73.4458   62.0556   18.4820 O   0  0  0  0  0  0  0  0  0  0  0  0
   66.4064   51.0893   11.7440 O   0  0  0  0  0  0  0  0  0  0  0  0
   69.4953   55.2864   15.2947 S   0  0  2  0  0  6  0  0  0  0  0  0
  1  2  1  0
 16  1  1  0
  1 35  1  6
  2  8  1  6
  2 32  1  0
 32  3  1  0
  3 36  2  0
  3 37  1  0
  4  5  1  0
  4 17  1  0
  4 37  1  6
  5 38  1  0
 17  6  1  0
  6 38  1  6
  6 39  1  0
 18  7  1  0
  7 39  1  0
  8 19  1  0
 10  9  1  0
 14  9  1  0
  9 30  1  0
 11 10  1  0
 12 11  1  0
 12 13  1  0
 41 12  1  0
 13 14  1  0
 15 27  1  0
 31 15  1  0
 31 16  1  0
 17 18  1  6
 19 20  2  0
 19 24  1  0
 20 21  1  0
 21 22  2  0
 23 22  1  0
 24 23  2  0
 30 25  1  1
 28 26  1  0
 27 28  1  0
 27 29  1  1
 30 40  1  0
 41 31  1  1
 41 33  2  0
 41 34  2  0
M  END
$$$$
