
     RDKit          3D

 41 44  0  0  0  0  0  0  0  0999 V2000
   71.2562   57.5753   14.9600 C   0  0  1  0  0  0  0  0  0  0  0  0
   71.1023   57.8611   16.4528 C   0  0  2  0  0  0  0  0  0  0  0  0
   72.4636   58.6378   18.3653 C   0  0  0  0  0  0  0  0  0  0  0  0
   74.1114   59.5457   19.8708 C   0  0  1  0  0  0  0  0  0  0  0  0
   75.4438   59.8721   19.1788 C   0  0  0  0  0  0  0  0  0  0  0  0
   74.7395   61.7747   20.1523 C   0  0  1  0  0  0  0  0  0  0  0  0
   72.6270   62.4230   20.5142 C   0  0  0  0  0  0  0  0  0  0  0  0
   69.9572   58.7662   16.7055 C   0  0  0  0  0  0  0  0  0  0  0  0
   66.8385   51.8989   13.3896 C   0  0  0  0  0  0  0  0  0  0  0  0
   67.2124   51.4014   14.7218 C   0  0  0  0  0  0  0  0  0  0  0  0
   68.3727   52.0551   15.4213 C   0  0  0  0  0  0  0  0  0  0  0  0
   68.6911   53.4001   14.9599 C   0  0  0  0  0  0  0  0  0  0  0  0
   67.4633   54.1342   14.4299 C   0  0  0  0  0  0  0  0  0  0  0  0
   66.7899   53.3655   13.3321 C   0  0  0  0  0  0  0  0  0  0  0  0
   71.8022   54.2131   14.6809 C   0  0  0  0  0  0  0  0  0  0  0  0
   70.6382   56.2867   14.6072 C   0  0  0  0  0  0  0  0  0  0  0  0
   74.0958   60.6419   20.9154 C   0  0  1  0  0  0  0  0  0  0  0  0
   72.7298   61.1128   21.2794 C   0  0  0  0  0  0  0  0  0  0  0  0
   69.6076   59.0568   18.0839 C   0  0  0  0  0  0  0  0  0  0  0  0
   69.7458   60.3176   18.6017 C   0  0  0  0  0  0  0  0  0  0  0  0
   69.4202   60.6278   19.9132 C   0  0  0  0  0  0  0  0  0  0  0  0
   68.9384   59.6432   20.7393 C   0  0  0  0  0  0  0  0  0  0  0  0
   68.7906   58.3658   20.2401 C   0  0  0  0  0  0  0  0  0  0  0  0
   69.1150   58.0580   18.9350 C   0  0  0  0  0  0  0  0  0  0  0  0
   68.8783   50.6844   12.7376 C   0  0  0  0  0  0  0  0  0  0  0  0
   72.7831   52.5242   12.9784 C   0  0  0  0  0  0  0  0  0  0  0  0
   73.2584   54.0888   14.8629 C   0  0  2  0  0  0  0  0  0  0  0  0
   73.6567   52.7579   14.1660 C   0  0  0  0  0  0  0  0  0  0  0  0
   73.7855   53.9706   16.2560 C   0  0  0  0  0  0  0  0  0  0  0  0
   67.5458   51.2168   12.2371 C   0  0  2  0  0  0  0  0  0  0  0  0
   71.0237   55.1418   15.4228 N   0  0  0  0  0  0  0  0  0  0  0  0
   72.3479   58.3468   17.0054 N   0  0  0  0  0  0  0  0  0  0  0  0
   69.9643   53.5670   17.2822 O   0  0  0  0  0  0  0  0  0  0  0  0
   68.7018   55.4992   16.6748 O   0  0  0  0  0  0  0  0  0  0  0  0
   70.8864   58.6898   14.2733 O   0  0  0  0  0  0  0  0  0  0  0  0
   71.9364   57.8450   19.1867 O   0  0  0  0  0  0  0  0  0  0  0  0
   73.1222   59.7444   18.8805 O   0  0  0  0  0  0  0  0  0  0  0  0
   75.4854   61.2445   19.1368 O   0  0  0  0  0  0  0  0  0  0  0  0
   73.6410   62.4379   19.5895 O   0  0  0  0  0  0  0  0  0  0  0  0
   67.6961   51.9795   11.1122 O   0  0  0  0  0  0  0  0  0  0  0  0
   69.6036   54.4216   16.0379 S   0  0  2  0  0  6  0  0  0  0  0  0
  1  2  1  0
 16  1  1  0
  1 35  1  6
  2  8  1  6
  2 32  1  0
 32  3  1  0
  3 36  2  0
  3 37  1  0
  4  5  1  0
  4 17  1  0
  4 37  1  6
  5 38  1  0
 17  6  1  0
  6 38  1  6
  6 39  1  0
 18  7  1  0
  7 39  1  0
  8 19  1  0
 10  9  1  0
 14  9  1  0
  9 30  1  0
 11 10  1  0
 12 11  1  0
 12 13  1  0
 41 12  1  0
 13 14  1  0
 15 27  1  0
 31 15  1  0
 31 16  1  0
 17 18  1  6
 19 20  2  0
 19 24  1  0
 20 21  1  0
 21 22  2  0
 23 22  1  0
 24 23  2  0
 30 25  1  1
 28 26  1  0
 27 28  1  0
 27 29  1  1
 30 40  1  0
 41 31  1  6
 41 33  2  0
 41 34  2  0
M  END
$$$$
