
     RDKit          3D

 41 44  0  0  0  0  0  0  0  0999 V2000
   71.4757   57.5883   14.7217 C   0  0  1  0  0  0  0  0  0  0  0  0
   71.2898   58.2246   16.0981 C   0  0  2  0  0  0  0  0  0  0  0  0
   72.6753   59.2536   17.8688 C   0  0  0  0  0  0  0  0  0  0  0  0
   74.3075   59.8996   19.5195 C   0  0  1  0  0  0  0  0  0  0  0  0
   75.7357   60.4266   19.3120 C   0  0  0  0  0  0  0  0  0  0  0  0
   74.5519   62.1112   20.2200 C   0  0  1  0  0  0  0  0  0  0  0  0
   72.3652   62.5285   19.9799 C   0  0  0  0  0  0  0  0  0  0  0  0
   70.1487   59.1693   16.0972 C   0  0  0  0  0  0  0  0  0  0  0  0
   67.2106   55.1162   20.5418 C   0  0  0  0  0  0  0  0  0  0  0  0
   68.1332   56.2510   20.3908 C   0  0  0  0  0  0  0  0  0  0  0  0
   68.9151   56.3619   19.1105 C   0  0  0  0  0  0  0  0  0  0  0  0
   68.3411   55.6512   17.9754 C   0  0  0  0  0  0  0  0  0  0  0  0
   66.8217   55.5502   18.0660 C   0  0  0  0  0  0  0  0  0  0  0  0
   66.3855   54.9015   19.3460 C   0  0  0  0  0  0  0  0  0  0  0  0
   70.4321   54.2498   15.6628 C   0  0  0  0  0  0  0  0  0  0  0  0
   70.6681   56.3639   14.5975 C   0  0  0  0  0  0  0  0  0  0  0  0
   73.8521   60.8345   20.6202 C   0  0  1  0  0  0  0  0  0  0  0  0
   72.3934   61.1372   20.5933 C   0  0  0  0  0  0  0  0  0  0  0  0
   69.8511   59.8819   17.3262 C   0  0  0  0  0  0  0  0  0  0  0  0
   69.0754   59.3183   18.3047 C   0  0  0  0  0  0  0  0  0  0  0  0
   68.7735   59.9721   19.4896 C   0  0  0  0  0  0  0  0  0  0  0  0
   69.2641   61.2355   19.7065 C   0  0  0  0  0  0  0  0  0  0  0  0
   70.0478   61.8234   18.7354 C   0  0  0  0  0  0  0  0  0  0  0  0
   70.3474   61.1723   17.5566 C   0  0  0  0  0  0  0  0  0  0  0  0
   66.9486   52.6827   20.8069 C   0  0  0  0  0  0  0  0  0  0  0  0
   71.2833   55.0912   13.4099 C   0  0  0  0  0  0  0  0  0  0  0  0
   71.6877   53.5542   15.3333 C   0  0  2  0  0  0  0  0  0  0  0  0
   71.9212   53.8047   13.8172 C   0  0  0  0  0  0  0  0  0  0  0  0
   71.7318   52.0693   15.4930 C   0  0  0  0  0  0  0  0  0  0  0  0
   67.8284   53.8737   21.1485 C   0  0  2  0  0  0  0  0  0  0  0  0
   70.3711   55.6586   15.8380 N   0  0  0  0  0  0  0  0  0  0  0  0
   72.5270   58.8228   16.5498 N   0  0  0  0  0  0  0  0  0  0  0  0
   68.7608   57.7084   16.3524 O   0  0  0  0  0  0  0  0  0  0  0  0
   67.7614   55.7965   15.3315 O   0  0  0  0  0  0  0  0  0  0  0  0
   71.3399   58.5617   13.7814 O   0  0  0  0  0  0  0  0  0  0  0  0
   71.8829   58.7980   18.7324 O   0  0  0  0  0  0  0  0  0  0  0  0
   73.6392   60.1530   18.2997 O   0  0  0  0  0  0  0  0  0  0  0  0
   75.6228   61.7903   19.4334 O   0  0  0  0  0  0  0  0  0  0  0  0
   73.5978   62.7547   19.4207 O   0  0  0  0  0  0  0  0  0  0  0  0
   68.0841   53.9456   22.4899 O   0  0  0  0  0  0  0  0  0  0  0  0
   68.8322   56.1583   16.3816 S   0  0  2  0  0  6  0  0  0  0  0  0
  1  2  1  0
 16  1  1  0
  1 35  1  6
  2  8  1  6
  2 32  1  0
 32  3  1  0
  3 36  2  0
  3 37  1  0
  4  5  1  0
  4 17  1  0
  4 37  1  6
  5 38  1  0
 17  6  1  0
  6 38  1  6
  6 39  1  0
 18  7  1  0
  7 39  1  0
  8 19  1  0
 10  9  1  0
 14  9  1  0
  9 30  1  0
 11 10  1  0
 12 11  1  0
 12 13  1  0
 41 12  1  0
 13 14  1  0
 15 27  1  0
 31 15  1  0
 31 16  1  0
 17 18  1  6
 19 20  2  0
 19 24  1  0
 20 21  1  0
 21 22  2  0
 23 22  1  0
 24 23  2  0
 30 25  1  1
 28 26  1  0
 27 28  1  0
 27 29  1  6
 30 40  1  0
 41 31  1  6
 41 33  2  0
 41 34  2  0
M  END
$$$$
