
     RDKit          3D

 41 44  0  0  0  0  0  0  0  0999 V2000
   72.0117   56.6667   15.8078 C   0  0  1  0  0  0  0  0  0  0  0  0
   72.7922   57.8503   16.3769 C   0  0  2  0  0  0  0  0  0  0  0  0
   72.5038   59.6722   18.0235 C   0  0  0  0  0  0  0  0  0  0  0  0
   72.3315   61.7269   19.2703 C   0  0  1  0  0  0  0  0  0  0  0  0
   71.1998   62.7651   19.2267 C   0  0  0  0  0  0  0  0  0  0  0  0
   71.1941   61.8914   21.3004 C   0  0  1  0  0  0  0  0  0  0  0  0
   71.7943   59.8229   21.9127 C   0  0  0  0  0  0  0  0  0  0  0  0
   74.1223   57.4226   16.8692 C   0  0  0  0  0  0  0  0  0  0  0  0
   69.3152   51.7881   13.6294 C   0  0  0  0  0  0  0  0  0  0  0  0
   69.4549   53.1211   13.0245 C   0  0  0  0  0  0  0  0  0  0  0  0
   69.1510   54.3212   13.8789 C   0  0  0  0  0  0  0  0  0  0  0  0
   69.2326   54.0907   15.3153 C   0  0  0  0  0  0  0  0  0  0  0  0
   70.2364   52.9976   15.6684 C   0  0  0  0  0  0  0  0  0  0  0  0
   69.9246   51.7111   14.9633 C   0  0  0  0  0  0  0  0  0  0  0  0
   69.2964   58.0675   16.4887 C   0  0  0  0  0  0  0  0  0  0  0  0
   70.8835   57.1308   14.9841 C   0  0  0  0  0  0  0  0  0  0  0  0
   72.5919   61.7017   20.7618 C   0  0  1  0  0  0  0  0  0  0  0  0
   73.0562   60.3816   21.2738 C   0  0  0  0  0  0  0  0  0  0  0  0
   75.0554   58.4496   17.2951 C   0  0  0  0  0  0  0  0  0  0  0  0
   75.5644   59.3601   16.4069 C   0  0  0  0  0  0  0  0  0  0  0  0
   76.4564   60.3531   16.7818 C   0  0  0  0  0  0  0  0  0  0  0  0
   76.8556   60.4413   18.0921 C   0  0  0  0  0  0  0  0  0  0  0  0
   76.3563   59.5353   19.0047 C   0  0  0  0  0  0  0  0  0  0  0  0
   75.4689   58.5474   18.6307 C   0  0  0  0  0  0  0  0  0  0  0  0
   67.9337   49.8391   14.2238 C   0  0  0  0  0  0  0  0  0  0  0  0
   67.4285   60.4120   18.1142 C   0  0  0  0  0  0  0  0  0  0  0  0
   68.0408   58.1515   17.2537 C   0  0  2  0  0  0  0  0  0  0  0  0
   68.2912   59.2181   18.3561 C   0  0  0  0  0  0  0  0  0  0  0  0
   67.5821   56.9339   17.9884 C   0  0  0  0  0  0  0  0  0  0  0  0
   67.9372   51.1738   13.4973 C   0  0  2  0  0  0  0  0  0  0  0  0
   69.5581   57.0086   15.5780 N   0  0  0  0  0  0  0  0  0  0  0  0
   72.0068   58.5397   17.3771 N   0  0  0  0  0  0  0  0  0  0  0  0
   70.7379   55.2415   17.1732 O   0  0  0  0  0  0  0  0  0  0  0  0
   68.3848   55.5266   17.4524 O   0  0  0  0  0  0  0  0  0  0  0  0
   72.9014   55.7908   15.2677 O   0  0  0  0  0  0  0  0  0  0  0  0
   73.7229   59.9464   17.8826 O   0  0  0  0  0  0  0  0  0  0  0  0
   71.7466   60.5231   18.8149 O   0  0  0  0  0  0  0  0  0  0  0  0
   70.4351   62.4908   20.3344 O   0  0  0  0  0  0  0  0  0  0  0  0
   70.7391   60.5760   21.4624 O   0  0  0  0  0  0  0  0  0  0  0  0
   67.4729   51.0541   12.2168 O   0  0  0  0  0  0  0  0  0  0  0  0
   69.4520   55.4844   16.3390 S   0  0  2  0  0  6  0  0  0  0  0  0
  1  2  1  0
 16  1  1  0
  1 35  1  6
  2  8  1  1
  2 32  1  0
 32  3  1  0
  3 36  2  0
  3 37  1  0
  4  5  1  0
  4 17  1  0
  4 37  1  1
  5 38  1  0
 17  6  1  0
  6 38  1  6
  6 39  1  0
 18  7  1  0
  7 39  1  0
  8 19  1  0
 10  9  1  0
 14  9  1  0
  9 30  1  0
 11 10  1  0
 12 11  1  0
 12 13  1  0
 41 12  1  0
 13 14  1  0
 15 27  1  0
 31 15  1  0
 31 16  1  0
 17 18  1  1
 19 20  2  0
 19 24  1  0
 20 21  1  0
 21 22  2  0
 23 22  1  0
 24 23  2  0
 30 25  1  6
 28 26  1  0
 27 28  1  0
 27 29  1  1
 30 40  1  0
 41 31  1  6
 41 33  2  0
 41 34  2  0
M  END
$$$$
