
     RDKit          3D

 41 44  0  0  0  0  0  0  0  0999 V2000
   71.2457   56.5840   15.0657 C   0  0  1  0  0  0  0  0  0  0  0  0
   71.1868   57.2903   16.4191 C   0  0  2  0  0  0  0  0  0  0  0  0
   72.7056   58.3892   18.0314 C   0  0  0  0  0  0  0  0  0  0  0  0
   74.3484   59.3586   19.5036 C   0  0  1  0  0  0  0  0  0  0  0  0
   75.7042   60.0314   19.2399 C   0  0  0  0  0  0  0  0  0  0  0  0
   74.2831   61.6637   19.8561 C   0  0  1  0  0  0  0  0  0  0  0  0
   72.0711   61.7480   19.5190 C   0  0  0  0  0  0  0  0  0  0  0  0
   70.2027   58.3974   16.3985 C   0  0  0  0  0  0  0  0  0  0  0  0
   67.2893   52.3885   14.0331 C   0  0  0  0  0  0  0  0  0  0  0  0
   67.4449   53.7975   14.4236 C   0  0  0  0  0  0  0  0  0  0  0  0
   68.5839   54.1568   15.3380 C   0  0  0  0  0  0  0  0  0  0  0  0
   69.6871   53.2051   15.3502 C   0  0  0  0  0  0  0  0  0  0  0  0
   69.8314   52.4717   14.0204 C   0  0  0  0  0  0  0  0  0  0  0  0
   68.5616   51.7741   13.6325 C   0  0  0  0  0  0  0  0  0  0  0  0
   71.8821   54.0742   13.4165 C   0  0  0  0  0  0  0  0  0  0  0  0
   72.4859   55.8015   14.9371 C   0  0  0  0  0  0  0  0  0  0  0  0
   73.7379   60.3816   20.4383 C   0  0  1  0  0  0  0  0  0  0  0  0
   72.2544   60.4820   20.3414 C   0  0  0  0  0  0  0  0  0  0  0  0
   69.6202   58.8169   17.6600 C   0  0  0  0  0  0  0  0  0  0  0  0
   69.8470   58.1166   18.8154 C   0  0  0  0  0  0  0  0  0  0  0  0
   69.3062   58.4912   20.0359 C   0  0  0  0  0  0  0  0  0  0  0  0
   68.5093   59.6065   20.1065 C   0  0  0  0  0  0  0  0  0  0  0  0
   68.2668   60.3278   18.9559 C   0  0  0  0  0  0  0  0  0  0  0  0
   68.8051   59.9542   17.7419 C   0  0  0  0  0  0  0  0  0  0  0  0
   66.4845   50.1132   14.5189 C   0  0  0  0  0  0  0  0  0  0  0  0
   72.7379   50.8742   11.6731 C   0  0  0  0  0  0  0  0  0  0  0  0
   72.6614   53.2280   12.4970 C   0  0  2  0  0  0  0  0  0  0  0  0
   72.0497   51.8041   12.6163 C   0  0  0  0  0  0  0  0  0  0  0  0
   74.1192   53.0487   12.7711 C   0  0  0  0  0  0  0  0  0  0  0  0
   66.4234   51.5651   14.9635 C   0  0  2  0  0  0  0  0  0  0  0  0
   72.3253   54.3670   14.7344 N   0  0  0  0  0  0  0  0  0  0  0  0
   72.5095   57.7085   16.8291 N   0  0  0  0  0  0  0  0  0  0  0  0
   71.9027   52.6144   16.6862 O   0  0  0  0  0  0  0  0  0  0  0  0
   71.0645   54.8218   17.0344 O   0  0  0  0  0  0  0  0  0  0  0  0
   70.0536   55.9625   14.8582 O   0  0  0  0  0  0  0  0  0  0  0  0
   71.9322   58.1328   18.9892 O   0  0  0  0  0  0  0  0  0  0  0  0
   73.6978   59.3336   18.2488 O   0  0  0  0  0  0  0  0  0  0  0  0
   75.4139   61.3708   19.1462 O   0  0  0  0  0  0  0  0  0  0  0  0
   73.2842   62.0470   18.9513 O   0  0  0  0  0  0  0  0  0  0  0  0
   65.1337   51.9997   15.0962 O   0  0  0  0  0  0  0  0  0  0  0  0
   71.2348   53.7801   15.9092 S   0  0  2  0  0  6  0  0  0  0  0  0
  1  2  1  0
 16  1  1  0
  1 35  1  1
  2  8  1  6
  2 32  1  0
 32  3  1  0
  3 36  2  0
  3 37  1  0
  4  5  1  0
  4 17  1  0
  4 37  1  6
  5 38  1  0
 17  6  1  0
  6 38  1  6
  6 39  1  0
 18  7  1  0
  7 39  1  0
  8 19  1  0
 10  9  1  0
 14  9  1  0
  9 30  1  0
 11 10  1  0
 12 11  1  0
 12 13  1  0
 41 12  1  0
 13 14  1  0
 15 27  1  0
 31 15  1  0
 31 16  1  0
 17 18  1  6
 19 20  2  0
 19 24  1  0
 20 21  1  0
 21 22  2  0
 23 22  1  0
 24 23  2  0
 30 25  1  6
 28 26  1  0
 27 28  1  0
 27 29  1  1
 30 40  1  0
 41 31  1  6
 41 33  2  0
 41 34  2  0
M  END
$$$$
