
     RDKit          3D

 41 44  0  0  0  0  0  0  0  0999 V2000
   70.3094   57.5532   14.8810 C   0  0  1  0  0  0  0  0  0  0  0  0
   71.0860   57.5126   16.1959 C   0  0  2  0  0  0  0  0  0  0  0  0
   72.9119   58.8777   17.1531 C   0  0  0  0  0  0  0  0  0  0  0  0
   74.6497   60.0780   18.3131 C   0  0  1  0  0  0  0  0  0  0  0  0
   75.7151   61.0457   17.7753 C   0  0  0  0  0  0  0  0  0  0  0  0
   74.3103   62.2694   19.0373 C   0  0  1  0  0  0  0  0  0  0  0  0
   72.1262   61.9173   19.3829 C   0  0  0  0  0  0  0  0  0  0  0  0
   70.2268   57.0404   17.3064 C   0  0  0  0  0  0  0  0  0  0  0  0
   71.1495   50.8440   16.6386 C   0  0  0  0  0  0  0  0  0  0  0  0
   70.3754   51.9755   17.1701 C   0  0  0  0  0  0  0  0  0  0  0  0
   70.9230   53.3625   16.9726 C   0  0  0  0  0  0  0  0  0  0  0  0
   71.8742   53.4985   15.8772 C   0  0  0  0  0  0  0  0  0  0  0  0
   71.6144   52.4935   14.7592 C   0  0  0  0  0  0  0  0  0  0  0  0
   71.6240   51.0832   15.2696 C   0  0  0  0  0  0  0  0  0  0  0  0
   69.9974   54.8532   13.7618 C   0  0  0  0  0  0  0  0  0  0  0  0
   71.0986   56.9619   13.7883 C   0  0  0  0  0  0  0  0  0  0  0  0
   74.2058   60.8489   19.5385 C   0  0  1  0  0  0  0  0  0  0  0  0
   72.7749   60.6423   19.8990 C   0  0  0  0  0  0  0  0  0  0  0  0
   70.8205   56.9192   18.6254 C   0  0  0  0  0  0  0  0  0  0  0  0
   72.1621   57.1153   18.8217 C   0  0  0  0  0  0  0  0  0  0  0  0
   72.7595   57.0078   20.0682 C   0  0  0  0  0  0  0  0  0  0  0  0
   71.9896   56.6931   21.1601 C   0  0  0  0  0  0  0  0  0  0  0  0
   70.6360   56.4911   20.9869 C   0  0  0  0  0  0  0  0  0  0  0  0
   70.0425   56.5981   19.7461 C   0  0  0  0  0  0  0  0  0  0  0  0
   71.4763   49.9792   18.9203 C   0  0  0  0  0  0  0  0  0  0  0  0
   68.9502   52.8486   11.5194 C   0  0  0  0  0  0  0  0  0  0  0  0
   69.0469   55.0669   12.6573 C   0  0  2  0  0  0  0  0  0  0  0  0
   68.2664   53.7309   12.5103 C   0  0  0  0  0  0  0  0  0  0  0  0
   69.6000   55.3453   11.2975 C   0  0  0  0  0  0  0  0  0  0  0  0
   72.1689   50.2672   17.5987 C   0  0  2  0  0  0  0  0  0  0  0  0
   71.2547   55.5129   13.8163 N   0  0  0  0  0  0  0  0  0  0  0  0
   71.7054   58.7935   16.4571 N   0  0  0  0  0  0  0  0  0  0  0  0
   73.6425   55.2469   14.9508 O   0  0  0  0  0  0  0  0  0  0  0  0
   71.9131   56.1741   16.3094 O   0  0  0  0  0  0  0  0  0  0  0  0
   69.0547   57.0818   15.1134 O   0  0  0  0  0  0  0  0  0  0  0  0
   73.3716   57.8272   17.6693 O   0  0  0  0  0  0  0  0  0  0  0  0
   73.6463   60.0428   17.3179 O   0  0  0  0  0  0  0  0  0  0  0  0
   75.1872   62.2957   17.9890 O   0  0  0  0  0  0  0  0  0  0  0  0
   73.0248   62.5220   18.5402 O   0  0  0  0  0  0  0  0  0  0  0  0
   73.2971   51.0202   17.7723 O   0  0  0  0  0  0  0  0  0  0  0  0
   72.1225   55.0961   15.2258 S   0  0  2  0  0  6  0  0  0  0  0  0
  1  2  1  0
 16  1  1  0
  1 35  1  1
  2  8  1  1
  2 32  1  0
 32  3  1  0
  3 36  2  0
  3 37  1  0
  4  5  1  0
  4 17  1  0
  4 37  1  6
  5 38  1  0
 17  6  1  0
  6 38  1  6
  6 39  1  0
 18  7  1  0
  7 39  1  0
  8 19  1  0
 10  9  1  0
 14  9  1  0
  9 30  1  0
 11 10  1  0
 12 11  1  0
 12 13  1  0
 41 12  1  0
 13 14  1  0
 15 27  1  0
 31 15  1  0
 31 16  1  0
 17 18  1  6
 19 20  2  0
 19 24  1  0
 20 21  1  0
 21 22  2  0
 23 22  1  0
 24 23  2  0
 30 25  1  1
 28 26  1  0
 27 28  1  0
 27 29  1  6
 30 40  1  0
 41 31  1  6
 41 33  2  0
 41 34  2  0
M  END
$$$$
