
     RDKit          3D

 41 44  0  0  0  0  0  0  0  0999 V2000
   71.2623   57.5906   14.8288 C   0  0  1  0  0  0  0  0  0  0  0  0
   71.2939   58.0412   16.2882 C   0  0  2  0  0  0  0  0  0  0  0  0
   72.9400   58.7840   17.9772 C   0  0  0  0  0  0  0  0  0  0  0  0
   74.6813   59.5181   19.4721 C   0  0  1  0  0  0  0  0  0  0  0  0
   76.0489   60.1815   19.2484 C   0  0  0  0  0  0  0  0  0  0  0  0
   74.6794   61.7794   20.0449 C   0  0  1  0  0  0  0  0  0  0  0  0
   72.4648   61.9471   19.7594 C   0  0  0  0  0  0  0  0  0  0  0  0
   70.4529   59.2437   16.4916 C   0  0  0  0  0  0  0  0  0  0  0  0
   67.4561   51.6442   13.4093 C   0  0  0  0  0  0  0  0  0  0  0  0
   67.6831   51.2500   14.8076 C   0  0  0  0  0  0  0  0  0  0  0  0
   68.6537   52.0602   15.6226 C   0  0  0  0  0  0  0  0  0  0  0  0
   68.8915   53.4115   15.1320 C   0  0  0  0  0  0  0  0  0  0  0  0
   67.6830   53.9785   14.3937 C   0  0  0  0  0  0  0  0  0  0  0  0
   67.2613   53.0921   13.2597 C   0  0  0  0  0  0  0  0  0  0  0  0
   72.0221   54.3993   15.5943 C   0  0  0  0  0  0  0  0  0  0  0  0
   70.7564   56.2128   14.7171 C   0  0  0  0  0  0  0  0  0  0  0  0
   74.1121   60.4603   20.5119 C   0  0  1  0  0  0  0  0  0  0  0  0
   72.6302   60.6039   20.4531 C   0  0  0  0  0  0  0  0  0  0  0  0
   69.8674   59.4538   17.8030 C   0  0  0  0  0  0  0  0  0  0  0  0
   69.8206   58.4463   18.7302 C   0  0  0  0  0  0  0  0  0  0  0  0
   69.2691   58.6148   19.9911 C   0  0  0  0  0  0  0  0  0  0  0  0
   68.7447   59.8342   20.3402 C   0  0  0  0  0  0  0  0  0  0  0  0
   68.7806   60.8639   19.4230 C   0  0  0  0  0  0  0  0  0  0  0  0
   69.3294   60.6953   18.1685 C   0  0  0  0  0  0  0  0  0  0  0  0
   69.7589   50.8491   13.0550 C   0  0  0  0  0  0  0  0  0  0  0  0
   73.7386   52.4049   15.5635 C   0  0  0  0  0  0  0  0  0  0  0  0
   72.4273   54.0500   14.2222 C   0  0  2  0  0  0  0  0  0  0  0  0
   72.9654   52.5940   14.3009 C   0  0  0  0  0  0  0  0  0  0  0  0
   73.5295   54.8380   13.5922 C   0  0  0  0  0  0  0  0  0  0  0  0
   68.3915   50.9977   12.4090 C   0  0  2  0  0  0  0  0  0  0  0  0
   70.9946   55.3434   15.8626 N   0  0  0  0  0  0  0  0  0  0  0  0
   72.6590   58.2161   16.7338 N   0  0  0  0  0  0  0  0  0  0  0  0
   69.6868   53.8470   17.6260 O   0  0  0  0  0  0  0  0  0  0  0  0
   68.4604   55.6328   16.6244 O   0  0  0  0  0  0  0  0  0  0  0  0
   70.6677   58.5691   14.0944 O   0  0  0  0  0  0  0  0  0  0  0  0
   72.1739   58.5144   18.9373 O   0  0  0  0  0  0  0  0  0  0  0  0
   74.0095   59.6291   18.2332 O   0  0  0  0  0  0  0  0  0  0  0  0
   75.7906   61.5301   19.2890 O   0  0  0  0  0  0  0  0  0  0  0  0
   73.6754   62.2711   19.2001 O   0  0  0  0  0  0  0  0  0  0  0  0
   68.4705   51.6239   11.1959 O   0  0  0  0  0  0  0  0  0  0  0  0
   69.5245   54.5751   16.2651 S   0  0  2  0  0  6  0  0  0  0  0  0
  1  2  1  0
 16  1  1  0
  1 35  1  6
  2  8  1  6
  2 32  1  0
 32  3  1  0
  3 36  2  0
  3 37  1  0
  4  5  1  0
  4 17  1  0
  4 37  1  6
  5 38  1  0
 17  6  1  0
  6 38  1  6
  6 39  1  0
 18  7  1  0
  7 39  1  0
  8 19  1  0
 10  9  1  0
 14  9  1  0
  9 30  1  0
 11 10  1  0
 12 11  1  0
 12 13  1  0
 41 12  1  0
 13 14  1  0
 15 27  1  0
 31 15  1  0
 31 16  1  0
 17 18  1  6
 19 20  2  0
 19 24  1  0
 20 21  1  0
 21 22  2  0
 23 22  1  0
 24 23  2  0
 30 25  1  1
 28 26  1  0
 27 28  1  0
 27 29  1  1
 30 40  1  0
 41 31  1  6
 41 33  2  0
 41 34  2  0
M  END
$$$$
