
     RDKit          3D

 41 44  0  0  0  0  0  0  0  0999 V2000
   71.7854   57.9115   15.1306 C   0  0  1  0  0  0  0  0  0  0  0  0
   71.8199   56.3851   15.1828 C   0  0  2  0  0  0  0  0  0  0  0  0
   69.8985   55.0171   14.4408 C   0  0  0  0  0  0  0  0  0  0  0  0
   68.0970   53.5009   13.9290 C   0  0  1  0  0  0  0  0  0  0  0  0
   66.8819   53.7038   13.0109 C   0  0  0  0  0  0  0  0  0  0  0  0
   68.1578   52.1179   12.0513 C   0  0  1  0  0  0  0  0  0  0  0  0
   70.3834   51.9012   12.1658 C   0  0  0  0  0  0  0  0  0  0  0  0
   73.2137   55.8837   15.1617 C   0  0  0  0  0  0  0  0  0  0  0  0
   68.7045   60.5394   22.1282 C   0  0  0  0  0  0  0  0  0  0  0  0
   67.8964   60.2502   20.9343 C   0  0  0  0  0  0  0  0  0  0  0  0
   68.6115   59.8181   19.6834 C   0  0  0  0  0  0  0  0  0  0  0  0
   69.9392   59.2569   19.8962 C   0  0  0  0  0  0  0  0  0  0  0  0
   70.0674   58.5771   21.2558 C   0  0  0  0  0  0  0  0  0  0  0  0
   69.7246   59.5127   22.3769 C   0  0  0  0  0  0  0  0  0  0  0  0
   72.7507   58.9098   17.3636 C   0  0  0  0  0  0  0  0  0  0  0  0
   70.7994   58.4458   16.0840 C   0  0  0  0  0  0  0  0  0  0  0  0
   68.4847   52.0939   13.5252 C   0  0  1  0  0  0  0  0  0  0  0  0
   69.9457   51.8171   13.6198 C   0  0  0  0  0  0  0  0  0  0  0  0
   73.4228   54.4516   15.0530 C   0  0  0  0  0  0  0  0  0  0  0  0
   73.4463   53.6503   16.1640 C   0  0  0  0  0  0  0  0  0  0  0  0
   73.6430   52.2796   16.0941 C   0  0  0  0  0  0  0  0  0  0  0  0
   73.8228   51.6858   14.8697 C   0  0  0  0  0  0  0  0  0  0  0  0
   73.8030   52.4725   13.7367 C   0  0  0  0  0  0  0  0  0  0  0  0
   73.6074   53.8363   13.8073 C   0  0  0  0  0  0  0  0  0  0  0  0
   70.2270   62.2254   21.1795 C   0  0  0  0  0  0  0  0  0  0  0  0
   75.9118   59.0401   17.1587 C   0  0  0  0  0  0  0  0  0  0  0  0
   73.6380   60.0673   17.1586 C   0  0  2  0  0  0  0  0  0  0  0  0
   74.9144   59.7712   17.9946 C   0  0  0  0  0  0  0  0  0  0  0  0
   73.1680   61.4056   17.6281 C   0  0  0  0  0  0  0  0  0  0  0  0
   69.1719   61.9753   22.2442 C   0  0  2  0  0  0  0  0  0  0  0  0
   71.3352   59.0229   17.3105 N   0  0  0  0  0  0  0  0  0  0  0  0
   70.9947   55.8246   14.1352 N   0  0  0  0  0  0  0  0  0  0  0  0
   69.4328   57.3532   18.1181 O   0  0  0  0  0  0  0  0  0  0  0  0
   71.5431   57.1792   19.2194 O   0  0  0  0  0  0  0  0  0  0  0  0
   73.0657   58.3678   15.1863 O   0  0  0  0  0  0  0  0  0  0  0  0
   69.6592   54.7783   15.6520 O   0  0  0  0  0  0  0  0  0  0  0  0
   69.0478   54.4553   13.5004 O   0  0  0  0  0  0  0  0  0  0  0  0
   67.2378   53.1039   11.8275 O   0  0  0  0  0  0  0  0  0  0  0  0
   69.3701   52.5085   11.4674 O   0  0  0  0  0  0  0  0  0  0  0  0
   69.6077   62.3477   23.4856 O   0  0  0  0  0  0  0  0  0  0  0  0
   70.5925   58.2451   18.6360 S   0  0  2  0  0  6  0  0  0  0  0  0
  1  2  1  0
 16  1  1  0
  1 35  1  1
  2  8  1  6
  2 32  1  0
 32  3  1  0
  3 36  2  0
  3 37  1  0
  4  5  1  0
  4 17  1  0
  4 37  1  6
  5 38  1  0
 17  6  1  0
  6 38  1  1
  6 39  1  0
 18  7  1  0
  7 39  1  0
  8 19  1  0
 10  9  1  0
 14  9  1  0
  9 30  1  0
 11 10  1  0
 12 11  1  0
 12 13  1  0
 41 12  1  0
 13 14  1  0
 15 27  1  0
 31 15  1  0
 31 16  1  0
 17 18  1  6
 19 20  2  0
 19 24  1  0
 20 21  1  0
 21 22  2  0
 23 22  1  0
 24 23  2  0
 30 25  1  6
 28 26  1  0
 27 28  1  0
 27 29  1  1
 30 40  1  0
 41 31  1  6
 41 33  2  0
 41 34  2  0
M  END
$$$$
