
     RDKit          3D

 41 44  0  0  0  0  0  0  0  0999 V2000
   71.4424   57.3527   15.0698 C   0  0  1  0  0  0  0  0  0  0  0  0
   71.1875   57.8618   16.4875 C   0  0  2  0  0  0  0  0  0  0  0  0
   73.0319   58.7255   17.8897 C   0  0  0  0  0  0  0  0  0  0  0  0
   74.7756   59.3855   19.4160 C   0  0  1  0  0  0  0  0  0  0  0  0
   76.1270   59.9935   19.0101 C   0  0  0  0  0  0  0  0  0  0  0  0
   75.0710   61.5419   20.2556 C   0  0  1  0  0  0  0  0  0  0  0  0
   72.8643   61.8751   20.4381 C   0  0  0  0  0  0  0  0  0  0  0  0
   69.7772   58.2829   16.6555 C   0  0  0  0  0  0  0  0  0  0  0  0
   67.9405   51.0459   13.2027 C   0  0  0  0  0  0  0  0  0  0  0  0
   68.7898   52.1301   12.6877 C   0  0  0  0  0  0  0  0  0  0  0  0
   69.0074   53.3347   13.5620 C   0  0  0  0  0  0  0  0  0  0  0  0
   68.7838   53.1113   14.9844 C   0  0  0  0  0  0  0  0  0  0  0  0
   69.0704   51.6700   15.3943 C   0  0  0  0  0  0  0  0  0  0  0  0
   68.2605   50.6951   14.5924 C   0  0  0  0  0  0  0  0  0  0  0  0
   71.8208   54.0612   14.9028 C   0  0  0  0  0  0  0  0  0  0  0  0
   70.6597   56.1352   14.8020 C   0  0  0  0  0  0  0  0  0  0  0  0
   74.4939   60.2057   20.6574 C   0  0  1  0  0  0  0  0  0  0  0  0
   73.0449   60.4413   20.9121 C   0  0  0  0  0  0  0  0  0  0  0  0
   69.3600   58.7685   17.9582 C   0  0  0  0  0  0  0  0  0  0  0  0
   69.2849   60.1099   18.2261 C   0  0  0  0  0  0  0  0  0  0  0  0
   68.8895   60.6057   19.4591 C   0  0  0  0  0  0  0  0  0  0  0  0
   68.5564   59.7304   20.4625 C   0  0  0  0  0  0  0  0  0  0  0  0
   68.6244   58.3749   20.2160 C   0  0  0  0  0  0  0  0  0  0  0  0
   69.0181   57.8824   18.9889 C   0  0  0  0  0  0  0  0  0  0  0  0
   65.6897   51.2126   14.1860 C   0  0  0  0  0  0  0  0  0  0  0  0
   72.9488   52.4961   13.0477 C   0  0  0  0  0  0  0  0  0  0  0  0
   73.2724   54.2716   14.7705 C   0  0  2  0  0  0  0  0  0  0  0  0
   73.8332   52.9578   14.1579 C   0  0  0  0  0  0  0  0  0  0  0  0
   74.0678   54.4898   16.0163 C   0  0  0  0  0  0  0  0  0  0  0  0
   66.4675   51.1877   12.8807 C   0  0  2  0  0  0  0  0  0  0  0  0
   70.9863   54.9675   15.6109 N   0  0  0  0  0  0  0  0  0  0  0  0
   72.1381   58.8964   16.8317 N   0  0  0  0  0  0  0  0  0  0  0  0
   69.7615   53.4629   17.4262 O   0  0  0  0  0  0  0  0  0  0  0  0
   68.5201   55.3053   16.5541 O   0  0  0  0  0  0  0  0  0  0  0  0
   71.3326   58.4045   14.2142 O   0  0  0  0  0  0  0  0  0  0  0  0
   73.0636   57.6063   18.4622 O   0  0  0  0  0  0  0  0  0  0  0  0
   73.8936   59.7059   18.3587 O   0  0  0  0  0  0  0  0  0  0  0  0
   75.9946   61.3360   19.2691 O   0  0  0  0  0  0  0  0  0  0  0  0
   73.9703   62.2031   19.6947 O   0  0  0  0  0  0  0  0  0  0  0  0
   65.9686   50.2566   12.0123 O   0  0  0  0  0  0  0  0  0  0  0  0
   69.5264   54.2289   16.0971 S   0  0  2  0  0  6  0  0  0  0  0  0
  1  2  1  0
 16  1  1  0
  1 35  1  6
  2  8  1  6
  2 32  1  0
 32  3  1  0
  3 36  2  0
  3 37  1  0
  4  5  1  0
  4 17  1  0
  4 37  1  6
  5 38  1  0
 17  6  1  0
  6 38  1  6
  6 39  1  0
 18  7  1  0
  7 39  1  0
  8 19  1  0
 10  9  1  0
 14  9  1  0
  9 30  1  0
 11 10  1  0
 12 11  1  0
 12 13  1  0
 41 12  1  0
 13 14  1  0
 15 27  1  0
 31 15  1  0
 31 16  1  0
 17 18  1  6
 19 20  2  0
 19 24  1  0
 20 21  1  0
 21 22  2  0
 23 22  1  0
 24 23  2  0
 30 25  1  1
 28 26  1  0
 27 28  1  0
 27 29  1  1
 30 40  1  0
 41 31  1  6
 41 33  2  0
 41 34  2  0
M  END
$$$$
