
     RDKit          3D

 41 44  0  0  0  0  0  0  0  0999 V2000
   71.1547   56.7658   15.3640 C   0  0  1  0  0  0  0  0  0  0  0  0
   71.0985   57.7109   16.5629 C   0  0  2  0  0  0  0  0  0  0  0  0
   72.2832   58.0230   18.7107 C   0  0  0  0  0  0  0  0  0  0  0  0
   73.4186   58.4773   20.7869 C   0  0  1  0  0  0  0  0  0  0  0  0
   74.8885   58.6629   21.1939 C   0  0  0  0  0  0  0  0  0  0  0  0
   73.9932   60.7226   21.0530 C   0  0  1  0  0  0  0  0  0  0  0  0
   72.3386   61.4035   19.7067 C   0  0  0  0  0  0  0  0  0  0  0  0
   70.9095   59.1136   16.1257 C   0  0  0  0  0  0  0  0  0  0  0  0
   73.2826   50.2386   11.9772 C   0  0  0  0  0  0  0  0  0  0  0  0
   71.9148   50.7758   12.0270 C   0  0  0  0  0  0  0  0  0  0  0  0
   71.5026   51.5500   13.2491 C   0  0  0  0  0  0  0  0  0  0  0  0
   72.6028   52.1116   14.0220 C   0  0  0  0  0  0  0  0  0  0  0  0
   73.8151   52.4304   13.1526 C   0  0  0  0  0  0  0  0  0  0  0  0
   74.2874   51.2237   12.3975 C   0  0  0  0  0  0  0  0  0  0  0  0
   69.6872   53.5775   14.6377 C   0  0  0  0  0  0  0  0  0  0  0  0
   70.7230   55.4110   15.7446 C   0  0  0  0  0  0  0  0  0  0  0  0
   72.8460   59.7762   21.3144 C   0  0  1  0  0  0  0  0  0  0  0  0
   71.6940   60.2955   20.5249 C   0  0  0  0  0  0  0  0  0  0  0  0
   71.3431   60.1719   17.0195 C   0  0  0  0  0  0  0  0  0  0  0  0
   70.4675   60.7772   17.8819 C   0  0  0  0  0  0  0  0  0  0  0  0
   70.8500   61.7898   18.7483 C   0  0  0  0  0  0  0  0  0  0  0  0
   72.1553   62.2144   18.7549 C   0  0  0  0  0  0  0  0  0  0  0  0
   73.0553   61.6195   17.8953 C   0  0  0  0  0  0  0  0  0  0  0  0
   72.6737   60.6121   17.0334 C   0  0  0  0  0  0  0  0  0  0  0  0
   73.2046   48.9239   14.0572 C   0  0  0  0  0  0  0  0  0  0  0  0
   67.8707   52.9636   16.8706 C   0  0  0  0  0  0  0  0  0  0  0  0
   68.3336   54.1512   14.7257 C   0  0  2  0  0  0  0  0  0  0  0  0
   68.0417   54.3077   16.2442 C   0  0  0  0  0  0  0  0  0  0  0  0
   67.1930   53.3474   14.1916 C   0  0  0  0  0  0  0  0  0  0  0  0
   73.4388   48.8485   12.5576 C   0  0  2  0  0  0  0  0  0  0  0  0
   70.8563   54.3806   14.7223 N   0  0  0  0  0  0  0  0  0  0  0  0
   72.2589   57.5264   17.4068 N   0  0  0  0  0  0  0  0  0  0  0  0
   73.4851   54.3666   15.1077 O   0  0  0  0  0  0  0  0  0  0  0  0
   72.1872   52.9822   16.5551 O   0  0  0  0  0  0  0  0  0  0  0  0
   70.5460   57.3768   14.3121 O   0  0  0  0  0  0  0  0  0  0  0  0
   71.1940   58.1016   19.3342 O   0  0  0  0  0  0  0  0  0  0  0  0
   73.4284   58.4386   19.3737 O   0  0  0  0  0  0  0  0  0  0  0  0
   75.1458   59.9929   20.9660 O   0  0  0  0  0  0  0  0  0  0  0  0
   73.6979   61.2295   19.7805 O   0  0  0  0  0  0  0  0  0  0  0  0
   74.6174   48.2220   12.2605 O   0  0  0  0  0  0  0  0  0  0  0  0
   72.2370   53.4445   15.0841 S   0  0  2  0  0  6  0  0  0  0  0  0
  1  2  1  0
 16  1  1  0
  1 35  1  6
  2  8  1  6
  2 32  1  0
 32  3  1  0
  3 36  2  0
  3 37  1  0
  4  5  1  0
  4 17  1  0
  4 37  1  6
  5 38  1  0
 17  6  1  0
  6 38  1  6
  6 39  1  0
 18  7  1  0
  7 39  1  0
  8 19  1  0
 10  9  1  0
 14  9  1  0
  9 30  1  0
 11 10  1  0
 12 11  1  0
 12 13  1  0
 41 12  1  0
 13 14  1  0
 15 27  1  0
 31 15  1  0
 31 16  1  0
 17 18  1  6
 19 20  2  0
 19 24  1  0
 20 21  1  0
 21 22  2  0
 23 22  1  0
 24 23  2  0
 30 25  1  1
 28 26  1  0
 27 28  1  0
 27 29  1  1
 30 40  1  0
 41 31  1  6
 41 33  2  0
 41 34  2  0
M  END
$$$$
