
     RDKit          3D

 41 44  0  0  0  0  0  0  0  0999 V2000
   71.8599   57.6921   15.3483 C   0  0  1  0  0  0  0  0  0  0  0  0
   70.9201   57.8164   16.5463 C   0  0  2  0  0  0  0  0  0  0  0  0
   73.0666   58.0062   17.7588 C   0  0  0  0  0  0  0  0  0  0  0  0
   74.5667   59.1198   19.2806 C   0  0  1  0  0  0  0  0  0  0  0  0
   75.8763   59.8164   18.8804 C   0  0  0  0  0  0  0  0  0  0  0  0
   74.5419   61.4039   19.7538 C   0  0  1  0  0  0  0  0  0  0  0  0
   72.3047   61.4859   19.7058 C   0  0  0  0  0  0  0  0  0  0  0  0
   69.9832   58.9505   16.3716 C   0  0  0  0  0  0  0  0  0  0  0  0
   68.5477   50.7096   13.8247 C   0  0  0  0  0  0  0  0  0  0  0  0
   69.0977   51.4493   12.6791 C   0  0  0  0  0  0  0  0  0  0  0  0
   69.0251   52.9515   12.7059 C   0  0  0  0  0  0  0  0  0  0  0  0
   68.8828   53.5373   14.0325 C   0  0  0  0  0  0  0  0  0  0  0  0
   69.5200   52.6732   15.1163 C   0  0  0  0  0  0  0  0  0  0  0  0
   68.9631   51.2806   15.1124 C   0  0  0  0  0  0  0  0  0  0  0  0
   71.8056   54.7876   13.5303 C   0  0  0  0  0  0  0  0  0  0  0  0
   71.2048   56.9771   14.2409 C   0  0  0  0  0  0  0  0  0  0  0  0
   74.0782   60.0900   20.3356 C   0  0  1  0  0  0  0  0  0  0  0  0
   72.5943   60.1823   20.4336 C   0  0  0  0  0  0  0  0  0  0  0  0
   69.3093   59.4672   17.5487 C   0  0  0  0  0  0  0  0  0  0  0  0
   68.6516   58.6336   18.4145 C   0  0  0  0  0  0  0  0  0  0  0  0
   67.9991   59.0952   19.5474 C   0  0  0  0  0  0  0  0  0  0  0  0
   68.0029   60.4390   19.8273 C   0  0  0  0  0  0  0  0  0  0  0  0
   68.6588   61.2978   18.9699 C   0  0  0  0  0  0  0  0  0  0  0  0
   69.3077   60.8376   17.8427 C   0  0  0  0  0  0  0  0  0  0  0  0
   66.3362   51.5604   13.1568 C   0  0  0  0  0  0  0  0  0  0  0  0
   74.4245   55.2280   14.2666 C   0  0  0  0  0  0  0  0  0  0  0  0
   72.5588   53.5991   13.9651 C   0  0  2  0  0  0  0  0  0  0  0  0
   73.6603   54.1281   14.9255 C   0  0  0  0  0  0  0  0  0  0  0  0
   73.2927   52.8131   12.9277 C   0  0  0  0  0  0  0  0  0  0  0  0
   67.0806   50.3537   13.7036 C   0  0  2  0  0  0  0  0  0  0  0  0
   71.0045   55.5453   14.4265 N   0  0  0  0  0  0  0  0  0  0  0  0
   71.6766   57.8840   17.7774 N   0  0  0  0  0  0  0  0  0  0  0  0
   68.5594   55.7614   15.4434 O   0  0  0  0  0  0  0  0  0  0  0  0
   68.7662   56.0747   13.0865 O   0  0  0  0  0  0  0  0  0  0  0  0
   72.4061   58.9144   15.1078 O   0  0  0  0  0  0  0  0  0  0  0  0
   73.7429   57.0123   17.3901 O   0  0  0  0  0  0  0  0  0  0  0  0
   73.7613   59.1514   18.1192 O   0  0  0  0  0  0  0  0  0  0  0  0
   75.5735   61.1563   18.8918 O   0  0  0  0  0  0  0  0  0  0  0  0
   73.4348   61.8230   19.0040 O   0  0  0  0  0  0  0  0  0  0  0  0
   66.5005   49.8766   14.8463 O   0  0  0  0  0  0  0  0  0  0  0  0
   69.3437   55.2074   14.2242 S   0  0  2  0  0  6  0  0  0  0  0  0
  1  2  1  0
 16  1  1  0
  1 35  1  6
  2  8  1  6
  2 32  1  0
 32  3  1  0
  3 36  2  0
  3 37  1  0
  4  5  1  0
  4 17  1  0
  4 37  1  6
  5 38  1  0
 17  6  1  0
  6 38  1  6
  6 39  1  0
 18  7  1  0
  7 39  1  0
  8 19  1  0
 10  9  1  0
 14  9  1  0
  9 30  1  0
 11 10  1  0
 12 11  1  0
 12 13  1  0
 41 12  1  0
 13 14  1  0
 15 27  1  0
 31 15  1  0
 31 16  1  0
 17 18  1  6
 19 20  2  0
 19 24  1  0
 20 21  1  0
 21 22  2  0
 23 22  1  0
 24 23  2  0
 30 25  1  1
 28 26  1  0
 27 28  1  0
 27 29  1  6
 30 40  1  0
 41 31  1  1
 41 33  2  0
 41 34  2  0
M  END
$$$$
