
     RDKit          3D

 41 44  0  0  0  0  0  0  0  0999 V2000
   71.1164   57.4535   14.7645 C   0  0  1  0  0  0  0  0  0  0  0  0
   71.0434   57.6554   16.2770 C   0  0  2  0  0  0  0  0  0  0  0  0
   72.3081   58.7712   18.0852 C   0  0  0  0  0  0  0  0  0  0  0  0
   73.9739   59.4398   19.6926 C   0  0  1  0  0  0  0  0  0  0  0  0
   75.3767   59.9362   19.3099 C   0  0  0  0  0  0  0  0  0  0  0  0
   74.3761   61.6206   20.4168 C   0  0  1  0  0  0  0  0  0  0  0  0
   72.1904   62.1018   20.4854 C   0  0  0  0  0  0  0  0  0  0  0  0
   69.7164   58.1758   16.6805 C   0  0  0  0  0  0  0  0  0  0  0  0
   67.3605   51.2804   13.2427 C   0  0  0  0  0  0  0  0  0  0  0  0
   67.3793   51.1511   14.7073 C   0  0  0  0  0  0  0  0  0  0  0  0
   68.3026   52.0484   15.4851 C   0  0  0  0  0  0  0  0  0  0  0  0
   68.7073   53.2645   14.7921 C   0  0  0  0  0  0  0  0  0  0  0  0
   67.6495   53.7445   13.8032 C   0  0  0  0  0  0  0  0  0  0  0  0
   67.3026   52.6808   12.8043 C   0  0  0  0  0  0  0  0  0  0  0  0
   71.7632   53.9937   15.2916 C   0  0  0  0  0  0  0  0  0  0  0  0
   70.9177   56.0375   14.4151 C   0  0  0  0  0  0  0  0  0  0  0  0
   73.6982   60.3502   20.8709 C   0  0  1  0  0  0  0  0  0  0  0  0
   72.2587   60.6911   21.0495 C   0  0  0  0  0  0  0  0  0  0  0  0
   69.5593   58.6675   18.0371 C   0  0  0  0  0  0  0  0  0  0  0  0
   69.7782   59.9842   18.3457 C   0  0  0  0  0  0  0  0  0  0  0  0
   69.6361   60.4852   19.6306 C   0  0  0  0  0  0  0  0  0  0  0  0
   69.2612   59.6411   20.6459 C   0  0  0  0  0  0  0  0  0  0  0  0
   69.0351   58.3108   20.3592 C   0  0  0  0  0  0  0  0  0  0  0  0
   69.1770   57.8131   19.0803 C   0  0  0  0  0  0  0  0  0  0  0  0
   68.4577   49.0767   13.2519 C   0  0  0  0  0  0  0  0  0  0  0  0
   72.7604   51.5323   14.5582 C   0  0  0  0  0  0  0  0  0  0  0  0
   72.7710   54.0040   14.2178 C   0  0  2  0  0  0  0  0  0  0  0  0
   73.6382   52.7341   14.4434 C   0  0  0  0  0  0  0  0  0  0  0  0
   73.7443   55.1369   14.1776 C   0  0  0  0  0  0  0  0  0  0  0  0
   68.3582   50.4027   12.5163 C   0  0  2  0  0  0  0  0  0  0  0  0
   70.8974   55.0955   15.5272 N   0  0  0  0  0  0  0  0  0  0  0  0
   72.1427   58.4790   16.7307 N   0  0  0  0  0  0  0  0  0  0  0  0
   69.0979   54.1774   17.2530 O   0  0  0  0  0  0  0  0  0  0  0  0
   68.3345   55.7993   15.6773 O   0  0  0  0  0  0  0  0  0  0  0  0
   70.3298   58.3918   14.1719 O   0  0  0  0  0  0  0  0  0  0  0  0
   71.6448   58.1039   18.9195 O   0  0  0  0  0  0  0  0  0  0  0  0
   73.1563   59.7498   18.5818 O   0  0  0  0  0  0  0  0  0  0  0  0
   75.3220   61.2977   19.4843 O   0  0  0  0  0  0  0  0  0  0  0  0
   73.3433   62.3140   19.7720 O   0  0  0  0  0  0  0  0  0  0  0  0
   69.5891   50.9631   12.3150 O   0  0  0  0  0  0  0  0  0  0  0  0
   69.2856   54.5879   15.7682 S   0  0  2  0  0  6  0  0  0  0  0  0
  1  2  1  0
 16  1  1  0
  1 35  1  6
  2  8  1  6
  2 32  1  0
 32  3  1  0
  3 36  2  0
  3 37  1  0
  4  5  1  0
  4 17  1  0
  4 37  1  6
  5 38  1  0
 17  6  1  0
  6 38  1  6
  6 39  1  0
 18  7  1  0
  7 39  1  0
  8 19  1  0
 10  9  1  0
 14  9  1  0
  9 30  1  0
 11 10  1  0
 12 11  1  0
 12 13  1  0
 41 12  1  0
 13 14  1  0
 15 27  1  0
 31 15  1  0
 31 16  1  0
 17 18  1  6
 19 20  2  0
 19 24  1  0
 20 21  1  0
 21 22  2  0
 23 22  1  0
 24 23  2  0
 30 25  1  1
 28 26  1  0
 27 28  1  0
 27 29  1  1
 30 40  1  0
 41 31  1  1
 41 33  2  0
 41 34  2  0
M  END
$$$$
