
     RDKit          3D

 20 21  0  0  0  0  0  0  0  0999 V2000
  -23.6568   19.5422   20.4999 O   0  0  0  0  0  0  0  0  0  0  0  0
  -23.4413   19.5089   19.2660 C   0  0  0  0  0  0  0  0  0  0  0  0
  -23.6528   20.6665   18.5359 O   0  0  0  0  0  0  0  0  0  0  0  0
  -22.9779   18.2672   18.6322 C   0  0  0  0  0  0  0  0  0  0  0  0
  -22.2870   18.2735   17.4473 C   0  0  0  0  0  0  0  0  0  0  0  0
  -23.2533   17.0710   19.2590 C   0  0  0  0  0  0  0  0  0  0  0  0
  -22.8274   15.9061   18.6796 C   0  0  0  0  0  0  0  0  0  0  0  0
  -22.1225   15.9244   17.4691 C   0  0  0  0  0  0  0  0  0  0  0  0
  -21.8419   17.0943   16.8368 C   0  0  0  0  0  0  0  0  0  0  0  0
  -21.1107   17.1595   15.5751 C   0  0  0  0  0  0  0  0  0  0  0  0
  -21.7044   17.6915   14.4602 C   0  0  0  0  0  0  0  0  0  0  0  0
  -19.8294   16.6894   15.5013 N   0  0  0  0  0  0  0  0  0  0  0  0
  -19.1512   16.7452   14.3482 C   0  0  0  0  0  0  0  0  0  0  0  0
  -17.7717   16.2496   14.2302 C   0  0  0  0  0  0  0  0  0  0  0  0
  -17.1142   16.3672   13.1741 O   0  0  0  0  0  0  0  0  0  0  0  0
  -17.1795   15.6350   15.3151 O   0  0  0  0  0  0  0  0  0  0  0  0
  -19.7384   17.2779   13.2216 C   0  0  0  0  0  0  0  0  0  0  0  0
  -18.9882   17.3166   12.0300 O   0  0  0  0  0  0  0  0  0  0  0  0
  -21.0251   17.7662   13.2362 C   0  0  0  0  0  0  0  0  0  0  0  0
  -21.6138   18.2997   12.1088 O   0  0  0  0  0  0  0  0  0  0  0  0
  1  2  2  0
  2  3  1  0
  2  4  1  0
  4  5  2  0
  4  6  1  0
  5  9  1  0
  6  7  2  0
  7  8  1  0
  8  9  2  0
  9 10  1  0
 10 11  2  0
 10 12  1  0
 11 19  1  0
 12 13  2  0
 13 14  1  0
 13 17  1  0
 14 15  2  0
 14 16  1  0
 17 18  1  0
 17 19  2  0
 19 20  1  0
M  END
$$$$
