
     RDKit          3D

 20 21  0  0  0  0  0  0  0  0999 V2000
  -22.5678   18.1574   21.4989 O   0  0  0  0  0  0  0  0  0  0  0  0
  -21.7062   17.8800   20.6325 C   0  0  0  0  0  0  0  0  0  0  0  0
  -20.8769   16.7949   20.8620 O   0  0  0  0  0  0  0  0  0  0  0  0
  -21.5958   18.6954   19.4155 C   0  0  0  0  0  0  0  0  0  0  0  0
  -21.0838   18.1884   18.2484 C   0  0  0  0  0  0  0  0  0  0  0  0
  -22.0234   20.0049   19.4648 C   0  0  0  0  0  0  0  0  0  0  0  0
  -21.9264   20.7762   18.3381 C   0  0  0  0  0  0  0  0  0  0  0  0
  -21.4018   20.2479   17.1515 C   0  0  0  0  0  0  0  0  0  0  0  0
  -20.9753   18.9591   17.0842 C   0  0  0  0  0  0  0  0  0  0  0  0
  -20.4224   18.3681   15.8693 C   0  0  0  0  0  0  0  0  0  0  0  0
  -21.0198   18.5968   14.6572 C   0  0  0  0  0  0  0  0  0  0  0  0
  -19.3052   17.5834   15.9368 N   0  0  0  0  0  0  0  0  0  0  0  0
  -18.7913   17.0373   14.8276 C   0  0  0  0  0  0  0  0  0  0  0  0
  -17.5912   16.1880   14.8607 C   0  0  0  0  0  0  0  0  0  0  0  0
  -17.2179   15.5306   13.8657 O   0  0  0  0  0  0  0  0  0  0  0  0
  -16.8504   16.1102   16.0229 O   0  0  0  0  0  0  0  0  0  0  0  0
  -19.3838   17.2607   13.6042 C   0  0  0  0  0  0  0  0  0  0  0  0
  -18.8093   16.6664   12.4635 O   0  0  0  0  0  0  0  0  0  0  0  0
  -20.5097   18.0416   13.4753 C   0  0  0  0  0  0  0  0  0  0  0  0
  -21.1036   18.2658   12.2508 O   0  0  0  0  0  0  0  0  0  0  0  0
  1  2  2  0
  2  3  1  0
  2  4  1  0
  4  5  2  0
  4  6  1  0
  5  9  1  0
  6  7  2  0
  7  8  1  0
  8  9  2  0
  9 10  1  0
 10 11  2  0
 10 12  1  0
 11 19  1  0
 12 13  2  0
 13 14  1  0
 13 17  1  0
 14 15  2  0
 14 16  1  0
 17 18  1  0
 17 19  2  0
 19 20  1  0
M  END
$$$$
