
     RDKit          3D

 20 21  0  0  0  0  0  0  0  0999 V2000
  -21.9701   15.8456   20.7661 O   0  0  0  0  0  0  0  0  0  0  0  0
  -22.2269   17.0692   20.6614 C   0  0  0  0  0  0  0  0  0  0  0  0
  -22.1954   17.8186   21.8258 O   0  0  0  0  0  0  0  0  0  0  0  0
  -22.5386   17.6490   19.3743 C   0  0  0  0  0  0  0  0  0  0  0  0
  -21.7068   17.3656   18.2845 C   0  0  0  0  0  0  0  0  0  0  0  0
  -23.6404   18.4666   19.2352 C   0  0  0  0  0  0  0  0  0  0  0  0
  -23.9106   19.0002   18.0084 C   0  0  0  0  0  0  0  0  0  0  0  0
  -23.0876   18.7114   16.9600 C   0  0  0  0  0  0  0  0  0  0  0  0
  -21.9772   17.8977   17.0638 C   0  0  0  0  0  0  0  0  0  0  0  0
  -21.1541   17.6510   15.8644 C   0  0  0  0  0  0  0  0  0  0  0  0
  -21.5534   17.9674   14.5952 C   0  0  0  0  0  0  0  0  0  0  0  0
  -19.9429   17.0853   16.0051 N   0  0  0  0  0  0  0  0  0  0  0  0
  -19.0961   16.8072   14.9992 C   0  0  0  0  0  0  0  0  0  0  0  0
  -17.7946   16.1926   15.2142 C   0  0  0  0  0  0  0  0  0  0  0  0
  -17.0382   15.9774   14.2445 O   0  0  0  0  0  0  0  0  0  0  0  0
  -17.3866   15.8453   16.4738 O   0  0  0  0  0  0  0  0  0  0  0  0
  -19.5289   17.1410   13.7113 C   0  0  0  0  0  0  0  0  0  0  0  0
  -18.6937   16.8754   12.6378 O   0  0  0  0  0  0  0  0  0  0  0  0
  -20.7525   17.7218   13.4804 C   0  0  0  0  0  0  0  0  0  0  0  0
  -21.2239   18.0695   12.2268 O   0  0  0  0  0  0  0  0  0  0  0  0
  1  2  2  0
  2  3  1  0
  2  4  1  0
  4  5  2  0
  4  6  1  0
  5  9  1  0
  6  7  2  0
  7  8  1  0
  8  9  2  0
  9 10  1  0
 10 11  2  0
 10 12  1  0
 11 19  1  0
 12 13  2  0
 13 14  1  0
 13 17  1  0
 14 15  2  0
 14 16  1  0
 17 18  1  0
 17 19  2  0
 19 20  1  0
M  END
$$$$
