
     RDKit          3D

 20 21  0  0  0  0  0  0  0  0999 V2000
  -21.2043   19.9987   21.5901 O   0  0  0  0  0  0  0  0  0  0  0  0
  -21.0171   19.9013   20.3534 C   0  0  0  0  0  0  0  0  0  0  0  0
  -21.5508   20.9014   19.5576 O   0  0  0  0  0  0  0  0  0  0  0  0
  -20.2754   18.7876   19.8061 C   0  0  0  0  0  0  0  0  0  0  0  0
  -20.2148   18.6319   18.4161 C   0  0  0  0  0  0  0  0  0  0  0  0
  -19.6420   17.8997   20.6500 C   0  0  0  0  0  0  0  0  0  0  0  0
  -18.9490   16.8576   20.1055 C   0  0  0  0  0  0  0  0  0  0  0  0
  -18.9026   16.7243   18.7492 C   0  0  0  0  0  0  0  0  0  0  0  0
  -19.5244   17.5939   17.8756 C   0  0  0  0  0  0  0  0  0  0  0  0
  -19.4100   17.3563   16.4239 C   0  0  0  0  0  0  0  0  0  0  0  0
  -18.4751   16.5296   15.8645 C   0  0  0  0  0  0  0  0  0  0  0  0
  -20.2612   17.9764   15.5886 N   0  0  0  0  0  0  0  0  0  0  0  0
  -20.2655   17.8480   14.2509 C   0  0  0  0  0  0  0  0  0  0  0  0
  -21.2143   18.5467   13.3969 C   0  0  0  0  0  0  0  0  0  0  0  0
  -21.2180   18.3373   12.1660 O   0  0  0  0  0  0  0  0  0  0  0  0
  -22.1083   19.4362   13.9292 O   0  0  0  0  0  0  0  0  0  0  0  0
  -19.2990   16.9966   13.7045 C   0  0  0  0  0  0  0  0  0  0  0  0
  -19.2597   16.8285   12.3295 O   0  0  0  0  0  0  0  0  0  0  0  0
  -18.3916   16.3250   14.4877 C   0  0  0  0  0  0  0  0  0  0  0  0
  -17.4188   15.4736   13.9943 O   0  0  0  0  0  0  0  0  0  0  0  0
  1  2  2  0
  2  3  1  0
  2  4  1  0
  4  5  2  0
  4  6  1  0
  5  9  1  0
  6  7  2  0
  7  8  1  0
  8  9  2  0
  9 10  1  0
 10 11  2  0
 10 12  1  0
 11 19  1  0
 12 13  2  0
 13 14  1  0
 13 17  1  0
 14 15  2  0
 14 16  1  0
 17 18  1  0
 17 19  2  0
 19 20  1  0
M  END
$$$$
