
     RDKit          3D

 20 21  0  0  0  0  0  0  0  0999 V2000
  -23.6670   17.1090   20.6906 O   0  0  0  0  0  0  0  0  0  0  0  0
  -23.1248   17.8206   19.8109 C   0  0  0  0  0  0  0  0  0  0  0  0
  -22.2013   18.7578   20.2436 O   0  0  0  0  0  0  0  0  0  0  0  0
  -23.4637   17.6527   18.4156 C   0  0  0  0  0  0  0  0  0  0  0  0
  -22.4314   17.5586   17.4745 C   0  0  0  0  0  0  0  0  0  0  0  0
  -24.7862   17.5878   18.0303 C   0  0  0  0  0  0  0  0  0  0  0  0
  -25.0768   17.4290   16.7062 C   0  0  0  0  0  0  0  0  0  0  0  0
  -24.0563   17.3395   15.8061 C   0  0  0  0  0  0  0  0  0  0  0  0
  -22.7224   17.4005   16.1567 C   0  0  0  0  0  0  0  0  0  0  0  0
  -21.6975   17.2929   15.1008 C   0  0  0  0  0  0  0  0  0  0  0  0
  -21.8772   17.7476   13.8236 C   0  0  0  0  0  0  0  0  0  0  0  0
  -20.5161   16.7202   15.3893 N   0  0  0  0  0  0  0  0  0  0  0  0
  -19.5009   16.5599   14.5235 C   0  0  0  0  0  0  0  0  0  0  0  0
  -18.2424   15.9306   14.8952 C   0  0  0  0  0  0  0  0  0  0  0  0
  -18.0536   15.5604   16.0726 O   0  0  0  0  0  0  0  0  0  0  0  0
  -17.2570   15.7381   13.9649 O   0  0  0  0  0  0  0  0  0  0  0  0
  -19.7107   17.0336   13.2239 C   0  0  0  0  0  0  0  0  0  0  0  0
  -18.6954   16.8932   12.2913 O   0  0  0  0  0  0  0  0  0  0  0  0
  -20.8889   17.6315   12.8467 C   0  0  0  0  0  0  0  0  0  0  0  0
  -21.1430   18.1151   11.5753 O   0  0  0  0  0  0  0  0  0  0  0  0
  1  2  2  0
  2  3  1  0
  2  4  1  0
  4  5  2  0
  4  6  1  0
  5  9  1  0
  6  7  2  0
  7  8  1  0
  8  9  2  0
  9 10  1  0
 10 11  2  0
 10 12  1  0
 11 19  1  0
 12 13  2  0
 13 14  1  0
 13 17  1  0
 14 15  2  0
 14 16  1  0
 17 18  1  0
 17 19  2  0
 19 20  1  0
M  END
$$$$
