
     RDKit          3D

 20 21  0  0  0  0  0  0  0  0999 V2000
  -23.2263   15.8612   20.9041 O   0  0  0  0  0  0  0  0  0  0  0  0
  -22.1945   16.4118   20.4544 C   0  0  0  0  0  0  0  0  0  0  0  0
  -20.9870   16.1395   21.0754 O   0  0  0  0  0  0  0  0  0  0  0  0
  -22.2855   17.3168   19.3007 C   0  0  0  0  0  0  0  0  0  0  0  0
  -21.6252   17.0608   18.1260 C   0  0  0  0  0  0  0  0  0  0  0  0
  -23.0603   18.4506   19.4187 C   0  0  0  0  0  0  0  0  0  0  0  0
  -23.1541   19.3028   18.3515 C   0  0  0  0  0  0  0  0  0  0  0  0
  -22.4753   19.0313   17.1565 C   0  0  0  0  0  0  0  0  0  0  0  0
  -21.7069   17.9184   17.0220 C   0  0  0  0  0  0  0  0  0  0  0  0
  -20.9829   17.5968   15.7958 C   0  0  0  0  0  0  0  0  0  0  0  0
  -21.5245   17.9022   14.5745 C   0  0  0  0  0  0  0  0  0  0  0  0
  -19.7604   16.9889   15.8620 N   0  0  0  0  0  0  0  0  0  0  0  0
  -19.0894   16.6903   14.7425 C   0  0  0  0  0  0  0  0  0  0  0  0
  -17.7724   16.0367   14.7738 C   0  0  0  0  0  0  0  0  0  0  0  0
  -17.1312   15.7893   13.7302 O   0  0  0  0  0  0  0  0  0  0  0  0
  -17.2222   15.6833   15.9895 O   0  0  0  0  0  0  0  0  0  0  0  0
  -19.6245   16.9929   13.5098 C   0  0  0  0  0  0  0  0  0  0  0  0
  -18.8839   16.6608   12.3585 O   0  0  0  0  0  0  0  0  0  0  0  0
  -20.8507   17.6045   13.3817 C   0  0  0  0  0  0  0  0  0  0  0  0
  -21.3874   17.9078   12.1479 O   0  0  0  0  0  0  0  0  0  0  0  0
  1  2  2  0
  2  3  1  0
  2  4  1  0
  4  5  2  0
  4  6  1  0
  5  9  1  0
  6  7  2  0
  7  8  1  0
  8  9  2  0
  9 10  1  0
 10 11  2  0
 10 12  1  0
 11 19  1  0
 12 13  2  0
 13 14  1  0
 13 17  1  0
 14 15  2  0
 14 16  1  0
 17 18  1  0
 17 19  2  0
 19 20  1  0
M  END
$$$$
