
     RDKit          3D

 20 21  0  0  0  0  0  0  0  0999 V2000
  -17.2453   18.6840   20.8638 O   0  0  0  0  0  0  0  0  0  0  0  0
  -18.3284   18.1680   21.2251 C   0  0  0  0  0  0  0  0  0  0  0  0
  -18.4849   17.8515   22.5643 O   0  0  0  0  0  0  0  0  0  0  0  0
  -19.3886   17.9143   20.2402 C   0  0  0  0  0  0  0  0  0  0  0  0
  -19.1185   17.7938   18.9008 C   0  0  0  0  0  0  0  0  0  0  0  0
  -20.6856   17.7969   20.6915 C   0  0  0  0  0  0  0  0  0  0  0  0
  -21.6836   17.5605   19.7847 C   0  0  0  0  0  0  0  0  0  0  0  0
  -21.3963   17.4391   18.4190 C   0  0  0  0  0  0  0  0  0  0  0  0
  -20.1234   17.5520   17.9559 C   0  0  0  0  0  0  0  0  0  0  0  0
  -19.7793   17.4325   16.5423 C   0  0  0  0  0  0  0  0  0  0  0  0
  -18.7668   16.5976   16.1469 C   0  0  0  0  0  0  0  0  0  0  0  0
  -20.4668   18.1541   15.6070 N   0  0  0  0  0  0  0  0  0  0  0  0
  -20.1579   18.0506   14.3082 C   0  0  0  0  0  0  0  0  0  0  0  0
  -20.8748   18.8107   13.2734 C   0  0  0  0  0  0  0  0  0  0  0  0
  -20.6674   18.6279   12.0548 O   0  0  0  0  0  0  0  0  0  0  0  0
  -21.8063   19.7561   13.6530 O   0  0  0  0  0  0  0  0  0  0  0  0
  -19.1421   17.2145   13.8999 C   0  0  0  0  0  0  0  0  0  0  0  0
  -18.8512   17.1368   12.5238 O   0  0  0  0  0  0  0  0  0  0  0  0
  -18.4158   16.4641   14.7962 C   0  0  0  0  0  0  0  0  0  0  0  0
  -17.3986   15.6267   14.3883 O   0  0  0  0  0  0  0  0  0  0  0  0
  1  2  2  0
  2  3  1  0
  2  4  1  0
  4  5  2  0
  4  6  1  0
  5  9  1  0
  6  7  2  0
  7  8  1  0
  8  9  2  0
  9 10  1  0
 10 11  2  0
 10 12  1  0
 11 19  1  0
 12 13  2  0
 13 14  1  0
 13 17  1  0
 14 15  2  0
 14 16  1  0
 17 18  1  0
 17 19  2  0
 19 20  1  0
M  END
$$$$
