
     RDKit          3D

 20 21  0  0  0  0  0  0  0  0999 V2000
  -20.5545   19.0162   20.4555 O   0  0  0  0  0  0  0  0  0  0  0  0
  -21.7260   18.5717   20.4517 C   0  0  0  0  0  0  0  0  0  0  0  0
  -22.4233   18.5620   21.6482 O   0  0  0  0  0  0  0  0  0  0  0  0
  -22.3236   18.0800   19.2030 C   0  0  0  0  0  0  0  0  0  0  0  0
  -21.6051   18.0056   18.0369 C   0  0  0  0  0  0  0  0  0  0  0  0
  -23.6443   17.6862   19.2209 C   0  0  0  0  0  0  0  0  0  0  0  0
  -24.2140   17.2259   18.0643 C   0  0  0  0  0  0  0  0  0  0  0  0
  -23.4708   17.1542   16.8791 C   0  0  0  0  0  0  0  0  0  0  0  0
  -22.1674   17.5381   16.8426 C   0  0  0  0  0  0  0  0  0  0  0  0
  -21.3562   17.4801   15.6303 C   0  0  0  0  0  0  0  0  0  0  0  0
  -21.8224   18.0236   14.4617 C   0  0  0  0  0  0  0  0  0  0  0  0
  -20.1272   16.8826   15.6569 N   0  0  0  0  0  0  0  0  0  0  0  0
  -19.3765   16.8249   14.5497 C   0  0  0  0  0  0  0  0  0  0  0  0
  -18.0498   16.1905   14.5395 C   0  0  0  0  0  0  0  0  0  0  0  0
  -17.3271   16.1839   13.5201 O   0  0  0  0  0  0  0  0  0  0  0  0
  -17.5828   15.5824   15.6874 O   0  0  0  0  0  0  0  0  0  0  0  0
  -19.8353   17.3680   13.3698 C   0  0  0  0  0  0  0  0  0  0  0  0
  -19.0123   17.2846   12.2296 O   0  0  0  0  0  0  0  0  0  0  0  0
  -21.0641   17.9817   13.2833 C   0  0  0  0  0  0  0  0  0  0  0  0
  -21.5243   18.5257   12.1024 O   0  0  0  0  0  0  0  0  0  0  0  0
  1  2  2  0
  2  3  1  0
  2  4  1  0
  4  5  2  0
  4  6  1  0
  5  9  1  0
  6  7  2  0
  7  8  1  0
  8  9  2  0
  9 10  1  0
 10 11  2  0
 10 12  1  0
 11 19  1  0
 12 13  2  0
 13 14  1  0
 13 17  1  0
 14 15  2  0
 14 16  1  0
 17 18  1  0
 17 19  2  0
 19 20  1  0
M  END
$$$$
