
     RDKit          3D

 20 21  0  0  0  0  0  0  0  0999 V2000
  -24.0446   18.3126   19.2717 O   0  0  0  0  0  0  0  0  0  0  0  0
  -23.2029   17.7900   20.0387 C   0  0  0  0  0  0  0  0  0  0  0  0
  -23.4910   17.7505   21.3927 O   0  0  0  0  0  0  0  0  0  0  0  0
  -21.9528   17.2410   19.4964 C   0  0  0  0  0  0  0  0  0  0  0  0
  -21.6484   17.3161   18.1611 C   0  0  0  0  0  0  0  0  0  0  0  0
  -21.0720   16.6368   20.3675 C   0  0  0  0  0  0  0  0  0  0  0  0
  -19.9032   16.1208   19.8758 C   0  0  0  0  0  0  0  0  0  0  0  0
  -19.6026   16.2031   18.5101 C   0  0  0  0  0  0  0  0  0  0  0  0
  -20.4590   16.7953   17.6365 C   0  0  0  0  0  0  0  0  0  0  0  0
  -20.1859   16.9030   16.2065 C   0  0  0  0  0  0  0  0  0  0  0  0
  -19.1606   16.1883   15.6441 C   0  0  0  0  0  0  0  0  0  0  0  0
  -20.9533   17.7183   15.4225 N   0  0  0  0  0  0  0  0  0  0  0  0
  -20.7100   17.8231   14.1100 C   0  0  0  0  0  0  0  0  0  0  0  0
  -21.5137   18.6897   13.2349 C   0  0  0  0  0  0  0  0  0  0  0  0
  -21.3457   18.7186   11.9970 O   0  0  0  0  0  0  0  0  0  0  0  0
  -22.4846   19.4979   13.7914 O   0  0  0  0  0  0  0  0  0  0  0  0
  -19.6820   17.1093   13.5345 C   0  0  0  0  0  0  0  0  0  0  0  0
  -19.4619   17.2500   12.1503 O   0  0  0  0  0  0  0  0  0  0  0  0
  -18.8768   16.2731   14.2739 C   0  0  0  0  0  0  0  0  0  0  0  0
  -17.8472   15.5580   13.6986 O   0  0  0  0  0  0  0  0  0  0  0  0
  1  2  2  0
  2  3  1  0
  2  4  1  0
  4  5  2  0
  4  6  1  0
  5  9  1  0
  6  7  2  0
  7  8  1  0
  8  9  2  0
  9 10  1  0
 10 11  2  0
 10 12  1  0
 11 19  1  0
 12 13  2  0
 13 14  1  0
 13 17  1  0
 14 15  2  0
 14 16  1  0
 17 18  1  0
 17 19  2  0
 19 20  1  0
M  END
$$$$
