
     RDKit          3D

 20 21  0  0  0  0  0  0  0  0999 V2000
  -20.7506   20.0482   21.2239 O   0  0  0  0  0  0  0  0  0  0  0  0
  -21.2741   19.7861   20.1143 C   0  0  0  0  0  0  0  0  0  0  0  0
  -22.0600   20.7731   19.5427 O   0  0  0  0  0  0  0  0  0  0  0  0
  -21.0534   18.5061   19.4796 C   0  0  0  0  0  0  0  0  0  0  0  0
  -20.6526   18.4753   18.1385 C   0  0  0  0  0  0  0  0  0  0  0  0
  -21.2380   17.3412   20.1942 C   0  0  0  0  0  0  0  0  0  0  0  0
  -21.0224   16.1471   19.5695 C   0  0  0  0  0  0  0  0  0  0  0  0
  -20.6324   16.1394   18.2628 C   0  0  0  0  0  0  0  0  0  0  0  0
  -20.4383   17.2856   17.5180 C   0  0  0  0  0  0  0  0  0  0  0  0
  -20.0153   17.1630   16.1099 C   0  0  0  0  0  0  0  0  0  0  0  0
  -18.9283   16.4371   15.7074 C   0  0  0  0  0  0  0  0  0  0  0  0
  -20.7231   17.7911   15.1552 N   0  0  0  0  0  0  0  0  0  0  0  0
  -20.4470   17.7617   13.8403 C   0  0  0  0  0  0  0  0  0  0  0  0
  -21.2521   18.4637   12.8520 C   0  0  0  0  0  0  0  0  0  0  0  0
  -22.2319   19.1467   13.2163 O   0  0  0  0  0  0  0  0  0  0  0  0
  -20.9472   18.3845   11.5199 O   0  0  0  0  0  0  0  0  0  0  0  0
  -19.3301   17.0121   13.4557 C   0  0  0  0  0  0  0  0  0  0  0  0
  -19.0010   16.9486   12.1110 O   0  0  0  0  0  0  0  0  0  0  0  0
  -18.5531   16.3399   14.3680 C   0  0  0  0  0  0  0  0  0  0  0  0
  -17.4407   15.5868   14.0364 O   0  0  0  0  0  0  0  0  0  0  0  0
  1  2  2  0
  2  3  1  0
  2  4  1  0
  4  5  2  0
  4  6  1  0
  5  9  1  0
  6  7  2  0
  7  8  1  0
  8  9  2  0
  9 10  1  0
 10 11  2  0
 10 12  1  0
 11 19  1  0
 12 13  2  0
 13 14  1  0
 13 17  1  0
 14 15  2  0
 14 16  1  0
 17 18  1  0
 17 19  2  0
 19 20  1  0
M  END
$$$$
