
     RDKit          3D

 20 21  0  0  0  0  0  0  0  0999 V2000
  -22.0555   18.5452   21.5615 O   0  0  0  0  0  0  0  0  0  0  0  0
  -22.0788   18.5436   20.3087 C   0  0  0  0  0  0  0  0  0  0  0  0
  -22.6419   19.6333   19.6658 O   0  0  0  0  0  0  0  0  0  0  0  0
  -21.5194   17.4083   19.5628 C   0  0  0  0  0  0  0  0  0  0  0  0
  -21.1328   17.5234   18.2518 C   0  0  0  0  0  0  0  0  0  0  0  0
  -21.3859   16.2005   20.2135 C   0  0  0  0  0  0  0  0  0  0  0  0
  -20.8660   15.1341   19.5305 C   0  0  0  0  0  0  0  0  0  0  0  0
  -20.4745   15.2631   18.1917 C   0  0  0  0  0  0  0  0  0  0  0  0
  -20.5987   16.4461   17.5341 C   0  0  0  0  0  0  0  0  0  0  0  0
  -20.2036   16.6249   16.1401 C   0  0  0  0  0  0  0  0  0  0  0  0
  -19.0672   16.0256   15.6628 C   0  0  0  0  0  0  0  0  0  0  0  0
  -20.9670   17.3920   15.3052 N   0  0  0  0  0  0  0  0  0  0  0  0
  -20.6122   17.5614   14.0253 C   0  0  0  0  0  0  0  0  0  0  0  0
  -21.4079   18.3791   13.0974 C   0  0  0  0  0  0  0  0  0  0  0  0
  -21.1190   18.4754   11.8855 O   0  0  0  0  0  0  0  0  0  0  0  0
  -22.5083   19.0633   13.5732 O   0  0  0  0  0  0  0  0  0  0  0  0
  -19.4720   16.9637   13.5352 C   0  0  0  0  0  0  0  0  0  0  0  0
  -19.1368   17.1690   12.1825 O   0  0  0  0  0  0  0  0  0  0  0  0
  -18.6649   16.1808   14.3288 C   0  0  0  0  0  0  0  0  0  0  0  0
  -17.5231   15.5819   13.8390 O   0  0  0  0  0  0  0  0  0  0  0  0
  1  2  2  0
  2  3  1  0
  2  4  1  0
  4  5  2  0
  4  6  1  0
  5  9  1  0
  6  7  2  0
  7  8  1  0
  8  9  2  0
  9 10  1  0
 10 11  2  0
 10 12  1  0
 11 19  1  0
 12 13  2  0
 13 14  1  0
 13 17  1  0
 14 15  2  0
 14 16  1  0
 17 18  1  0
 17 19  2  0
 19 20  1  0
M  END
$$$$
