
     RDKit          3D

 20 21  0  0  0  0  0  0  0  0999 V2000
  -23.4101   21.2443   20.2181 O   0  0  0  0  0  0  0  0  0  0  0  0
  -23.3248   20.8107   19.0439 C   0  0  0  0  0  0  0  0  0  0  0  0
  -23.8239   21.6214   18.0380 O   0  0  0  0  0  0  0  0  0  0  0  0
  -22.7289   19.5209   18.7765 C   0  0  0  0  0  0  0  0  0  0  0  0
  -22.1544   19.2875   17.5213 C   0  0  0  0  0  0  0  0  0  0  0  0
  -22.7327   18.5445   19.7502 C   0  0  0  0  0  0  0  0  0  0  0  0
  -22.1631   17.3363   19.4700 C   0  0  0  0  0  0  0  0  0  0  0  0
  -21.6090   17.1297   18.2412 C   0  0  0  0  0  0  0  0  0  0  0  0
  -21.5877   18.0841   17.2439 C   0  0  0  0  0  0  0  0  0  0  0  0
  -20.9613   17.7549   15.9492 C   0  0  0  0  0  0  0  0  0  0  0  0
  -21.5164   18.0685   14.7393 C   0  0  0  0  0  0  0  0  0  0  0  0
  -19.7809   17.1121   15.9363 N   0  0  0  0  0  0  0  0  0  0  0  0
  -19.1056   16.7545   14.8307 C   0  0  0  0  0  0  0  0  0  0  0  0
  -17.8285   16.0584   14.8802 C   0  0  0  0  0  0  0  0  0  0  0  0
  -17.2331   15.7707   13.8211 O   0  0  0  0  0  0  0  0  0  0  0  0
  -17.2682   15.7130   16.0804 O   0  0  0  0  0  0  0  0  0  0  0  0
  -19.6954   17.0871   13.6065 C   0  0  0  0  0  0  0  0  0  0  0  0
  -19.0403   16.7411   12.4353 O   0  0  0  0  0  0  0  0  0  0  0  0
  -20.8999   17.7439   13.5314 C   0  0  0  0  0  0  0  0  0  0  0  0
  -21.5221   18.0937   12.3460 O   0  0  0  0  0  0  0  0  0  0  0  0
  1  2  2  0
  2  3  1  0
  2  4  1  0
  4  5  2  0
  4  6  1  0
  5  9  1  0
  6  7  2  0
  7  8  1  0
  8  9  2  0
  9 10  1  0
 10 11  2  0
 10 12  1  0
 11 19  1  0
 12 13  2  0
 13 14  1  0
 13 17  1  0
 14 15  2  0
 14 16  1  0
 17 18  1  0
 17 19  2  0
 19 20  1  0
M  END
$$$$
