
     RDKit          3D

 20 21  0  0  0  0  0  0  0  0999 V2000
  -20.8736   17.5419   21.3331 O   0  0  0  0  0  0  0  0  0  0  0  0
  -21.8854   18.0946   20.8385 C   0  0  0  0  0  0  0  0  0  0  0  0
  -23.0802   17.9431   21.5225 O   0  0  0  0  0  0  0  0  0  0  0  0
  -21.7857   18.8502   19.6100 C   0  0  0  0  0  0  0  0  0  0  0  0
  -21.2786   18.2206   18.4670 C   0  0  0  0  0  0  0  0  0  0  0  0
  -22.1868   20.1692   19.5773 C   0  0  0  0  0  0  0  0  0  0  0  0
  -22.0813   20.8581   18.4039 C   0  0  0  0  0  0  0  0  0  0  0  0
  -21.5848   20.2260   17.3023 C   0  0  0  0  0  0  0  0  0  0  0  0
  -21.1742   18.9079   17.2995 C   0  0  0  0  0  0  0  0  0  0  0  0
  -20.6518   18.3219   16.0503 C   0  0  0  0  0  0  0  0  0  0  0  0
  -21.2140   18.5355   14.8220 C   0  0  0  0  0  0  0  0  0  0  0  0
  -19.5651   17.5323   16.1004 N   0  0  0  0  0  0  0  0  0  0  0  0
  -18.9896   16.9382   15.0412 C   0  0  0  0  0  0  0  0  0  0  0  0
  -17.8113   16.0922   15.1583 C   0  0  0  0  0  0  0  0  0  0  0  0
  -17.3163   15.5669   14.1395 O   0  0  0  0  0  0  0  0  0  0  0  0
  -17.2350   15.8636   16.3787 O   0  0  0  0  0  0  0  0  0  0  0  0
  -19.5844   17.1731   13.7968 C   0  0  0  0  0  0  0  0  0  0  0  0
  -19.0303   16.5840   12.6715 O   0  0  0  0  0  0  0  0  0  0  0  0
  -20.6969   17.9674   13.6582 C   0  0  0  0  0  0  0  0  0  0  0  0
  -21.3198   18.2289   12.4506 O   0  0  0  0  0  0  0  0  0  0  0  0
  1  2  2  0
  2  3  1  0
  2  4  1  0
  4  5  2  0
  4  6  1  0
  5  9  1  0
  6  7  2  0
  7  8  1  0
  8  9  2  0
  9 10  1  0
 10 11  2  0
 10 12  1  0
 11 19  1  0
 12 13  2  0
 13 14  1  0
 13 17  1  0
 14 15  2  0
 14 16  1  0
 17 18  1  0
 17 19  2  0
 19 20  1  0
M  END
$$$$
