
     RDKit          3D

 20 21  0  0  0  0  0  0  0  0999 V2000
  -22.0554   20.3415   20.0007 O   0  0  0  0  0  0  0  0  0  0  0  0
  -21.5104   19.3696   20.5736 C   0  0  0  0  0  0  0  0  0  0  0  0
  -21.9821   19.0008   21.8224 O   0  0  0  0  0  0  0  0  0  0  0  0
  -20.4042   18.6557   19.9217 C   0  0  0  0  0  0  0  0  0  0  0  0
  -20.4071   18.3906   18.5759 C   0  0  0  0  0  0  0  0  0  0  0  0
  -19.3412   18.2479   20.6986 C   0  0  0  0  0  0  0  0  0  0  0  0
  -18.3036   17.5816   20.1042 C   0  0  0  0  0  0  0  0  0  0  0  0
  -18.3170   17.3162   18.7289 C   0  0  0  0  0  0  0  0  0  0  0  0
  -19.3566   17.7107   17.9472 C   0  0  0  0  0  0  0  0  0  0  0  0
  -19.4117   17.4553   16.5109 C   0  0  0  0  0  0  0  0  0  0  0  0
  -18.5586   16.5484   15.9382 C   0  0  0  0  0  0  0  0  0  0  0  0
  -20.3159   18.1209   15.7314 N   0  0  0  0  0  0  0  0  0  0  0  0
  -20.3735   17.8929   14.4133 C   0  0  0  0  0  0  0  0  0  0  0  0
  -21.3324   18.5895   13.5427 C   0  0  0  0  0  0  0  0  0  0  0  0
  -21.4281   18.3317   12.3237 O   0  0  0  0  0  0  0  0  0  0  0  0
  -22.1545   19.5584   14.0821 O   0  0  0  0  0  0  0  0  0  0  0  0
  -19.5206   16.9835   13.8274 C   0  0  0  0  0  0  0  0  0  0  0  0
  -19.6161   16.7751   12.4375 O   0  0  0  0  0  0  0  0  0  0  0  0
  -18.5902   16.2841   14.5618 C   0  0  0  0  0  0  0  0  0  0  0  0
  -17.7360   15.3734   13.9761 O   0  0  0  0  0  0  0  0  0  0  0  0
  1  2  2  0
  2  3  1  0
  2  4  1  0
  4  5  2  0
  4  6  1  0
  5  9  1  0
  6  7  2  0
  7  8  1  0
  8  9  2  0
  9 10  1  0
 10 11  2  0
 10 12  1  0
 11 19  1  0
 12 13  2  0
 13 14  1  0
 13 17  1  0
 14 15  2  0
 14 16  1  0
 17 18  1  0
 17 19  2  0
 19 20  1  0
M  END
$$$$
