
     RDKit          3D

 20 21  0  0  0  0  0  0  0  0999 V2000
  -24.8619   19.3027   20.1190 O   0  0  0  0  0  0  0  0  0  0  0  0
  -24.4727   18.9645   18.9753 C   0  0  0  0  0  0  0  0  0  0  0  0
  -25.4460   18.8068   18.0026 O   0  0  0  0  0  0  0  0  0  0  0  0
  -23.0676   18.7546   18.7074 C   0  0  0  0  0  0  0  0  0  0  0  0
  -22.6614   18.4833   17.3954 C   0  0  0  0  0  0  0  0  0  0  0  0
  -22.1519   18.8231   19.7362 C   0  0  0  0  0  0  0  0  0  0  0  0
  -20.8320   18.6207   19.4542 C   0  0  0  0  0  0  0  0  0  0  0  0
  -20.4576   18.3578   18.1695 C   0  0  0  0  0  0  0  0  0  0  0  0
  -21.3469   18.2820   17.1163 C   0  0  0  0  0  0  0  0  0  0  0  0
  -20.8340   17.9913   15.7638 C   0  0  0  0  0  0  0  0  0  0  0  0
  -21.4647   18.3836   14.6155 C   0  0  0  0  0  0  0  0  0  0  0  0
  -19.6859   17.3049   15.6312 N   0  0  0  0  0  0  0  0  0  0  0  0
  -19.1111   16.9749   14.4621 C   0  0  0  0  0  0  0  0  0  0  0  0
  -17.8643   16.2286   14.3819 C   0  0  0  0  0  0  0  0  0  0  0  0
  -17.3022   15.8385   15.4263 O   0  0  0  0  0  0  0  0  0  0  0  0
  -17.2964   15.9472   13.1686 O   0  0  0  0  0  0  0  0  0  0  0  0
  -19.7767   17.3882   13.3030 C   0  0  0  0  0  0  0  0  0  0  0  0
  -19.2266   17.0738   12.0705 O   0  0  0  0  0  0  0  0  0  0  0  0
  -20.9548   18.0937   13.3504 C   0  0  0  0  0  0  0  0  0  0  0  0
  -21.6490   18.5236   12.2332 O   0  0  0  0  0  0  0  0  0  0  0  0
  1  2  2  0
  2  3  1  0
  2  4  1  0
  4  5  2  0
  4  6  1  0
  5  9  1  0
  6  7  2  0
  7  8  1  0
  8  9  2  0
  9 10  1  0
 10 11  2  0
 10 12  1  0
 11 19  1  0
 12 13  2  0
 13 14  1  0
 13 17  1  0
 14 15  2  0
 14 16  1  0
 17 18  1  0
 17 19  2  0
 19 20  1  0
M  END
$$$$
