
     RDKit          3D

 20 21  0  0  0  0  0  0  0  0999 V2000
  -25.1621   17.7630   19.3814 O   0  0  0  0  0  0  0  0  0  0  0  0
  -24.6256   18.8947   19.4180 C   0  0  0  0  0  0  0  0  0  0  0  0
  -25.4138   19.9787   19.7668 O   0  0  0  0  0  0  0  0  0  0  0  0
  -23.2000   19.0452   19.0966 C   0  0  0  0  0  0  0  0  0  0  0  0
  -22.6756   18.6047   17.9081 C   0  0  0  0  0  0  0  0  0  0  0  0
  -22.3803   19.6479   20.0263 C   0  0  0  0  0  0  0  0  0  0  0  0
  -21.0497   19.7946   19.7399 C   0  0  0  0  0  0  0  0  0  0  0  0
  -20.5248   19.3411   18.5229 C   0  0  0  0  0  0  0  0  0  0  0  0
  -21.3180   18.7444   17.5943 C   0  0  0  0  0  0  0  0  0  0  0  0
  -20.8133   18.2573   16.3140 C   0  0  0  0  0  0  0  0  0  0  0  0
  -21.4490   18.5960   15.1480 C   0  0  0  0  0  0  0  0  0  0  0  0
  -19.7035   17.4606   16.2740 N   0  0  0  0  0  0  0  0  0  0  0  0
  -19.2337   17.0093   15.1042 C   0  0  0  0  0  0  0  0  0  0  0  0
  -18.0428   16.1505   15.0214 C   0  0  0  0  0  0  0  0  0  0  0  0
  -17.5930   15.7462   13.9279 O   0  0  0  0  0  0  0  0  0  0  0  0
  -17.3978   15.7760   16.1830 O   0  0  0  0  0  0  0  0  0  0  0  0
  -19.8648   17.3436   13.9263 C   0  0  0  0  0  0  0  0  0  0  0  0
  -19.3362   16.8466   12.7189 O   0  0  0  0  0  0  0  0  0  0  0  0
  -20.9856   18.1421   13.9052 C   0  0  0  0  0  0  0  0  0  0  0  0
  -21.6182   18.4773   12.7263 O   0  0  0  0  0  0  0  0  0  0  0  0
  1  2  2  0
  2  3  1  0
  2  4  1  0
  4  5  2  0
  4  6  1  0
  5  9  1  0
  6  7  2  0
  7  8  1  0
  8  9  2  0
  9 10  1  0
 10 11  2  0
 10 12  1  0
 11 19  1  0
 12 13  2  0
 13 14  1  0
 13 17  1  0
 14 15  2  0
 14 16  1  0
 17 18  1  0
 17 19  2  0
 19 20  1  0
M  END
$$$$
