
     RDKit          3D

 20 21  0  0  0  0  0  0  0  0999 V2000
  -21.5521   18.8375   21.5636 O   0  0  0  0  0  0  0  0  0  0  0  0
  -22.0276   18.5934   20.4303 C   0  0  0  0  0  0  0  0  0  0  0  0
  -23.0407   19.4114   19.9586 O   0  0  0  0  0  0  0  0  0  0  0  0
  -21.5109   17.4671   19.6413 C   0  0  0  0  0  0  0  0  0  0  0  0
  -21.1536   17.6092   18.3247 C   0  0  0  0  0  0  0  0  0  0  0  0
  -21.3878   16.2398   20.2566 C   0  0  0  0  0  0  0  0  0  0  0  0
  -20.9076   15.1815   19.5332 C   0  0  0  0  0  0  0  0  0  0  0  0
  -20.5458   15.3380   18.1890 C   0  0  0  0  0  0  0  0  0  0  0  0
  -20.6603   16.5405   17.5659 C   0  0  0  0  0  0  0  0  0  0  0  0
  -20.2952   16.7483   16.1679 C   0  0  0  0  0  0  0  0  0  0  0  0
  -19.1715   16.1563   15.6529 C   0  0  0  0  0  0  0  0  0  0  0  0
  -21.0742   17.5354   15.3666 N   0  0  0  0  0  0  0  0  0  0  0  0
  -20.7468   17.7314   14.0832 C   0  0  0  0  0  0  0  0  0  0  0  0
  -21.5599   18.5712   13.1907 C   0  0  0  0  0  0  0  0  0  0  0  0
  -21.2985   18.6911   11.9747 O   0  0  0  0  0  0  0  0  0  0  0  0
  -22.6460   19.2500   13.7056 O   0  0  0  0  0  0  0  0  0  0  0  0
  -19.6196   17.1412   13.5554 C   0  0  0  0  0  0  0  0  0  0  0  0
  -19.3133   17.3748   12.2004 O   0  0  0  0  0  0  0  0  0  0  0  0
  -18.7979   16.3392   14.3141 C   0  0  0  0  0  0  0  0  0  0  0  0
  -17.6691   15.7478   13.7866 O   0  0  0  0  0  0  0  0  0  0  0  0
  1  2  2  0
  2  3  1  0
  2  4  1  0
  4  5  2  0
  4  6  1  0
  5  9  1  0
  6  7  2  0
  7  8  1  0
  8  9  2  0
  9 10  1  0
 10 11  2  0
 10 12  1  0
 11 19  1  0
 12 13  2  0
 13 14  1  0
 13 17  1  0
 14 15  2  0
 14 16  1  0
 17 18  1  0
 17 19  2  0
 19 20  1  0
M  END
$$$$
