
     RDKit          3D

 20 21  0  0  0  0  0  0  0  0999 V2000
  -22.7319   17.8507   20.3010 O   0  0  0  0  0  0  0  0  0  0  0  0
  -21.7085   18.5244   20.5709 C   0  0  0  0  0  0  0  0  0  0  0  0
  -21.8362   19.4933   21.5523 O   0  0  0  0  0  0  0  0  0  0  0  0
  -20.4635   18.2832   19.8767 C   0  0  0  0  0  0  0  0  0  0  0  0
  -20.4941   18.0257   18.5009 C   0  0  0  0  0  0  0  0  0  0  0  0
  -19.2715   18.3092   20.5696 C   0  0  0  0  0  0  0  0  0  0  0  0
  -18.1116   18.0780   19.8886 C   0  0  0  0  0  0  0  0  0  0  0  0
  -18.1637   17.8292   18.5488 C   0  0  0  0  0  0  0  0  0  0  0  0
  -19.3384   17.7958   17.8243 C   0  0  0  0  0  0  0  0  0  0  0  0
  -19.2807   17.5169   16.3766 C   0  0  0  0  0  0  0  0  0  0  0  0
  -18.3996   16.6374   15.8106 C   0  0  0  0  0  0  0  0  0  0  0  0
  -20.1318   18.1514   15.5520 N   0  0  0  0  0  0  0  0  0  0  0  0
  -20.1844   17.9894   14.2189 C   0  0  0  0  0  0  0  0  0  0  0  0
  -21.1302   18.7061   13.3766 C   0  0  0  0  0  0  0  0  0  0  0  0
  -21.9548   19.4899   13.8911 O   0  0  0  0  0  0  0  0  0  0  0  0
  -21.1275   18.5309   12.0190 O   0  0  0  0  0  0  0  0  0  0  0  0
  -19.2724   17.0842   13.6656 C   0  0  0  0  0  0  0  0  0  0  0  0
  -19.2844   16.8798   12.2950 O   0  0  0  0  0  0  0  0  0  0  0  0
  -18.3691   16.3946   14.4378 C   0  0  0  0  0  0  0  0  0  0  0  0
  -17.4490   15.4904   13.9373 O   0  0  0  0  0  0  0  0  0  0  0  0
  1  2  2  0
  2  3  1  0
  2  4  1  0
  4  5  2  0
  4  6  1  0
  5  9  1  0
  6  7  2  0
  7  8  1  0
  8  9  2  0
  9 10  1  0
 10 11  2  0
 10 12  1  0
 11 19  1  0
 12 13  2  0
 13 14  1  0
 13 17  1  0
 14 15  2  0
 14 16  1  0
 17 18  1  0
 17 19  2  0
 19 20  1  0
M  END
$$$$
