
     RDKit          3D

 20 21  0  0  0  0  0  0  0  0999 V2000
  -21.9143   17.1537   21.7348 O   0  0  0  0  0  0  0  0  0  0  0  0
  -21.0485   17.2984   20.8407 C   0  0  0  0  0  0  0  0  0  0  0  0
  -20.0825   18.2744   21.0207 O   0  0  0  0  0  0  0  0  0  0  0  0
  -21.0755   16.4467   19.6440 C   0  0  0  0  0  0  0  0  0  0  0  0
  -20.7015   16.9182   18.4114 C   0  0  0  0  0  0  0  0  0  0  0  0
  -21.4908   15.1396   19.7811 C   0  0  0  0  0  0  0  0  0  0  0  0
  -21.5209   14.3347   18.6742 C   0  0  0  0  0  0  0  0  0  0  0  0
  -21.1367   14.8268   17.4202 C   0  0  0  0  0  0  0  0  0  0  0  0
  -20.7245   16.1127   17.2661 C   0  0  0  0  0  0  0  0  0  0  0  0
  -20.3156   16.6667   15.9788 C   0  0  0  0  0  0  0  0  0  0  0  0
  -20.3219   15.8806   14.8562 C   0  0  0  0  0  0  0  0  0  0  0  0
  -19.9244   17.9733   15.8890 N   0  0  0  0  0  0  0  0  0  0  0  0
  -19.5478   18.4896   14.7124 C   0  0  0  0  0  0  0  0  0  0  0  0
  -19.1208   19.8903   14.5766 C   0  0  0  0  0  0  0  0  0  0  0  0
  -18.7810   20.3749   13.4760 O   0  0  0  0  0  0  0  0  0  0  0  0
  -19.0923   20.6994   15.6946 O   0  0  0  0  0  0  0  0  0  0  0  0
  -19.5505   17.7084   13.5778 C   0  0  0  0  0  0  0  0  0  0  0  0
  -19.1466   18.2930   12.3614 O   0  0  0  0  0  0  0  0  0  0  0  0
  -19.9342   16.3871   13.6078 C   0  0  0  0  0  0  0  0  0  0  0  0
  -19.9371   15.6042   12.4723 O   0  0  0  0  0  0  0  0  0  0  0  0
  1  2  2  0
  2  3  1  0
  2  4  1  0
  4  5  2  0
  4  6  1  0
  5  9  1  0
  6  7  2  0
  7  8  1  0
  8  9  2  0
  9 10  1  0
 10 11  2  0
 10 12  1  0
 11 19  1  0
 12 13  2  0
 13 14  1  0
 13 17  1  0
 14 15  2  0
 14 16  1  0
 17 18  1  0
 17 19  2  0
 19 20  1  0
M  END
$$$$
