
     RDKit          3D

 20 21  0  0  0  0  0  0  0  0999 V2000
  -23.5003   16.5295   21.0140 O   0  0  0  0  0  0  0  0  0  0  0  0
  -22.5361   17.0959   20.4454 C   0  0  0  0  0  0  0  0  0  0  0  0
  -21.2965   16.9855   21.0535 O   0  0  0  0  0  0  0  0  0  0  0  0
  -22.7328   17.8250   19.2127 C   0  0  0  0  0  0  0  0  0  0  0  0
  -21.9671   17.4804   18.0924 C   0  0  0  0  0  0  0  0  0  0  0  0
  -23.6629   18.8415   19.1538 C   0  0  0  0  0  0  0  0  0  0  0  0
  -23.8275   19.5128   17.9769 C   0  0  0  0  0  0  0  0  0  0  0  0
  -23.0715   19.1612   16.8978 C   0  0  0  0  0  0  0  0  0  0  0  0
  -22.1322   18.1497   16.9215 C   0  0  0  0  0  0  0  0  0  0  0  0
  -21.3681   17.8515   15.6951 C   0  0  0  0  0  0  0  0  0  0  0  0
  -21.8206   18.1319   14.4353 C   0  0  0  0  0  0  0  0  0  0  0  0
  -20.1593   17.2728   15.7998 N   0  0  0  0  0  0  0  0  0  0  0  0
  -19.3631   16.9493   14.7666 C   0  0  0  0  0  0  0  0  0  0  0  0
  -18.0615   16.3229   14.9431 C   0  0  0  0  0  0  0  0  0  0  0  0
  -17.3447   16.0823   13.9494 O   0  0  0  0  0  0  0  0  0  0  0  0
  -17.6101   15.9919   16.1923 O   0  0  0  0  0  0  0  0  0  0  0  0
  -19.8498   17.2469   13.4891 C   0  0  0  0  0  0  0  0  0  0  0  0
  -19.0680   16.9338   12.3885 O   0  0  0  0  0  0  0  0  0  0  0  0
  -21.0747   17.8379   13.2944 C   0  0  0  0  0  0  0  0  0  0  0  0
  -21.5982   18.1511   12.0523 O   0  0  0  0  0  0  0  0  0  0  0  0
  1  2  2  0
  2  3  1  0
  2  4  1  0
  4  5  2  0
  4  6  1  0
  5  9  1  0
  6  7  2  0
  7  8  1  0
  8  9  2  0
  9 10  1  0
 10 11  2  0
 10 12  1  0
 11 19  1  0
 12 13  2  0
 13 14  1  0
 13 17  1  0
 14 15  2  0
 14 16  1  0
 17 18  1  0
 17 19  2  0
 19 20  1  0
M  END
$$$$
