
     RDKit          3D

 20 21  0  0  0  0  0  0  0  0999 V2000
  -19.4475   17.3548   11.8692 O   0  0  0  0  0  0  0  0  0  0  0  0
  -20.2882   17.7220   12.7226 C   0  0  0  0  0  0  0  0  0  0  0  0
  -21.2295   18.6655   12.3464 O   0  0  0  0  0  0  0  0  0  0  0  0
  -20.2585   17.1551   14.0776 C   0  0  0  0  0  0  0  0  0  0  0  0
  -21.1901   17.4953   15.0252 C   0  0  0  0  0  0  0  0  0  0  0  0
  -19.2598   16.2578   14.3892 C   0  0  0  0  0  0  0  0  0  0  0  0
  -19.2200   15.7217   15.6482 C   0  0  0  0  0  0  0  0  0  0  0  0
  -20.1767   16.0763   16.6080 C   0  0  0  0  0  0  0  0  0  0  0  0
  -21.1685   16.9595   16.3188 C   0  0  0  0  0  0  0  0  0  0  0  0
  -22.1853   17.3569   17.2880 C   0  0  0  0  0  0  0  0  0  0  0  0
  -21.8547   17.5174   18.6083 C   0  0  0  0  0  0  0  0  0  0  0  0
  -23.4726   17.5706   16.8809 N   0  0  0  0  0  0  0  0  0  0  0  0
  -24.4116   17.9353   17.7630 C   0  0  0  0  0  0  0  0  0  0  0  0
  -25.8064   18.1741   17.3627 C   0  0  0  0  0  0  0  0  0  0  0  0
  -26.6722   18.5587   18.1775 O   0  0  0  0  0  0  0  0  0  0  0  0
  -26.1769   17.9689   16.0489 O   0  0  0  0  0  0  0  0  0  0  0  0
  -24.0902   18.0994   19.0924 C   0  0  0  0  0  0  0  0  0  0  0  0
  -25.1096   18.4839   19.9853 O   0  0  0  0  0  0  0  0  0  0  0  0
  -22.8114   17.8983   19.5596 C   0  0  0  0  0  0  0  0  0  0  0  0
  -22.4886   18.0624   20.8905 O   0  0  0  0  0  0  0  0  0  0  0  0
  1  2  2  0
  2  3  1  0
  2  4  1  0
  4  5  2  0
  4  6  1  0
  5  9  1  0
  6  7  2  0
  7  8  1  0
  8  9  2  0
  9 10  1  0
 10 11  2  0
 10 12  1  0
 11 19  1  0
 12 13  2  0
 13 14  1  0
 13 17  1  0
 14 15  2  0
 14 16  1  0
 17 18  1  0
 17 19  2  0
 19 20  1  0
M  END
$$$$
