
     RDKit          3D

 20 21  0  0  0  0  0  0  0  0999 V2000
  -23.6718   18.3050   20.0051 O   0  0  0  0  0  0  0  0  0  0  0  0
  -23.4141   17.1239   20.3348 C   0  0  0  0  0  0  0  0  0  0  0  0
  -24.0839   16.5900   21.4230 O   0  0  0  0  0  0  0  0  0  0  0  0
  -22.4264   16.3457   19.5751 C   0  0  0  0  0  0  0  0  0  0  0  0
  -21.9618   16.7615   18.3533 C   0  0  0  0  0  0  0  0  0  0  0  0
  -21.9638   15.1671   20.1197 C   0  0  0  0  0  0  0  0  0  0  0  0
  -21.0432   14.4318   19.4227 C   0  0  0  0  0  0  0  0  0  0  0  0
  -20.5757   14.8660   18.1756 C   0  0  0  0  0  0  0  0  0  0  0  0
  -21.0205   16.0254   17.6231 C   0  0  0  0  0  0  0  0  0  0  0  0
  -20.5606   16.5151   16.3271 C   0  0  0  0  0  0  0  0  0  0  0  0
  -21.1297   16.0474   15.1713 C   0  0  0  0  0  0  0  0  0  0  0  0
  -19.5592   17.4432   16.2621 N   0  0  0  0  0  0  0  0  0  0  0  0
  -19.1312   17.8979   15.0777 C   0  0  0  0  0  0  0  0  0  0  0  0
  -18.0566   18.8958   14.9678 C   0  0  0  0  0  0  0  0  0  0  0  0
  -17.6923   19.3576   13.8653 O   0  0  0  0  0  0  0  0  0  0  0  0
  -17.4273   19.3400   16.1134 O   0  0  0  0  0  0  0  0  0  0  0  0
  -19.6961   17.4346   13.9099 C   0  0  0  0  0  0  0  0  0  0  0  0
  -19.2148   17.9404   12.6864 O   0  0  0  0  0  0  0  0  0  0  0  0
  -20.7071   16.5008   13.9138 C   0  0  0  0  0  0  0  0  0  0  0  0
  -21.2734   16.0363   12.7451 O   0  0  0  0  0  0  0  0  0  0  0  0
  1  2  2  0
  2  3  1  0
  2  4  1  0
  4  5  2  0
  4  6  1  0
  5  9  1  0
  6  7  2  0
  7  8  1  0
  8  9  2  0
  9 10  1  0
 10 11  2  0
 10 12  1  0
 11 19  1  0
 12 13  2  0
 13 14  1  0
 13 17  1  0
 14 15  2  0
 14 16  1  0
 17 18  1  0
 17 19  2  0
 19 20  1  0
M  END
$$$$
