
     RDKit          3D

 20 21  0  0  0  0  0  0  0  0999 V2000
  -23.2771   20.6501   20.5288 O   0  0  0  0  0  0  0  0  0  0  0  0
  -22.9712   20.5401   19.3171 C   0  0  0  0  0  0  0  0  0  0  0  0
  -22.8596   21.7133   18.5894 O   0  0  0  0  0  0  0  0  0  0  0  0
  -22.7500   19.2384   18.7283 C   0  0  0  0  0  0  0  0  0  0  0  0
  -22.0688   19.1539   17.5082 C   0  0  0  0  0  0  0  0  0  0  0  0
  -23.2076   18.1056   19.3680 C   0  0  0  0  0  0  0  0  0  0  0  0
  -22.9846   16.8900   18.7891 C   0  0  0  0  0  0  0  0  0  0  0  0
  -22.3189   16.8299   17.6003 C   0  0  0  0  0  0  0  0  0  0  0  0
  -21.8476   17.9429   16.9331 C   0  0  0  0  0  0  0  0  0  0  0  0
  -21.1394   17.7642   15.6511 C   0  0  0  0  0  0  0  0  0  0  0  0
  -21.6240   18.2075   14.4515 C   0  0  0  0  0  0  0  0  0  0  0  0
  -19.9521   17.1340   15.6399 N   0  0  0  0  0  0  0  0  0  0  0  0
  -19.2063   16.9062   14.5453 C   0  0  0  0  0  0  0  0  0  0  0  0
  -17.9257   16.2168   14.5961 C   0  0  0  0  0  0  0  0  0  0  0  0
  -17.2612   16.0568   13.5512 O   0  0  0  0  0  0  0  0  0  0  0  0
  -17.4373   15.7385   15.7820 O   0  0  0  0  0  0  0  0  0  0  0  0
  -19.7249   17.3699   13.3315 C   0  0  0  0  0  0  0  0  0  0  0  0
  -18.9954   17.1609   12.1719 O   0  0  0  0  0  0  0  0  0  0  0  0
  -20.9310   18.0236   13.2555 C   0  0  0  0  0  0  0  0  0  0  0  0
  -21.4844   18.4998   12.0801 O   0  0  0  0  0  0  0  0  0  0  0  0
  1  2  2  0
  2  3  1  0
  2  4  1  0
  4  5  2  0
  4  6  1  0
  5  9  1  0
  6  7  2  0
  7  8  1  0
  8  9  2  0
  9 10  1  0
 10 11  2  0
 10 12  1  0
 11 19  1  0
 12 13  2  0
 13 14  1  0
 13 17  1  0
 14 15  2  0
 14 16  1  0
 17 18  1  0
 17 19  2  0
 19 20  1  0
M  END
$$$$
