
     RDKit          3D

 20 21  0  0  0  0  0  0  0  0999 V2000
  -22.3746   18.1560   21.3855 O   0  0  0  0  0  0  0  0  0  0  0  0
  -22.2501   18.7604   20.2951 C   0  0  0  0  0  0  0  0  0  0  0  0
  -21.6748   20.0201   20.3100 O   0  0  0  0  0  0  0  0  0  0  0  0
  -22.7080   18.1327   19.0482 C   0  0  0  0  0  0  0  0  0  0  0  0
  -21.8938   18.0275   17.9493 C   0  0  0  0  0  0  0  0  0  0  0  0
  -23.9945   17.6408   18.9980 C   0  0  0  0  0  0  0  0  0  0  0  0
  -24.4344   17.0533   17.8424 C   0  0  0  0  0  0  0  0  0  0  0  0
  -23.5943   16.9513   16.7261 C   0  0  0  0  0  0  0  0  0  0  0  0
  -22.3228   17.4306   16.7573 C   0  0  0  0  0  0  0  0  0  0  0  0
  -21.4139   17.3455   15.6181 C   0  0  0  0  0  0  0  0  0  0  0  0
  -21.7880   17.8455   14.3982 C   0  0  0  0  0  0  0  0  0  0  0  0
  -20.1848   16.7658   15.7649 N   0  0  0  0  0  0  0  0  0  0  0  0
  -19.3448   16.6834   14.7254 C   0  0  0  0  0  0  0  0  0  0  0  0
  -18.0150   16.0670   14.8447 C   0  0  0  0  0  0  0  0  0  0  0  0
  -17.2238   16.0079   13.8793 O   0  0  0  0  0  0  0  0  0  0  0  0
  -17.6227   15.5359   16.0570 O   0  0  0  0  0  0  0  0  0  0  0  0
  -19.7107   17.1828   13.4948 C   0  0  0  0  0  0  0  0  0  0  0  0
  -18.7957   17.0746   12.4293 O   0  0  0  0  0  0  0  0  0  0  0  0
  -20.9348   17.7768   13.2879 C   0  0  0  0  0  0  0  0  0  0  0  0
  -21.3021   18.2771   12.0562 O   0  0  0  0  0  0  0  0  0  0  0  0
  1  2  2  0
  2  3  1  0
  2  4  1  0
  4  5  2  0
  4  6  1  0
  5  9  1  0
  6  7  2  0
  7  8  1  0
  8  9  2  0
  9 10  1  0
 10 11  2  0
 10 12  1  0
 11 19  1  0
 12 13  2  0
 13 14  1  0
 13 17  1  0
 14 15  2  0
 14 16  1  0
 17 18  1  0
 17 19  2  0
 19 20  1  0
M  END
$$$$
