
     RDKit          3D

 20 21  0  0  0  0  0  0  0  0999 V2000
  -24.0384   18.3638   21.0231 O   0  0  0  0  0  0  0  0  0  0  0  0
  -23.2290   18.4719   20.0707 C   0  0  0  0  0  0  0  0  0  0  0  0
  -22.0243   19.1002   20.3395 O   0  0  0  0  0  0  0  0  0  0  0  0
  -23.5595   17.9567   18.7609 C   0  0  0  0  0  0  0  0  0  0  0  0
  -22.5713   17.9430   17.7694 C   0  0  0  0  0  0  0  0  0  0  0  0
  -24.8314   17.4892   18.5048 C   0  0  0  0  0  0  0  0  0  0  0  0
  -25.1152   17.0086   17.2594 C   0  0  0  0  0  0  0  0  0  0  0  0
  -24.1381   17.0042   16.3080 C   0  0  0  0  0  0  0  0  0  0  0  0
  -22.8555   17.4641   16.5299 C   0  0  0  0  0  0  0  0  0  0  0  0
  -21.8747   17.4134   15.4288 C   0  0  0  0  0  0  0  0  0  0  0  0
  -22.1243   17.8901   14.1715 C   0  0  0  0  0  0  0  0  0  0  0  0
  -20.6643   16.8734   15.6529 N   0  0  0  0  0  0  0  0  0  0  0  0
  -19.6832   16.7656   14.7408 C   0  0  0  0  0  0  0  0  0  0  0  0
  -18.3905   16.1697   15.0433 C   0  0  0  0  0  0  0  0  0  0  0  0
  -18.1570   15.7342   16.1900 O   0  0  0  0  0  0  0  0  0  0  0  0
  -17.4212   16.0799   14.0810 O   0  0  0  0  0  0  0  0  0  0  0  0
  -19.9645   17.2608   13.4629 C   0  0  0  0  0  0  0  0  0  0  0  0
  -18.9869   17.1743   12.4845 O   0  0  0  0  0  0  0  0  0  0  0  0
  -21.1764   17.8280   13.1507 C   0  0  0  0  0  0  0  0  0  0  0  0
  -21.5009   18.3310   11.9031 O   0  0  0  0  0  0  0  0  0  0  0  0
  1  2  2  0
  2  3  1  0
  2  4  1  0
  4  5  2  0
  4  6  1  0
  5  9  1  0
  6  7  2  0
  7  8  1  0
  8  9  2  0
  9 10  1  0
 10 11  2  0
 10 12  1  0
 11 19  1  0
 12 13  2  0
 13 14  1  0
 13 17  1  0
 14 15  2  0
 14 16  1  0
 17 18  1  0
 17 19  2  0
 19 20  1  0
M  END
$$$$
