
     RDKit          3D

 20 21  0  0  0  0  0  0  0  0999 V2000
  -20.7214   16.1535   22.2881 O   0  0  0  0  0  0  0  0  0  0  0  0
  -20.3156   15.9704   21.1169 C   0  0  0  0  0  0  0  0  0  0  0  0
  -19.6993   14.7660   20.8214 O   0  0  0  0  0  0  0  0  0  0  0  0
  -20.4984   17.0166   20.1018 C   0  0  0  0  0  0  0  0  0  0  0  0
  -20.1560   16.8185   18.7884 C   0  0  0  0  0  0  0  0  0  0  0  0
  -21.0300   18.2253   20.4970 C   0  0  0  0  0  0  0  0  0  0  0  0
  -21.2058   19.2091   19.5615 C   0  0  0  0  0  0  0  0  0  0  0  0
  -20.8526   18.9958   18.2228 C   0  0  0  0  0  0  0  0  0  0  0  0
  -20.3272   17.8105   17.8150 C   0  0  0  0  0  0  0  0  0  0  0  0
  -19.9455   17.5454   16.4311 C   0  0  0  0  0  0  0  0  0  0  0  0
  -18.8638   16.7508   16.1539 C   0  0  0  0  0  0  0  0  0  0  0  0
  -20.6670   18.0898   15.4057 N   0  0  0  0  0  0  0  0  0  0  0  0
  -20.3240   17.8519   14.1334 C   0  0  0  0  0  0  0  0  0  0  0  0
  -21.0757   18.4198   13.0042 C   0  0  0  0  0  0  0  0  0  0  0  0
  -20.8091   18.1290   11.8185 O   0  0  0  0  0  0  0  0  0  0  0  0
  -22.1081   19.3012   13.2547 O   0  0  0  0  0  0  0  0  0  0  0  0
  -19.2386   17.0548   13.8435 C   0  0  0  0  0  0  0  0  0  0  0  0
  -18.9140   16.8314   12.4911 O   0  0  0  0  0  0  0  0  0  0  0  0
  -18.4755   16.4801   14.8343 C   0  0  0  0  0  0  0  0  0  0  0  0
  -17.3886   15.6818   14.5450 O   0  0  0  0  0  0  0  0  0  0  0  0
  1  2  2  0
  2  3  1  0
  2  4  1  0
  4  5  2  0
  4  6  1  0
  5  9  1  0
  6  7  2  0
  7  8  1  0
  8  9  2  0
  9 10  1  0
 10 11  2  0
 10 12  1  0
 11 19  1  0
 12 13  2  0
 13 14  1  0
 13 17  1  0
 14 15  2  0
 14 16  1  0
 17 18  1  0
 17 19  2  0
 19 20  1  0
M  END
$$$$
