
     RDKit          3D

 31 33  0  0  0  0  0  0  0  0999 V2000
   28.3014  -29.1469   34.6881 C   0  0  0  0  0  0  0  0  0  0  0  0
   29.9930  -27.6603   34.1177 C   0  0  0  0  0  0  0  0  0  0  0  0
   29.1488  -26.6008   34.3344 C   0  0  0  0  0  0  0  0  0  0  0  0
   27.8512  -26.8459   34.7381 C   0  0  0  0  0  0  0  0  0  0  0  0
   27.4459  -28.1274   34.9097 N   0  0  0  0  0  0  0  0  0  0  0  0
   30.6161  -33.0331   30.1838 O   0  0  0  0  0  0  0  0  0  0  0  0
   32.0661  -33.6560   32.4851 O   0  0  0  0  0  0  0  0  0  0  0  0
   31.9119  -33.8962   30.8041 P   0  0  2  0  0  5  0  0  0  0  0  0
   33.2157  -33.4784   30.1687 O   0  0  0  0  0  0  0  0  0  0  0  0
   31.6641  -35.5500   30.4877 O   0  0  0  0  0  0  0  0  0  0  0  0
   30.7307  -31.4078   30.6482 P   0  0  1  0  0  5  0  0  0  0  0  0
   30.9959  -30.5733   29.4373 O   0  0  0  0  0  0  0  0  0  0  0  0
   29.2564  -30.9163   31.3467 O   0  0  0  0  0  0  0  0  0  0  0  0
   31.9236  -31.1981   31.8354 O   0  0  0  0  0  0  0  0  0  0  0  0
   33.0452  -30.6001   31.2772 C   0  0  0  0  0  0  0  0  0  0  0  0
   33.3904  -29.3555   32.0528 C   0  0  1  0  0  0  0  0  0  0  0  0
   32.3844  -28.4367   32.1251 O   0  0  0  0  0  0  0  0  0  0  0  0
   32.3989  -27.8737   33.3943 C   0  0  2  0  0  0  0  0  0  0  0  0
   32.6409  -29.1217   34.2551 C   0  0  2  0  0  0  0  0  0  0  0  0
   32.9907  -28.7987   35.5413 O   0  0  0  0  0  0  0  0  0  0  0  0
   33.7998  -29.7215   33.4629 C   0  0  2  0  0  0  0  0  0  0  0  0
   34.9518  -28.9959   33.7497 O   0  0  0  0  0  0  0  0  0  0  0  0
   35.9614  -29.7409   34.8433 P   0  0  1  0  0  5  0  0  0  0  0  0
   35.8722  -28.9577   36.1574 O   0  0  0  0  0  0  0  0  0  0  0  0
   35.4642  -31.3167   35.1983 O   0  0  0  0  0  0  0  0  0  0  0  0
   37.5860  -29.6852   34.3737 O   0  0  0  0  0  0  0  0  0  0  0  0
   31.1953  -27.1992   33.7348 N   0  0  0  0  0  0  0  0  0  0  0  0
   31.0661  -25.8434   33.7229 C   0  0  0  0  0  0  0  0  0  0  0  0
   29.8435  -25.4831   34.0810 N   0  0  0  0  0  0  0  0  0  0  0  0
   27.0069  -25.7335   34.9528 N   0  0  0  0  0  0  0  0  0  0  0  0
   29.5836  -28.9415   34.2905 N   0  0  0  0  0  0  0  0  0  0  0  0
  1  5  2  0
 31  1  1  0
  2  3  1  0
 27  2  1  0
  2 31  2  0
  3  4  2  0
  3 29  1  0
  4  5  1  0
  4 30  1  0
  6  8  1  0
 11  6  1  0
  8  7  1  1
  8  9  2  0
  8 10  1  0
 11 12  2  0
 11 13  1  1
 14 11  1  0
 15 14  1  0
 16 15  1  1
 17 16  1  0
 16 21  1  0
 18 17  1  0
 18 19  1  0
 18 27  1  1
 19 20  1  1
 19 21  1  0
 21 22  1  1
 22 23  1  0
 23 24  2  0
 23 25  1  1
 23 26  1  0
 27 28  1  0
 28 29  2  0
M  END
$$$$
