
     RDKit          3D

 31 33  0  0  0  0  0  0  0  0999 V2000
   34.5781  -26.8431   32.1108 C   0  0  0  0  0  0  0  0  0  0  0  0
   32.4588  -27.8651   32.3512 C   0  0  0  0  0  0  0  0  0  0  0  0
   32.2810  -27.1342   33.5139 C   0  0  0  0  0  0  0  0  0  0  0  0
   33.2423  -26.2600   33.9793 C   0  0  0  0  0  0  0  0  0  0  0  0
   34.3654  -26.1521   33.2451 N   0  0  0  0  0  0  0  0  0  0  0  0
   26.0224  -32.7044   32.7402 O   0  0  0  0  0  0  0  0  0  0  0  0
   24.4301  -31.7028   34.7985 O   0  0  0  0  0  0  0  0  0  0  0  0
   25.9221  -32.3593   34.4092 P   0  0  2  0  0  5  0  0  0  0  0  0
   26.9802  -31.3311   34.7580 O   0  0  0  0  0  0  0  0  0  0  0  0
   26.2336  -33.7808   35.2345 O   0  0  0  0  0  0  0  0  0  0  0  0
   27.5901  -33.2452   32.3938 P   0  0  1  0  0  5  0  0  0  0  0  0
   28.3255  -33.3115   33.7279 O   0  0  0  0  0  0  0  0  0  0  0  0
   27.5349  -34.7887   31.6871 O   0  0  0  0  0  0  0  0  0  0  0  0
   28.3229  -32.1269   31.3872 O   0  0  0  0  0  0  0  0  0  0  0  0
   29.5343  -32.6354   30.9373 C   0  0  0  0  0  0  0  0  0  0  0  0
   30.3940  -31.4913   30.4215 C   0  0  1  0  0  0  0  0  0  0  0  0
   30.1629  -30.4017   31.2714 O   0  0  0  0  0  0  0  0  0  0  0  0
   31.2207  -29.5128   31.0217 C   0  0  2  0  0  0  0  0  0  0  0  0
   32.4313  -30.3625   30.7598 C   0  0  2  0  0  0  0  0  0  0  0  0
   33.0856  -30.0154   29.5772 O   0  0  0  0  0  0  0  0  0  0  0  0
   31.8586  -31.7560   30.6668 C   0  0  2  0  0  0  0  0  0  0  0  0
   32.3888  -32.4763   29.6140 O   0  0  0  0  0  0  0  0  0  0  0  0
   31.5487  -33.9213   29.3687 P   0  0  1  0  0  5  0  0  0  0  0  0
   32.1092  -34.6487   28.1462 O   0  0  0  0  0  0  0  0  0  0  0  0
   31.7374  -34.9021   30.7256 O   0  0  0  0  0  0  0  0  0  0  0  0
   29.9189  -33.5994   29.0389 O   0  0  0  0  0  0  0  0  0  0  0  0
   31.3619  -28.6358   32.1374 N   0  0  0  0  0  0  0  0  0  0  0  0
   30.5174  -28.3834   33.1560 C   0  0  0  0  0  0  0  0  0  0  0  0
   31.0764  -27.4799   33.9796 N   0  0  0  0  0  0  0  0  0  0  0  0
   33.0685  -25.4982   35.1822 N   0  0  0  0  0  0  0  0  0  0  0  0
   33.6166  -27.6855   31.6899 N   0  0  0  0  0  0  0  0  0  0  0  0
  1  5  2  0
 31  1  1  0
  2  3  1  0
 27  2  1  0
  2 31  2  0
  3  4  2  0
  3 29  1  0
  4  5  1  0
  4 30  1  0
  6  8  1  0
 11  6  1  0
  8  7  1  6
  8  9  2  0
  8 10  1  0
 11 12  2  0
 11 13  1  6
 14 11  1  0
 15 14  1  1
 16 15  1  0
 16 17  1  1
 16 21  1  0
 18 17  1  0
 18 19  1  0
 18 27  1  1
 19 20  1  6
 19 21  1  0
 21 22  1  6
 22 23  1  0
 23 24  2  0
 23 25  1  1
 23 26  1  0
 27 28  1  0
 28 29  2  0
M  END
$$$$
