
     RDKit          3D

 31 33  0  0  0  0  0  0  0  0999 V2000
   27.9149  -28.3101   35.5523 C   0  0  0  0  0  0  0  0  0  0  0  0
   29.5826  -27.2625   34.3202 C   0  0  0  0  0  0  0  0  0  0  0  0
   28.9087  -26.0704   34.4027 C   0  0  0  0  0  0  0  0  0  0  0  0
   27.7082  -26.0217   35.0832 C   0  0  0  0  0  0  0  0  0  0  0  0
   27.2273  -27.1537   35.6519 N   0  0  0  0  0  0  0  0  0  0  0  0
   30.6244  -32.6045   29.2826 O   0  0  0  0  0  0  0  0  0  0  0  0
   29.4457  -32.4453   31.8069 O   0  0  0  0  0  0  0  0  0  0  0  0
   29.8983  -33.4693   30.5210 P   0  0  2  0  0  5  0  0  0  0  0  0
   30.8248  -34.5183   31.0863 O   0  0  0  0  0  0  0  0  0  0  0  0
   28.5170  -34.2478   29.9024 O   0  0  0  0  0  0  0  0  0  0  0  0
   32.3082  -32.6356   29.4679 P   0  0  1  0  0  5  0  0  0  0  0  0
   32.7493  -34.0489   29.6699 O   0  0  0  0  0  0  0  0  0  0  0  0
   33.0415  -32.0234   28.0570 O   0  0  0  0  0  0  0  0  0  0  0  0
   32.7973  -31.6310   30.7438 O   0  0  0  0  0  0  0  0  0  0  0  0
   31.8495  -30.6386   30.9533 C   0  0  0  0  0  0  0  0  0  0  0  0
   32.4348  -29.5603   31.8277 C   0  0  1  0  0  0  0  0  0  0  0  0
   31.6577  -28.4453   31.9476 O   0  0  0  0  0  0  0  0  0  0  0  0
   31.7499  -27.9886   33.2557 C   0  0  2  0  0  0  0  0  0  0  0  0
   31.6742  -29.3152   34.0250 C   0  0  2  0  0  0  0  0  0  0  0  0
   32.0386  -29.1685   35.3390 O   0  0  0  0  0  0  0  0  0  0  0  0
   32.6986  -30.1052   33.2146 C   0  0  2  0  0  0  0  0  0  0  0  0
   33.9720  -29.6799   33.5797 O   0  0  0  0  0  0  0  0  0  0  0  0
   34.6821  -30.6162   34.7583 P   0  0  1  0  0  5  0  0  0  0  0  0
   34.1347  -32.0393   34.6053 O   0  0  0  0  0  0  0  0  0  0  0  0
   36.3565  -30.7305   34.5582 O   0  0  0  0  0  0  0  0  0  0  0  0
   34.2685  -30.1203   36.3222 O   0  0  0  0  0  0  0  0  0  0  0  0
   30.7156  -27.0849   33.6205 N   0  0  0  0  0  0  0  0  0  0  0  0
   30.7174  -25.7661   33.2803 C   0  0  0  0  0  0  0  0  0  0  0  0
   29.6382  -25.1573   33.7468 N   0  0  0  0  0  0  0  0  0  0  0  0
   27.0388  -24.7791   35.1501 N   0  0  0  0  0  0  0  0  0  0  0  0
   29.0980  -28.3933   34.8907 N   0  0  0  0  0  0  0  0  0  0  0  0
  1  5  2  0
 31  1  1  0
  2  3  1  0
 27  2  1  0
  2 31  2  0
  3  4  2  0
  3 29  1  0
  4  5  1  0
  4 30  1  0
  6  8  1  0
 11  6  1  0
  8  7  1  1
  8  9  2  0
  8 10  1  0
 11 12  2  0
 11 13  1  6
 14 11  1  0
 15 14  1  0
 16 15  1  6
 17 16  1  0
 16 21  1  0
 18 17  1  0
 18 19  1  0
 18 27  1  1
 19 20  1  1
 19 21  1  0
 21 22  1  1
 22 23  1  0
 23 24  2  0
 23 25  1  1
 23 26  1  0
 27 28  1  0
 28 29  2  0
M  END
$$$$
