
     RDKit          3D

 31 33  0  0  0  0  0  0  0  0999 V2000
   30.5367  -30.8077   29.4386 C   0  0  0  0  0  0  0  0  0  0  0  0
   30.6435  -29.9129   31.5798 C   0  0  0  0  0  0  0  0  0  0  0  0
   29.2743  -29.8432   31.6299 C   0  0  0  0  0  0  0  0  0  0  0  0
   28.5385  -30.2731   30.5434 C   0  0  0  0  0  0  0  0  0  0  0  0
   29.1888  -30.7527   29.4558 N   0  0  0  0  0  0  0  0  0  0  0  0
   35.0261  -28.9992   39.1819 O   0  0  0  0  0  0  0  0  0  0  0  0
   33.5587  -31.3727   39.1800 O   0  0  0  0  0  0  0  0  0  0  0  0
   33.5076  -29.6799   38.9827 P   0  0  2  0  0  5  0  0  0  0  0  0
   32.9489  -29.4042   37.6079 O   0  0  0  0  0  0  0  0  0  0  0  0
   32.4545  -29.0056   40.1372 O   0  0  0  0  0  0  0  0  0  0  0  0
   35.1514  -27.5877   38.2532 P   0  0  1  0  0  5  0  0  0  0  0  0
   34.1032  -26.6192   38.6964 O   0  0  0  0  0  0  0  0  0  0  0  0
   36.6869  -26.8895   38.4940 O   0  0  0  0  0  0  0  0  0  0  0  0
   35.0316  -27.9371   36.5980 O   0  0  0  0  0  0  0  0  0  0  0  0
   33.8564  -28.6319   36.3460 C   0  0  0  0  0  0  0  0  0  0  0  0
   33.8700  -29.1467   34.9302 C   0  0  1  0  0  0  0  0  0  0  0  0
   32.6829  -29.6695   34.5069 O   0  0  0  0  0  0  0  0  0  0  0  0
   32.4958  -29.3071   33.1796 C   0  0  2  0  0  0  0  0  0  0  0  0
   32.9560  -27.8429   33.2180 C   0  0  2  0  0  0  0  0  0  0  0  0
   33.1474  -27.3314   31.9600 O   0  0  0  0  0  0  0  0  0  0  0  0
   34.2645  -28.0371   33.9799 C   0  0  2  0  0  0  0  0  0  0  0  0
   35.2078  -28.5700   33.1069 O   0  0  0  0  0  0  0  0  0  0  0  0
   36.5746  -27.6349   32.9404 P   0  0  1  0  0  5  0  0  0  0  0  0
   36.1197  -26.2201   32.5668 O   0  0  0  0  0  0  0  0  0  0  0  0
   37.4270  -27.4887   34.3925 O   0  0  0  0  0  0  0  0  0  0  0  0
   37.5712  -28.1562   31.6763 O   0  0  0  0  0  0  0  0  0  0  0  0
   31.1545  -29.4475   32.7318 N   0  0  0  0  0  0  0  0  0  0  0  0
   30.0730  -29.0948   33.4807 C   0  0  0  0  0  0  0  0  0  0  0  0
   28.9476  -29.3304   32.8242 N   0  0  0  0  0  0  0  0  0  0  0  0
   27.1304  -30.1883   30.6263 N   0  0  0  0  0  0  0  0  0  0  0  0
   31.2909  -30.3935   30.4894 N   0  0  0  0  0  0  0  0  0  0  0  0
  1  5  2  0
 31  1  1  0
  2  3  1  0
 27  2  1  0
  2 31  2  0
  3  4  2  0
  3 29  1  0
  4  5  1  0
  4 30  1  0
  6  8  1  0
 11  6  1  0
  8  7  1  1
  8  9  2  0
  8 10  1  0
 11 12  2  0
 11 13  1  6
 14 11  1  0
 15 14  1  0
 16 15  1  1
 17 16  1  0
 16 21  1  0
 18 17  1  0
 18 19  1  0
 18 27  1  1
 19 20  1  6
 19 21  1  0
 21 22  1  6
 22 23  1  0
 23 24  2  0
 23 25  1  1
 23 26  1  0
 27 28  1  0
 28 29  2  0
M  END
$$$$
