
     RDKit          3D

 31 33  0  0  0  0  0  0  0  0999 V2000
   28.4884  -26.6702   34.6376 C   0  0  0  0  0  0  0  0  0  0  0  0
   30.6726  -26.7346   33.7327 C   0  0  0  0  0  0  0  0  0  0  0  0
   30.4814  -25.4401   33.2793 C   0  0  0  0  0  0  0  0  0  0  0  0
   29.3024  -24.7574   33.5000 C   0  0  0  0  0  0  0  0  0  0  0  0
   28.3437  -25.4135   34.1800 N   0  0  0  0  0  0  0  0  0  0  0  0
   29.3962  -32.8459   30.9192 O   0  0  0  0  0  0  0  0  0  0  0  0
   28.9762  -35.3974   29.8762 O   0  0  0  0  0  0  0  0  0  0  0  0
   28.9099  -33.7535   29.5575 P   0  0  2  0  0  5  0  0  0  0  0  0
   29.8664  -33.4692   28.4162 O   0  0  0  0  0  0  0  0  0  0  0  0
   27.3736  -33.2421   29.1369 O   0  0  0  0  0  0  0  0  0  0  0  0
   30.5128  -33.7600   31.8069 P   0  0  1  0  0  5  0  0  0  0  0  0
   29.7138  -34.4829   32.8857 O   0  0  0  0  0  0  0  0  0  0  0  0
   31.2775  -34.8922   30.7978 O   0  0  0  0  0  0  0  0  0  0  0  0
   31.6119  -32.7116   32.5095 O   0  0  0  0  0  0  0  0  0  0  0  0
   30.9431  -31.5886   32.9786 C   0  0  0  0  0  0  0  0  0  0  0  0
   31.9543  -30.6164   33.5672 C   0  0  1  0  0  0  0  0  0  0  0  0
   31.7814  -29.4009   32.8921 O   0  0  0  0  0  0  0  0  0  0  0  0
   32.4302  -28.4445   33.6896 C   0  0  2  0  0  0  0  0  0  0  0  0
   32.2021  -28.8606   35.1147 C   0  0  2  0  0  0  0  0  0  0  0  0
   33.3851  -28.9229   35.8521 O   0  0  0  0  0  0  0  0  0  0  0  0
   31.5830  -30.2303   34.9772 C   0  0  2  0  0  0  0  0  0  0  0  0
   32.1132  -31.1421   35.8693 O   0  0  0  0  0  0  0  0  0  0  0  0
   31.0864  -31.3847   37.1887 P   0  0  1  0  0  5  0  0  0  0  0  0
   30.2253  -32.6267   36.9573 O   0  0  0  0  0  0  0  0  0  0  0  0
   32.0183  -31.6127   38.5737 O   0  0  0  0  0  0  0  0  0  0  0  0
   30.0219  -30.0769   37.3471 O   0  0  0  0  0  0  0  0  0  0  0  0
   31.9139  -27.1527   33.3760 N   0  0  0  0  0  0  0  0  0  0  0  0
   32.4818  -26.1285   32.7106 C   0  0  0  0  0  0  0  0  0  0  0  0
   31.6150  -25.1024   32.6563 N   0  0  0  0  0  0  0  0  0  0  0  0
   29.0938  -23.4166   33.0349 N   0  0  0  0  0  0  0  0  0  0  0  0
   29.6530  -27.3023   34.4021 N   0  0  0  0  0  0  0  0  0  0  0  0
  1  5  2  0
 31  1  1  0
  2  3  1  0
 27  2  1  0
  2 31  2  0
  3  4  2  0
  3 29  1  0
  4  5  1  0
  4 30  1  0
  6  8  1  0
 11  6  1  0
  8  7  1  1
  8  9  2  0
  8 10  1  0
 11 12  2  0
 11 13  1  6
 14 11  1  0
 15 14  1  1
 16 15  1  0
 16 17  1  6
 16 21  1  0
 18 17  1  0
 18 19  1  0
 18 27  1  1
 19 20  1  1
 19 21  1  0
 21 22  1  1
 22 23  1  0
 23 24  2  0
 23 25  1  1
 23 26  1  0
 27 28  1  0
 28 29  2  0
M  END
$$$$
