
     RDKit          3D

 31 33  0  0  0  0  0  0  0  0999 V2000
   39.7667  -30.8408   34.4921 C   0  0  0  0  0  0  0  0  0  0  0  0
   37.7142  -29.8831   35.1735 C   0  0  0  0  0  0  0  0  0  0  0  0
   38.2919  -29.6147   36.4031 C   0  0  0  0  0  0  0  0  0  0  0  0
   39.5999  -29.9545   36.6836 C   0  0  0  0  0  0  0  0  0  0  0  0
   40.2894  -30.5619   35.6999 N   0  0  0  0  0  0  0  0  0  0  0  0
   32.6219  -24.8892   33.8130 O   0  0  0  0  0  0  0  0  0  0  0  0
   35.2437  -25.2526   34.6898 O   0  0  0  0  0  0  0  0  0  0  0  0
   33.9480  -24.1915   34.6310 P   0  0  2  0  0  5  0  0  0  0  0  0
   33.5361  -23.8917   36.0589 O   0  0  0  0  0  0  0  0  0  0  0  0
   34.3238  -22.7615   33.8482 O   0  0  0  0  0  0  0  0  0  0  0  0
   31.8216  -25.9370   34.8770 P   0  0  1  0  0  5  0  0  0  0  0  0
   31.9214  -25.3024   36.2598 O   0  0  0  0  0  0  0  0  0  0  0  0
   30.1906  -26.0935   34.4294 O   0  0  0  0  0  0  0  0  0  0  0  0
   32.6145  -27.4107   34.8611 O   0  0  0  0  0  0  0  0  0  0  0  0
   32.3630  -28.0567   33.6577 C   0  0  0  0  0  0  0  0  0  0  0  0
   33.5419  -28.9567   33.3197 C   0  0  1  0  0  0  0  0  0  0  0  0
   34.6194  -28.5153   34.0989 O   0  0  0  0  0  0  0  0  0  0  0  0
   35.5507  -29.5655   34.0630 C   0  0  2  0  0  0  0  0  0  0  0  0
   34.7508  -30.8369   34.0564 C   0  0  2  0  0  0  0  0  0  0  0  0
   35.1266  -31.7025   33.0285 O   0  0  0  0  0  0  0  0  0  0  0  0
   33.3357  -30.3508   33.8577 C   0  0  2  0  0  0  0  0  0  0  0  0
   32.6397  -31.1112   32.9381 O   0  0  0  0  0  0  0  0  0  0  0  0
   31.0753  -31.4531   33.4765 P   0  0  1  0  0  5  0  0  0  0  0  0
   30.0506  -30.8926   32.4899 O   0  0  0  0  0  0  0  0  0  0  0  0
   30.8834  -33.1239   33.5777 O   0  0  0  0  0  0  0  0  0  0  0  0
   30.7899  -30.6895   34.9611 O   0  0  0  0  0  0  0  0  0  0  0  0
   36.4301  -29.4430   35.1791 N   0  0  0  0  0  0  0  0  0  0  0  0
   36.2178  -28.9095   36.3976 C   0  0  0  0  0  0  0  0  0  0  0  0
   37.3413  -29.0162   37.1281 N   0  0  0  0  0  0  0  0  0  0  0  0
   40.2080  -29.6813   37.9537 N   0  0  0  0  0  0  0  0  0  0  0  0
   38.4878  -30.4935   34.2575 N   0  0  0  0  0  0  0  0  0  0  0  0
  1  5  2  0
 31  1  1  0
  2  3  1  0
 27  2  1  0
  2 31  2  0
  3  4  2  0
  3 29  1  0
  4  5  1  0
  4 30  1  0
  6  8  1  0
 11  6  1  0
  8  7  1  1
  8  9  2  0
  8 10  1  0
 11 12  2  0
 11 13  1  6
 14 11  1  0
 15 14  1  1
 16 15  1  0
 16 17  1  1
 16 21  1  0
 18 17  1  0
 18 19  1  0
 18 27  1  1
 19 20  1  6
 19 21  1  0
 21 22  1  6
 22 23  1  0
 23 24  2  0
 23 25  1  1
 23 26  1  0
 27 28  1  0
 28 29  2  0
M  END
$$$$
