
     RDKit          3D

 31 33  0  0  0  0  0  0  0  0999 V2000
   28.5875  -27.7564   34.9382 C   0  0  0  0  0  0  0  0  0  0  0  0
   30.5254  -27.3963   33.7087 C   0  0  0  0  0  0  0  0  0  0  0  0
   30.3448  -26.0396   33.8025 C   0  0  0  0  0  0  0  0  0  0  0  0
   29.2492  -25.5523   34.4873 C   0  0  0  0  0  0  0  0  0  0  0  0
   28.3809  -26.4278   35.0489 N   0  0  0  0  0  0  0  0  0  0  0  0
   28.9075  -33.9952   31.1716 O   0  0  0  0  0  0  0  0  0  0  0  0
   27.2659  -34.5761   28.9911 O   0  0  0  0  0  0  0  0  0  0  0  0
   28.3359  -33.4497   29.6935 P   0  0  2  0  0  5  0  0  0  0  0  0
   29.4588  -33.2229   28.7107 O   0  0  0  0  0  0  0  0  0  0  0  0
   27.5259  -31.9726   29.9361 O   0  0  0  0  0  0  0  0  0  0  0  0
   28.8210  -32.7507   32.3180 P   0  0  1  0  0  5  0  0  0  0  0  0
   27.3888  -32.3767   32.5227 O   0  0  0  0  0  0  0  0  0  0  0  0
   29.4658  -33.3007   33.7961 O   0  0  0  0  0  0  0  0  0  0  0  0
   29.7611  -31.4213   31.8434 O   0  0  0  0  0  0  0  0  0  0  0  0
   30.9708  -31.8604   31.3229 C   0  0  0  0  0  0  0  0  0  0  0  0
   32.0410  -30.8386   31.6063 C   0  0  1  0  0  0  0  0  0  0  0  0
   31.6013  -29.5470   31.6175 O   0  0  0  0  0  0  0  0  0  0  0  0
   32.2652  -28.8695   32.6316 C   0  0  2  0  0  0  0  0  0  0  0  0
   32.2241  -29.9214   33.7492 C   0  0  2  0  0  0  0  0  0  0  0  0
   33.0759  -29.6110   34.7783 O   0  0  0  0  0  0  0  0  0  0  0  0
   32.6929  -31.1285   32.9408 C   0  0  2  0  0  0  0  0  0  0  0  0
   34.0671  -31.0241   32.7497 O   0  0  0  0  0  0  0  0  0  0  0  0
   34.9349  -32.2859   33.4017 P   0  0  1  0  0  5  0  0  0  0  0  0
   34.3198  -32.6082   34.7677 O   0  0  0  0  0  0  0  0  0  0  0  0
   34.8004  -33.6955   32.4790 O   0  0  0  0  0  0  0  0  0  0  0  0
   36.5507  -31.8810   33.6988 O   0  0  0  0  0  0  0  0  0  0  0  0
   31.6427  -27.6483   33.0066 N   0  0  0  0  0  0  0  0  0  0  0  0
   32.1363  -26.4226   32.6766 C   0  0  0  0  0  0  0  0  0  0  0  0
   31.3622  -25.4591   33.1512 N   0  0  0  0  0  0  0  0  0  0  0  0
   29.0917  -24.1503   34.5658 N   0  0  0  0  0  0  0  0  0  0  0  0
   29.6541  -28.2694   34.2721 N   0  0  0  0  0  0  0  0  0  0  0  0
  1  5  2  0
 31  1  1  0
  2  3  1  0
 27  2  1  0
  2 31  2  0
  3  4  2  0
  3 29  1  0
  4  5  1  0
  4 30  1  0
  6  8  1  0
 11  6  1  0
  8  7  1  6
  8  9  2  0
  8 10  1  0
 11 12  2  0
 11 13  1  1
 14 11  1  0
 15 14  1  0
 16 15  1  1
 17 16  1  0
 16 21  1  0
 18 17  1  0
 18 19  1  0
 18 27  1  1
 19 20  1  1
 19 21  1  0
 21 22  1  6
 22 23  1  0
 23 24  2  0
 23 25  1  6
 23 26  1  0
 27 28  1  0
 28 29  2  0
M  END
$$$$
