
     RDKit          3D

 31 33  0  0  0  0  0  0  0  0999 V2000
   27.7442  -27.3002   34.2284 C   0  0  0  0  0  0  0  0  0  0  0  0
   30.0911  -27.0324   34.3495 C   0  0  0  0  0  0  0  0  0  0  0  0
   29.9073  -25.6734   34.1565 C   0  0  0  0  0  0  0  0  0  0  0  0
   28.6513  -25.1230   33.9994 C   0  0  0  0  0  0  0  0  0  0  0  0
   27.6098  -25.9746   34.0431 N   0  0  0  0  0  0  0  0  0  0  0  0
   37.1541  -29.8125   31.0596 O   0  0  0  0  0  0  0  0  0  0  0  0
   36.4426  -30.0717   28.3760 O   0  0  0  0  0  0  0  0  0  0  0  0
   36.4836  -29.0376   29.6941 P   0  0  2  0  0  5  0  0  0  0  0  0
   37.3612  -27.8581   29.3240 O   0  0  0  0  0  0  0  0  0  0  0  0
   34.9640  -28.4869   30.1261 O   0  0  0  0  0  0  0  0  0  0  0  0
   36.5044  -29.1051   32.4552 P   0  0  1  0  0  5  0  0  0  0  0  0
   36.9046  -30.0058   33.6186 O   0  0  0  0  0  0  0  0  0  0  0  0
   37.1503  -27.5503   32.6794 O   0  0  0  0  0  0  0  0  0  0  0  0
   34.8383  -29.0696   32.3012 O   0  0  0  0  0  0  0  0  0  0  0  0
   34.3155  -30.3053   32.6593 C   0  0  0  0  0  0  0  0  0  0  0  0
   33.3121  -30.1140   33.7864 C   0  0  1  0  0  0  0  0  0  0  0  0
   33.1303  -28.7322   33.9308 O   0  0  0  0  0  0  0  0  0  0  0  0
   31.9517  -28.5952   34.6816 C   0  0  2  0  0  0  0  0  0  0  0  0
   31.0391  -29.7026   34.2378 C   0  0  2  0  0  0  0  0  0  0  0  0
   30.5344  -30.4438   35.3069 O   0  0  0  0  0  0  0  0  0  0  0  0
   31.9314  -30.5547   33.3682 C   0  0  2  0  0  0  0  0  0  0  0  0
   31.7749  -31.9051   33.6131 O   0  0  0  0  0  0  0  0  0  0  0  0
   31.1653  -32.7121   32.2599 P   0  0  1  0  0  5  0  0  0  0  0  0
   30.1776  -31.8116   31.5174 O   0  0  0  0  0  0  0  0  0  0  0  0
   32.4417  -33.0946   31.2288 O   0  0  0  0  0  0  0  0  0  0  0  0
   30.3028  -34.0880   32.7411 O   0  0  0  0  0  0  0  0  0  0  0  0
   31.4183  -27.2893   34.4723 N   0  0  0  0  0  0  0  0  0  0  0  0
   32.0460  -26.1031   34.3565 C   0  0  0  0  0  0  0  0  0  0  0  0
   31.1315  -25.1362   34.1668 N   0  0  0  0  0  0  0  0  0  0  0  0
   28.4496  -23.7170   33.7989 N   0  0  0  0  0  0  0  0  0  0  0  0
   28.9855  -27.7985   34.3775 N   0  0  0  0  0  0  0  0  0  0  0  0
  1  5  2  0
 31  1  1  0
  2  3  1  0
 27  2  1  0
  2 31  2  0
  3  4  2  0
  3 29  1  0
  4  5  1  0
  4 30  1  0
  6  8  1  0
 11  6  1  0
  8  7  1  6
  8  9  2  0
  8 10  1  0
 11 12  2  0
 11 13  1  1
 14 11  1  0
 15 14  1  1
 16 15  1  0
 16 17  1  6
 16 21  1  0
 18 17  1  0
 18 19  1  0
 18 27  1  6
 19 20  1  1
 19 21  1  0
 21 22  1  1
 22 23  1  0
 23 24  2  0
 23 25  1  6
 23 26  1  0
 27 28  1  0
 28 29  2  0
M  END
$$$$
