
     RDKit          3D

 31 33  0  0  0  0  0  0  0  0999 V2000
   34.3590  -27.6130   33.0044 C   0  0  0  0  0  0  0  0  0  0  0  0
   32.1669  -28.4031   32.5983 C   0  0  0  0  0  0  0  0  0  0  0  0
   31.7574  -27.7406   33.7434 C   0  0  0  0  0  0  0  0  0  0  0  0
   32.6383  -27.0159   34.5205 C   0  0  0  0  0  0  0  0  0  0  0  0
   33.9197  -26.9842   34.1095 N   0  0  0  0  0  0  0  0  0  0  0  0
   27.9954  -33.4318   32.9437 O   0  0  0  0  0  0  0  0  0  0  0  0
   27.4480  -30.7238   33.3206 O   0  0  0  0  0  0  0  0  0  0  0  0
   27.5246  -32.2268   34.0577 P   0  0  2  0  0  5  0  0  0  0  0  0
   28.5663  -32.1459   35.1562 O   0  0  0  0  0  0  0  0  0  0  0  0
   26.0589  -32.6961   34.7139 O   0  0  0  0  0  0  0  0  0  0  0  0
   27.2350  -33.1236   31.4614 P   0  0  1  0  0  5  0  0  0  0  0  0
   27.3311  -34.4134   30.6539 O   0  0  0  0  0  0  0  0  0  0  0  0
   25.6046  -32.7189   31.7121 O   0  0  0  0  0  0  0  0  0  0  0  0
   28.0681  -31.8959   30.6871 O   0  0  0  0  0  0  0  0  0  0  0  0
   29.0286  -32.4474   29.8493 C   0  0  0  0  0  0  0  0  0  0  0  0
   30.2256  -31.5112   29.7799 C   0  0  1  0  0  0  0  0  0  0  0  0
   29.9413  -30.4336   30.6290 O   0  0  0  0  0  0  0  0  0  0  0  0
   31.1767  -29.8020   30.8440 C   0  0  2  0  0  0  0  0  0  0  0  0
   32.2051  -30.8957   30.8943 C   0  0  2  0  0  0  0  0  0  0  0  0
   33.2823  -30.6598   30.0393 O   0  0  0  0  0  0  0  0  0  0  0  0
   31.4305  -32.1152   30.4572 C   0  0  2  0  0  0  0  0  0  0  0  0
   32.1335  -32.8941   29.5587 O   0  0  0  0  0  0  0  0  0  0  0  0
   31.9623  -34.5396   29.9010 P   0  0  1  0  0  5  0  0  0  0  0  0
   30.6660  -35.0676   29.2858 O   0  0  0  0  0  0  0  0  0  0  0  0
   33.2657  -35.3759   29.2374 O   0  0  0  0  0  0  0  0  0  0  0  0
   31.8397  -34.7774   31.5735 O   0  0  0  0  0  0  0  0  0  0  0  0
   31.0992  -29.0276   32.0391 N   0  0  0  0  0  0  0  0  0  0  0  0
   30.0435  -28.7539   32.8296 C   0  0  0  0  0  0  0  0  0  0  0  0
   30.4466  -27.9798   33.8522 N   0  0  0  0  0  0  0  0  0  0  0  0
   32.2248  -26.3261   35.7083 N   0  0  0  0  0  0  0  0  0  0  0  0
   33.4691  -28.3094   32.2733 N   0  0  0  0  0  0  0  0  0  0  0  0
  1  5  2  0
 31  1  1  0
  2  3  1  0
 27  2  1  0
  2 31  2  0
  3  4  2  0
  3 29  1  0
  4  5  1  0
  4 30  1  0
  6  8  1  0
 11  6  1  0
  8  7  1  6
  8  9  2  0
  8 10  1  0
 11 12  2  0
 11 13  1  1
 14 11  1  0
 15 14  1  1
 16 15  1  0
 16 17  1  1
 16 21  1  0
 18 17  1  0
 18 19  1  0
 18 27  1  1
 19 20  1  6
 19 21  1  0
 21 22  1  6
 22 23  1  0
 23 24  2  0
 23 25  1  6
 23 26  1  0
 27 28  1  0
 28 29  2  0
M  END
$$$$
