
     RDKit          3D

 31 33  0  0  0  0  0  0  0  0999 V2000
   32.0123  -30.9785   28.0399 C   0  0  0  0  0  0  0  0  0  0  0  0
   31.8809  -30.6823   30.3403 C   0  0  0  0  0  0  0  0  0  0  0  0
   30.7079  -31.3928   30.3749 C   0  0  0  0  0  0  0  0  0  0  0  0
   30.1932  -31.8997   29.1981 C   0  0  0  0  0  0  0  0  0  0  0  0
   30.8609  -31.6816   28.0394 N   0  0  0  0  0  0  0  0  0  0  0  0
   32.2085  -28.1043   38.4902 O   0  0  0  0  0  0  0  0  0  0  0  0
   30.4074  -25.9745   38.4101 O   0  0  0  0  0  0  0  0  0  0  0  0
   31.0925  -27.2784   37.5514 P   0  0  2  0  0  5  0  0  0  0  0  0
   29.9590  -28.1744   37.1149 O   0  0  0  0  0  0  0  0  0  0  0  0
   31.8805  -26.6911   36.1619 O   0  0  0  0  0  0  0  0  0  0  0  0
   33.5299  -28.5708   37.5381 P   0  0  1  0  0  5  0  0  0  0  0  0
   34.6294  -27.5734   37.7099 O   0  0  0  0  0  0  0  0  0  0  0  0
   34.0832  -30.0981   38.0521 O   0  0  0  0  0  0  0  0  0  0  0  0
   33.0774  -28.7407   35.9125 O   0  0  0  0  0  0  0  0  0  0  0  0
   33.7999  -27.8537   35.1261 C   0  0  0  0  0  0  0  0  0  0  0  0
   34.2222  -28.5392   33.8527 C   0  0  1  0  0  0  0  0  0  0  0  0
   33.4109  -29.5663   33.4672 O   0  0  0  0  0  0  0  0  0  0  0  0
   33.2945  -29.5339   32.0839 C   0  0  2  0  0  0  0  0  0  0  0  0
   33.1336  -28.0253   31.8483 C   0  0  2  0  0  0  0  0  0  0  0  0
   33.2923  -27.6918   30.5275 O   0  0  0  0  0  0  0  0  0  0  0  0
   34.2860  -27.5359   32.7217 C   0  0  2  0  0  0  0  0  0  0  0  0
   35.4799  -27.7659   32.0452 O   0  0  0  0  0  0  0  0  0  0  0  0
   36.5110  -26.4593   32.0367 P   0  0  1  0  0  5  0  0  0  0  0  0
   35.7030  -25.2344   32.4782 O   0  0  0  0  0  0  0  0  0  0  0  0
   37.7630  -26.6287   33.1595 O   0  0  0  0  0  0  0  0  0  0  0  0
   37.0976  -26.1017   30.4905 O   0  0  0  0  0  0  0  0  0  0  0  0
   32.1970  -30.2858   31.5843 N   0  0  0  0  0  0  0  0  0  0  0  0
   31.1967  -30.7674   32.3733 C   0  0  0  0  0  0  0  0  0  0  0  0
   30.3051  -31.4297   31.6526 N   0  0  0  0  0  0  0  0  0  0  0  0
   28.9836  -32.6268   29.2674 N   0  0  0  0  0  0  0  0  0  0  0  0
   32.5464  -30.4661   29.1787 N   0  0  0  0  0  0  0  0  0  0  0  0
  1  5  2  0
 31  1  1  0
  2  3  1  0
 27  2  1  0
  2 31  2  0
  3  4  2  0
  3 29  1  0
  4  5  1  0
  4 30  1  0
  6  8  1  0
 11  6  1  0
  8  7  1  1
  8  9  2  0
  8 10  1  0
 11 12  2  0
 11 13  1  1
 14 11  1  0
 15 14  1  0
 16 15  1  1
 17 16  1  0
 16 21  1  0
 18 17  1  0
 18 19  1  0
 18 27  1  1
 19 20  1  6
 19 21  1  0
 21 22  1  6
 22 23  1  0
 23 24  2  0
 23 25  1  1
 23 26  1  0
 27 28  1  0
 28 29  2  0
M  END
$$$$
