
     RDKit          3D

 31 33  0  0  0  0  0  0  0  0999 V2000
   37.5892  -32.4174   37.6663 C   0  0  0  0  0  0  0  0  0  0  0  0
   36.5030  -30.3977   37.0877 C   0  0  0  0  0  0  0  0  0  0  0  0
   36.8300  -29.9077   38.3410 C   0  0  0  0  0  0  0  0  0  0  0  0
   37.5329  -30.6627   39.2580 C   0  0  0  0  0  0  0  0  0  0  0  0
   37.8865  -31.9033   38.8733 N   0  0  0  0  0  0  0  0  0  0  0  0
   30.2417  -25.9469   34.0759 O   0  0  0  0  0  0  0  0  0  0  0  0
   28.2824  -25.9753   36.0596 O   0  0  0  0  0  0  0  0  0  0  0  0
   29.6706  -25.2151   35.5087 P   0  0  2  0  0  5  0  0  0  0  0  0
   29.3149  -23.7720   35.2098 O   0  0  0  0  0  0  0  0  0  0  0  0
   30.9151  -25.2620   36.6258 O   0  0  0  0  0  0  0  0  0  0  0  0
   31.9002  -25.6319   33.9326 P   0  0  1  0  0  5  0  0  0  0  0  0
   32.1650  -25.3947   32.4499 O   0  0  0  0  0  0  0  0  0  0  0  0
   32.3124  -24.2451   34.8223 O   0  0  0  0  0  0  0  0  0  0  0  0
   32.7400  -26.9804   34.4591 O   0  0  0  0  0  0  0  0  0  0  0  0
   32.5542  -28.0204   33.5577 C   0  0  0  0  0  0  0  0  0  0  0  0
   33.7111  -29.0003   33.6826 C   0  0  1  0  0  0  0  0  0  0  0  0
   34.5148  -28.5396   34.7337 O   0  0  0  0  0  0  0  0  0  0  0  0
   35.3307  -29.6302   35.0748 C   0  0  2  0  0  0  0  0  0  0  0  0
   34.4845  -30.8591   34.9015 C   0  0  2  0  0  0  0  0  0  0  0  0
   35.1033  -31.8307   34.1141 O   0  0  0  0  0  0  0  0  0  0  0  0
   33.2446  -30.3288   34.2235 C   0  0  2  0  0  0  0  0  0  0  0  0
   32.8231  -31.1370   33.1855 O   0  0  0  0  0  0  0  0  0  0  0  0
   31.2819  -31.7644   33.4772 P   0  0  1  0  0  5  0  0  0  0  0  0
   30.2325  -30.6641   33.3162 O   0  0  0  0  0  0  0  0  0  0  0  0
   30.9689  -32.9892   32.3635 O   0  0  0  0  0  0  0  0  0  0  0  0
   31.1693  -32.3144   35.0752 O   0  0  0  0  0  0  0  0  0  0  0  0
   35.8172  -29.4472   36.4029 N   0  0  0  0  0  0  0  0  0  0  0  0
   35.7220  -28.3835   37.2238 C   0  0  0  0  0  0  0  0  0  0  0  0
   36.3330  -28.6674   38.3871 N   0  0  0  0  0  0  0  0  0  0  0  0
   37.8766  -30.1651   40.5587 N   0  0  0  0  0  0  0  0  0  0  0  0
   36.9026  -31.6498   36.8000 N   0  0  0  0  0  0  0  0  0  0  0  0
  1  5  2  0
 31  1  1  0
  2  3  1  0
 27  2  1  0
  2 31  2  0
  3  4  2  0
  3 29  1  0
  4  5  1  0
  4 30  1  0
  6  8  1  0
 11  6  1  0
  8  7  1  1
  8  9  2  0
  8 10  1  0
 11 12  2  0
 11 13  1  1
 14 11  1  0
 15 14  1  1
 16 15  1  0
 16 17  1  1
 16 21  1  0
 18 17  1  0
 18 19  1  0
 18 27  1  1
 19 20  1  6
 19 21  1  0
 21 22  1  6
 22 23  1  0
 23 24  2  0
 23 25  1  6
 23 26  1  0
 27 28  1  0
 28 29  2  0
M  END
$$$$
