
     RDKit          3D

 31 33  0  0  0  0  0  0  0  0999 V2000
   40.6252  -28.5762   35.6090 C   0  0  0  0  0  0  0  0  0  0  0  0
   38.3526  -28.8102   36.2209 C   0  0  0  0  0  0  0  0  0  0  0  0
   38.7498  -29.6953   37.2092 C   0  0  0  0  0  0  0  0  0  0  0  0
   40.0762  -30.0242   37.4027 C   0  0  0  0  0  0  0  0  0  0  0  0
   40.9684  -29.4406   36.5808 N   0  0  0  0  0  0  0  0  0  0  0  0
   30.8050  -27.8287   37.7248 O   0  0  0  0  0  0  0  0  0  0  0  0
   28.7533  -26.5552   36.3306 O   0  0  0  0  0  0  0  0  0  0  0  0
   30.2199  -26.3458   37.1140 P   0  0  2  0  0  5  0  0  0  0  0  0
   31.2105  -25.8133   36.0974 O   0  0  0  0  0  0  0  0  0  0  0  0
   30.1149  -25.2806   38.3998 O   0  0  0  0  0  0  0  0  0  0  0  0
   31.0892  -28.8746   36.4226 P   0  0  1  0  0  5  0  0  0  0  0  0
   30.8713  -30.2878   36.9521 O   0  0  0  0  0  0  0  0  0  0  0  0
   29.9949  -28.5541   35.1637 O   0  0  0  0  0  0  0  0  0  0  0  0
   32.6770  -28.6828   35.9296 O   0  0  0  0  0  0  0  0  0  0  0  0
   32.7449  -27.6778   34.9736 C   0  0  0  0  0  0  0  0  0  0  0  0
   34.2048  -27.3692   34.6782 C   0  0  1  0  0  0  0  0  0  0  0  0
   34.9347  -27.7674   35.8059 O   0  0  0  0  0  0  0  0  0  0  0  0
   36.2688  -27.8336   35.3731 C   0  0  2  0  0  0  0  0  0  0  0  0
   36.2273  -28.3330   33.9571 C   0  0  2  0  0  0  0  0  0  0  0  0
   36.9546  -27.5260   33.0814 O   0  0  0  0  0  0  0  0  0  0  0  0
   34.7557  -28.2961   33.6234 C   0  0  2  0  0  0  0  0  0  0  0  0
   34.5113  -27.7765   32.3670 O   0  0  0  0  0  0  0  0  0  0  0  0
   33.2496  -28.5929   31.5952 P   0  0  1  0  0  5  0  0  0  0  0  0
   32.0488  -28.7037   32.5351 O   0  0  0  0  0  0  0  0  0  0  0  0
   32.7950  -27.7273   30.2231 O   0  0  0  0  0  0  0  0  0  0  0  0
   33.7223  -30.1755   31.2206 O   0  0  0  0  0  0  0  0  0  0  0  0
   37.0024  -28.6753   36.2604 N   0  0  0  0  0  0  0  0  0  0  0  0
   36.5716  -29.4675   37.2610 C   0  0  0  0  0  0  0  0  0  0  0  0
   37.6274  -30.0776   37.8269 N   0  0  0  0  0  0  0  0  0  0  0  0
   40.4985  -30.9397   38.4231 N   0  0  0  0  0  0  0  0  0  0  0  0
   39.3216  -28.2810   35.4521 N   0  0  0  0  0  0  0  0  0  0  0  0
  1  5  2  0
 31  1  1  0
  2  3  1  0
 27  2  1  0
  2 31  2  0
  3  4  2  0
  3 29  1  0
  4  5  1  0
  4 30  1  0
  6  8  1  0
 11  6  1  0
  8  7  1  6
  8  9  2  0
  8 10  1  0
 11 12  2  0
 11 13  1  6
 14 11  1  0
 15 14  1  1
 16 15  1  0
 16 17  1  1
 16 21  1  0
 18 17  1  0
 18 19  1  0
 18 27  1  1
 19 20  1  6
 19 21  1  0
 21 22  1  6
 22 23  1  0
 23 24  2  0
 23 25  1  6
 23 26  1  0
 27 28  1  0
 28 29  2  0
M  END
$$$$
