
     RDKit          3D

 31 33  0  0  0  0  0  0  0  0999 V2000
   36.4539  -30.9557   33.2481 C   0  0  0  0  0  0  0  0  0  0  0  0
   35.3415  -28.9286   32.7507 C   0  0  0  0  0  0  0  0  0  0  0  0
   36.4520  -28.2483   33.2216 C   0  0  0  0  0  0  0  0  0  0  0  0
   37.5619  -28.9114   33.7050 C   0  0  0  0  0  0  0  0  0  0  0  0
   37.5121  -30.2565   33.6964 N   0  0  0  0  0  0  0  0  0  0  0  0
   28.7371  -27.3156   36.4726 O   0  0  0  0  0  0  0  0  0  0  0  0
   27.8498  -29.6343   35.2033 O   0  0  0  0  0  0  0  0  0  0  0  0
   27.8754  -28.7794   36.6444 P   0  0  2  0  0  5  0  0  0  0  0  0
   26.4401  -28.4588   37.0126 O   0  0  0  0  0  0  0  0  0  0  0  0
   28.5907  -29.6390   37.8888 O   0  0  0  0  0  0  0  0  0  0  0  0
   30.1768  -27.6313   35.6371 P   0  0  1  0  0  5  0  0  0  0  0  0
   31.0757  -26.4199   35.8587 O   0  0  0  0  0  0  0  0  0  0  0  0
   30.9217  -29.0253   36.2590 O   0  0  0  0  0  0  0  0  0  0  0  0
   29.8175  -27.7919   34.0104 O   0  0  0  0  0  0  0  0  0  0  0  0
   30.1508  -29.0724   33.5888 C   0  0  0  0  0  0  0  0  0  0  0  0
   31.0717  -28.9754   32.3819 C   0  0  1  0  0  0  0  0  0  0  0  0
   32.1491  -28.1653   32.7639 O   0  0  0  0  0  0  0  0  0  0  0  0
   33.1430  -28.4008   31.8005 C   0  0  2  0  0  0  0  0  0  0  0  0
   33.0395  -29.8542   31.4360 C   0  0  2  0  0  0  0  0  0  0  0  0
   32.9593  -30.0580   30.0579 O   0  0  0  0  0  0  0  0  0  0  0  0
   31.7647  -30.2888   32.1175 C   0  0  2  0  0  0  0  0  0  0  0  0
   30.9757  -31.0818   31.3070 O   0  0  0  0  0  0  0  0  0  0  0  0
   30.8118  -32.6403   31.9380 P   0  0  1  0  0  5  0  0  0  0  0  0
   31.9237  -33.5404   31.3985 O   0  0  0  0  0  0  0  0  0  0  0  0
   30.9307  -32.5670   33.6171 O   0  0  0  0  0  0  0  0  0  0  0  0
   29.3457  -33.3221   31.4338 O   0  0  0  0  0  0  0  0  0  0  0  0
   34.4095  -28.0304   32.3415 N   0  0  0  0  0  0  0  0  0  0  0  0
   34.9385  -26.8106   32.5573 C   0  0  0  0  0  0  0  0  0  0  0  0
   36.1665  -26.9493   33.0865 N   0  0  0  0  0  0  0  0  0  0  0  0
   38.7172  -28.2168   34.1952 N   0  0  0  0  0  0  0  0  0  0  0  0
   35.3909  -30.2726   32.7847 N   0  0  0  0  0  0  0  0  0  0  0  0
  1  5  2  0
 31  1  1  0
  2  3  1  0
 27  2  1  0
  2 31  2  0
  3  4  2  0
  3 29  1  0
  4  5  1  0
  4 30  1  0
  6  8  1  0
 11  6  1  0
  8  7  1  6
  8  9  2  0
  8 10  1  0
 11 12  2  0
 11 13  1  1
 14 11  1  0
 15 14  1  1
 16 15  1  0
 16 17  1  1
 16 21  1  0
 18 17  1  0
 18 19  1  0
 18 27  1  1
 19 20  1  6
 19 21  1  0
 21 22  1  6
 22 23  1  0
 23 24  2  0
 23 25  1  1
 23 26  1  0
 27 28  1  0
 28 29  2  0
M  END
$$$$
