
     RDKit          3D

 31 33  0  0  0  0  0  0  0  0999 V2000
   37.6294  -29.9405   30.3878 C   0  0  0  0  0  0  0  0  0  0  0  0
   36.0674  -28.9262   31.8456 C   0  0  0  0  0  0  0  0  0  0  0  0
   37.1322  -28.4225   32.5738 C   0  0  0  0  0  0  0  0  0  0  0  0
   38.4420  -28.6722   32.2172 C   0  0  0  0  0  0  0  0  0  0  0  0
   38.6347  -29.4320   31.1229 N   0  0  0  0  0  0  0  0  0  0  0  0
   29.2541  -26.8135   35.9765 O   0  0  0  0  0  0  0  0  0  0  0  0
   30.4991  -25.9043   38.2999 O   0  0  0  0  0  0  0  0  0  0  0  0
   29.1331  -25.7880   37.3361 P   0  0  2  0  0  5  0  0  0  0  0  0
   27.9450  -26.2243   38.1706 O   0  0  0  0  0  0  0  0  0  0  0  0
   28.8761  -24.2345   36.7708 O   0  0  0  0  0  0  0  0  0  0  0  0
   30.7936  -26.6266   35.2943 P   0  0  1  0  0  5  0  0  0  0  0  0
   31.1831  -25.1680   35.5079 O   0  0  0  0  0  0  0  0  0  0  0  0
   31.9081  -27.6427   36.0757 O   0  0  0  0  0  0  0  0  0  0  0  0
   30.6889  -26.9611   33.6579 O   0  0  0  0  0  0  0  0  0  0  0  0
   30.4758  -28.3216   33.4780 C   0  0  0  0  0  0  0  0  0  0  0  0
   31.4506  -28.8445   32.4338 C   0  0  1  0  0  0  0  0  0  0  0  0
   32.6433  -28.1296   32.6054 O   0  0  0  0  0  0  0  0  0  0  0  0
   33.6165  -28.8721   31.9176 C   0  0  2  0  0  0  0  0  0  0  0  0
   33.2576  -30.3177   32.1115 C   0  0  2  0  0  0  0  0  0  0  0  0
   33.2011  -31.0231   30.9089 O   0  0  0  0  0  0  0  0  0  0  0  0
   31.8952  -30.2490   32.7576 C   0  0  2  0  0  0  0  0  0  0  0  0
   31.0075  -31.1593   32.2174 O   0  0  0  0  0  0  0  0  0  0  0  0
   30.9215  -32.5661   33.1488 P   0  0  1  0  0  5  0  0  0  0  0  0
   31.7604  -32.4036   34.4167 O   0  0  0  0  0  0  0  0  0  0  0  0
   29.3166  -32.8384   33.5834 O   0  0  0  0  0  0  0  0  0  0  0  0
   31.5789  -33.8722   32.2941 O   0  0  0  0  0  0  0  0  0  0  0  0
   34.9051  -28.5251   32.4207 N   0  0  0  0  0  0  0  0  0  0  0  0
   35.2485  -27.7828   33.4910 C   0  0  0  0  0  0  0  0  0  0  0  0
   36.5888  -27.7255   33.5769 N   0  0  0  0  0  0  0  0  0  0  0  0
   39.5522  -28.1556   32.9643 N   0  0  0  0  0  0  0  0  0  0  0  0
   36.3662  -29.6744   30.7681 N   0  0  0  0  0  0  0  0  0  0  0  0
  1  5  2  0
 31  1  1  0
  2  3  1  0
 27  2  1  0
  2 31  2  0
  3  4  2  0
  3 29  1  0
  4  5  1  0
  4 30  1  0
  6  8  1  0
 11  6  1  0
  8  7  1  1
  8  9  2  0
  8 10  1  0
 11 12  2  0
 11 13  1  1
 14 11  1  0
 15 14  1  1
 16 15  1  0
 16 17  1  1
 16 21  1  0
 18 17  1  0
 18 19  1  0
 18 27  1  1
 19 20  1  6
 19 21  1  0
 21 22  1  6
 22 23  1  0
 23 24  2  0
 23 25  1  1
 23 26  1  0
 27 28  1  0
 28 29  2  0
M  END
$$$$
