
     RDKit          3D

 31 33  0  0  0  0  0  0  0  0999 V2000
   36.3154  -25.8300   29.9981 C   0  0  0  0  0  0  0  0  0  0  0  0
   35.3903  -27.5115   31.3803 C   0  0  0  0  0  0  0  0  0  0  0  0
   36.5211  -27.4263   32.1752 C   0  0  0  0  0  0  0  0  0  0  0  0
   37.5482  -26.5498   31.8896 C   0  0  0  0  0  0  0  0  0  0  0  0
   37.3968  -25.7788   30.7965 N   0  0  0  0  0  0  0  0  0  0  0  0
   28.2137  -28.8528   35.1115 O   0  0  0  0  0  0  0  0  0  0  0  0
   27.2330  -31.0340   36.5452 O   0  0  0  0  0  0  0  0  0  0  0  0
   28.2417  -30.5496   35.2977 P   0  0  2  0  0  5  0  0  0  0  0  0
   29.6515  -30.9766   35.6562 O   0  0  0  0  0  0  0  0  0  0  0  0
   27.8132  -31.2223   33.8270 O   0  0  0  0  0  0  0  0  0  0  0  0
   29.7853  -28.2593   35.3310 P   0  0  1  0  0  5  0  0  0  0  0  0
   29.6967  -26.7447   35.1800 O   0  0  0  0  0  0  0  0  0  0  0  0
   30.3490  -28.6533   36.8840 O   0  0  0  0  0  0  0  0  0  0  0  0
   30.7628  -28.9012   34.1338 O   0  0  0  0  0  0  0  0  0  0  0  0
   30.1224  -28.7899   32.9065 C   0  0  0  0  0  0  0  0  0  0  0  0
   31.1338  -29.0219   31.7942 C   0  0  1  0  0  0  0  0  0  0  0  0
   32.2686  -28.2678   32.1206 O   0  0  0  0  0  0  0  0  0  0  0  0
   33.2953  -28.7849   31.3144 C   0  0  2  0  0  0  0  0  0  0  0  0
   33.0476  -30.2631   31.2145 C   0  0  2  0  0  0  0  0  0  0  0  0
   33.0445  -30.7193   29.8958 O   0  0  0  0  0  0  0  0  0  0  0  0
   31.6842  -30.4255   31.8414 C   0  0  2  0  0  0  0  0  0  0  0  0
   30.8682  -31.2748   31.1196 O   0  0  0  0  0  0  0  0  0  0  0  0
   30.7882  -32.8060   31.8291 P   0  0  1  0  0  5  0  0  0  0  0  0
   31.0309  -32.6959   33.3346 O   0  0  0  0  0  0  0  0  0  0  0  0
   29.2547  -33.4525   31.5659 O   0  0  0  0  0  0  0  0  0  0  0  0
   32.0118  -33.8000   31.2100 O   0  0  0  0  0  0  0  0  0  0  0  0
   34.5539  -28.4488   31.8948 N   0  0  0  0  0  0  0  0  0  0  0  0
   35.1612  -28.9361   32.9939 C   0  0  0  0  0  0  0  0  0  0  0  0
   36.3433  -28.3169   33.1564 N   0  0  0  0  0  0  0  0  0  0  0  0
   38.7237  -26.4534   32.7060 N   0  0  0  0  0  0  0  0  0  0  0  0
   35.3353  -26.6978   30.3103 N   0  0  0  0  0  0  0  0  0  0  0  0
  1  5  2  0
 31  1  1  0
  2  3  1  0
 27  2  1  0
  2 31  2  0
  3  4  2  0
  3 29  1  0
  4  5  1  0
  4 30  1  0
  6  8  1  0
 11  6  1  0
  8  7  1  1
  8  9  2  0
  8 10  1  0
 11 12  2  0
 11 13  1  1
 14 11  1  0
 15 14  1  1
 16 15  1  0
 16 17  1  1
 16 21  1  0
 18 17  1  0
 18 19  1  0
 18 27  1  1
 19 20  1  6
 19 21  1  0
 21 22  1  6
 22 23  1  0
 23 24  2  0
 23 25  1  1
 23 26  1  0
 27 28  1  0
 28 29  2  0
M  END
$$$$
