
     RDKit          3D

 31 33  0  0  0  0  0  0  0  0999 V2000
   37.1651  -26.8945   34.1591 C   0  0  0  0  0  0  0  0  0  0  0  0
   35.3251  -27.7007   32.9108 C   0  0  0  0  0  0  0  0  0  0  0  0
   35.7929  -26.9773   31.8266 C   0  0  0  0  0  0  0  0  0  0  0  0
   36.9404  -26.2139   31.9004 C   0  0  0  0  0  0  0  0  0  0  0  0
   37.5851  -26.2067   33.0820 N   0  0  0  0  0  0  0  0  0  0  0  0
   28.8748  -32.6278   30.9799 O   0  0  0  0  0  0  0  0  0  0  0  0
   29.7342  -35.0370   32.0899 O   0  0  0  0  0  0  0  0  0  0  0  0
   28.4460  -33.9763   31.9351 P   0  0  2  0  0  5  0  0  0  0  0  0
   27.3190  -34.7213   31.2473 O   0  0  0  0  0  0  0  0  0  0  0  0
   27.9110  -33.3958   33.4101 O   0  0  0  0  0  0  0  0  0  0  0  0
   30.5136  -32.7556   30.5698 P   0  0  1  0  0  5  0  0  0  0  0  0
   30.7579  -34.2221   30.2313 O   0  0  0  0  0  0  0  0  0  0  0  0
   30.8570  -31.7857   29.2183 O   0  0  0  0  0  0  0  0  0  0  0  0
   31.4259  -32.3121   31.9008 O   0  0  0  0  0  0  0  0  0  0  0  0
   30.7463  -31.3394   32.6224 C   0  0  0  0  0  0  0  0  0  0  0  0
   31.7319  -30.6042   33.5181 C   0  0  1  0  0  0  0  0  0  0  0  0
   32.7744  -30.1652   32.6913 O   0  0  0  0  0  0  0  0  0  0  0  0
   33.4497  -29.1894   33.4417 C   0  0  2  0  0  0  0  0  0  0  0  0
   32.3977  -28.4617   34.2292 C   0  0  2  0  0  0  0  0  0  0  0  0
   32.6996  -28.3887   35.5896 O   0  0  0  0  0  0  0  0  0  0  0  0
   31.1597  -29.2938   33.9984 C   0  0  2  0  0  0  0  0  0  0  0  0
   30.4339  -29.4942   35.1565 O   0  0  0  0  0  0  0  0  0  0  0  0
   28.7752  -29.3269   34.8832 P   0  0  1  0  0  5  0  0  0  0  0  0
   28.4795  -29.4414   33.3874 O   0  0  0  0  0  0  0  0  0  0  0  0
   27.9587  -30.5537   35.6999 O   0  0  0  0  0  0  0  0  0  0  0  0
   28.2572  -27.7882   35.3654 O   0  0  0  0  0  0  0  0  0  0  0  0
   34.1886  -28.3521   32.5547 N   0  0  0  0  0  0  0  0  0  0  0  0
   33.9579  -28.0344   31.2662 C   0  0  0  0  0  0  0  0  0  0  0  0
   34.9263  -27.2076   30.8350 N   0  0  0  0  0  0  0  0  0  0  0  0
   37.4338  -25.4608   30.7837 N   0  0  0  0  0  0  0  0  0  0  0  0
   36.0418  -27.6272   34.0471 N   0  0  0  0  0  0  0  0  0  0  0  0
  1  5  2  0
 31  1  1  0
  2  3  1  0
 27  2  1  0
  2 31  2  0
  3  4  2  0
  3 29  1  0
  4  5  1  0
  4 30  1  0
  6  8  1  0
 11  6  1  0
  8  7  1  1
  8  9  2  0
  8 10  1  0
 11 12  2  0
 11 13  1  6
 14 11  1  0
 15 14  1  1
 16 15  1  0
 16 17  1  6
 16 21  1  0
 18 17  1  0
 18 19  1  0
 18 27  1  6
 19 20  1  1
 19 21  1  0
 21 22  1  1
 22 23  1  0
 23 24  2  0
 23 25  1  1
 23 26  1  0
 27 28  1  0
 28 29  2  0
M  END
$$$$
