
     RDKit          3D

 31 33  0  0  0  0  0  0  0  0999 V2000
   26.6658  -28.5448   33.1790 C   0  0  0  0  0  0  0  0  0  0  0  0
   28.8818  -28.2014   33.7860 C   0  0  0  0  0  0  0  0  0  0  0  0
   28.5598  -26.9731   34.3051 C   0  0  0  0  0  0  0  0  0  0  0  0
   27.2495  -26.5409   34.2481 C   0  0  0  0  0  0  0  0  0  0  0  0
   26.3160  -27.3421   33.6803 N   0  0  0  0  0  0  0  0  0  0  0  0
   37.3277  -28.1680   33.1366 O   0  0  0  0  0  0  0  0  0  0  0  0
   38.0440  -25.6729   32.1128 O   0  0  0  0  0  0  0  0  0  0  0  0
   37.0706  -27.0577   31.9078 P   0  0  2  0  0  5  0  0  0  0  0  0
   35.6344  -26.5955   31.8654 O   0  0  0  0  0  0  0  0  0  0  0  0
   37.4425  -27.7975   30.4208 O   0  0  0  0  0  0  0  0  0  0  0  0
   36.0294  -28.1347   34.2246 P   0  0  1  0  0  5  0  0  0  0  0  0
   36.2940  -29.1076   35.3276 O   0  0  0  0  0  0  0  0  0  0  0  0
   35.8902  -26.5712   34.8876 O   0  0  0  0  0  0  0  0  0  0  0  0
   34.5650  -28.4578   33.4327 O   0  0  0  0  0  0  0  0  0  0  0  0
   34.4887  -29.8067   33.1133 C   0  0  0  0  0  0  0  0  0  0  0  0
   33.0981  -30.3129   33.3961 C   0  0  1  0  0  0  0  0  0  0  0  0
   32.3109  -29.4442   34.0941 O   0  0  0  0  0  0  0  0  0  0  0  0
   31.0205  -29.5218   33.5870 C   0  0  2  0  0  0  0  0  0  0  0  0
   31.3110  -29.5768   32.0804 C   0  0  2  0  0  0  0  0  0  0  0  0
   30.2075  -29.9527   31.3579 O   0  0  0  0  0  0  0  0  0  0  0  0
   32.3964  -30.6501   32.0984 C   0  0  2  0  0  0  0  0  0  0  0  0
   31.7885  -31.8885   32.2786 O   0  0  0  0  0  0  0  0  0  0  0  0
   32.3844  -33.0818   31.2829 P   0  0  1  0  0  5  0  0  0  0  0  0
   33.8890  -33.1938   31.5507 O   0  0  0  0  0  0  0  0  0  0  0  0
   31.7271  -34.5972   31.6409 O   0  0  0  0  0  0  0  0  0  0  0  0
   32.2273  -32.7005   29.6419 O   0  0  0  0  0  0  0  0  0  0  0  0
   30.1976  -28.4202   33.9456 N   0  0  0  0  0  0  0  0  0  0  0  0
   30.6678  -27.3047   34.5698 C   0  0  0  0  0  0  0  0  0  0  0  0
   29.6905  -26.4379   34.7859 N   0  0  0  0  0  0  0  0  0  0  0  0
   26.9505  -25.2712   34.7914 N   0  0  0  0  0  0  0  0  0  0  0  0
   27.9446  -29.0006   33.2185 N   0  0  0  0  0  0  0  0  0  0  0  0
  1  5  2  0
 31  1  1  0
  2  3  1  0
 27  2  1  0
  2 31  2  0
  3  4  2  0
  3 29  1  0
  4  5  1  0
  4 30  1  0
  6  8  1  0
 11  6  1  0
  8  7  1  1
  8  9  2  0
  8 10  1  0
 11 12  2  0
 11 13  1  1
 14 11  1  0
 15 14  1  0
 16 15  1  6
 17 16  1  0
 16 21  1  0
 18 17  1  0
 18 19  1  0
 18 27  1  6
 19 20  1  6
 19 21  1  0
 21 22  1  1
 22 23  1  0
 23 24  2  0
 23 25  1  6
 23 26  1  0
 27 28  1  0
 28 29  2  0
M  END
$$$$
