
     RDKit          3D

 31 33  0  0  0  0  0  0  0  0999 V2000
   33.3074  -29.1617   28.0719 C   0  0  0  0  0  0  0  0  0  0  0  0
   32.0654  -30.4777   29.5948 C   0  0  0  0  0  0  0  0  0  0  0  0
   31.0965  -30.6263   28.6166 C   0  0  0  0  0  0  0  0  0  0  0  0
   31.2251  -30.0486   27.3697 C   0  0  0  0  0  0  0  0  0  0  0  0
   32.3425  -29.3309   27.1500 N   0  0  0  0  0  0  0  0  0  0  0  0
   29.4981  -29.0148   36.6921 O   0  0  0  0  0  0  0  0  0  0  0  0
   31.4974  -29.9524   38.3945 O   0  0  0  0  0  0  0  0  0  0  0  0
   30.2791  -28.8187   38.1974 P   0  0  2  0  0  5  0  0  0  0  0  0
   29.2659  -29.0379   39.3036 O   0  0  0  0  0  0  0  0  0  0  0  0
   30.8472  -27.2466   38.2663 O   0  0  0  0  0  0  0  0  0  0  0  0
   29.2733  -30.6705   36.4118 P   0  0  1  0  0  5  0  0  0  0  0  0
   29.6121  -31.3766   37.7200 O   0  0  0  0  0  0  0  0  0  0  0  0
   27.6573  -30.9794   35.9900 O   0  0  0  0  0  0  0  0  0  0  0  0
   30.3323  -31.1495   35.2077 O   0  0  0  0  0  0  0  0  0  0  0  0
   31.4191  -30.2855   35.1788 C   0  0  0  0  0  0  0  0  0  0  0  0
   32.3769  -30.7265   34.0823 C   0  0  1  0  0  0  0  0  0  0  0  0
   31.5862  -31.1647   33.0119 O   0  0  0  0  0  0  0  0  0  0  0  0
   32.4523  -31.1974   31.9072 C   0  0  2  0  0  0  0  0  0  0  0  0
   33.3900  -30.0357   32.0734 C   0  0  2  0  0  0  0  0  0  0  0  0
   34.7304  -30.4072   31.9622 O   0  0  0  0  0  0  0  0  0  0  0  0
   33.0835  -29.5442   33.4673 C   0  0  2  0  0  0  0  0  0  0  0  0
   34.2252  -29.2521   34.1878 O   0  0  0  0  0  0  0  0  0  0  0  0
   34.1506  -27.7057   34.8640 P   0  0  1  0  0  5  0  0  0  0  0  0
   34.8384  -27.7004   36.2294 O   0  0  0  0  0  0  0  0  0  0  0  0
   34.9439  -26.6233   33.8453 O   0  0  0  0  0  0  0  0  0  0  0  0
   32.5376  -27.2628   35.1296 O   0  0  0  0  0  0  0  0  0  0  0  0
   31.6785  -31.1475   30.7103 N   0  0  0  0  0  0  0  0  0  0  0  0
   30.4852  -31.7028   30.4239 C   0  0  0  0  0  0  0  0  0  0  0  0
   30.1415  -31.3853   29.1637 N   0  0  0  0  0  0  0  0  0  0  0  0
   30.2277  -30.1961   26.3494 N   0  0  0  0  0  0  0  0  0  0  0  0
   33.1450  -29.7410   29.2757 N   0  0  0  0  0  0  0  0  0  0  0  0
  1  5  2  0
 31  1  1  0
  2  3  1  0
 27  2  1  0
  2 31  2  0
  3  4  2  0
  3 29  1  0
  4  5  1  0
  4 30  1  0
  6  8  1  0
 11  6  1  0
  8  7  1  1
  8  9  2  0
  8 10  1  0
 11 12  2  0
 11 13  1  6
 14 11  1  0
 15 14  1  1
 16 15  1  0
 16 17  1  6
 16 21  1  0
 18 17  1  0
 18 19  1  0
 18 27  1  6
 19 20  1  1
 19 21  1  0
 21 22  1  1
 22 23  1  0
 23 24  2  0
 23 25  1  6
 23 26  1  0
 27 28  1  0
 28 29  2  0
M  END
$$$$
