
     RDKit          3D

 31 33  0  0  0  0  0  0  0  0999 V2000
   29.1899  -25.8120   35.5070 C   0  0  0  0  0  0  0  0  0  0  0  0
   29.7195  -27.3871   33.8836 C   0  0  0  0  0  0  0  0  0  0  0  0
   28.3919  -27.7023   33.7419 C   0  0  0  0  0  0  0  0  0  0  0  0
   27.4572  -27.0414   34.5142 C   0  0  0  0  0  0  0  0  0  0  0  0
   27.8766  -26.0983   35.3920 N   0  0  0  0  0  0  0  0  0  0  0  0
   30.7760  -32.5394   30.5981 O   0  0  0  0  0  0  0  0  0  0  0  0
   28.3982  -33.5701   31.6326 O   0  0  0  0  0  0  0  0  0  0  0  0
   29.9859  -33.9220   31.1205 P   0  0  2  0  0  5  0  0  0  0  0  0
   30.7007  -34.5672   32.2828 O   0  0  0  0  0  0  0  0  0  0  0  0
   29.9335  -35.0361   29.8349 O   0  0  0  0  0  0  0  0  0  0  0  0
   32.4366  -32.6731   30.9062 P   0  0  1  0  0  5  0  0  0  0  0  0
   32.7656  -34.1035   31.1868 O   0  0  0  0  0  0  0  0  0  0  0  0
   33.3070  -32.1645   29.5326 O   0  0  0  0  0  0  0  0  0  0  0  0
   32.9019  -31.6546   32.1799 O   0  0  0  0  0  0  0  0  0  0  0  0
   33.9387  -30.8280   31.7687 C   0  0  0  0  0  0  0  0  0  0  0  0
   33.5456  -29.3881   31.9732 C   0  0  1  0  0  0  0  0  0  0  0  0
   32.2092  -29.1433   31.8480 O   0  0  0  0  0  0  0  0  0  0  0  0
   31.8468  -28.2043   32.8046 C   0  0  2  0  0  0  0  0  0  0  0  0
   32.6325  -28.7192   34.0190 C   0  0  2  0  0  0  0  0  0  0  0  0
   32.6788  -27.7944   35.0307 O   0  0  0  0  0  0  0  0  0  0  0  0
   33.9864  -28.9210   33.3434 C   0  0  2  0  0  0  0  0  0  0  0  0
   34.5834  -27.6759   33.1724 O   0  0  0  0  0  0  0  0  0  0  0  0
   36.2400  -27.6964   33.3315 P   0  0  1  0  0  5  0  0  0  0  0  0
   36.6442  -29.1174   33.7385 O   0  0  0  0  0  0  0  0  0  0  0  0
   37.0244  -27.3835   31.8675 O   0  0  0  0  0  0  0  0  0  0  0  0
   36.7888  -26.6804   34.5682 O   0  0  0  0  0  0  0  0  0  0  0  0
   30.4475  -28.1425   33.0444 N   0  0  0  0  0  0  0  0  0  0  0  0
   29.5397  -28.9205   32.3920 C   0  0  0  0  0  0  0  0  0  0  0  0
   28.3099  -28.6593   32.8072 N   0  0  0  0  0  0  0  0  0  0  0  0
   26.0982  -27.3890   34.3446 N   0  0  0  0  0  0  0  0  0  0  0  0
   30.1354  -26.4426   34.7633 N   0  0  0  0  0  0  0  0  0  0  0  0
  1  5  2  0
 31  1  1  0
  2  3  1  0
 27  2  1  0
  2 31  2  0
  3  4  2  0
  3 29  1  0
  4  5  1  0
  4 30  1  0
  6  8  1  0
 11  6  1  0
  8  7  1  1
  8  9  2  0
  8 10  1  0
 11 12  2  0
 11 13  1  6
 14 11  1  0
 15 14  1  0
 16 15  1  1
 17 16  1  0
 16 21  1  0
 18 17  1  0
 18 19  1  0
 18 27  1  1
 19 20  1  1
 19 21  1  0
 21 22  1  6
 22 23  1  0
 23 24  2  0
 23 25  1  6
 23 26  1  0
 27 28  1  0
 28 29  2  0
M  END
$$$$
