
     RDKit          3D

 31 33  0  0  0  0  0  0  0  0999 V2000
   36.4711  -28.8842   29.4490 C   0  0  0  0  0  0  0  0  0  0  0  0
   35.1756  -27.9914   31.2150 C   0  0  0  0  0  0  0  0  0  0  0  0
   36.3013  -27.3083   31.6440 C   0  0  0  0  0  0  0  0  0  0  0  0
   37.5095  -27.4074   30.9842 C   0  0  0  0  0  0  0  0  0  0  0  0
   37.5406  -28.2035   29.8992 N   0  0  0  0  0  0  0  0  0  0  0  0
   31.9253  -28.7132   36.8770 O   0  0  0  0  0  0  0  0  0  0  0  0
   30.7712  -30.1341   38.9803 O   0  0  0  0  0  0  0  0  0  0  0  0
   31.6738  -30.2516   37.5732 P   0  0  2  0  0  5  0  0  0  0  0  0
   33.0195  -30.8454   37.9403 O   0  0  0  0  0  0  0  0  0  0  0  0
   30.9387  -31.2111   36.4165 O   0  0  0  0  0  0  0  0  0  0  0  0
   30.4165  -28.0051   36.5723 P   0  0  1  0  0  5  0  0  0  0  0  0
   29.3939  -28.8215   37.3550 O   0  0  0  0  0  0  0  0  0  0  0  0
   30.4053  -26.3946   37.1117 O   0  0  0  0  0  0  0  0  0  0  0  0
   30.1056  -28.1131   34.9314 O   0  0  0  0  0  0  0  0  0  0  0  0
   30.6103  -29.3116   34.4443 C   0  0  0  0  0  0  0  0  0  0  0  0
   31.1158  -29.0991   33.0254 C   0  0  1  0  0  0  0  0  0  0  0  0
   32.1409  -28.1472   33.1036 O   0  0  0  0  0  0  0  0  0  0  0  0
   32.8309  -28.2524   31.8853 C   0  0  2  0  0  0  0  0  0  0  0  0
   32.8182  -29.7091   31.5190 C   0  0  2  0  0  0  0  0  0  0  0  0
   32.3654  -29.9319   30.2181 O   0  0  0  0  0  0  0  0  0  0  0  0
   31.8682  -30.3080   32.5276 C   0  0  2  0  0  0  0  0  0  0  0  0
   30.9883  -31.2067   31.9563 O   0  0  0  0  0  0  0  0  0  0  0  0
   31.1842  -32.7568   32.5988 P   0  0  1  0  0  5  0  0  0  0  0  0
   30.5656  -32.8239   33.9954 O   0  0  0  0  0  0  0  0  0  0  0  0
   30.4052  -33.8670   31.5991 O   0  0  0  0  0  0  0  0  0  0  0  0
   32.8310  -33.1096   32.7783 O   0  0  0  0  0  0  0  0  0  0  0  0
   34.1399  -27.7094   32.0459 N   0  0  0  0  0  0  0  0  0  0  0  0
   34.6205  -26.8624   32.9764 C   0  0  0  0  0  0  0  0  0  0  0  0
   35.9204  -26.6257   32.7287 N   0  0  0  0  0  0  0  0  0  0  0  0
   38.6814  -26.7043   31.4200 N   0  0  0  0  0  0  0  0  0  0  0  0
   35.3110  -28.7612   30.1199 N   0  0  0  0  0  0  0  0  0  0  0  0
  1  5  2  0
 31  1  1  0
  2  3  1  0
 27  2  1  0
  2 31  2  0
  3  4  2  0
  3 29  1  0
  4  5  1  0
  4 30  1  0
  6  8  1  0
 11  6  1  0
  8  7  1  1
  8  9  2  0
  8 10  1  0
 11 12  2  0
 11 13  1  1
 14 11  1  0
 15 14  1  1
 16 15  1  0
 16 17  1  1
 16 21  1  0
 18 17  1  0
 18 19  1  0
 18 27  1  1
 19 20  1  6
 19 21  1  0
 21 22  1  6
 22 23  1  0
 23 24  2  0
 23 25  1  6
 23 26  1  0
 27 28  1  0
 28 29  2  0
M  END
$$$$
