
     RDKit          3D

 31 33  0  0  0  0  0  0  0  0999 V2000
   29.3376  -27.8329   37.3031 C   0  0  0  0  0  0  0  0  0  0  0  0
   29.6447  -27.3961   35.0421 C   0  0  0  0  0  0  0  0  0  0  0  0
   28.4408  -26.7401   34.9951 C   0  0  0  0  0  0  0  0  0  0  0  0
   27.6831  -26.6408   36.1452 C   0  0  0  0  0  0  0  0  0  0  0  0
   28.1493  -27.1944   37.2907 N   0  0  0  0  0  0  0  0  0  0  0  0
   30.9856  -33.7631   31.5648 O   0  0  0  0  0  0  0  0  0  0  0  0
   31.4810  -36.3110   30.5404 O   0  0  0  0  0  0  0  0  0  0  0  0
   31.2042  -34.6694   30.1721 P   0  0  2  0  0  5  0  0  0  0  0  0
   32.3868  -34.1830   29.3702 O   0  0  0  0  0  0  0  0  0  0  0  0
   29.8074  -34.5316   29.2096 O   0  0  0  0  0  0  0  0  0  0  0  0
   30.1997  -32.3099   31.1894 P   0  0  1  0  0  5  0  0  0  0  0  0
   29.2440  -32.5498   30.0661 O   0  0  0  0  0  0  0  0  0  0  0  0
   29.3286  -31.7725   32.5516 O   0  0  0  0  0  0  0  0  0  0  0  0
   31.3200  -31.0918   30.8186 O   0  0  0  0  0  0  0  0  0  0  0  0
   32.2474  -30.9750   31.8450 C   0  0  0  0  0  0  0  0  0  0  0  0
   32.4456  -29.5198   32.1809 C   0  0  1  0  0  0  0  0  0  0  0  0
   31.2901  -28.8037   32.2979 O   0  0  0  0  0  0  0  0  0  0  0  0
   31.4391  -27.9044   33.3454 C   0  0  2  0  0  0  0  0  0  0  0  0
   32.1441  -28.7908   34.3819 C   0  0  2  0  0  0  0  0  0  0  0  0
   32.6712  -28.0559   35.4128 O   0  0  0  0  0  0  0  0  0  0  0  0
   33.2176  -29.3882   33.4758 C   0  0  2  0  0  0  0  0  0  0  0  0
   34.2003  -28.4264   33.2636 O   0  0  0  0  0  0  0  0  0  0  0  0
   35.7013  -28.8600   33.8373 P   0  0  1  0  0  5  0  0  0  0  0  0
   35.8001  -30.3870   33.7557 O   0  0  0  0  0  0  0  0  0  0  0  0
   36.9509  -28.2539   32.8740 O   0  0  0  0  0  0  0  0  0  0  0  0
   35.9158  -28.4627   35.4680 O   0  0  0  0  0  0  0  0  0  0  0  0
   30.2103  -27.3746   33.8238 N   0  0  0  0  0  0  0  0  0  0  0  0
   29.3299  -26.6950   33.0377 C   0  0  0  0  0  0  0  0  0  0  0  0
   28.2710  -26.3145   33.7356 N   0  0  0  0  0  0  0  0  0  0  0  0
   26.4482  -25.9590   36.0636 N   0  0  0  0  0  0  0  0  0  0  0  0
   30.1079  -27.9490   36.1905 N   0  0  0  0  0  0  0  0  0  0  0  0
  1  5  2  0
 31  1  1  0
  2  3  1  0
 27  2  1  0
  2 31  2  0
  3  4  2  0
  3 29  1  0
  4  5  1  0
  4 30  1  0
  6  8  1  0
 11  6  1  0
  8  7  1  1
  8  9  2  0
  8 10  1  0
 11 12  2  0
 11 13  1  1
 14 11  1  0
 15 14  1  0
 16 15  1  1
 17 16  1  0
 16 21  1  0
 18 17  1  0
 18 19  1  0
 18 27  1  1
 19 20  1  1
 19 21  1  0
 21 22  1  6
 22 23  1  0
 23 24  2  0
 23 25  1  6
 23 26  1  0
 27 28  1  0
 28 29  2  0
M  END
$$$$
