
     RDKit          3D

 31 33  0  0  0  0  0  0  0  0999 V2000
   33.3214  -26.2150   30.8688 C   0  0  0  0  0  0  0  0  0  0  0  0
   31.6321  -27.2285   32.1002 C   0  0  0  0  0  0  0  0  0  0  0  0
   31.5879  -26.1496   32.9464 C   0  0  0  0  0  0  0  0  0  0  0  0
   32.4427  -25.0873   32.7278 C   0  0  0  0  0  0  0  0  0  0  0  0
   33.3032  -25.1389   31.6824 N   0  0  0  0  0  0  0  0  0  0  0  0
   28.8480  -32.5713   36.6769 O   0  0  0  0  0  0  0  0  0  0  0  0
   30.5890  -30.3908   36.7090 O   0  0  0  0  0  0  0  0  0  0  0  0
   28.9905  -30.9263   36.9643 P   0  0  2  0  0  5  0  0  0  0  0  0
   28.6197  -30.5741   38.3844 O   0  0  0  0  0  0  0  0  0  0  0  0
   27.9398  -30.0981   35.9122 O   0  0  0  0  0  0  0  0  0  0  0  0
   27.6628  -32.8501   35.4988 P   0  0  1  0  0  5  0  0  0  0  0  0
   27.6468  -34.3054   35.1597 O   0  0  0  0  0  0  0  0  0  0  0  0
   26.1379  -32.4097   36.1186 O   0  0  0  0  0  0  0  0  0  0  0  0
   27.9276  -31.8838   34.1304 O   0  0  0  0  0  0  0  0  0  0  0  0
   29.0749  -32.3034   33.4710 C   0  0  0  0  0  0  0  0  0  0  0  0
   29.3685  -31.3679   32.3272 C   0  0  1  0  0  0  0  0  0  0  0  0
   29.3564  -30.0449   32.6609 O   0  0  0  0  0  0  0  0  0  0  0  0
   30.3762  -29.4105   31.9639 C   0  0  2  0  0  0  0  0  0  0  0  0
   31.5044  -30.4413   32.1117 C   0  0  2  0  0  0  0  0  0  0  0  0
   32.5470  -30.1877   31.2576 O   0  0  0  0  0  0  0  0  0  0  0  0
   30.7191  -31.6926   31.7268 C   0  0  2  0  0  0  0  0  0  0  0  0
   30.5548  -31.7021   30.3453 O   0  0  0  0  0  0  0  0  0  0  0  0
   30.7844  -33.1970   29.6506 P   0  0  1  0  0  5  0  0  0  0  0  0
   29.9153  -34.1983   30.4189 O   0  0  0  0  0  0  0  0  0  0  0  0
   30.2518  -33.2428   28.0471 O   0  0  0  0  0  0  0  0  0  0  0  0
   32.3773  -33.7476   29.7997 O   0  0  0  0  0  0  0  0  0  0  0  0
   30.7248  -28.1383   32.4924 N   0  0  0  0  0  0  0  0  0  0  0  0
   30.1301  -27.5934   33.5899 C   0  0  0  0  0  0  0  0  0  0  0  0
   30.6443  -26.4044   33.8634 N   0  0  0  0  0  0  0  0  0  0  0  0
   32.3724  -23.9915   33.6170 N   0  0  0  0  0  0  0  0  0  0  0  0
   32.4948  -27.2764   31.0549 N   0  0  0  0  0  0  0  0  0  0  0  0
  1  5  2  0
 31  1  1  0
  2  3  1  0
 27  2  1  0
  2 31  2  0
  3  4  2  0
  3 29  1  0
  4  5  1  0
  4 30  1  0
  6  8  1  0
 11  6  1  0
  8  7  1  6
  8  9  2  0
  8 10  1  0
 11 12  2  0
 11 13  1  1
 14 11  1  0
 15 14  1  0
 16 15  1  1
 17 16  1  0
 16 21  1  0
 18 17  1  0
 18 19  1  0
 18 27  1  1
 19 20  1  6
 19 21  1  0
 21 22  1  6
 22 23  1  0
 23 24  2  0
 23 25  1  6
 23 26  1  0
 27 28  1  0
 28 29  2  0
M  END
$$$$
