
     RDKit          3D

 31 33  0  0  0  0  0  0  0  0999 V2000
   29.6122  -24.3967   33.7659 C   0  0  0  0  0  0  0  0  0  0  0  0
   30.0100  -26.7282   33.7663 C   0  0  0  0  0  0  0  0  0  0  0  0
   28.7516  -26.9039   34.3171 C   0  0  0  0  0  0  0  0  0  0  0  0
   27.9217  -25.8363   34.5938 C   0  0  0  0  0  0  0  0  0  0  0  0
   28.3969  -24.6114   34.3011 N   0  0  0  0  0  0  0  0  0  0  0  0
   31.6373  -33.3443   32.3713 O   0  0  0  0  0  0  0  0  0  0  0  0
   29.1974  -34.6111   31.9056 O   0  0  0  0  0  0  0  0  0  0  0  0
   30.0075  -33.4942   32.8568 P   0  0  2  0  0  5  0  0  0  0  0  0
   29.3207  -32.1548   32.6763 O   0  0  0  0  0  0  0  0  0  0  0  0
   30.0035  -33.9080   34.4779 O   0  0  0  0  0  0  0  0  0  0  0  0
   31.6756  -32.7675   30.7788 P   0  0  1  0  0  5  0  0  0  0  0  0
   32.9831  -33.2663   30.1733 O   0  0  0  0  0  0  0  0  0  0  0  0
   30.3595  -33.3846   29.9002 O   0  0  0  0  0  0  0  0  0  0  0  0
   31.6630  -31.0946   30.8239 O   0  0  0  0  0  0  0  0  0  0  0  0
   32.9683  -30.6223   30.7804 C   0  0  0  0  0  0  0  0  0  0  0  0
   33.1038  -29.4449   31.7341 C   0  0  1  0  0  0  0  0  0  0  0  0
   31.8156  -28.9238   31.9131 O   0  0  0  0  0  0  0  0  0  0  0  0
   31.9042  -28.1158   33.0580 C   0  0  2  0  0  0  0  0  0  0  0  0
   32.8630  -28.8051   33.9862 C   0  0  2  0  0  0  0  0  0  0  0  0
   33.8733  -27.9571   34.4415 O   0  0  0  0  0  0  0  0  0  0  0  0
   33.4347  -29.9093   33.1305 C   0  0  2  0  0  0  0  0  0  0  0  0
   34.8032  -30.0336   33.2726 O   0  0  0  0  0  0  0  0  0  0  0  0
   35.2069  -31.3684   34.2262 P   0  0  1  0  0  5  0  0  0  0  0  0
   34.0810  -32.4017   34.1793 O   0  0  0  0  0  0  0  0  0  0  0  0
   36.6176  -32.0656   33.6240 O   0  0  0  0  0  0  0  0  0  0  0  0
   35.3706  -30.8998   35.8455 O   0  0  0  0  0  0  0  0  0  0  0  0
   30.5981  -27.9408   33.6035 N   0  0  0  0  0  0  0  0  0  0  0  0
   29.7133  -28.8537   34.0485 C   0  0  0  0  0  0  0  0  0  0  0  0
   28.6056  -28.2233   34.4759 N   0  0  0  0  0  0  0  0  0  0  0  0
   26.6167  -26.0070   35.1642 N   0  0  0  0  0  0  0  0  0  0  0  0
   30.3917  -25.4637   33.5107 N   0  0  0  0  0  0  0  0  0  0  0  0
  1  5  2  0
 31  1  1  0
  2  3  1  0
 27  2  1  0
  2 31  2  0
  3  4  2  0
  3 29  1  0
  4  5  1  0
  4 30  1  0
  6  8  1  0
 11  6  1  0
  8  7  1  6
  8  9  2  0
  8 10  1  0
 11 12  2  0
 11 13  1  6
 14 11  1  0
 15 14  1  1
 16 15  1  0
 16 17  1  1
 16 21  1  0
 18 17  1  0
 18 19  1  0
 18 27  1  1
 19 20  1  6
 19 21  1  0
 21 22  1  6
 22 23  1  0
 23 24  2  0
 23 25  1  6
 23 26  1  0
 27 28  1  0
 28 29  2  0
M  END
$$$$
