
     RDKit          3D

 31 33  0  0  0  0  0  0  0  0999 V2000
   38.1280  -27.5901   32.9560 C   0  0  0  0  0  0  0  0  0  0  0  0
   35.8007  -27.8094   32.5961 C   0  0  0  0  0  0  0  0  0  0  0  0
   36.0422  -27.7256   31.2351 C   0  0  0  0  0  0  0  0  0  0  0  0
   37.3175  -27.5748   30.7292 C   0  0  0  0  0  0  0  0  0  0  0  0
   38.3189  -27.5128   31.6266 N   0  0  0  0  0  0  0  0  0  0  0  0
   30.1244  -33.1099   33.1600 O   0  0  0  0  0  0  0  0  0  0  0  0
   31.5708  -31.0737   31.9204 O   0  0  0  0  0  0  0  0  0  0  0  0
   30.4745  -32.3196   31.6877 P   0  0  2  0  0  5  0  0  0  0  0  0
   29.1963  -31.7102   31.1464 O   0  0  0  0  0  0  0  0  0  0  0  0
   31.0355  -33.4776   30.6184 O   0  0  0  0  0  0  0  0  0  0  0  0
   29.8958  -31.9372   34.3613 P   0  0  1  0  0  5  0  0  0  0  0  0
   28.6063  -31.2052   34.0061 O   0  0  0  0  0  0  0  0  0  0  0  0
   29.7397  -32.6784   35.8816 O   0  0  0  0  0  0  0  0  0  0  0  0
   31.1905  -30.8778   34.3165 O   0  0  0  0  0  0  0  0  0  0  0  0
   30.8368  -29.6905   34.9442 C   0  0  0  0  0  0  0  0  0  0  0  0
   32.0865  -28.8510   35.1623 C   0  0  1  0  0  0  0  0  0  0  0  0
   32.9373  -29.1100   34.0796 O   0  0  0  0  0  0  0  0  0  0  0  0
   33.8793  -28.0689   34.0980 C   0  0  2  0  0  0  0  0  0  0  0  0
   33.1389  -26.8395   34.5414 C   0  0  2  0  0  0  0  0  0  0  0  0
   33.7702  -26.1846   35.5995 O   0  0  0  0  0  0  0  0  0  0  0  0
   31.7978  -27.3830   34.9707 C   0  0  2  0  0  0  0  0  0  0  0  0
   31.3595  -26.8312   36.1589 O   0  0  0  0  0  0  0  0  0  0  0  0
   30.5914  -25.3480   35.9053 P   0  0  1  0  0  5  0  0  0  0  0  0
   31.4127  -24.2219   36.5337 O   0  0  0  0  0  0  0  0  0  0  0  0
   30.4618  -25.0742   34.2479 O   0  0  0  0  0  0  0  0  0  0  0  0
   29.0810  -25.3352   36.6716 O   0  0  0  0  0  0  0  0  0  0  0  0
   34.4669  -27.9531   32.8037 N   0  0  0  0  0  0  0  0  0  0  0  0
   33.8923  -27.9579   31.5855 C   0  0  0  0  0  0  0  0  0  0  0  0
   34.8452  -27.8208   30.6472 N   0  0  0  0  0  0  0  0  0  0  0  0
   37.5789  -27.4869   29.3215 N   0  0  0  0  0  0  0  0  0  0  0  0
   36.8696  -27.7370   33.4099 N   0  0  0  0  0  0  0  0  0  0  0  0
  1  5  2  0
 31  1  1  0
  2  3  1  0
 27  2  1  0
  2 31  2  0
  3  4  2  0
  3 29  1  0
  4  5  1  0
  4 30  1  0
  6  8  1  0
 11  6  1  0
  8  7  1  1
  8  9  2  0
  8 10  1  0
 11 12  2  0
 11 13  1  1
 14 11  1  0
 15 14  1  1
 16 15  1  0
 16 17  1  6
 16 21  1  0
 18 17  1  0
 18 19  1  0
 18 27  1  6
 19 20  1  1
 19 21  1  0
 21 22  1  1
 22 23  1  0
 23 24  2  0
 23 25  1  6
 23 26  1  0
 27 28  1  0
 28 29  2  0
M  END
$$$$
