
     RDKit          3D

 31 33  0  0  0  0  0  0  0  0999 V2000
   30.1666  -25.2045   32.8949 C   0  0  0  0  0  0  0  0  0  0  0  0
   31.5766  -26.7973   31.9611 C   0  0  0  0  0  0  0  0  0  0  0  0
   30.8847  -26.7309   30.7783 C   0  0  0  0  0  0  0  0  0  0  0  0
   29.8090  -25.8713   30.6752 C   0  0  0  0  0  0  0  0  0  0  0  0
   29.4652  -25.1154   31.7459 N   0  0  0  0  0  0  0  0  0  0  0  0
   33.8287  -34.1972   35.8599 O   0  0  0  0  0  0  0  0  0  0  0  0
   31.7285  -33.3206   37.4746 O   0  0  0  0  0  0  0  0  0  0  0  0
   33.3905  -33.1831   37.1202 P   0  0  2  0  0  5  0  0  0  0  0  0
   33.6618  -31.7352   36.7910 O   0  0  0  0  0  0  0  0  0  0  0  0
   34.3006  -33.6022   38.4960 O   0  0  0  0  0  0  0  0  0  0  0  0
   33.3659  -33.5120   34.3811 P   0  0  1  0  0  5  0  0  0  0  0  0
   33.4213  -34.5624   33.3197 O   0  0  0  0  0  0  0  0  0  0  0  0
   31.7679  -32.9335   34.5040 O   0  0  0  0  0  0  0  0  0  0  0  0
   34.3378  -32.1752   34.0005 O   0  0  0  0  0  0  0  0  0  0  0  0
   33.8793  -31.0512   34.6741 C   0  0  0  0  0  0  0  0  0  0  0  0
   34.3740  -29.8105   33.9773 C   0  0  1  0  0  0  0  0  0  0  0  0
   33.7045  -29.5013   32.8293 O   0  0  0  0  0  0  0  0  0  0  0  0
   33.5667  -28.1211   32.7635 C   0  0  2  0  0  0  0  0  0  0  0  0
   33.1997  -27.8033   34.2201 C   0  0  2  0  0  0  0  0  0  0  0  0
   33.2945  -26.4626   34.4928 O   0  0  0  0  0  0  0  0  0  0  0  0
   34.2864  -28.6229   34.9111 C   0  0  2  0  0  0  0  0  0  0  0  0
   35.4915  -27.9359   34.8041 O   0  0  0  0  0  0  0  0  0  0  0  0
   36.1021  -27.4169   36.2629 P   0  0  1  0  0  5  0  0  0  0  0  0
   37.5815  -27.8136   36.3083 O   0  0  0  0  0  0  0  0  0  0  0  0
   36.0601  -25.7335   36.4083 O   0  0  0  0  0  0  0  0  0  0  0  0
   35.3712  -28.1802   37.5843 O   0  0  0  0  0  0  0  0  0  0  0  0
   32.5748  -27.6884   31.8424 N   0  0  0  0  0  0  0  0  0  0  0  0
   32.4767  -28.1611   30.5689 C   0  0  0  0  0  0  0  0  0  0  0  0
   31.4670  -27.5902   29.9305 N   0  0  0  0  0  0  0  0  0  0  0  0
   29.1173  -25.8264   29.4439 N   0  0  0  0  0  0  0  0  0  0  0  0
   31.2294  -26.0391   33.0305 N   0  0  0  0  0  0  0  0  0  0  0  0
  1  5  2  0
 31  1  1  0
  2  3  1  0
 27  2  1  0
  2 31  2  0
  3  4  2  0
  3 29  1  0
  4  5  1  0
  4 30  1  0
  6  8  1  0
 11  6  1  0
  8  7  1  1
  8  9  2  0
  8 10  1  0
 11 12  2  0
 11 13  1  1
 14 11  1  0
 15 14  1  0
 16 15  1  1
 17 16  1  0
 16 21  1  0
 18 17  1  0
 18 19  1  0
 18 27  1  6
 19 20  1  6
 19 21  1  0
 21 22  1  6
 22 23  1  0
 23 24  2  0
 23 25  1  1
 23 26  1  0
 27 28  1  0
 28 29  2  0
M  END
$$$$
