
     RDKit          3D

 31 33  0  0  0  0  0  0  0  0999 V2000
   29.2754  -28.4704   36.9221 C   0  0  0  0  0  0  0  0  0  0  0  0
   30.0347  -27.2981   35.0657 C   0  0  0  0  0  0  0  0  0  0  0  0
   29.0502  -26.3593   35.2434 C   0  0  0  0  0  0  0  0  0  0  0  0
   28.1669  -26.5012   36.2952 C   0  0  0  0  0  0  0  0  0  0  0  0
   28.2960  -27.5648   37.1246 N   0  0  0  0  0  0  0  0  0  0  0  0
   29.5337  -33.0690   30.8785 O   0  0  0  0  0  0  0  0  0  0  0  0
   30.4098  -35.0073   29.0722 O   0  0  0  0  0  0  0  0  0  0  0  0
   30.8631  -33.7158   30.0889 P   0  0  2  0  0  5  0  0  0  0  0  0
   31.8857  -34.2481   31.0632 O   0  0  0  0  0  0  0  0  0  0  0  0
   31.5917  -32.4905   29.1592 O   0  0  0  0  0  0  0  0  0  0  0  0
   30.0364  -31.8757   31.9711 P   0  0  1  0  0  5  0  0  0  0  0  0
   28.8336  -31.2781   32.6260 O   0  0  0  0  0  0  0  0  0  0  0  0
   31.0218  -32.5855   33.1662 O   0  0  0  0  0  0  0  0  0  0  0  0
   30.9839  -30.7024   31.1953 O   0  0  0  0  0  0  0  0  0  0  0  0
   32.2569  -30.6822   31.7487 C   0  0  0  0  0  0  0  0  0  0  0  0
   32.6296  -29.2658   32.1019 C   0  0  1  0  0  0  0  0  0  0  0  0
   31.5670  -28.4440   32.3410 O   0  0  0  0  0  0  0  0  0  0  0  0
   31.8970  -27.6000   33.3931 C   0  0  2  0  0  0  0  0  0  0  0  0
   32.5968  -28.5863   34.3389 C   0  0  2  0  0  0  0  0  0  0  0  0
   33.2836  -27.9424   35.3362 O   0  0  0  0  0  0  0  0  0  0  0  0
   33.5212  -29.2550   33.3246 C   0  0  2  0  0  0  0  0  0  0  0  0
   34.5736  -28.3877   33.0488 O   0  0  0  0  0  0  0  0  0  0  0  0
   35.9772  -29.1567   32.5918 P   0  0  1  0  0  5  0  0  0  0  0  0
   35.9025  -29.3867   31.0787 O   0  0  0  0  0  0  0  0  0  0  0  0
   37.3438  -28.1982   32.8567 O   0  0  0  0  0  0  0  0  0  0  0  0
   36.1388  -30.6887   33.2915 O   0  0  0  0  0  0  0  0  0  0  0  0
   30.7745  -26.9687   33.9939 N   0  0  0  0  0  0  0  0  0  0  0  0
   30.2226  -25.8153   33.5249 C   0  0  0  0  0  0  0  0  0  0  0  0
   29.1915  -25.4488   34.2701 N   0  0  0  0  0  0  0  0  0  0  0  0
   27.1645  -25.5175   36.4508 N   0  0  0  0  0  0  0  0  0  0  0  0
   30.1607  -28.3613   35.8980 N   0  0  0  0  0  0  0  0  0  0  0  0
  1  5  2  0
 31  1  1  0
  2  3  1  0
 27  2  1  0
  2 31  2  0
  3  4  2  0
  3 29  1  0
  4  5  1  0
  4 30  1  0
  6  8  1  0
 11  6  1  0
  8  7  1  6
  8  9  2  0
  8 10  1  0
 11 12  2  0
 11 13  1  1
 14 11  1  0
 15 14  1  0
 16 15  1  1
 17 16  1  0
 16 21  1  0
 18 17  1  0
 18 19  1  0
 18 27  1  1
 19 20  1  1
 19 21  1  0
 21 22  1  6
 22 23  1  0
 23 24  2  0
 23 25  1  6
 23 26  1  0
 27 28  1  0
 28 29  2  0
M  END
$$$$
