
     RDKit          3D

 31 33  0  0  0  0  0  0  0  0999 V2000
   28.8641  -32.4785   32.4686 C   0  0  0  0  0  0  0  0  0  0  0  0
   29.9445  -30.7536   31.2639 C   0  0  0  0  0  0  0  0  0  0  0  0
   29.5734  -31.3919   30.0923 C   0  0  0  0  0  0  0  0  0  0  0  0
   28.8511  -32.5681   30.1006 C   0  0  0  0  0  0  0  0  0  0  0  0
   28.5238  -33.0663   31.3075 N   0  0  0  0  0  0  0  0  0  0  0  0
   36.9026  -30.9134   33.6708 O   0  0  0  0  0  0  0  0  0  0  0  0
   37.9135  -30.4143   31.1206 O   0  0  0  0  0  0  0  0  0  0  0  0
   36.5542  -30.8452   32.0009 P   0  0  2  0  0  5  0  0  0  0  0  0
   35.5002  -29.7809   31.7667 O   0  0  0  0  0  0  0  0  0  0  0  0
   35.9463  -32.3386   31.5544 O   0  0  0  0  0  0  0  0  0  0  0  0
   36.3711  -29.4757   34.3926 P   0  0  1  0  0  5  0  0  0  0  0  0
   35.9540  -29.8380   35.8137 O   0  0  0  0  0  0  0  0  0  0  0  0
   37.6325  -28.3389   34.4326 O   0  0  0  0  0  0  0  0  0  0  0  0
   35.0520  -28.9102   33.5317 O   0  0  0  0  0  0  0  0  0  0  0  0
   33.8824  -29.3356   34.1478 C   0  0  0  0  0  0  0  0  0  0  0  0
   32.7021  -28.5882   33.5458 C   0  0  1  0  0  0  0  0  0  0  0  0
   32.4591  -29.1658   32.2927 O   0  0  0  0  0  0  0  0  0  0  0  0
   31.1697  -28.7385   31.9373 C   0  0  2  0  0  0  0  0  0  0  0  0
   30.3750  -28.6950   33.2111 C   0  0  2  0  0  0  0  0  0  0  0  0
   29.7231  -27.4753   33.3962 O   0  0  0  0  0  0  0  0  0  0  0  0
   31.4224  -28.9104   34.2764 C   0  0  2  0  0  0  0  0  0  0  0  0
   31.2670  -28.0565   35.3510 O   0  0  0  0  0  0  0  0  0  0  0  0
   30.5653  -28.8448   36.6703 P   0  0  1  0  0  5  0  0  0  0  0  0
   30.7877  -30.3530   36.5545 O   0  0  0  0  0  0  0  0  0  0  0  0
   31.2879  -28.2903   38.0877 O   0  0  0  0  0  0  0  0  0  0  0  0
   28.8897  -28.5985   36.6727 O   0  0  0  0  0  0  0  0  0  0  0  0
   30.6403  -29.6291   30.9572 N   0  0  0  0  0  0  0  0  0  0  0  0
   30.6979  -29.5742   29.6125 C   0  0  0  0  0  0  0  0  0  0  0  0
   30.0545  -30.6371   29.0993 N   0  0  0  0  0  0  0  0  0  0  0  0
   28.4616  -33.2375   28.8932 N   0  0  0  0  0  0  0  0  0  0  0  0
   29.5684  -31.3328   32.4185 N   0  0  0  0  0  0  0  0  0  0  0  0
  1  5  2  0
 31  1  1  0
  2  3  1  0
 27  2  1  0
  2 31  2  0
  3  4  2  0
  3 29  1  0
  4  5  1  0
  4 30  1  0
  6  8  1  0
 11  6  1  0
  8  7  1  6
  8  9  2  0
  8 10  1  0
 11 12  2  0
 11 13  1  1
 14 11  1  0
 15 14  1  1
 16 15  1  0
 16 17  1  6
 16 21  1  0
 18 17  1  0
 18 19  1  0
 18 27  1  6
 19 20  1  1
 19 21  1  0
 21 22  1  1
 22 23  1  0
 23 24  2  0
 23 25  1  1
 23 26  1  0
 27 28  1  0
 28 29  2  0
M  END
$$$$
