
     RDKit          3D

 31 33  0  0  0  0  0  0  0  0999 V2000
   28.0447  -29.2353   35.4747 C   0  0  0  0  0  0  0  0  0  0  0  0
   29.3890  -27.6661   34.4129 C   0  0  0  0  0  0  0  0  0  0  0  0
   28.4386  -26.6983   34.6182 C   0  0  0  0  0  0  0  0  0  0  0  0
   27.2686  -27.0318   35.2713 C   0  0  0  0  0  0  0  0  0  0  0  0
   27.0901  -28.3072   35.6924 N   0  0  0  0  0  0  0  0  0  0  0  0
   31.0510  -33.0292   31.9513 O   0  0  0  0  0  0  0  0  0  0  0  0
   31.9357  -35.6384   31.5088 O   0  0  0  0  0  0  0  0  0  0  0  0
   32.0989  -33.9982   31.0728 P   0  0  2  0  0  5  0  0  0  0  0  0
   33.5401  -33.6130   31.3031 O   0  0  0  0  0  0  0  0  0  0  0  0
   31.7501  -33.8138   29.4172 O   0  0  0  0  0  0  0  0  0  0  0  0
   30.2895  -31.9211   30.9204 P   0  0  1  0  0  5  0  0  0  0  0  0
   29.9307  -32.6111   29.6444 O   0  0  0  0  0  0  0  0  0  0  0  0
   28.8647  -31.3506   31.6605 O   0  0  0  0  0  0  0  0  0  0  0  0
   31.2731  -30.5657   30.6526 O   0  0  0  0  0  0  0  0  0  0  0  0
   32.3763  -30.6093   31.4942 C   0  0  0  0  0  0  0  0  0  0  0  0
   32.6495  -29.2308   32.0374 C   0  0  1  0  0  0  0  0  0  0  0  0
   31.5441  -28.4397   32.1549 O   0  0  0  0  0  0  0  0  0  0  0  0
   31.6620  -27.6969   33.3221 C   0  0  2  0  0  0  0  0  0  0  0  0
   32.2013  -28.7649   34.2843 C   0  0  2  0  0  0  0  0  0  0  0  0
   32.6841  -28.2146   35.4441 O   0  0  0  0  0  0  0  0  0  0  0  0
   33.3067  -29.3313   33.3968 C   0  0  2  0  0  0  0  0  0  0  0  0
   34.3729  -28.4375   33.3965 O   0  0  0  0  0  0  0  0  0  0  0  0
   35.8040  -29.0970   33.9326 P   0  0  1  0  0  5  0  0  0  0  0  0
   36.5350  -29.6623   32.7103 O   0  0  0  0  0  0  0  0  0  0  0  0
   36.8312  -27.9326   34.6002 O   0  0  0  0  0  0  0  0  0  0  0  0
   35.5673  -30.4024   34.9827 O   0  0  0  0  0  0  0  0  0  0  0  0
   30.4368  -27.1296   33.7655 N   0  0  0  0  0  0  0  0  0  0  0  0
   30.1061  -25.8213   33.5819 C   0  0  0  0  0  0  0  0  0  0  0  0
   28.9120  -25.5607   34.0907 N   0  0  0  0  0  0  0  0  0  0  0  0
   26.3099  -26.0124   35.4671 N   0  0  0  0  0  0  0  0  0  0  0  0
   29.2067  -28.9416   34.8359 N   0  0  0  0  0  0  0  0  0  0  0  0
  1  5  2  0
 31  1  1  0
  2  3  1  0
 27  2  1  0
  2 31  2  0
  3  4  2  0
  3 29  1  0
  4  5  1  0
  4 30  1  0
  6  8  1  0
 11  6  1  0
  8  7  1  1
  8  9  2  0
  8 10  1  0
 11 12  2  0
 11 13  1  1
 14 11  1  0
 15 14  1  0
 16 15  1  1
 17 16  1  0
 16 21  1  0
 18 17  1  0
 18 19  1  0
 18 27  1  1
 19 20  1  1
 19 21  1  0
 21 22  1  6
 22 23  1  0
 23 24  2  0
 23 25  1  1
 23 26  1  0
 27 28  1  0
 28 29  2  0
M  END
$$$$
