
     RDKit          3D

 31 33  0  0  0  0  0  0  0  0999 V2000
   27.6084  -27.5024   32.6586 C   0  0  0  0  0  0  0  0  0  0  0  0
   29.2653  -28.0946   34.1754 C   0  0  0  0  0  0  0  0  0  0  0  0
   28.7165  -27.2603   35.1160 C   0  0  0  0  0  0  0  0  0  0  0  0
   27.5838  -26.5383   34.7962 C   0  0  0  0  0  0  0  0  0  0  0  0
   27.0439  -26.6732   33.5607 N   0  0  0  0  0  0  0  0  0  0  0  0
   37.2747  -28.3147   33.1287 O   0  0  0  0  0  0  0  0  0  0  0  0
   38.6230  -27.5910   30.7952 O   0  0  0  0  0  0  0  0  0  0  0  0
   37.6067  -28.7386   31.5415 P   0  0  2  0  0  5  0  0  0  0  0  0
   36.3478  -28.8300   30.7138 O   0  0  0  0  0  0  0  0  0  0  0  0
   38.3680  -30.2608   31.5338 O   0  0  0  0  0  0  0  0  0  0  0  0
   35.9867  -27.2151   33.1743 P   0  0  1  0  0  5  0  0  0  0  0  0
   36.2878  -26.1548   34.1834 O   0  0  0  0  0  0  0  0  0  0  0  0
   35.8123  -26.4881   31.6432 O   0  0  0  0  0  0  0  0  0  0  0  0
   34.5237  -28.0067   33.5048 O   0  0  0  0  0  0  0  0  0  0  0  0
   34.6152  -29.3416   33.1349 C   0  0  0  0  0  0  0  0  0  0  0  0
   33.3787  -30.0746   33.5858 C   0  0  1  0  0  0  0  0  0  0  0  0
   32.5905  -29.3748   34.4522 O   0  0  0  0  0  0  0  0  0  0  0  0
   31.2626  -29.6331   34.1390 C   0  0  2  0  0  0  0  0  0  0  0  0
   31.3161  -29.5725   32.6058 C   0  0  2  0  0  0  0  0  0  0  0  0
   30.1812  -30.0854   32.0315 O   0  0  0  0  0  0  0  0  0  0  0  0
   32.5391  -30.4594   32.3870 C   0  0  2  0  0  0  0  0  0  0  0  0
   32.1599  -31.7856   32.5690 O   0  0  0  0  0  0  0  0  0  0  0  0
   32.5359  -32.7753   31.2847 P   0  0  1  0  0  5  0  0  0  0  0  0
   32.0443  -32.0802   30.0106 O   0  0  0  0  0  0  0  0  0  0  0  0
   34.2042  -32.9736   31.1005 O   0  0  0  0  0  0  0  0  0  0  0  0
   31.7296  -34.2615   31.3490 O   0  0  0  0  0  0  0  0  0  0  0  0
   30.3511  -28.6937   34.6922 N   0  0  0  0  0  0  0  0  0  0  0  0
   30.4513  -28.2090   35.9611 C   0  0  0  0  0  0  0  0  0  0  0  0
   29.4753  -27.3518   36.2170 N   0  0  0  0  0  0  0  0  0  0  0  0
   27.0430  -25.6880   35.7867 N   0  0  0  0  0  0  0  0  0  0  0  0
   28.7221  -28.2269   32.9399 N   0  0  0  0  0  0  0  0  0  0  0  0
  1  5  2  0
 31  1  1  0
  2  3  1  0
 27  2  1  0
  2 31  2  0
  3  4  2  0
  3 29  1  0
  4  5  1  0
  4 30  1  0
  6  8  1  0
 11  6  1  0
  8  7  1  6
  8  9  2  0
  8 10  1  0
 11 12  2  0
 11 13  1  6
 14 11  1  0
 15 14  1  0
 16 15  1  6
 17 16  1  0
 16 21  1  0
 18 17  1  0
 18 19  1  0
 18 27  1  1
 19 20  1  6
 19 21  1  0
 21 22  1  1
 22 23  1  0
 23 24  2  0
 23 25  1  6
 23 26  1  0
 27 28  1  0
 28 29  2  0
M  END
$$$$
