
     RDKit          3D

 96 98  0  0  0  0  0  0  0  0999 V2000
    0.9045   -1.1087   20.5912 N   0  0  0  0  0  4  0  0  0  0  0  0
    1.0800   -1.0281   21.9952 C   0  0  2  0  0  0  0  0  0  0  0  0
   -0.2220   -0.5092   22.5765 C   0  0  0  0  0  0  0  0  0  0  0  0
   -0.1928   -0.0573   23.7467 O   0  0  0  0  0  0  0  0  0  0  0  0
    2.2360   -0.2485   22.4950 C   0  0  0  0  0  0  0  0  0  0  0  0
    2.4679   -0.2337   23.9576 C   0  0  0  0  0  0  0  0  0  0  0  0
    3.7963    0.1786   24.3760 C   0  0  0  0  0  0  0  0  0  0  0  0
    4.3991   -0.3607   25.5138 O   0  0  0  0  0  0  0  0  0  0  0  0
    4.4660    1.0298   23.7477 O   0  0  0  0  0  0  0  0  0  0  0  0
   -1.4198   -0.5164   21.8523 N   0  0  0  0  0  0  0  0  0  0  0  0
   -2.7552   -0.5440   22.3761 C   0  0  2  0  0  0  0  0  0  0  0  0
   -2.8475   -0.7322   23.8041 C   0  0  0  0  0  0  0  0  0  0  0  0
   -2.0099   -1.4586   24.4411 O   0  0  0  0  0  0  0  0  0  0  0  0
   -3.6327   -1.5024   21.5948 C   0  0  2  0  0  0  0  0  0  0  0  0
   -3.2410   -2.9306   21.8611 C   0  0  0  0  0  0  0  0  0  0  0  0
   -3.6822   -1.2705   20.1278 C   0  0  0  0  0  0  0  0  0  0  0  0
   -4.2188   -3.8674   21.0876 C   0  0  0  0  0  0  0  0  0  0  0  0
   -3.8383   -0.1601   24.6786 N   0  0  0  0  0  0  0  0  0  0  0  0
   -3.6876   -0.3255   26.0827 C   0  0  2  0  0  0  0  0  0  0  0  0
   -4.9194   -0.9831   26.6928 C   0  0  0  0  0  0  0  0  0  0  0  0
   -5.7410   -0.1965   27.1972 O   0  0  0  0  0  0  0  0  0  0  0  0
   -3.4242    0.9367   26.8391 C   0  0  0  0  0  0  0  0  0  0  0  0
   -2.7819    0.7734   28.1784 C   0  0  0  0  0  0  0  0  0  0  0  0
   -3.3708   -0.2748   29.0633 C   0  0  0  0  0  0  0  0  0  0  0  0
   -2.7092   -0.3110   30.3628 N   0  0  0  0  0  0  0  0  0  0  0  0
   -2.9926    0.7402   31.2664 C   0  0  0  0  0  0  0  0  0  0  0  0
   -2.1285    1.8433   31.4757 N   0  0  0  0  0  0  0  0  0  0  0  0
   -4.1048    0.6756   31.9304 N   0  0  0  0  0  0  0  0  0  0  0  0
   -5.1535   -2.3631   26.7052 N   0  0  0  0  0  0  0  0  0  0  0  0
   -5.3157   -3.1782   27.8826 C   0  0  2  0  0  0  0  0  0  0  0  0
   -6.3147   -2.5798   28.7770 C   0  0  0  0  0  0  0  0  0  0  0  0
   -7.1437   -3.3384   29.3361 O   0  0  0  0  0  0  0  0  0  0  0  0
   -3.9586   -3.3596   28.4761 C   0  0  0  0  0  0  0  0  0  0  0  0
   -2.9965   -4.1650   27.6716 C   0  0  0  0  0  0  0  0  0  0  0  0
   -1.7475   -4.3695   28.5116 C   0  0  0  0  0  0  0  0  0  0  0  0
   -1.3717   -5.7599   28.4781 N   0  0  0  0  0  0  0  0  0  0  0  0
   -0.0816   -6.1200   27.9295 C   0  0  0  0  0  0  0  0  0  0  0  0
    1.0494   -5.2979   27.9819 N   0  0  0  0  0  0  0  0  0  0  0  0
   -0.0241   -7.2773   27.3701 N   0  0  0  0  0  0  0  0  0  0  0  0
   -6.4042   -1.2014   29.0524 N   0  0  0  0  0  0  0  0  0  0  0  0
   -6.7919   -0.6529   30.3032 C   0  0  2  0  0  0  0  0  0  0  0  0
   -6.7739    0.7867   30.4772 C   0  0  0  0  0  0  0  0  0  0  0  0
   -5.6159    1.3917   30.4087 O   0  0  0  0  0  0  0  0  0  0  0  0
   -6.0896   -1.3571   31.4779 C   0  0  1  0  0  0  0  0  0  0  0  0
   -6.8946   -1.6386   32.6654 C   0  0  0  0  0  0  0  0  0  0  0  0
   -5.6111   -2.6928   30.9125 C   0  0  0  0  0  0  0  0  0  0  0  0
   -7.8121    1.7106   30.7137 N   0  0  0  0  0  0  0  0  0  0  0  0
   -8.3428    2.7088   29.8555 C   0  0  2  0  0  0  0  0  0  0  0  0
   -8.2939    4.0964   30.1087 C   0  0  0  0  0  0  0  0  0  0  0  0
   -8.8515    4.5706   31.1638 O   0  0  0  0  0  0  0  0  0  0  0  0
   -9.8050    2.1748   29.7832 C   0  0  0  0  0  0  0  0  0  0  0  0
  -10.0361    2.0514   31.2770 C   0  0  0  0  0  0  0  0  0  0  0  0
   -8.6409    1.7664   31.8801 C   0  0  0  0  0  0  0  0  0  0  0  0
   -7.6784    5.0801   29.2936 N   0  0  0  0  0  0  0  0  0  0  0  0
   -7.7327    6.5149   29.5508 C   0  0  2  0  0  0  0  0  0  0  0  0
   -9.0934    6.8796   30.0596 C   0  0  0  0  0  0  0  0  0  0  0  0
  -10.1223    6.4431   29.5045 O   0  0  0  0  0  0  0  0  0  0  0  0
   -7.4143    7.2497   28.2713 C   0  0  0  0  0  0  0  0  0  0  0  0
   -7.1451    6.2788   27.1446 C   0  0  0  0  0  0  0  0  0  0  0  0
   -5.8408    5.5951   27.3166 C   0  0  0  0  0  0  0  0  0  0  0  0
   -4.7864    6.1793   26.9465 O   0  0  0  0  0  0  0  0  0  0  0  0
   -5.6929    4.3296   27.8677 O   0  0  0  0  0  0  0  0  0  0  0  0
   -9.2495    7.7302   31.1952 N   0  0  0  0  0  0  0  0  0  0  0  0
   -9.2577    9.1824   31.1245 C   0  0  2  0  0  0  0  0  0  0  0  0
   -9.4592    9.8365   32.4006 C   0  0  0  0  0  0  0  0  0  0  0  0
   -9.3450   11.0839   32.4684 O   0  0  0  0  0  0  0  0  0  0  0  0
  -10.2146    9.6712   30.0726 C   0  0  0  0  0  0  0  0  0  0  0  0
   -9.6377   10.5615   29.0596 C   0  0  0  0  0  0  0  0  0  0  0  0
   -8.4916   10.2803   28.3763 C   0  0  0  0  0  0  0  0  0  0  0  0
  -10.2628   11.7707   28.7721 C   0  0  0  0  0  0  0  0  0  0  0  0
   -7.9252   11.1102   27.4350 C   0  0  0  0  0  0  0  0  0  0  0  0
   -9.7088   12.6123   27.8317 C   0  0  0  0  0  0  0  0  0  0  0  0
   -8.5416   12.3145   27.1437 C   0  0  0  0  0  0  0  0  0  0  0  0
   -9.7789    9.1636   33.6208 N   0  0  0  0  0  0  0  0  0  0  0  0
   -8.8063    8.7589   34.5905 C   0  0  0  0  0  0  0  0  0  0  0  0
   -8.5061    9.7513   35.6394 C   0  0  0  0  0  0  0  0  0  0  0  0
   -7.6550    9.5277   36.5522 O   0  0  0  0  0  0  0  0  0  0  0  0
   -9.1832   10.9909   35.6350 N   0  0  0  0  0  0  0  0  0  0  0  0
  -10.2463   11.3441   34.7282 C   0  0  0  0  0  0  0  0  0  0  0  0
  -11.4718   10.5653   34.8893 C   0  0  0  0  0  0  0  0  0  0  0  0
  -12.2992   10.4308   33.9242 O   0  0  0  0  0  0  0  0  0  0  0  0
  -11.7824    9.9335   36.0982 N   0  0  0  0  0  0  0  0  0  0  0  0
  -12.9392    9.0472   36.2813 C   0  0  2  0  0  0  0  0  0  0  0  0
  -14.1107    9.8341   36.6744 C   0  0  0  0  0  0  0  0  0  0  0  0
  -14.0216   11.1144   36.6487 O   0  0  0  0  0  0  0  0  0  0  0  0
  -12.5456    8.0080   37.2965 C   0  0  0  0  0  0  0  0  0  0  0  0
  -11.4581    7.1256   36.8850 C   0  0  0  0  0  0  0  0  0  0  0  0
  -11.0151    6.1291   37.7494 C   0  0  0  0  0  0  0  0  0  0  0  0
  -10.8848    7.2585   35.6402 C   0  0  0  0  0  0  0  0  0  0  0  0
  -10.0083    5.2978   37.3235 C   0  0  0  0  0  0  0  0  0  0  0  0
   -9.8776    6.4145   35.2410 C   0  0  0  0  0  0  0  0  0  0  0  0
   -9.4149    5.4051   36.0857 C   0  0  0  0  0  0  0  0  0  0  0  0
   -8.3956    4.5595   35.6653 O   0  0  0  0  0  0  0  0  0  0  0  0
  -15.3308    9.3288   37.0813 O   0  0  0  0  0  0  0  0  0  0  0  0
   -5.0330    0.8385   31.4438 H   0  0  0  0  0  0  0  0  0  0  0  0
   -0.7795   -7.9561   27.5034 H   0  0  0  0  0  0  0  0  0  0  0  0
  2  1  1  6
  2  3  1  0
  2  5  1  0
  3  4  2  0
  3 10  1  0
  5  6  1  0
  6  7  1  0
  7  8  1  0
  7  9  2  0
 11 10  1  6
 11 12  1  0
 11 14  1  0
 12 13  2  0
 12 18  1  0
 14 15  1  0
 14 16  1  6
 15 17  1  0
 18 19  1  0
 19 20  1  0
 19 22  1  1
 20 21  2  0
 20 29  1  0
 22 23  1  0
 23 24  1  0
 24 25  1  0
 25 26  1  0
 26 27  1  0
 26 28  2  0
 29 30  1  0
 30 31  1  0
 30 33  1  1
 31 32  2  0
 31 40  1  0
 33 34  1  0
 34 35  1  0
 35 36  1  0
 36 37  1  0
 37 38  1  0
 37 39  2  0
 41 40  1  6
 41 42  1  0
 41 44  1  0
 42 43  2  0
 42 47  1  0
 44 45  1  1
 44 46  1  0
 47 48  1  0
 47 53  1  0
 48 49  1  1
 48 51  1  0
 49 50  2  0
 49 54  1  0
 51 52  1  0
 52 53  1  0
 54 55  1  0
 55 56  1  0
 55 58  1  6
 56 57  2  0
 56 63  1  0
 58 59  1  0
 59 60  1  0
 60 61  2  0
 60 62  1  0
 63 64  1  0
 64 65  1  0
 64 67  1  6
 65 66  2  0
 65 74  1  0
 67 68  1  0
 68 69  2  0
 68 70  1  0
 69 71  1  0
 70 72  2  0
 71 73  2  0
 72 73  1  0
 74 75  1  0
 75 76  1  0
 76 77  2  0
 76 78  1  0
 78 79  1  0
 79 80  1  0
 80 81  2  0
 80 82  1  0
 82 83  1  0
 83 84  1  0
 83 86  1  1
 84 85  2  0
 84 94  1  0
 86 87  1  0
 87 88  2  0
 87 89  1  0
 88 90  1  0
 89 91  2  0
 90 92  2  0
 91 92  1  0
 92 93  1  0
 28 95  1  0
 39 96  1  0
M  CHG  1   1   1
M  END
$$$$
