
     RDKit          3D

 96 98  0  0  0  0  0  0  0  0999 V2000
    2.3497   -4.6762   27.7519 N   0  0  0  0  0  4  0  0  0  0  0  0
    1.7839   -5.9734   27.6790 C   0  0  2  0  0  0  0  0  0  0  0  0
    0.9892   -6.0396   26.3881 C   0  0  0  0  0  0  0  0  0  0  0  0
    1.5345   -6.5905   25.4014 O   0  0  0  0  0  0  0  0  0  0  0  0
    0.9710   -6.4294   28.8302 C   0  0  0  0  0  0  0  0  0  0  0  0
    1.5634   -6.2929   30.1805 C   0  0  0  0  0  0  0  0  0  0  0  0
    2.9330   -6.7586   30.3125 C   0  0  0  0  0  0  0  0  0  0  0  0
    3.2726   -8.0915   30.0745 O   0  0  0  0  0  0  0  0  0  0  0  0
    3.8728   -6.0003   30.6430 O   0  0  0  0  0  0  0  0  0  0  0  0
   -0.3064   -5.5207   26.2800 N   0  0  0  0  0  0  0  0  0  0  0  0
   -1.1669   -5.5562   25.1325 C   0  0  2  0  0  0  0  0  0  0  0  0
   -1.8865   -4.3328   24.8706 C   0  0  0  0  0  0  0  0  0  0  0  0
   -2.8633   -3.9579   25.6058 O   0  0  0  0  0  0  0  0  0  0  0  0
   -2.0649   -6.7776   25.1560 C   0  0  2  0  0  0  0  0  0  0  0  0
   -2.9671   -6.8063   23.9522 C   0  0  0  0  0  0  0  0  0  0  0  0
   -2.8803   -6.9465   26.3869 C   0  0  0  0  0  0  0  0  0  0  0  0
   -2.9591   -5.3943   23.2904 C   0  0  0  0  0  0  0  0  0  0  0  0
   -1.6261   -3.4002   23.8046 N   0  0  0  0  0  0  0  0  0  0  0  0
   -2.4516   -2.2486   23.6875 C   0  0  2  0  0  0  0  0  0  0  0  0
   -3.5004   -2.2110   24.7923 C   0  0  0  0  0  0  0  0  0  0  0  0
   -4.3864   -3.0805   24.7072 O   0  0  0  0  0  0  0  0  0  0  0  0
   -3.1637   -2.1167   22.3797 C   0  0  0  0  0  0  0  0  0  0  0  0
   -3.7633   -0.7780   22.0948 C   0  0  0  0  0  0  0  0  0  0  0  0
   -3.2199   -0.0571   20.9058 C   0  0  0  0  0  0  0  0  0  0  0  0
   -2.8679   -0.9823   19.8343 N   0  0  0  0  0  0  0  0  0  0  0  0
   -1.5800   -1.5667   19.8767 C   0  0  0  0  0  0  0  0  0  0  0  0
   -0.4495   -0.9232   20.4379 N   0  0  0  0  0  0  0  0  0  0  0  0
   -1.4439   -2.7530   19.3709 N   0  0  0  0  0  0  0  0  0  0  0  0
   -3.5056   -1.2888   25.8453 N   0  0  0  0  0  0  0  0  0  0  0  0
   -4.6736   -0.8204   26.5476 C   0  0  2  0  0  0  0  0  0  0  0  0
   -4.4014    0.4828   27.1669 C   0  0  0  0  0  0  0  0  0  0  0  0
   -3.6546    0.5185   28.1750 O   0  0  0  0  0  0  0  0  0  0  0  0
   -5.0751   -1.9024   27.4937 C   0  0  0  0  0  0  0  0  0  0  0  0
   -5.3934   -3.2224   26.8790 C   0  0  0  0  0  0  0  0  0  0  0  0
   -5.6658   -4.2044   28.0054 C   0  0  0  0  0  0  0  0  0  0  0  0
   -6.0061   -5.4884   27.4478 N   0  0  0  0  0  0  0  0  0  0  0  0
   -7.3708   -5.7264   27.0283 C   0  0  0  0  0  0  0  0  0  0  0  0
   -8.3406   -4.7246   26.9111 N   0  0  0  0  0  0  0  0  0  0  0  0
   -7.6589   -6.9510   26.7583 N   0  0  0  0  0  0  0  0  0  0  0  0
   -4.9252    1.7043   26.7006 N   0  0  0  0  0  0  0  0  0  0  0  0
   -4.6736    2.9687   27.2956 C   0  0  2  0  0  0  0  0  0  0  0  0
   -5.7538    3.6531   27.9794 C   0  0  0  0  0  0  0  0  0  0  0  0
   -5.4833    4.8025   28.5428 O   0  0  0  0  0  0  0  0  0  0  0  0
   -3.9453    3.9197   26.3291 C   0  0  1  0  0  0  0  0  0  0  0  0
   -3.0610    4.9233   26.9194 C   0  0  0  0  0  0  0  0  0  0  0  0
   -3.0938    3.0120   25.4438 C   0  0  0  0  0  0  0  0  0  0  0  0
   -7.1083    3.3083   28.1627 N   0  0  0  0  0  0  0  0  0  0  0  0
   -8.2292    4.1486   28.3904 C   0  0  2  0  0  0  0  0  0  0  0  0
   -9.0209    4.1348   29.5587 C   0  0  0  0  0  0  0  0  0  0  0  0
  -10.1515    4.7435   29.5683 O   0  0  0  0  0  0  0  0  0  0  0  0
   -9.0471    3.7647   27.1206 C   0  0  0  0  0  0  0  0  0  0  0  0
   -8.9927    2.2607   27.3074 C   0  0  0  0  0  0  0  0  0  0  0  0
   -7.6652    1.9935   28.0543 C   0  0  0  0  0  0  0  0  0  0  0  0
   -8.6985    3.5040   30.7871 N   0  0  0  0  0  0  0  0  0  0  0  0
   -8.9080    4.1026   32.1007 C   0  0  2  0  0  0  0  0  0  0  0  0
   -9.3795    5.5146   31.9362 C   0  0  0  0  0  0  0  0  0  0  0  0
   -9.4997    6.0211   30.8020 O   0  0  0  0  0  0  0  0  0  0  0  0
   -7.6113    4.0472   32.8716 C   0  0  0  0  0  0  0  0  0  0  0  0
   -7.7609    4.7009   34.2261 C   0  0  0  0  0  0  0  0  0  0  0  0
   -6.5168    5.3967   34.6338 C   0  0  0  0  0  0  0  0  0  0  0  0
   -5.4781    5.2620   33.9317 O   0  0  0  0  0  0  0  0  0  0  0  0
   -6.4099    6.2037   35.7583 O   0  0  0  0  0  0  0  0  0  0  0  0
   -9.7093    6.3160   33.0704 N   0  0  0  0  0  0  0  0  0  0  0  0
  -10.9091    7.1318   33.1645 C   0  0  2  0  0  0  0  0  0  0  0  0
  -10.9839    7.9393   34.3641 C   0  0  0  0  0  0  0  0  0  0  0  0
  -11.6908    7.5415   35.3210 O   0  0  0  0  0  0  0  0  0  0  0  0
  -12.1475    6.3059   32.9517 C   0  0  0  0  0  0  0  0  0  0  0  0
  -12.3606    5.8299   31.5806 C   0  0  0  0  0  0  0  0  0  0  0  0
  -12.7391    6.6422   30.5529 C   0  0  0  0  0  0  0  0  0  0  0  0
  -12.1905    4.4804   31.2882 C   0  0  0  0  0  0  0  0  0  0  0  0
  -12.9609    6.2119   29.2641 C   0  0  0  0  0  0  0  0  0  0  0  0
  -12.4077    4.0338   30.0025 C   0  0  0  0  0  0  0  0  0  0  0  0
  -12.7933    4.8710   28.9656 C   0  0  0  0  0  0  0  0  0  0  0  0
  -10.3086    9.1854   34.5522 N   0  0  0  0  0  0  0  0  0  0  0  0
   -9.3885    9.4444   35.6181 C   0  0  0  0  0  0  0  0  0  0  0  0
   -8.1381   10.1210   35.2257 C   0  0  0  0  0  0  0  0  0  0  0  0
   -7.1887   10.3067   36.0453 O   0  0  0  0  0  0  0  0  0  0  0  0
   -7.9855   10.5800   33.8986 N   0  0  0  0  0  0  0  0  0  0  0  0
   -7.3498    9.8375   32.8395 C   0  0  0  0  0  0  0  0  0  0  0  0
   -5.9123   10.0646   32.7107 C   0  0  0  0  0  0  0  0  0  0  0  0
   -5.2519   10.6512   33.6348 O   0  0  0  0  0  0  0  0  0  0  0  0
   -5.2047    9.6445   31.5794 N   0  0  0  0  0  0  0  0  0  0  0  0
   -3.7442    9.4949   31.5402 C   0  0  2  0  0  0  0  0  0  0  0  0
   -3.2930    9.3864   30.1506 C   0  0  0  0  0  0  0  0  0  0  0  0
   -4.1727    9.4458   29.2177 O   0  0  0  0  0  0  0  0  0  0  0  0
   -3.3984    8.2940   32.3792 C   0  0  0  0  0  0  0  0  0  0  0  0
   -2.7739    8.5986   33.6629 C   0  0  0  0  0  0  0  0  0  0  0  0
   -2.6211    7.5913   34.6107 C   0  0  0  0  0  0  0  0  0  0  0  0
   -2.3156    9.8688   33.9319 C   0  0  0  0  0  0  0  0  0  0  0  0
   -2.0061    7.9027   35.7986 C   0  0  0  0  0  0  0  0  0  0  0  0
   -1.7062   10.1528   35.1294 C   0  0  0  0  0  0  0  0  0  0  0  0
   -1.5374    9.1623   36.0974 C   0  0  0  0  0  0  0  0  0  0  0  0
   -0.9178    9.4670   37.3032 O   0  0  0  0  0  0  0  0  0  0  0  0
   -1.9872    9.2214   29.7299 O   0  0  0  0  0  0  0  0  0  0  0  0
   -1.0629   -2.8797   18.3892 H   0  0  0  0  0  0  0  0  0  0  0  0
   -6.9146   -7.6332   26.5858 H   0  0  0  0  0  0  0  0  0  0  0  0
  2  1  1  1
  2  3  1  0
  2  5  1  0
  3  4  2  0
  3 10  1  0
  5  6  1  0
  6  7  1  0
  7  8  1  0
  7  9  2  0
 11 10  1  1
 11 12  1  0
 11 14  1  0
 12 13  2  0
 12 18  1  0
 14 15  1  0
 14 16  1  1
 15 17  1  0
 18 19  1  0
 19 20  1  0
 19 22  1  6
 20 21  2  0
 20 29  1  0
 22 23  1  0
 23 24  1  0
 24 25  1  0
 25 26  1  0
 26 27  1  0
 26 28  2  0
 29 30  1  0
 30 31  1  0
 30 33  1  1
 31 32  2  0
 31 40  1  0
 33 34  1  0
 34 35  1  0
 35 36  1  0
 36 37  1  0
 37 38  1  0
 37 39  2  0
 41 40  1  6
 41 42  1  0
 41 44  1  0
 42 43  2  0
 42 47  1  0
 44 45  1  1
 44 46  1  0
 47 48  1  0
 47 53  1  0
 48 49  1  1
 48 51  1  0
 49 50  2  0
 49 54  1  0
 51 52  1  0
 52 53  1  0
 54 55  1  0
 55 56  1  0
 55 58  1  1
 56 57  2  0
 56 63  1  0
 58 59  1  0
 59 60  1  0
 60 61  2  0
 60 62  1  0
 63 64  1  0
 64 65  1  0
 64 67  1  1
 65 66  2  0
 65 74  1  0
 67 68  1  0
 68 69  2  0
 68 70  1  0
 69 71  1  0
 70 72  2  0
 71 73  2  0
 72 73  1  0
 74 75  1  0
 75 76  1  0
 76 77  2  0
 76 78  1  0
 78 79  1  0
 79 80  1  0
 80 81  2  0
 80 82  1  0
 82 83  1  0
 83 84  1  0
 83 86  1  1
 84 85  2  0
 84 94  1  0
 86 87  1  0
 87 88  2  0
 87 89  1  0
 88 90  1  0
 89 91  2  0
 90 92  2  0
 91 92  1  0
 92 93  1  0
 28 95  1  0
 39 96  1  0
M  CHG  1   1   1
M  END
$$$$
