
     RDKit          3D

 96 98  0  0  0  0  0  0  0  0999 V2000
    3.9091   -3.8994   26.9145 N   0  0  0  0  0  4  0  0  0  0  0  0
    4.1701   -2.5292   26.6636 C   0  0  2  0  0  0  0  0  0  0  0  0
    3.5145   -2.1874   25.3387 C   0  0  0  0  0  0  0  0  0  0  0  0
    3.7584   -1.0590   24.8473 O   0  0  0  0  0  0  0  0  0  0  0  0
    5.5837   -2.0876   26.6894 C   0  0  0  0  0  0  0  0  0  0  0  0
    5.8486   -0.6382   26.5407 C   0  0  0  0  0  0  0  0  0  0  0  0
    7.2503   -0.2607   26.4894 C   0  0  0  0  0  0  0  0  0  0  0  0
    7.6503    1.0679   26.6429 O   0  0  0  0  0  0  0  0  0  0  0  0
    8.1658   -1.0951   26.3070 O   0  0  0  0  0  0  0  0  0  0  0  0
    2.6730   -3.0825   24.6676 N   0  0  0  0  0  0  0  0  0  0  0  0
    1.2694   -3.2873   24.8821 C   0  0  2  0  0  0  0  0  0  0  0  0
    0.5456   -2.1259   25.3409 C   0  0  0  0  0  0  0  0  0  0  0  0
    0.9150   -1.4698   26.3745 O   0  0  0  0  0  0  0  0  0  0  0  0
    1.0165   -4.5165   25.7329 C   0  0  2  0  0  0  0  0  0  0  0  0
    0.7751   -5.7271   24.8725 C   0  0  0  0  0  0  0  0  0  0  0  0
   -0.0824   -4.3905   26.7254 C   0  0  0  0  0  0  0  0  0  0  0  0
    0.6321   -6.9745   25.7973 C   0  0  0  0  0  0  0  0  0  0  0  0
   -0.6327   -1.5601   24.7367 N   0  0  0  0  0  0  0  0  0  0  0  0
   -1.2268   -0.4167   25.3377 C   0  0  2  0  0  0  0  0  0  0  0  0
   -2.6563   -0.2200   24.8479 C   0  0  0  0  0  0  0  0  0  0  0  0
   -2.7705    0.4739   23.8213 O   0  0  0  0  0  0  0  0  0  0  0  0
   -0.4894    0.8644   25.1150 C   0  0  0  0  0  0  0  0  0  0  0  0
   -0.9660    2.0384   25.9072 C   0  0  0  0  0  0  0  0  0  0  0  0
   -1.7055    1.7226   27.1649 C   0  0  0  0  0  0  0  0  0  0  0  0
   -2.6563    2.7754   27.5049 N   0  0  0  0  0  0  0  0  0  0  0  0
   -2.7700    3.1332   28.8691 C   0  0  0  0  0  0  0  0  0  0  0  0
   -3.8796    3.8350   29.4015 N   0  0  0  0  0  0  0  0  0  0  0  0
   -1.7997    2.7945   29.6599 N   0  0  0  0  0  0  0  0  0  0  0  0
   -3.7863   -0.7624   25.4710 N   0  0  0  0  0  0  0  0  0  0  0  0
   -5.1514   -0.5731   25.0496 C   0  0  2  0  0  0  0  0  0  0  0  0
   -5.6858    0.6727   25.6142 C   0  0  0  0  0  0  0  0  0  0  0  0
   -5.2081    1.0881   26.6980 O   0  0  0  0  0  0  0  0  0  0  0  0
   -5.8971   -1.8109   25.4222 C   0  0  0  0  0  0  0  0  0  0  0  0
   -5.2141   -3.1006   25.1188 C   0  0  0  0  0  0  0  0  0  0  0  0
   -5.1385   -3.2406   23.6082 C   0  0  0  0  0  0  0  0  0  0  0  0
   -6.0563   -4.2639   23.1767 N   0  0  0  0  0  0  0  0  0  0  0  0
   -6.3554   -4.3817   21.7655 C   0  0  0  0  0  0  0  0  0  0  0  0
   -7.4146   -3.7231   21.1314 N   0  0  0  0  0  0  0  0  0  0  0  0
   -5.5694   -5.1510   21.0977 N   0  0  0  0  0  0  0  0  0  0  0  0
   -6.7049    1.4386   25.0154 N   0  0  0  0  0  0  0  0  0  0  0  0
   -7.2470    2.6298   25.5658 C   0  0  2  0  0  0  0  0  0  0  0  0
   -7.5021    2.6946   26.9918 C   0  0  0  0  0  0  0  0  0  0  0  0
   -8.3473    1.8330   27.4967 O   0  0  0  0  0  0  0  0  0  0  0  0
   -8.4655    3.1251   24.7666 C   0  0  1  0  0  0  0  0  0  0  0  0
   -9.1782    4.2899   25.2889 C   0  0  0  0  0  0  0  0  0  0  0  0
   -7.9155    3.4944   23.3904 C   0  0  0  0  0  0  0  0  0  0  0  0
   -6.9893    3.5439   27.9934 N   0  0  0  0  0  0  0  0  0  0  0  0
   -7.2366    3.5407   29.3910 C   0  0  2  0  0  0  0  0  0  0  0  0
   -7.8511    4.5940   30.1017 C   0  0  0  0  0  0  0  0  0  0  0  0
   -7.1937    5.2147   31.0136 O   0  0  0  0  0  0  0  0  0  0  0  0
   -5.7752    3.2832   29.8672 C   0  0  0  0  0  0  0  0  0  0  0  0
   -5.1172    4.3919   29.0686 C   0  0  0  0  0  0  0  0  0  0  0  0
   -5.9988    4.5615   27.8093 C   0  0  0  0  0  0  0  0  0  0  0  0
   -9.1758    5.0683   29.9258 N   0  0  0  0  0  0  0  0  0  0  0  0
   -9.7654    6.1661   30.6841 C   0  0  2  0  0  0  0  0  0  0  0  0
   -9.4204    6.0133   32.1335 C   0  0  0  0  0  0  0  0  0  0  0  0
   -9.5204    4.9068   32.7019 O   0  0  0  0  0  0  0  0  0  0  0  0
  -11.2603    6.1525   30.4752 C   0  0  0  0  0  0  0  0  0  0  0  0
  -11.6007    6.2715   29.0074 C   0  0  0  0  0  0  0  0  0  0  0  0
  -12.4430    7.4619   28.7400 C   0  0  0  0  0  0  0  0  0  0  0  0
  -13.6426    7.4668   29.1286 O   0  0  0  0  0  0  0  0  0  0  0  0
  -11.9968    8.5973   28.0774 O   0  0  0  0  0  0  0  0  0  0  0  0
   -8.9630    7.1263   32.9013 N   0  0  0  0  0  0  0  0  0  0  0  0
   -9.2745    7.3230   34.3078 C   0  0  2  0  0  0  0  0  0  0  0  0
  -10.6715    7.5974   34.5724 C   0  0  0  0  0  0  0  0  0  0  0  0
  -11.4805    7.6085   33.6138 O   0  0  0  0  0  0  0  0  0  0  0  0
   -8.3622    8.3434   34.9302 C   0  0  0  0  0  0  0  0  0  0  0  0
   -8.0318    9.4946   34.0832 C   0  0  0  0  0  0  0  0  0  0  0  0
   -7.9173   10.7682   34.5567 C   0  0  0  0  0  0  0  0  0  0  0  0
   -7.8357    9.3090   32.7185 C   0  0  0  0  0  0  0  0  0  0  0  0
   -7.6253   11.8637   33.7755 C   0  0  0  0  0  0  0  0  0  0  0  0
   -7.5419   10.3954   31.9229 C   0  0  0  0  0  0  0  0  0  0  0  0
   -7.4287   11.6867   32.4172 C   0  0  0  0  0  0  0  0  0  0  0  0
  -11.2189    7.8697   35.8648 N   0  0  0  0  0  0  0  0  0  0  0  0
  -11.9258    9.0692   36.1983 C   0  0  0  0  0  0  0  0  0  0  0  0
  -13.1122    9.3566   35.3706 C   0  0  0  0  0  0  0  0  0  0  0  0
  -14.0548    8.5198   35.2337 O   0  0  0  0  0  0  0  0  0  0  0  0
  -13.2092   10.5993   34.7061 N   0  0  0  0  0  0  0  0  0  0  0  0
  -13.1411   11.8854   35.3529 C   0  0  0  0  0  0  0  0  0  0  0  0
  -12.5013   11.8764   36.6664 C   0  0  0  0  0  0  0  0  0  0  0  0
  -11.2327   11.9816   36.7826 O   0  0  0  0  0  0  0  0  0  0  0  0
  -13.2495   11.7598   37.8427 N   0  0  0  0  0  0  0  0  0  0  0  0
  -12.9440   12.4913   39.0791 C   0  0  2  0  0  0  0  0  0  0  0  0
  -13.8894   12.1072   40.1302 C   0  0  0  0  0  0  0  0  0  0  0  0
  -15.1239   11.9536   39.8133 O   0  0  0  0  0  0  0  0  0  0  0  0
  -12.9794   13.9589   38.7467 C   0  0  0  0  0  0  0  0  0  0  0  0
  -11.7702   14.4766   38.1140 C   0  0  0  0  0  0  0  0  0  0  0  0
  -11.6961   15.8224   37.7679 C   0  0  0  0  0  0  0  0  0  0  0  0
  -10.6961   13.6478   37.8790 C   0  0  0  0  0  0  0  0  0  0  0  0
  -10.5354   16.2854   37.1982 C   0  0  0  0  0  0  0  0  0  0  0  0
   -9.5482   14.1372   37.3056 C   0  0  0  0  0  0  0  0  0  0  0  0
   -9.4447   15.4825   36.9504 C   0  0  0  0  0  0  0  0  0  0  0  0
   -8.2754   15.9608   36.3720 O   0  0  0  0  0  0  0  0  0  0  0  0
  -13.5831   11.8890   41.4598 O   0  0  0  0  0  0  0  0  0  0  0  0
   -1.0730    2.0873   29.3490 H   0  0  0  0  0  0  0  0  0  0  0  0
   -5.3888   -6.1084   21.4137 H   0  0  0  0  0  0  0  0  0  0  0  0
  2  1  1  6
  2  3  1  0
  2  5  1  0
  3  4  2  0
  3 10  1  0
  5  6  1  0
  6  7  1  0
  7  8  1  0
  7  9  2  0
 11 10  1  1
 11 12  1  0
 11 14  1  0
 12 13  2  0
 12 18  1  0
 14 15  1  0
 14 16  1  6
 15 17  1  0
 18 19  1  0
 19 20  1  0
 19 22  1  6
 20 21  2  0
 20 29  1  0
 22 23  1  0
 23 24  1  0
 24 25  1  0
 25 26  1  0
 26 27  1  0
 26 28  2  0
 29 30  1  0
 30 31  1  0
 30 33  1  1
 31 32  2  0
 31 40  1  0
 33 34  1  0
 34 35  1  0
 35 36  1  0
 36 37  1  0
 37 38  1  0
 37 39  2  0
 41 40  1  6
 41 42  1  0
 41 44  1  0
 42 43  2  0
 42 47  1  0
 44 45  1  1
 44 46  1  0
 47 48  1  0
 47 53  1  0
 48 49  1  1
 48 51  1  0
 49 50  2  0
 49 54  1  0
 51 52  1  0
 52 53  1  0
 54 55  1  0
 55 56  1  0
 55 58  1  1
 56 57  2  0
 56 63  1  0
 58 59  1  0
 59 60  1  0
 60 61  2  0
 60 62  1  0
 63 64  1  0
 64 65  1  0
 64 67  1  6
 65 66  2  0
 65 74  1  0
 67 68  1  0
 68 69  2  0
 68 70  1  0
 69 71  1  0
 70 72  2  0
 71 73  2  0
 72 73  1  0
 74 75  1  0
 75 76  1  0
 76 77  2  0
 76 78  1  0
 78 79  1  0
 79 80  1  0
 80 81  2  0
 80 82  1  0
 82 83  1  0
 83 84  1  0
 83 86  1  6
 84 85  2  0
 84 94  1  0
 86 87  1  0
 87 88  2  0
 87 89  1  0
 88 90  1  0
 89 91  2  0
 90 92  2  0
 91 92  1  0
 92 93  1  0
 28 95  1  0
 39 96  1  0
M  CHG  1   1   1
M  END
$$$$
