
     RDKit          3D

 96 98  0  0  0  0  0  0  0  0999 V2000
    1.6026   -5.4713   23.8425 N   0  0  0  0  0  4  0  0  0  0  0  0
    0.3103   -5.7216   24.3675 C   0  0  2  0  0  0  0  0  0  0  0  0
   -0.5402   -4.5050   24.0534 C   0  0  0  0  0  0  0  0  0  0  0  0
   -0.1810   -3.4068   24.5426 O   0  0  0  0  0  0  0  0  0  0  0  0
    0.2141   -6.0847   25.8003 C   0  0  0  0  0  0  0  0  0  0  0  0
   -1.1225   -6.4489   26.3236 C   0  0  0  0  0  0  0  0  0  0  0  0
   -1.1598   -6.8491   27.7195 C   0  0  0  0  0  0  0  0  0  0  0  0
   -0.0666   -6.6438   28.5630 O   0  0  0  0  0  0  0  0  0  0  0  0
   -2.1614   -7.3936   28.2370 O   0  0  0  0  0  0  0  0  0  0  0  0
   -1.6808   -4.5783   23.2452 N   0  0  0  0  0  0  0  0  0  0  0  0
   -2.7377   -3.6140   23.1391 C   0  0  2  0  0  0  0  0  0  0  0  0
   -3.4810   -3.3861   24.3551 C   0  0  0  0  0  0  0  0  0  0  0  0
   -3.5934   -4.2899   25.2527 O   0  0  0  0  0  0  0  0  0  0  0  0
   -3.6281   -3.9028   21.9465 C   0  0  2  0  0  0  0  0  0  0  0  0
   -2.8186   -4.0083   20.6826 C   0  0  0  0  0  0  0  0  0  0  0  0
   -4.7452   -2.9452   21.7375 C   0  0  0  0  0  0  0  0  0  0  0  0
   -3.7965   -4.1031   19.4715 C   0  0  0  0  0  0  0  0  0  0  0  0
   -4.1665   -2.1741   24.7226 N   0  0  0  0  0  0  0  0  0  0  0  0
   -4.0944   -1.7306   26.0716 C   0  0  2  0  0  0  0  0  0  0  0  0
   -4.8644   -0.4297   26.2631 C   0  0  0  0  0  0  0  0  0  0  0  0
   -4.3447    0.3785   27.0536 O   0  0  0  0  0  0  0  0  0  0  0  0
   -2.7084   -1.5192   26.5900 C   0  0  0  0  0  0  0  0  0  0  0  0
   -2.6063   -0.9520   27.9687 C   0  0  0  0  0  0  0  0  0  0  0  0
   -3.5849   -1.4767   28.9665 C   0  0  0  0  0  0  0  0  0  0  0  0
   -3.3956   -0.8616   30.2756 N   0  0  0  0  0  0  0  0  0  0  0  0
   -2.0749   -0.7974   30.7791 C   0  0  0  0  0  0  0  0  0  0  0  0
   -1.3869    0.4191   31.0115 N   0  0  0  0  0  0  0  0  0  0  0  0
   -1.4765   -1.9191   31.0355 N   0  0  0  0  0  0  0  0  0  0  0  0
   -6.0675   -0.1216   25.6172 N   0  0  0  0  0  0  0  0  0  0  0  0
   -6.7048    1.1708   25.5977 C   0  0  2  0  0  0  0  0  0  0  0  0
   -6.8656    1.6750   26.9674 C   0  0  0  0  0  0  0  0  0  0  0  0
   -7.9820    1.5389   27.5246 O   0  0  0  0  0  0  0  0  0  0  0  0
   -7.9715    1.0193   24.8233 C   0  0  0  0  0  0  0  0  0  0  0  0
   -7.8739    0.2365   23.5586 C   0  0  0  0  0  0  0  0  0  0  0  0
   -8.0009    1.2106   22.4000 C   0  0  0  0  0  0  0  0  0  0  0  0
   -6.8642    1.0652   21.5269 N   0  0  0  0  0  0  0  0  0  0  0  0
   -7.0938    0.8257   20.1181 C   0  0  0  0  0  0  0  0  0  0  0  0
   -7.8017   -0.2713   19.6148 N   0  0  0  0  0  0  0  0  0  0  0  0
   -6.5959    1.7047   19.3212 N   0  0  0  0  0  0  0  0  0  0  0  0
   -5.8427    2.3042   27.7032 N   0  0  0  0  0  0  0  0  0  0  0  0
   -6.0583    3.1465   28.8256 C   0  0  2  0  0  0  0  0  0  0  0  0
   -5.1099    4.2080   29.1025 C   0  0  0  0  0  0  0  0  0  0  0  0
   -3.8992    4.0799   28.6235 O   0  0  0  0  0  0  0  0  0  0  0  0
   -6.3625    2.3357   30.0979 C   0  0  1  0  0  0  0  0  0  0  0  0
   -6.8305    3.0784   31.2672 C   0  0  0  0  0  0  0  0  0  0  0  0
   -7.4660    1.3601   29.6939 C   0  0  0  0  0  0  0  0  0  0  0  0
   -5.2434    5.4145   29.8194 N   0  0  0  0  0  0  0  0  0  0  0  0
   -4.3172    6.4791   29.9720 C   0  0  2  0  0  0  0  0  0  0  0  0
   -3.7503    6.8824   31.2000 C   0  0  0  0  0  0  0  0  0  0  0  0
   -2.7791    6.2101   31.7037 O   0  0  0  0  0  0  0  0  0  0  0  0
   -5.1757    7.6056   29.3220 C   0  0  0  0  0  0  0  0  0  0  0  0
   -6.4345    7.3792   30.1369 C   0  0  0  0  0  0  0  0  0  0  0  0
   -6.4254    5.8725   30.4854 C   0  0  0  0  0  0  0  0  0  0  0  0
   -4.1490    7.9923   31.9875 N   0  0  0  0  0  0  0  0  0  0  0  0
   -3.5914    8.3170   33.2958 C   0  0  2  0  0  0  0  0  0  0  0  0
   -3.8537    7.1881   34.2443 C   0  0  0  0  0  0  0  0  0  0  0  0
   -3.0479    6.9201   35.1587 O   0  0  0  0  0  0  0  0  0  0  0  0
   -4.2199    9.5986   33.7866 C   0  0  0  0  0  0  0  0  0  0  0  0
   -4.0665   10.7008   32.7637 C   0  0  0  0  0  0  0  0  0  0  0  0
   -3.6130   11.9651   33.3914 C   0  0  0  0  0  0  0  0  0  0  0  0
   -4.4450   12.8951   33.5725 O   0  0  0  0  0  0  0  0  0  0  0  0
   -2.3091   12.2049   33.8031 O   0  0  0  0  0  0  0  0  0  0  0  0
   -5.0339    6.3931   34.1318 N   0  0  0  0  0  0  0  0  0  0  0  0
   -5.6567    5.7049   35.2509 C   0  0  2  0  0  0  0  0  0  0  0  0
   -6.9637    5.1558   34.9556 C   0  0  0  0  0  0  0  0  0  0  0  0
   -7.3505    4.1388   35.5799 O   0  0  0  0  0  0  0  0  0  0  0  0
   -5.6619    6.5647   36.4845 C   0  0  0  0  0  0  0  0  0  0  0  0
   -4.6717    6.2080   37.5063 C   0  0  0  0  0  0  0  0  0  0  0  0
   -3.7751    5.1909   37.3619 C   0  0  0  0  0  0  0  0  0  0  0  0
   -4.6334    6.9175   38.7025 C   0  0  0  0  0  0  0  0  0  0  0  0
   -2.8502    4.8297   38.3157 C   0  0  0  0  0  0  0  0  0  0  0  0
   -3.7128    6.5688   39.6671 C   0  0  0  0  0  0  0  0  0  0  0  0
   -2.8060    5.5311   39.5078 C   0  0  0  0  0  0  0  0  0  0  0  0
   -7.8701    5.6840   33.9842 N   0  0  0  0  0  0  0  0  0  0  0  0
   -7.5924    5.7471   32.5811 C   0  0  0  0  0  0  0  0  0  0  0  0
   -8.6371    5.1886   31.7026 C   0  0  0  0  0  0  0  0  0  0  0  0
   -8.5348    4.0353   31.1859 O   0  0  0  0  0  0  0  0  0  0  0  0
   -9.7898    5.9554   31.4222 N   0  0  0  0  0  0  0  0  0  0  0  0
  -10.6892    5.7161   30.3218 C   0  0  0  0  0  0  0  0  0  0  0  0
  -11.7748    6.6858   30.1971 C   0  0  0  0  0  0  0  0  0  0  0  0
  -12.6707    6.5601   29.2939 O   0  0  0  0  0  0  0  0  0  0  0  0
  -11.8795    7.7806   31.0616 N   0  0  0  0  0  0  0  0  0  0  0  0
  -13.0731    8.6308   31.1598 C   0  0  2  0  0  0  0  0  0  0  0  0
  -12.8103    9.7537   32.0633 C   0  0  0  0  0  0  0  0  0  0  0  0
  -11.8117    9.6698   32.8655 O   0  0  0  0  0  0  0  0  0  0  0  0
  -14.2087    7.7512   31.6095 C   0  0  0  0  0  0  0  0  0  0  0  0
  -15.5281    8.3735   31.5568 C   0  0  0  0  0  0  0  0  0  0  0  0
  -16.6474    7.6494   31.9555 C   0  0  0  0  0  0  0  0  0  0  0  0
  -15.6682    9.6775   31.1374 C   0  0  0  0  0  0  0  0  0  0  0  0
  -17.8717    8.2707   31.9195 C   0  0  0  0  0  0  0  0  0  0  0  0
  -16.9052   10.2733   31.1093 C   0  0  0  0  0  0  0  0  0  0  0  0
  -18.0447    9.5724   31.5054 C   0  0  0  0  0  0  0  0  0  0  0  0
  -19.2884   10.1911   31.4714 O   0  0  0  0  0  0  0  0  0  0  0  0
  -13.5446   10.9214   32.1446 O   0  0  0  0  0  0  0  0  0  0  0  0
   -2.0246   -2.8264   31.0702 H   0  0  0  0  0  0  0  0  0  0  0  0
   -5.6325    2.0301   19.4443 H   0  0  0  0  0  0  0  0  0  0  0  0
  2  1  1  1
  2  3  1  0
  2  5  1  0
  3  4  2  0
  3 10  1  0
  5  6  1  0
  6  7  1  0
  7  8  1  0
  7  9  2  0
 11 10  1  1
 11 12  1  0
 11 14  1  0
 12 13  2  0
 12 18  1  0
 14 15  1  0
 14 16  1  6
 15 17  1  0
 18 19  1  0
 19 20  1  0
 19 22  1  6
 20 21  2  0
 20 29  1  0
 22 23  1  0
 23 24  1  0
 24 25  1  0
 25 26  1  0
 26 27  1  0
 26 28  2  0
 29 30  1  0
 30 31  1  0
 30 33  1  1
 31 32  2  0
 31 40  1  0
 33 34  1  0
 34 35  1  0
 35 36  1  0
 36 37  1  0
 37 38  1  0
 37 39  2  0
 41 40  1  6
 41 42  1  0
 41 44  1  0
 42 43  2  0
 42 47  1  0
 44 45  1  1
 44 46  1  0
 47 48  1  0
 47 53  1  0
 48 49  1  1
 48 51  1  0
 49 50  2  0
 49 54  1  0
 51 52  1  0
 52 53  1  0
 54 55  1  0
 55 56  1  0
 55 58  1  1
 56 57  2  0
 56 63  1  0
 58 59  1  0
 59 60  1  0
 60 61  2  0
 60 62  1  0
 63 64  1  0
 64 65  1  0
 64 67  1  1
 65 66  2  0
 65 74  1  0
 67 68  1  0
 68 69  2  0
 68 70  1  0
 69 71  1  0
 70 72  2  0
 71 73  2  0
 72 73  1  0
 74 75  1  0
 75 76  1  0
 76 77  2  0
 76 78  1  0
 78 79  1  0
 79 80  1  0
 80 81  2  0
 80 82  1  0
 82 83  1  0
 83 84  1  0
 83 86  1  1
 84 85  2  0
 84 94  1  0
 86 87  1  0
 87 88  2  0
 87 89  1  0
 88 90  1  0
 89 91  2  0
 90 92  2  0
 91 92  1  0
 92 93  1  0
 28 95  1  0
 39 96  1  0
M  CHG  1   1   1
M  END
$$$$
