
     RDKit          3D

 96 98  0  0  0  0  0  0  0  0999 V2000
    3.1020    4.5986   29.7424 N   0  0  0  0  0  4  0  0  0  0  0  0
    1.8127    4.0207   29.6329 C   0  0  2  0  0  0  0  0  0  0  0  0
    2.0084    2.5241   29.4773 C   0  0  0  0  0  0  0  0  0  0  0  0
    2.4166    1.8875   30.4785 O   0  0  0  0  0  0  0  0  0  0  0  0
    0.9127    4.5532   28.5839 C   0  0  0  0  0  0  0  0  0  0  0  0
    0.5019    5.9718   28.6931 C   0  0  0  0  0  0  0  0  0  0  0  0
   -0.2964    6.4783   27.5903 C   0  0  0  0  0  0  0  0  0  0  0  0
   -0.9813    5.6150   26.7334 O   0  0  0  0  0  0  0  0  0  0  0  0
   -0.4130    7.7015   27.3500 O   0  0  0  0  0  0  0  0  0  0  0  0
    1.7429    1.8560   28.2762 N   0  0  0  0  0  0  0  0  0  0  0  0
    1.9152    0.4590   27.9991 C   0  0  2  0  0  0  0  0  0  0  0  0
    0.7839   -0.3737   28.3307 C   0  0  0  0  0  0  0  0  0  0  0  0
    0.1166   -0.2018   29.4078 O   0  0  0  0  0  0  0  0  0  0  0  0
    3.2196   -0.0588   28.5730 C   0  0  2  0  0  0  0  0  0  0  0  0
    4.3429    0.9087   28.3164 C   0  0  0  0  0  0  0  0  0  0  0  0
    3.6234   -1.4145   28.1175 C   0  0  0  0  0  0  0  0  0  0  0  0
    5.6515    0.3272   28.9338 C   0  0  0  0  0  0  0  0  0  0  0  0
    0.2627   -1.4600   27.5419 N   0  0  0  0  0  0  0  0  0  0  0  0
   -1.1289   -1.4871   27.2514 C   0  0  2  0  0  0  0  0  0  0  0  0
   -1.4859   -0.4616   26.1824 C   0  0  0  0  0  0  0  0  0  0  0  0
   -0.5134    0.0803   25.6266 O   0  0  0  0  0  0  0  0  0  0  0  0
   -2.0206   -1.2478   28.4270 C   0  0  0  0  0  0  0  0  0  0  0  0
   -1.5672   -1.8401   29.7219 C   0  0  0  0  0  0  0  0  0  0  0  0
   -2.4040   -1.5209   30.9162 C   0  0  0  0  0  0  0  0  0  0  0  0
   -1.9445   -2.2408   32.0988 N   0  0  0  0  0  0  0  0  0  0  0  0
   -1.0345   -1.5744   32.9531 C   0  0  0  0  0  0  0  0  0  0  0  0
   -1.3943   -0.4747   33.7706 N   0  0  0  0  0  0  0  0  0  0  0  0
    0.1889   -2.0042   32.9769 N   0  0  0  0  0  0  0  0  0  0  0  0
   -2.7945   -0.1245   25.8170 N   0  0  0  0  0  0  0  0  0  0  0  0
   -3.4528   -0.5117   24.5949 C   0  0  2  0  0  0  0  0  0  0  0  0
   -4.7456    0.1748   24.4786 C   0  0  0  0  0  0  0  0  0  0  0  0
   -5.7657   -0.5143   24.2340 O   0  0  0  0  0  0  0  0  0  0  0  0
   -3.5222   -2.0024   24.5918 C   0  0  0  0  0  0  0  0  0  0  0  0
   -4.0480   -2.6290   23.3458 C   0  0  0  0  0  0  0  0  0  0  0  0
   -3.1013   -3.7513   22.9565 C   0  0  0  0  0  0  0  0  0  0  0  0
   -3.1031   -4.7571   23.9879 N   0  0  0  0  0  0  0  0  0  0  0  0
   -3.9931   -5.8906   23.8542 C   0  0  0  0  0  0  0  0  0  0  0  0
   -3.8620   -6.8783   22.8718 N   0  0  0  0  0  0  0  0  0  0  0  0
   -4.9467   -5.9474   24.7162 N   0  0  0  0  0  0  0  0  0  0  0  0
   -4.9184    1.5648   24.6258 N   0  0  0  0  0  0  0  0  0  0  0  0
   -6.0375    2.2935   24.1436 C   0  0  2  0  0  0  0  0  0  0  0  0
   -6.0902    3.7268   24.3571 C   0  0  0  0  0  0  0  0  0  0  0  0
   -5.6039    4.4982   23.4189 O   0  0  0  0  0  0  0  0  0  0  0  0
   -7.3669    1.6292   24.5438 C   0  0  1  0  0  0  0  0  0  0  0  0
   -8.4073    2.4959   25.0951 C   0  0  0  0  0  0  0  0  0  0  0  0
   -7.9083    1.0139   23.2549 C   0  0  0  0  0  0  0  0  0  0  0  0
   -6.5915    4.4923   25.4296 N   0  0  0  0  0  0  0  0  0  0  0  0
   -6.2389    4.4571   26.8040 C   0  0  2  0  0  0  0  0  0  0  0  0
   -7.1166    4.1024   27.8508 C   0  0  0  0  0  0  0  0  0  0  0  0
   -7.4543    2.8737   28.0091 O   0  0  0  0  0  0  0  0  0  0  0  0
   -5.7312    5.9248   26.9333 C   0  0  0  0  0  0  0  0  0  0  0  0
   -6.9474    6.6002   26.3295 C   0  0  0  0  0  0  0  0  0  0  0  0
   -7.5262    5.5724   25.3293 C   0  0  0  0  0  0  0  0  0  0  0  0
   -7.7054    4.9851   28.7916 N   0  0  0  0  0  0  0  0  0  0  0  0
   -9.1216    5.3338   28.8200 C   0  0  2  0  0  0  0  0  0  0  0  0
   -9.4145    6.1314   30.0533 C   0  0  0  0  0  0  0  0  0  0  0  0
   -8.7977    5.9156   31.1165 O   0  0  0  0  0  0  0  0  0  0  0  0
   -9.9350    4.0627   28.7869 C   0  0  0  0  0  0  0  0  0  0  0  0
   -9.3788    3.0412   29.7521 C   0  0  0  0  0  0  0  0  0  0  0  0
  -10.3458    2.7316   30.8324 C   0  0  0  0  0  0  0  0  0  0  0  0
  -11.5384    3.1263   30.7224 O   0  0  0  0  0  0  0  0  0  0  0  0
  -10.0263    2.0230   31.9826 O   0  0  0  0  0  0  0  0  0  0  0  0
  -10.4015    7.1625   30.0443 N   0  0  0  0  0  0  0  0  0  0  0  0
  -10.7389    7.9711   31.2047 C   0  0  2  0  0  0  0  0  0  0  0  0
   -9.8210    7.8257   32.3151 C   0  0  0  0  0  0  0  0  0  0  0  0
   -8.9367    8.6981   32.4904 O   0  0  0  0  0  0  0  0  0  0  0  0
  -12.1710    7.7652   31.6143 C   0  0  0  0  0  0  0  0  0  0  0  0
  -12.6182    8.5572   32.7652 C   0  0  0  0  0  0  0  0  0  0  0  0
  -13.9059    8.9706   32.9387 C   0  0  0  0  0  0  0  0  0  0  0  0
  -11.6981    8.9346   33.7381 C   0  0  0  0  0  0  0  0  0  0  0  0
  -14.3416    9.7287   34.0022 C   0  0  0  0  0  0  0  0  0  0  0  0
  -12.1185    9.6929   34.8095 C   0  0  0  0  0  0  0  0  0  0  0  0
  -13.4321   10.1075   34.9740 C   0  0  0  0  0  0  0  0  0  0  0  0
   -9.8336    6.7421   33.2476 N   0  0  0  0  0  0  0  0  0  0  0  0
  -10.9647    5.8942   33.4745 C   0  0  0  0  0  0  0  0  0  0  0  0
  -10.6538    4.4713   33.7066 C   0  0  0  0  0  0  0  0  0  0  0  0
  -11.5008    3.6713   34.2067 O   0  0  0  0  0  0  0  0  0  0  0  0
   -9.3756    3.9764   33.3651 N   0  0  0  0  0  0  0  0  0  0  0  0
   -8.9390    2.6178   33.5663 C   0  0  0  0  0  0  0  0  0  0  0  0
   -7.8158    2.2057   32.7279 C   0  0  0  0  0  0  0  0  0  0  0  0
   -7.8605    2.3323   31.4567 O   0  0  0  0  0  0  0  0  0  0  0  0
   -6.6503    1.6653   33.2818 N   0  0  0  0  0  0  0  0  0  0  0  0
   -5.7556    0.7482   32.5637 C   0  0  2  0  0  0  0  0  0  0  0  0
   -6.5376   -0.3226   31.9408 C   0  0  0  0  0  0  0  0  0  0  0  0
   -7.5912   -0.7385   32.5448 O   0  0  0  0  0  0  0  0  0  0  0  0
   -4.7403    0.2503   33.5571 C   0  0  0  0  0  0  0  0  0  0  0  0
   -3.7000    1.2119   33.9092 C   0  0  0  0  0  0  0  0  0  0  0  0
   -3.4850    2.3218   33.0978 C   0  0  0  0  0  0  0  0  0  0  0  0
   -2.9474    1.0395   35.0493 C   0  0  0  0  0  0  0  0  0  0  0  0
   -2.5170    3.2224   33.4694 C   0  0  0  0  0  0  0  0  0  0  0  0
   -1.9842    1.9550   35.3957 C   0  0  0  0  0  0  0  0  0  0  0  0
   -1.7482    3.0783   34.6025 C   0  0  0  0  0  0  0  0  0  0  0  0
   -0.7702    3.9949   34.9686 O   0  0  0  0  0  0  0  0  0  0  0  0
   -6.2510   -0.9476   30.7422 O   0  0  0  0  0  0  0  0  0  0  0  0
    0.4446   -2.9273   32.5216 H   0  0  0  0  0  0  0  0  0  0  0  0
   -4.8954   -6.5993   25.5045 H   0  0  0  0  0  0  0  0  0  0  0  0
  2  1  1  6
  2  3  1  0
  2  5  1  0
  3  4  2  0
  3 10  1  0
  5  6  1  0
  6  7  1  0
  7  8  1  0
  7  9  2  0
 11 10  1  1
 11 12  1  0
 11 14  1  0
 12 13  2  0
 12 18  1  0
 14 15  1  0
 14 16  1  6
 15 17  1  0
 18 19  1  0
 19 20  1  0
 19 22  1  1
 20 21  2  0
 20 29  1  0
 22 23  1  0
 23 24  1  0
 24 25  1  0
 25 26  1  0
 26 27  1  0
 26 28  2  0
 29 30  1  0
 30 31  1  0
 30 33  1  1
 31 32  2  0
 31 40  1  0
 33 34  1  0
 34 35  1  0
 35 36  1  0
 36 37  1  0
 37 38  1  0
 37 39  2  0
 41 40  1  1
 41 42  1  0
 41 44  1  0
 42 43  2  0
 42 47  1  0
 44 45  1  6
 44 46  1  0
 47 48  1  0
 47 53  1  0
 48 49  1  1
 48 51  1  0
 49 50  2  0
 49 54  1  0
 51 52  1  0
 52 53  1  0
 54 55  1  0
 55 56  1  0
 55 58  1  1
 56 57  2  0
 56 63  1  0
 58 59  1  0
 59 60  1  0
 60 61  2  0
 60 62  1  0
 63 64  1  0
 64 65  1  0
 64 67  1  1
 65 66  2  0
 65 74  1  0
 67 68  1  0
 68 69  2  0
 68 70  1  0
 69 71  1  0
 70 72  2  0
 71 73  2  0
 72 73  1  0
 74 75  1  0
 75 76  1  0
 76 77  2  0
 76 78  1  0
 78 79  1  0
 79 80  1  0
 80 81  2  0
 80 82  1  0
 82 83  1  0
 83 84  1  0
 83 86  1  1
 84 85  2  0
 84 94  1  0
 86 87  1  0
 87 88  2  0
 87 89  1  0
 88 90  1  0
 89 91  2  0
 90 92  2  0
 91 92  1  0
 92 93  1  0
 28 95  1  0
 39 96  1  0
M  CHG  1   1   1
M  END
$$$$
