
     RDKit          3D

 96 98  0  0  0  0  0  0  0  0999 V2000
   -0.3911   -6.3504   26.6895 N   0  0  0  0  0  4  0  0  0  0  0  0
   -0.8458   -7.3991   25.8518 C   0  0  2  0  0  0  0  0  0  0  0  0
   -1.7861   -6.7794   24.8348 C   0  0  0  0  0  0  0  0  0  0  0  0
   -1.8836   -7.3441   23.7186 O   0  0  0  0  0  0  0  0  0  0  0  0
   -1.4660   -8.5748   26.5052 C   0  0  0  0  0  0  0  0  0  0  0  0
   -0.5630   -9.5376   27.1766 C   0  0  0  0  0  0  0  0  0  0  0  0
    0.8571   -9.2705   27.0290 C   0  0  0  0  0  0  0  0  0  0  0  0
    1.3179   -8.1888   26.2764 O   0  0  0  0  0  0  0  0  0  0  0  0
    1.7356   -9.9863   27.5614 O   0  0  0  0  0  0  0  0  0  0  0  0
   -2.5323   -5.6277   25.1108 N   0  0  0  0  0  0  0  0  0  0  0  0
   -3.2755   -4.8268   24.1810 C   0  0  2  0  0  0  0  0  0  0  0  0
   -3.7343   -3.5593   24.6969 C   0  0  0  0  0  0  0  0  0  0  0  0
   -4.9795   -3.2942   24.8165 O   0  0  0  0  0  0  0  0  0  0  0  0
   -4.3782   -5.6311   23.5208 C   0  0  2  0  0  0  0  0  0  0  0  0
   -5.1266   -4.7969   22.5169 C   0  0  0  0  0  0  0  0  0  0  0  0
   -5.3463   -6.2695   24.4503 C   0  0  0  0  0  0  0  0  0  0  0  0
   -6.5168   -5.4551   22.2602 C   0  0  0  0  0  0  0  0  0  0  0  0
   -2.9064   -2.4649   25.1337 N   0  0  0  0  0  0  0  0  0  0  0  0
   -2.4685   -1.5134   24.1722 C   0  0  2  0  0  0  0  0  0  0  0  0
   -1.9021   -0.2710   24.8487 C   0  0  0  0  0  0  0  0  0  0  0  0
   -2.5220    0.7830   24.6182 O   0  0  0  0  0  0  0  0  0  0  0  0
   -3.5190   -1.0668   23.2070 C   0  0  0  0  0  0  0  0  0  0  0  0
   -4.5569   -0.1411   23.7536 C   0  0  0  0  0  0  0  0  0  0  0  0
   -5.6475    0.2488   22.8117 C   0  0  0  0  0  0  0  0  0  0  0  0
   -5.4670   -0.3654   21.5009 N   0  0  0  0  0  0  0  0  0  0  0  0
   -5.7353    0.4349   20.3654 C   0  0  0  0  0  0  0  0  0  0  0  0
   -6.4844    1.6363   20.4171 N   0  0  0  0  0  0  0  0  0  0  0  0
   -5.2648    0.0338   19.2254 N   0  0  0  0  0  0  0  0  0  0  0  0
   -0.7744   -0.2679   25.6779 N   0  0  0  0  0  0  0  0  0  0  0  0
   -0.4193    0.7713   26.6111 C   0  0  2  0  0  0  0  0  0  0  0  0
   -1.2392    0.6618   27.8244 C   0  0  0  0  0  0  0  0  0  0  0  0
   -2.3880    1.1671   27.8141 O   0  0  0  0  0  0  0  0  0  0  0  0
   -0.5335    2.0682   25.8817 C   0  0  0  0  0  0  0  0  0  0  0  0
   -1.5834    2.1331   24.8257 C   0  0  0  0  0  0  0  0  0  0  0  0
   -2.2649    3.4864   24.9326 C   0  0  0  0  0  0  0  0  0  0  0  0
   -1.3668    4.4258   25.5543 N   0  0  0  0  0  0  0  0  0  0  0  0
   -1.2993    5.7746   25.0336 C   0  0  0  0  0  0  0  0  0  0  0  0
   -0.1103    6.4143   24.6662 N   0  0  0  0  0  0  0  0  0  0  0  0
   -2.4296    6.3792   24.9211 N   0  0  0  0  0  0  0  0  0  0  0  0
   -0.8196    0.0217   29.0067 N   0  0  0  0  0  0  0  0  0  0  0  0
   -1.4814    0.1264   30.2585 C   0  0  2  0  0  0  0  0  0  0  0  0
   -1.3520    1.3514   31.0236 C   0  0  0  0  0  0  0  0  0  0  0  0
   -0.2180    1.9992   30.9443 O   0  0  0  0  0  0  0  0  0  0  0  0
   -1.2241   -1.1050   31.1452 C   0  0  1  0  0  0  0  0  0  0  0  0
   -1.5009   -2.4171   30.5626 C   0  0  0  0  0  0  0  0  0  0  0  0
    0.2649   -1.0495   31.4810 C   0  0  0  0  0  0  0  0  0  0  0  0
   -2.2549    2.0183   31.8764 N   0  0  0  0  0  0  0  0  0  0  0  0
   -3.6742    2.0234   31.8592 C   0  0  2  0  0  0  0  0  0  0  0  0
   -4.4719    3.1659   31.6352 C   0  0  0  0  0  0  0  0  0  0  0  0
   -4.5666    3.6536   30.4511 O   0  0  0  0  0  0  0  0  0  0  0  0
   -3.9084    1.4098   33.2725 C   0  0  0  0  0  0  0  0  0  0  0  0
   -3.0107    2.3590   34.0426 C   0  0  0  0  0  0  0  0  0  0  0  0
   -1.9101    2.7780   33.0401 C   0  0  0  0  0  0  0  0  0  0  0  0
   -5.2129    3.8801   32.6108 N   0  0  0  0  0  0  0  0  0  0  0  0
   -6.4226    3.3807   33.2551 C   0  0  2  0  0  0  0  0  0  0  0  0
   -7.4359    4.4807   33.3351 C   0  0  0  0  0  0  0  0  0  0  0  0
   -7.7175    5.0131   34.4281 O   0  0  0  0  0  0  0  0  0  0  0  0
   -6.0644    2.8685   34.6291 C   0  0  0  0  0  0  0  0  0  0  0  0
   -7.2726    2.8707   35.5373 C   0  0  0  0  0  0  0  0  0  0  0  0
   -7.8779    1.5212   35.6394 C   0  0  0  0  0  0  0  0  0  0  0  0
   -7.4429    0.5944   34.9033 O   0  0  0  0  0  0  0  0  0  0  0  0
   -8.9126    1.1966   36.5061 O   0  0  0  0  0  0  0  0  0  0  0  0
   -8.1014    4.9532   32.1641 N   0  0  0  0  0  0  0  0  0  0  0  0
   -9.0451    6.0592   32.1593 C   0  0  2  0  0  0  0  0  0  0  0  0
  -10.4086    5.6760   32.4606 C   0  0  0  0  0  0  0  0  0  0  0  0
  -10.7921    4.5174   32.1702 O   0  0  0  0  0  0  0  0  0  0  0  0
   -8.9417    6.8581   30.8896 C   0  0  0  0  0  0  0  0  0  0  0  0
  -10.0291    7.8144   30.6554 C   0  0  0  0  0  0  0  0  0  0  0  0
   -9.8664    9.1669   30.7135 C   0  0  0  0  0  0  0  0  0  0  0  0
  -11.3077    7.3444   30.3732 C   0  0  0  0  0  0  0  0  0  0  0  0
  -10.8774   10.0800   30.5141 C   0  0  0  0  0  0  0  0  0  0  0  0
  -12.3306    8.2456   30.1702 C   0  0  0  0  0  0  0  0  0  0  0  0
  -12.1518    9.6199   30.2326 C   0  0  0  0  0  0  0  0  0  0  0  0
  -11.3803    6.5294   33.0701 N   0  0  0  0  0  0  0  0  0  0  0  0
  -12.0368    7.6066   32.3931 C   0  0  0  0  0  0  0  0  0  0  0  0
  -13.0611    8.3190   33.1794 C   0  0  0  0  0  0  0  0  0  0  0  0
  -13.1741    8.1643   34.4328 O   0  0  0  0  0  0  0  0  0  0  0  0
  -13.9481    9.2018   32.5243 N   0  0  0  0  0  0  0  0  0  0  0  0
  -15.0028    9.9393   33.1729 C   0  0  0  0  0  0  0  0  0  0  0  0
  -14.5755   11.1785   33.8181 C   0  0  0  0  0  0  0  0  0  0  0  0
  -15.4075   11.9121   34.4535 O   0  0  0  0  0  0  0  0  0  0  0  0
  -13.2439   11.6049   33.7716 N   0  0  0  0  0  0  0  0  0  0  0  0
  -12.7467   12.8026   34.4613 C   0  0  2  0  0  0  0  0  0  0  0  0
  -13.8285   13.4141   35.2372 C   0  0  0  0  0  0  0  0  0  0  0  0
  -15.0113   12.9289   35.1214 O   0  0  0  0  0  0  0  0  0  0  0  0
  -12.1725   13.7138   33.4099 C   0  0  0  0  0  0  0  0  0  0  0  0
  -11.2870   13.0641   32.4485 C   0  0  0  0  0  0  0  0  0  0  0  0
  -10.7384   13.8060   31.4069 C   0  0  0  0  0  0  0  0  0  0  0  0
  -10.9739   11.7297   32.5794 C   0  0  0  0  0  0  0  0  0  0  0  0
   -9.8881   13.1728   30.5337 C   0  0  0  0  0  0  0  0  0  0  0  0
  -10.1223   11.1213   31.6902 C   0  0  0  0  0  0  0  0  0  0  0  0
   -9.5557   11.8407   30.6376 C   0  0  0  0  0  0  0  0  0  0  0  0
   -8.6953   11.2094   29.7477 O   0  0  0  0  0  0  0  0  0  0  0  0
  -13.7050   14.4858   36.1006 O   0  0  0  0  0  0  0  0  0  0  0  0
   -4.2348   -0.1948   19.1180 H   0  0  0  0  0  0  0  0  0  0  0  0
   -3.1859    6.1933   25.5863 H   0  0  0  0  0  0  0  0  0  0  0  0
  2  1  1  1
  2  3  1  0
  2  5  1  0
  3  4  2  0
  3 10  1  0
  5  6  1  0
  6  7  1  0
  7  8  1  0
  7  9  2  0
 11 10  1  1
 11 12  1  0
 11 14  1  0
 12 13  2  0
 12 18  1  0
 14 15  1  0
 14 16  1  1
 15 17  1  0
 18 19  1  0
 19 20  1  0
 19 22  1  6
 20 21  2  0
 20 29  1  0
 22 23  1  0
 23 24  1  0
 24 25  1  0
 25 26  1  0
 26 27  1  0
 26 28  2  0
 29 30  1  0
 30 31  1  0
 30 33  1  6
 31 32  2  0
 31 40  1  0
 33 34  1  0
 34 35  1  0
 35 36  1  0
 36 37  1  0
 37 38  1  0
 37 39  2  0
 41 40  1  6
 41 42  1  0
 41 44  1  0
 42 43  2  0
 42 47  1  0
 44 45  1  6
 44 46  1  0
 47 48  1  0
 47 53  1  0
 48 49  1  1
 48 51  1  0
 49 50  2  0
 49 54  1  0
 51 52  1  0
 52 53  1  0
 54 55  1  0
 55 56  1  0
 55 58  1  1
 56 57  2  0
 56 63  1  0
 58 59  1  0
 59 60  1  0
 60 61  2  0
 60 62  1  0
 63 64  1  0
 64 65  1  0
 64 67  1  6
 65 66  2  0
 65 74  1  0
 67 68  1  0
 68 69  2  0
 68 70  1  0
 69 71  1  0
 70 72  2  0
 71 73  2  0
 72 73  1  0
 74 75  1  0
 75 76  1  0
 76 77  2  0
 76 78  1  0
 78 79  1  0
 79 80  1  0
 80 81  2  0
 80 82  1  0
 82 83  1  0
 83 84  1  0
 83 86  1  6
 84 85  2  0
 84 94  1  0
 86 87  1  0
 87 88  2  0
 87 89  1  0
 88 90  1  0
 89 91  2  0
 90 92  2  0
 91 92  1  0
 92 93  1  0
 28 95  1  0
 39 96  1  0
M  CHG  1   1   1
M  END
$$$$
