
     RDKit          3D

 96 98  0  0  0  0  0  0  0  0999 V2000
   -0.9974   -8.2698   30.8730 N   0  0  0  0  0  4  0  0  0  0  0  0
   -0.5800   -7.3224   31.8407 C   0  0  2  0  0  0  0  0  0  0  0  0
   -1.0438   -5.9607   31.3582 C   0  0  0  0  0  0  0  0  0  0  0  0
   -0.2044   -5.2409   30.7654 O   0  0  0  0  0  0  0  0  0  0  0  0
    0.8570   -7.3006   32.1994 C   0  0  0  0  0  0  0  0  0  0  0  0
    1.2668   -6.4267   33.3224 C   0  0  0  0  0  0  0  0  0  0  0  0
    2.5943   -6.6763   33.8568 C   0  0  0  0  0  0  0  0  0  0  0  0
    3.1055   -5.9203   34.9132 O   0  0  0  0  0  0  0  0  0  0  0  0
    3.3442   -7.5715   33.4054 O   0  0  0  0  0  0  0  0  0  0  0  0
   -2.3542   -5.5064   31.5483 N   0  0  0  0  0  0  0  0  0  0  0  0
   -2.9428   -4.3029   31.0350 C   0  0  2  0  0  0  0  0  0  0  0  0
   -3.9255   -3.6885   31.8952 C   0  0  0  0  0  0  0  0  0  0  0  0
   -5.0734   -4.2177   32.0884 O   0  0  0  0  0  0  0  0  0  0  0  0
   -3.4369   -4.4947   29.6145 C   0  0  2  0  0  0  0  0  0  0  0  0
   -2.3411   -5.0241   28.7297 C   0  0  0  0  0  0  0  0  0  0  0  0
   -4.0437   -3.2943   28.9825 C   0  0  0  0  0  0  0  0  0  0  0  0
   -2.9471   -5.3570   27.3319 C   0  0  0  0  0  0  0  0  0  0  0  0
   -3.7697   -2.4583   32.6275 N   0  0  0  0  0  0  0  0  0  0  0  0
   -4.8321   -2.0233   33.4664 C   0  0  2  0  0  0  0  0  0  0  0  0
   -5.9193   -1.3264   32.6576 C   0  0  0  0  0  0  0  0  0  0  0  0
   -6.2970   -1.9407   31.6436 O   0  0  0  0  0  0  0  0  0  0  0  0
   -4.4238   -1.1008   34.5695 C   0  0  0  0  0  0  0  0  0  0  0  0
   -4.6527   -1.6021   35.9584 C   0  0  0  0  0  0  0  0  0  0  0  0
   -5.9415   -1.2001   36.5954 C   0  0  0  0  0  0  0  0  0  0  0  0
   -6.1073   -1.8209   37.9050 N   0  0  0  0  0  0  0  0  0  0  0  0
   -7.1991   -2.7052   38.0719 C   0  0  0  0  0  0  0  0  0  0  0  0
   -7.4874   -3.3671   39.2909 N   0  0  0  0  0  0  0  0  0  0  0  0
   -7.9657   -2.9105   37.0463 N   0  0  0  0  0  0  0  0  0  0  0  0
   -6.4832   -0.0899   32.9931 N   0  0  0  0  0  0  0  0  0  0  0  0
   -7.7699    0.3932   32.5598 C   0  0  2  0  0  0  0  0  0  0  0  0
   -7.6174    1.6711   31.8529 C   0  0  0  0  0  0  0  0  0  0  0  0
   -8.6426    2.2102   31.3696 O   0  0  0  0  0  0  0  0  0  0  0  0
   -8.6474    0.4349   33.7662 C   0  0  0  0  0  0  0  0  0  0  0  0
  -10.0606    0.0077   33.5607 C   0  0  0  0  0  0  0  0  0  0  0  0
  -10.3913   -1.0256   34.6238 C   0  0  0  0  0  0  0  0  0  0  0  0
  -11.5573   -0.6015   35.3559 N   0  0  0  0  0  0  0  0  0  0  0  0
  -11.4193   -0.2786   36.7600 C   0  0  0  0  0  0  0  0  0  0  0  0
  -12.4944    0.0155   37.6059 N   0  0  0  0  0  0  0  0  0  0  0  0
  -10.2134   -0.2755   37.2089 N   0  0  0  0  0  0  0  0  0  0  0  0
   -6.3885    2.3376   31.6811 N   0  0  0  0  0  0  0  0  0  0  0  0
   -6.1414    3.3320   30.6983 C   0  0  2  0  0  0  0  0  0  0  0  0
   -7.1673    3.6212   29.7151 C   0  0  0  0  0  0  0  0  0  0  0  0
   -8.0556    2.6914   29.4737 O   0  0  0  0  0  0  0  0  0  0  0  0
   -4.7718    3.1394   30.0230 C   0  0  1  0  0  0  0  0  0  0  0  0
   -4.3808    4.1221   29.0136 C   0  0  0  0  0  0  0  0  0  0  0  0
   -3.7542    3.2096   31.1598 C   0  0  0  0  0  0  0  0  0  0  0  0
   -7.4110    4.7670   28.9308 N   0  0  0  0  0  0  0  0  0  0  0  0
   -8.4381    5.0071   27.9812 C   0  0  2  0  0  0  0  0  0  0  0  0
   -8.2238    5.2380   26.6054 C   0  0  0  0  0  0  0  0  0  0  0  0
   -7.8831    6.4086   26.2022 O   0  0  0  0  0  0  0  0  0  0  0  0
   -9.1018    6.2280   28.6865 C   0  0  0  0  0  0  0  0  0  0  0  0
   -7.8392    7.0459   28.8781 C   0  0  0  0  0  0  0  0  0  0  0  0
   -6.7004    6.0077   29.0082 C   0  0  0  0  0  0  0  0  0  0  0  0
   -8.3527    4.2867   25.5617 N   0  0  0  0  0  0  0  0  0  0  0  0
   -7.7250    4.4117   24.2508 C   0  0  2  0  0  0  0  0  0  0  0  0
   -6.5864    5.3811   24.3331 C   0  0  0  0  0  0  0  0  0  0  0  0
   -6.6917    6.5332   23.8651 O   0  0  0  0  0  0  0  0  0  0  0  0
   -8.7636    4.8736   23.2576 C   0  0  0  0  0  0  0  0  0  0  0  0
   -9.1386    3.7567   22.3107 C   0  0  0  0  0  0  0  0  0  0  0  0
  -10.5787    3.4195   22.4117 C   0  0  0  0  0  0  0  0  0  0  0  0
  -11.1686    3.5643   23.5168 O   0  0  0  0  0  0  0  0  0  0  0  0
  -11.3423    2.9448   21.3540 O   0  0  0  0  0  0  0  0  0  0  0  0
   -5.3538    5.0159   24.9535 N   0  0  0  0  0  0  0  0  0  0  0  0
   -4.4254    4.0434   24.4001 C   0  0  2  0  0  0  0  0  0  0  0  0
   -3.5791    4.5648   23.3471 C   0  0  0  0  0  0  0  0  0  0  0  0
   -4.1110    4.9744   22.2873 O   0  0  0  0  0  0  0  0  0  0  0  0
   -5.1360    2.7824   23.9927 C   0  0  0  0  0  0  0  0  0  0  0  0
   -4.9044    2.3458   22.6116 C   0  0  0  0  0  0  0  0  0  0  0  0
   -5.9086    2.0964   21.7235 C   0  0  0  0  0  0  0  0  0  0  0  0
   -3.6022    2.1520   22.1620 C   0  0  0  0  0  0  0  0  0  0  0  0
   -5.7125    1.6695   20.4293 C   0  0  0  0  0  0  0  0  0  0  0  0
   -3.3890    1.7255   20.8688 C   0  0  0  0  0  0  0  0  0  0  0  0
   -4.4199    1.4749   19.9750 C   0  0  0  0  0  0  0  0  0  0  0  0
   -2.1534    4.6483   23.4122 N   0  0  0  0  0  0  0  0  0  0  0  0
   -1.2694    3.9538   22.5255 C   0  0  0  0  0  0  0  0  0  0  0  0
    0.1281    3.8418   22.9831 C   0  0  0  0  0  0  0  0  0  0  0  0
    1.0119    4.6906   22.6576 O   0  0  0  0  0  0  0  0  0  0  0  0
    0.5024    2.7586   23.8089 N   0  0  0  0  0  0  0  0  0  0  0  0
    0.0955    1.3910   23.6062 C   0  0  0  0  0  0  0  0  0  0  0  0
    0.6200    0.4448   24.5879 C   0  0  0  0  0  0  0  0  0  0  0  0
    1.7969    0.5781   25.0690 O   0  0  0  0  0  0  0  0  0  0  0  0
   -0.1443   -0.6350   25.0428 N   0  0  0  0  0  0  0  0  0  0  0  0
   -0.5513   -0.8136   26.4427 C   0  0  2  0  0  0  0  0  0  0  0  0
   -1.2797   -2.0760   26.5912 C   0  0  0  0  0  0  0  0  0  0  0  0
   -2.5162   -2.1102   26.2480 O   0  0  0  0  0  0  0  0  0  0  0  0
   -1.3609    0.3957   26.8271 C   0  0  0  0  0  0  0  0  0  0  0  0
   -1.7566    0.4512   28.2311 C   0  0  0  0  0  0  0  0  0  0  0  0
   -1.4084    1.5564   29.0015 C   0  0  0  0  0  0  0  0  0  0  0  0
   -2.4904   -0.5710   28.7901 C   0  0  0  0  0  0  0  0  0  0  0  0
   -1.8176    1.5917   30.3121 C   0  0  0  0  0  0  0  0  0  0  0  0
   -2.8844   -0.5106   30.1043 C   0  0  0  0  0  0  0  0  0  0  0  0
   -2.5517    0.5861   30.9000 C   0  0  0  0  0  0  0  0  0  0  0  0
   -2.9594    0.6311   32.2276 O   0  0  0  0  0  0  0  0  0  0  0  0
   -0.7617   -3.2619   27.0754 O   0  0  0  0  0  0  0  0  0  0  0  0
   -7.5579   -2.9502   36.0681 H   0  0  0  0  0  0  0  0  0  0  0  0
   -9.4198   -0.2187   36.5639 H   0  0  0  0  0  0  0  0  0  0  0  0
  2  1  1  6
  2  3  1  0
  2  5  1  0
  3  4  2  0
  3 10  1  0
  5  6  1  0
  6  7  1  0
  7  8  1  0
  7  9  2  0
 11 10  1  1
 11 12  1  0
 11 14  1  0
 12 13  2  0
 12 18  1  0
 14 15  1  0
 14 16  1  6
 15 17  1  0
 18 19  1  0
 19 20  1  0
 19 22  1  1
 20 21  2  0
 20 29  1  0
 22 23  1  0
 23 24  1  0
 24 25  1  0
 25 26  1  0
 26 27  1  0
 26 28  2  0
 29 30  1  0
 30 31  1  0
 30 33  1  1
 31 32  2  0
 31 40  1  0
 33 34  1  0
 34 35  1  0
 35 36  1  0
 36 37  1  0
 37 38  1  0
 37 39  2  0
 41 40  1  6
 41 42  1  0
 41 44  1  0
 42 43  2  0
 42 47  1  0
 44 45  1  6
 44 46  1  0
 47 48  1  0
 47 53  1  0
 48 49  1  6
 48 51  1  0
 49 50  2  0
 49 54  1  0
 51 52  1  0
 52 53  1  0
 54 55  1  0
 55 56  1  0
 55 58  1  6
 56 57  2  0
 56 63  1  0
 58 59  1  0
 59 60  1  0
 60 61  2  0
 60 62  1  0
 63 64  1  0
 64 65  1  0
 64 67  1  6
 65 66  2  0
 65 74  1  0
 67 68  1  0
 68 69  2  0
 68 70  1  0
 69 71  1  0
 70 72  2  0
 71 73  2  0
 72 73  1  0
 74 75  1  0
 75 76  1  0
 76 77  2  0
 76 78  1  0
 78 79  1  0
 79 80  1  0
 80 81  2  0
 80 82  1  0
 82 83  1  0
 83 84  1  0
 83 86  1  6
 84 85  2  0
 84 94  1  0
 86 87  1  0
 87 88  2  0
 87 89  1  0
 88 90  1  0
 89 91  2  0
 90 92  2  0
 91 92  1  0
 92 93  1  0
 28 95  1  0
 39 96  1  0
M  CHG  1   1   1
M  END
$$$$
