
     RDKit          3D

 96 98  0  0  0  0  0  0  0  0999 V2000
    2.1005   -7.9610   28.9520 N   0  0  0  0  0  4  0  0  0  0  0  0
    0.8461   -8.5010   28.5737 C   0  0  2  0  0  0  0  0  0  0  0  0
    0.2148   -7.5203   27.6031 C   0  0  0  0  0  0  0  0  0  0  0  0
    0.4926   -7.6513   26.3866 O   0  0  0  0  0  0  0  0  0  0  0  0
   -0.0970   -8.8613   29.6575 C   0  0  0  0  0  0  0  0  0  0  0  0
   -1.5437   -8.8235   29.3438 C   0  0  0  0  0  0  0  0  0  0  0  0
   -2.4122   -9.4572   30.3206 C   0  0  0  0  0  0  0  0  0  0  0  0
   -1.9022  -10.0007   31.5009 O   0  0  0  0  0  0  0  0  0  0  0  0
   -3.6505   -9.5500   30.1604 O   0  0  0  0  0  0  0  0  0  0  0  0
   -0.6533   -6.5058   28.0236 N   0  0  0  0  0  0  0  0  0  0  0  0
   -1.3811   -5.5840   27.1997 C   0  0  2  0  0  0  0  0  0  0  0  0
   -0.7096   -4.3326   26.9428 C   0  0  0  0  0  0  0  0  0  0  0  0
   -0.4795   -3.4900   27.8767 O   0  0  0  0  0  0  0  0  0  0  0  0
   -2.8008   -5.4021   27.6997 C   0  0  2  0  0  0  0  0  0  0  0  0
   -3.4787   -6.7314   27.8926 C   0  0  0  0  0  0  0  0  0  0  0  0
   -3.6636   -4.5256   26.8656 C   0  0  0  0  0  0  0  0  0  0  0  0
   -4.9199   -6.4814   28.4334 C   0  0  0  0  0  0  0  0  0  0  0  0
   -0.2214   -3.8710   25.6690 N   0  0  0  0  0  0  0  0  0  0  0  0
   -0.5588   -2.5571   25.2434 C   0  0  2  0  0  0  0  0  0  0  0  0
   -1.2666   -1.7866   26.3512 C   0  0  0  0  0  0  0  0  0  0  0  0
   -0.7500   -1.8911   27.4784 O   0  0  0  0  0  0  0  0  0  0  0  0
   -1.4204   -2.4939   24.0234 C   0  0  0  0  0  0  0  0  0  0  0  0
   -1.7347   -3.8042   23.3774 C   0  0  0  0  0  0  0  0  0  0  0  0
   -0.8025   -4.2414   22.2965 C   0  0  0  0  0  0  0  0  0  0  0  0
   -1.4417   -5.1887   21.3899 N   0  0  0  0  0  0  0  0  0  0  0  0
   -1.6093   -4.7882   20.0433 C   0  0  0  0  0  0  0  0  0  0  0  0
   -1.6846   -3.4333   19.6360 N   0  0  0  0  0  0  0  0  0  0  0  0
   -1.6974   -5.7217   19.1474 N   0  0  0  0  0  0  0  0  0  0  0  0
   -2.4120   -1.0045   26.1618 N   0  0  0  0  0  0  0  0  0  0  0  0
   -2.6784    0.2636   26.7925 C   0  0  2  0  0  0  0  0  0  0  0  0
   -3.5591    1.0748   25.9425 C   0  0  0  0  0  0  0  0  0  0  0  0
   -3.5227    0.8916   24.7014 O   0  0  0  0  0  0  0  0  0  0  0  0
   -1.3558    0.8789   27.1074 C   0  0  0  0  0  0  0  0  0  0  0  0
   -1.3969    2.2390   27.7160 C   0  0  0  0  0  0  0  0  0  0  0  0
   -0.0477    2.4972   28.3643 C   0  0  0  0  0  0  0  0  0  0  0  0
   -0.1352    2.2212   29.7756 N   0  0  0  0  0  0  0  0  0  0  0  0
   -0.6096    3.2631   30.6613 C   0  0  0  0  0  0  0  0  0  0  0  0
   -1.5169    4.2592   30.2841 N   0  0  0  0  0  0  0  0  0  0  0  0
   -0.1379    3.2265   31.8578 N   0  0  0  0  0  0  0  0  0  0  0  0
   -4.4494    2.0508   26.4311 N   0  0  0  0  0  0  0  0  0  0  0  0
   -5.8471    1.8591   26.5906 C   0  0  2  0  0  0  0  0  0  0  0  0
   -6.6406    2.9187   27.1827 C   0  0  0  0  0  0  0  0  0  0  0  0
   -6.0331    3.7566   27.9831 O   0  0  0  0  0  0  0  0  0  0  0  0
   -6.1666    0.5028   27.2443 C   0  0  1  0  0  0  0  0  0  0  0  0
   -5.2269   -0.5915   27.0054 C   0  0  0  0  0  0  0  0  0  0  0  0
   -6.1865    0.7797   28.7462 C   0  0  0  0  0  0  0  0  0  0  0  0
   -8.0066    3.2431   27.0560 N   0  0  0  0  0  0  0  0  0  0  0  0
   -8.7289    4.3331   27.6079 C   0  0  2  0  0  0  0  0  0  0  0  0
   -9.7889    4.2106   28.5316 C   0  0  0  0  0  0  0  0  0  0  0  0
  -10.6191    3.2371   28.4218 O   0  0  0  0  0  0  0  0  0  0  0  0
   -9.1871    4.9869   26.2695 C   0  0  0  0  0  0  0  0  0  0  0  0
   -9.7758    3.7390   25.6404 C   0  0  0  0  0  0  0  0  0  0  0  0
   -8.9606    2.5649   26.2311 C   0  0  0  0  0  0  0  0  0  0  0  0
  -10.0653    5.0808   29.6166 N   0  0  0  0  0  0  0  0  0  0  0  0
  -11.0441    4.8076   30.6632 C   0  0  2  0  0  0  0  0  0  0  0  0
  -11.1318    5.9854   31.5842 C   0  0  0  0  0  0  0  0  0  0  0  0
  -11.6572    7.0533   31.2090 O   0  0  0  0  0  0  0  0  0  0  0  0
  -10.6239    3.5635   31.4078 C   0  0  0  0  0  0  0  0  0  0  0  0
  -11.6961    2.5010   31.3307 C   0  0  0  0  0  0  0  0  0  0  0  0
  -11.8115    1.7523   32.6052 C   0  0  0  0  0  0  0  0  0  0  0  0
  -11.7009    2.3744   33.6964 O   0  0  0  0  0  0  0  0  0  0  0  0
  -12.0371    0.3850   32.6862 O   0  0  0  0  0  0  0  0  0  0  0  0
  -10.6230    5.9162   32.9160 N   0  0  0  0  0  0  0  0  0  0  0  0
  -10.4298    7.0765   33.7706 C   0  0  2  0  0  0  0  0  0  0  0  0
   -9.2966    6.9708   34.6659 C   0  0  0  0  0  0  0  0  0  0  0  0
   -9.4184    6.3083   35.7242 O   0  0  0  0  0  0  0  0  0  0  0  0
  -11.6983    7.4388   34.4922 C   0  0  0  0  0  0  0  0  0  0  0  0
  -12.3897    6.3253   35.1507 C   0  0  0  0  0  0  0  0  0  0  0  0
  -12.2350    6.0190   36.4704 C   0  0  0  0  0  0  0  0  0  0  0  0
  -13.2418    5.5121   34.4103 C   0  0  0  0  0  0  0  0  0  0  0  0
  -12.8611    4.9683   37.1024 C   0  0  0  0  0  0  0  0  0  0  0  0
  -13.8769    4.4565   35.0285 C   0  0  0  0  0  0  0  0  0  0  0  0
  -13.7103    4.1554   36.3724 C   0  0  0  0  0  0  0  0  0  0  0  0
   -8.0215    7.5777   34.4432 N   0  0  0  0  0  0  0  0  0  0  0  0
   -7.7402    8.9608   34.6838 C   0  0  0  0  0  0  0  0  0  0  0  0
   -7.9300    9.8566   33.5277 C   0  0  0  0  0  0  0  0  0  0  0  0
   -8.8235    9.6453   32.6534 O   0  0  0  0  0  0  0  0  0  0  0  0
   -7.0948   10.9864   33.3818 N   0  0  0  0  0  0  0  0  0  0  0  0
   -5.9537   11.0577   32.5043 C   0  0  0  0  0  0  0  0  0  0  0  0
   -6.1841   11.7864   31.2592 C   0  0  0  0  0  0  0  0  0  0  0  0
   -5.3041   11.8026   30.3321 O   0  0  0  0  0  0  0  0  0  0  0  0
   -7.3741   12.4857   31.0314 N   0  0  0  0  0  0  0  0  0  0  0  0
   -7.5982   13.8737   31.4561 C   0  0  2  0  0  0  0  0  0  0  0  0
   -8.9771   14.0335   31.9243 C   0  0  0  0  0  0  0  0  0  0  0  0
   -9.6995   12.9815   32.0633 O   0  0  0  0  0  0  0  0  0  0  0  0
   -7.2551   14.7566   30.2863 C   0  0  0  0  0  0  0  0  0  0  0  0
   -5.9357   14.5256   29.7063 C   0  0  0  0  0  0  0  0  0  0  0  0
   -4.8746   15.3548   30.0567 C   0  0  0  0  0  0  0  0  0  0  0  0
   -5.7304   13.4802   28.8340 C   0  0  0  0  0  0  0  0  0  0  0  0
   -3.6394   15.0960   29.5147 C   0  0  0  0  0  0  0  0  0  0  0  0
   -4.4848   13.2459   28.3051 C   0  0  0  0  0  0  0  0  0  0  0  0
   -3.4020   14.0595   28.6402 C   0  0  0  0  0  0  0  0  0  0  0  0
   -2.1485   13.8074   28.0963 O   0  0  0  0  0  0  0  0  0  0  0  0
   -9.5963   15.2283   32.2381 O   0  0  0  0  0  0  0  0  0  0  0  0
   -1.5109   -5.5073   18.1256 H   0  0  0  0  0  0  0  0  0  0  0  0
    0.2185    2.3492   32.2484 H   0  0  0  0  0  0  0  0  0  0  0  0
  2  1  1  1
  2  3  1  0
  2  5  1  0
  3  4  2  0
  3 10  1  0
  5  6  1  0
  6  7  1  0
  7  8  1  0
  7  9  2  0
 11 10  1  1
 11 12  1  0
 11 14  1  0
 12 13  2  0
 12 18  1  0
 14 15  1  0
 14 16  1  6
 15 17  1  0
 18 19  1  0
 19 20  1  0
 19 22  1  6
 20 21  2  0
 20 29  1  0
 22 23  1  0
 23 24  1  0
 24 25  1  0
 25 26  1  0
 26 27  1  0
 26 28  2  0
 29 30  1  0
 30 31  1  0
 30 33  1  6
 31 32  2  0
 31 40  1  0
 33 34  1  0
 34 35  1  0
 35 36  1  0
 36 37  1  0
 37 38  1  0
 37 39  2  0
 41 40  1  1
 41 42  1  0
 41 44  1  0
 42 43  2  0
 42 47  1  0
 44 45  1  1
 44 46  1  0
 47 48  1  0
 47 53  1  0
 48 49  1  1
 48 51  1  0
 49 50  2  0
 49 54  1  0
 51 52  1  0
 52 53  1  0
 54 55  1  0
 55 56  1  0
 55 58  1  1
 56 57  2  0
 56 63  1  0
 58 59  1  0
 59 60  1  0
 60 61  2  0
 60 62  1  0
 63 64  1  0
 64 65  1  0
 64 67  1  1
 65 66  2  0
 65 74  1  0
 67 68  1  0
 68 69  2  0
 68 70  1  0
 69 71  1  0
 70 72  2  0
 71 73  2  0
 72 73  1  0
 74 75  1  0
 75 76  1  0
 76 77  2  0
 76 78  1  0
 78 79  1  0
 79 80  1  0
 80 81  2  0
 80 82  1  0
 82 83  1  0
 83 84  1  0
 83 86  1  6
 84 85  2  0
 84 94  1  0
 86 87  1  0
 87 88  2  0
 87 89  1  0
 88 90  1  0
 89 91  2  0
 90 92  2  0
 91 92  1  0
 92 93  1  0
 28 95  1  0
 39 96  1  0
M  CHG  1   1   1
M  END
$$$$
