
     RDKit          3D

 96 98  0  0  0  0  0  0  0  0999 V2000
    5.1017   -4.0835   24.0226 N   0  0  0  0  0  4  0  0  0  0  0  0
    4.3501   -3.4019   25.0120 C   0  0  2  0  0  0  0  0  0  0  0  0
    2.9028   -3.4131   24.5566 C   0  0  0  0  0  0  0  0  0  0  0  0
    2.5957   -2.6757   23.5890 O   0  0  0  0  0  0  0  0  0  0  0  0
    4.7843   -2.0336   25.3771 C   0  0  0  0  0  0  0  0  0  0  0  0
    4.7767   -1.0076   24.3092 C   0  0  0  0  0  0  0  0  0  0  0  0
    5.2084    0.3190   24.7136 C   0  0  0  0  0  0  0  0  0  0  0  0
    5.2949    0.6752   26.0606 O   0  0  0  0  0  0  0  0  0  0  0  0
    5.5228    1.2056   23.8872 O   0  0  0  0  0  0  0  0  0  0  0  0
    1.9316   -4.2125   25.1709 N   0  0  0  0  0  0  0  0  0  0  0  0
    0.7321   -4.7346   24.5820 C   0  0  2  0  0  0  0  0  0  0  0  0
   -0.4578   -3.9553   24.8265 C   0  0  0  0  0  0  0  0  0  0  0  0
   -1.2152   -4.1835   25.8312 O   0  0  0  0  0  0  0  0  0  0  0  0
    0.5542   -6.2046   24.9078 C   0  0  2  0  0  0  0  0  0  0  0  0
   -0.5843   -6.7967   24.1222 C   0  0  0  0  0  0  0  0  0  0  0  0
    0.3757   -6.5216   26.3487 C   0  0  0  0  0  0  0  0  0  0  0  0
   -0.6964   -8.3120   24.4733 C   0  0  0  0  0  0  0  0  0  0  0  0
   -0.9429   -2.8623   24.0239 N   0  0  0  0  0  0  0  0  0  0  0  0
   -2.1178   -2.1781   24.4399 C   0  0  2  0  0  0  0  0  0  0  0  0
   -2.6876   -2.7912   25.7132 C   0  0  0  0  0  0  0  0  0  0  0  0
   -3.2625   -3.8840   25.5601 O   0  0  0  0  0  0  0  0  0  0  0  0
   -3.2140   -2.1380   23.4243 C   0  0  0  0  0  0  0  0  0  0  0  0
   -2.9497   -2.8706   22.1490 C   0  0  0  0  0  0  0  0  0  0  0  0
   -3.3442   -2.1641   20.8945 C   0  0  0  0  0  0  0  0  0  0  0  0
   -4.7676   -2.3217   20.6170 N   0  0  0  0  0  0  0  0  0  0  0  0
   -5.3105   -3.6240   20.7227 C   0  0  0  0  0  0  0  0  0  0  0  0
   -6.0403   -4.0758   21.8499 N   0  0  0  0  0  0  0  0  0  0  0  0
   -5.1209   -4.4344   19.7281 N   0  0  0  0  0  0  0  0  0  0  0  0
   -2.5928   -2.2073   26.9819 N   0  0  0  0  0  0  0  0  0  0  0  0
   -3.4787   -2.4565   28.0909 C   0  0  2  0  0  0  0  0  0  0  0  0
   -3.3872   -1.3622   29.0658 C   0  0  0  0  0  0  0  0  0  0  0  0
   -2.3633   -1.2928   29.7884 O   0  0  0  0  0  0  0  0  0  0  0  0
   -3.1415   -3.8100   28.6212 C   0  0  0  0  0  0  0  0  0  0  0  0
   -4.0504   -4.9175   28.2096 C   0  0  0  0  0  0  0  0  0  0  0  0
   -3.4167   -6.2253   28.6517 C   0  0  0  0  0  0  0  0  0  0  0  0
   -4.1350   -7.3269   28.0636 N   0  0  0  0  0  0  0  0  0  0  0  0
   -5.1027   -8.0384   28.8712 C   0  0  0  0  0  0  0  0  0  0  0  0
   -5.9456   -9.0422   28.3814 N   0  0  0  0  0  0  0  0  0  0  0  0
   -5.1514   -7.6890   30.1086 N   0  0  0  0  0  0  0  0  0  0  0  0
   -4.3783   -0.3776   29.2441 N   0  0  0  0  0  0  0  0  0  0  0  0
   -4.1474    0.9063   29.8047 C   0  0  2  0  0  0  0  0  0  0  0  0
   -5.2786    1.7758   30.0638 C   0  0  0  0  0  0  0  0  0  0  0  0
   -6.3960    1.5220   29.4323 O   0  0  0  0  0  0  0  0  0  0  0  0
   -3.0325    1.6623   29.0602 C   0  0  1  0  0  0  0  0  0  0  0  0
   -2.4363    2.8116   29.7394 C   0  0  0  0  0  0  0  0  0  0  0  0
   -1.9298    0.6288   28.8392 C   0  0  0  0  0  0  0  0  0  0  0  0
   -5.4201    2.8956   30.9084 N   0  0  0  0  0  0  0  0  0  0  0  0
   -6.5812    3.3984   31.5514 C   0  0  2  0  0  0  0  0  0  0  0  0
   -7.1526    4.6652   31.3049 C   0  0  0  0  0  0  0  0  0  0  0  0
   -8.1696    5.0483   31.9888 O   0  0  0  0  0  0  0  0  0  0  0  0
   -6.0931    3.2492   33.0238 C   0  0  0  0  0  0  0  0  0  0  0  0
   -4.7686    3.9690   32.8585 C   0  0  0  0  0  0  0  0  0  0  0  0
   -4.3588    3.7297   31.3866 C   0  0  0  0  0  0  0  0  0  0  0  0
   -6.7213    5.6102   30.3396 N   0  0  0  0  0  0  0  0  0  0  0  0
   -7.4642    5.9516   29.1315 C   0  0  2  0  0  0  0  0  0  0  0  0
   -8.9325    5.9295   29.4257 C   0  0  0  0  0  0  0  0  0  0  0  0
   -9.5306    4.8511   29.6172 O   0  0  0  0  0  0  0  0  0  0  0  0
   -7.1103    4.9617   28.0482 C   0  0  0  0  0  0  0  0  0  0  0  0
   -7.9022    5.2333   26.7899 C   0  0  0  0  0  0  0  0  0  0  0  0
   -8.1895    3.9822   26.0482 C   0  0  0  0  0  0  0  0  0  0  0  0
   -7.5448    2.9365   26.3325 O   0  0  0  0  0  0  0  0  0  0  0  0
   -9.1383    3.8760   25.0403 O   0  0  0  0  0  0  0  0  0  0  0  0
   -9.6851    7.1400   29.5006 N   0  0  0  0  0  0  0  0  0  0  0  0
  -10.2275    7.6814   30.7362 C   0  0  2  0  0  0  0  0  0  0  0  0
   -9.8186    9.0419   31.0168 C   0  0  0  0  0  0  0  0  0  0  0  0
   -8.6519    9.2532   31.4264 O   0  0  0  0  0  0  0  0  0  0  0  0
   -9.9734    6.7564   31.8941 C   0  0  0  0  0  0  0  0  0  0  0  0
  -10.6465    7.1144   33.1473 C   0  0  0  0  0  0  0  0  0  0  0  0
  -11.7554    6.4733   33.6150 C   0  0  0  0  0  0  0  0  0  0  0  0
  -10.1592    8.1702   33.9111 C   0  0  0  0  0  0  0  0  0  0  0  0
  -12.4114    6.8053   34.7790 C   0  0  0  0  0  0  0  0  0  0  0  0
  -10.8041    8.5145   35.0795 C   0  0  0  0  0  0  0  0  0  0  0  0
  -11.9322    7.8542   35.5441 C   0  0  0  0  0  0  0  0  0  0  0  0
  -10.6547   10.1921   30.8688 N   0  0  0  0  0  0  0  0  0  0  0  0
  -11.7801   10.4769   31.7067 C   0  0  0  0  0  0  0  0  0  0  0  0
  -12.3760   11.8150   31.5345 C   0  0  0  0  0  0  0  0  0  0  0  0
  -11.9499   12.6336   30.6651 O   0  0  0  0  0  0  0  0  0  0  0  0
  -13.4542   12.2050   32.3595 N   0  0  0  0  0  0  0  0  0  0  0  0
  -13.4825   13.3991   33.1659 C   0  0  0  0  0  0  0  0  0  0  0  0
  -13.3205   13.1727   34.6002 C   0  0  0  0  0  0  0  0  0  0  0  0
  -12.6404   12.1832   35.0389 O   0  0  0  0  0  0  0  0  0  0  0  0
  -13.8950   14.0300   35.5447 N   0  0  0  0  0  0  0  0  0  0  0  0
  -13.7637   13.8492   36.9963 C   0  0  2  0  0  0  0  0  0  0  0  0
  -14.9662   13.2025   37.5272 C   0  0  0  0  0  0  0  0  0  0  0  0
  -15.6173   12.4039   36.7616 O   0  0  0  0  0  0  0  0  0  0  0  0
  -13.4999   15.2067   37.5905 C   0  0  0  0  0  0  0  0  0  0  0  0
  -13.3607   15.2267   39.0434 C   0  0  0  0  0  0  0  0  0  0  0  0
  -13.5455   14.0539   39.7691 C   0  0  0  0  0  0  0  0  0  0  0  0
  -13.0260   16.3919   39.6963 C   0  0  0  0  0  0  0  0  0  0  0  0
  -13.3819   14.0988   41.1320 C   0  0  0  0  0  0  0  0  0  0  0  0
  -12.8712   16.4085   41.0608 C   0  0  0  0  0  0  0  0  0  0  0  0
  -13.0479   15.2474   41.8138 C   0  0  0  0  0  0  0  0  0  0  0  0
  -12.8863   15.2822   43.1935 O   0  0  0  0  0  0  0  0  0  0  0  0
  -15.4857   13.3680   38.7969 O   0  0  0  0  0  0  0  0  0  0  0  0
   -5.1408   -4.0763   18.7300 H   0  0  0  0  0  0  0  0  0  0  0  0
   -4.6561   -6.8526   30.4314 H   0  0  0  0  0  0  0  0  0  0  0  0
  2  1  1  6
  2  3  1  0
  2  5  1  0
  3  4  2  0
  3 10  1  0
  5  6  1  0
  6  7  1  0
  7  8  1  0
  7  9  2  0
 11 10  1  1
 11 12  1  0
 11 14  1  0
 12 13  2  0
 12 18  1  0
 14 15  1  0
 14 16  1  1
 15 17  1  0
 18 19  1  0
 19 20  1  0
 19 22  1  6
 20 21  2  0
 20 29  1  0
 22 23  1  0
 23 24  1  0
 24 25  1  0
 25 26  1  0
 26 27  1  0
 26 28  2  0
 29 30  1  0
 30 31  1  0
 30 33  1  1
 31 32  2  0
 31 40  1  0
 33 34  1  0
 34 35  1  0
 35 36  1  0
 36 37  1  0
 37 38  1  0
 37 39  2  0
 41 40  1  6
 41 42  1  0
 41 44  1  0
 42 43  2  0
 42 47  1  0
 44 45  1  1
 44 46  1  0
 47 48  1  0
 47 53  1  0
 48 49  1  6
 48 51  1  0
 49 50  2  0
 49 54  1  0
 51 52  1  0
 52 53  1  0
 54 55  1  0
 55 56  1  0
 55 58  1  6
 56 57  2  0
 56 63  1  0
 58 59  1  0
 59 60  1  0
 60 61  2  0
 60 62  1  0
 63 64  1  0
 64 65  1  0
 64 67  1  1
 65 66  2  0
 65 74  1  0
 67 68  1  0
 68 69  2  0
 68 70  1  0
 69 71  1  0
 70 72  2  0
 71 73  2  0
 72 73  1  0
 74 75  1  0
 75 76  1  0
 76 77  2  0
 76 78  1  0
 78 79  1  0
 79 80  1  0
 80 81  2  0
 80 82  1  0
 82 83  1  0
 83 84  1  0
 83 86  1  1
 84 85  2  0
 84 94  1  0
 86 87  1  0
 87 88  2  0
 87 89  1  0
 88 90  1  0
 89 91  2  0
 90 92  2  0
 91 92  1  0
 92 93  1  0
 28 95  1  0
 39 96  1  0
M  CHG  1   1   1
M  END
$$$$
