
     RDKit          3D

 96 98  0  0  0  0  0  0  0  0999 V2000
    3.1094   -2.1444   29.5201 N   0  0  0  0  0  4  0  0  0  0  0  0
    4.0098   -2.7194   28.5891 C   0  0  2  0  0  0  0  0  0  0  0  0
    3.1797   -3.5271   27.6088 C   0  0  0  0  0  0  0  0  0  0  0  0
    3.7522   -3.9439   26.5730 O   0  0  0  0  0  0  0  0  0  0  0  0
    5.1297   -3.5241   29.1299 C   0  0  0  0  0  0  0  0  0  0  0  0
    6.0552   -4.1467   28.1560 C   0  0  0  0  0  0  0  0  0  0  0  0
    7.1624   -4.8897   28.7323 C   0  0  0  0  0  0  0  0  0  0  0  0
    8.0786   -5.5684   27.9268 O   0  0  0  0  0  0  0  0  0  0  0  0
    7.3541   -4.9619   29.9674 O   0  0  0  0  0  0  0  0  0  0  0  0
    1.8285   -3.8157   27.8332 N   0  0  0  0  0  0  0  0  0  0  0  0
    0.8290   -4.1277   26.8525 C   0  0  2  0  0  0  0  0  0  0  0  0
    0.3821   -3.0085   26.0582 C   0  0  0  0  0  0  0  0  0  0  0  0
    1.1931   -2.3271   25.3419 O   0  0  0  0  0  0  0  0  0  0  0  0
   -0.3144   -4.9140   27.4633 C   0  0  2  0  0  0  0  0  0  0  0  0
    0.1993   -6.0911   28.2472 C   0  0  0  0  0  0  0  0  0  0  0  0
   -1.3542   -5.3751   26.5069 C   0  0  0  0  0  0  0  0  0  0  0  0
    0.4090   -5.6496   29.7281 C   0  0  0  0  0  0  0  0  0  0  0  0
   -0.9686   -2.5197   25.9551 N   0  0  0  0  0  0  0  0  0  0  0  0
   -1.2161   -1.3546   25.1786 C   0  0  2  0  0  0  0  0  0  0  0  0
   -2.2820   -1.6164   24.1215 C   0  0  0  0  0  0  0  0  0  0  0  0
   -1.9114   -1.4448   22.9461 O   0  0  0  0  0  0  0  0  0  0  0  0
   -0.0156   -0.7953   24.4852 C   0  0  0  0  0  0  0  0  0  0  0  0
    0.5916   -1.6615   23.4298 C   0  0  0  0  0  0  0  0  0  0  0  0
   -0.1419   -2.9235   23.1169 C   0  0  0  0  0  0  0  0  0  0  0  0
    0.4757   -3.6396   22.0062 N   0  0  0  0  0  0  0  0  0  0  0  0
   -0.3363   -3.9214   20.8823 C   0  0  0  0  0  0  0  0  0  0  0  0
   -0.9522   -2.9184   20.0938 N   0  0  0  0  0  0  0  0  0  0  0  0
   -0.5168   -5.1674   20.5713 N   0  0  0  0  0  0  0  0  0  0  0  0
   -3.5911   -2.0237   24.4039 N   0  0  0  0  0  0  0  0  0  0  0  0
   -4.7885   -1.2898   24.0809 C   0  0  2  0  0  0  0  0  0  0  0  0
   -4.8269   -0.0298   24.8340 C   0  0  0  0  0  0  0  0  0  0  0  0
   -4.3644   -0.0193   26.0007 O   0  0  0  0  0  0  0  0  0  0  0  0
   -5.9397   -2.2088   24.3205 C   0  0  0  0  0  0  0  0  0  0  0  0
   -6.0667   -3.3558   23.3771 C   0  0  0  0  0  0  0  0  0  0  0  0
   -6.1559   -4.6274   24.2032 C   0  0  0  0  0  0  0  0  0  0  0  0
   -7.4885   -5.1665   24.1080 N   0  0  0  0  0  0  0  0  0  0  0  0
   -7.8983   -5.7973   22.8715 C   0  0  0  0  0  0  0  0  0  0  0  0
   -8.0656   -5.1148   21.6615 N   0  0  0  0  0  0  0  0  0  0  0  0
   -8.1092   -7.0646   22.9426 N   0  0  0  0  0  0  0  0  0  0  0  0
   -5.3505    1.1766   24.3299 N   0  0  0  0  0  0  0  0  0  0  0  0
   -4.8427    2.4664   24.6372 C   0  0  2  0  0  0  0  0  0  0  0  0
   -5.5819    3.3151   25.5516 C   0  0  0  0  0  0  0  0  0  0  0  0
   -4.9246    4.2691   26.1596 O   0  0  0  0  0  0  0  0  0  0  0  0
   -4.4455    3.2410   23.3680 C   0  0  1  0  0  0  0  0  0  0  0  0
   -4.1076    4.6546   23.5266 C   0  0  0  0  0  0  0  0  0  0  0  0
   -3.2072    2.5233   22.8349 C   0  0  0  0  0  0  0  0  0  0  0  0
   -6.9397    3.3177   25.9308 N   0  0  0  0  0  0  0  0  0  0  0  0
   -7.7870    4.4137   26.2396 C   0  0  2  0  0  0  0  0  0  0  0  0
   -8.3862    4.6378   27.4976 C   0  0  0  0  0  0  0  0  0  0  0  0
   -9.4726    4.0251   27.8031 O   0  0  0  0  0  0  0  0  0  0  0  0
   -8.8434    4.1920   25.1156 C   0  0  0  0  0  0  0  0  0  0  0  0
   -9.1194    2.7283   25.4006 C   0  0  0  0  0  0  0  0  0  0  0  0
   -7.8005    2.1748   25.9886 C   0  0  0  0  0  0  0  0  0  0  0  0
   -7.9129    5.5073   28.5130 N   0  0  0  0  0  0  0  0  0  0  0  0
   -8.7689    6.3476   29.3432 C   0  0  2  0  0  0  0  0  0  0  0  0
   -9.6553    5.4808   30.1835 C   0  0  0  0  0  0  0  0  0  0  0  0
  -10.8975    5.5763   30.1122 O   0  0  0  0  0  0  0  0  0  0  0  0
   -9.5808    7.2496   28.4456 C   0  0  0  0  0  0  0  0  0  0  0  0
   -9.6851    8.6396   29.0300 C   0  0  0  0  0  0  0  0  0  0  0  0
  -10.5683    9.5070   28.2142 C   0  0  0  0  0  0  0  0  0  0  0  0
  -11.3638   10.2947   28.7946 O   0  0  0  0  0  0  0  0  0  0  0  0
  -10.5838    9.5149   26.8260 O   0  0  0  0  0  0  0  0  0  0  0  0
   -9.1038    4.5192   31.0828 N   0  0  0  0  0  0  0  0  0  0  0  0
   -9.3855    4.4890   32.5088 C   0  0  2  0  0  0  0  0  0  0  0  0
   -9.4556    5.7967   33.1267 C   0  0  0  0  0  0  0  0  0  0  0  0
  -10.1796    6.6776   32.6036 O   0  0  0  0  0  0  0  0  0  0  0  0
   -8.4448    3.5640   33.2304 C   0  0  0  0  0  0  0  0  0  0  0  0
   -7.8788    2.4809   32.4191 C   0  0  0  0  0  0  0  0  0  0  0  0
   -8.5960    1.3972   32.0061 C   0  0  0  0  0  0  0  0  0  0  0  0
   -6.5381    2.5276   32.0507 C   0  0  0  0  0  0  0  0  0  0  0  0
   -8.0790    0.3624   31.2593 C   0  0  0  0  0  0  0  0  0  0  0  0
   -6.0055    1.4999   31.3025 C   0  0  0  0  0  0  0  0  0  0  0  0
   -6.7462    0.4022   30.8890 C   0  0  0  0  0  0  0  0  0  0  0  0
   -8.7470    6.1801   34.3077 N   0  0  0  0  0  0  0  0  0  0  0  0
   -9.3575    6.8133   35.4375 C   0  0  0  0  0  0  0  0  0  0  0  0
   -8.4553    7.0969   36.5692 C   0  0  0  0  0  0  0  0  0  0  0  0
   -7.3136    6.5550   36.6707 O   0  0  0  0  0  0  0  0  0  0  0  0
   -8.8681    7.9980   37.5757 N   0  0  0  0  0  0  0  0  0  0  0  0
   -9.7090    7.6527   38.6940 C   0  0  0  0  0  0  0  0  0  0  0  0
  -10.2717    8.7942   39.4117 C   0  0  0  0  0  0  0  0  0  0  0  0
  -10.9250    8.6329   40.4985 O   0  0  0  0  0  0  0  0  0  0  0  0
  -10.1120   10.1026   38.9431 N   0  0  0  0  0  0  0  0  0  0  0  0
  -10.1011   11.2851   39.8143 C   0  0  2  0  0  0  0  0  0  0  0  0
   -8.8386   12.0103   39.6519 C   0  0  0  0  0  0  0  0  0  0  0  0
   -8.0709   11.6864   38.6755 O   0  0  0  0  0  0  0  0  0  0  0  0
  -10.3401   10.8028   41.2200 C   0  0  0  0  0  0  0  0  0  0  0  0
  -10.4158   11.8558   42.2280 C   0  0  0  0  0  0  0  0  0  0  0  0
  -11.4389   12.7969   42.1652 C   0  0  0  0  0  0  0  0  0  0  0  0
   -9.4961   11.9095   43.2513 C   0  0  0  0  0  0  0  0  0  0  0  0
  -11.4990   13.7596   43.1429 C   0  0  0  0  0  0  0  0  0  0  0  0
   -9.5788   12.8849   44.2145 C   0  0  0  0  0  0  0  0  0  0  0  0
  -10.5951   13.8401   44.1783 C   0  0  0  0  0  0  0  0  0  0  0  0
  -10.6641   14.8194   45.1617 O   0  0  0  0  0  0  0  0  0  0  0  0
   -8.3766   13.0304   40.4613 O   0  0  0  0  0  0  0  0  0  0  0  0
   -1.4631   -5.5068   20.2333 H   0  0  0  0  0  0  0  0  0  0  0  0
   -8.0185   -7.5562   23.8366 H   0  0  0  0  0  0  0  0  0  0  0  0
  2  1  1  1
  2  3  1  0
  2  5  1  0
  3  4  2  0
  3 10  1  0
  5  6  1  0
  6  7  1  0
  7  8  1  0
  7  9  2  0
 11 10  1  1
 11 12  1  0
 11 14  1  0
 12 13  2  0
 12 18  1  0
 14 15  1  0
 14 16  1  6
 15 17  1  0
 18 19  1  0
 19 20  1  0
 19 22  1  6
 20 21  2  0
 20 29  1  0
 22 23  1  0
 23 24  1  0
 24 25  1  0
 25 26  1  0
 26 27  1  0
 26 28  2  0
 29 30  1  0
 30 31  1  0
 30 33  1  1
 31 32  2  0
 31 40  1  0
 33 34  1  0
 34 35  1  0
 35 36  1  0
 36 37  1  0
 37 38  1  0
 37 39  2  0
 41 40  1  6
 41 42  1  0
 41 44  1  0
 42 43  2  0
 42 47  1  0
 44 45  1  1
 44 46  1  0
 47 48  1  0
 47 53  1  0
 48 49  1  1
 48 51  1  0
 49 50  2  0
 49 54  1  0
 51 52  1  0
 52 53  1  0
 54 55  1  0
 55 56  1  0
 55 58  1  6
 56 57  2  0
 56 63  1  0
 58 59  1  0
 59 60  1  0
 60 61  2  0
 60 62  1  0
 63 64  1  0
 64 65  1  0
 64 67  1  1
 65 66  2  0
 65 74  1  0
 67 68  1  0
 68 69  2  0
 68 70  1  0
 69 71  1  0
 70 72  2  0
 71 73  2  0
 72 73  1  0
 74 75  1  0
 75 76  1  0
 76 77  2  0
 76 78  1  0
 78 79  1  0
 79 80  1  0
 80 81  2  0
 80 82  1  0
 82 83  1  0
 83 84  1  0
 83 86  1  1
 84 85  2  0
 84 94  1  0
 86 87  1  0
 87 88  2  0
 87 89  1  0
 88 90  1  0
 89 91  2  0
 90 92  2  0
 91 92  1  0
 92 93  1  0
 28 95  1  0
 39 96  1  0
M  CHG  1   1   1
M  END
$$$$
