
     RDKit          3D

 96 98  0  0  0  0  0  0  0  0999 V2000
    6.8106   -0.2030   26.1149 N   0  0  0  0  0  4  0  0  0  0  0  0
    5.4522   -0.4822   25.8230 C   0  0  2  0  0  0  0  0  0  0  0  0
    4.7207   -0.5652   27.1498 C   0  0  0  0  0  0  0  0  0  0  0  0
    5.4108   -0.4966   28.1954 O   0  0  0  0  0  0  0  0  0  0  0  0
    5.1643   -1.6654   24.9797 C   0  0  0  0  0  0  0  0  0  0  0  0
    3.8600   -2.3396   25.1725 C   0  0  0  0  0  0  0  0  0  0  0  0
    3.2472   -2.8721   23.9680 C   0  0  0  0  0  0  0  0  0  0  0  0
    3.9845   -3.0495   22.7959 O   0  0  0  0  0  0  0  0  0  0  0  0
    2.0393   -3.1973   23.9145 O   0  0  0  0  0  0  0  0  0  0  0  0
    3.3302   -0.7047   27.2297 N   0  0  0  0  0  0  0  0  0  0  0  0
    2.3654    0.3210   27.5042 C   0  0  2  0  0  0  0  0  0  0  0  0
    0.9998   -0.1357   27.6040 C   0  0  0  0  0  0  0  0  0  0  0  0
    0.3308   -0.4825   26.5709 O   0  0  0  0  0  0  0  0  0  0  0  0
    2.5288    1.4966   26.5608 C   0  0  2  0  0  0  0  0  0  0  0  0
    3.5249    2.4865   27.1010 C   0  0  0  0  0  0  0  0  0  0  0  0
    1.2733    2.2065   26.2026 C   0  0  0  0  0  0  0  0  0  0  0  0
    4.9599    1.9130   26.8923 C   0  0  0  0  0  0  0  0  0  0  0  0
    0.2291   -0.2660   28.8134 N   0  0  0  0  0  0  0  0  0  0  0  0
   -0.5851   -1.4192   28.9838 C   0  0  2  0  0  0  0  0  0  0  0  0
   -1.9316   -1.0541   29.5968 C   0  0  0  0  0  0  0  0  0  0  0  0
   -1.8875   -0.6890   30.7855 O   0  0  0  0  0  0  0  0  0  0  0  0
    0.0203   -2.4967   29.8246 C   0  0  0  0  0  0  0  0  0  0  0  0
   -0.7607   -3.7672   29.9197 C   0  0  0  0  0  0  0  0  0  0  0  0
   -0.1763   -4.8312   30.7885 C   0  0  0  0  0  0  0  0  0  0  0  0
    0.6187   -5.7775   30.0137 N   0  0  0  0  0  0  0  0  0  0  0  0
    1.3281   -6.7704   30.7299 C   0  0  0  0  0  0  0  0  0  0  0  0
    1.2383   -6.9330   32.1344 N   0  0  0  0  0  0  0  0  0  0  0  0
    2.0964   -7.5645   30.0510 N   0  0  0  0  0  0  0  0  0  0  0  0
   -3.1513   -1.1067   28.9121 N   0  0  0  0  0  0  0  0  0  0  0  0
   -3.5724   -2.1603   28.0235 C   0  0  2  0  0  0  0  0  0  0  0  0
   -4.0346   -1.5925   26.7507 C   0  0  0  0  0  0  0  0  0  0  0  0
   -5.0705   -0.8840   26.7561 O   0  0  0  0  0  0  0  0  0  0  0  0
   -4.5835   -2.9731   28.7613 C   0  0  0  0  0  0  0  0  0  0  0  0
   -5.0919   -4.1822   28.0531 C   0  0  0  0  0  0  0  0  0  0  0  0
   -4.3009   -5.3787   28.5530 C   0  0  0  0  0  0  0  0  0  0  0  0
   -4.7620   -6.5690   27.8851 N   0  0  0  0  0  0  0  0  0  0  0  0
   -3.8796   -7.7141   27.8137 C   0  0  0  0  0  0  0  0  0  0  0  0
   -4.2372   -9.0053   28.2172 N   0  0  0  0  0  0  0  0  0  0  0  0
   -2.7058   -7.4771   27.3429 N   0  0  0  0  0  0  0  0  0  0  0  0
   -3.3871   -1.7904   25.5156 N   0  0  0  0  0  0  0  0  0  0  0  0
   -3.3411   -0.8339   24.4673 C   0  0  2  0  0  0  0  0  0  0  0  0
   -3.8553    0.5005   24.7080 C   0  0  0  0  0  0  0  0  0  0  0  0
   -3.3649    1.1658   25.7222 O   0  0  0  0  0  0  0  0  0  0  0  0
   -3.8916   -1.4052   23.1485 C   0  0  1  0  0  0  0  0  0  0  0  0
   -5.1484   -2.1491   23.2159 C   0  0  0  0  0  0  0  0  0  0  0  0
   -4.1176   -0.1896   22.2518 C   0  0  0  0  0  0  0  0  0  0  0  0
   -4.8262    1.2628   24.0271 N   0  0  0  0  0  0  0  0  0  0  0  0
   -5.6491    2.3131   24.5109 C   0  0  2  0  0  0  0  0  0  0  0  0
   -7.0584    2.2675   24.5729 C   0  0  0  0  0  0  0  0  0  0  0  0
   -7.7542    2.9914   23.7725 O   0  0  0  0  0  0  0  0  0  0  0  0
   -5.1378    3.4403   23.5640 C   0  0  0  0  0  0  0  0  0  0  0  0
   -5.3097    2.6853   22.2600 C   0  0  0  0  0  0  0  0  0  0  0  0
   -5.1214    1.1949   22.6276 C   0  0  0  0  0  0  0  0  0  0  0  0
   -7.8373    1.4842   25.4622 N   0  0  0  0  0  0  0  0  0  0  0  0
   -9.0802    1.9314   26.0812 C   0  0  2  0  0  0  0  0  0  0  0  0
   -8.8012    2.4067   27.4738 C   0  0  0  0  0  0  0  0  0  0  0  0
   -7.8050    3.1169   27.7201 O   0  0  0  0  0  0  0  0  0  0  0  0
  -10.0615    0.7844   26.0830 C   0  0  0  0  0  0  0  0  0  0  0  0
  -10.5748    0.5117   24.6878 C   0  0  0  0  0  0  0  0  0  0  0  0
  -10.3470   -0.8985   24.2912 C   0  0  0  0  0  0  0  0  0  0  0  0
  -11.3390   -1.6596   24.1276 O   0  0  0  0  0  0  0  0  0  0  0  0
   -9.0923   -1.4547   24.0824 O   0  0  0  0  0  0  0  0  0  0  0  0
   -9.6694    2.0658   28.5543 N   0  0  0  0  0  0  0  0  0  0  0  0
   -9.5705    2.6416   29.8857 C   0  0  2  0  0  0  0  0  0  0  0  0
   -9.7374    4.0795   29.9231 C   0  0  0  0  0  0  0  0  0  0  0  0
   -8.9372    4.8008   29.2803 O   0  0  0  0  0  0  0  0  0  0  0  0
   -8.3156    2.1921   30.5817 C   0  0  0  0  0  0  0  0  0  0  0  0
   -8.1223    2.7194   31.9368 C   0  0  0  0  0  0  0  0  0  0  0  0
   -7.4051    3.8465   32.2099 C   0  0  0  0  0  0  0  0  0  0  0  0
   -8.6749    2.0452   33.0211 C   0  0  0  0  0  0  0  0  0  0  0  0
   -7.1977    4.3474   33.4755 C   0  0  0  0  0  0  0  0  0  0  0  0
   -8.4771    2.5342   34.2945 C   0  0  0  0  0  0  0  0  0  0  0  0
   -7.7446    3.6823   34.5588 C   0  0  0  0  0  0  0  0  0  0  0  0
  -10.7582    4.7636   30.6538 N   0  0  0  0  0  0  0  0  0  0  0  0
  -10.8261    6.1870   30.7928 C   0  0  0  0  0  0  0  0  0  0  0  0
   -9.6773    6.8129   31.4737 C   0  0  0  0  0  0  0  0  0  0  0  0
   -8.4957    6.7167   31.0242 O   0  0  0  0  0  0  0  0  0  0  0  0
   -9.8907    7.5429   32.6640 N   0  0  0  0  0  0  0  0  0  0  0  0
   -9.0121    8.5676   33.1691 C   0  0  0  0  0  0  0  0  0  0  0  0
   -9.6845    9.7877   33.6091 C   0  0  0  0  0  0  0  0  0  0  0  0
  -10.3624    9.8130   34.6926 O   0  0  0  0  0  0  0  0  0  0  0  0
   -9.6073   10.9721   32.8686 N   0  0  0  0  0  0  0  0  0  0  0  0
   -9.7991   12.3088   33.4463 C   0  0  2  0  0  0  0  0  0  0  0  0
   -9.5942   12.2575   34.8960 C   0  0  0  0  0  0  0  0  0  0  0  0
   -9.0317   11.2175   35.3957 O   0  0  0  0  0  0  0  0  0  0  0  0
  -11.1761   12.7700   33.0505 C   0  0  0  0  0  0  0  0  0  0  0  0
  -11.3268   13.1213   31.6417 C   0  0  0  0  0  0  0  0  0  0  0  0
  -10.2212   13.0735   30.7980 C   0  0  0  0  0  0  0  0  0  0  0  0
  -12.5584   13.4768   31.1391 C   0  0  0  0  0  0  0  0  0  0  0  0
  -10.3999   13.3842   29.4722 C   0  0  0  0  0  0  0  0  0  0  0  0
  -12.7079   13.7849   29.8092 C   0  0  0  0  0  0  0  0  0  0  0  0
  -11.6177   13.7433   28.9395 C   0  0  0  0  0  0  0  0  0  0  0  0
  -11.7873   14.0573   27.5966 O   0  0  0  0  0  0  0  0  0  0  0  0
   -9.9535   13.2357   35.8034 O   0  0  0  0  0  0  0  0  0  0  0  0
    2.7885   -7.1741   29.3485 H   0  0  0  0  0  0  0  0  0  0  0  0
   -2.5601   -6.7185   26.6703 H   0  0  0  0  0  0  0  0  0  0  0  0
  2  1  1  1
  2  3  1  0
  2  5  1  0
  3  4  2  0
  3 10  1  0
  5  6  1  0
  6  7  1  0
  7  8  1  0
  7  9  2  0
 11 10  1  6
 11 12  1  0
 11 14  1  0
 12 13  2  0
 12 18  1  0
 14 15  1  0
 14 16  1  1
 15 17  1  0
 18 19  1  0
 19 20  1  0
 19 22  1  1
 20 21  2  0
 20 29  1  0
 22 23  1  0
 23 24  1  0
 24 25  1  0
 25 26  1  0
 26 27  1  0
 26 28  2  0
 29 30  1  0
 30 31  1  0
 30 33  1  1
 31 32  2  0
 31 40  1  0
 33 34  1  0
 34 35  1  0
 35 36  1  0
 36 37  1  0
 37 38  1  0
 37 39  2  0
 41 40  1  1
 41 42  1  0
 41 44  1  0
 42 43  2  0
 42 47  1  0
 44 45  1  1
 44 46  1  0
 47 48  1  0
 47 53  1  0
 48 49  1  6
 48 51  1  0
 49 50  2  0
 49 54  1  0
 51 52  1  0
 52 53  1  0
 54 55  1  0
 55 56  1  0
 55 58  1  1
 56 57  2  0
 56 63  1  0
 58 59  1  0
 59 60  1  0
 60 61  2  0
 60 62  1  0
 63 64  1  0
 64 65  1  0
 64 67  1  6
 65 66  2  0
 65 74  1  0
 67 68  1  0
 68 69  2  0
 68 70  1  0
 69 71  1  0
 70 72  2  0
 71 73  2  0
 72 73  1  0
 74 75  1  0
 75 76  1  0
 76 77  2  0
 76 78  1  0
 78 79  1  0
 79 80  1  0
 80 81  2  0
 80 82  1  0
 82 83  1  0
 83 84  1  0
 83 86  1  1
 84 85  2  0
 84 94  1  0
 86 87  1  0
 87 88  2  0
 87 89  1  0
 88 90  1  0
 89 91  2  0
 90 92  2  0
 91 92  1  0
 92 93  1  0
 28 95  1  0
 39 96  1  0
M  CHG  1   1   1
M  END
$$$$
