
     RDKit          3D

 96 98  0  0  0  0  0  0  0  0999 V2000
    1.9843   -5.8371   22.3062 N   0  0  0  0  0  4  0  0  0  0  0  0
    1.7336   -4.7319   23.1571 C   0  0  2  0  0  0  0  0  0  0  0  0
    0.6983   -3.8647   22.4656 C   0  0  0  0  0  0  0  0  0  0  0  0
    0.9477   -3.4897   21.2945 O   0  0  0  0  0  0  0  0  0  0  0  0
    2.8986   -3.9277   23.5928 C   0  0  0  0  0  0  0  0  0  0  0  0
    4.2372   -4.5519   23.4855 C   0  0  0  0  0  0  0  0  0  0  0  0
    5.3590   -3.6834   23.7976 C   0  0  0  0  0  0  0  0  0  0  0  0
    6.6320   -3.9273   23.2790 O   0  0  0  0  0  0  0  0  0  0  0  0
    5.2481   -2.6810   24.5394 O   0  0  0  0  0  0  0  0  0  0  0  0
   -0.4995   -3.4911   23.0863 N   0  0  0  0  0  0  0  0  0  0  0  0
   -1.8177   -3.5107   22.5205 C   0  0  2  0  0  0  0  0  0  0  0  0
   -2.8713   -3.0874   23.4115 C   0  0  0  0  0  0  0  0  0  0  0  0
   -3.9802   -2.6286   22.9699 O   0  0  0  0  0  0  0  0  0  0  0  0
   -2.1084   -4.8386   21.8490 C   0  0  2  0  0  0  0  0  0  0  0  0
   -1.4313   -4.9240   20.5080 C   0  0  0  0  0  0  0  0  0  0  0  0
   -3.5479   -5.1747   21.6963 C   0  0  0  0  0  0  0  0  0  0  0  0
   -1.9350   -6.2060   19.7768 C   0  0  0  0  0  0  0  0  0  0  0  0
   -2.8368   -3.1193   24.8508 N   0  0  0  0  0  0  0  0  0  0  0  0
   -2.7306   -1.8910   25.5591 C   0  0  2  0  0  0  0  0  0  0  0  0
   -3.8307   -0.9217   25.1440 C   0  0  0  0  0  0  0  0  0  0  0  0
   -4.1136   -0.9337   23.9324 O   0  0  0  0  0  0  0  0  0  0  0  0
   -1.4212   -1.1870   25.4025 C   0  0  0  0  0  0  0  0  0  0  0  0
   -0.2728   -1.7674   26.1621 C   0  0  0  0  0  0  0  0  0  0  0  0
    0.0704   -1.0907   27.4478 C   0  0  0  0  0  0  0  0  0  0  0  0
   -0.5034   -1.7920   28.5909 N   0  0  0  0  0  0  0  0  0  0  0  0
   -1.0046   -1.0031   29.6532 C   0  0  0  0  0  0  0  0  0  0  0  0
   -1.1231    0.4072   29.5888 N   0  0  0  0  0  0  0  0  0  0  0  0
   -1.3696   -1.6178   30.7352 N   0  0  0  0  0  0  0  0  0  0  0  0
   -4.5029   -0.0660   26.0245 N   0  0  0  0  0  0  0  0  0  0  0  0
   -5.4166   -0.4746   27.0614 C   0  0  2  0  0  0  0  0  0  0  0  0
   -6.0244    0.7041   27.6918 C   0  0  0  0  0  0  0  0  0  0  0  0
   -5.2878    1.6866   27.9515 O   0  0  0  0  0  0  0  0  0  0  0  0
   -4.6560   -1.3677   27.9839 C   0  0  0  0  0  0  0  0  0  0  0  0
   -5.4264   -1.9329   29.1280 C   0  0  0  0  0  0  0  0  0  0  0  0
   -5.0577   -3.4010   29.2545 C   0  0  0  0  0  0  0  0  0  0  0  0
   -4.4964   -3.6418   30.5592 N   0  0  0  0  0  0  0  0  0  0  0  0
   -3.0567   -3.6445   30.7088 C   0  0  0  0  0  0  0  0  0  0  0  0
   -2.3299   -2.6138   31.3148 N   0  0  0  0  0  0  0  0  0  0  0  0
   -2.4557   -4.6808   30.2392 N   0  0  0  0  0  0  0  0  0  0  0  0
   -7.3889    0.8066   28.0254 N   0  0  0  0  0  0  0  0  0  0  0  0
   -8.1723    1.9797   27.8635 C   0  0  2  0  0  0  0  0  0  0  0  0
   -8.5941    2.7133   29.0411 C   0  0  0  0  0  0  0  0  0  0  0  0
   -9.5124    2.1695   29.7979 O   0  0  0  0  0  0  0  0  0  0  0  0
   -9.3557    1.7484   26.9070 C   0  0  1  0  0  0  0  0  0  0  0  0
  -10.3767    2.7930   26.8430 C   0  0  0  0  0  0  0  0  0  0  0  0
   -8.7282    1.6252   25.5200 C   0  0  0  0  0  0  0  0  0  0  0  0
   -8.1858    3.9588   29.5600 N   0  0  0  0  0  0  0  0  0  0  0  0
   -7.8690    4.3183   30.8960 C   0  0  2  0  0  0  0  0  0  0  0  0
   -8.5776    5.2676   31.6633 C   0  0  0  0  0  0  0  0  0  0  0  0
   -7.9625    5.9436   32.5653 O   0  0  0  0  0  0  0  0  0  0  0  0
   -6.3876    4.7401   30.6595 C   0  0  0  0  0  0  0  0  0  0  0  0
   -6.6426    5.6894   29.5047 C   0  0  0  0  0  0  0  0  0  0  0  0
   -7.9021    5.1371   28.7973 C   0  0  0  0  0  0  0  0  0  0  0  0
   -9.9578    5.5751   31.5573 N   0  0  0  0  0  0  0  0  0  0  0  0
  -10.9222    5.4192   32.6406 C   0  0  2  0  0  0  0  0  0  0  0  0
  -10.4697    6.2102   33.8292 C   0  0  0  0  0  0  0  0  0  0  0  0
  -11.0587    6.1122   34.9250 O   0  0  0  0  0  0  0  0  0  0  0  0
  -11.0427    3.9524   32.9758 C   0  0  0  0  0  0  0  0  0  0  0  0
  -11.9558    3.7434   34.1619 C   0  0  0  0  0  0  0  0  0  0  0  0
  -13.2504    3.1482   33.7526 C   0  0  0  0  0  0  0  0  0  0  0  0
  -13.7958    2.2894   34.4977 O   0  0  0  0  0  0  0  0  0  0  0  0
  -13.9209    3.4749   32.5817 O   0  0  0  0  0  0  0  0  0  0  0  0
   -9.3504    7.0917   33.7422 N   0  0  0  0  0  0  0  0  0  0  0  0
   -8.9113    7.9530   34.8283 C   0  0  2  0  0  0  0  0  0  0  0  0
   -8.5584    9.2950   34.4144 C   0  0  0  0  0  0  0  0  0  0  0  0
   -7.8847   10.0129   35.1919 O   0  0  0  0  0  0  0  0  0  0  0  0
   -7.8259    7.2988   35.6375 C   0  0  0  0  0  0  0  0  0  0  0  0
   -7.4351    8.0091   36.8600 C   0  0  0  0  0  0  0  0  0  0  0  0
   -6.4907    7.5475   37.7286 C   0  0  0  0  0  0  0  0  0  0  0  0
   -8.0558    9.2114   37.1837 C   0  0  0  0  0  0  0  0  0  0  0  0
   -6.1227    8.1903   38.8892 C   0  0  0  0  0  0  0  0  0  0  0  0
   -7.6979    9.8677   38.3416 C   0  0  0  0  0  0  0  0  0  0  0  0
   -6.7355    9.3868   39.2174 C   0  0  0  0  0  0  0  0  0  0  0  0
   -8.9274    9.8877   33.1668 N   0  0  0  0  0  0  0  0  0  0  0  0
  -10.2362   10.3894   32.8748 C   0  0  0  0  0  0  0  0  0  0  0  0
  -10.2872   11.5035   31.9098 C   0  0  0  0  0  0  0  0  0  0  0  0
  -11.3820   12.0353   31.5546 O   0  0  0  0  0  0  0  0  0  0  0  0
   -9.0846   11.9988   31.3588 N   0  0  0  0  0  0  0  0  0  0  0  0
   -8.9998   13.0711   30.3996 C   0  0  0  0  0  0  0  0  0  0  0  0
   -8.5656   14.3523   30.9512 C   0  0  0  0  0  0  0  0  0  0  0  0
   -7.9927   15.2268   30.2155 O   0  0  0  0  0  0  0  0  0  0  0  0
   -8.7652   14.6732   32.2981 N   0  0  0  0  0  0  0  0  0  0  0  0
   -9.5987   15.7931   32.7547 C   0  0  2  0  0  0  0  0  0  0  0  0
   -9.4799   15.9409   34.2073 C   0  0  0  0  0  0  0  0  0  0  0  0
   -9.7627   14.9312   34.9479 O   0  0  0  0  0  0  0  0  0  0  0  0
  -11.0042   15.5175   32.2920 C   0  0  0  0  0  0  0  0  0  0  0  0
  -11.9043   15.0115   33.3238 C   0  0  0  0  0  0  0  0  0  0  0  0
  -12.9762   15.7921   33.7458 C   0  0  0  0  0  0  0  0  0  0  0  0
  -11.7124   13.7598   33.8644 C   0  0  0  0  0  0  0  0  0  0  0  0
  -13.8207   15.2780   34.6991 C   0  0  0  0  0  0  0  0  0  0  0  0
  -12.5714   13.2715   34.8182 C   0  0  0  0  0  0  0  0  0  0  0  0
  -13.6558   14.0308   35.2587 C   0  0  0  0  0  0  0  0  0  0  0  0
  -14.5155   13.5207   36.2238 O   0  0  0  0  0  0  0  0  0  0  0  0
   -9.0870   17.0824   34.8794 O   0  0  0  0  0  0  0  0  0  0  0  0
   -2.3194   -1.4293   31.1677 H   0  0  0  0  0  0  0  0  0  0  0  0
   -1.5043   -4.6047   29.8675 H   0  0  0  0  0  0  0  0  0  0  0  0
  2  1  1  6
  2  3  1  0
  2  5  1  0
  3  4  2  0
  3 10  1  0
  5  6  1  0
  6  7  1  0
  7  8  1  0
  7  9  2  0
 11 10  1  1
 11 12  1  0
 11 14  1  0
 12 13  2  0
 12 18  1  0
 14 15  1  0
 14 16  1  6
 15 17  1  0
 18 19  1  0
 19 20  1  0
 19 22  1  6
 20 21  2  0
 20 29  1  0
 22 23  1  0
 23 24  1  0
 24 25  1  0
 25 26  1  0
 26 27  1  0
 26 28  2  0
 29 30  1  0
 30 31  1  0
 30 33  1  1
 31 32  2  0
 31 40  1  0
 33 34  1  0
 34 35  1  0
 35 36  1  0
 36 37  1  0
 37 38  1  0
 37 39  2  0
 41 40  1  1
 41 42  1  0
 41 44  1  0
 42 43  2  0
 42 47  1  0
 44 45  1  6
 44 46  1  0
 47 48  1  0
 47 53  1  0
 48 49  1  6
 48 51  1  0
 49 50  2  0
 49 54  1  0
 51 52  1  0
 52 53  1  0
 54 55  1  0
 55 56  1  0
 55 58  1  1
 56 57  2  0
 56 63  1  0
 58 59  1  0
 59 60  1  0
 60 61  2  0
 60 62  1  0
 63 64  1  0
 64 65  1  0
 64 67  1  6
 65 66  2  0
 65 74  1  0
 67 68  1  0
 68 69  2  0
 68 70  1  0
 69 71  1  0
 70 72  2  0
 71 73  2  0
 72 73  1  0
 74 75  1  0
 75 76  1  0
 76 77  2  0
 76 78  1  0
 78 79  1  0
 79 80  1  0
 80 81  2  0
 80 82  1  0
 82 83  1  0
 83 84  1  0
 83 86  1  1
 84 85  2  0
 84 94  1  0
 86 87  1  0
 87 88  2  0
 87 89  1  0
 88 90  1  0
 89 91  2  0
 90 92  2  0
 91 92  1  0
 92 93  1  0
 28 95  1  0
 39 96  1  0
M  CHG  1   1   1
M  END
$$$$
