
     RDKit          3D

 58 60  0  0  0  0  0  0  0  0999 V2000
   -3.4178    9.1696   33.6304 N   0  0  0  0  0  4  0  0  0  0  0  0
   -3.9270    7.8828   33.2708 C   0  0  0  0  0  0  0  0  0  0  0  0
   -3.0439    6.7729   33.7547 C   0  0  0  0  0  0  0  0  0  0  0  0
   -1.7931    6.9206   33.7193 O   0  0  0  0  0  0  0  0  0  0  0  0
   -3.5402    5.5509   34.2566 N   0  0  0  0  0  0  0  0  0  0  0  0
   -2.7653    4.4619   34.7515 C   0  0  2  0  0  0  0  0  0  0  0  0
   -3.3029    3.2092   34.1062 C   0  0  0  0  0  0  0  0  0  0  0  0
   -4.5450    3.0547   33.9936 O   0  0  0  0  0  0  0  0  0  0  0  0
   -2.7847    4.2642   36.2085 C   0  0  0  0  0  0  0  0  0  0  0  0
   -2.0911    5.2921   37.0024 C   0  0  0  0  0  0  0  0  0  0  0  0
   -0.7375    5.3241   37.2398 C   0  0  0  0  0  0  0  0  0  0  0  0
   -2.8559    6.3028   37.5514 C   0  0  0  0  0  0  0  0  0  0  0  0
   -0.1331    6.3048   37.9877 C   0  0  0  0  0  0  0  0  0  0  0  0
   -2.2753    7.2987   38.3054 C   0  0  0  0  0  0  0  0  0  0  0  0
   -0.8998    7.3113   38.5333 C   0  0  0  0  0  0  0  0  0  0  0  0
   -2.4680    2.1727   33.6092 N   0  0  0  0  0  0  0  0  0  0  0  0
   -2.4974    1.8785   32.2045 C   0  0  0  0  0  0  0  0  0  0  0  0
   -3.8324    1.4188   31.7626 C   0  0  0  0  0  0  0  0  0  0  0  0
   -4.4199    0.4507   32.3389 O   0  0  0  0  0  0  0  0  0  0  0  0
   -4.4793    2.0515   30.6765 N   0  0  0  0  0  0  0  0  0  0  0  0
   -5.6860    1.5343   30.0384 C   0  0  2  0  0  0  0  0  0  0  0  0
   -5.3628    1.3132   28.5936 C   0  0  0  0  0  0  0  0  0  0  0  0
   -4.1605    1.3985   28.2418 O   0  0  0  0  0  0  0  0  0  0  0  0
   -6.8092    2.4730   30.2708 C   0  0  1  0  0  0  0  0  0  0  0  0
   -8.0508    2.0843   29.5081 C   0  0  0  0  0  0  0  0  0  0  0  0
   -7.2002    2.5443   31.7351 C   0  0  0  0  0  0  0  0  0  0  0  0
   -6.3660    1.0201   27.6412 N   0  0  0  0  0  0  0  0  0  0  0  0
   -6.0084    0.7313   26.2127 C   0  0  2  0  0  0  0  0  0  0  0  0
   -7.2752    0.5720   25.4747 C   0  0  0  0  0  0  0  0  0  0  0  0
   -8.2072   -0.0602   26.1006 O   0  0  0  0  0  0  0  0  0  0  0  0
   -5.2308   -0.5521   26.2850 C   0  0  1  0  0  0  0  0  0  0  0  0
   -4.8176   -1.0149   24.9249 C   0  0  0  0  0  0  0  0  0  0  0  0
   -3.9678   -0.3793   27.1125 C   0  0  0  0  0  0  0  0  0  0  0  0
   -7.5432    1.0534   24.1731 N   0  0  0  0  0  0  0  0  0  0  0  0
   -8.8858    1.2661   23.6409 C   0  0  2  0  0  0  0  0  0  0  0  0
   -9.2866    0.2722   22.6375 C   0  0  0  0  0  0  0  0  0  0  0  0
   -8.5025    0.0386   21.6546 O   0  0  0  0  0  0  0  0  0  0  0  0
   -8.8078    2.6678   23.0652 C   0  0  0  0  0  0  0  0  0  0  0  0
   -7.3758    2.7167   22.5836 C   0  0  0  0  0  0  0  0  0  0  0  0
   -6.6746    1.4883   23.1094 C   0  0  0  0  0  0  0  0  0  0  0  0
  -10.4837   -0.4564   22.6692 N   0  0  0  0  0  0  0  0  0  0  0  0
  -10.9463   -1.3857   21.6787 C   0  0  2  0  0  0  0  0  0  0  0  0
  -10.5195   -0.9906   20.3035 C   0  0  0  0  0  0  0  0  0  0  0  0
  -10.3018    0.2150   20.0213 O   0  0  0  0  0  0  0  0  0  0  0  0
  -12.4309   -1.6413   21.7358 C   0  0  0  0  0  0  0  0  0  0  0  0
  -12.6846   -2.6625   20.7887 O   0  0  0  0  0  0  0  0  0  0  0  0
  -10.3424   -1.9487   19.2666 N   0  0  0  0  0  0  0  0  0  0  0  0
   -9.7481   -1.6265   17.9735 C   0  0  2  0  0  0  0  0  0  0  0  0
   -9.6862   -2.8017   17.0944 C   0  0  0  0  0  0  0  0  0  0  0  0
   -9.2282   -3.8737   17.5370 O   0  0  0  0  0  0  0  0  0  0  0  0
   -8.3892   -1.0377   18.2648 C   0  0  0  0  0  0  0  0  0  0  0  0
   -8.3036    0.4193   18.0983 C   0  0  0  0  0  0  0  0  0  0  0  0
   -8.3666    1.2653   19.1736 C   0  0  0  0  0  0  0  0  0  0  0  0
   -8.1633    1.0026   16.8474 C   0  0  0  0  0  0  0  0  0  0  0  0
   -8.2925    2.6288   19.0033 C   0  0  0  0  0  0  0  0  0  0  0  0
   -8.0889    2.3678   16.6711 C   0  0  0  0  0  0  0  0  0  0  0  0
   -8.1523    3.2141   17.7507 C   0  0  0  0  0  0  0  0  0  0  0  0
  -10.1202   -2.7779   15.7692 O   0  0  0  0  0  0  0  0  0  0  0  0
  1  2  1  0
  2  3  1  0
  3  4  2  0
  3  5  1  0
  5  6  1  0
  6  7  1  0
  6  9  1  1
  7  8  2  0
  7 16  1  0
  9 10  1  0
 10 11  2  0
 10 12  1  0
 11 13  1  0
 12 14  2  0
 13 15  2  0
 14 15  1  0
 16 17  1  0
 17 18  1  0
 18 19  2  0
 18 20  1  0
 21 20  1  1
 21 22  1  0
 21 24  1  0
 22 23  2  0
 22 27  1  0
 24 25  1  6
 24 26  1  0
 28 27  1  1
 28 29  1  0
 28 31  1  0
 29 30  2  0
 29 34  1  0
 31 32  1  6
 31 33  1  0
 34 35  1  0
 34 40  1  0
 35 36  1  6
 35 38  1  0
 36 37  2  0
 36 41  1  0
 38 39  1  0
 39 40  1  0
 41 42  1  0
 42 43  1  0
 42 45  1  6
 43 44  2  0
 43 47  1  0
 45 46  1  0
 47 48  1  0
 48 49  1  0
 48 51  1  1
 49 50  2  0
 49 58  1  0
 51 52  1  0
 52 53  2  0
 52 54  1  0
 53 55  1  0
 54 56  2  0
 55 57  2  0
 56 57  1  0
M  CHG  1   1   1
M  END
$$$$
