
     RDKit          3D

 58 60  0  0  0  0  0  0  0  0999 V2000
    2.7681   -7.4329   23.8075 N   0  0  0  0  0  4  0  0  0  0  0  0
    1.4819   -6.9227   23.4473 C   0  0  0  0  0  0  0  0  0  0  0  0
    1.2550   -5.5410   23.9812 C   0  0  0  0  0  0  0  0  0  0  0  0
    2.2292   -4.7467   24.0694 O   0  0  0  0  0  0  0  0  0  0  0  0
   -0.0081   -5.0693   24.3978 N   0  0  0  0  0  0  0  0  0  0  0  0
   -1.1940   -5.0152   23.6090 C   0  0  2  0  0  0  0  0  0  0  0  0
   -2.3456   -4.7992   24.5586 C   0  0  0  0  0  0  0  0  0  0  0  0
   -2.4919   -5.5703   25.5401 O   0  0  0  0  0  0  0  0  0  0  0  0
   -1.4897   -6.2096   22.8037 C   0  0  0  0  0  0  0  0  0  0  0  0
   -2.8292   -6.7916   22.9914 C   0  0  0  0  0  0  0  0  0  0  0  0
   -3.7797   -6.3160   23.8631 C   0  0  0  0  0  0  0  0  0  0  0  0
   -3.1588   -7.8994   22.2353 C   0  0  0  0  0  0  0  0  0  0  0  0
   -5.0184   -6.8922   24.0047 C   0  0  0  0  0  0  0  0  0  0  0  0
   -4.3940   -8.4967   22.3574 C   0  0  0  0  0  0  0  0  0  0  0  0
   -5.3432   -7.9972   23.2483 C   0  0  0  0  0  0  0  0  0  0  0  0
   -3.2940   -3.7530   24.4029 N   0  0  0  0  0  0  0  0  0  0  0  0
   -2.8198   -2.4011   24.3130 C   0  0  0  0  0  0  0  0  0  0  0  0
   -2.7258   -1.7574   25.6418 C   0  0  0  0  0  0  0  0  0  0  0  0
   -1.9483   -2.2095   26.5393 O   0  0  0  0  0  0  0  0  0  0  0  0
   -3.5127   -0.6213   25.9393 N   0  0  0  0  0  0  0  0  0  0  0  0
   -3.9908   -0.2943   27.2792 C   0  0  2  0  0  0  0  0  0  0  0  0
   -5.2069    0.5636   27.1182 C   0  0  0  0  0  0  0  0  0  0  0  0
   -5.6750    1.1161   28.1440 O   0  0  0  0  0  0  0  0  0  0  0  0
   -2.8983    0.3429   28.0520 C   0  0  1  0  0  0  0  0  0  0  0  0
   -2.7476    1.8092   27.7331 C   0  0  0  0  0  0  0  0  0  0  0  0
   -3.1237    0.2421   29.5490 C   0  0  0  0  0  0  0  0  0  0  0  0
   -5.8237    0.7545   25.8603 N   0  0  0  0  0  0  0  0  0  0  0  0
   -7.2211    1.2932   25.7637 C   0  0  2  0  0  0  0  0  0  0  0  0
   -7.5217    1.9456   27.0517 C   0  0  0  0  0  0  0  0  0  0  0  0
   -7.1097    1.3209   28.1005 O   0  0  0  0  0  0  0  0  0  0  0  0
   -8.0665    0.0721   25.5374 C   0  0  1  0  0  0  0  0  0  0  0  0
   -9.5025    0.4349   25.3348 C   0  0  0  0  0  0  0  0  0  0  0  0
   -7.6085   -0.6880   24.3036 C   0  0  0  0  0  0  0  0  0  0  0  0
   -8.2002    3.1739   27.2209 N   0  0  0  0  0  0  0  0  0  0  0  0
   -7.5533    4.4138   27.6398 C   0  0  2  0  0  0  0  0  0  0  0  0
   -7.8721    4.8090   29.0174 C   0  0  0  0  0  0  0  0  0  0  0  0
   -8.8475    4.2348   29.6126 O   0  0  0  0  0  0  0  0  0  0  0  0
   -8.0517    5.4213   26.6207 C   0  0  0  0  0  0  0  0  0  0  0  0
   -9.4458    4.9064   26.3445 C   0  0  0  0  0  0  0  0  0  0  0  0
   -9.5723    3.5543   27.0025 C   0  0  0  0  0  0  0  0  0  0  0  0
   -7.1807    5.7849   29.7483 N   0  0  0  0  0  0  0  0  0  0  0  0
   -6.8759    5.7481   31.1499 C   0  0  2  0  0  0  0  0  0  0  0  0
   -7.0322    7.0890   31.7880 C   0  0  0  0  0  0  0  0  0  0  0  0
   -6.1971    8.0034   31.5715 O   0  0  0  0  0  0  0  0  0  0  0  0
   -5.5266    5.1515   31.4599 C   0  0  0  0  0  0  0  0  0  0  0  0
   -5.4335    5.1175   32.8721 O   0  0  0  0  0  0  0  0  0  0  0  0
   -8.1190    7.3862   32.6569 N   0  0  0  0  0  0  0  0  0  0  0  0
   -8.3545    8.7126   33.2176 C   0  0  2  0  0  0  0  0  0  0  0  0
   -7.4540    8.9960   34.3430 C   0  0  0  0  0  0  0  0  0  0  0  0
   -7.4471   10.1353   34.8495 O   0  0  0  0  0  0  0  0  0  0  0  0
   -9.8125    8.7579   33.6051 C   0  0  0  0  0  0  0  0  0  0  0  0
  -10.7499    8.6020   32.4850 C   0  0  0  0  0  0  0  0  0  0  0  0
  -11.2933    7.3839   32.1736 C   0  0  0  0  0  0  0  0  0  0  0  0
  -11.1200    9.6768   31.6897 C   0  0  0  0  0  0  0  0  0  0  0  0
  -12.1648    7.2498   31.1170 C   0  0  0  0  0  0  0  0  0  0  0  0
  -11.9923    9.5481   30.6300 C   0  0  0  0  0  0  0  0  0  0  0  0
  -12.5359    8.3257   30.3196 C   0  0  0  0  0  0  0  0  0  0  0  0
   -6.5928    8.0399   34.8811 O   0  0  0  0  0  0  0  0  0  0  0  0
  1  2  1  0
  2  3  1  0
  3  4  2  0
  3  5  1  0
  5  6  1  0
  6  7  1  0
  6  9  1  1
  7  8  2  0
  7 16  1  0
  9 10  1  0
 10 11  2  0
 10 12  1  0
 11 13  1  0
 12 14  2  0
 13 15  2  0
 14 15  1  0
 16 17  1  0
 17 18  1  0
 18 19  2  0
 18 20  1  0
 21 20  1  6
 21 22  1  0
 21 24  1  0
 22 23  2  0
 22 27  1  0
 24 25  1  6
 24 26  1  0
 28 27  1  1
 28 29  1  0
 28 31  1  0
 29 30  2  0
 29 34  1  0
 31 32  1  6
 31 33  1  0
 34 35  1  0
 34 40  1  0
 35 36  1  1
 35 38  1  0
 36 37  2  0
 36 41  1  0
 38 39  1  0
 39 40  1  0
 41 42  1  0
 42 43  1  0
 42 45  1  6
 43 44  2  0
 43 47  1  0
 45 46  1  0
 47 48  1  0
 48 49  1  0
 48 51  1  1
 49 50  2  0
 49 58  1  0
 51 52  1  0
 52 53  2  0
 52 54  1  0
 53 55  1  0
 54 56  2  0
 55 57  2  0
 56 57  1  0
M  CHG  1   1   1
M  END
$$$$
