
     RDKit          3D

 58 60  0  0  0  0  0  0  0  0999 V2000
    0.2983   -5.8828   24.8188 N   0  0  0  0  0  4  0  0  0  0  0  0
    0.4672   -4.4659   24.7276 C   0  0  0  0  0  0  0  0  0  0  0  0
   -0.7917   -3.7756   24.2981 C   0  0  0  0  0  0  0  0  0  0  0  0
   -0.7766   -2.5308   24.1040 O   0  0  0  0  0  0  0  0  0  0  0  0
   -2.0143   -4.4504   24.0947 N   0  0  0  0  0  0  0  0  0  0  0  0
   -3.2848   -3.8483   23.8607 C   0  0  2  0  0  0  0  0  0  0  0  0
   -3.8804   -3.5367   25.2108 C   0  0  0  0  0  0  0  0  0  0  0  0
   -3.4950   -4.1780   26.2206 O   0  0  0  0  0  0  0  0  0  0  0  0
   -4.2573   -4.6601   23.1138 C   0  0  0  0  0  0  0  0  0  0  0  0
   -3.8769   -5.0038   21.7335 C   0  0  0  0  0  0  0  0  0  0  0  0
   -4.6452   -5.7422   20.8652 C   0  0  0  0  0  0  0  0  0  0  0  0
   -2.6560   -4.5509   21.2730 C   0  0  0  0  0  0  0  0  0  0  0  0
   -4.2489   -6.0385   19.5839 C   0  0  0  0  0  0  0  0  0  0  0  0
   -2.2343   -4.8335   19.9925 C   0  0  0  0  0  0  0  0  0  0  0  0
   -3.0303   -5.5845   19.1285 C   0  0  0  0  0  0  0  0  0  0  0  0
   -4.8729   -2.5398   25.4098 N   0  0  0  0  0  0  0  0  0  0  0  0
   -4.5944   -1.4616   26.3155 C   0  0  0  0  0  0  0  0  0  0  0  0
   -5.1633   -0.1802   25.8430 C   0  0  0  0  0  0  0  0  0  0  0  0
   -4.4146    0.7645   25.4411 O   0  0  0  0  0  0  0  0  0  0  0  0
   -6.5630    0.0179   25.8374 N   0  0  0  0  0  0  0  0  0  0  0  0
   -7.1999    1.3113   26.0658 C   0  0  2  0  0  0  0  0  0  0  0  0
   -7.2213    1.5392   27.5450 C   0  0  0  0  0  0  0  0  0  0  0  0
   -8.0038    0.8405   28.2350 O   0  0  0  0  0  0  0  0  0  0  0  0
   -8.5397    1.3213   25.4321 C   0  0  1  0  0  0  0  0  0  0  0  0
   -9.2776    2.6153   25.6674 C   0  0  0  0  0  0  0  0  0  0  0  0
   -8.4620    1.1295   23.9290 C   0  0  0  0  0  0  0  0  0  0  0  0
   -6.3965    2.5076   28.1625 N   0  0  0  0  0  0  0  0  0  0  0  0
   -6.4268    2.7070   29.6496 C   0  0  2  0  0  0  0  0  0  0  0  0
   -7.7851    3.1653   29.9957 C   0  0  0  0  0  0  0  0  0  0  0  0
   -8.4683    3.6629   29.0232 O   0  0  0  0  0  0  0  0  0  0  0  0
   -5.3921    3.7683   29.8952 C   0  0  1  0  0  0  0  0  0  0  0  0
   -5.4775    4.2984   31.2903 C   0  0  0  0  0  0  0  0  0  0  0  0
   -3.9889    3.2182   29.7001 C   0  0  0  0  0  0  0  0  0  0  0  0
   -8.3836    3.0952   31.2742 N   0  0  0  0  0  0  0  0  0  0  0  0
   -9.7879    3.3956   31.5366 C   0  0  2  0  0  0  0  0  0  0  0  0
   -9.9974    4.6674   32.2396 C   0  0  0  0  0  0  0  0  0  0  0  0
  -11.1819    5.1443   32.3097 O   0  0  0  0  0  0  0  0  0  0  0  0
  -10.2464    2.2024   32.3540 C   0  0  0  0  0  0  0  0  0  0  0  0
   -8.9932    1.8697   33.1311 C   0  0  0  0  0  0  0  0  0  0  0  0
   -7.8676    2.6959   32.5585 C   0  0  0  0  0  0  0  0  0  0  0  0
   -8.9840    5.4172   32.8524 N   0  0  0  0  0  0  0  0  0  0  0  0
   -9.0411    6.8075   33.2028 C   0  0  2  0  0  0  0  0  0  0  0  0
   -8.1236    7.6311   32.3606 C   0  0  0  0  0  0  0  0  0  0  0  0
   -7.5806    8.6649   32.8263 O   0  0  0  0  0  0  0  0  0  0  0  0
   -8.8170    7.0710   34.6701 C   0  0  0  0  0  0  0  0  0  0  0  0
   -8.3100    8.3901   34.7535 O   0  0  0  0  0  0  0  0  0  0  0  0
   -7.8273    7.2858   31.0125 N   0  0  0  0  0  0  0  0  0  0  0  0
   -8.5676    7.8134   29.8710 C   0  0  2  0  0  0  0  0  0  0  0  0
   -8.1039    7.2310   28.6047 C   0  0  0  0  0  0  0  0  0  0  0  0
   -7.2480    6.3245   28.6250 O   0  0  0  0  0  0  0  0  0  0  0  0
   -8.4123    9.3139   29.9201 C   0  0  0  0  0  0  0  0  0  0  0  0
   -9.2597    9.9860   30.9141 C   0  0  0  0  0  0  0  0  0  0  0  0
  -10.6240    9.8690   30.8845 C   0  0  0  0  0  0  0  0  0  0  0  0
   -8.7184   10.7732   31.9200 C   0  0  0  0  0  0  0  0  0  0  0  0
  -11.4072   10.5097   31.8172 C   0  0  0  0  0  0  0  0  0  0  0  0
   -9.4981   11.4174   32.8567 C   0  0  0  0  0  0  0  0  0  0  0  0
  -10.8659   11.2988   32.8251 C   0  0  0  0  0  0  0  0  0  0  0  0
   -8.5799    7.6481   27.3619 O   0  0  0  0  0  0  0  0  0  0  0  0
  1  2  1  0
  2  3  1  0
  3  4  2  0
  3  5  1  0
  5  6  1  0
  6  7  1  0
  6  9  1  1
  7  8  2  0
  7 16  1  0
  9 10  1  0
 10 11  2  0
 10 12  1  0
 11 13  1  0
 12 14  2  0
 13 15  2  0
 14 15  1  0
 16 17  1  0
 17 18  1  0
 18 19  2  0
 18 20  1  0
 21 20  1  1
 21 22  1  0
 21 24  1  0
 22 23  2  0
 22 27  1  0
 24 25  1  6
 24 26  1  0
 28 27  1  6
 28 29  1  0
 28 31  1  0
 29 30  2  0
 29 34  1  0
 31 32  1  1
 31 33  1  0
 34 35  1  0
 34 40  1  0
 35 36  1  1
 35 38  1  0
 36 37  2  0
 36 41  1  0
 38 39  1  0
 39 40  1  0
 41 42  1  0
 42 43  1  0
 42 45  1  1
 43 44  2  0
 43 47  1  0
 45 46  1  0
 47 48  1  0
 48 49  1  0
 48 51  1  6
 49 50  2  0
 49 58  1  0
 51 52  1  0
 52 53  2  0
 52 54  1  0
 53 55  1  0
 54 56  2  0
 55 57  2  0
 56 57  1  0
M  CHG  1   1   1
M  END
$$$$
