
     RDKit          3D

 58 60  0  0  0  0  0  0  0  0999 V2000
    3.8159    4.5152   33.9519 N   0  0  0  0  0  4  0  0  0  0  0  0
    2.4922    4.9714   33.6614 C   0  0  0  0  0  0  0  0  0  0  0  0
    1.5230    4.6137   34.7468 C   0  0  0  0  0  0  0  0  0  0  0  0
    1.9439    4.4675   35.9254 O   0  0  0  0  0  0  0  0  0  0  0  0
    0.1422    4.4280   34.5220 N   0  0  0  0  0  0  0  0  0  0  0  0
   -0.8774    4.3718   35.5164 C   0  0  2  0  0  0  0  0  0  0  0  0
   -2.1774    4.1043   34.8002 C   0  0  0  0  0  0  0  0  0  0  0  0
   -2.4387    4.7246   33.7389 O   0  0  0  0  0  0  0  0  0  0  0  0
   -1.0516    5.5823   36.3329 C   0  0  0  0  0  0  0  0  0  0  0  0
    0.1290    6.0101   37.1018 C   0  0  0  0  0  0  0  0  0  0  0  0
    1.3070    5.3076   37.1927 C   0  0  0  0  0  0  0  0  0  0  0  0
    0.0501    7.2082   37.7845 C   0  0  0  0  0  0  0  0  0  0  0  0
    2.3842    5.7466   37.9231 C   0  0  0  0  0  0  0  0  0  0  0  0
    1.1155    7.6719   38.5243 C   0  0  0  0  0  0  0  0  0  0  0  0
    2.3013    6.9426   38.6024 C   0  0  0  0  0  0  0  0  0  0  0  0
   -3.1432    3.1728   35.2670 N   0  0  0  0  0  0  0  0  0  0  0  0
   -4.3459    2.9876   34.5056 C   0  0  0  0  0  0  0  0  0  0  0  0
   -4.1153    2.1670   33.2964 C   0  0  0  0  0  0  0  0  0  0  0  0
   -3.0036    2.1975   32.6817 O   0  0  0  0  0  0  0  0  0  0  0  0
   -5.1409    1.3322   32.7968 N   0  0  0  0  0  0  0  0  0  0  0  0
   -4.9710    0.4289   31.6627 C   0  0  2  0  0  0  0  0  0  0  0  0
   -5.1866    1.2339   30.4193 C   0  0  0  0  0  0  0  0  0  0  0  0
   -6.3299    1.7142   30.2223 O   0  0  0  0  0  0  0  0  0  0  0  0
   -5.8928   -0.7229   31.8057 C   0  0  1  0  0  0  0  0  0  0  0  0
   -5.8902   -1.6160   30.5906 C   0  0  0  0  0  0  0  0  0  0  0  0
   -5.5336   -1.5979   32.9921 C   0  0  0  0  0  0  0  0  0  0  0  0
   -4.1491    1.4543   29.4841 N   0  0  0  0  0  0  0  0  0  0  0  0
   -4.4534    1.9573   28.1034 C   0  0  2  0  0  0  0  0  0  0  0  0
   -5.1107    0.8544   27.3778 C   0  0  0  0  0  0  0  0  0  0  0  0
   -4.7341   -0.3320   27.7104 O   0  0  0  0  0  0  0  0  0  0  0  0
   -3.1039    2.2859   27.5306 C   0  0  1  0  0  0  0  0  0  0  0  0
   -3.2115    2.7368   26.1094 C   0  0  0  0  0  0  0  0  0  0  0  0
   -2.4350    3.4024   28.3153 C   0  0  0  0  0  0  0  0  0  0  0  0
   -6.1016    0.9927   26.3794 N   0  0  0  0  0  0  0  0  0  0  0  0
   -6.0457    0.3368   25.0763 C   0  0  2  0  0  0  0  0  0  0  0  0
   -5.7450    1.2516   23.9682 C   0  0  0  0  0  0  0  0  0  0  0  0
   -5.9705    2.5009   24.1225 O   0  0  0  0  0  0  0  0  0  0  0  0
   -7.4215   -0.2903   24.9495 C   0  0  0  0  0  0  0  0  0  0  0  0
   -8.2812    0.7192   25.6753 C   0  0  0  0  0  0  0  0  0  0  0  0
   -7.3582    1.6967   26.3607 C   0  0  0  0  0  0  0  0  0  0  0  0
   -5.2205    0.8593   22.7289 N   0  0  0  0  0  0  0  0  0  0  0  0
   -5.6980    1.2530   21.4344 C   0  0  2  0  0  0  0  0  0  0  0  0
   -6.6942    0.2827   20.8907 C   0  0  0  0  0  0  0  0  0  0  0  0
   -6.9679   -0.7733   21.5156 O   0  0  0  0  0  0  0  0  0  0  0  0
   -4.5975    1.5187   20.4390 C   0  0  0  0  0  0  0  0  0  0  0  0
   -4.9042    0.7312   19.3032 O   0  0  0  0  0  0  0  0  0  0  0  0
   -7.3686    0.5084   19.6583 N   0  0  0  0  0  0  0  0  0  0  0  0
   -8.8224    0.5351   19.5359 C   0  0  2  0  0  0  0  0  0  0  0  0
   -9.2482    0.7560   18.1475 C   0  0  0  0  0  0  0  0  0  0  0  0
   -9.0990    1.8820   17.6334 O   0  0  0  0  0  0  0  0  0  0  0  0
   -9.3090    1.6090   20.4783 C   0  0  0  0  0  0  0  0  0  0  0  0
  -10.1998    1.1318   21.5444 C   0  0  0  0  0  0  0  0  0  0  0  0
  -10.8865    2.0056   22.3449 C   0  0  0  0  0  0  0  0  0  0  0  0
  -10.3792   -0.2213   21.7927 C   0  0  0  0  0  0  0  0  0  0  0  0
  -11.7123    1.5458   23.3451 C   0  0  0  0  0  0  0  0  0  0  0  0
  -11.2050   -0.6874   22.7933 C   0  0  0  0  0  0  0  0  0  0  0  0
  -11.8925    0.1906   23.5948 C   0  0  0  0  0  0  0  0  0  0  0  0
   -9.8203   -0.2460   17.3640 O   0  0  0  0  0  0  0  0  0  0  0  0
  1  2  1  0
  2  3  1  0
  3  4  2  0
  3  5  1  0
  5  6  1  0
  6  7  1  0
  6  9  1  6
  7  8  2  0
  7 16  1  0
  9 10  1  0
 10 11  2  0
 10 12  1  0
 11 13  1  0
 12 14  2  0
 13 15  2  0
 14 15  1  0
 16 17  1  0
 17 18  1  0
 18 19  2  0
 18 20  1  0
 21 20  1  1
 21 22  1  0
 21 24  1  0
 22 23  2  0
 22 27  1  0
 24 25  1  6
 24 26  1  0
 28 27  1  1
 28 29  1  0
 28 31  1  0
 29 30  2  0
 29 34  1  0
 31 32  1  6
 31 33  1  0
 34 35  1  0
 34 40  1  0
 35 36  1  6
 35 38  1  0
 36 37  2  0
 36 41  1  0
 38 39  1  0
 39 40  1  0
 41 42  1  0
 42 43  1  0
 42 45  1  6
 43 44  2  0
 43 47  1  0
 45 46  1  0
 47 48  1  0
 48 49  1  0
 48 51  1  1
 49 50  2  0
 49 58  1  0
 51 52  1  0
 52 53  2  0
 52 54  1  0
 53 55  1  0
 54 56  2  0
 55 57  2  0
 56 57  1  0
M  CHG  1   1   1
M  END
$$$$
