
     RDKit          3D

 58 60  0  0  0  0  0  0  0  0999 V2000
   -5.6912   13.0836   33.1326 N   0  0  0  0  0  4  0  0  0  0  0  0
   -6.0602   12.0729   34.0742 C   0  0  0  0  0  0  0  0  0  0  0  0
   -5.9107   10.6939   33.5071 C   0  0  0  0  0  0  0  0  0  0  0  0
   -4.9924   10.4660   32.6750 O   0  0  0  0  0  0  0  0  0  0  0  0
   -6.7530    9.6170   33.8568 N   0  0  0  0  0  0  0  0  0  0  0  0
   -6.4997    8.2339   33.6238 C   0  0  2  0  0  0  0  0  0  0  0  0
   -7.7726    7.4921   33.9468 C   0  0  0  0  0  0  0  0  0  0  0  0
   -8.4765    7.8644   34.9190 O   0  0  0  0  0  0  0  0  0  0  0  0
   -5.4137    7.6337   34.4130 C   0  0  0  0  0  0  0  0  0  0  0  0
   -4.7336    6.4838   33.7938 C   0  0  0  0  0  0  0  0  0  0  0  0
   -5.0953    5.9030   32.6017 C   0  0  0  0  0  0  0  0  0  0  0  0
   -3.6491    5.9460   34.4588 C   0  0  0  0  0  0  0  0  0  0  0  0
   -4.4300    4.8297   32.0613 C   0  0  0  0  0  0  0  0  0  0  0  0
   -2.9639    4.8699   33.9393 C   0  0  0  0  0  0  0  0  0  0  0  0
   -3.3484    4.2964   32.7279 C   0  0  0  0  0  0  0  0  0  0  0  0
   -8.2296    6.3734   33.1998 N   0  0  0  0  0  0  0  0  0  0  0  0
   -8.2413    5.0833   33.8291 C   0  0  0  0  0  0  0  0  0  0  0  0
   -8.7188    4.0243   32.9128 C   0  0  0  0  0  0  0  0  0  0  0  0
   -8.8823    2.8300   33.3147 O   0  0  0  0  0  0  0  0  0  0  0  0
   -8.9972    4.3261   31.5601 N   0  0  0  0  0  0  0  0  0  0  0  0
   -9.0908    3.3192   30.5073 C   0  0  2  0  0  0  0  0  0  0  0  0
   -7.7363    3.2073   29.8801 C   0  0  0  0  0  0  0  0  0  0  0  0
   -7.1940    4.2603   29.4634 O   0  0  0  0  0  0  0  0  0  0  0  0
  -10.1677    3.6933   29.5601 C   0  0  1  0  0  0  0  0  0  0  0  0
  -10.3060    2.7068   28.4278 C   0  0  0  0  0  0  0  0  0  0  0  0
  -11.5226    3.7728   30.2384 C   0  0  0  0  0  0  0  0  0  0  0  0
   -7.0752    1.9642   29.7496 N   0  0  0  0  0  0  0  0  0  0  0  0
   -5.8118    1.8463   28.9484 C   0  0  2  0  0  0  0  0  0  0  0  0
   -6.2070    1.5192   27.5657 C   0  0  0  0  0  0  0  0  0  0  0  0
   -7.1755    0.6776   27.4489 O   0  0  0  0  0  0  0  0  0  0  0  0
   -5.0684    0.7184   29.6058 C   0  0  1  0  0  0  0  0  0  0  0  0
   -3.7003    0.5573   29.0251 C   0  0  0  0  0  0  0  0  0  0  0  0
   -4.9061    0.9670   31.0964 C   0  0  0  0  0  0  0  0  0  0  0  0
   -5.6283    2.0492   26.3902 N   0  0  0  0  0  0  0  0  0  0  0  0
   -5.9449    1.5854   25.0427 C   0  0  2  0  0  0  0  0  0  0  0  0
   -4.8711    0.8000   24.4219 C   0  0  0  0  0  0  0  0  0  0  0  0
   -3.8137    1.4038   24.0309 O   0  0  0  0  0  0  0  0  0  0  0  0
   -6.2235    2.8750   24.2934 C   0  0  0  0  0  0  0  0  0  0  0  0
   -5.2651    3.8292   24.9685 C   0  0  0  0  0  0  0  0  0  0  0  0
   -4.6963    3.1267   26.1770 C   0  0  0  0  0  0  0  0  0  0  0  0
   -4.9113   -0.5862   24.2180 N   0  0  0  0  0  0  0  0  0  0  0  0
   -3.8568   -1.4046   23.6917 C   0  0  2  0  0  0  0  0  0  0  0  0
   -4.3829   -2.6525   23.0629 C   0  0  0  0  0  0  0  0  0  0  0  0
   -5.3987   -3.2270   23.5303 O   0  0  0  0  0  0  0  0  0  0  0  0
   -2.7742   -1.7145   24.6940 C   0  0  0  0  0  0  0  0  0  0  0  0
   -1.5747   -1.8171   23.9490 O   0  0  0  0  0  0  0  0  0  0  0  0
   -3.7658   -3.2376   21.9221 N   0  0  0  0  0  0  0  0  0  0  0  0
   -4.2479   -3.0341   20.5600 C   0  0  2  0  0  0  0  0  0  0  0  0
   -3.3663   -3.6666   19.5699 C   0  0  0  0  0  0  0  0  0  0  0  0
   -3.8674   -4.2530   18.5903 O   0  0  0  0  0  0  0  0  0  0  0  0
   -4.3699   -1.5417   20.3705 C   0  0  0  0  0  0  0  0  0  0  0  0
   -5.7355   -1.0164   20.5016 C   0  0  0  0  0  0  0  0  0  0  0  0
   -5.9700    0.2605   20.9381 C   0  0  0  0  0  0  0  0  0  0  0  0
   -6.8460   -1.7902   20.1973 C   0  0  0  0  0  0  0  0  0  0  0  0
   -7.2545    0.7381   21.0634 C   0  0  0  0  0  0  0  0  0  0  0  0
   -8.1348   -1.3168   20.3212 C   0  0  0  0  0  0  0  0  0  0  0  0
   -8.3676   -0.0362   20.7591 C   0  0  0  0  0  0  0  0  0  0  0  0
   -1.9755   -3.6442   19.6727 O   0  0  0  0  0  0  0  0  0  0  0  0
  1  2  1  0
  2  3  1  0
  3  4  2  0
  3  5  1  0
  5  6  1  0
  6  7  1  0
  6  9  1  1
  7  8  2  0
  7 16  1  0
  9 10  1  0
 10 11  2  0
 10 12  1  0
 11 13  1  0
 12 14  2  0
 13 15  2  0
 14 15  1  0
 16 17  1  0
 17 18  1  0
 18 19  2  0
 18 20  1  0
 21 20  1  1
 21 22  1  0
 21 24  1  0
 22 23  2  0
 22 27  1  0
 24 25  1  6
 24 26  1  0
 28 27  1  1
 28 29  1  0
 28 31  1  0
 29 30  2  0
 29 34  1  0
 31 32  1  6
 31 33  1  0
 34 35  1  0
 34 40  1  0
 35 36  1  6
 35 38  1  0
 36 37  2  0
 36 41  1  0
 38 39  1  0
 39 40  1  0
 41 42  1  0
 42 43  1  0
 42 45  1  1
 43 44  2  0
 43 47  1  0
 45 46  1  0
 47 48  1  0
 48 49  1  0
 48 51  1  6
 49 50  2  0
 49 58  1  0
 51 52  1  0
 52 53  2  0
 52 54  1  0
 53 55  1  0
 54 56  2  0
 55 57  2  0
 56 57  1  0
M  CHG  1   1   1
M  END
$$$$
