
     RDKit          3D

 58 60  0  0  0  0  0  0  0  0999 V2000
   -0.6741   -4.1793   21.3059 N   0  0  0  0  0  4  0  0  0  0  0  0
   -0.7739   -2.7755   21.0535 C   0  0  0  0  0  0  0  0  0  0  0  0
   -2.0673   -2.2049   21.5507 C   0  0  0  0  0  0  0  0  0  0  0  0
   -2.2167   -0.9542   21.5845 O   0  0  0  0  0  0  0  0  0  0  0  0
   -3.1466   -3.0006   21.9908 N   0  0  0  0  0  0  0  0  0  0  0  0
   -4.2514   -2.5669   22.7800 C   0  0  2  0  0  0  0  0  0  0  0  0
   -4.1404   -3.2624   24.1136 C   0  0  0  0  0  0  0  0  0  0  0  0
   -3.4028   -4.2738   24.2251 O   0  0  0  0  0  0  0  0  0  0  0  0
   -5.5869   -2.8485   22.2327 C   0  0  0  0  0  0  0  0  0  0  0  0
   -5.8690   -2.2728   20.9072 C   0  0  0  0  0  0  0  0  0  0  0  0
   -6.3369   -0.9997   20.6845 C   0  0  0  0  0  0  0  0  0  0  0  0
   -5.6471   -3.0700   19.8013 C   0  0  0  0  0  0  0  0  0  0  0  0
   -6.5860   -0.5044   19.4278 C   0  0  0  0  0  0  0  0  0  0  0  0
   -5.8884   -2.5983   18.5298 C   0  0  0  0  0  0  0  0  0  0  0  0
   -6.3630   -1.3030   18.3274 C   0  0  0  0  0  0  0  0  0  0  0  0
   -4.8372   -2.8311   25.2742 N   0  0  0  0  0  0  0  0  0  0  0  0
   -4.5261   -1.5427   25.8253 C   0  0  0  0  0  0  0  0  0  0  0  0
   -5.4670   -1.1581   26.9003 C   0  0  0  0  0  0  0  0  0  0  0  0
   -6.6378   -0.7425   26.6336 O   0  0  0  0  0  0  0  0  0  0  0  0
   -5.0721   -1.2416   28.2551 N   0  0  0  0  0  0  0  0  0  0  0  0
   -5.8655   -0.7217   29.3646 C   0  0  2  0  0  0  0  0  0  0  0  0
   -6.1168    0.7278   29.0882 C   0  0  0  0  0  0  0  0  0  0  0  0
   -5.1308    1.4493   28.7985 O   0  0  0  0  0  0  0  0  0  0  0  0
   -5.1591   -0.9810   30.6416 C   0  0  1  0  0  0  0  0  0  0  0  0
   -5.9449   -0.5100   31.8395 C   0  0  0  0  0  0  0  0  0  0  0  0
   -4.8842   -2.4582   30.8524 C   0  0  0  0  0  0  0  0  0  0  0  0
   -7.4151    1.2846   29.1496 N   0  0  0  0  0  0  0  0  0  0  0  0
   -7.6516    2.7233   28.7942 C   0  0  2  0  0  0  0  0  0  0  0  0
   -7.2682    3.5266   29.9701 C   0  0  0  0  0  0  0  0  0  0  0  0
   -7.6418    3.0564   31.1100 O   0  0  0  0  0  0  0  0  0  0  0  0
   -9.1269    2.7921   28.5191 C   0  0  1  0  0  0  0  0  0  0  0  0
   -9.6058    4.2074   28.4711 C   0  0  0  0  0  0  0  0  0  0  0  0
   -9.4637    2.1498   27.1835 C   0  0  0  0  0  0  0  0  0  0  0  0
   -6.5349    4.7346   29.9461 N   0  0  0  0  0  0  0  0  0  0  0  0
   -5.5402    5.1068   30.9478 C   0  0  2  0  0  0  0  0  0  0  0  0
   -5.9873    6.1701   31.8560 C   0  0  0  0  0  0  0  0  0  0  0  0
   -5.1235    6.7451   32.6034 O   0  0  0  0  0  0  0  0  0  0  0  0
   -4.3494    5.5288   30.1075 C   0  0  0  0  0  0  0  0  0  0  0  0
   -5.0307    6.1392   28.9041 C   0  0  0  0  0  0  0  0  0  0  0  0
   -6.5029    5.8232   29.0033 C   0  0  0  0  0  0  0  0  0  0  0  0
   -7.3112    6.6152   31.9737 N   0  0  0  0  0  0  0  0  0  0  0  0
   -7.9158    7.2048   33.1337 C   0  0  2  0  0  0  0  0  0  0  0  0
   -9.3354    7.5942   32.8835 C   0  0  0  0  0  0  0  0  0  0  0  0
   -9.6156    8.5026   32.0607 O   0  0  0  0  0  0  0  0  0  0  0  0
   -7.1286    8.3554   33.7073 C   0  0  0  0  0  0  0  0  0  0  0  0
   -7.7858    8.7133   34.9090 O   0  0  0  0  0  0  0  0  0  0  0  0
  -10.4183    6.9620   33.5558 N   0  0  0  0  0  0  0  0  0  0  0  0
  -11.6054    6.4650   32.8681 C   0  0  2  0  0  0  0  0  0  0  0  0
  -12.6096    5.9574   33.8123 C   0  0  0  0  0  0  0  0  0  0  0  0
  -13.8023    5.8836   33.4564 O   0  0  0  0  0  0  0  0  0  0  0  0
  -11.1256    5.4130   31.8978 C   0  0  0  0  0  0  0  0  0  0  0  0
  -10.5299    5.9427   30.6640 C   0  0  0  0  0  0  0  0  0  0  0  0
  -11.0340    7.0585   30.0501 C   0  0  0  0  0  0  0  0  0  0  0  0
   -9.4378    5.3342   30.0627 C   0  0  0  0  0  0  0  0  0  0  0  0
  -10.4712    7.5404   28.8905 C   0  0  0  0  0  0  0  0  0  0  0  0
   -8.8702    5.8125   28.9010 C   0  0  0  0  0  0  0  0  0  0  0  0
   -9.3774    6.9314   28.2872 C   0  0  0  0  0  0  0  0  0  0  0  0
  -12.2908    5.5482   35.1070 O   0  0  0  0  0  0  0  0  0  0  0  0
  1  2  1  0
  2  3  1  0
  3  4  2  0
  3  5  1  0
  5  6  1  0
  6  7  1  0
  6  9  1  6
  7  8  2  0
  7 16  1  0
  9 10  1  0
 10 11  2  0
 10 12  1  0
 11 13  1  0
 12 14  2  0
 13 15  2  0
 14 15  1  0
 16 17  1  0
 17 18  1  0
 18 19  2  0
 18 20  1  0
 21 20  1  6
 21 22  1  0
 21 24  1  0
 22 23  2  0
 22 27  1  0
 24 25  1  1
 24 26  1  0
 28 27  1  1
 28 29  1  0
 28 31  1  0
 29 30  2  0
 29 34  1  0
 31 32  1  6
 31 33  1  0
 34 35  1  0
 34 40  1  0
 35 36  1  6
 35 38  1  0
 36 37  2  0
 36 41  1  0
 38 39  1  0
 39 40  1  0
 41 42  1  0
 42 43  1  0
 42 45  1  6
 43 44  2  0
 43 47  1  0
 45 46  1  0
 47 48  1  0
 48 49  1  0
 48 51  1  6
 49 50  2  0
 49 58  1  0
 51 52  1  0
 52 53  2  0
 52 54  1  0
 53 55  1  0
 54 56  2  0
 55 57  2  0
 56 57  1  0
M  CHG  1   1   1
M  END
$$$$
