
     RDKit          3D

 58 60  0  0  0  0  0  0  0  0999 V2000
   -5.6428    4.6177   39.2534 N   0  0  0  0  0  4  0  0  0  0  0  0
   -5.0440    5.8565   38.8644 C   0  0  0  0  0  0  0  0  0  0  0  0
   -4.7271    5.8930   37.4002 C   0  0  0  0  0  0  0  0  0  0  0  0
   -3.7080    6.5203   37.0057 O   0  0  0  0  0  0  0  0  0  0  0  0
   -5.5170    5.2545   36.4205 N   0  0  0  0  0  0  0  0  0  0  0  0
   -5.3230    5.3084   35.0095 C   0  0  2  0  0  0  0  0  0  0  0  0
   -6.6917    5.3631   34.3781 C   0  0  0  0  0  0  0  0  0  0  0  0
   -7.3386    4.2990   34.2091 O   0  0  0  0  0  0  0  0  0  0  0  0
   -4.5948    4.1785   34.4134 C   0  0  0  0  0  0  0  0  0  0  0  0
   -4.5026    4.1813   32.9438 C   0  0  0  0  0  0  0  0  0  0  0  0
   -5.0682    5.1258   32.1207 C   0  0  0  0  0  0  0  0  0  0  0  0
   -3.7943    3.1586   32.3437 C   0  0  0  0  0  0  0  0  0  0  0  0
   -4.9556    5.0880   30.7523 C   0  0  0  0  0  0  0  0  0  0  0  0
   -3.6657    3.0968   30.9737 C   0  0  0  0  0  0  0  0  0  0  0  0
   -4.2479    4.0661   30.1578 C   0  0  0  0  0  0  0  0  0  0  0  0
   -7.3030    6.5735   33.9544 N   0  0  0  0  0  0  0  0  0  0  0  0
   -8.6498    6.5286   33.4598 C   0  0  0  0  0  0  0  0  0  0  0  0
   -8.7589    5.7261   32.2217 C   0  0  0  0  0  0  0  0  0  0  0  0
   -9.5193    4.7099   32.1602 O   0  0  0  0  0  0  0  0  0  0  0  0
   -8.0061    6.0769   31.0777 N   0  0  0  0  0  0  0  0  0  0  0  0
   -8.4071    5.7522   29.7122 C   0  0  2  0  0  0  0  0  0  0  0  0
   -7.7530    4.4540   29.3555 C   0  0  0  0  0  0  0  0  0  0  0  0
   -6.6173    4.2177   29.8362 O   0  0  0  0  0  0  0  0  0  0  0  0
   -8.0531    6.8758   28.8127 C   0  0  1  0  0  0  0  0  0  0  0  0
   -8.1409    6.4959   27.3559 C   0  0  0  0  0  0  0  0  0  0  0  0
   -8.9650    8.0727   29.0080 C   0  0  0  0  0  0  0  0  0  0  0  0
   -8.3772    3.5134   28.5039 N   0  0  0  0  0  0  0  0  0  0  0  0
   -7.7416    2.1811   28.2338 C   0  0  2  0  0  0  0  0  0  0  0  0
   -7.0095    2.3030   26.9594 C   0  0  0  0  0  0  0  0  0  0  0  0
   -7.6026    2.9843   26.0407 O   0  0  0  0  0  0  0  0  0  0  0  0
   -8.9059    1.2375   28.1290 C   0  0  1  0  0  0  0  0  0  0  0  0
   -8.4974   -0.0645   27.5185 C   0  0  0  0  0  0  0  0  0  0  0  0
   -9.4900    0.9367   29.4995 C   0  0  0  0  0  0  0  0  0  0  0  0
   -5.7381    1.7535   26.6773 N   0  0  0  0  0  0  0  0  0  0  0  0
   -5.0072    1.9810   25.4343 C   0  0  2  0  0  0  0  0  0  0  0  0
   -4.9740    0.8115   24.5473 C   0  0  0  0  0  0  0  0  0  0  0  0
   -4.9372   -0.3557   25.0685 O   0  0  0  0  0  0  0  0  0  0  0  0
   -3.6248    2.3777   25.9177 C   0  0  0  0  0  0  0  0  0  0  0  0
   -3.4949    1.5476   27.1742 C   0  0  0  0  0  0  0  0  0  0  0  0
   -4.8456    0.9389   27.4614 C   0  0  0  0  0  0  0  0  0  0  0  0
   -4.9789    0.8712   23.1469 N   0  0  0  0  0  0  0  0  0  0  0  0
   -5.0524   -0.2409   22.2433 C   0  0  2  0  0  0  0  0  0  0  0  0
   -3.7952   -1.0465   22.2501 C   0  0  0  0  0  0  0  0  0  0  0  0
   -2.6882   -0.5053   22.4995 O   0  0  0  0  0  0  0  0  0  0  0  0
   -5.4442    0.1451   20.8397 C   0  0  0  0  0  0  0  0  0  0  0  0
   -4.2445    0.5323   20.1955 O   0  0  0  0  0  0  0  0  0  0  0  0
   -3.7956   -2.4432   21.9787 N   0  0  0  0  0  0  0  0  0  0  0  0
   -2.6017   -3.2766   22.0755 C   0  0  2  0  0  0  0  0  0  0  0  0
   -1.9266   -3.4140   20.7782 C   0  0  0  0  0  0  0  0  0  0  0  0
   -0.8567   -4.0506   20.7093 O   0  0  0  0  0  0  0  0  0  0  0  0
   -3.0514   -4.5990   22.6475 C   0  0  0  0  0  0  0  0  0  0  0  0
   -3.2815   -4.5933   24.0983 C   0  0  0  0  0  0  0  0  0  0  0  0
   -2.9745   -3.5007   24.8651 C   0  0  0  0  0  0  0  0  0  0  0  0
   -3.8113   -5.6936   24.7563 C   0  0  0  0  0  0  0  0  0  0  0  0
   -3.1881   -3.5107   26.2245 C   0  0  0  0  0  0  0  0  0  0  0  0
   -4.0272   -5.7092   26.1177 C   0  0  0  0  0  0  0  0  0  0  0  0
   -3.7186   -4.6125   26.8846 C   0  0  0  0  0  0  0  0  0  0  0  0
   -2.4299   -2.8589   19.6018 O   0  0  0  0  0  0  0  0  0  0  0  0
  1  2  1  0
  2  3  1  0
  3  4  2  0
  3  5  1  0
  5  6  1  0
  6  7  1  0
  6  9  1  6
  7  8  2  0
  7 16  1  0
  9 10  1  0
 10 11  2  0
 10 12  1  0
 11 13  1  0
 12 14  2  0
 13 15  2  0
 14 15  1  0
 16 17  1  0
 17 18  1  0
 18 19  2  0
 18 20  1  0
 21 20  1  1
 21 22  1  0
 21 24  1  0
 22 23  2  0
 22 27  1  0
 24 25  1  6
 24 26  1  0
 28 27  1  6
 28 29  1  0
 28 31  1  0
 29 30  2  0
 29 34  1  0
 31 32  1  1
 31 33  1  0
 34 35  1  0
 34 40  1  0
 35 36  1  6
 35 38  1  0
 36 37  2  0
 36 41  1  0
 38 39  1  0
 39 40  1  0
 41 42  1  0
 42 43  1  0
 42 45  1  6
 43 44  2  0
 43 47  1  0
 45 46  1  0
 47 48  1  0
 48 49  1  0
 48 51  1  6
 49 50  2  0
 49 58  1  0
 51 52  1  0
 52 53  2  0
 52 54  1  0
 53 55  1  0
 54 56  2  0
 55 57  2  0
 56 57  1  0
M  CHG  1   1   1
M  END
$$$$
