
     RDKit          3D

 58 60  0  0  0  0  0  0  0  0999 V2000
    0.6109   -6.7500   24.0087 N   0  0  0  0  0  4  0  0  0  0  0  0
   -0.7828   -6.7994   24.3241 C   0  0  0  0  0  0  0  0  0  0  0  0
   -1.2358   -5.5778   25.0643 C   0  0  0  0  0  0  0  0  0  0  0  0
   -1.2640   -5.5955   26.3239 O   0  0  0  0  0  0  0  0  0  0  0  0
   -1.6396   -4.3880   24.4218 N   0  0  0  0  0  0  0  0  0  0  0  0
   -2.0559   -3.1820   25.0572 C   0  0  2  0  0  0  0  0  0  0  0  0
   -3.2770   -3.5148   25.8775 C   0  0  0  0  0  0  0  0  0  0  0  0
   -4.3589   -3.7827   25.2968 O   0  0  0  0  0  0  0  0  0  0  0  0
   -2.4015   -2.0664   24.1637 C   0  0  0  0  0  0  0  0  0  0  0  0
   -1.4137   -0.9769   24.0900 C   0  0  0  0  0  0  0  0  0  0  0  0
   -1.2947    0.0419   25.0050 C   0  0  0  0  0  0  0  0  0  0  0  0
   -0.5385   -0.9759   23.0215 C   0  0  0  0  0  0  0  0  0  0  0  0
   -0.3561    1.0387   24.8954 C   0  0  0  0  0  0  0  0  0  0  0  0
    0.4124    0.0116   22.8874 C   0  0  0  0  0  0  0  0  0  0  0  0
    0.5152    1.0357   23.8280 C   0  0  0  0  0  0  0  0  0  0  0  0
   -3.2739   -3.5422   27.2979 N   0  0  0  0  0  0  0  0  0  0  0  0
   -4.5130   -3.7715   27.9851 C   0  0  0  0  0  0  0  0  0  0  0  0
   -5.6221   -2.9817   27.4061 C   0  0  0  0  0  0  0  0  0  0  0  0
   -6.6463   -3.5483   26.9117 O   0  0  0  0  0  0  0  0  0  0  0  0
   -5.5561   -1.5697   27.3876 N   0  0  0  0  0  0  0  0  0  0  0  0
   -6.6051   -0.7019   27.9143 C   0  0  2  0  0  0  0  0  0  0  0  0
   -6.1734    0.7109   27.6733 C   0  0  0  0  0  0  0  0  0  0  0  0
   -5.0848    0.8979   27.0760 O   0  0  0  0  0  0  0  0  0  0  0  0
   -6.8455   -1.0267   29.3403 C   0  0  1  0  0  0  0  0  0  0  0  0
   -5.6779   -0.6552   30.2195 C   0  0  0  0  0  0  0  0  0  0  0  0
   -8.0579   -0.3020   29.8945 C   0  0  0  0  0  0  0  0  0  0  0  0
   -6.9516    1.8118   28.1000 N   0  0  0  0  0  0  0  0  0  0  0  0
   -7.2482    2.9501   27.1682 C   0  0  2  0  0  0  0  0  0  0  0  0
   -8.0981    3.9021   27.9072 C   0  0  0  0  0  0  0  0  0  0  0  0
   -9.2805    3.4811   28.1986 O   0  0  0  0  0  0  0  0  0  0  0  0
   -7.9823    2.3043   26.0275 C   0  0  1  0  0  0  0  0  0  0  0  0
   -8.5607    3.3277   25.1041 C   0  0  0  0  0  0  0  0  0  0  0  0
   -7.0529    1.4232   25.2092 C   0  0  0  0  0  0  0  0  0  0  0  0
   -7.7244    5.2018   28.3180 N   0  0  0  0  0  0  0  0  0  0  0  0
   -7.2046    5.5219   29.6441 C   0  0  2  0  0  0  0  0  0  0  0  0
   -8.1585    6.2475   30.4920 C   0  0  0  0  0  0  0  0  0  0  0  0
   -7.7187    7.1615   31.2708 O   0  0  0  0  0  0  0  0  0  0  0  0
   -5.9655    6.3421   29.3374 C   0  0  0  0  0  0  0  0  0  0  0  0
   -6.3870    7.0661   28.0792 C   0  0  0  0  0  0  0  0  0  0  0  0
   -7.6899    6.4604   27.6181 C   0  0  0  0  0  0  0  0  0  0  0  0
   -9.5405    6.0150   30.5186 N   0  0  0  0  0  0  0  0  0  0  0  0
  -10.2940    5.4600   31.6062 C   0  0  2  0  0  0  0  0  0  0  0  0
  -10.1279    6.2540   32.8597 C   0  0  0  0  0  0  0  0  0  0  0  0
  -10.9819    6.1859   33.7798 O   0  0  0  0  0  0  0  0  0  0  0  0
  -10.0198    3.9974   31.8477 C   0  0  0  0  0  0  0  0  0  0  0  0
   -9.8273    3.4231   30.5681 O   0  0  0  0  0  0  0  0  0  0  0  0
   -9.0103    7.1104   33.0649 N   0  0  0  0  0  0  0  0  0  0  0  0
   -8.8201    7.8997   34.2774 C   0  0  2  0  0  0  0  0  0  0  0  0
   -9.3299    9.2685   34.1218 C   0  0  0  0  0  0  0  0  0  0  0  0
   -9.9388    9.5800   33.0793 O   0  0  0  0  0  0  0  0  0  0  0  0
   -7.3437    7.8537   34.5876 C   0  0  0  0  0  0  0  0  0  0  0  0
   -6.8190    6.5121   34.8751 C   0  0  0  0  0  0  0  0  0  0  0  0
   -7.6551    5.4422   35.0542 C   0  0  0  0  0  0  0  0  0  0  0  0
   -5.4573    6.2706   34.9855 C   0  0  0  0  0  0  0  0  0  0  0  0
   -7.1511    4.1918   35.3303 C   0  0  0  0  0  0  0  0  0  0  0  0
   -4.9471    5.0202   35.2621 C   0  0  0  0  0  0  0  0  0  0  0  0
   -5.7873    3.9489   35.4413 C   0  0  0  0  0  0  0  0  0  0  0  0
   -9.1640   10.2522   35.0966 O   0  0  0  0  0  0  0  0  0  0  0  0
  1  2  1  0
  2  3  1  0
  3  4  2  0
  3  5  1  0
  5  6  1  0
  6  7  1  0
  6  9  1  6
  7  8  2  0
  7 16  1  0
  9 10  1  0
 10 11  2  0
 10 12  1  0
 11 13  1  0
 12 14  2  0
 13 15  2  0
 14 15  1  0
 16 17  1  0
 17 18  1  0
 18 19  2  0
 18 20  1  0
 21 20  1  1
 21 22  1  0
 21 24  1  0
 22 23  2  0
 22 27  1  0
 24 25  1  1
 24 26  1  0
 28 27  1  1
 28 29  1  0
 28 31  1  0
 29 30  2  0
 29 34  1  0
 31 32  1  6
 31 33  1  0
 34 35  1  0
 34 40  1  0
 35 36  1  1
 35 38  1  0
 36 37  2  0
 36 41  1  0
 38 39  1  0
 39 40  1  0
 41 42  1  0
 42 43  1  0
 42 45  1  1
 43 44  2  0
 43 47  1  0
 45 46  1  0
 47 48  1  0
 48 49  1  0
 48 51  1  6
 49 50  2  0
 49 58  1  0
 51 52  1  0
 52 53  2  0
 52 54  1  0
 53 55  1  0
 54 56  2  0
 55 57  2  0
 56 57  1  0
M  CHG  1   1   1
M  END
$$$$
