
     RDKit          3D

 58 60  0  0  0  0  0  0  0  0999 V2000
   -7.6053   11.7065   36.0146 N   0  0  0  0  0  4  0  0  0  0  0  0
   -6.5522   10.7738   35.7583 C   0  0  0  0  0  0  0  0  0  0  0  0
   -7.0634    9.3720   35.6203 C   0  0  0  0  0  0  0  0  0  0  0  0
   -6.2554    8.4459   35.3425 O   0  0  0  0  0  0  0  0  0  0  0  0
   -8.4205    9.0225   35.7864 N   0  0  0  0  0  0  0  0  0  0  0  0
   -8.9861    7.7241   35.6256 C   0  0  2  0  0  0  0  0  0  0  0  0
   -9.3561    7.5816   34.1704 C   0  0  0  0  0  0  0  0  0  0  0  0
  -10.1887    8.3744   33.6627 O   0  0  0  0  0  0  0  0  0  0  0  0
  -10.1851    7.4374   36.4273 C   0  0  0  0  0  0  0  0  0  0  0  0
  -10.3843    6.0262   36.7973 C   0  0  0  0  0  0  0  0  0  0  0  0
   -9.5698    5.3107   37.6423 C   0  0  0  0  0  0  0  0  0  0  0  0
  -11.4716    5.3687   36.2560 C   0  0  0  0  0  0  0  0  0  0  0  0
   -9.7953    3.9935   37.9596 C   0  0  0  0  0  0  0  0  0  0  0  0
  -11.7211    4.0480   36.5575 C   0  0  0  0  0  0  0  0  0  0  0  0
  -10.8813    3.3414   37.4176 C   0  0  0  0  0  0  0  0  0  0  0  0
   -8.8066    6.5814   33.3244 N   0  0  0  0  0  0  0  0  0  0  0  0
   -9.1493    6.5938   31.9305 C   0  0  0  0  0  0  0  0  0  0  0  0
   -8.1740    5.8386   31.1135 C   0  0  0  0  0  0  0  0  0  0  0  0
   -7.1981    6.4221   30.5463 O   0  0  0  0  0  0  0  0  0  0  0  0
   -8.3178    4.4426   30.9437 N   0  0  0  0  0  0  0  0  0  0  0  0
   -8.5743    3.8044   29.6561 C   0  0  2  0  0  0  0  0  0  0  0  0
   -7.3265    3.0747   29.2673 C   0  0  0  0  0  0  0  0  0  0  0  0
   -6.3958    3.7392   28.7487 O   0  0  0  0  0  0  0  0  0  0  0  0
   -9.0081    4.8274   28.6752 C   0  0  1  0  0  0  0  0  0  0  0  0
  -10.5090    4.9545   28.6025 C   0  0  0  0  0  0  0  0  0  0  0  0
   -8.4686    6.2053   29.0106 C   0  0  0  0  0  0  0  0  0  0  0  0
   -7.1839    1.6822   29.4669 N   0  0  0  0  0  0  0  0  0  0  0  0
   -5.8449    1.0192   29.3275 C   0  0  2  0  0  0  0  0  0  0  0  0
   -5.8262    0.3579   28.0094 C   0  0  0  0  0  0  0  0  0  0  0  0
   -6.9274   -0.2110   27.6575 O   0  0  0  0  0  0  0  0  0  0  0  0
   -5.8099    0.0294   30.4572 C   0  0  1  0  0  0  0  0  0  0  0  0
   -4.5674   -0.8007   30.4147 C   0  0  0  0  0  0  0  0  0  0  0  0
   -5.8424    0.7354   31.8027 C   0  0  0  0  0  0  0  0  0  0  0  0
   -4.7275    0.3085   27.1217 N   0  0  0  0  0  0  0  0  0  0  0  0
   -4.7548   -0.3600   25.8241 C   0  0  2  0  0  0  0  0  0  0  0  0
   -3.9882   -1.6117   25.7895 C   0  0  0  0  0  0  0  0  0  0  0  0
   -3.6129   -2.1346   26.8944 O   0  0  0  0  0  0  0  0  0  0  0  0
   -4.1883    0.6896   24.8863 C   0  0  0  0  0  0  0  0  0  0  0  0
   -3.1903    1.3872   25.7820 C   0  0  0  0  0  0  0  0  0  0  0  0
   -3.4091    0.8849   27.1881 C   0  0  0  0  0  0  0  0  0  0  0  0
   -3.6263   -2.2940   24.6198 N   0  0  0  0  0  0  0  0  0  0  0  0
   -3.6802   -3.7116   24.4047 C   0  0  2  0  0  0  0  0  0  0  0  0
   -3.1918   -4.0863   23.0443 C   0  0  0  0  0  0  0  0  0  0  0  0
   -3.9739   -4.0870   22.0600 O   0  0  0  0  0  0  0  0  0  0  0  0
   -5.0337   -4.3144   24.6825 C   0  0  0  0  0  0  0  0  0  0  0  0
   -4.8331   -5.2540   25.7222 O   0  0  0  0  0  0  0  0  0  0  0  0
   -1.8380   -4.4534   22.8060 N   0  0  0  0  0  0  0  0  0  0  0  0
   -0.7790   -3.4819   22.5531 C   0  0  2  0  0  0  0  0  0  0  0  0
    0.5239   -4.1331   22.3640 C   0  0  0  0  0  0  0  0  0  0  0  0
    1.3842   -4.0536   23.2630 O   0  0  0  0  0  0  0  0  0  0  0  0
   -0.7938   -2.5234   23.7190 C   0  0  0  0  0  0  0  0  0  0  0  0
    0.4598   -1.7851   23.9220 C   0  0  0  0  0  0  0  0  0  0  0  0
    1.5188   -2.3460   24.5852 C   0  0  0  0  0  0  0  0  0  0  0  0
    0.6243   -0.4877   23.4591 C   0  0  0  0  0  0  0  0  0  0  0  0
    2.6853   -1.6410   24.7752 C   0  0  0  0  0  0  0  0  0  0  0  0
    1.7905    0.2231   23.6468 C   0  0  0  0  0  0  0  0  0  0  0  0
    2.8510   -0.3412   24.3121 C   0  0  0  0  0  0  0  0  0  0  0  0
    0.8521   -4.8464   21.2112 O   0  0  0  0  0  0  0  0  0  0  0  0
  1  2  1  0
  2  3  1  0
  3  4  2  0
  3  5  1  0
  5  6  1  0
  6  7  1  0
  6  9  1  1
  7  8  2  0
  7 16  1  0
  9 10  1  0
 10 11  2  0
 10 12  1  0
 11 13  1  0
 12 14  2  0
 13 15  2  0
 14 15  1  0
 16 17  1  0
 17 18  1  0
 18 19  2  0
 18 20  1  0
 21 20  1  1
 21 22  1  0
 21 24  1  0
 22 23  2  0
 22 27  1  0
 24 25  1  1
 24 26  1  0
 28 27  1  1
 28 29  1  0
 28 31  1  0
 29 30  2  0
 29 34  1  0
 31 32  1  1
 31 33  1  0
 34 35  1  0
 34 40  1  0
 35 36  1  1
 35 38  1  0
 36 37  2  0
 36 41  1  0
 38 39  1  0
 39 40  1  0
 41 42  1  0
 42 43  1  0
 42 45  1  6
 43 44  2  0
 43 47  1  0
 45 46  1  0
 47 48  1  0
 48 49  1  0
 48 51  1  1
 49 50  2  0
 49 58  1  0
 51 52  1  0
 52 53  2  0
 52 54  1  0
 53 55  1  0
 54 56  2  0
 55 57  2  0
 56 57  1  0
M  CHG  1   1   1
M  END
$$$$
