
     RDKit          3D

 58 60  0  0  0  0  0  0  0  0999 V2000
    0.4484   -5.7633   30.6351 N   0  0  0  0  0  4  0  0  0  0  0  0
    0.6781   -4.5285   31.3185 C   0  0  0  0  0  0  0  0  0  0  0  0
    0.5931   -3.3506   30.3961 C   0  0  0  0  0  0  0  0  0  0  0  0
    0.6475   -2.1868   30.8760 O   0  0  0  0  0  0  0  0  0  0  0  0
    0.4534   -3.4709   28.9970 N   0  0  0  0  0  0  0  0  0  0  0  0
    0.4737   -2.4062   28.0495 C   0  0  2  0  0  0  0  0  0  0  0  0
   -0.7310   -2.5849   27.1598 C   0  0  0  0  0  0  0  0  0  0  0  0
   -0.9150   -3.6847   26.5801 O   0  0  0  0  0  0  0  0  0  0  0  0
    1.6638   -2.3290   27.1892 C   0  0  0  0  0  0  0  0  0  0  0  0
    2.9010   -1.8783   27.8485 C   0  0  0  0  0  0  0  0  0  0  0  0
    3.1819   -0.5773   28.1915 C   0  0  0  0  0  0  0  0  0  0  0  0
    3.8533   -2.8333   28.1465 C   0  0  0  0  0  0  0  0  0  0  0  0
    4.3515   -0.2028   28.8067 C   0  0  0  0  0  0  0  0  0  0  0  0
    5.0347   -2.4851   28.7633 C   0  0  0  0  0  0  0  0  0  0  0  0
    5.2988   -1.1587   29.1024 C   0  0  0  0  0  0  0  0  0  0  0  0
   -1.6883   -1.5596   26.9347 N   0  0  0  0  0  0  0  0  0  0  0  0
   -2.9313   -1.9041   26.3049 C   0  0  0  0  0  0  0  0  0  0  0  0
   -3.4228   -0.8239   25.4213 C   0  0  0  0  0  0  0  0  0  0  0  0
   -2.9991    0.3681   25.5399 O   0  0  0  0  0  0  0  0  0  0  0  0
   -4.3864   -1.1026   24.4252 N   0  0  0  0  0  0  0  0  0  0  0  0
   -5.0461   -0.0751   23.6251 C   0  0  2  0  0  0  0  0  0  0  0  0
   -6.1793    0.4624   24.4420 C   0  0  0  0  0  0  0  0  0  0  0  0
   -6.9325    1.3152   23.9109 O   0  0  0  0  0  0  0  0  0  0  0  0
   -5.4581   -0.6513   22.3232 C   0  0  1  0  0  0  0  0  0  0  0  0
   -6.3112    0.2970   21.5187 C   0  0  0  0  0  0  0  0  0  0  0  0
   -4.2668   -1.0109   21.4552 C   0  0  0  0  0  0  0  0  0  0  0  0
   -6.4076    0.0378   25.7713 N   0  0  0  0  0  0  0  0  0  0  0  0
   -7.5344    0.6129   26.5787 C   0  0  2  0  0  0  0  0  0  0  0  0
   -7.0491    1.8812   27.1539 C   0  0  0  0  0  0  0  0  0  0  0  0
   -5.7912    1.9211   27.4296 O   0  0  0  0  0  0  0  0  0  0  0  0
   -7.7918   -0.4248   27.6342 C   0  0  1  0  0  0  0  0  0  0  0  0
   -8.7913    0.0556   28.6367 C   0  0  0  0  0  0  0  0  0  0  0  0
   -8.3378   -1.7036   27.0208 C   0  0  0  0  0  0  0  0  0  0  0  0
   -7.8330    3.0289   27.4112 N   0  0  0  0  0  0  0  0  0  0  0  0
   -7.2866    4.3108   27.8465 C   0  0  2  0  0  0  0  0  0  0  0  0
   -7.5622    4.6216   29.2546 C   0  0  0  0  0  0  0  0  0  0  0  0
   -8.5977    4.1129   29.8062 O   0  0  0  0  0  0  0  0  0  0  0  0
   -7.9388    5.3003   26.8991 C   0  0  0  0  0  0  0  0  0  0  0  0
   -9.2898    4.6598   26.6771 C   0  0  0  0  0  0  0  0  0  0  0  0
   -9.2459    3.2786   27.2833 C   0  0  0  0  0  0  0  0  0  0  0  0
   -6.7666    5.4478   30.0603 N   0  0  0  0  0  0  0  0  0  0  0  0
   -6.9122    5.6636   31.4714 C   0  0  2  0  0  0  0  0  0  0  0  0
   -7.8555    6.7823   31.7682 C   0  0  0  0  0  0  0  0  0  0  0  0
   -7.7154    7.9028   31.2158 O   0  0  0  0  0  0  0  0  0  0  0  0
   -5.6018    5.8503   32.1929 C   0  0  0  0  0  0  0  0  0  0  0  0
   -4.8984    4.6313   32.0399 O   0  0  0  0  0  0  0  0  0  0  0  0
   -8.9399    6.6305   32.6768 N   0  0  0  0  0  0  0  0  0  0  0  0
   -9.9181    7.6816   32.9366 C   0  0  2  0  0  0  0  0  0  0  0  0
  -10.7998    7.3395   34.0605 C   0  0  0  0  0  0  0  0  0  0  0  0
  -11.1167    6.1484   34.2493 O   0  0  0  0  0  0  0  0  0  0  0  0
  -10.6681    7.8936   31.6440 C   0  0  0  0  0  0  0  0  0  0  0  0
   -9.9795    8.7494   30.6687 C   0  0  0  0  0  0  0  0  0  0  0  0
   -9.3483    9.9029   31.0519 C   0  0  0  0  0  0  0  0  0  0  0  0
   -9.9441    8.4326   29.3185 C   0  0  0  0  0  0  0  0  0  0  0  0
   -8.7129   10.6997   30.1271 C   0  0  0  0  0  0  0  0  0  0  0  0
   -9.3093    9.2272   28.3879 C   0  0  0  0  0  0  0  0  0  0  0  0
   -8.6771   10.3835   28.7744 C   0  0  0  0  0  0  0  0  0  0  0  0
  -11.3084    8.2949   34.9402 O   0  0  0  0  0  0  0  0  0  0  0  0
  1  2  1  0
  2  3  1  0
  3  4  2  0
  3  5  1  0
  5  6  1  0
  6  7  1  0
  6  9  1  6
  7  8  2  0
  7 16  1  0
  9 10  1  0
 10 11  2  0
 10 12  1  0
 11 13  1  0
 12 14  2  0
 13 15  2  0
 14 15  1  0
 16 17  1  0
 17 18  1  0
 18 19  2  0
 18 20  1  0
 21 20  1  1
 21 22  1  0
 21 24  1  0
 22 23  2  0
 22 27  1  0
 24 25  1  6
 24 26  1  0
 28 27  1  6
 28 29  1  0
 28 31  1  0
 29 30  2  0
 29 34  1  0
 31 32  1  1
 31 33  1  0
 34 35  1  0
 34 40  1  0
 35 36  1  1
 35 38  1  0
 36 37  2  0
 36 41  1  0
 38 39  1  0
 39 40  1  0
 41 42  1  0
 42 43  1  0
 42 45  1  6
 43 44  2  0
 43 47  1  0
 45 46  1  0
 47 48  1  0
 48 49  1  0
 48 51  1  6
 49 50  2  0
 49 58  1  0
 51 52  1  0
 52 53  2  0
 52 54  1  0
 53 55  1  0
 54 56  2  0
 55 57  2  0
 56 57  1  0
M  CHG  1   1   1
M  END
$$$$
