
     RDKit          3D

 58 60  0  0  0  0  0  0  0  0999 V2000
   -1.9740   -2.3233   37.0283 N   0  0  0  0  0  4  0  0  0  0  0  0
   -3.3137   -1.9012   36.7605 C   0  0  0  0  0  0  0  0  0  0  0  0
   -3.3597   -0.5468   36.1209 C   0  0  0  0  0  0  0  0  0  0  0  0
   -4.4307    0.1159   36.1573 O   0  0  0  0  0  0  0  0  0  0  0  0
   -2.2541    0.0399   35.4690 N   0  0  0  0  0  0  0  0  0  0  0  0
   -2.2379    1.2948   34.7933 C   0  0  2  0  0  0  0  0  0  0  0  0
   -3.4053    1.2964   33.8384 C   0  0  0  0  0  0  0  0  0  0  0  0
   -3.8152    0.2090   33.3597 O   0  0  0  0  0  0  0  0  0  0  0  0
   -1.0228    1.5986   34.0228 C   0  0  0  0  0  0  0  0  0  0  0  0
    0.2101    1.7613   34.8112 C   0  0  0  0  0  0  0  0  0  0  0  0
    1.3530    1.0149   34.6494 C   0  0  0  0  0  0  0  0  0  0  0  0
    0.2225    2.7377   35.7880 C   0  0  0  0  0  0  0  0  0  0  0  0
    2.4817    1.2026   35.4093 C   0  0  0  0  0  0  0  0  0  0  0  0
    1.3411    2.9471   36.5641 C   0  0  0  0  0  0  0  0  0  0  0  0
    2.4898    2.1779   36.3826 C   0  0  0  0  0  0  0  0  0  0  0  0
   -4.0808    2.4811   33.4405 N   0  0  0  0  0  0  0  0  0  0  0  0
   -5.1085    2.3861   32.4429 C   0  0  0  0  0  0  0  0  0  0  0  0
   -5.9668    3.5909   32.4152 C   0  0  0  0  0  0  0  0  0  0  0  0
   -6.0515    4.3627   33.4210 O   0  0  0  0  0  0  0  0  0  0  0  0
   -6.7193    3.9020   31.2595 N   0  0  0  0  0  0  0  0  0  0  0  0
   -6.1682    4.5840   30.0924 C   0  0  2  0  0  0  0  0  0  0  0  0
   -7.1366    4.3892   28.9677 C   0  0  0  0  0  0  0  0  0  0  0  0
   -6.8002    4.7933   27.8274 O   0  0  0  0  0  0  0  0  0  0  0  0
   -4.8067    4.0678   29.8155 C   0  0  1  0  0  0  0  0  0  0  0  0
   -4.2741    4.5354   28.4843 C   0  0  0  0  0  0  0  0  0  0  0  0
   -3.8045    4.5080   30.8661 C   0  0  0  0  0  0  0  0  0  0  0  0
   -8.3949    3.7750   29.1648 N   0  0  0  0  0  0  0  0  0  0  0  0
   -9.4255    3.7676   28.0739 C   0  0  2  0  0  0  0  0  0  0  0  0
   -8.7084    3.5447   26.8047 C   0  0  0  0  0  0  0  0  0  0  0  0
   -8.2603    4.6050   26.2259 O   0  0  0  0  0  0  0  0  0  0  0  0
  -10.0386    5.1374   28.1440 C   0  0  1  0  0  0  0  0  0  0  0  0
  -11.4034    5.0918   28.7522 C   0  0  0  0  0  0  0  0  0  0  0  0
   -9.1913    6.0721   28.9914 C   0  0  0  0  0  0  0  0  0  0  0  0
   -8.4723    2.2919   26.1943 N   0  0  0  0  0  0  0  0  0  0  0  0
   -7.7577    1.1922   26.8355 C   0  0  2  0  0  0  0  0  0  0  0  0
   -6.4137    0.9649   26.2901 C   0  0  0  0  0  0  0  0  0  0  0  0
   -6.1566    1.3603   25.1015 O   0  0  0  0  0  0  0  0  0  0  0  0
   -8.6793    0.0080   26.6109 C   0  0  0  0  0  0  0  0  0  0  0  0
   -9.2742    0.3404   25.2617 C   0  0  0  0  0  0  0  0  0  0  0  0
   -8.8678    1.7526   24.9185 C   0  0  0  0  0  0  0  0  0  0  0  0
   -5.3680    0.3362   26.9800 N   0  0  0  0  0  0  0  0  0  0  0  0
   -3.9772    0.3553   26.6278 C   0  0  2  0  0  0  0  0  0  0  0  0
   -3.6146   -0.7841   25.7336 C   0  0  0  0  0  0  0  0  0  0  0  0
   -4.2503   -1.8675   25.7856 O   0  0  0  0  0  0  0  0  0  0  0  0
   -3.0532    0.4299   27.8167 C   0  0  0  0  0  0  0  0  0  0  0  0
   -1.7588    0.6506   27.2877 O   0  0  0  0  0  0  0  0  0  0  0  0
   -2.5484   -0.6942   24.7957 N   0  0  0  0  0  0  0  0  0  0  0  0
   -2.1839   -1.7813   23.8932 C   0  0  2  0  0  0  0  0  0  0  0  0
   -1.0412   -1.4231   23.0425 C   0  0  0  0  0  0  0  0  0  0  0  0
   -0.8533   -0.2279   22.7413 O   0  0  0  0  0  0  0  0  0  0  0  0
   -3.4259   -2.1114   23.1016 C   0  0  0  0  0  0  0  0  0  0  0  0
   -3.2635   -3.2036   22.1328 C   0  0  0  0  0  0  0  0  0  0  0  0
   -2.4270   -3.0829   21.0550 C   0  0  0  0  0  0  0  0  0  0  0  0
   -3.9538   -4.4001   22.2613 C   0  0  0  0  0  0  0  0  0  0  0  0
   -2.2893   -4.1109   20.1506 C   0  0  0  0  0  0  0  0  0  0  0  0
   -3.8198   -5.4330   21.3583 C   0  0  0  0  0  0  0  0  0  0  0  0
   -2.9805   -5.3097   20.2783 C   0  0  0  0  0  0  0  0  0  0  0  0
   -0.1426   -2.3676   22.5468 O   0  0  0  0  0  0  0  0  0  0  0  0
  1  2  1  0
  2  3  1  0
  3  4  2  0
  3  5  1  0
  5  6  1  0
  6  7  1  0
  6  9  1  6
  7  8  2  0
  7 16  1  0
  9 10  1  0
 10 11  2  0
 10 12  1  0
 11 13  1  0
 12 14  2  0
 13 15  2  0
 14 15  1  0
 16 17  1  0
 17 18  1  0
 18 19  2  0
 18 20  1  0
 21 20  1  1
 21 22  1  0
 21 24  1  0
 22 23  2  0
 22 27  1  0
 24 25  1  6
 24 26  1  0
 28 27  1  1
 28 29  1  0
 28 31  1  0
 29 30  2  0
 29 34  1  0
 31 32  1  1
 31 33  1  0
 34 35  1  0
 34 40  1  0
 35 36  1  6
 35 38  1  0
 36 37  2  0
 36 41  1  0
 38 39  1  0
 39 40  1  0
 41 42  1  0
 42 43  1  0
 42 45  1  1
 43 44  2  0
 43 47  1  0
 45 46  1  0
 47 48  1  0
 48 49  1  0
 48 51  1  6
 49 50  2  0
 49 58  1  0
 51 52  1  0
 52 53  2  0
 52 54  1  0
 53 55  1  0
 54 56  2  0
 55 57  2  0
 56 57  1  0
M  CHG  1   1   1
M  END
$$$$
