
     RDKit          3D

 58 60  0  0  0  0  0  0  0  0999 V2000
   -3.3167   -7.8155   26.1668 N   0  0  0  0  0  4  0  0  0  0  0  0
   -2.4240   -7.4170   25.1233 C   0  0  0  0  0  0  0  0  0  0  0  0
   -2.7184   -6.0334   24.6289 C   0  0  0  0  0  0  0  0  0  0  0  0
   -2.3598   -5.7050   23.4664 O   0  0  0  0  0  0  0  0  0  0  0  0
   -3.3855   -5.0598   25.4027 N   0  0  0  0  0  0  0  0  0  0  0  0
   -3.8108   -3.7731   24.9611 C   0  0  2  0  0  0  0  0  0  0  0  0
   -4.3226   -3.0377   26.1743 C   0  0  0  0  0  0  0  0  0  0  0  0
   -5.0970   -3.6233   26.9724 O   0  0  0  0  0  0  0  0  0  0  0  0
   -4.8707   -3.7571   23.9419 C   0  0  0  0  0  0  0  0  0  0  0  0
   -4.4172   -3.8767   22.5461 C   0  0  0  0  0  0  0  0  0  0  0  0
   -3.1133   -3.7558   22.1282 C   0  0  0  0  0  0  0  0  0  0  0  0
   -5.3723   -4.1299   21.5810 C   0  0  0  0  0  0  0  0  0  0  0  0
   -2.7362   -3.8755   20.8129 C   0  0  0  0  0  0  0  0  0  0  0  0
   -5.0215   -4.2547   20.2548 C   0  0  0  0  0  0  0  0  0  0  0  0
   -3.6922   -4.1284   19.8534 C   0  0  0  0  0  0  0  0  0  0  0  0
   -3.9728   -1.6932   26.4716 N   0  0  0  0  0  0  0  0  0  0  0  0
   -4.8495   -0.9219   27.3064 C   0  0  0  0  0  0  0  0  0  0  0  0
   -5.5886    0.1025   26.5362 C   0  0  0  0  0  0  0  0  0  0  0  0
   -5.0496    0.7065   25.5568 O   0  0  0  0  0  0  0  0  0  0  0  0
   -6.9178    0.4338   26.8855 N   0  0  0  0  0  0  0  0  0  0  0  0
   -7.4969    1.7615   26.7047 C   0  0  2  0  0  0  0  0  0  0  0  0
   -6.7972    2.6827   27.6545 C   0  0  0  0  0  0  0  0  0  0  0  0
   -5.9036    2.1976   28.3913 O   0  0  0  0  0  0  0  0  0  0  0  0
   -8.9645    1.6913   26.8997 C   0  0  1  0  0  0  0  0  0  0  0  0
   -9.3444    1.5128   28.3482 C   0  0  0  0  0  0  0  0  0  0  0  0
   -9.6657    2.9467   26.4155 C   0  0  0  0  0  0  0  0  0  0  0  0
   -7.1208    4.0568   27.7357 N   0  0  0  0  0  0  0  0  0  0  0  0
   -6.0643    5.0783   28.0394 C   0  0  2  0  0  0  0  0  0  0  0  0
   -6.7303    6.3939   28.0625 C   0  0  0  0  0  0  0  0  0  0  0  0
   -7.3222    6.7364   26.9705 O   0  0  0  0  0  0  0  0  0  0  0  0
   -5.0984    4.9535   26.8954 C   0  0  1  0  0  0  0  0  0  0  0  0
   -4.2115    6.1530   26.7992 C   0  0  0  0  0  0  0  0  0  0  0  0
   -4.2045    3.7363   27.0660 C   0  0  0  0  0  0  0  0  0  0  0  0
   -6.7770    7.2809   29.1620 N   0  0  0  0  0  0  0  0  0  0  0  0
   -6.9172    6.8539   30.5509 C   0  0  2  0  0  0  0  0  0  0  0  0
   -8.2411    7.1305   31.1220 C   0  0  0  0  0  0  0  0  0  0  0  0
   -8.3236    7.4569   32.3557 O   0  0  0  0  0  0  0  0  0  0  0  0
   -5.8132    7.6184   31.2572 C   0  0  0  0  0  0  0  0  0  0  0  0
   -5.7816    8.9045   30.4636 C   0  0  0  0  0  0  0  0  0  0  0  0
   -6.6567    8.7137   29.2491 C   0  0  0  0  0  0  0  0  0  0  0  0
   -9.4471    7.0640   30.4107 N   0  0  0  0  0  0  0  0  0  0  0  0
  -10.5954    6.2715   30.7456 C   0  0  2  0  0  0  0  0  0  0  0  0
  -11.1360    6.6180   32.0936 C   0  0  0  0  0  0  0  0  0  0  0  0
  -12.1208    5.9974   32.5684 O   0  0  0  0  0  0  0  0  0  0  0  0
  -10.3644    4.7873   30.6167 C   0  0  0  0  0  0  0  0  0  0  0  0
  -11.5439    4.1688   31.0964 O   0  0  0  0  0  0  0  0  0  0  0  0
  -10.5672    7.6516   32.8890 N   0  0  0  0  0  0  0  0  0  0  0  0
  -11.0904    8.0337   34.1965 C   0  0  2  0  0  0  0  0  0  0  0  0
  -11.8882    9.2650   34.1254 C   0  0  0  0  0  0  0  0  0  0  0  0
  -11.9243    9.9102   33.0591 O   0  0  0  0  0  0  0  0  0  0  0  0
   -9.8970    8.1581   35.1123 C   0  0  0  0  0  0  0  0  0  0  0  0
  -10.1231    7.6797   36.4826 C   0  0  0  0  0  0  0  0  0  0  0  0
   -9.0846    7.2679   37.2751 C   0  0  0  0  0  0  0  0  0  0  0  0
  -11.3956    7.6165   37.0316 C   0  0  0  0  0  0  0  0  0  0  0  0
   -9.3106    6.8150   38.5547 C   0  0  0  0  0  0  0  0  0  0  0  0
  -11.6277    7.1635   38.3127 C   0  0  0  0  0  0  0  0  0  0  0  0
  -10.5849    6.7510   39.1055 C   0  0  0  0  0  0  0  0  0  0  0  0
  -12.6180    9.7562   35.2077 O   0  0  0  0  0  0  0  0  0  0  0  0
  1  2  1  0
  2  3  1  0
  3  4  2  0
  3  5  1  0
  5  6  1  0
  6  7  1  0
  6  9  1  6
  7  8  2  0
  7 16  1  0
  9 10  1  0
 10 11  2  0
 10 12  1  0
 11 13  1  0
 12 14  2  0
 13 15  2  0
 14 15  1  0
 16 17  1  0
 17 18  1  0
 18 19  2  0
 18 20  1  0
 21 20  1  1
 21 22  1  0
 21 24  1  0
 22 23  2  0
 22 27  1  0
 24 25  1  1
 24 26  1  0
 28 27  1  6
 28 29  1  0
 28 31  1  0
 29 30  2  0
 29 34  1  0
 31 32  1  1
 31 33  1  0
 34 35  1  0
 34 40  1  0
 35 36  1  1
 35 38  1  0
 36 37  2  0
 36 41  1  0
 38 39  1  0
 39 40  1  0
 41 42  1  0
 42 43  1  0
 42 45  1  1
 43 44  2  0
 43 47  1  0
 45 46  1  0
 47 48  1  0
 48 49  1  0
 48 51  1  1
 49 50  2  0
 49 58  1  0
 51 52  1  0
 52 53  2  0
 52 54  1  0
 53 55  1  0
 54 56  2  0
 55 57  2  0
 56 57  1  0
M  CHG  1   1   1
M  END
$$$$
