
     RDKit          3D

 58 60  0  0  0  0  0  0  0  0999 V2000
    0.7456    1.7141   25.7607 N   0  0  0  0  0  4  0  0  0  0  0  0
    0.6102    0.2908   25.7802 C   0  0  0  0  0  0  0  0  0  0  0  0
   -0.5957   -0.1702   25.0192 C   0  0  0  0  0  0  0  0  0  0  0  0
   -1.4258    0.6823   24.6046 O   0  0  0  0  0  0  0  0  0  0  0  0
   -0.8602   -1.5269   24.7349 N   0  0  0  0  0  0  0  0  0  0  0  0
   -1.9518   -2.0347   23.9720 C   0  0  2  0  0  0  0  0  0  0  0  0
   -3.0031   -2.4875   24.9541 C   0  0  0  0  0  0  0  0  0  0  0  0
   -2.6556   -2.8768   26.0974 O   0  0  0  0  0  0  0  0  0  0  0  0
   -1.6479   -3.1649   23.0816 C   0  0  0  0  0  0  0  0  0  0  0  0
   -1.5521   -2.8418   21.6483 C   0  0  0  0  0  0  0  0  0  0  0  0
   -0.3836   -2.5651   20.9794 C   0  0  0  0  0  0  0  0  0  0  0  0
   -2.7238   -2.8142   20.9174 C   0  0  0  0  0  0  0  0  0  0  0  0
   -0.3423   -2.2685   19.6389 C   0  0  0  0  0  0  0  0  0  0  0  0
   -2.7109   -2.5199   19.5718 C   0  0  0  0  0  0  0  0  0  0  0  0
   -1.5135   -2.2423   18.9135 C   0  0  0  0  0  0  0  0  0  0  0  0
   -4.3916   -2.4999   24.6538 N   0  0  0  0  0  0  0  0  0  0  0  0
   -5.3215   -2.7927   25.7074 C   0  0  0  0  0  0  0  0  0  0  0  0
   -5.8504   -1.5629   26.3373 C   0  0  0  0  0  0  0  0  0  0  0  0
   -6.5451   -0.7301   25.6753 O   0  0  0  0  0  0  0  0  0  0  0  0
   -5.5827   -1.2888   27.6980 N   0  0  0  0  0  0  0  0  0  0  0  0
   -6.5379   -0.6527   28.6002 C   0  0  2  0  0  0  0  0  0  0  0  0
   -6.7621    0.7393   28.0977 C   0  0  0  0  0  0  0  0  0  0  0  0
   -5.7559    1.4712   27.9285 O   0  0  0  0  0  0  0  0  0  0  0  0
   -6.0257   -0.7198   29.9895 C   0  0  1  0  0  0  0  0  0  0  0  0
   -6.9546   -0.0598   30.9774 C   0  0  0  0  0  0  0  0  0  0  0  0
   -5.8332   -2.1498   30.4587 C   0  0  0  0  0  0  0  0  0  0  0  0
   -8.0580    1.2324   27.8201 N   0  0  0  0  0  0  0  0  0  0  0  0
   -8.2941    2.7003   27.6165 C   0  0  2  0  0  0  0  0  0  0  0  0
   -8.5108    3.2913   28.9502 C   0  0  0  0  0  0  0  0  0  0  0  0
   -8.9420    2.4805   29.8539 O   0  0  0  0  0  0  0  0  0  0  0  0
   -9.5314    2.7549   26.7660 C   0  0  1  0  0  0  0  0  0  0  0  0
  -10.0563    4.1505   26.6586 C   0  0  0  0  0  0  0  0  0  0  0  0
   -9.2469    2.2636   25.3562 C   0  0  0  0  0  0  0  0  0  0  0  0
   -8.2801    4.6392   29.3076 N   0  0  0  0  0  0  0  0  0  0  0  0
   -8.2838    5.1323   30.6817 C   0  0  2  0  0  0  0  0  0  0  0  0
   -9.4639    5.9395   31.0153 C   0  0  0  0  0  0  0  0  0  0  0  0
  -10.6255    5.4374   30.8308 O   0  0  0  0  0  0  0  0  0  0  0  0
   -6.9967    5.9317   30.7620 C   0  0  0  0  0  0  0  0  0  0  0  0
   -6.8971    6.4847   29.3587 C   0  0  0  0  0  0  0  0  0  0  0  0
   -7.9506    5.8009   28.5222 C   0  0  0  0  0  0  0  0  0  0  0  0
   -9.4204    7.2427   31.5295 N   0  0  0  0  0  0  0  0  0  0  0  0
  -10.5443    8.0560   31.8957 C   0  0  2  0  0  0  0  0  0  0  0  0
  -10.1181    9.3575   32.4909 C   0  0  0  0  0  0  0  0  0  0  0  0
  -10.4677   10.4464   31.9688 O   0  0  0  0  0  0  0  0  0  0  0  0
  -11.5377    7.3506   32.7834 C   0  0  0  0  0  0  0  0  0  0  0  0
  -12.1757    6.3893   31.9631 O   0  0  0  0  0  0  0  0  0  0  0  0
   -9.3091    9.4209   33.6596 N   0  0  0  0  0  0  0  0  0  0  0  0
   -7.8740    9.6827   33.6251 C   0  0  2  0  0  0  0  0  0  0  0  0
   -7.3653    9.7487   32.2488 C   0  0  0  0  0  0  0  0  0  0  0  0
   -8.1620    9.6401   31.2959 O   0  0  0  0  0  0  0  0  0  0  0  0
   -7.2231    8.5925   34.4412 C   0  0  0  0  0  0  0  0  0  0  0  0
   -7.5026    8.6549   35.8819 C   0  0  0  0  0  0  0  0  0  0  0  0
   -8.3546    9.5919   36.4035 C   0  0  0  0  0  0  0  0  0  0  0  0
   -6.9122    7.7750   36.7774 C   0  0  0  0  0  0  0  0  0  0  0  0
   -8.6024    9.6444   37.7561 C   0  0  0  0  0  0  0  0  0  0  0  0
   -7.1567    7.8233   38.1332 C   0  0  0  0  0  0  0  0  0  0  0  0
   -8.0112    8.7637   38.6540 C   0  0  0  0  0  0  0  0  0  0  0  0
   -6.0149    9.9291   31.9500 O   0  0  0  0  0  0  0  0  0  0  0  0
  1  2  1  0
  2  3  1  0
  3  4  2  0
  3  5  1  0
  5  6  1  0
  6  7  1  0
  6  9  1  1
  7  8  2  0
  7 16  1  0
  9 10  1  0
 10 11  2  0
 10 12  1  0
 11 13  1  0
 12 14  2  0
 13 15  2  0
 14 15  1  0
 16 17  1  0
 17 18  1  0
 18 19  2  0
 18 20  1  0
 21 20  1  6
 21 22  1  0
 21 24  1  0
 22 23  2  0
 22 27  1  0
 24 25  1  1
 24 26  1  0
 28 27  1  1
 28 29  1  0
 28 31  1  0
 29 30  2  0
 29 34  1  0
 31 32  1  6
 31 33  1  0
 34 35  1  0
 34 40  1  0
 35 36  1  6
 35 38  1  0
 36 37  2  0
 36 41  1  0
 38 39  1  0
 39 40  1  0
 41 42  1  0
 42 43  1  0
 42 45  1  1
 43 44  2  0
 43 47  1  0
 45 46  1  0
 47 48  1  0
 48 49  1  0
 48 51  1  1
 49 50  2  0
 49 58  1  0
 51 52  1  0
 52 53  2  0
 52 54  1  0
 53 55  1  0
 54 56  2  0
 55 57  2  0
 56 57  1  0
M  CHG  1   1   1
M  END
$$$$
