
     RDKit          3D

 58 60  0  0  0  0  0  0  0  0999 V2000
  -11.9461   13.2283   35.3138 N   0  0  0  0  0  4  0  0  0  0  0  0
  -11.0667   12.6844   36.3014 C   0  0  0  0  0  0  0  0  0  0  0  0
   -9.9926   11.8356   35.6921 C   0  0  0  0  0  0  0  0  0  0  0  0
   -9.2820   12.3111   34.7666 O   0  0  0  0  0  0  0  0  0  0  0  0
   -9.7258   10.5117   36.1016 N   0  0  0  0  0  0  0  0  0  0  0  0
   -8.7198    9.6495   35.5761 C   0  0  2  0  0  0  0  0  0  0  0  0
   -9.3472    8.8816   34.4396 C   0  0  0  0  0  0  0  0  0  0  0  0
  -10.2422    8.0341   34.6845 O   0  0  0  0  0  0  0  0  0  0  0  0
   -8.1464    8.6761   36.5175 C   0  0  0  0  0  0  0  0  0  0  0  0
   -7.5601    7.4692   35.9109 C   0  0  0  0  0  0  0  0  0  0  0  0
   -6.2135    7.2378   35.7604 C   0  0  0  0  0  0  0  0  0  0  0  0
   -8.4264    6.4934   35.4583 C   0  0  0  0  0  0  0  0  0  0  0  0
   -5.7114    6.0948   35.1877 C   0  0  0  0  0  0  0  0  0  0  0  0
   -7.9496    5.3376   34.8802 C   0  0  0  0  0  0  0  0  0  0  0  0
   -6.5792    5.1238   34.7377 C   0  0  0  0  0  0  0  0  0  0  0  0
   -8.9756    9.0652   33.0807 N   0  0  0  0  0  0  0  0  0  0  0  0
   -7.6553    8.6804   32.6696 C   0  0  0  0  0  0  0  0  0  0  0  0
   -7.6072    7.2773   32.2028 C   0  0  0  0  0  0  0  0  0  0  0  0
   -6.5000    6.6922   31.9876 O   0  0  0  0  0  0  0  0  0  0  0  0
   -8.8048    6.5600   31.9802 N   0  0  0  0  0  0  0  0  0  0  0  0
   -8.8503    5.2079   31.4321 C   0  0  2  0  0  0  0  0  0  0  0  0
   -7.9004    5.1666   30.2760 C   0  0  0  0  0  0  0  0  0  0  0  0
   -8.0850    5.9781   29.3358 O   0  0  0  0  0  0  0  0  0  0  0  0
  -10.2484    4.8642   31.0796 C   0  0  1  0  0  0  0  0  0  0  0  0
  -10.3477    3.5626   30.3244 C   0  0  0  0  0  0  0  0  0  0  0  0
  -11.1293    4.7257   32.3072 C   0  0  0  0  0  0  0  0  0  0  0  0
   -6.8262    4.2484   30.2257 N   0  0  0  0  0  0  0  0  0  0  0  0
   -5.9367    4.1720   29.0194 C   0  0  2  0  0  0  0  0  0  0  0  0
   -6.2610    2.9127   28.3237 C   0  0  0  0  0  0  0  0  0  0  0  0
   -6.4927    1.9003   29.0862 O   0  0  0  0  0  0  0  0  0  0  0  0
   -4.5479    4.1603   29.5920 C   0  0  1  0  0  0  0  0  0  0  0  0
   -3.5171    4.0384   28.5162 C   0  0  0  0  0  0  0  0  0  0  0  0
   -4.2617    5.4423   30.3565 C   0  0  0  0  0  0  0  0  0  0  0  0
   -6.3442    2.7361   26.9238 N   0  0  0  0  0  0  0  0  0  0  0  0
   -6.6406    1.4612   26.2773 C   0  0  2  0  0  0  0  0  0  0  0  0
   -5.4799    0.8507   25.6174 C   0  0  0  0  0  0  0  0  0  0  0  0
   -4.3826    1.5060   25.5714 O   0  0  0  0  0  0  0  0  0  0  0  0
   -7.7386    1.8229   25.2945 C   0  0  0  0  0  0  0  0  0  0  0  0
   -7.3421    3.2281   24.9031 C   0  0  0  0  0  0  0  0  0  0  0  0
   -6.2321    3.6640   25.8278 C   0  0  0  0  0  0  0  0  0  0  0  0
   -5.4763   -0.4177   25.0209 N   0  0  0  0  0  0  0  0  0  0  0  0
   -4.3326   -1.2546   24.7967 C   0  0  2  0  0  0  0  0  0  0  0  0
   -4.5903   -2.2763   23.7388 C   0  0  0  0  0  0  0  0  0  0  0  0
   -5.6583   -2.9394   23.7344 O   0  0  0  0  0  0  0  0  0  0  0  0
   -3.7957   -1.8940   26.0519 C   0  0  0  0  0  0  0  0  0  0  0  0
   -2.6393   -2.6094   25.6579 O   0  0  0  0  0  0  0  0  0  0  0  0
   -3.6509   -2.5398   22.7031 N   0  0  0  0  0  0  0  0  0  0  0  0
   -4.0214   -3.1202   21.4166 C   0  0  2  0  0  0  0  0  0  0  0  0
   -3.0390   -4.1140   20.9641 C   0  0  0  0  0  0  0  0  0  0  0  0
   -1.9128   -4.1484   21.4981 O   0  0  0  0  0  0  0  0  0  0  0  0
   -4.1744   -1.9651   20.4571 C   0  0  0  0  0  0  0  0  0  0  0  0
   -5.5061   -1.3452   20.4508 C   0  0  0  0  0  0  0  0  0  0  0  0
   -6.5456   -1.8803   21.1644 C   0  0  0  0  0  0  0  0  0  0  0  0
   -5.7721   -0.1977   19.7181 C   0  0  0  0  0  0  0  0  0  0  0  0
   -7.7903   -1.2939   21.1443 C   0  0  0  0  0  0  0  0  0  0  0  0
   -7.0171    0.3937   19.6942 C   0  0  0  0  0  0  0  0  0  0  0  0
   -8.0579   -0.1446   20.4104 C   0  0  0  0  0  0  0  0  0  0  0  0
   -3.3068   -5.0347   19.9513 O   0  0  0  0  0  0  0  0  0  0  0  0
  1  2  1  0
  2  3  1  0
  3  4  2  0
  3  5  1  0
  5  6  1  0
  6  7  1  0
  6  9  1  1
  7  8  2  0
  7 16  1  0
  9 10  1  0
 10 11  2  0
 10 12  1  0
 11 13  1  0
 12 14  2  0
 13 15  2  0
 14 15  1  0
 16 17  1  0
 17 18  1  0
 18 19  2  0
 18 20  1  0
 21 20  1  6
 21 22  1  0
 21 24  1  0
 22 23  2  0
 22 27  1  0
 24 25  1  1
 24 26  1  0
 28 27  1  1
 28 29  1  0
 28 31  1  0
 29 30  2  0
 29 34  1  0
 31 32  1  6
 31 33  1  0
 34 35  1  0
 34 40  1  0
 35 36  1  6
 35 38  1  0
 36 37  2  0
 36 41  1  0
 38 39  1  0
 39 40  1  0
 41 42  1  0
 42 43  1  0
 42 45  1  1
 43 44  2  0
 43 47  1  0
 45 46  1  0
 47 48  1  0
 48 49  1  0
 48 51  1  6
 49 50  2  0
 49 58  1  0
 51 52  1  0
 52 53  2  0
 52 54  1  0
 53 55  1  0
 54 56  2  0
 55 57  2  0
 56 57  1  0
M  CHG  1   1   1
M  END
$$$$
