
     RDKit          3D

 58 60  0  0  0  0  0  0  0  0999 V2000
  -10.6702    7.6708   34.5192 N   0  0  0  0  0  4  0  0  0  0  0  0
  -11.5369    8.7045   34.0451 C   0  0  0  0  0  0  0  0  0  0  0  0
  -10.8013    9.9868   33.7994 C   0  0  0  0  0  0  0  0  0  0  0  0
  -11.4249   11.0791   33.8742 O   0  0  0  0  0  0  0  0  0  0  0  0
   -9.4270   10.0432   33.4837 N   0  0  0  0  0  0  0  0  0  0  0  0
   -8.6771    9.0513   32.7870 C   0  0  2  0  0  0  0  0  0  0  0  0
   -9.2758    7.7140   33.1446 C   0  0  0  0  0  0  0  0  0  0  0  0
  -10.0269    7.6202   34.1478 O   0  0  0  0  0  0  0  0  0  0  0  0
   -7.2388    8.9981   33.0884 C   0  0  0  0  0  0  0  0  0  0  0  0
   -6.4168   10.0523   32.4710 C   0  0  0  0  0  0  0  0  0  0  0  0
   -5.0507   10.1537   32.5841 C   0  0  0  0  0  0  0  0  0  0  0  0
   -7.0648   11.0136   31.7203 C   0  0  0  0  0  0  0  0  0  0  0  0
   -4.3242   11.1563   31.9893 C   0  0  0  0  0  0  0  0  0  0  0  0
   -6.3606   12.0297   31.1129 C   0  0  0  0  0  0  0  0  0  0  0  0
   -4.9747   12.1131   31.2410 C   0  0  0  0  0  0  0  0  0  0  0  0
   -9.0333    6.5304   32.3971 N   0  0  0  0  0  0  0  0  0  0  0  0
   -9.6196    5.2997   32.8466 C   0  0  0  0  0  0  0  0  0  0  0  0
   -9.4452    4.2104   31.8608 C   0  0  0  0  0  0  0  0  0  0  0  0
   -9.9756    3.0696   32.0388 O   0  0  0  0  0  0  0  0  0  0  0  0
   -8.6721    4.4217   30.6962 N   0  0  0  0  0  0  0  0  0  0  0  0
   -8.6473    3.5035   29.5617 C   0  0  2  0  0  0  0  0  0  0  0  0
   -7.3027    2.8458   29.5538 C   0  0  0  0  0  0  0  0  0  0  0  0
   -6.3036    3.5565   29.2831 O   0  0  0  0  0  0  0  0  0  0  0  0
   -8.9659    4.2452   28.3186 C   0  0  1  0  0  0  0  0  0  0  0  0
   -8.9590    3.3560   27.1005 C   0  0  0  0  0  0  0  0  0  0  0  0
  -10.3353    4.8959   28.3769 C   0  0  0  0  0  0  0  0  0  0  0  0
   -7.1440    1.4694   29.8363 N   0  0  0  0  0  0  0  0  0  0  0  0
   -5.7854    0.8324   29.8151 C   0  0  2  0  0  0  0  0  0  0  0  0
   -5.3635    0.7633   28.4037 C   0  0  0  0  0  0  0  0  0  0  0  0
   -6.3117    0.5945   27.5479 O   0  0  0  0  0  0  0  0  0  0  0  0
   -6.0137   -0.5305   30.4044 C   0  0  1  0  0  0  0  0  0  0  0  0
   -4.7585   -1.3424   30.3994 C   0  0  0  0  0  0  0  0  0  0  0  0
   -6.4876   -0.4301   31.8450 C   0  0  0  0  0  0  0  0  0  0  0  0
   -4.0371    0.8739   27.9280 N   0  0  0  0  0  0  0  0  0  0  0  0
   -3.6720    1.5107   26.6662 C   0  0  2  0  0  0  0  0  0  0  0  0
   -3.2617    0.5617   25.6238 C   0  0  0  0  0  0  0  0  0  0  0  0
   -3.9867   -0.4700   25.4105 O   0  0  0  0  0  0  0  0  0  0  0  0
   -2.5481    2.4475   27.0680 C   0  0  0  0  0  0  0  0  0  0  0  0
   -1.8840    1.6636   28.1768 C   0  0  0  0  0  0  0  0  0  0  0  0
   -2.7732    0.4883   28.5014 C   0  0  0  0  0  0  0  0  0  0  0  0
   -2.1162    0.6966   24.8273 N   0  0  0  0  0  0  0  0  0  0  0  0
   -1.3302   -0.3675   24.2717 C   0  0  2  0  0  0  0  0  0  0  0  0
   -2.1792   -1.3841   23.5823 C   0  0  0  0  0  0  0  0  0  0  0  0
   -3.1669   -1.8973   24.1667 O   0  0  0  0  0  0  0  0  0  0  0  0
   -0.4025   -1.0172   25.2666 C   0  0  0  0  0  0  0  0  0  0  0  0
    0.4178   -1.8934   24.5160 O   0  0  0  0  0  0  0  0  0  0  0  0
   -1.9111   -1.8099   22.2514 N   0  0  0  0  0  0  0  0  0  0  0  0
   -1.9642   -3.2069   21.8332 C   0  0  2  0  0  0  0  0  0  0  0  0
   -1.5433   -3.3736   20.4358 C   0  0  0  0  0  0  0  0  0  0  0  0
   -1.0293   -2.4110   19.8325 O   0  0  0  0  0  0  0  0  0  0  0  0
   -3.3788   -3.6715   22.0808 C   0  0  0  0  0  0  0  0  0  0  0  0
   -4.4168   -2.8259   21.4764 C   0  0  0  0  0  0  0  0  0  0  0  0
   -4.3749   -1.4608   21.5802 C   0  0  0  0  0  0  0  0  0  0  0  0
   -5.4871   -3.3705   20.7819 C   0  0  0  0  0  0  0  0  0  0  0  0
   -5.3575   -0.6802   21.0156 C   0  0  0  0  0  0  0  0  0  0  0  0
   -6.4743   -2.5933   20.2146 C   0  0  0  0  0  0  0  0  0  0  0  0
   -6.4302   -1.2248   20.3200 C   0  0  0  0  0  0  0  0  0  0  0  0
   -1.6928   -4.5727   19.7393 O   0  0  0  0  0  0  0  0  0  0  0  0
  1  2  1  0
  2  3  1  0
  3  4  2  0
  3  5  1  0
  5  6  1  0
  6  7  1  0
  6  9  1  1
  7  8  2  0
  7 16  1  0
  9 10  1  0
 10 11  2  0
 10 12  1  0
 11 13  1  0
 12 14  2  0
 13 15  2  0
 14 15  1  0
 16 17  1  0
 17 18  1  0
 18 19  2  0
 18 20  1  0
 21 20  1  1
 21 22  1  0
 21 24  1  0
 22 23  2  0
 22 27  1  0
 24 25  1  6
 24 26  1  0
 28 27  1  6
 28 29  1  0
 28 31  1  0
 29 30  2  0
 29 34  1  0
 31 32  1  1
 31 33  1  0
 34 35  1  0
 34 40  1  0
 35 36  1  6
 35 38  1  0
 36 37  2  0
 36 41  1  0
 38 39  1  0
 39 40  1  0
 41 42  1  0
 42 43  1  0
 42 45  1  1
 43 44  2  0
 43 47  1  0
 45 46  1  0
 47 48  1  0
 48 49  1  0
 48 51  1  6
 49 50  2  0
 49 58  1  0
 51 52  1  0
 52 53  2  0
 52 54  1  0
 53 55  1  0
 54 56  2  0
 55 57  2  0
 56 57  1  0
M  CHG  1   1   1
M  END
$$$$
