
     RDKit          3D

 58 60  0  0  0  0  0  0  0  0999 V2000
   -7.6153   -8.1979   22.6345 N   0  0  0  0  0  4  0  0  0  0  0  0
   -6.7197   -8.3753   21.5340 C   0  0  0  0  0  0  0  0  0  0  0  0
   -6.1769   -7.0709   21.0345 C   0  0  0  0  0  0  0  0  0  0  0  0
   -5.7355   -6.9977   19.8566 O   0  0  0  0  0  0  0  0  0  0  0  0
   -6.1307   -5.8994   21.8200 N   0  0  0  0  0  0  0  0  0  0  0  0
   -5.9843   -4.5648   21.3417 C   0  0  2  0  0  0  0  0  0  0  0  0
   -6.1226   -3.6516   22.5341 C   0  0  0  0  0  0  0  0  0  0  0  0
   -6.4961   -4.1251   23.6367 O   0  0  0  0  0  0  0  0  0  0  0  0
   -6.9551   -4.1320   20.3255 C   0  0  0  0  0  0  0  0  0  0  0  0
   -6.8498   -4.7976   19.0163 C   0  0  0  0  0  0  0  0  0  0  0  0
   -7.8321   -5.5700   18.4439 C   0  0  0  0  0  0  0  0  0  0  0  0
   -5.6760   -4.6349   18.3068 C   0  0  0  0  0  0  0  0  0  0  0  0
   -7.6894   -6.1724   17.2178 C   0  0  0  0  0  0  0  0  0  0  0  0
   -5.5065   -5.2276   17.0750 C   0  0  0  0  0  0  0  0  0  0  0  0
   -6.5168   -6.0073   16.5133 C   0  0  0  0  0  0  0  0  0  0  0  0
   -5.8499   -2.2584   22.4802 N   0  0  0  0  0  0  0  0  0  0  0  0
   -6.0156   -1.4775   23.6732 C   0  0  0  0  0  0  0  0  0  0  0  0
   -4.8386   -0.6229   23.9439 C   0  0  0  0  0  0  0  0  0  0  0  0
   -3.9319   -0.4543   23.0698 O   0  0  0  0  0  0  0  0  0  0  0  0
   -4.6994    0.0212   25.1946 N   0  0  0  0  0  0  0  0  0  0  0  0
   -5.2199    1.3542   25.4827 C   0  0  2  0  0  0  0  0  0  0  0  0
   -4.7718    1.7153   26.8645 C   0  0  0  0  0  0  0  0  0  0  0  0
   -5.4716    1.3213   27.8298 O   0  0  0  0  0  0  0  0  0  0  0  0
   -6.6910    1.3600   25.3023 C   0  0  1  0  0  0  0  0  0  0  0  0
   -7.3018    2.7061   25.6011 C   0  0  0  0  0  0  0  0  0  0  0  0
   -7.0938    1.0025   23.8838 C   0  0  0  0  0  0  0  0  0  0  0  0
   -3.6031    2.4773   27.0944 N   0  0  0  0  0  0  0  0  0  0  0  0
   -3.2186    2.8940   28.4839 C   0  0  2  0  0  0  0  0  0  0  0  0
   -4.2236    3.8752   28.9335 C   0  0  0  0  0  0  0  0  0  0  0  0
   -4.6349    4.7012   28.0343 O   0  0  0  0  0  0  0  0  0  0  0  0
   -1.8602    3.5129   28.3150 C   0  0  1  0  0  0  0  0  0  0  0  0
   -1.3603    4.0869   29.6016 C   0  0  0  0  0  0  0  0  0  0  0  0
   -0.8449    2.4825   27.8489 C   0  0  0  0  0  0  0  0  0  0  0  0
   -4.7634    3.9722   30.2362 N   0  0  0  0  0  0  0  0  0  0  0  0
   -6.0582    4.5734   30.5415 C   0  0  2  0  0  0  0  0  0  0  0  0
   -5.9601    5.8807   31.2025 C   0  0  0  0  0  0  0  0  0  0  0  0
   -5.3041    5.9697   32.2966 O   0  0  0  0  0  0  0  0  0  0  0  0
   -6.7211    3.5303   31.4216 C   0  0  0  0  0  0  0  0  0  0  0  0
   -5.5324    2.9604   32.1613 C   0  0  0  0  0  0  0  0  0  0  0  0
   -4.2849    3.5097   31.5137 C   0  0  0  0  0  0  0  0  0  0  0  0
   -6.5393    7.0635   30.7226 N   0  0  0  0  0  0  0  0  0  0  0  0
   -6.4305    8.3686   31.3088 C   0  0  2  0  0  0  0  0  0  0  0  0
   -7.6500    8.7299   32.0910 C   0  0  0  0  0  0  0  0  0  0  0  0
   -8.7178    8.0815   31.9499 O   0  0  0  0  0  0  0  0  0  0  0  0
   -6.0791    9.4491   30.3181 C   0  0  0  0  0  0  0  0  0  0  0  0
   -6.7526    9.1099   29.1200 O   0  0  0  0  0  0  0  0  0  0  0  0
   -7.6563    9.8092   33.0181 N   0  0  0  0  0  0  0  0  0  0  0  0
   -8.8660   10.5344   33.3925 C   0  0  2  0  0  0  0  0  0  0  0  0
   -8.5738   11.6456   34.3076 C   0  0  0  0  0  0  0  0  0  0  0  0
   -8.4771   11.4221   35.5305 O   0  0  0  0  0  0  0  0  0  0  0  0
   -9.8065    9.5145   33.9870 C   0  0  0  0  0  0  0  0  0  0  0  0
  -10.9375    9.1471   33.1247 C   0  0  0  0  0  0  0  0  0  0  0  0
  -11.1456    9.7638   31.9195 C   0  0  0  0  0  0  0  0  0  0  0  0
  -11.8473    8.1673   33.4944 C   0  0  0  0  0  0  0  0  0  0  0  0
  -12.2133    9.4154   31.1243 C   0  0  0  0  0  0  0  0  0  0  0  0
  -12.9186    7.8146   32.7018 C   0  0  0  0  0  0  0  0  0  0  0  0
  -13.1254    8.4343   31.4938 C   0  0  0  0  0  0  0  0  0  0  0  0
   -8.3969   12.9581   33.8704 O   0  0  0  0  0  0  0  0  0  0  0  0
  1  2  1  0
  2  3  1  0
  3  4  2  0
  3  5  1  0
  5  6  1  0
  6  7  1  0
  6  9  1  6
  7  8  2  0
  7 16  1  0
  9 10  1  0
 10 11  2  0
 10 12  1  0
 11 13  1  0
 12 14  2  0
 13 15  2  0
 14 15  1  0
 16 17  1  0
 17 18  1  0
 18 19  2  0
 18 20  1  0
 21 20  1  1
 21 22  1  0
 21 24  1  0
 22 23  2  0
 22 27  1  0
 24 25  1  6
 24 26  1  0
 28 27  1  6
 28 29  1  0
 28 31  1  0
 29 30  2  0
 29 34  1  0
 31 32  1  1
 31 33  1  0
 34 35  1  0
 34 40  1  0
 35 36  1  1
 35 38  1  0
 36 37  2  0
 36 41  1  0
 38 39  1  0
 39 40  1  0
 41 42  1  0
 42 43  1  0
 42 45  1  6
 43 44  2  0
 43 47  1  0
 45 46  1  0
 47 48  1  0
 48 49  1  0
 48 51  1  1
 49 50  2  0
 49 58  1  0
 51 52  1  0
 52 53  2  0
 52 54  1  0
 53 55  1  0
 54 56  2  0
 55 57  2  0
 56 57  1  0
M  CHG  1   1   1
M  END
$$$$
