
     RDKit          3D

 58 60  0  0  0  0  0  0  0  0999 V2000
   -3.1792   -6.7055   26.8525 N   0  0  0  0  0  4  0  0  0  0  0  0
   -3.2000   -7.2168   25.5173 C   0  0  0  0  0  0  0  0  0  0  0  0
   -3.2378   -6.1211   24.4958 C   0  0  0  0  0  0  0  0  0  0  0  0
   -3.0364   -6.4012   23.2839 O   0  0  0  0  0  0  0  0  0  0  0  0
   -3.4902   -4.7705   24.8175 N   0  0  0  0  0  0  0  0  0  0  0  0
   -3.5296   -3.6761   23.9052 C   0  0  2  0  0  0  0  0  0  0  0  0
   -3.2754   -2.4243   24.7073 C   0  0  0  0  0  0  0  0  0  0  0  0
   -3.6677   -2.3625   25.8996 O   0  0  0  0  0  0  0  0  0  0  0  0
   -4.7893   -3.4933   23.1688 C   0  0  0  0  0  0  0  0  0  0  0  0
   -4.6916   -3.5853   21.7024 C   0  0  0  0  0  0  0  0  0  0  0  0
   -5.7623   -3.5954   20.8406 C   0  0  0  0  0  0  0  0  0  0  0  0
   -3.4294   -3.6674   21.1477 C   0  0  0  0  0  0  0  0  0  0  0  0
   -5.6230   -3.6825   19.4769 C   0  0  0  0  0  0  0  0  0  0  0  0
   -3.2611   -3.7556   19.7834 C   0  0  0  0  0  0  0  0  0  0  0  0
   -4.3619   -3.7640   18.9277 C   0  0  0  0  0  0  0  0  0  0  0  0
   -2.6049   -1.2880   24.1805 N   0  0  0  0  0  0  0  0  0  0  0  0
   -2.4208   -0.1432   25.0267 C   0  0  0  0  0  0  0  0  0  0  0  0
   -3.6049    0.7438   25.0243 C   0  0  0  0  0  0  0  0  0  0  0  0
   -3.9375    1.3958   23.9856 O   0  0  0  0  0  0  0  0  0  0  0  0
   -4.3895    0.8864   26.1915 N   0  0  0  0  0  0  0  0  0  0  0  0
   -5.4646    1.8638   26.3316 C   0  0  2  0  0  0  0  0  0  0  0  0
   -5.9299    1.8096   27.7532 C   0  0  0  0  0  0  0  0  0  0  0  0
   -6.0523    0.6800   28.2877 O   0  0  0  0  0  0  0  0  0  0  0  0
   -6.5250    1.5782   25.3361 C   0  0  1  0  0  0  0  0  0  0  0  0
   -7.6746    2.5502   25.4254 C   0  0  0  0  0  0  0  0  0  0  0  0
   -6.0049    1.6460   23.9124 C   0  0  0  0  0  0  0  0  0  0  0  0
   -6.2294    2.9818   28.4852 N   0  0  0  0  0  0  0  0  0  0  0  0
   -5.9317    3.0678   29.9535 C   0  0  2  0  0  0  0  0  0  0  0  0
   -6.3165    4.4219   30.3930 C   0  0  0  0  0  0  0  0  0  0  0  0
   -5.4908    5.3618   30.0849 O   0  0  0  0  0  0  0  0  0  0  0  0
   -4.4481    2.8464   30.0371 C   0  0  1  0  0  0  0  0  0  0  0  0
   -3.9240    3.1813   31.3965 C   0  0  0  0  0  0  0  0  0  0  0  0
   -4.0959    1.3949   29.7561 C   0  0  0  0  0  0  0  0  0  0  0  0
   -7.4930    4.7619   31.0987 N   0  0  0  0  0  0  0  0  0  0  0  0
   -8.5115    5.6788   30.5957 C   0  0  2  0  0  0  0  0  0  0  0  0
   -8.5219    6.9795   31.2765 C   0  0  0  0  0  0  0  0  0  0  0  0
   -9.4072    7.8408   30.9453 O   0  0  0  0  0  0  0  0  0  0  0  0
   -9.8009    4.9072   30.8062 C   0  0  0  0  0  0  0  0  0  0  0  0
   -9.4903    4.1404   32.0713 C   0  0  0  0  0  0  0  0  0  0  0  0
   -8.0202    4.3164   32.3631 C   0  0  0  0  0  0  0  0  0  0  0  0
   -7.6216    7.3624   32.2803 N   0  0  0  0  0  0  0  0  0  0  0  0
   -7.2145    8.7007   32.5995 C   0  0  2  0  0  0  0  0  0  0  0  0
   -8.3787    9.5667   32.9520 C   0  0  0  0  0  0  0  0  0  0  0  0
   -8.3331   10.8092   32.7661 O   0  0  0  0  0  0  0  0  0  0  0  0
   -6.3604    9.3429   31.5361 C   0  0  0  0  0  0  0  0  0  0  0  0
   -6.1744   10.6848   31.9470 O   0  0  0  0  0  0  0  0  0  0  0  0
   -9.5746    9.0303   33.5057 N   0  0  0  0  0  0  0  0  0  0  0  0
  -10.7067    9.8554   33.9140 C   0  0  2  0  0  0  0  0  0  0  0  0
  -10.3844   10.6817   35.0848 C   0  0  0  0  0  0  0  0  0  0  0  0
   -9.4267   10.3605   35.8157 O   0  0  0  0  0  0  0  0  0  0  0  0
  -11.8561    8.9087   34.1605 C   0  0  0  0  0  0  0  0  0  0  0  0
  -12.3842    8.2579   32.9541 C   0  0  0  0  0  0  0  0  0  0  0  0
  -11.7472    8.3686   31.7467 C   0  0  0  0  0  0  0  0  0  0  0  0
  -13.5526    7.5105   32.9817 C   0  0  0  0  0  0  0  0  0  0  0  0
  -12.2563    7.7601   30.6224 C   0  0  0  0  0  0  0  0  0  0  0  0
  -14.0672    6.8990   31.8585 C   0  0  0  0  0  0  0  0  0  0  0  0
  -13.4268    7.0114   30.6489 C   0  0  0  0  0  0  0  0  0  0  0  0
  -11.1075   11.8247   35.4254 O   0  0  0  0  0  0  0  0  0  0  0  0
  1  2  1  0
  2  3  1  0
  3  4  2  0
  3  5  1  0
  5  6  1  0
  6  7  1  0
  6  9  1  1
  7  8  2  0
  7 16  1  0
  9 10  1  0
 10 11  2  0
 10 12  1  0
 11 13  1  0
 12 14  2  0
 13 15  2  0
 14 15  1  0
 16 17  1  0
 17 18  1  0
 18 19  2  0
 18 20  1  0
 21 20  1  1
 21 22  1  0
 21 24  1  0
 22 23  2  0
 22 27  1  0
 24 25  1  6
 24 26  1  0
 28 27  1  6
 28 29  1  0
 28 31  1  0
 29 30  2  0
 29 34  1  0
 31 32  1  1
 31 33  1  0
 34 35  1  0
 34 40  1  0
 35 36  1  1
 35 38  1  0
 36 37  2  0
 36 41  1  0
 38 39  1  0
 39 40  1  0
 41 42  1  0
 42 43  1  0
 42 45  1  6
 43 44  2  0
 43 47  1  0
 45 46  1  0
 47 48  1  0
 48 49  1  0
 48 51  1  1
 49 50  2  0
 49 58  1  0
 51 52  1  0
 52 53  2  0
 52 54  1  0
 53 55  1  0
 54 56  2  0
 55 57  2  0
 56 57  1  0
M  CHG  1   1   1
M  END
$$$$
