
     RDKit          3D

 58 60  0  0  0  0  0  0  0  0999 V2000
    0.1907   -6.6574   25.4844 N   0  0  0  0  0  4  0  0  0  0  0  0
   -1.0241   -6.2444   26.1153 C   0  0  0  0  0  0  0  0  0  0  0  0
   -1.6499   -5.0739   25.4195 C   0  0  0  0  0  0  0  0  0  0  0  0
   -2.6385   -4.4991   25.9483 O   0  0  0  0  0  0  0  0  0  0  0  0
   -1.1882   -4.5692   24.1851 N   0  0  0  0  0  0  0  0  0  0  0  0
   -1.9948   -4.1325   23.0942 C   0  0  2  0  0  0  0  0  0  0  0  0
   -3.3420   -3.7625   23.6625 C   0  0  0  0  0  0  0  0  0  0  0  0
   -4.2476   -4.6316   23.7253 O   0  0  0  0  0  0  0  0  0  0  0  0
   -2.2113   -5.1110   22.0180 C   0  0  0  0  0  0  0  0  0  0  0  0
   -1.0640   -5.9782   21.7022 C   0  0  0  0  0  0  0  0  0  0  0  0
    0.0624   -5.5785   21.0233 C   0  0  0  0  0  0  0  0  0  0  0  0
   -1.1207   -7.2938   22.1189 C   0  0  0  0  0  0  0  0  0  0  0  0
    1.1100   -6.4240   20.7511 C   0  0  0  0  0  0  0  0  0  0  0  0
   -0.0840   -8.1629   21.8594 C   0  0  0  0  0  0  0  0  0  0  0  0
    1.0495   -7.7357   21.1688 C   0  0  0  0  0  0  0  0  0  0  0  0
   -3.6518   -2.4607   24.1397 N   0  0  0  0  0  0  0  0  0  0  0  0
   -4.9970   -2.1816   24.5556 C   0  0  0  0  0  0  0  0  0  0  0  0
   -5.2756   -0.7290   24.5921 C   0  0  0  0  0  0  0  0  0  0  0  0
   -4.3326    0.1220   24.6228 O   0  0  0  0  0  0  0  0  0  0  0  0
   -6.6093   -0.2603   24.5999 N   0  0  0  0  0  0  0  0  0  0  0  0
   -6.9755    1.1400   24.7893 C   0  0  2  0  0  0  0  0  0  0  0  0
   -7.2157    1.3408   26.2530 C   0  0  0  0  0  0  0  0  0  0  0  0
   -8.1417    0.6851   26.7909 O   0  0  0  0  0  0  0  0  0  0  0  0
   -8.1414    1.4660   23.9340 C   0  0  1  0  0  0  0  0  0  0  0  0
   -8.7109    2.8299   24.2335 C   0  0  0  0  0  0  0  0  0  0  0  0
   -7.7882    1.4542   22.4585 C   0  0  0  0  0  0  0  0  0  0  0  0
   -6.4373    2.2378   27.0205 N   0  0  0  0  0  0  0  0  0  0  0  0
   -6.7621    2.4970   28.4625 C   0  0  2  0  0  0  0  0  0  0  0  0
   -7.2247    3.8941   28.5559 C   0  0  0  0  0  0  0  0  0  0  0  0
   -6.7372    4.7009   27.6776 O   0  0  0  0  0  0  0  0  0  0  0  0
   -5.4555    2.2852   29.1732 C   0  0  1  0  0  0  0  0  0  0  0  0
   -4.6231    3.5268   29.1622 C   0  0  0  0  0  0  0  0  0  0  0  0
   -5.6805    1.8983   30.6256 C   0  0  0  0  0  0  0  0  0  0  0  0
   -8.1434    4.4022   29.5024 N   0  0  0  0  0  0  0  0  0  0  0  0
   -8.7410    5.7322   29.4287 C   0  0  2  0  0  0  0  0  0  0  0  0
   -8.2124    6.6721   30.4250 C   0  0  0  0  0  0  0  0  0  0  0  0
   -8.6215    7.8835   30.4065 O   0  0  0  0  0  0  0  0  0  0  0  0
  -10.2196    5.4545   29.6252 C   0  0  0  0  0  0  0  0  0  0  0  0
  -10.1821    4.2788   30.5745 C   0  0  0  0  0  0  0  0  0  0  0  0
   -8.7499    3.8126   30.6683 C   0  0  0  0  0  0  0  0  0  0  0  0
   -7.2761    6.3432   31.4150 N   0  0  0  0  0  0  0  0  0  0  0  0
   -6.5670    7.2603   32.2605 C   0  0  2  0  0  0  0  0  0  0  0  0
   -7.4496    8.3603   32.7508 C   0  0  0  0  0  0  0  0  0  0  0  0
   -8.4475    8.7287   32.0807 O   0  0  0  0  0  0  0  0  0  0  0  0
   -5.3089    7.8086   31.6368 C   0  0  0  0  0  0  0  0  0  0  0  0
   -4.7560    8.6932   32.5940 O   0  0  0  0  0  0  0  0  0  0  0  0
   -7.2033    9.0300   33.9818 N   0  0  0  0  0  0  0  0  0  0  0  0
   -8.2665    9.5442   34.8388 C   0  0  2  0  0  0  0  0  0  0  0  0
   -7.7299   10.2931   35.9828 C   0  0  0  0  0  0  0  0  0  0  0  0
   -6.5329   10.1497   36.3010 O   0  0  0  0  0  0  0  0  0  0  0  0
   -9.0939    8.3515   35.2523 C   0  0  0  0  0  0  0  0  0  0  0  0
  -10.2640    8.6739   36.0796 C   0  0  0  0  0  0  0  0  0  0  0  0
  -10.5400    9.9621   36.4542 C   0  0  0  0  0  0  0  0  0  0  0  0
  -11.1355    7.6901   36.5239 C   0  0  0  0  0  0  0  0  0  0  0  0
  -11.6355   10.2500   37.2356 C   0  0  0  0  0  0  0  0  0  0  0  0
  -12.2342    7.9728   37.3071 C   0  0  0  0  0  0  0  0  0  0  0  0
  -12.5089    9.2652   37.6814 C   0  0  0  0  0  0  0  0  0  0  0  0
   -8.5044   11.1692   36.7430 O   0  0  0  0  0  0  0  0  0  0  0  0
  1  2  1  0
  2  3  1  0
  3  4  2  0
  3  5  1  0
  5  6  1  0
  6  7  1  0
  6  9  1  6
  7  8  2  0
  7 16  1  0
  9 10  1  0
 10 11  2  0
 10 12  1  0
 11 13  1  0
 12 14  2  0
 13 15  2  0
 14 15  1  0
 16 17  1  0
 17 18  1  0
 18 19  2  0
 18 20  1  0
 21 20  1  1
 21 22  1  0
 21 24  1  0
 22 23  2  0
 22 27  1  0
 24 25  1  1
 24 26  1  0
 28 27  1  6
 28 29  1  0
 28 31  1  0
 29 30  2  0
 29 34  1  0
 31 32  1  1
 31 33  1  0
 34 35  1  0
 34 40  1  0
 35 36  1  1
 35 38  1  0
 36 37  2  0
 36 41  1  0
 38 39  1  0
 39 40  1  0
 41 42  1  0
 42 43  1  0
 42 45  1  6
 43 44  2  0
 43 47  1  0
 45 46  1  0
 47 48  1  0
 48 49  1  0
 48 51  1  1
 49 50  2  0
 49 58  1  0
 51 52  1  0
 52 53  2  0
 52 54  1  0
 53 55  1  0
 54 56  2  0
 55 57  2  0
 56 57  1  0
M  CHG  1   1   1
M  END
$$$$
