
     RDKit          3D

 58 60  0  0  0  0  0  0  0  0999 V2000
    1.8238   -7.3952   23.9300 N   0  0  0  0  0  4  0  0  0  0  0  0
    1.1548   -7.8257   22.7419 C   0  0  0  0  0  0  0  0  0  0  0  0
    0.0945   -6.8583   22.3111 C   0  0  0  0  0  0  0  0  0  0  0  0
   -0.4722   -7.0206   21.1975 O   0  0  0  0  0  0  0  0  0  0  0  0
   -0.3134   -5.7571   23.0937 N   0  0  0  0  0  0  0  0  0  0  0  0
   -1.6356   -5.4887   23.5534 C   0  0  2  0  0  0  0  0  0  0  0  0
   -1.6205   -4.1063   24.1563 C   0  0  0  0  0  0  0  0  0  0  0  0
   -1.5479   -3.9758   25.4041 O   0  0  0  0  0  0  0  0  0  0  0  0
   -2.1702   -6.4161   24.5616 C   0  0  0  0  0  0  0  0  0  0  0  0
   -3.1363   -7.4110   24.0666 C   0  0  0  0  0  0  0  0  0  0  0  0
   -4.0371   -7.1967   23.0506 C   0  0  0  0  0  0  0  0  0  0  0  0
   -3.1399   -8.6551   24.6664 C   0  0  0  0  0  0  0  0  0  0  0  0
   -4.9211   -8.1563   22.6213 C   0  0  0  0  0  0  0  0  0  0  0  0
   -4.0156   -9.6356   24.2552 C   0  0  0  0  0  0  0  0  0  0  0  0
   -4.9211   -9.3963   23.2222 C   0  0  0  0  0  0  0  0  0  0  0  0
   -1.6860   -2.9195   23.3781 N   0  0  0  0  0  0  0  0  0  0  0  0
   -2.7387   -1.9800   23.6420 C   0  0  0  0  0  0  0  0  0  0  0  0
   -3.0935   -1.9344   25.0776 C   0  0  0  0  0  0  0  0  0  0  0  0
   -3.5725   -2.9511   25.6704 O   0  0  0  0  0  0  0  0  0  0  0  0
   -2.9095   -0.7447   25.8186 N   0  0  0  0  0  0  0  0  0  0  0  0
   -3.5319   -0.4920   27.1146 C   0  0  2  0  0  0  0  0  0  0  0  0
   -4.2520    0.8163   27.0123 C   0  0  0  0  0  0  0  0  0  0  0  0
   -4.4362    1.2966   25.8668 O   0  0  0  0  0  0  0  0  0  0  0  0
   -2.4980   -0.5328   28.1758 C   0  0  1  0  0  0  0  0  0  0  0  0
   -3.0782   -0.3245   29.5522 C   0  0  0  0  0  0  0  0  0  0  0  0
   -1.7640   -1.8603   28.2072 C   0  0  0  0  0  0  0  0  0  0  0  0
   -4.7141    1.5049   28.1577 N   0  0  0  0  0  0  0  0  0  0  0  0
   -5.9034    2.4167   28.0781 C   0  0  2  0  0  0  0  0  0  0  0  0
   -6.0774    3.0159   29.4144 C   0  0  0  0  0  0  0  0  0  0  0  0
   -6.0058    2.1953   30.4051 O   0  0  0  0  0  0  0  0  0  0  0  0
   -7.0390    1.5021   27.7163 C   0  0  1  0  0  0  0  0  0  0  0  0
   -8.3452    2.2292   27.7200 C   0  0  0  0  0  0  0  0  0  0  0  0
   -6.8462    0.9153   26.3276 C   0  0  0  0  0  0  0  0  0  0  0  0
   -6.3016    4.3846   29.6868 N   0  0  0  0  0  0  0  0  0  0  0  0
   -6.0055    5.0222   30.9663 C   0  0  2  0  0  0  0  0  0  0  0  0
   -7.2015    5.3533   31.7508 C   0  0  0  0  0  0  0  0  0  0  0  0
   -8.3424    5.3301   31.1737 O   0  0  0  0  0  0  0  0  0  0  0  0
   -5.2220    6.2565   30.5604 C   0  0  0  0  0  0  0  0  0  0  0  0
   -5.8732    6.6072   29.2422 C   0  0  0  0  0  0  0  0  0  0  0  0
   -6.7828    5.4642   28.8635 C   0  0  0  0  0  0  0  0  0  0  0  0
   -7.1946    5.7003   33.1089 N   0  0  0  0  0  0  0  0  0  0  0  0
   -8.3421    5.9271   33.9399 C   0  0  2  0  0  0  0  0  0  0  0  0
   -9.0425    7.1974   33.5858 C   0  0  0  0  0  0  0  0  0  0  0  0
   -8.4398    8.1109   32.9672 O   0  0  0  0  0  0  0  0  0  0  0  0
   -8.0418    5.8641   35.4159 C   0  0  0  0  0  0  0  0  0  0  0  0
   -9.2091    5.3460   36.0267 O   0  0  0  0  0  0  0  0  0  0  0  0
  -10.4045    7.4257   33.9280 N   0  0  0  0  0  0  0  0  0  0  0  0
  -11.4945    7.3552   32.9603 C   0  0  2  0  0  0  0  0  0  0  0  0
  -12.7663    7.8091   33.5383 C   0  0  0  0  0  0  0  0  0  0  0  0
  -12.9388    7.7367   34.7710 O   0  0  0  0  0  0  0  0  0  0  0  0
  -11.5441    5.9255   32.4790 C   0  0  0  0  0  0  0  0  0  0  0  0
  -11.1727    5.7394   31.0701 C   0  0  0  0  0  0  0  0  0  0  0  0
  -11.2058    4.5035   30.4807 C   0  0  0  0  0  0  0  0  0  0  0  0
  -10.7654    6.8027   30.2775 C   0  0  0  0  0  0  0  0  0  0  0  0
  -10.8483    4.3415   29.1617 C   0  0  0  0  0  0  0  0  0  0  0  0
  -10.4060    6.6460   28.9559 C   0  0  0  0  0  0  0  0  0  0  0  0
  -10.4400    5.4059   28.3670 C   0  0  0  0  0  0  0  0  0  0  0  0
  -13.8066    8.3244   32.7653 O   0  0  0  0  0  0  0  0  0  0  0  0
  1  2  1  0
  2  3  1  0
  3  4  2  0
  3  5  1  0
  5  6  1  0
  6  7  1  0
  6  9  1  1
  7  8  2  0
  7 16  1  0
  9 10  1  0
 10 11  2  0
 10 12  1  0
 11 13  1  0
 12 14  2  0
 13 15  2  0
 14 15  1  0
 16 17  1  0
 17 18  1  0
 18 19  2  0
 18 20  1  0
 21 20  1  6
 21 22  1  0
 21 24  1  0
 22 23  2  0
 22 27  1  0
 24 25  1  1
 24 26  1  0
 28 27  1  1
 28 29  1  0
 28 31  1  0
 29 30  2  0
 29 34  1  0
 31 32  1  6
 31 33  1  0
 34 35  1  0
 34 40  1  0
 35 36  1  6
 35 38  1  0
 36 37  2  0
 36 41  1  0
 38 39  1  0
 39 40  1  0
 41 42  1  0
 42 43  1  0
 42 45  1  1
 43 44  2  0
 43 47  1  0
 45 46  1  0
 47 48  1  0
 48 49  1  0
 48 51  1  1
 49 50  2  0
 49 58  1  0
 51 52  1  0
 52 53  2  0
 52 54  1  0
 53 55  1  0
 54 56  2  0
 55 57  2  0
 56 57  1  0
M  CHG  1   1   1
M  END
$$$$
