
     RDKit          3D

 58 60  0  0  0  0  0  0  0  0999 V2000
   -0.8746   -6.7569   22.8963 N   0  0  0  0  0  4  0  0  0  0  0  0
   -1.4285   -5.7999   23.8028 C   0  0  0  0  0  0  0  0  0  0  0  0
   -0.3660   -5.0230   24.5193 C   0  0  0  0  0  0  0  0  0  0  0  0
    0.5762   -5.6419   25.0821 O   0  0  0  0  0  0  0  0  0  0  0  0
   -0.3592   -3.6142   24.6017 N   0  0  0  0  0  0  0  0  0  0  0  0
    0.6202   -2.8091   25.2529 C   0  0  2  0  0  0  0  0  0  0  0  0
   -0.1042   -1.6258   25.8442 C   0  0  0  0  0  0  0  0  0  0  0  0
    0.4803   -0.9001   26.6875 O   0  0  0  0  0  0  0  0  0  0  0  0
    1.7050   -2.2965   24.4025 C   0  0  0  0  0  0  0  0  0  0  0  0
    2.9133   -1.8434   25.1116 C   0  0  0  0  0  0  0  0  0  0  0  0
    3.9147   -2.6673   25.5676 C   0  0  0  0  0  0  0  0  0  0  0  0
    3.0543   -0.4881   25.3368 C   0  0  0  0  0  0  0  0  0  0  0  0
    5.0260   -2.1990   26.2251 C   0  0  0  0  0  0  0  0  0  0  0  0
    4.1589    0.0083   25.9935 C   0  0  0  0  0  0  0  0  0  0  0  0
    5.1629   -0.8461   26.4475 C   0  0  0  0  0  0  0  0  0  0  0  0
   -1.4370   -1.2785   25.4957 N   0  0  0  0  0  0  0  0  0  0  0  0
   -1.9248    0.0238   25.8512 C   0  0  0  0  0  0  0  0  0  0  0  0
   -3.3760    0.1601   25.5976 C   0  0  0  0  0  0  0  0  0  0  0  0
   -3.8360    1.1182   24.9011 O   0  0  0  0  0  0  0  0  0  0  0  0
   -4.2840   -0.7795   26.1372 N   0  0  0  0  0  0  0  0  0  0  0  0
   -5.1095   -0.5260   27.3142 C   0  0  2  0  0  0  0  0  0  0  0  0
   -5.6642    0.8574   27.1762 C   0  0  0  0  0  0  0  0  0  0  0  0
   -4.8513    1.8040   27.0356 O   0  0  0  0  0  0  0  0  0  0  0  0
   -4.3014   -0.7351   28.5389 C   0  0  1  0  0  0  0  0  0  0  0  0
   -5.0364   -0.3242   29.7900 C   0  0  0  0  0  0  0  0  0  0  0  0
   -3.9066   -2.1887   28.7215 C   0  0  0  0  0  0  0  0  0  0  0  0
   -7.0553    1.1094   27.2043 N   0  0  0  0  0  0  0  0  0  0  0  0
   -7.5801    2.5116   27.3077 C   0  0  2  0  0  0  0  0  0  0  0  0
   -7.5343    2.8850   28.7337 C   0  0  0  0  0  0  0  0  0  0  0  0
   -7.5717    1.9030   29.5668 O   0  0  0  0  0  0  0  0  0  0  0  0
   -8.9884    2.4114   26.7944 C   0  0  1  0  0  0  0  0  0  0  0  0
   -9.7469    3.6765   27.0370 C   0  0  0  0  0  0  0  0  0  0  0  0
   -9.0065    2.1471   25.2978 C   0  0  0  0  0  0  0  0  0  0  0  0
   -7.4457    4.2000   29.2443 N   0  0  0  0  0  0  0  0  0  0  0  0
   -7.1098    4.5180   30.6289 C   0  0  2  0  0  0  0  0  0  0  0  0
   -8.2510    4.9999   31.4168 C   0  0  0  0  0  0  0  0  0  0  0  0
   -8.9518    5.9662   30.9581 O   0  0  0  0  0  0  0  0  0  0  0  0
   -6.0237    5.5677   30.4853 C   0  0  0  0  0  0  0  0  0  0  0  0
   -6.4638    6.2873   29.2309 C   0  0  0  0  0  0  0  0  0  0  0  0
   -7.5868    5.4886   28.6161 C   0  0  0  0  0  0  0  0  0  0  0  0
   -8.6429    4.4767   32.6568 N   0  0  0  0  0  0  0  0  0  0  0  0
   -9.4801    5.1176   33.6299 C   0  0  2  0  0  0  0  0  0  0  0  0
   -9.3431    6.6039   33.5884 C   0  0  0  0  0  0  0  0  0  0  0  0
   -8.4149    7.1442   32.9350 O   0  0  0  0  0  0  0  0  0  0  0  0
   -9.2912    4.5923   35.0302 C   0  0  0  0  0  0  0  0  0  0  0  0
  -10.1912    5.3231   35.8426 O   0  0  0  0  0  0  0  0  0  0  0  0
  -10.2455    7.4618   34.2770 N   0  0  0  0  0  0  0  0  0  0  0  0
  -10.9878    8.5332   33.6210 C   0  0  2  0  0  0  0  0  0  0  0  0
  -11.7809    9.3130   34.5804 C   0  0  0  0  0  0  0  0  0  0  0  0
  -12.3290    8.7312   35.5373 O   0  0  0  0  0  0  0  0  0  0  0  0
  -11.8322    7.8758   32.5566 C   0  0  0  0  0  0  0  0  0  0  0  0
  -11.2390    7.8813   31.2128 C   0  0  0  0  0  0  0  0  0  0  0  0
  -10.5520    6.7985   30.7317 C   0  0  0  0  0  0  0  0  0  0  0  0
  -11.3410    8.9831   30.3760 C   0  0  0  0  0  0  0  0  0  0  0  0
   -9.9947    6.8191   29.4736 C   0  0  0  0  0  0  0  0  0  0  0  0
  -10.7845    9.0092   29.1150 C   0  0  0  0  0  0  0  0  0  0  0  0
  -10.0960    7.9224   28.6347 C   0  0  0  0  0  0  0  0  0  0  0  0
  -11.9547   10.6927   34.4725 O   0  0  0  0  0  0  0  0  0  0  0  0
  1  2  1  0
  2  3  1  0
  3  4  2  0
  3  5  1  0
  5  6  1  0
  6  7  1  0
  6  9  1  6
  7  8  2  0
  7 16  1  0
  9 10  1  0
 10 11  2  0
 10 12  1  0
 11 13  1  0
 12 14  2  0
 13 15  2  0
 14 15  1  0
 16 17  1  0
 17 18  1  0
 18 19  2  0
 18 20  1  0
 21 20  1  6
 21 22  1  0
 21 24  1  0
 22 23  2  0
 22 27  1  0
 24 25  1  1
 24 26  1  0
 28 27  1  1
 28 29  1  0
 28 31  1  0
 29 30  2  0
 29 34  1  0
 31 32  1  6
 31 33  1  0
 34 35  1  0
 34 40  1  0
 35 36  1  1
 35 38  1  0
 36 37  2  0
 36 41  1  0
 38 39  1  0
 39 40  1  0
 41 42  1  0
 42 43  1  0
 42 45  1  1
 43 44  2  0
 43 47  1  0
 45 46  1  0
 47 48  1  0
 48 49  1  0
 48 51  1  6
 49 50  2  0
 49 58  1  0
 51 52  1  0
 52 53  2  0
 52 54  1  0
 53 55  1  0
 54 56  2  0
 55 57  2  0
 56 57  1  0
M  CHG  1   1   1
M  END
$$$$
