
     RDKit          3D

 58 60  0  0  0  0  0  0  0  0999 V2000
   -5.2784   11.1221   33.1539 N   0  0  0  0  0  4  0  0  0  0  0  0
   -6.3149   11.2455   34.1310 C   0  0  0  0  0  0  0  0  0  0  0  0
   -7.2485   10.0735   34.1120 C   0  0  0  0  0  0  0  0  0  0  0  0
   -7.0625    9.1243   34.9196 O   0  0  0  0  0  0  0  0  0  0  0  0
   -8.3429    9.9691   33.2272 N   0  0  0  0  0  0  0  0  0  0  0  0
   -8.6763    8.8408   32.4226 C   0  0  2  0  0  0  0  0  0  0  0  0
   -7.6308    7.7865   32.6869 C   0  0  0  0  0  0  0  0  0  0  0  0
   -6.5147    7.8638   32.1143 O   0  0  0  0  0  0  0  0  0  0  0  0
   -8.7269    9.0738   30.9716 C   0  0  0  0  0  0  0  0  0  0  0  0
   -9.6553   10.1259   30.5251 C   0  0  0  0  0  0  0  0  0  0  0  0
  -10.4874   10.8445   31.3501 C   0  0  0  0  0  0  0  0  0  0  0  0
   -9.6952   10.4154   29.1751 C   0  0  0  0  0  0  0  0  0  0  0  0
  -11.3383   11.8188   30.8882 C   0  0  0  0  0  0  0  0  0  0  0  0
  -10.5390   11.3877   28.6852 C   0  0  0  0  0  0  0  0  0  0  0  0
  -11.3746   12.1045   29.5407 C   0  0  0  0  0  0  0  0  0  0  0  0
   -7.8404    6.6883   33.5635 N   0  0  0  0  0  0  0  0  0  0  0  0
   -8.8937    5.7600   33.2650 C   0  0  0  0  0  0  0  0  0  0  0  0
   -8.3942    4.5684   32.5442 C   0  0  0  0  0  0  0  0  0  0  0  0
   -7.2399    4.0921   32.7794 O   0  0  0  0  0  0  0  0  0  0  0  0
   -9.1991    3.9382   31.5677 N   0  0  0  0  0  0  0  0  0  0  0  0
   -8.8002    2.7373   30.8400 C   0  0  2  0  0  0  0  0  0  0  0  0
   -7.7243    3.1383   29.8797 C   0  0  0  0  0  0  0  0  0  0  0  0
   -7.8694    4.2169   29.2533 O   0  0  0  0  0  0  0  0  0  0  0  0
   -9.9901    2.1307   30.1974 C   0  0  1  0  0  0  0  0  0  0  0  0
   -9.6475    0.8964   29.4015 C   0  0  0  0  0  0  0  0  0  0  0  0
  -11.0397    1.7187   31.2126 C   0  0  0  0  0  0  0  0  0  0  0  0
   -6.5765    2.3397   29.6694 N   0  0  0  0  0  0  0  0  0  0  0  0
   -5.5434    2.7316   28.6539 C   0  0  2  0  0  0  0  0  0  0  0  0
   -5.7453    1.8659   27.4772 C   0  0  0  0  0  0  0  0  0  0  0  0
   -5.7887    0.6010   27.7187 O   0  0  0  0  0  0  0  0  0  0  0  0
   -4.2359    2.4564   29.3407 C   0  0  1  0  0  0  0  0  0  0  0  0
   -3.0863    2.5872   28.3941 C   0  0  0  0  0  0  0  0  0  0  0  0
   -4.0024    3.4330   30.4816 C   0  0  0  0  0  0  0  0  0  0  0  0
   -5.9000    2.3035   26.1421 N   0  0  0  0  0  0  0  0  0  0  0  0
   -6.1373    1.4106   25.0118 C   0  0  2  0  0  0  0  0  0  0  0  0
   -4.9758    1.2581   24.1269 C   0  0  0  0  0  0  0  0  0  0  0  0
   -4.2733    2.2901   23.8495 O   0  0  0  0  0  0  0  0  0  0  0  0
   -7.3175    2.0547   24.3087 C   0  0  0  0  0  0  0  0  0  0  0  0
   -7.0539    3.5219   24.5593 C   0  0  0  0  0  0  0  0  0  0  0  0
   -5.9260    3.6195   25.5570 C   0  0  0  0  0  0  0  0  0  0  0  0
   -4.5659    0.0487   23.5489 N   0  0  0  0  0  0  0  0  0  0  0  0
   -3.6239   -0.8852   24.0959 C   0  0  2  0  0  0  0  0  0  0  0  0
   -3.3362   -2.0035   23.1493 C   0  0  0  0  0  0  0  0  0  0  0  0
   -2.1837   -2.5002   23.0750 O   0  0  0  0  0  0  0  0  0  0  0  0
   -4.0113   -1.4087   25.4555 C   0  0  0  0  0  0  0  0  0  0  0  0
   -2.9438   -2.2418   25.8682 O   0  0  0  0  0  0  0  0  0  0  0  0
   -4.3408   -2.5487   22.3020 N   0  0  0  0  0  0  0  0  0  0  0  0
   -4.1407   -2.7881   20.8765 C   0  0  2  0  0  0  0  0  0  0  0  0
   -2.7973   -3.3111   20.5953 C   0  0  0  0  0  0  0  0  0  0  0  0
   -2.0079   -2.6332   19.9084 O   0  0  0  0  0  0  0  0  0  0  0  0
   -4.4188   -1.4772   20.1820 C   0  0  0  0  0  0  0  0  0  0  0  0
   -5.8117   -1.0191   20.2714 C   0  0  0  0  0  0  0  0  0  0  0  0
   -6.8126   -1.6378   19.5705 C   0  0  0  0  0  0  0  0  0  0  0  0
   -6.1737    0.0622   21.0615 C   0  0  0  0  0  0  0  0  0  0  0  0
   -8.1124   -1.1943   19.6573 C   0  0  0  0  0  0  0  0  0  0  0  0
   -7.4740    0.5108   21.1520 C   0  0  0  0  0  0  0  0  0  0  0  0
   -8.4761   -0.1110   20.4482 C   0  0  0  0  0  0  0  0  0  0  0  0
   -2.3539   -4.5474   21.0649 O   0  0  0  0  0  0  0  0  0  0  0  0
  1  2  1  0
  2  3  1  0
  3  4  2  0
  3  5  1  0
  5  6  1  0
  6  7  1  0
  6  9  1  6
  7  8  2  0
  7 16  1  0
  9 10  1  0
 10 11  2  0
 10 12  1  0
 11 13  1  0
 12 14  2  0
 13 15  2  0
 14 15  1  0
 16 17  1  0
 17 18  1  0
 18 19  2  0
 18 20  1  0
 21 20  1  6
 21 22  1  0
 21 24  1  0
 22 23  2  0
 22 27  1  0
 24 25  1  1
 24 26  1  0
 28 27  1  1
 28 29  1  0
 28 31  1  0
 29 30  2  0
 29 34  1  0
 31 32  1  6
 31 33  1  0
 34 35  1  0
 34 40  1  0
 35 36  1  6
 35 38  1  0
 36 37  2  0
 36 41  1  0
 38 39  1  0
 39 40  1  0
 41 42  1  0
 42 43  1  0
 42 45  1  1
 43 44  2  0
 43 47  1  0
 45 46  1  0
 47 48  1  0
 48 49  1  0
 48 51  1  6
 49 50  2  0
 49 58  1  0
 51 52  1  0
 52 53  2  0
 52 54  1  0
 53 55  1  0
 54 56  2  0
 55 57  2  0
 56 57  1  0
M  CHG  1   1   1
M  END
$$$$
