
     RDKit          3D

 58 60  0  0  0  0  0  0  0  0999 V2000
   -1.0725   -2.6523   20.2991 N   0  0  0  0  0  4  0  0  0  0  0  0
   -2.2296   -1.8915   20.6549 C   0  0  0  0  0  0  0  0  0  0  0  0
   -3.1913   -2.6854   21.4859 C   0  0  0  0  0  0  0  0  0  0  0  0
   -4.4288   -2.4895   21.3523 O   0  0  0  0  0  0  0  0  0  0  0  0
   -2.7847   -3.6566   22.4255 N   0  0  0  0  0  0  0  0  0  0  0  0
   -3.6265   -4.3552   23.3392 C   0  0  2  0  0  0  0  0  0  0  0  0
   -3.1711   -3.9856   24.7288 C   0  0  0  0  0  0  0  0  0  0  0  0
   -2.1124   -4.4845   25.1866 O   0  0  0  0  0  0  0  0  0  0  0  0
   -3.6168   -5.8220   23.2352 C   0  0  0  0  0  0  0  0  0  0  0  0
   -4.5187   -6.5341   24.1559 C   0  0  0  0  0  0  0  0  0  0  0  0
   -4.1146   -7.4166   25.1291 C   0  0  0  0  0  0  0  0  0  0  0  0
   -5.8743   -6.2992   24.0351 C   0  0  0  0  0  0  0  0  0  0  0  0
   -4.9935   -8.0587   25.9669 C   0  0  0  0  0  0  0  0  0  0  0  0
   -6.7775   -6.9296   24.8624 C   0  0  0  0  0  0  0  0  0  0  0  0
   -6.3451   -7.8213   25.8432 C   0  0  0  0  0  0  0  0  0  0  0  0
   -3.8860   -3.0883   25.5666 N   0  0  0  0  0  0  0  0  0  0  0  0
   -3.1539   -2.0799   26.2792 C   0  0  0  0  0  0  0  0  0  0  0  0
   -3.5797   -0.7145   25.9004 C   0  0  0  0  0  0  0  0  0  0  0  0
   -3.2640   -0.2142   24.7759 O   0  0  0  0  0  0  0  0  0  0  0  0
   -4.3468    0.0656   26.7955 N   0  0  0  0  0  0  0  0  0  0  0  0
   -5.7159    0.4957   26.5281 C   0  0  2  0  0  0  0  0  0  0  0  0
   -6.1059    1.4382   27.6235 C   0  0  0  0  0  0  0  0  0  0  0  0
   -5.9850    1.0422   28.8089 O   0  0  0  0  0  0  0  0  0  0  0  0
   -6.5934   -0.6931   26.4112 C   0  0  1  0  0  0  0  0  0  0  0  0
   -8.0196   -0.3255   26.0866 C   0  0  0  0  0  0  0  0  0  0  0  0
   -6.1279   -1.6417   25.3224 C   0  0  0  0  0  0  0  0  0  0  0  0
   -6.5993    2.7351   27.3511 N   0  0  0  0  0  0  0  0  0  0  0  0
   -5.7900    3.9522   27.6915 C   0  0  2  0  0  0  0  0  0  0  0  0
   -6.5326    4.6865   28.7327 C   0  0  0  0  0  0  0  0  0  0  0  0
   -5.9720    5.7656   29.1586 O   0  0  0  0  0  0  0  0  0  0  0  0
   -5.7223    4.7165   26.3999 C   0  0  1  0  0  0  0  0  0  0  0  0
   -5.2658    6.1224   26.6232 C   0  0  0  0  0  0  0  0  0  0  0  0
   -4.7470    4.0674   25.4318 C   0  0  0  0  0  0  0  0  0  0  0  0
   -7.7820    4.3144   29.2790 N   0  0  0  0  0  0  0  0  0  0  0  0
   -8.8064    5.2660   29.6986 C   0  0  2  0  0  0  0  0  0  0  0  0
   -8.9497    5.3738   31.1557 C   0  0  0  0  0  0  0  0  0  0  0  0
   -8.4753    4.4418   31.8917 O   0  0  0  0  0  0  0  0  0  0  0  0
  -10.0617    4.7331   29.0334 C   0  0  0  0  0  0  0  0  0  0  0  0
   -9.8141    3.2424   29.0724 C   0  0  0  0  0  0  0  0  0  0  0  0
   -8.3865    3.0277   29.5116 C   0  0  0  0  0  0  0  0  0  0  0  0
   -9.5777    6.4365   31.8197 N   0  0  0  0  0  0  0  0  0  0  0  0
   -9.0311    7.2185   32.8914 C   0  0  2  0  0  0  0  0  0  0  0  0
  -10.0411    8.1557   33.4670 C   0  0  0  0  0  0  0  0  0  0  0  0
   -9.7199    8.9683   34.3708 O   0  0  0  0  0  0  0  0  0  0  0  0
   -7.7619    7.9444   32.5242 C   0  0  0  0  0  0  0  0  0  0  0  0
   -7.3512    8.6235   33.6964 O   0  0  0  0  0  0  0  0  0  0  0  0
  -11.3928    8.1698   33.0229 N   0  0  0  0  0  0  0  0  0  0  0  0
  -12.3766    9.1422   33.4875 C   0  0  2  0  0  0  0  0  0  0  0  0
  -13.2673    8.5715   34.5066 C   0  0  0  0  0  0  0  0  0  0  0  0
  -13.6206    7.3794   34.4125 O   0  0  0  0  0  0  0  0  0  0  0  0
  -13.1156    9.6189   32.2608 C   0  0  0  0  0  0  0  0  0  0  0  0
  -12.2885   10.3511   31.2925 C   0  0  0  0  0  0  0  0  0  0  0  0
  -10.9822   10.6626   31.5615 C   0  0  0  0  0  0  0  0  0  0  0  0
  -12.7940   10.7654   30.0688 C   0  0  0  0  0  0  0  0  0  0  0  0
  -10.2201   11.3554   30.6487 C   0  0  0  0  0  0  0  0  0  0  0  0
  -12.0352   11.4597   29.1510 C   0  0  0  0  0  0  0  0  0  0  0  0
  -10.7256   11.7711   29.4228 C   0  0  0  0  0  0  0  0  0  0  0  0
  -13.7453    9.3077   35.5905 O   0  0  0  0  0  0  0  0  0  0  0  0
  1  2  1  0
  2  3  1  0
  3  4  2  0
  3  5  1  0
  5  6  1  0
  6  7  1  0
  6  9  1  6
  7  8  2  0
  7 16  1  0
  9 10  1  0
 10 11  2  0
 10 12  1  0
 11 13  1  0
 12 14  2  0
 13 15  2  0
 14 15  1  0
 16 17  1  0
 17 18  1  0
 18 19  2  0
 18 20  1  0
 21 20  1  1
 21 22  1  0
 21 24  1  0
 22 23  2  0
 22 27  1  0
 24 25  1  6
 24 26  1  0
 28 27  1  6
 28 29  1  0
 28 31  1  0
 29 30  2  0
 29 34  1  0
 31 32  1  1
 31 33  1  0
 34 35  1  0
 34 40  1  0
 35 36  1  1
 35 38  1  0
 36 37  2  0
 36 41  1  0
 38 39  1  0
 39 40  1  0
 41 42  1  0
 42 43  1  0
 42 45  1  6
 43 44  2  0
 43 47  1  0
 45 46  1  0
 47 48  1  0
 48 49  1  0
 48 51  1  6
 49 50  2  0
 49 58  1  0
 51 52  1  0
 52 53  2  0
 52 54  1  0
 53 55  1  0
 54 56  2  0
 55 57  2  0
 56 57  1  0
M  CHG  1   1   1
M  END
$$$$
