
     RDKit          3D

136141  0  0  0  0  0  0  0  0999 V2000
    8.4907   33.4747   33.6302 C   0  0  0  0  0  0  0  0  0  0  0  0
    9.0815   33.7436   34.6705 O   0  0  0  0  0  0  0  0  0  0  0  0
    8.2417   34.5086   32.5618 C   0  0  0  0  0  0  0  0  0  0  0  0
    7.9604   32.2342   33.3424 N   0  0  0  0  0  0  0  0  0  0  0  0
    8.7285   31.0259   33.6604 C   0  0  2  0  0  0  0  0  0  0  0  0
   10.1898   31.2784   33.2038 C   0  0  0  0  0  0  0  0  0  0  0  0
   10.4303   32.0427   32.2617 O   0  0  0  0  0  0  0  0  0  0  0  0
    8.1411   29.7534   33.0120 C   0  0  1  0  0  0  0  0  0  0  0  0
    8.8124   28.4945   33.5755 C   0  0  0  0  0  0  0  0  0  0  0  0
    6.6201   29.6412   33.1457 C   0  0  0  0  0  0  0  0  0  0  0  0
   11.2039   30.5903   33.8294 N   0  0  0  0  0  0  0  0  0  0  0  0
   12.6066   30.7370   33.4013 C   0  0  2  0  0  0  0  0  0  0  0  0
   13.0319   29.8069   32.2378 C   0  0  0  0  0  0  0  0  0  0  0  0
   12.6291   28.6383   32.1489 O   0  0  0  0  0  0  0  0  0  0  0  0
   13.4013   30.4721   34.6843 C   0  0  0  0  0  0  0  0  0  0  0  0
   12.5342   29.4482   35.4064 C   0  0  0  0  0  0  0  0  0  0  0  0
   11.1281   29.9710   35.1458 C   0  0  0  0  0  0  0  0  0  0  0  0
   14.0212   30.3142   31.4318 N   0  0  0  0  0  0  0  0  0  0  0  0
   14.5109   29.6482   30.2271 C   0  0  2  0  0  0  0  0  0  0  0  0
   15.9339   29.0415   30.4695 C   0  0  0  0  0  0  0  0  0  0  0  0
   16.1540   28.1419   31.2799 O   0  0  0  0  0  0  0  0  0  0  0  0
   14.4105   30.5259   28.9528 C   0  0  0  0  0  0  0  0  0  0  0  0
   12.9855   31.0191   28.6013 C   0  0  1  0  0  0  0  0  0  0  0  0
   12.9312   31.8529   27.3167 C   0  0  0  0  0  0  0  0  0  0  0  0
   12.0511   29.8115   28.4531 C   0  0  0  0  0  0  0  0  0  0  0  0
   16.9144   29.5628   29.6463 N   0  0  0  0  0  0  0  0  0  0  0  0
   17.9328   28.7932   28.9306 C   0  0  2  0  0  0  0  0  0  0  0  0
   18.6893   29.7027   27.9405 C   0  0  0  0  0  0  0  0  0  0  0  0
   19.8574   30.0463   28.0942 O   0  0  0  0  0  0  0  0  0  0  0  0
   17.4286   27.5037   28.2611 C   0  0  0  0  0  0  0  0  0  0  0  0
   17.4598   26.2690   29.1772 C   0  0  0  0  0  0  0  0  0  0  0  0
   16.0539   25.7408   29.4690 C   0  0  0  0  0  0  0  0  0  0  0  0
   15.5064   26.3477   30.6660 N   0  0  0  0  0  0  0  0  0  0  0  0
   14.2617   26.0871   31.1133 C   0  0  0  0  0  0  0  0  0  0  0  0
   13.7044   26.6642   32.1103 N   0  0  0  0  0  0  0  0  0  0  0  0
   13.6546   25.1443   30.3667 N   0  0  0  0  0  0  0  0  0  0  0  0
   17.9002   30.2039   26.9163 N   0  0  0  0  0  0  0  0  0  0  0  0
   18.4365   31.1247   25.8967 C   0  0  2  0  0  0  0  0  0  0  0  0
   19.3190   32.2820   26.4276 C   0  0  0  0  0  0  0  0  0  0  0  0
   18.9350   33.0510   27.3042 O   0  0  0  0  0  0  0  0  0  0  0  0
   17.2811   31.7493   25.1137 C   0  0  0  0  0  0  0  0  0  0  0  0
   20.5579   32.3675   25.8418 N   0  0  0  0  0  0  0  0  0  0  0  0
   21.7041   33.0485   26.4438 C   0  0  2  0  0  0  0  0  0  0  0  0
   22.0887   34.3124   25.6288 C   0  0  0  0  0  0  0  0  0  0  0  0
   23.2603   34.5806   25.3608 O   0  0  0  0  0  0  0  0  0  0  0  0
   22.8585   32.0303   26.4635 C   0  0  0  0  0  0  0  0  0  0  0  0
   23.1419   31.3974   27.8277 C   0  0  0  0  0  0  0  0  0  0  0  0
   24.4867   31.8428   28.4109 C   0  0  0  0  0  0  0  0  0  0  0  0
   25.3478   30.7147   28.7575 N   0  0  0  0  0  0  0  0  0  0  0  0
   26.0076   30.6624   29.9389 C   0  0  0  0  0  0  0  0  0  0  0  0
   26.2247   29.3868   30.3199 N   0  0  0  0  0  0  0  0  0  0  0  0
   26.4005   31.6703   30.6223 N   0  0  0  0  0  0  0  0  0  0  0  0
   21.0264   34.9830   25.0521 N   0  0  0  0  0  0  0  0  0  0  0  0
   21.0756   35.5087   23.6827 C   0  0  2  0  0  0  0  0  0  0  0  0
   19.6874   35.9689   23.1935 C   0  0  0  0  0  0  0  0  0  0  0  0
   19.2800   37.1226   23.3364 O   0  0  0  0  0  0  0  0  0  0  0  0
   21.5973   34.4434   22.7139 C   0  0  0  0  0  0  0  0  0  0  0  0
   21.1750   34.7459   21.3015 C   0  0  0  0  0  0  0  0  0  0  0  0
   21.4137   35.8004   20.7226 O   0  0  0  0  0  0  0  0  0  0  0  0
   20.4839   33.7483   20.6879 N   0  0  0  0  0  0  0  0  0  0  0  0
   18.9921   35.0338   22.4537 N   0  0  0  0  0  0  0  0  0  0  0  0
   17.6956   35.3378   21.8582 C   0  0  2  0  0  0  0  0  0  0  0  0
   17.4318   34.2600   20.7757 C   0  0  0  0  0  0  0  0  0  0  0  0
   18.3260   33.8882   20.0051 O   0  0  0  0  0  0  0  0  0  0  0  0
   17.6967   36.7669   21.2778 C   0  0  0  0  0  0  0  0  0  0  0  0
   17.9008   36.8454   19.7468 C   0  0  1  0  0  0  0  0  0  0  0  0
   17.2307   38.1101   19.1998 C   0  0  0  0  0  0  0  0  0  0  0  0
   19.3767   36.8292   19.3372 C   0  0  0  0  0  0  0  0  0  0  0  0
   16.1812   33.6751   20.7470 N   0  0  0  0  0  0  0  0  0  0  0  0
   15.7704   32.4902   19.9785 C   0  0  2  0  0  0  0  0  0  0  0  0
   15.6849   32.7586   18.4507 C   0  0  0  0  0  0  0  0  0  0  0  0
   15.2751   33.8311   18.0123 O   0  0  0  0  0  0  0  0  0  0  0  0
   14.3840   32.1340   20.5269 C   0  0  0  0  0  0  0  0  0  0  0  0
   14.3211   32.8467   21.8737 C   0  0  0  0  0  0  0  0  0  0  0  0
   15.1272   34.1101   21.6381 C   0  0  0  0  0  0  0  0  0  0  0  0
   16.0440   31.7346   17.5901 N   0  0  0  0  0  0  0  0  0  0  0  0
   17.3936   31.7528   16.9890 C   0  0  2  0  0  0  0  0  0  0  0  0
   17.6290   32.7871   15.8744 C   0  0  0  0  0  0  0  0  0  0  0  0
   18.1058   33.8975   16.1143 O   0  0  0  0  0  0  0  0  0  0  0  0
   17.5496   30.3515   16.3870 C   0  0  0  0  0  0  0  0  0  0  0  0
   16.6770   29.4861   17.2809 C   0  0  0  0  0  0  0  0  0  0  0  0
   15.4907   30.3908   17.5832 C   0  0  0  0  0  0  0  0  0  0  0  0
   17.4707   32.3212   14.5826 N   0  0  0  0  0  0  0  0  0  0  0  0
   17.3631   30.8770   14.3412 C   0  0  2  0  0  0  0  0  0  0  0  0
   17.1436   30.5220   12.8610 C   0  0  0  0  0  0  0  0  0  0  0  0
   17.8909   29.7606   12.2474 O   0  0  0  0  0  0  0  0  0  0  0  0
   16.2105   30.2497   15.1550 C   0  0  0  0  0  0  0  0  0  0  0  0
   15.7916   31.0528   16.2620 O   0  0  0  0  0  0  0  0  0  0  0  0
   16.0696   31.1520   12.2551 N   0  0  0  0  0  0  0  0  0  0  0  0
   15.7362   30.9014   10.8565 C   0  0  2  0  0  0  0  0  0  0  0  0
   14.8543   29.6414   10.7564 C   0  0  0  0  0  0  0  0  0  0  0  0
   15.1937   28.6507   10.1122 O   0  0  0  0  0  0  0  0  0  0  0  0
   16.9988   30.6895    9.9900 C   0  0  0  0  0  0  0  0  0  0  0  0
   17.6083   31.9551    9.4325 C   0  0  0  0  0  0  0  0  0  0  0  0
   17.0479   33.2083    9.7225 C   0  0  0  0  0  0  0  0  0  0  0  0
   18.7352   31.8951    8.6018 C   0  0  0  0  0  0  0  0  0  0  0  0
   17.6132   34.3769    9.2048 C   0  0  0  0  0  0  0  0  0  0  0  0
   19.2971   33.0635    8.0820 C   0  0  0  0  0  0  0  0  0  0  0  0
   18.7395   34.3051    8.3868 C   0  0  0  0  0  0  0  0  0  0  0  0
   13.6417   29.7401   11.4060 N   0  0  0  0  0  0  0  0  0  0  0  0
   13.0532   28.6251   12.1788 C   0  0  2  0  0  0  0  0  0  0  0  0
   11.6853   29.0588   12.7622 C   0  0  0  0  0  0  0  0  0  0  0  0
   11.3838   28.9147   13.9472 O   0  0  0  0  0  0  0  0  0  0  0  0
   14.0120   28.1953   13.2995 C   0  0  0  0  0  0  0  0  0  0  0  0
   15.2556   27.4797   12.8283 C   0  0  0  0  0  0  0  0  0  0  0  0
   15.1541   26.3365   12.0190 C   0  0  0  0  0  0  0  0  0  0  0  0
   16.5295   27.9287   13.2087 C   0  0  0  0  0  0  0  0  0  0  0  0
   16.2991   25.6487   11.6184 C   0  0  0  0  0  0  0  0  0  0  0  0
   17.6721   27.2403   12.7983 C   0  0  0  0  0  0  0  0  0  0  0  0
   17.5594   26.0969   12.0093 C   0  0  0  0  0  0  0  0  0  0  0  0
   10.8026   29.5556   11.8169 N   0  0  0  0  0  0  0  0  0  0  0  0
    9.3532   29.4634   12.0176 C   0  0  2  0  0  0  0  0  0  0  0  0
    8.9924   27.9713   11.8263 C   0  0  0  0  0  0  0  0  0  0  0  0
    8.5364   27.5520   10.7588 O   0  0  0  0  0  0  0  0  0  0  0  0
    8.5768   30.4096   11.0801 C   0  0  2  0  0  0  0  0  0  0  0  0
    9.2894   30.5616    9.8465 O   0  0  0  0  0  0  0  0  0  0  0  0
    8.2938   31.7877   11.6710 C   0  0  0  0  0  0  0  0  0  0  0  0
    9.1983   27.1802   12.9332 N   0  0  0  0  0  0  0  0  0  0  0  0
    8.9036   25.7436   12.9827 C   0  0  2  0  0  0  0  0  0  0  0  0
    7.5389   25.5534   13.7231 C   0  0  0  0  0  0  0  0  0  0  0  0
    7.0205   24.4294   13.7794 O   0  0  0  0  0  0  0  0  0  0  0  0
   10.0520   24.8814   13.5289 C   0  0  0  0  0  0  0  0  0  0  0  0
    9.8153   23.3687   13.4533 C   0  0  0  0  0  0  0  0  0  0  0  0
    9.4806   22.8896   12.0691 C   0  0  0  0  0  0  0  0  0  0  0  0
   10.0878   22.0483   11.4288 O   0  0  0  0  0  0  0  0  0  0  0  0
    8.3634   23.4559   11.5713 O   0  0  0  0  0  0  0  0  0  0  0  0
    6.9231   26.6172   14.3527 N   0  0  0  0  0  0  0  0  0  0  0  0
    5.9397   27.5808   13.8388 C   0  0  2  0  0  0  0  0  0  0  0  0
    6.4296   28.5083   12.7140 C   0  0  0  0  0  0  0  0  0  0  0  0
    5.9005   29.5686   12.3955 O   0  0  0  0  0  0  0  0  0  0  0  0
    5.5799   28.4524   15.0578 C   0  0  0  0  0  0  0  0  0  0  0  0
    5.9201   27.5769   16.2524 C   0  0  0  0  0  0  0  0  0  0  0  0
    7.1478   26.8240   15.7791 C   0  0  0  0  0  0  0  0  0  0  0  0
    7.5372   28.0705   12.0398 N   0  0  0  0  0  0  0  0  0  0  0  0
   13.6668   27.6719   31.9429 H   0  0  0  0  0  0  0  0  0  0  0  0
   26.0637   32.5302   30.1847 H   0  0  0  0  0  0  0  0  0  0  0  0
  1  2  2  0
  1  3  1  0
  1  4  1  0
  5  4  1  6
  5  6  1  0
  5  8  1  0
  6  7  2  0
  6 11  1  0
  8  9  1  1
  8 10  1  0
 11 12  1  0
 11 17  1  0
 12 13  1  6
 12 15  1  0
 13 14  2  0
 13 18  1  0
 15 16  1  0
 16 17  1  0
 18 19  1  0
 19 20  1  0
 19 22  1  6
 20 21  2  0
 20 26  1  0
 22 23  1  0
 23 24  1  6
 23 25  1  0
 26 27  1  0
 27 28  1  0
 27 30  1  6
 28 29  2  0
 28 37  1  0
 30 31  1  0
 31 32  1  0
 32 33  1  0
 33 34  1  0
 34 35  2  0
 34 36  1  0
 37 38  1  0
 38 39  1  0
 38 41  1  1
 39 40  2  0
 39 42  1  0
 42 43  1  0
 43 44  1  0
 43 46  1  6
 44 45  2  0
 44 53  1  0
 46 47  1  0
 47 48  1  0
 48 49  1  0
 49 50  1  0
 50 51  1  0
 50 52  2  0
 53 54  1  0
 54 55  1  0
 54 57  1  6
 55 56  2  0
 55 61  1  0
 57 58  1  0
 58 59  2  0
 58 60  1  0
 61 62  1  0
 62 63  1  0
 62 65  1  6
 63 64  2  0
 63 69  1  0
 65 66  1  0
 66 67  1  1
 66 68  1  0
 69 70  1  0
 69 75  1  0
 70 71  1  6
 70 73  1  0
 71 72  2  0
 71 76  1  0
 73 74  1  0
 74 75  1  0
 76 77  1  0
 76 82  1  0
 77 78  1  6
 77 80  1  0
 78 79  2  0
 78 83  1  0
 80 81  1  0
 81 82  1  0
 83 84  1  0
 84 85  1  0
 84 87  1  1
 85 86  2  0
 85 89  1  0
 87 88  1  0
 89 90  1  0
 90 91  1  0
 90 93  1  6
 91 92  2  0
 91100  1  0
 93 94  1  0
 94 95  2  0
 94 96  1  0
 95 97  1  0
 96 98  2  0
 97 99  2  0
 98 99  1  0
100101  1  0
101102  1  0
101104  1  1
102103  2  0
102111  1  0
104105  1  0
105106  2  0
105107  1  0
106108  1  0
107109  2  0
108110  2  0
109110  1  0
112111  1  6
112113  1  0
112115  1  0
113114  2  0
113118  1  0
115116  1  0
115117  1  1
118119  1  0
119120  1  0
119122  1  1
120121  2  0
120127  1  0
122123  1  0
123124  1  0
124125  2  0
124126  1  0
127128  1  0
127133  1  0
128129  1  6
128131  1  0
129130  2  0
129134  1  0
131132  1  0
132133  1  0
 35135  1  0
 52136  1  0
M  END
$$$$
