
     RDKit          3D

136141  0  0  0  0  0  0  0  0999 V2000
   12.4999   17.6818   41.6463 C   0  0  0  0  0  0  0  0  0  0  0  0
   13.6757   17.4511   41.9071 O   0  0  0  0  0  0  0  0  0  0  0  0
   11.3876   17.3501   42.6081 C   0  0  0  0  0  0  0  0  0  0  0  0
   12.0654   18.2198   40.4528 N   0  0  0  0  0  0  0  0  0  0  0  0
   12.7966   17.9254   39.2159 C   0  0  2  0  0  0  0  0  0  0  0  0
   13.5355   19.2248   38.8000 C   0  0  0  0  0  0  0  0  0  0  0  0
   12.9009   20.2590   38.5603 O   0  0  0  0  0  0  0  0  0  0  0  0
   11.8808   17.4047   38.0868 C   0  0  1  0  0  0  0  0  0  0  0  0
   12.6851   17.1511   36.8054 C   0  0  0  0  0  0  0  0  0  0  0  0
   11.0894   16.1502   38.4662 C   0  0  0  0  0  0  0  0  0  0  0  0
   14.9023   19.1855   38.6470 N   0  0  0  0  0  0  0  0  0  0  0  0
   15.6734   20.4025   38.3357 C   0  0  2  0  0  0  0  0  0  0  0  0
   15.7657   20.7459   36.8280 C   0  0  0  0  0  0  0  0  0  0  0  0
   15.8285   19.8677   35.9560 O   0  0  0  0  0  0  0  0  0  0  0  0
   17.0454   20.1253   38.9591 C   0  0  0  0  0  0  0  0  0  0  0  0
   17.1862   18.6171   38.7945 C   0  0  0  0  0  0  0  0  0  0  0  0
   15.7821   18.1224   39.1139 C   0  0  0  0  0  0  0  0  0  0  0  0
   15.9584   22.0778   36.5551 N   0  0  0  0  0  0  0  0  0  0  0  0
   15.9847   22.6365   35.2054 C   0  0  2  0  0  0  0  0  0  0  0  0
   17.2571   23.5252   34.9987 C   0  0  0  0  0  0  0  0  0  0  0  0
   17.8157   24.1264   35.9158 O   0  0  0  0  0  0  0  0  0  0  0  0
   14.6595   23.3319   34.7996 C   0  0  0  0  0  0  0  0  0  0  0  0
   13.4698   23.0992   35.7628 C   0  0  1  0  0  0  0  0  0  0  0  0
   12.4270   24.2212   35.7219 C   0  0  0  0  0  0  0  0  0  0  0  0
   12.7872   21.7696   35.4165 C   0  0  0  0  0  0  0  0  0  0  0  0
   17.7374   23.5257   33.7025 N   0  0  0  0  0  0  0  0  0  0  0  0
   18.8617   24.3188   33.2039 C   0  0  2  0  0  0  0  0  0  0  0  0
   18.3443   25.5681   32.4614 C   0  0  0  0  0  0  0  0  0  0  0  0
   18.0537   25.5748   31.2691 O   0  0  0  0  0  0  0  0  0  0  0  0
   19.8949   23.5394   32.3730 C   0  0  0  0  0  0  0  0  0  0  0  0
   20.3025   22.1896   32.9868 C   0  0  0  0  0  0  0  0  0  0  0  0
   19.4720   21.0344   32.4243 C   0  0  0  0  0  0  0  0  0  0  0  0
   20.1467   20.4015   31.3085 N   0  0  0  0  0  0  0  0  0  0  0  0
   19.9893   19.0977   31.0040 C   0  0  0  0  0  0  0  0  0  0  0  0
   19.5907   18.1965   31.8204 N   0  0  0  0  0  0  0  0  0  0  0  0
   20.2892   18.8509   29.7140 N   0  0  0  0  0  0  0  0  0  0  0  0
   18.3490   26.7239   33.2275 N   0  0  0  0  0  0  0  0  0  0  0  0
   18.9801   27.9706   32.7557 C   0  0  2  0  0  0  0  0  0  0  0  0
   18.7974   28.2942   31.2517 C   0  0  0  0  0  0  0  0  0  0  0  0
   19.0939   29.3858   30.7747 O   0  0  0  0  0  0  0  0  0  0  0  0
   20.4825   27.9209   33.0362 C   0  0  0  0  0  0  0  0  0  0  0  0
   18.2855   27.2613   30.5057 N   0  0  0  0  0  0  0  0  0  0  0  0
   17.8323   27.3960   29.1213 C   0  0  2  0  0  0  0  0  0  0  0  0
   17.0584   28.7262   28.9184 C   0  0  0  0  0  0  0  0  0  0  0  0
   17.3815   29.5400   28.0525 O   0  0  0  0  0  0  0  0  0  0  0  0
   16.9303   26.1818   28.8350 C   0  0  0  0  0  0  0  0  0  0  0  0
   16.0116   25.7702   29.9876 C   0  0  0  0  0  0  0  0  0  0  0  0
   16.6070   24.6417   30.8356 C   0  0  0  0  0  0  0  0  0  0  0  0
   15.7064   24.2069   31.9005 N   0  0  0  0  0  0  0  0  0  0  0  0
   16.1463   23.4605   32.9412 C   0  0  0  0  0  0  0  0  0  0  0  0
   17.4507   23.1476   32.7998 N   0  0  0  0  0  0  0  0  0  0  0  0
   15.4471   23.0949   33.9487 N   0  0  0  0  0  0  0  0  0  0  0  0
   15.8726   28.8270   29.6216 N   0  0  0  0  0  0  0  0  0  0  0  0
   14.9870   29.9921   29.5116 C   0  0  2  0  0  0  0  0  0  0  0  0
   15.7579   31.2634   29.1018 C   0  0  0  0  0  0  0  0  0  0  0  0
   15.2402   32.3811   29.0903 O   0  0  0  0  0  0  0  0  0  0  0  0
   14.2857   30.2649   30.8457 C   0  0  0  0  0  0  0  0  0  0  0  0
   14.1057   28.9933   31.6300 C   0  0  0  0  0  0  0  0  0  0  0  0
   13.4314   28.0411   31.2523 O   0  0  0  0  0  0  0  0  0  0  0  0
   14.7523   28.9659   32.8260 N   0  0  0  0  0  0  0  0  0  0  0  0
   17.1094   31.0808   28.8894 N   0  0  0  0  0  0  0  0  0  0  0  0
   18.1108   31.8468   29.6233 C   0  0  2  0  0  0  0  0  0  0  0  0
   17.6458   33.3257   29.6120 C   0  0  0  0  0  0  0  0  0  0  0  0
   16.6019   33.6774   30.1762 O   0  0  0  0  0  0  0  0  0  0  0  0
   19.5007   31.6620   28.9806 C   0  0  0  0  0  0  0  0  0  0  0  0
   20.2639   30.3969   29.4374 C   0  0  1  0  0  0  0  0  0  0  0  0
   21.5526   30.2475   28.6221 C   0  0  0  0  0  0  0  0  0  0  0  0
   20.6009   30.4069   30.9316 C   0  0  0  0  0  0  0  0  0  0  0  0
   18.4749   34.2521   29.0107 N   0  0  0  0  0  0  0  0  0  0  0  0
   18.5479   34.5843   27.5798 C   0  0  2  0  0  0  0  0  0  0  0  0
   19.1857   33.4532   26.7269 C   0  0  0  0  0  0  0  0  0  0  0  0
   19.6622   32.4490   27.2511 O   0  0  0  0  0  0  0  0  0  0  0  0
   19.4205   35.8431   27.5183 C   0  0  0  0  0  0  0  0  0  0  0  0
   19.3809   36.3944   28.9396 C   0  0  0  0  0  0  0  0  0  0  0  0
   19.2991   35.1451   29.7964 C   0  0  0  0  0  0  0  0  0  0  0  0
   19.2425   33.6280   25.3541 N   0  0  0  0  0  0  0  0  0  0  0  0
   20.2665   32.8900   24.5861 C   0  0  2  0  0  0  0  0  0  0  0  0
   21.7140   33.3939   24.7215 C   0  0  0  0  0  0  0  0  0  0  0  0
   22.0708   34.0835   25.6781 O   0  0  0  0  0  0  0  0  0  0  0  0
   19.8304   33.0626   23.1266 C   0  0  0  0  0  0  0  0  0  0  0  0
   18.3211   33.2101   23.2261 C   0  0  0  0  0  0  0  0  0  0  0  0
   18.1386   34.0273   24.4974 C   0  0  0  0  0  0  0  0  0  0  0  0
   22.6207   32.8567   23.8269 N   0  0  0  0  0  0  0  0  0  0  0  0
   24.0584   33.0646   24.0394 C   0  0  2  0  0  0  0  0  0  0  0  0
   24.9361   32.3762   22.9806 C   0  0  0  0  0  0  0  0  0  0  0  0
   26.1363   32.1662   23.1537 O   0  0  0  0  0  0  0  0  0  0  0  0
   24.5062   32.5586   25.4279 C   0  0  0  0  0  0  0  0  0  0  0  0
   25.8956   32.7726   25.6914 O   0  0  0  0  0  0  0  0  0  0  0  0
   24.2899   32.0464   21.8010 N   0  0  0  0  0  0  0  0  0  0  0  0
   23.7785   33.0783   20.9045 C   0  0  2  0  0  0  0  0  0  0  0  0
   24.5604   33.0391   19.5770 C   0  0  0  0  0  0  0  0  0  0  0  0
   24.6382   34.0131   18.8307 O   0  0  0  0  0  0  0  0  0  0  0  0
   23.9129   34.4925   21.5143 C   0  0  0  0  0  0  0  0  0  0  0  0
   22.9959   35.5339   20.9154 C   0  0  0  0  0  0  0  0  0  0  0  0
   22.7017   36.7154   21.6125 C   0  0  0  0  0  0  0  0  0  0  0  0
   22.4108   35.3274   19.6590 C   0  0  0  0  0  0  0  0  0  0  0  0
   21.8526   37.6763   21.0566 C   0  0  0  0  0  0  0  0  0  0  0  0
   21.5595   36.2869   19.1059 C   0  0  0  0  0  0  0  0  0  0  0  0
   21.2836   37.4637   19.8020 C   0  0  0  0  0  0  0  0  0  0  0  0
   25.1189   31.8138   19.2791 N   0  0  0  0  0  0  0  0  0  0  0  0
   25.8114   31.5375   18.0021 C   0  0  2  0  0  0  0  0  0  0  0  0
   26.4522   32.8406   17.4629 C   0  0  0  0  0  0  0  0  0  0  0  0
   26.0077   33.9614   17.7122 O   0  0  0  0  0  0  0  0  0  0  0  0
   24.8234   30.9532   16.9811 C   0  0  0  0  0  0  0  0  0  0  0  0
   25.4396   30.5530   15.6618 C   0  0  0  0  0  0  0  0  0  0  0  0
   26.8238   30.6748   15.4579 C   0  0  0  0  0  0  0  0  0  0  0  0
   24.6402   30.0763   14.6116 C   0  0  0  0  0  0  0  0  0  0  0  0
   27.3896   30.3470   14.2262 C   0  0  0  0  0  0  0  0  0  0  0  0
   25.2135   29.7426   13.3836 C   0  0  0  0  0  0  0  0  0  0  0  0
   26.5860   29.8835   13.1863 C   0  0  0  0  0  0  0  0  0  0  0  0
   27.5268   32.6298   16.6141 N   0  0  0  0  0  0  0  0  0  0  0  0
   28.2421   33.7579   16.0096 C   0  0  2  0  0  0  0  0  0  0  0  0
   28.3923   33.4105   14.5097 C   0  0  0  0  0  0  0  0  0  0  0  0
   28.0540   32.3088   14.0681 O   0  0  0  0  0  0  0  0  0  0  0  0
   29.5846   34.0376   16.7143 C   0  0  2  0  0  0  0  0  0  0  0  0
   30.6656   33.5599   15.9044 O   0  0  0  0  0  0  0  0  0  0  0  0
   29.6987   33.4359   18.1119 C   0  0  0  0  0  0  0  0  0  0  0  0
   28.9452   34.4067   13.7380 N   0  0  0  0  0  0  0  0  0  0  0  0
   28.6321   34.6170   12.3200 C   0  0  2  0  0  0  0  0  0  0  0  0
   29.4051   35.8876   11.8357 C   0  0  0  0  0  0  0  0  0  0  0  0
   29.4595   36.8895   12.5628 O   0  0  0  0  0  0  0  0  0  0  0  0
   27.1297   34.6225   11.9987 C   0  0  0  0  0  0  0  0  0  0  0  0
   26.3827   33.3409   12.3855 C   0  0  0  0  0  0  0  0  0  0  0  0
   25.9849   33.3008   13.8339 C   0  0  0  0  0  0  0  0  0  0  0  0
   26.7339   33.3877   14.7919 O   0  0  0  0  0  0  0  0  0  0  0  0
   24.6524   33.2039   14.0117 O   0  0  0  0  0  0  0  0  0  0  0  0
   30.0652   35.8928   10.6226 N   0  0  0  0  0  0  0  0  0  0  0  0
   31.4127   36.3688   10.2804 C   0  0  2  0  0  0  0  0  0  0  0  0
   31.6534   37.8799   10.4370 C   0  0  0  0  0  0  0  0  0  0  0  0
   30.7935   38.7462   10.3113 O   0  0  0  0  0  0  0  0  0  0  0  0
   31.5838   36.0067    8.7923 C   0  0  0  0  0  0  0  0  0  0  0  0
   30.5997   34.8698    8.5724 C   0  0  0  0  0  0  0  0  0  0  0  0
   29.4403   35.2495    9.4722 C   0  0  0  0  0  0  0  0  0  0  0  0
   32.9418   38.2366   10.7294 N   0  0  0  0  0  0  0  0  0  0  0  0
   19.5926   17.2880   31.3520 H   0  0  0  0  0  0  0  0  0  0  0  0
   14.5742   23.6259   33.9677 H   0  0  0  0  0  0  0  0  0  0  0  0
  1  2  2  0
  1  3  1  0
  1  4  1  0
  5  4  1  1
  5  6  1  0
  5  8  1  0
  6  7  2  0
  6 11  1  0
  8  9  1  6
  8 10  1  0
 11 12  1  0
 11 17  1  0
 12 13  1  6
 12 15  1  0
 13 14  2  0
 13 18  1  0
 15 16  1  0
 16 17  1  0
 18 19  1  0
 19 20  1  0
 19 22  1  1
 20 21  2  0
 20 26  1  0
 22 23  1  0
 23 24  1  6
 23 25  1  0
 26 27  1  0
 27 28  1  0
 27 30  1  6
 28 29  2  0
 28 37  1  0
 30 31  1  0
 31 32  1  0
 32 33  1  0
 33 34  1  0
 34 35  2  0
 34 36  1  0
 37 38  1  0
 38 39  1  0
 38 41  1  6
 39 40  2  0
 39 42  1  0
 42 43  1  0
 43 44  1  0
 43 46  1  1
 44 45  2  0
 44 53  1  0
 46 47  1  0
 47 48  1  0
 48 49  1  0
 49 50  1  0
 50 51  1  0
 50 52  2  0
 53 54  1  0
 54 55  1  0
 54 57  1  1
 55 56  2  0
 55 61  1  0
 57 58  1  0
 58 59  2  0
 58 60  1  0
 61 62  1  0
 62 63  1  0
 62 65  1  6
 63 64  2  0
 63 69  1  0
 65 66  1  0
 66 67  1  6
 66 68  1  0
 69 70  1  0
 69 75  1  0
 70 71  1  6
 70 73  1  0
 71 72  2  0
 71 76  1  0
 73 74  1  0
 74 75  1  0
 76 77  1  0
 76 82  1  0
 77 78  1  6
 77 80  1  0
 78 79  2  0
 78 83  1  0
 80 81  1  0
 81 82  1  0
 83 84  1  0
 84 85  1  0
 84 87  1  1
 85 86  2  0
 85 89  1  0
 87 88  1  0
 89 90  1  0
 90 91  1  0
 90 93  1  1
 91 92  2  0
 91100  1  0
 93 94  1  0
 94 95  2  0
 94 96  1  0
 95 97  1  0
 96 98  2  0
 97 99  2  0
 98 99  1  0
100101  1  0
101102  1  0
101104  1  6
102103  2  0
102111  1  0
104105  1  0
105106  2  0
105107  1  0
106108  1  0
107109  2  0
108110  2  0
109110  1  0
112111  1  1
112113  1  0
112115  1  0
113114  2  0
113118  1  0
115116  1  0
115117  1  1
118119  1  0
119120  1  0
119122  1  1
120121  2  0
120127  1  0
122123  1  0
123124  1  0
124125  2  0
124126  1  0
127128  1  0
127133  1  0
128129  1  6
128131  1  0
129130  2  0
129134  1  0
131132  1  0
132133  1  0
 35135  1  0
 52136  1  0
M  END
$$$$
