
     RDKit          3D

136141  0  0  0  0  0  0  0  0999 V2000
   14.4514   32.1895    1.7298 C   0  0  0  0  0  0  0  0  0  0  0  0
   15.4380   32.3882    1.0293 O   0  0  0  0  0  0  0  0  0  0  0  0
   13.9541   33.2123    2.7192 C   0  0  0  0  0  0  0  0  0  0  0  0
   13.7245   31.0172    1.7242 N   0  0  0  0  0  0  0  0  0  0  0  0
   14.4244   29.7305    1.6483 C   0  0  2  0  0  0  0  0  0  0  0  0
   13.3406   28.6237    1.5613 C   0  0  0  0  0  0  0  0  0  0  0  0
   12.1403   28.9125    1.6365 O   0  0  0  0  0  0  0  0  0  0  0  0
   15.3824   29.4973    2.8369 C   0  0  1  0  0  0  0  0  0  0  0  0
   16.1705   28.1940    2.6547 C   0  0  0  0  0  0  0  0  0  0  0  0
   16.3445   30.6612    3.0886 C   0  0  0  0  0  0  0  0  0  0  0  0
   13.7445   27.3124    1.4583 N   0  0  0  0  0  0  0  0  0  0  0  0
   12.7727   26.2270    1.2352 C   0  0  2  0  0  0  0  0  0  0  0  0
   12.1208   25.6631    2.5223 C   0  0  0  0  0  0  0  0  0  0  0  0
   11.1663   26.2259    3.0771 O   0  0  0  0  0  0  0  0  0  0  0  0
   13.5843   25.1708    0.4778 C   0  0  0  0  0  0  0  0  0  0  0  0
   14.9811   25.3440    1.0616 C   0  0  0  0  0  0  0  0  0  0  0  0
   15.0997   26.8575    1.1779 C   0  0  0  0  0  0  0  0  0  0  0  0
   12.7954   24.6115    3.0921 N   0  0  0  0  0  0  0  0  0  0  0  0
   12.1721   23.6260    3.9725 C   0  0  2  0  0  0  0  0  0  0  0  0
   13.2289   22.5856    4.4750 C   0  0  0  0  0  0  0  0  0  0  0  0
   13.0403   21.8458    5.4401 O   0  0  0  0  0  0  0  0  0  0  0  0
   10.8940   22.9844    3.3732 C   0  0  0  0  0  0  0  0  0  0  0  0
   10.2164   21.9105    4.2592 C   0  0  1  0  0  0  0  0  0  0  0  0
   10.8726   20.5301    4.1490 C   0  0  0  0  0  0  0  0  0  0  0  0
   10.2500   22.3643    5.7243 C   0  0  0  0  0  0  0  0  0  0  0  0
   14.3715   22.5264    3.6993 N   0  0  0  0  0  0  0  0  0  0  0  0
   15.7210   22.8950    4.1292 C   0  0  2  0  0  0  0  0  0  0  0  0
   15.7888   22.9653    5.6687 C   0  0  0  0  0  0  0  0  0  0  0  0
   14.7965   22.9579    6.3909 O   0  0  0  0  0  0  0  0  0  0  0  0
   16.2966   24.1582    3.4672 C   0  0  0  0  0  0  0  0  0  0  0  0
   17.8159   24.1063    3.2346 C   0  0  0  0  0  0  0  0  0  0  0  0
   18.1586   23.8573    1.7645 C   0  0  0  0  0  0  0  0  0  0  0  0
   17.3522   22.7856    1.2150 N   0  0  0  0  0  0  0  0  0  0  0  0
   17.8814   21.6298    0.7659 C   0  0  0  0  0  0  0  0  0  0  0  0
   18.9536   21.0918    1.2113 N   0  0  0  0  0  0  0  0  0  0  0  0
   17.1295   21.0881   -0.2119 N   0  0  0  0  0  0  0  0  0  0  0  0
   17.0665   23.1614    6.1704 N   0  0  0  0  0  0  0  0  0  0  0  0
   17.3298   23.2626    7.6180 C   0  0  2  0  0  0  0  0  0  0  0  0
   17.6236   24.6862    8.1542 C   0  0  0  0  0  0  0  0  0  0  0  0
   16.7849   25.3438    8.7634 O   0  0  0  0  0  0  0  0  0  0  0  0
   18.5224   22.3782    7.9838 C   0  0  0  0  0  0  0  0  0  0  0  0
   18.8934   25.1404    7.8959 N   0  0  0  0  0  0  0  0  0  0  0  0
   19.3980   26.4472    8.3173 C   0  0  2  0  0  0  0  0  0  0  0  0
   18.2349   27.4598    8.4940 C   0  0  0  0  0  0  0  0  0  0  0  0
   18.1571   28.4845    7.8154 O   0  0  0  0  0  0  0  0  0  0  0  0
   20.3760   26.9131    7.2235 C   0  0  0  0  0  0  0  0  0  0  0  0
   21.3822   25.8572    6.7604 C   0  0  0  0  0  0  0  0  0  0  0  0
   21.6770   25.9487    5.2598 C   0  0  0  0  0  0  0  0  0  0  0  0
   20.8359   25.0540    4.4685 N   0  0  0  0  0  0  0  0  0  0  0  0
   20.0169   25.5237    3.4978 C   0  0  0  0  0  0  0  0  0  0  0  0
   19.9617   24.6730    2.4526 N   0  0  0  0  0  0  0  0  0  0  0  0
   19.3566   26.6190    3.5406 N   0  0  0  0  0  0  0  0  0  0  0  0
   17.1985   27.0265    9.2996 N   0  0  0  0  0  0  0  0  0  0  0  0
   16.7861   27.7472   10.5098 C   0  0  2  0  0  0  0  0  0  0  0  0
   15.5286   28.6062   10.2667 C   0  0  0  0  0  0  0  0  0  0  0  0
   15.4138   29.7548   10.6969 O   0  0  0  0  0  0  0  0  0  0  0  0
   17.9087   28.6670   10.9993 C   0  0  0  0  0  0  0  0  0  0  0  0
   17.8150   30.0229   10.3532 C   0  0  0  0  0  0  0  0  0  0  0  0
   18.6068   30.9375   10.5545 O   0  0  0  0  0  0  0  0  0  0  0  0
   16.7600   30.1798    9.5096 N   0  0  0  0  0  0  0  0  0  0  0  0
   14.6013   28.0500    9.4091 N   0  0  0  0  0  0  0  0  0  0  0  0
   13.7043   26.9825    9.8381 C   0  0  2  0  0  0  0  0  0  0  0  0
   13.2652   26.2210    8.5611 C   0  0  0  0  0  0  0  0  0  0  0  0
   13.6404   25.0624    8.3406 O   0  0  0  0  0  0  0  0  0  0  0  0
   12.5075   27.5703   10.6135 C   0  0  0  0  0  0  0  0  0  0  0  0
   11.1196   27.2172   10.0300 C   0  0  1  0  0  0  0  0  0  0  0  0
   10.7353   28.2388    8.9548 C   0  0  0  0  0  0  0  0  0  0  0  0
   11.0589   25.8048    9.4403 C   0  0  0  0  0  0  0  0  0  0  0  0
   12.3809   26.8550    7.7108 N   0  0  0  0  0  0  0  0  0  0  0  0
   11.6735   28.1228    7.9467 C   0  0  2  0  0  0  0  0  0  0  0  0
   10.5600   28.0041    9.0236 C   0  0  0  0  0  0  0  0  0  0  0  0
   10.3930   26.9651    9.6583 O   0  0  0  0  0  0  0  0  0  0  0  0
   11.0553   28.4799    6.5902 C   0  0  0  0  0  0  0  0  0  0  0  0
   11.8467   27.6457    5.5883 C   0  0  0  0  0  0  0  0  0  0  0  0
   12.1634   26.3795    6.3615 C   0  0  0  0  0  0  0  0  0  0  0  0
    9.7272   29.0932    9.2197 N   0  0  0  0  0  0  0  0  0  0  0  0
    8.6842   29.0107   10.2630 C   0  0  2  0  0  0  0  0  0  0  0  0
    7.4681   28.1244    9.9417 C   0  0  0  0  0  0  0  0  0  0  0  0
    7.3751   27.5186    8.8730 O   0  0  0  0  0  0  0  0  0  0  0  0
    8.1995   30.4569   10.4171 C   0  0  0  0  0  0  0  0  0  0  0  0
    9.4228   31.2788   10.0462 C   0  0  0  0  0  0  0  0  0  0  0  0
   10.0439   30.4775    8.9106 C   0  0  0  0  0  0  0  0  0  0  0  0
    6.6045   27.8888   10.9951 N   0  0  0  0  0  0  0  0  0  0  0  0
    5.4654   26.9814   10.8092 C   0  0  2  0  0  0  0  0  0  0  0  0
    4.2940   27.6233   10.0470 C   0  0  0  0  0  0  0  0  0  0  0  0
    3.2434   27.0221    9.8241 O   0  0  0  0  0  0  0  0  0  0  0  0
    4.9252   26.4641   12.1601 C   0  0  0  0  0  0  0  0  0  0  0  0
    5.8852   25.7118   12.9072 O   0  0  0  0  0  0  0  0  0  0  0  0
    4.5199   28.9116    9.5922 N   0  0  0  0  0  0  0  0  0  0  0  0
    3.4534   29.6943    8.9760 C   0  0  2  0  0  0  0  0  0  0  0  0
    3.5081   29.5220    7.4455 C   0  0  0  0  0  0  0  0  0  0  0  0
    4.2993   30.1465    6.7413 O   0  0  0  0  0  0  0  0  0  0  0  0
    3.5751   31.1994    9.3074 C   0  0  0  0  0  0  0  0  0  0  0  0
    3.3740   31.5491   10.7639 C   0  0  0  0  0  0  0  0  0  0  0  0
    3.1086   30.5485   11.7109 C   0  0  0  0  0  0  0  0  0  0  0  0
    3.4333   32.8830   11.1891 C   0  0  0  0  0  0  0  0  0  0  0  0
    2.9221   30.8750   13.0569 C   0  0  0  0  0  0  0  0  0  0  0  0
    3.2432   33.2084   12.5342 C   0  0  0  0  0  0  0  0  0  0  0  0
    2.9922   32.2046   13.4694 C   0  0  0  0  0  0  0  0  0  0  0  0
    2.5686   28.6511    6.9349 N   0  0  0  0  0  0  0  0  0  0  0  0
    2.1102   28.6998    5.5298 C   0  0  2  0  0  0  0  0  0  0  0  0
    0.6138   29.0975    5.4821 C   0  0  0  0  0  0  0  0  0  0  0  0
   -0.1162   29.0879    6.4735 O   0  0  0  0  0  0  0  0  0  0  0  0
    2.3342   27.3387    4.8537 C   0  0  0  0  0  0  0  0  0  0  0  0
    1.6199   26.1812    5.5099 C   0  0  0  0  0  0  0  0  0  0  0  0
    0.8119   26.3926    6.6389 C   0  0  0  0  0  0  0  0  0  0  0  0
    1.7688   24.8749    5.0192 C   0  0  0  0  0  0  0  0  0  0  0  0
    0.1860   25.3196    7.2726 C   0  0  0  0  0  0  0  0  0  0  0  0
    1.1337   23.8061    5.6534 C   0  0  0  0  0  0  0  0  0  0  0  0
    0.3479   24.0247    6.7835 C   0  0  0  0  0  0  0  0  0  0  0  0
    0.1506   29.3938    4.2104 N   0  0  0  0  0  0  0  0  0  0  0  0
   -1.0032   30.2772    4.0157 C   0  0  2  0  0  0  0  0  0  0  0  0
   -1.6101   29.8872    2.6472 C   0  0  0  0  0  0  0  0  0  0  0  0
   -2.7389   29.3956    2.5614 O   0  0  0  0  0  0  0  0  0  0  0  0
   -0.6164   31.7664    4.1156 C   0  0  2  0  0  0  0  0  0  0  0  0
   -1.7499   32.5837    3.7997 O   0  0  0  0  0  0  0  0  0  0  0  0
    0.5587   32.1718    3.2306 C   0  0  0  0  0  0  0  0  0  0  0  0
   -0.7888   30.1100    1.5659 N   0  0  0  0  0  0  0  0  0  0  0  0
   -1.2255   30.0123    0.1684 C   0  0  2  0  0  0  0  0  0  0  0  0
   -2.7874   29.9288    0.1530 C   0  0  0  0  0  0  0  0  0  0  0  0
   -3.3718   29.1814    0.9500 O   0  0  0  0  0  0  0  0  0  0  0  0
   -0.5192   28.9123   -0.6388 C   0  0  0  0  0  0  0  0  0  0  0  0
    0.8692   29.2907   -1.1672 C   0  0  0  0  0  0  0  0  0  0  0  0
    1.9834   28.9038   -0.2364 C   0  0  0  0  0  0  0  0  0  0  0  0
    3.1722   29.1158   -0.4043 O   0  0  0  0  0  0  0  0  0  0  0  0
    1.5453   28.3107    0.8919 O   0  0  0  0  0  0  0  0  0  0  0  0
   -3.5278   30.7109   -0.7116 N   0  0  0  0  0  0  0  0  0  0  0  0
   -4.9782   30.7524   -0.9437 C   0  0  2  0  0  0  0  0  0  0  0  0
   -5.6025   29.4774   -1.5355 C   0  0  0  0  0  0  0  0  0  0  0  0
   -6.8061   29.2463   -1.5972 O   0  0  0  0  0  0  0  0  0  0  0  0
   -5.1745   31.8979   -1.9558 C   0  0  0  0  0  0  0  0  0  0  0  0
   -3.9436   32.7697   -1.7717 C   0  0  0  0  0  0  0  0  0  0  0  0
   -2.8554   31.7571   -1.4739 C   0  0  0  0  0  0  0  0  0  0  0  0
   -4.7073   28.5564   -2.0079 N   0  0  0  0  0  0  0  0  0  0  0  0
   18.9365   20.0882    1.0183 H   0  0  0  0  0  0  0  0  0  0  0  0
   19.9786   27.3806    3.8186 H   0  0  0  0  0  0  0  0  0  0  0  0
  1  2  2  0
  1  3  1  0
  1  4  1  0
  5  4  1  1
  5  6  1  0
  5  8  1  0
  6  7  2  0
  6 11  1  0
  8  9  1  6
  8 10  1  0
 11 12  1  0
 11 17  1  0
 12 13  1  1
 12 15  1  0
 13 14  2  0
 13 18  1  0
 15 16  1  0
 16 17  1  0
 18 19  1  0
 19 20  1  0
 19 22  1  6
 20 21  2  0
 20 26  1  0
 22 23  1  0
 23 24  1  1
 23 25  1  0
 26 27  1  0
 27 28  1  0
 27 30  1  6
 28 29  2  0
 28 37  1  0
 30 31  1  0
 31 32  1  0
 32 33  1  0
 33 34  1  0
 34 35  2  0
 34 36  1  0
 37 38  1  0
 38 39  1  0
 38 41  1  6
 39 40  2  0
 39 42  1  0
 42 43  1  0
 43 44  1  0
 43 46  1  6
 44 45  2  0
 44 53  1  0
 46 47  1  0
 47 48  1  0
 48 49  1  0
 49 50  1  0
 50 51  1  0
 50 52  2  0
 53 54  1  0
 54 55  1  0
 54 57  1  6
 55 56  2  0
 55 61  1  0
 57 58  1  0
 58 59  2  0
 58 60  1  0
 61 62  1  0
 62 63  1  0
 62 65  1  6
 63 64  2  0
 63 69  1  0
 65 66  1  0
 66 67  1  6
 66 68  1  0
 69 70  1  0
 69 75  1  0
 70 71  1  1
 70 73  1  0
 71 72  2  0
 71 76  1  0
 73 74  1  0
 74 75  1  0
 76 77  1  0
 76 82  1  0
 77 78  1  6
 77 80  1  0
 78 79  2  0
 78 83  1  0
 80 81  1  0
 81 82  1  0
 83 84  1  0
 84 85  1  0
 84 87  1  1
 85 86  2  0
 85 89  1  0
 87 88  1  0
 89 90  1  0
 90 91  1  0
 90 93  1  6
 91 92  2  0
 91100  1  0
 93 94  1  0
 94 95  2  0
 94 96  1  0
 95 97  1  0
 96 98  2  0
 97 99  2  0
 98 99  1  0
100101  1  0
101102  1  0
101104  1  1
102103  2  0
102111  1  0
104105  1  0
105106  2  0
105107  1  0
106108  1  0
107109  2  0
108110  2  0
109110  1  0
112111  1  6
112113  1  0
112115  1  0
113114  2  0
113118  1  0
115116  1  0
115117  1  6
118119  1  0
119120  1  0
119122  1  1
120121  2  0
120127  1  0
122123  1  0
123124  1  0
124125  2  0
124126  1  0
127128  1  0
127133  1  0
128129  1  6
128131  1  0
129130  2  0
129134  1  0
131132  1  0
132133  1  0
 35135  1  0
 52136  1  0
M  END
$$$$
