
     RDKit          3D

136141  0  0  0  0  0  0  0  0999 V2000
    1.2568   24.6411   38.7022 C   0  0  0  0  0  0  0  0  0  0  0  0
    1.4408   24.1443   39.8081 O   0  0  0  0  0  0  0  0  0  0  0  0
    1.5042   26.1033   38.4312 C   0  0  0  0  0  0  0  0  0  0  0  0
    0.7727   23.9448   37.6143 N   0  0  0  0  0  0  0  0  0  0  0  0
    0.4339   22.5247   37.7547 C   0  0  2  0  0  0  0  0  0  0  0  0
    1.7667   21.7515   37.9371 C   0  0  0  0  0  0  0  0  0  0  0  0
    2.8404   22.2608   37.5945 O   0  0  0  0  0  0  0  0  0  0  0  0
   -0.3810   21.9812   36.5608 C   0  0  1  0  0  0  0  0  0  0  0  0
   -0.7313   20.5022   36.7677 C   0  0  0  0  0  0  0  0  0  0  0  0
   -1.6504   22.7847   36.2662 C   0  0  0  0  0  0  0  0  0  0  0  0
    1.7217   20.4683   38.4319 N   0  0  0  0  0  0  0  0  0  0  0  0
    2.9549   19.7035   38.6900 C   0  0  2  0  0  0  0  0  0  0  0  0
    3.5173   18.9430   37.4632 C   0  0  0  0  0  0  0  0  0  0  0  0
    3.7809   19.5176   36.3973 O   0  0  0  0  0  0  0  0  0  0  0  0
    2.5589   18.7621   39.8324 C   0  0  0  0  0  0  0  0  0  0  0  0
    1.0894   18.4850   39.5398 C   0  0  0  0  0  0  0  0  0  0  0  0
    0.5825   19.8509   39.0975 C   0  0  0  0  0  0  0  0  0  0  0  0
    3.5220   17.5757   37.5901 N   0  0  0  0  0  0  0  0  0  0  0  0
    4.4580   16.6969   36.8927 C   0  0  2  0  0  0  0  0  0  0  0  0
    4.2117   15.2016   37.2866 C   0  0  0  0  0  0  0  0  0  0  0  0
    4.4217   14.7585   38.4153 O   0  0  0  0  0  0  0  0  0  0  0  0
    5.9368   17.1452   37.0202 C   0  0  0  0  0  0  0  0  0  0  0  0
    6.9860   16.0221   36.8321 C   0  0  1  0  0  0  0  0  0  0  0  0
    7.5466   15.9472   35.4079 C   0  0  0  0  0  0  0  0  0  0  0  0
    8.1444   16.2381   37.8145 C   0  0  0  0  0  0  0  0  0  0  0  0
    3.6766   14.4337   36.2693 N   0  0  0  0  0  0  0  0  0  0  0  0
    3.3844   13.0014   36.3378 C   0  0  2  0  0  0  0  0  0  0  0  0
    3.8137   12.3072   35.0287 C   0  0  0  0  0  0  0  0  0  0  0  0
    3.4105   12.6450   33.9199 O   0  0  0  0  0  0  0  0  0  0  0  0
    1.9416   12.6458   36.7340 C   0  0  0  0  0  0  0  0  0  0  0  0
    0.9672   13.8345   36.6830 C   0  0  0  0  0  0  0  0  0  0  0  0
   -0.3440   13.5275   37.4093 C   0  0  0  0  0  0  0  0  0  0  0  0
   -0.9493   12.3122   36.9019 N   0  0  0  0  0  0  0  0  0  0  0  0
   -1.4992   11.3796   37.7052 C   0  0  0  0  0  0  0  0  0  0  0  0
   -2.7044   11.3998   38.1349 N   0  0  0  0  0  0  0  0  0  0  0  0
   -0.6237   10.3978   37.9955 N   0  0  0  0  0  0  0  0  0  0  0  0
    4.6044   11.1837   35.2170 N   0  0  0  0  0  0  0  0  0  0  0  0
    4.1355   10.0202   35.9925 C   0  0  2  0  0  0  0  0  0  0  0  0
    3.8814    8.7247   35.1818 C   0  0  0  0  0  0  0  0  0  0  0  0
    2.7572    8.3834   34.8260 O   0  0  0  0  0  0  0  0  0  0  0  0
    2.8333   10.3760   36.7110 C   0  0  0  0  0  0  0  0  0  0  0  0
    5.0133    8.0025   34.8941 N   0  0  0  0  0  0  0  0  0  0  0  0
    5.2254    7.2750   33.6428 C   0  0  2  0  0  0  0  0  0  0  0  0
    4.1411    6.1816   33.4468 C   0  0  0  0  0  0  0  0  0  0  0  0
    2.9613    6.4669   33.2393 O   0  0  0  0  0  0  0  0  0  0  0  0
    6.6302    6.6517   33.7307 C   0  0  0  0  0  0  0  0  0  0  0  0
    7.5363    7.2444   34.8121 C   0  0  0  0  0  0  0  0  0  0  0  0
    7.4360    6.4859   36.1395 C   0  0  0  0  0  0  0  0  0  0  0  0
    7.4572    7.3774   37.2966 N   0  0  0  0  0  0  0  0  0  0  0  0
    7.1177    6.9430   38.5334 C   0  0  0  0  0  0  0  0  0  0  0  0
    8.0740    7.2445   39.4355 N   0  0  0  0  0  0  0  0  0  0  0  0
    6.0344    6.3361   38.8426 N   0  0  0  0  0  0  0  0  0  0  0  0
    4.6257    4.8945   33.3079 N   0  0  0  0  0  0  0  0  0  0  0  0
    6.0614    4.5916   33.2757 C   0  0  2  0  0  0  0  0  0  0  0  0
    6.7538    5.2186   32.0486 C   0  0  0  0  0  0  0  0  0  0  0  0
    7.3138    6.3151   32.0884 O   0  0  0  0  0  0  0  0  0  0  0  0
    6.2929    3.0781   33.2363 C   0  0  0  0  0  0  0  0  0  0  0  0
    7.5730    2.7470   32.5178 C   0  0  0  0  0  0  0  0  0  0  0  0
    8.6082    2.4036   33.0785 O   0  0  0  0  0  0  0  0  0  0  0  0
    7.5120    2.8618   31.1641 N   0  0  0  0  0  0  0  0  0  0  0  0
    6.8283    4.3987   30.9409 N   0  0  0  0  0  0  0  0  0  0  0  0
    7.4814    4.8309   29.7101 C   0  0  2  0  0  0  0  0  0  0  0  0
    7.7722    6.3462   29.8612 C   0  0  0  0  0  0  0  0  0  0  0  0
    7.0348    7.0802   30.5315 O   0  0  0  0  0  0  0  0  0  0  0  0
    6.5852    4.5221   28.4933 C   0  0  0  0  0  0  0  0  0  0  0  0
    7.1507    4.9953   27.1340 C   0  0  1  0  0  0  0  0  0  0  0  0
    6.2604    4.4834   25.9969 C   0  0  0  0  0  0  0  0  0  0  0  0
    7.2815    6.5184   27.0367 C   0  0  0  0  0  0  0  0  0  0  0  0
    8.9246    6.8373   29.2800 N   0  0  0  0  0  0  0  0  0  0  0  0
   10.2515    6.9622   29.9024 C   0  0  2  0  0  0  0  0  0  0  0  0
   10.3127    8.0802   30.9794 C   0  0  0  0  0  0  0  0  0  0  0  0
    9.3493    8.3247   31.7021 O   0  0  0  0  0  0  0  0  0  0  0  0
   11.1938    7.2999   28.7415 C   0  0  0  0  0  0  0  0  0  0  0  0
   10.4201    6.8761   27.4975 C   0  0  0  0  0  0  0  0  0  0  0  0
    8.9772    7.1597   27.8704 C   0  0  0  0  0  0  0  0  0  0  0  0
   11.4747    8.8278   31.0743 N   0  0  0  0  0  0  0  0  0  0  0  0
   11.6177    9.7783   32.1964 C   0  0  2  0  0  0  0  0  0  0  0  0
   10.7822   11.0674   32.1078 C   0  0  0  0  0  0  0  0  0  0  0  0
   10.9306   11.9894   32.9113 O   0  0  0  0  0  0  0  0  0  0  0  0
   13.1015   10.1627   32.1692 C   0  0  0  0  0  0  0  0  0  0  0  0
   13.7728    8.9309   31.5846 C   0  0  0  0  0  0  0  0  0  0  0  0
   12.7738    8.4595   30.5372 C   0  0  0  0  0  0  0  0  0  0  0  0
   10.0182   11.2078   30.9643 N   0  0  0  0  0  0  0  0  0  0  0  0
   10.3034   12.3060   30.0326 C   0  0  2  0  0  0  0  0  0  0  0  0
    9.1126   13.2581   29.8312 C   0  0  0  0  0  0  0  0  0  0  0  0
    9.1672   14.2340   29.0833 O   0  0  0  0  0  0  0  0  0  0  0  0
   10.7278   11.7777   28.6451 C   0  0  0  0  0  0  0  0  0  0  0  0
   11.5752   10.6273   28.7082 O   0  0  0  0  0  0  0  0  0  0  0  0
    7.9872   12.9642   30.5828 N   0  0  0  0  0  0  0  0  0  0  0  0
    6.8200   12.3283   29.9804 C   0  0  2  0  0  0  0  0  0  0  0  0
    5.9169   11.7553   31.0901 C   0  0  0  0  0  0  0  0  0  0  0  0
    6.0074   10.5915   31.4762 O   0  0  0  0  0  0  0  0  0  0  0  0
    7.2161   11.1793   29.0249 C   0  0  0  0  0  0  0  0  0  0  0  0
    6.0545   10.4224   28.4233 C   0  0  0  0  0  0  0  0  0  0  0  0
    4.7507   10.6086   28.9066 C   0  0  0  0  0  0  0  0  0  0  0  0
    6.2649    9.5083   27.3822 C   0  0  0  0  0  0  0  0  0  0  0  0
    3.6786    9.9066   28.3490 C   0  0  0  0  0  0  0  0  0  0  0  0
    5.1930    8.8045   26.8280 C   0  0  0  0  0  0  0  0  0  0  0  0
    3.8990    9.0065   27.3077 C   0  0  0  0  0  0  0  0  0  0  0  0
    4.9753   12.6396   31.5734 N   0  0  0  0  0  0  0  0  0  0  0  0
    4.6730   12.7808   33.0140 C   0  0  2  0  0  0  0  0  0  0  0  0
    3.5690   13.8489   33.2137 C   0  0  0  0  0  0  0  0  0  0  0  0
    3.8136   15.0343   33.4393 O   0  0  0  0  0  0  0  0  0  0  0  0
    5.9456   13.1614   33.7858 C   0  0  0  0  0  0  0  0  0  0  0  0
    6.7790   14.2414   33.1383 C   0  0  0  0  0  0  0  0  0  0  0  0
    6.1867   15.1692   32.2660 C   0  0  0  0  0  0  0  0  0  0  0  0
    8.1594   14.3227   33.3772 C   0  0  0  0  0  0  0  0  0  0  0  0
    6.9617   16.1406   31.6331 C   0  0  0  0  0  0  0  0  0  0  0  0
    8.9284   15.3020   32.7465 C   0  0  0  0  0  0  0  0  0  0  0  0
    8.3335   16.2071   31.8694 C   0  0  0  0  0  0  0  0  0  0  0  0
    2.2812   13.3383   33.1897 N   0  0  0  0  0  0  0  0  0  0  0  0
    1.1190   14.2288   33.1129 C   0  0  2  0  0  0  0  0  0  0  0  0
    1.5880   15.4710   32.3190 C   0  0  0  0  0  0  0  0  0  0  0  0
    2.7334   15.5497   31.8662 O   0  0  0  0  0  0  0  0  0  0  0  0
    0.5544   14.5664   34.5072 C   0  0  2  0  0  0  0  0  0  0  0  0
    1.2721   13.8374   35.5103 O   0  0  0  0  0  0  0  0  0  0  0  0
   -0.9398   14.2983   34.6626 C   0  0  0  0  0  0  0  0  0  0  0  0
    0.6440   16.4636   32.1881 N   0  0  0  0  0  0  0  0  0  0  0  0
    0.1063   16.9217   30.9020 C   0  0  2  0  0  0  0  0  0  0  0  0
   -1.1727   17.7758   31.1873 C   0  0  0  0  0  0  0  0  0  0  0  0
   -2.1878   17.2307   31.6431 O   0  0  0  0  0  0  0  0  0  0  0  0
   -0.0897   15.8049   29.8653 C   0  0  0  0  0  0  0  0  0  0  0  0
   -0.8648   14.5832   30.3720 C   0  0  0  0  0  0  0  0  0  0  0  0
   -1.9804   14.1671   29.4555 C   0  0  0  0  0  0  0  0  0  0  0  0
   -1.8700   13.8297   28.2892 O   0  0  0  0  0  0  0  0  0  0  0  0
   -3.1823   14.1452   30.0649 O   0  0  0  0  0  0  0  0  0  0  0  0
   -1.1717   19.1407   30.9766 N   0  0  0  0  0  0  0  0  0  0  0  0
   -2.1446   20.1624   31.3876 C   0  0  2  0  0  0  0  0  0  0  0  0
   -3.5450   20.0497   30.7617 C   0  0  0  0  0  0  0  0  0  0  0  0
   -3.7703   19.8126   29.5789 O   0  0  0  0  0  0  0  0  0  0  0  0
   -1.5203   21.4956   30.9316 C   0  0  0  0  0  0  0  0  0  0  0  0
   -0.0337   21.1952   30.8373 C   0  0  0  0  0  0  0  0  0  0  0  0
   -0.0105   19.7606   30.3481 C   0  0  0  0  0  0  0  0  0  0  0  0
   -4.5867   20.2457   31.6272 N   0  0  0  0  0  0  0  0  0  0  0  0
   -2.7043   11.5846   39.1402 H   0  0  0  0  0  0  0  0  0  0  0  0
    5.3778    6.3931   38.0617 H   0  0  0  0  0  0  0  0  0  0  0  0
  1  2  2  0
  1  3  1  0
  1  4  1  0
  5  4  1  6
  5  6  1  0
  5  8  1  0
  6  7  2  0
  6 11  1  0
  8  9  1  1
  8 10  1  0
 11 12  1  0
 11 17  1  0
 12 13  1  6
 12 15  1  0
 13 14  2  0
 13 18  1  0
 15 16  1  0
 16 17  1  0
 18 19  1  0
 19 20  1  0
 19 22  1  1
 20 21  2  0
 20 26  1  0
 22 23  1  0
 23 24  1  6
 23 25  1  0
 26 27  1  0
 27 28  1  0
 27 30  1  6
 28 29  2  0
 28 37  1  0
 30 31  1  0
 31 32  1  0
 32 33  1  0
 33 34  1  0
 34 35  2  0
 34 36  1  0
 37 38  1  0
 38 39  1  0
 38 41  1  6
 39 40  2  0
 39 42  1  0
 42 43  1  0
 43 44  1  0
 43 46  1  1
 44 45  2  0
 44 53  1  0
 46 47  1  0
 47 48  1  0
 48 49  1  0
 49 50  1  0
 50 51  1  0
 50 52  2  0
 53 54  1  0
 54 55  1  0
 54 57  1  6
 55 56  2  0
 55 61  1  0
 57 58  1  0
 58 59  2  0
 58 60  1  0
 61 62  1  0
 62 63  1  0
 62 65  1  6
 63 64  2  0
 63 69  1  0
 65 66  1  0
 66 67  1  6
 66 68  1  0
 69 70  1  0
 69 75  1  0
 70 71  1  1
 70 73  1  0
 71 72  2  0
 71 76  1  0
 73 74  1  0
 74 75  1  0
 76 77  1  0
 76 82  1  0
 77 78  1  6
 77 80  1  0
 78 79  2  0
 78 83  1  0
 80 81  1  0
 81 82  1  0
 83 84  1  0
 84 85  1  0
 84 87  1  6
 85 86  2  0
 85 89  1  0
 87 88  1  0
 89 90  1  0
 90 91  1  0
 90 93  1  6
 91 92  2  0
 91100  1  0
 93 94  1  0
 94 95  2  0
 94 96  1  0
 95 97  1  0
 96 98  2  0
 97 99  2  0
 98 99  1  0
100101  1  0
101102  1  0
101104  1  1
102103  2  0
102111  1  0
104105  1  0
105106  2  0
105107  1  0
106108  1  0
107109  2  0
108110  2  0
109110  1  0
112111  1  1
112113  1  0
112115  1  0
113114  2  0
113118  1  0
115116  1  0
115117  1  6
118119  1  0
119120  1  0
119122  1  6
120121  2  0
120127  1  0
122123  1  0
123124  1  0
124125  2  0
124126  1  0
127128  1  0
127133  1  0
128129  1  6
128131  1  0
129130  2  0
129134  1  0
131132  1  0
132133  1  0
 35135  1  0
 52136  1  0
M  END
$$$$
