
     RDKit          3D

136141  0  0  0  0  0  0  0  0999 V2000
    7.1305   12.4194   36.1761 C   0  0  0  0  0  0  0  0  0  0  0  0
    8.2124   12.4810   35.6023 O   0  0  0  0  0  0  0  0  0  0  0  0
    6.8307   11.3599   37.2058 C   0  0  0  0  0  0  0  0  0  0  0  0
    6.0722   13.2664   35.9208 N   0  0  0  0  0  0  0  0  0  0  0  0
    5.5006   14.0619   37.0125 C   0  0  2  0  0  0  0  0  0  0  0  0
    4.3897   14.9532   36.3970 C   0  0  0  0  0  0  0  0  0  0  0  0
    4.6557   16.0828   35.9693 O   0  0  0  0  0  0  0  0  0  0  0  0
    6.5581   14.9039   37.7590 C   0  0  1  0  0  0  0  0  0  0  0  0
    7.4675   15.6411   36.7677 C   0  0  0  0  0  0  0  0  0  0  0  0
    5.9596   15.8963   38.7594 C   0  0  0  0  0  0  0  0  0  0  0  0
    3.0961   14.4844   36.3914 N   0  0  0  0  0  0  0  0  0  0  0  0
    2.3127   14.4131   35.1450 C   0  0  2  0  0  0  0  0  0  0  0  0
    1.5747   15.7210   34.7652 C   0  0  0  0  0  0  0  0  0  0  0  0
    1.2692   16.5734   35.6113 O   0  0  0  0  0  0  0  0  0  0  0  0
    1.3497   13.2476   35.3945 C   0  0  0  0  0  0  0  0  0  0  0  0
    1.0946   13.3428   36.8937 C   0  0  0  0  0  0  0  0  0  0  0  0
    2.4755   13.6828   37.4376 C   0  0  0  0  0  0  0  0  0  0  0  0
    1.1287   15.7704   33.4674 N   0  0  0  0  0  0  0  0  0  0  0  0
    1.9366   15.3814   32.3139 C   0  0  2  0  0  0  0  0  0  0  0  0
    1.4762   16.1513   31.0306 C   0  0  0  0  0  0  0  0  0  0  0  0
    2.1557   16.2223   30.0070 O   0  0  0  0  0  0  0  0  0  0  0  0
    2.0400   13.8461   32.1227 C   0  0  0  0  0  0  0  0  0  0  0  0
    2.9287   13.3861   30.9411 C   0  0  1  0  0  0  0  0  0  0  0  0
    2.9960   14.4056   29.7991 C   0  0  0  0  0  0  0  0  0  0  0  0
    4.3496   13.1111   31.4501 C   0  0  0  0  0  0  0  0  0  0  0  0
    0.2083   16.6938   31.1256 N   0  0  0  0  0  0  0  0  0  0  0  0
   -0.6627   17.0421   30.0024 C   0  0  2  0  0  0  0  0  0  0  0  0
   -0.9554   18.5567   30.0053 C   0  0  0  0  0  0  0  0  0  0  0  0
   -1.6898   19.1056   29.1895 O   0  0  0  0  0  0  0  0  0  0  0  0
   -1.9481   16.2055   29.8868 C   0  0  0  0  0  0  0  0  0  0  0  0
   -1.7409   14.7019   30.1342 C   0  0  0  0  0  0  0  0  0  0  0  0
   -2.1907   13.8608   28.9380 C   0  0  0  0  0  0  0  0  0  0  0  0
   -1.7604   12.4837   29.0771 N   0  0  0  0  0  0  0  0  0  0  0  0
   -1.8711   11.7970   30.2320 C   0  0  0  0  0  0  0  0  0  0  0  0
   -1.2983   10.6797   30.4791 N   0  0  0  0  0  0  0  0  0  0  0  0
   -2.6548   12.4417   31.1181 N   0  0  0  0  0  0  0  0  0  0  0  0
   -0.2202   19.2733   30.9374 N   0  0  0  0  0  0  0  0  0  0  0  0
   -0.5651   20.6591   31.3055 C   0  0  2  0  0  0  0  0  0  0  0  0
    0.3781   21.7594   30.7577 C   0  0  0  0  0  0  0  0  0  0  0  0
    0.0100   22.5852   29.9273 O   0  0  0  0  0  0  0  0  0  0  0  0
   -0.5910   20.7921   32.8286 C   0  0  0  0  0  0  0  0  0  0  0  0
    1.6470   21.7334   31.2817 N   0  0  0  0  0  0  0  0  0  0  0  0
    2.5239   22.9015   31.3640 C   0  0  2  0  0  0  0  0  0  0  0  0
    3.2177   23.1707   30.0018 C   0  0  0  0  0  0  0  0  0  0  0  0
    4.4367   23.3206   29.9123 O   0  0  0  0  0  0  0  0  0  0  0  0
    3.5591   22.5962   32.4616 C   0  0  0  0  0  0  0  0  0  0  0  0
    3.4886   21.1830   33.0448 C   0  0  0  0  0  0  0  0  0  0  0  0
    3.9598   21.1273   34.5015 C   0  0  0  0  0  0  0  0  0  0  0  0
    3.9459   19.7705   35.0428 N   0  0  0  0  0  0  0  0  0  0  0  0
    5.0768   19.1716   35.4856 C   0  0  0  0  0  0  0  0  0  0  0  0
    5.6026   19.8374   36.5341 N   0  0  0  0  0  0  0  0  0  0  0  0
    5.5972   18.1061   35.0047 N   0  0  0  0  0  0  0  0  0  0  0  0
    2.4087   23.0157   28.8917 N   0  0  0  0  0  0  0  0  0  0  0  0
    2.8669   23.3261   27.5325 C   0  0  2  0  0  0  0  0  0  0  0  0
    3.4276   24.7589   27.4281 C   0  0  0  0  0  0  0  0  0  0  0  0
    2.7434   25.7593   27.6485 O   0  0  0  0  0  0  0  0  0  0  0  0
    1.7172   23.1862   26.5302 C   0  0  0  0  0  0  0  0  0  0  0  0
    1.0324   21.8543   26.6778 C   0  0  0  0  0  0  0  0  0  0  0  0
    0.2005   21.6001   27.5422 O   0  0  0  0  0  0  0  0  0  0  0  0
    1.4096   20.9165   25.7680 N   0  0  0  0  0  0  0  0  0  0  0  0
    4.7888   24.8364   27.2128 N   0  0  0  0  0  0  0  0  0  0  0  0
    5.6547   23.6710   27.3552 C   0  0  2  0  0  0  0  0  0  0  0  0
    6.7048   23.7469   26.2173 C   0  0  0  0  0  0  0  0  0  0  0  0
    7.7424   23.0730   26.2520 O   0  0  0  0  0  0  0  0  0  0  0  0
    4.8194   22.3755   27.2998 C   0  0  0  0  0  0  0  0  0  0  0  0
    5.6235   21.0746   27.5289 C   0  0  1  0  0  0  0  0  0  0  0  0
    6.0035   20.9551   29.0084 C   0  0  0  0  0  0  0  0  0  0  0  0
    4.8666   19.8169   27.0909 C   0  0  0  0  0  0  0  0  0  0  0  0
    6.4091   24.5397   25.1260 N   0  0  0  0  0  0  0  0  0  0  0  0
    6.3829   24.1340   23.7124 C   0  0  2  0  0  0  0  0  0  0  0  0
    7.7986   23.8588   23.1347 C   0  0  0  0  0  0  0  0  0  0  0  0
    8.7873   24.4559   23.5546 O   0  0  0  0  0  0  0  0  0  0  0  0
    5.7390   25.3175   22.9814 C   0  0  0  0  0  0  0  0  0  0  0  0
    5.0249   26.0929   24.0835 C   0  0  0  0  0  0  0  0  0  0  0  0
    5.9233   25.8929   25.2894 C   0  0  0  0  0  0  0  0  0  0  0  0
    7.9110   22.9484   22.0970 N   0  0  0  0  0  0  0  0  0  0  0  0
    9.2568   22.6209   21.5825 C   0  0  2  0  0  0  0  0  0  0  0  0
    9.9393   23.7004   20.7244 C   0  0  0  0  0  0  0  0  0  0  0  0
   11.1070   24.0397   20.9223 O   0  0  0  0  0  0  0  0  0  0  0  0
    9.0276   21.3831   20.7076 C   0  0  0  0  0  0  0  0  0  0  0  0
    7.8256   20.7141   21.3536 C   0  0  0  0  0  0  0  0  0  0  0  0
    6.9629   21.8939   21.7791 C   0  0  0  0  0  0  0  0  0  0  0  0
    9.2384   24.1056   19.6039 N   0  0  0  0  0  0  0  0  0  0  0  0
    9.7631   25.1995   18.7772 C   0  0  2  0  0  0  0  0  0  0  0  0
    8.7800   25.6671   17.6909 C   0  0  0  0  0  0  0  0  0  0  0  0
    8.0265   24.8905   17.1045 O   0  0  0  0  0  0  0  0  0  0  0  0
   11.0838   24.8029   18.0822 C   0  0  0  0  0  0  0  0  0  0  0  0
   11.5066   25.7380   17.0860 O   0  0  0  0  0  0  0  0  0  0  0  0
    8.8314   27.0176   17.3889 N   0  0  0  0  0  0  0  0  0  0  0  0
    7.8786   27.6228   16.4639 C   0  0  2  0  0  0  0  0  0  0  0  0
    8.5310   27.7661   15.0750 C   0  0  0  0  0  0  0  0  0  0  0  0
    7.8707   27.7985   14.0384 O   0  0  0  0  0  0  0  0  0  0  0  0
    7.4190   29.0203   16.9391 C   0  0  0  0  0  0  0  0  0  0  0  0
    6.5446   29.7699   15.9606 C   0  0  0  0  0  0  0  0  0  0  0  0
    7.0892   30.7522   15.1199 C   0  0  0  0  0  0  0  0  0  0  0  0
    5.1700   29.5064   15.8895 C   0  0  0  0  0  0  0  0  0  0  0  0
    6.2779   31.4444   14.2166 C   0  0  0  0  0  0  0  0  0  0  0  0
    4.3596   30.2015   14.9889 C   0  0  0  0  0  0  0  0  0  0  0  0
    4.9136   31.1674   14.1488 C   0  0  0  0  0  0  0  0  0  0  0  0
    9.9095   27.8053   15.0929 N   0  0  0  0  0  0  0  0  0  0  0  0
   10.7235   27.9484   13.8667 C   0  0  2  0  0  0  0  0  0  0  0  0
   12.2249   28.0174   14.2416 C   0  0  0  0  0  0  0  0  0  0  0  0
   12.6330   27.9330   15.4002 O   0  0  0  0  0  0  0  0  0  0  0  0
   10.2967   29.2051   13.0930 C   0  0  0  0  0  0  0  0  0  0  0  0
   11.4082   29.8873   12.3317 C   0  0  0  0  0  0  0  0  0  0  0  0
   12.2614   30.7946   12.9807 C   0  0  0  0  0  0  0  0  0  0  0  0
   11.5931   29.6457   10.9618 C   0  0  0  0  0  0  0  0  0  0  0  0
   13.2610   31.4586   12.2704 C   0  0  0  0  0  0  0  0  0  0  0  0
   12.6002   30.3077   10.2580 C   0  0  0  0  0  0  0  0  0  0  0  0
   13.4305   31.2191   10.9080 C   0  0  0  0  0  0  0  0  0  0  0  0
   13.0633   28.2570   13.1649 N   0  0  0  0  0  0  0  0  0  0  0  0
   14.1553   27.3342   12.8403 C   0  0  2  0  0  0  0  0  0  0  0  0
   13.7032   25.9456   13.3507 C   0  0  0  0  0  0  0  0  0  0  0  0
   12.8304   25.8317   14.2158 O   0  0  0  0  0  0  0  0  0  0  0  0
   15.5016   27.7988   13.4308 C   0  0  2  0  0  0  0  0  0  0  0  0
   15.2678   28.6888   14.5289 O   0  0  0  0  0  0  0  0  0  0  0  0
   16.4303   28.4731   12.4253 C   0  0  0  0  0  0  0  0  0  0  0  0
   14.3627   24.8787   12.7845 N   0  0  0  0  0  0  0  0  0  0  0  0
   14.3602   23.5215   13.3423 C   0  0  2  0  0  0  0  0  0  0  0  0
   15.3185   22.6393   12.4762 C   0  0  0  0  0  0  0  0  0  0  0  0
   15.8372   23.1133   11.4555 O   0  0  0  0  0  0  0  0  0  0  0  0
   12.9591   22.9267   13.5511 C   0  0  0  0  0  0  0  0  0  0  0  0
   11.8281   23.9574   13.6438 C   0  0  0  0  0  0  0  0  0  0  0  0
   10.6742   23.6549   12.7302 C   0  0  0  0  0  0  0  0  0  0  0  0
    9.5352   23.3833   13.0698 O   0  0  0  0  0  0  0  0  0  0  0  0
   10.9944   23.7584   11.4251 O   0  0  0  0  0  0  0  0  0  0  0  0
   15.6281   21.3487   12.8581 N   0  0  0  0  0  0  0  0  0  0  0  0
   16.5012   20.3557   12.2170 C   0  0  2  0  0  0  0  0  0  0  0  0
   16.0515   19.8565   10.8334 C   0  0  0  0  0  0  0  0  0  0  0  0
   14.8921   19.6082   10.5175 O   0  0  0  0  0  0  0  0  0  0  0  0
   16.4978   19.1565   13.1849 C   0  0  0  0  0  0  0  0  0  0  0  0
   16.1210   19.7641   14.5258 C   0  0  0  0  0  0  0  0  0  0  0  0
   15.1378   20.8510   14.1386 C   0  0  0  0  0  0  0  0  0  0  0  0
   17.0577   19.6824    9.9223 N   0  0  0  0  0  0  0  0  0  0  0  0
   -1.7258    9.9451   29.9114 H   0  0  0  0  0  0  0  0  0  0  0  0
    5.7448   18.2229   34.0003 H   0  0  0  0  0  0  0  0  0  0  0  0
  1  2  2  0
  1  3  1  0
  1  4  1  0
  5  4  1  6
  5  6  1  0
  5  8  1  0
  6  7  2  0
  6 11  1  0
  8  9  1  6
  8 10  1  0
 11 12  1  0
 11 17  1  0
 12 13  1  1
 12 15  1  0
 13 14  2  0
 13 18  1  0
 15 16  1  0
 16 17  1  0
 18 19  1  0
 19 20  1  0
 19 22  1  6
 20 21  2  0
 20 26  1  0
 22 23  1  0
 23 24  1  6
 23 25  1  0
 26 27  1  0
 27 28  1  0
 27 30  1  1
 28 29  2  0
 28 37  1  0
 30 31  1  0
 31 32  1  0
 32 33  1  0
 33 34  1  0
 34 35  2  0
 34 36  1  0
 37 38  1  0
 38 39  1  0
 38 41  1  1
 39 40  2  0
 39 42  1  0
 42 43  1  0
 43 44  1  0
 43 46  1  1
 44 45  2  0
 44 53  1  0
 46 47  1  0
 47 48  1  0
 48 49  1  0
 49 50  1  0
 50 51  1  0
 50 52  2  0
 53 54  1  0
 54 55  1  0
 54 57  1  6
 55 56  2  0
 55 61  1  0
 57 58  1  0
 58 59  2  0
 58 60  1  0
 61 62  1  0
 62 63  1  0
 62 65  1  6
 63 64  2  0
 63 69  1  0
 65 66  1  0
 66 67  1  1
 66 68  1  0
 69 70  1  0
 69 75  1  0
 70 71  1  6
 70 73  1  0
 71 72  2  0
 71 76  1  0
 73 74  1  0
 74 75  1  0
 76 77  1  0
 76 82  1  0
 77 78  1  6
 77 80  1  0
 78 79  2  0
 78 83  1  0
 80 81  1  0
 81 82  1  0
 83 84  1  0
 84 85  1  0
 84 87  1  6
 85 86  2  0
 85 89  1  0
 87 88  1  0
 89 90  1  0
 90 91  1  0
 90 93  1  1
 91 92  2  0
 91100  1  0
 93 94  1  0
 94 95  2  0
 94 96  1  0
 95 97  1  0
 96 98  2  0
 97 99  2  0
 98 99  1  0
100101  1  0
101102  1  0
101104  1  1
102103  2  0
102111  1  0
104105  1  0
105106  2  0
105107  1  0
106108  1  0
107109  2  0
108110  2  0
109110  1  0
112111  1  1
112113  1  0
112115  1  0
113114  2  0
113118  1  0
115116  1  0
115117  1  6
118119  1  0
119120  1  0
119122  1  6
120121  2  0
120127  1  0
122123  1  0
123124  1  0
124125  2  0
124126  1  0
127128  1  0
127133  1  0
128129  1  6
128131  1  0
129130  2  0
129134  1  0
131132  1  0
132133  1  0
 35135  1  0
 52136  1  0
M  END
$$$$
