
     RDKit          3D

136141  0  0  0  0  0  0  0  0999 V2000
   19.5709    9.8038   36.1564 C   0  0  0  0  0  0  0  0  0  0  0  0
   20.6198    9.9564   36.7729 O   0  0  0  0  0  0  0  0  0  0  0  0
   19.1594   10.7265   35.0376 C   0  0  0  0  0  0  0  0  0  0  0  0
   18.6472    8.8186   36.4372 N   0  0  0  0  0  0  0  0  0  0  0  0
   17.4473    8.6909   35.6034 C   0  0  2  0  0  0  0  0  0  0  0  0
   16.5967    9.9694   35.8255 C   0  0  0  0  0  0  0  0  0  0  0  0
   16.6709   10.5963   36.8891 O   0  0  0  0  0  0  0  0  0  0  0  0
   16.6398    7.4098   35.9059 C   0  0  1  0  0  0  0  0  0  0  0  0
   16.0985    6.7880   34.6124 C   0  0  0  0  0  0  0  0  0  0  0  0
   17.4228    6.3633   36.7033 C   0  0  0  0  0  0  0  0  0  0  0  0
   15.7175   10.3554   34.8400 N   0  0  0  0  0  0  0  0  0  0  0  0
   15.3743   11.7737   34.6325 C   0  0  2  0  0  0  0  0  0  0  0  0
   14.2193   12.2999   35.5205 C   0  0  0  0  0  0  0  0  0  0  0  0
   14.3922   13.1897   36.3655 O   0  0  0  0  0  0  0  0  0  0  0  0
   15.0448   11.8465   33.1378 C   0  0  0  0  0  0  0  0  0  0  0  0
   14.4339   10.4774   32.8655 C   0  0  0  0  0  0  0  0  0  0  0  0
   15.3228    9.5550   33.6886 C   0  0  0  0  0  0  0  0  0  0  0  0
   13.0527   11.5816   35.4272 N   0  0  0  0  0  0  0  0  0  0  0  0
   11.8366   11.9044   36.1701 C   0  0  2  0  0  0  0  0  0  0  0  0
   11.5390   13.4402   36.1045 C   0  0  0  0  0  0  0  0  0  0  0  0
   11.6652   14.1930   37.0698 O   0  0  0  0  0  0  0  0  0  0  0  0
   11.8183   11.3212   37.6067 C   0  0  0  0  0  0  0  0  0  0  0  0
   10.4584   11.4166   38.3409 C   0  0  1  0  0  0  0  0  0  0  0  0
   10.3942   10.5649   39.6131 C   0  0  0  0  0  0  0  0  0  0  0  0
   10.1781   12.8804   38.7048 C   0  0  0  0  0  0  0  0  0  0  0  0
   11.1809   13.8897   34.8474 N   0  0  0  0  0  0  0  0  0  0  0  0
   10.0837   13.3701   34.0302 C   0  0  2  0  0  0  0  0  0  0  0  0
    8.7351   13.5943   34.7449 C   0  0  0  0  0  0  0  0  0  0  0  0
    7.7693   12.8480   34.6173 O   0  0  0  0  0  0  0  0  0  0  0  0
   10.2518   11.9166   33.5564 C   0  0  0  0  0  0  0  0  0  0  0  0
    9.8478   11.6851   32.0907 C   0  0  0  0  0  0  0  0  0  0  0  0
   10.2848   12.8421   31.1901 C   0  0  0  0  0  0  0  0  0  0  0  0
   11.3666   12.4407   30.3129 N   0  0  0  0  0  0  0  0  0  0  0  0
   11.8208   13.2187   29.3100 C   0  0  0  0  0  0  0  0  0  0  0  0
   12.4745   12.7981   28.2935 N   0  0  0  0  0  0  0  0  0  0  0  0
   11.4872   14.5106   29.4957 N   0  0  0  0  0  0  0  0  0  0  0  0
    8.6614   14.7836   35.4541 N   0  0  0  0  0  0  0  0  0  0  0  0
    7.8269   15.9121   35.0014 C   0  0  2  0  0  0  0  0  0  0  0  0
    6.3500   15.5742   34.6776 C   0  0  0  0  0  0  0  0  0  0  0  0
    5.5611   15.1914   35.5368 O   0  0  0  0  0  0  0  0  0  0  0  0
    8.4426   16.5319   33.7463 C   0  0  0  0  0  0  0  0  0  0  0  0
    6.0032   15.7446   33.3600 N   0  0  0  0  0  0  0  0  0  0  0  0
    4.6238   15.8138   32.8779 C   0  0  2  0  0  0  0  0  0  0  0  0
    3.6230   15.8465   34.0640 C   0  0  0  0  0  0  0  0  0  0  0  0
    2.7541   14.9853   34.2045 O   0  0  0  0  0  0  0  0  0  0  0  0
    4.4026   14.5677   32.0014 C   0  0  0  0  0  0  0  0  0  0  0  0
    5.5447   14.2426   31.0361 C   0  0  0  0  0  0  0  0  0  0  0  0
    5.2650   12.9897   30.2000 C   0  0  0  0  0  0  0  0  0  0  0  0
    4.2274   13.2075   29.1949 N   0  0  0  0  0  0  0  0  0  0  0  0
    4.4598   12.9959   27.8777 C   0  0  0  0  0  0  0  0  0  0  0  0
    5.7799   13.0333   27.6035 N   0  0  0  0  0  0  0  0  0  0  0  0
    3.5689   12.7728   26.9867 N   0  0  0  0  0  0  0  0  0  0  0  0
    3.9127   16.7717   35.0493 N   0  0  0  0  0  0  0  0  0  0  0  0
    2.8686   17.4426   35.8326 C   0  0  2  0  0  0  0  0  0  0  0  0
    1.7833   16.4557   36.3084 C   0  0  0  0  0  0  0  0  0  0  0  0
    1.5816   16.2112   37.4988 O   0  0  0  0  0  0  0  0  0  0  0  0
    2.1913   18.5378   35.0033 C   0  0  0  0  0  0  0  0  0  0  0  0
    1.2188   19.3242   35.8401 C   0  0  0  0  0  0  0  0  0  0  0  0
    1.0135   19.1194   37.0317 O   0  0  0  0  0  0  0  0  0  0  0  0
    0.5544   20.3041   35.1709 N   0  0  0  0  0  0  0  0  0  0  0  0
    0.9564   15.9764   35.3126 N   0  0  0  0  0  0  0  0  0  0  0  0
    1.2870   14.7747   34.5544 C   0  0  2  0  0  0  0  0  0  0  0  0
    0.1194   14.5298   33.5644 C   0  0  0  0  0  0  0  0  0  0  0  0
    0.0997   13.5384   32.8238 O   0  0  0  0  0  0  0  0  0  0  0  0
    1.5076   13.5843   35.5102 C   0  0  0  0  0  0  0  0  0  0  0  0
    2.4407   12.4783   34.9647 C   0  0  1  0  0  0  0  0  0  0  0  0
    2.2509   12.3416   33.4505 C   0  0  0  0  0  0  0  0  0  0  0  0
    3.9188   12.7340   35.2751 C   0  0  0  0  0  0  0  0  0  0  0  0
   -0.9361   15.4199   33.5877 N   0  0  0  0  0  0  0  0  0  0  0  0
   -2.2995   15.1969   33.0829 C   0  0  2  0  0  0  0  0  0  0  0  0
   -2.3706   15.1460   31.5318 C   0  0  0  0  0  0  0  0  0  0  0  0
   -2.5974   14.0950   30.9366 O   0  0  0  0  0  0  0  0  0  0  0  0
   -3.1066   16.3904   33.6062 C   0  0  0  0  0  0  0  0  0  0  0  0
   -2.2602   16.9408   34.7491 C   0  0  0  0  0  0  0  0  0  0  0  0
   -0.8386   16.6835   34.2861 C   0  0  0  0  0  0  0  0  0  0  0  0
   -2.1268   16.3158   30.8316 N   0  0  0  0  0  0  0  0  0  0  0  0
   -3.2772   17.1204   30.3707 C   0  0  2  0  0  0  0  0  0  0  0  0
   -4.0675   16.5572   29.1766 C   0  0  0  0  0  0  0  0  0  0  0  0
   -4.9256   15.6855   29.3238 O   0  0  0  0  0  0  0  0  0  0  0  0
   -2.6506   18.4542   29.9481 C   0  0  0  0  0  0  0  0  0  0  0  0
   -1.4260   18.5655   30.8412 C   0  0  0  0  0  0  0  0  0  0  0  0
   -0.9261   17.1298   30.9198 C   0  0  0  0  0  0  0  0  0  0  0  0
   -3.9043   17.2301   27.9802 N   0  0  0  0  0  0  0  0  0  0  0  0
   -2.5569   17.6189   27.5455 C   0  0  2  0  0  0  0  0  0  0  0  0
   -2.5416   18.3532   26.1942 C   0  0  0  0  0  0  0  0  0  0  0  0
   -2.6066   17.7579   25.1191 O   0  0  0  0  0  0  0  0  0  0  0  0
   -1.6221   16.3953   27.4305 C   0  0  0  0  0  0  0  0  0  0  0  0
   -0.2885   16.7319   27.0385 O   0  0  0  0  0  0  0  0  0  0  0  0
   -2.4072   19.7294   26.2710 N   0  0  0  0  0  0  0  0  0  0  0  0
   -3.1979   20.6152   25.4224 C   0  0  2  0  0  0  0  0  0  0  0  0
   -3.2793   20.0268   24.0003 C   0  0  0  0  0  0  0  0  0  0  0  0
   -3.1066   18.8310   23.7725 O   0  0  0  0  0  0  0  0  0  0  0  0
   -2.5851   22.0318   25.3355 C   0  0  0  0  0  0  0  0  0  0  0  0
   -2.9361   22.9490   26.4842 C   0  0  0  0  0  0  0  0  0  0  0  0
   -3.7990   22.5215   27.5045 C   0  0  0  0  0  0  0  0  0  0  0  0
   -2.4171   24.2495   26.5393 C   0  0  0  0  0  0  0  0  0  0  0  0
   -4.1226   23.3722   28.5651 C   0  0  0  0  0  0  0  0  0  0  0  0
   -2.7440   25.1001   27.5980 C   0  0  0  0  0  0  0  0  0  0  0  0
   -3.5930   24.6606   28.6137 C   0  0  0  0  0  0  0  0  0  0  0  0
   -3.5123   20.9576   23.0097 N   0  0  0  0  0  0  0  0  0  0  0  0
   -4.8673   21.2726   22.5081 C   0  0  2  0  0  0  0  0  0  0  0  0
   -4.9763   20.8769   21.0145 C   0  0  0  0  0  0  0  0  0  0  0  0
   -5.9511   20.2900   20.5440 O   0  0  0  0  0  0  0  0  0  0  0  0
   -5.1670   22.7671   22.6993 C   0  0  0  0  0  0  0  0  0  0  0  0
   -6.4851   23.2267   22.1233 C   0  0  0  0  0  0  0  0  0  0  0  0
   -6.5188   24.2122   21.1233 C   0  0  0  0  0  0  0  0  0  0  0  0
   -7.6969   22.6963   22.5919 C   0  0  0  0  0  0  0  0  0  0  0  0
   -7.7365   24.6694   20.6206 C   0  0  0  0  0  0  0  0  0  0  0  0
   -8.9122   23.1528   22.0794 C   0  0  0  0  0  0  0  0  0  0  0  0
   -8.9350   24.1434   21.0993 C   0  0  0  0  0  0  0  0  0  0  0  0
   -3.8471   21.1759   20.2694 N   0  0  0  0  0  0  0  0  0  0  0  0
   -3.5781   20.4909   19.0013 C   0  0  2  0  0  0  0  0  0  0  0  0
   -2.0403   20.3473   18.9145 C   0  0  0  0  0  0  0  0  0  0  0  0
   -1.4771   19.2849   19.1930 O   0  0  0  0  0  0  0  0  0  0  0  0
   -4.1960   21.2328   17.7993 C   0  0  2  0  0  0  0  0  0  0  0  0
   -3.1918   21.4629   16.8036 O   0  0  0  0  0  0  0  0  0  0  0  0
   -4.8657   22.5572   18.1541 C   0  0  0  0  0  0  0  0  0  0  0  0
   -1.3737   21.4888   18.5319 N   0  0  0  0  0  0  0  0  0  0  0  0
    0.0798   21.5688   18.3480 C   0  0  2  0  0  0  0  0  0  0  0  0
    0.7451   21.6310   19.7623 C   0  0  0  0  0  0  0  0  0  0  0  0
    0.0681   21.9580   20.7472 O   0  0  0  0  0  0  0  0  0  0  0  0
    0.5344   22.6714   17.3794 C   0  0  0  0  0  0  0  0  0  0  0  0
    2.0423   22.9476   17.3783 C   0  0  0  0  0  0  0  0  0  0  0  0
    2.8422   21.8675   16.7066 C   0  0  0  0  0  0  0  0  0  0  0  0
    3.4491   20.9668   17.2606 O   0  0  0  0  0  0  0  0  0  0  0  0
    2.8003   21.9401   15.3614 O   0  0  0  0  0  0  0  0  0  0  0  0
    2.0710   21.2848   19.9347 N   0  0  0  0  0  0  0  0  0  0  0  0
    2.7237   20.5551   21.0306 C   0  0  2  0  0  0  0  0  0  0  0  0
    2.7083   21.2473   22.4040 C   0  0  0  0  0  0  0  0  0  0  0  0
    2.1121   20.8341   23.3938 O   0  0  0  0  0  0  0  0  0  0  0  0
    4.1907   20.4137   20.5802 C   0  0  0  0  0  0  0  0  0  0  0  0
    4.1275   20.5408   19.0672 C   0  0  0  0  0  0  0  0  0  0  0  0
    3.0201   21.5552   18.8606 C   0  0  0  0  0  0  0  0  0  0  0  0
    3.4201   22.4140   22.4756 N   0  0  0  0  0  0  0  0  0  0  0  0
   12.2507   13.3771   27.4815 H   0  0  0  0  0  0  0  0  0  0  0  0
    4.0224   12.4929   26.1148 H   0  0  0  0  0  0  0  0  0  0  0  0
  1  2  2  0
  1  3  1  0
  1  4  1  0
  5  4  1  1
  5  6  1  0
  5  8  1  0
  6  7  2  0
  6 11  1  0
  8  9  1  6
  8 10  1  0
 11 12  1  0
 11 17  1  0
 12 13  1  1
 12 15  1  0
 13 14  2  0
 13 18  1  0
 15 16  1  0
 16 17  1  0
 18 19  1  0
 19 20  1  0
 19 22  1  1
 20 21  2  0
 20 26  1  0
 22 23  1  0
 23 24  1  1
 23 25  1  0
 26 27  1  0
 27 28  1  0
 27 30  1  1
 28 29  2  0
 28 37  1  0
 30 31  1  0
 31 32  1  0
 32 33  1  0
 33 34  1  0
 34 35  2  0
 34 36  1  0
 37 38  1  0
 38 39  1  0
 38 41  1  6
 39 40  2  0
 39 42  1  0
 42 43  1  0
 43 44  1  0
 43 46  1  6
 44 45  2  0
 44 53  1  0
 46 47  1  0
 47 48  1  0
 48 49  1  0
 49 50  1  0
 50 51  1  0
 50 52  2  0
 53 54  1  0
 54 55  1  0
 54 57  1  6
 55 56  2  0
 55 61  1  0
 57 58  1  0
 58 59  2  0
 58 60  1  0
 61 62  1  0
 62 63  1  0
 62 65  1  1
 63 64  2  0
 63 69  1  0
 65 66  1  0
 66 67  1  6
 66 68  1  0
 69 70  1  0
 69 75  1  0
 70 71  1  6
 70 73  1  0
 71 72  2  0
 71 76  1  0
 73 74  1  0
 74 75  1  0
 76 77  1  0
 76 82  1  0
 77 78  1  6
 77 80  1  0
 78 79  2  0
 78 83  1  0
 80 81  1  0
 81 82  1  0
 83 84  1  0
 84 85  1  0
 84 87  1  6
 85 86  2  0
 85 89  1  0
 87 88  1  0
 89 90  1  0
 90 91  1  0
 90 93  1  6
 91 92  2  0
 91100  1  0
 93 94  1  0
 94 95  2  0
 94 96  1  0
 95 97  1  0
 96 98  2  0
 97 99  2  0
 98 99  1  0
100101  1  0
101102  1  0
101104  1  6
102103  2  0
102111  1  0
104105  1  0
105106  2  0
105107  1  0
106108  1  0
107109  2  0
108110  2  0
109110  1  0
112111  1  1
112113  1  0
112115  1  0
113114  2  0
113118  1  0
115116  1  0
115117  1  1
118119  1  0
119120  1  0
119122  1  6
120121  2  0
120127  1  0
122123  1  0
123124  1  0
124125  2  0
124126  1  0
127128  1  0
127133  1  0
128129  1  1
128131  1  0
129130  2  0
129134  1  0
131132  1  0
132133  1  0
 35135  1  0
 52136  1  0
M  END
$$$$
