
     RDKit          3D

136141  0  0  0  0  0  0  0  0999 V2000
    4.3966   22.6572   32.3937 C   0  0  0  0  0  0  0  0  0  0  0  0
    4.1891   22.4597   33.5860 O   0  0  0  0  0  0  0  0  0  0  0  0
    3.3204   22.4753   31.3538 C   0  0  0  0  0  0  0  0  0  0  0  0
    5.6218   23.0188   31.8732 N   0  0  0  0  0  0  0  0  0  0  0  0
    5.7636   23.2236   30.4278 C   0  0  2  0  0  0  0  0  0  0  0  0
    5.3901   21.8856   29.7366 C   0  0  0  0  0  0  0  0  0  0  0  0
    6.1716   20.9273   29.7592 O   0  0  0  0  0  0  0  0  0  0  0  0
    7.1769   23.6978   30.0247 C   0  0  1  0  0  0  0  0  0  0  0  0
    8.2444   22.7143   30.5208 C   0  0  0  0  0  0  0  0  0  0  0  0
    7.3403   23.9347   28.5210 C   0  0  0  0  0  0  0  0  0  0  0  0
    4.2001   21.8083   29.0501 N   0  0  0  0  0  0  0  0  0  0  0  0
    3.3008   20.6508   29.2045 C   0  0  2  0  0  0  0  0  0  0  0  0
    3.6229   19.4494   28.2813 C   0  0  0  0  0  0  0  0  0  0  0  0
    3.6895   19.5658   27.0493 O   0  0  0  0  0  0  0  0  0  0  0  0
    1.9116   21.2397   28.9374 C   0  0  0  0  0  0  0  0  0  0  0  0
    2.2030   22.3235   27.9067 C   0  0  0  0  0  0  0  0  0  0  0  0
    3.5028   22.9240   28.4247 C   0  0  0  0  0  0  0  0  0  0  0  0
    3.6423   18.2306   28.9137 N   0  0  0  0  0  0  0  0  0  0  0  0
    3.8689   16.9610   28.2271 C   0  0  2  0  0  0  0  0  0  0  0  0
    3.7564   17.1426   26.6760 C   0  0  0  0  0  0  0  0  0  0  0  0
    4.0855   16.2729   25.8700 O   0  0  0  0  0  0  0  0  0  0  0  0
    3.0133   15.7955   28.7873 C   0  0  0  0  0  0  0  0  0  0  0  0
    3.3923   14.3878   28.2656 C   0  0  1  0  0  0  0  0  0  0  0  0
    4.3848   14.4198   27.0985 C   0  0  0  0  0  0  0  0  0  0  0  0
    3.9952   13.5655   29.4119 C   0  0  0  0  0  0  0  0  0  0  0  0
    3.1946   18.3453   26.2906 N   0  0  0  0  0  0  0  0  0  0  0  0
    1.8581   18.5256   25.7225 C   0  0  2  0  0  0  0  0  0  0  0  0
    1.4631   20.0165   25.7531 C   0  0  0  0  0  0  0  0  0  0  0  0
    2.2053   20.9050   26.1604 O   0  0  0  0  0  0  0  0  0  0  0  0
    0.7648   17.6259   26.3228 C   0  0  0  0  0  0  0  0  0  0  0  0
    0.0887   16.6957   25.3016 C   0  0  0  0  0  0  0  0  0  0  0  0
   -1.4089   16.9821   25.1749 C   0  0  0  0  0  0  0  0  0  0  0  0
   -2.0838   16.8028   26.4450 N   0  0  0  0  0  0  0  0  0  0  0  0
   -3.3830   17.1106   26.6316 C   0  0  0  0  0  0  0  0  0  0  0  0
   -3.9347   18.2097   26.2781 N   0  0  0  0  0  0  0  0  0  0  0  0
   -4.0495   16.1036   27.2288 N   0  0  0  0  0  0  0  0  0  0  0  0
    0.1463   20.2605   25.3937 N   0  0  0  0  0  0  0  0  0  0  0  0
   -0.2192   21.3316   24.4480 C   0  0  2  0  0  0  0  0  0  0  0  0
    0.9634   22.0728   23.7755 C   0  0  0  0  0  0  0  0  0  0  0  0
    1.9489   21.4809   23.3447 O   0  0  0  0  0  0  0  0  0  0  0  0
   -1.0698   22.3797   25.1666 C   0  0  0  0  0  0  0  0  0  0  0  0
    0.8112   23.4353   23.6990 N   0  0  0  0  0  0  0  0  0  0  0  0
    1.8035   24.3989   24.1753 C   0  0  2  0  0  0  0  0  0  0  0  0
    3.2199   24.0411   23.6508 C   0  0  0  0  0  0  0  0  0  0  0  0
    4.1684   23.8589   24.4147 O   0  0  0  0  0  0  0  0  0  0  0  0
    1.7552   24.3542   25.7133 C   0  0  0  0  0  0  0  0  0  0  0  0
    2.3083   25.5961   26.4159 C   0  0  0  0  0  0  0  0  0  0  0  0
    2.2227   26.8503   25.5403 C   0  0  0  0  0  0  0  0  0  0  0  0
    1.2114   27.7937   26.0110 N   0  0  0  0  0  0  0  0  0  0  0  0
    1.4080   29.1322   25.9530 C   0  0  0  0  0  0  0  0  0  0  0  0
    2.3037   29.5340   26.8779 N   0  0  0  0  0  0  0  0  0  0  0  0
    0.8454   29.9367   25.1321 N   0  0  0  0  0  0  0  0  0  0  0  0
    3.2857   23.7342   22.3046 N   0  0  0  0  0  0  0  0  0  0  0  0
    3.8470   24.6578   21.3117 C   0  0  2  0  0  0  0  0  0  0  0  0
    5.0302   24.0303   20.5472 C   0  0  0  0  0  0  0  0  0  0  0  0
    4.8763   23.2393   19.6154 O   0  0  0  0  0  0  0  0  0  0  0  0
    4.3381   25.9422   21.9862 C   0  0  0  0  0  0  0  0  0  0  0  0
    4.8461   26.9261   20.9671 C   0  0  0  0  0  0  0  0  0  0  0  0
    4.5223   26.9210   19.7842 O   0  0  0  0  0  0  0  0  0  0  0  0
    5.7203   27.8479   21.4523 N   0  0  0  0  0  0  0  0  0  0  0  0
    6.2715   24.5303   20.8850 N   0  0  0  0  0  0  0  0  0  0  0  0
    6.8548   25.6701   20.1858 C   0  0  2  0  0  0  0  0  0  0  0  0
    6.7306   25.3806   18.6679 C   0  0  0  0  0  0  0  0  0  0  0  0
    6.0409   24.4441   18.2447 O   0  0  0  0  0  0  0  0  0  0  0  0
    8.3182   25.8756   20.6280 C   0  0  0  0  0  0  0  0  0  0  0  0
    8.5271   25.9680   22.1575 C   0  0  1  0  0  0  0  0  0  0  0  0
    7.6365   27.0727   22.7355 C   0  0  0  0  0  0  0  0  0  0  0  0
    8.2429   24.6487   22.8822 C   0  0  0  0  0  0  0  0  0  0  0  0
    7.3596   26.2490   17.7977 N   0  0  0  0  0  0  0  0  0  0  0  0
    7.4800   26.1142   16.3380 C   0  0  2  0  0  0  0  0  0  0  0  0
    8.4503   24.9779   15.9126 C   0  0  0  0  0  0  0  0  0  0  0  0
    9.4528   24.7131   16.5724 O   0  0  0  0  0  0  0  0  0  0  0  0
    8.0202   27.4691   15.8669 C   0  0  0  0  0  0  0  0  0  0  0  0
    7.7170   28.4146   17.0244 C   0  0  0  0  0  0  0  0  0  0  0  0
    7.8649   27.5284   18.2468 C   0  0  0  0  0  0  0  0  0  0  0  0
    8.1770   24.2959   14.7385 N   0  0  0  0  0  0  0  0  0  0  0  0
    9.1302   24.4060   13.6150 C   0  0  2  0  0  0  0  0  0  0  0  0
    9.1319   25.7421   12.8517 C   0  0  0  0  0  0  0  0  0  0  0  0
    8.1990   26.0659   12.1150 O   0  0  0  0  0  0  0  0  0  0  0  0
    8.6929   23.2992   12.6486 C   0  0  0  0  0  0  0  0  0  0  0  0
    8.0790   22.2545   13.5657 C   0  0  0  0  0  0  0  0  0  0  0  0
    7.3675   23.0951   14.6167 C   0  0  0  0  0  0  0  0  0  0  0  0
   10.1299   26.6313   13.2043 N   0  0  0  0  0  0  0  0  0  0  0  0
   10.7794   27.4406   12.1657 C   0  0  2  0  0  0  0  0  0  0  0  0
   11.7628   26.6394   11.2960 C   0  0  0  0  0  0  0  0  0  0  0  0
   12.7851   26.1302   11.7543 O   0  0  0  0  0  0  0  0  0  0  0  0
   11.5481   28.6339   12.7736 C   0  0  0  0  0  0  0  0  0  0  0  0
   10.8034   29.8549   12.7657 O   0  0  0  0  0  0  0  0  0  0  0  0
   11.4385   26.5663    9.9516 N   0  0  0  0  0  0  0  0  0  0  0  0
   11.4854   25.2987    9.2300 C   0  0  2  0  0  0  0  0  0  0  0  0
   10.0778   24.9536    8.7058 C   0  0  0  0  0  0  0  0  0  0  0  0
    9.8316   23.8956    8.1297 O   0  0  0  0  0  0  0  0  0  0  0  0
   11.9748   24.1396   10.1283 C   0  0  0  0  0  0  0  0  0  0  0  0
   12.0070   22.7850    9.4588 C   0  0  0  0  0  0  0  0  0  0  0  0
   11.2100   21.7323    9.9330 C   0  0  0  0  0  0  0  0  0  0  0  0
   12.8479   22.5544    8.3617 C   0  0  0  0  0  0  0  0  0  0  0  0
   11.2426   20.4805    9.3125 C   0  0  0  0  0  0  0  0  0  0  0  0
   12.8823   21.3018    7.7446 C   0  0  0  0  0  0  0  0  0  0  0  0
   12.0765   20.2657    8.2164 C   0  0  0  0  0  0  0  0  0  0  0  0
    9.1389   25.9461    8.8943 N   0  0  0  0  0  0  0  0  0  0  0  0
    8.4958   26.6648    7.7732 C   0  0  2  0  0  0  0  0  0  0  0  0
    9.5443   26.9592    6.6716 C   0  0  0  0  0  0  0  0  0  0  0  0
   10.1599   26.0748    6.0760 O   0  0  0  0  0  0  0  0  0  0  0  0
    7.8558   27.9668    8.2784 C   0  0  0  0  0  0  0  0  0  0  0  0
    7.1903   28.8007    7.2097 C   0  0  0  0  0  0  0  0  0  0  0  0
    6.6266   30.0468    7.5289 C   0  0  0  0  0  0  0  0  0  0  0  0
    7.1029   28.3368    5.8882 C   0  0  0  0  0  0  0  0  0  0  0  0
    5.9735   30.7992    6.5531 C   0  0  0  0  0  0  0  0  0  0  0  0
    6.4545   29.0980    4.9145 C   0  0  0  0  0  0  0  0  0  0  0  0
    5.8834   30.3255    5.2456 C   0  0  0  0  0  0  0  0  0  0  0  0
    9.7823   28.3088    6.4677 N   0  0  0  0  0  0  0  0  0  0  0  0
   10.7882   29.0244    7.2586 C   0  0  2  0  0  0  0  0  0  0  0  0
   10.3845   30.5169    7.2083 C   0  0  0  0  0  0  0  0  0  0  0  0
   10.9190   31.3012    6.4194 O   0  0  0  0  0  0  0  0  0  0  0  0
   12.2202   28.7567    6.7539 C   0  0  2  0  0  0  0  0  0  0  0  0
   12.3149   27.4180    6.2524 O   0  0  0  0  0  0  0  0  0  0  0  0
   13.3081   28.9804    7.8002 C   0  0  0  0  0  0  0  0  0  0  0  0
    9.4178   30.8852    8.1158 N   0  0  0  0  0  0  0  0  0  0  0  0
    8.8979   32.2504    8.2538 C   0  0  2  0  0  0  0  0  0  0  0  0
    8.6308   32.5167    9.7719 C   0  0  0  0  0  0  0  0  0  0  0  0
    7.5320   32.2238   10.2642 O   0  0  0  0  0  0  0  0  0  0  0  0
    7.7122   32.5712    7.3309 C   0  0  0  0  0  0  0  0  0  0  0  0
    7.4833   34.0644    7.0703 C   0  0  0  0  0  0  0  0  0  0  0  0
    7.8181   34.4791    5.6654 C   0  0  0  0  0  0  0  0  0  0  0  0
    7.7342   35.6046    5.2045 O   0  0  0  0  0  0  0  0  0  0  0  0
    8.2935   33.4648    4.9159 O   0  0  0  0  0  0  0  0  0  0  0  0
    9.6208   33.0367   10.5823 N   0  0  0  0  0  0  0  0  0  0  0  0
    9.6274   33.2784   12.0318 C   0  0  2  0  0  0  0  0  0  0  0  0
    8.6312   34.3325   12.5436 C   0  0  0  0  0  0  0  0  0  0  0  0
    8.2296   34.4186   13.6999 O   0  0  0  0  0  0  0  0  0  0  0  0
   11.0535   33.7787   12.3332 C   0  0  0  0  0  0  0  0  0  0  0  0
   11.8866   33.2374   11.1833 C   0  0  0  0  0  0  0  0  0  0  0  0
   10.9319   33.3186   10.0086 C   0  0  0  0  0  0  0  0  0  0  0  0
    8.1795   35.2134   11.5986 N   0  0  0  0  0  0  0  0  0  0  0  0
   -4.6324   18.0232   25.5548 H   0  0  0  0  0  0  0  0  0  0  0  0
    1.5202   30.6425   24.8310 H   0  0  0  0  0  0  0  0  0  0  0  0
  1  2  2  0
  1  3  1  0
  1  4  1  0
  5  4  1  1
  5  6  1  0
  5  8  1  0
  6  7  2  0
  6 11  1  0
  8  9  1  6
  8 10  1  0
 11 12  1  0
 11 17  1  0
 12 13  1  6
 12 15  1  0
 13 14  2  0
 13 18  1  0
 15 16  1  0
 16 17  1  0
 18 19  1  0
 19 20  1  0
 19 22  1  1
 20 21  2  0
 20 26  1  0
 22 23  1  0
 23 24  1  6
 23 25  1  0
 26 27  1  0
 27 28  1  0
 27 30  1  1
 28 29  2  0
 28 37  1  0
 30 31  1  0
 31 32  1  0
 32 33  1  0
 33 34  1  0
 34 35  2  0
 34 36  1  0
 37 38  1  0
 38 39  1  0
 38 41  1  1
 39 40  2  0
 39 42  1  0
 42 43  1  0
 43 44  1  0
 43 46  1  1
 44 45  2  0
 44 53  1  0
 46 47  1  0
 47 48  1  0
 48 49  1  0
 49 50  1  0
 50 51  1  0
 50 52  2  0
 53 54  1  0
 54 55  1  0
 54 57  1  1
 55 56  2  0
 55 61  1  0
 57 58  1  0
 58 59  2  0
 58 60  1  0
 61 62  1  0
 62 63  1  0
 62 65  1  1
 63 64  2  0
 63 69  1  0
 65 66  1  0
 66 67  1  1
 66 68  1  0
 69 70  1  0
 69 75  1  0
 70 71  1  1
 70 73  1  0
 71 72  2  0
 71 76  1  0
 73 74  1  0
 74 75  1  0
 76 77  1  0
 76 82  1  0
 77 78  1  6
 77 80  1  0
 78 79  2  0
 78 83  1  0
 80 81  1  0
 81 82  1  0
 83 84  1  0
 84 85  1  0
 84 87  1  1
 85 86  2  0
 85 89  1  0
 87 88  1  0
 89 90  1  0
 90 91  1  0
 90 93  1  1
 91 92  2  0
 91100  1  0
 93 94  1  0
 94 95  2  0
 94 96  1  0
 95 97  1  0
 96 98  2  0
 97 99  2  0
 98 99  1  0
100101  1  0
101102  1  0
101104  1  1
102103  2  0
102111  1  0
104105  1  0
105106  2  0
105107  1  0
106108  1  0
107109  2  0
108110  2  0
109110  1  0
112111  1  6
112113  1  0
112115  1  0
113114  2  0
113118  1  0
115116  1  0
115117  1  1
118119  1  0
119120  1  0
119122  1  6
120121  2  0
120127  1  0
122123  1  0
123124  1  0
124125  2  0
124126  1  0
127128  1  0
127133  1  0
128129  1  6
128131  1  0
129130  2  0
129134  1  0
131132  1  0
132133  1  0
 35135  1  0
 52136  1  0
M  END
$$$$
