
     RDKit          3D

136141  0  0  0  0  0  0  0  0999 V2000
   14.4203   37.4521   34.4363 C   0  0  0  0  0  0  0  0  0  0  0  0
   15.2659   38.3281   34.2911 O   0  0  0  0  0  0  0  0  0  0  0  0
   12.9741   37.6680   34.0694 C   0  0  0  0  0  0  0  0  0  0  0  0
   14.6802   36.2110   34.9793 N   0  0  0  0  0  0  0  0  0  0  0  0
   16.0668   35.8084   35.2372 C   0  0  2  0  0  0  0  0  0  0  0  0
   16.7782   35.7082   33.8620 C   0  0  0  0  0  0  0  0  0  0  0  0
   16.1810   35.2575   32.8772 O   0  0  0  0  0  0  0  0  0  0  0  0
   16.1705   34.4871   36.0298 C   0  0  1  0  0  0  0  0  0  0  0  0
   17.6260   34.1964   36.4173 C   0  0  0  0  0  0  0  0  0  0  0  0
   15.2781   34.4440   37.2729 C   0  0  0  0  0  0  0  0  0  0  0  0
   18.1015   36.0753   33.7763 N   0  0  0  0  0  0  0  0  0  0  0  0
   18.8145   36.0742   32.4863 C   0  0  2  0  0  0  0  0  0  0  0  0
   19.4265   34.7096   32.0828 C   0  0  0  0  0  0  0  0  0  0  0  0
   19.1476   34.1549   31.0104 O   0  0  0  0  0  0  0  0  0  0  0  0
   19.8771   37.1638   32.6646 C   0  0  0  0  0  0  0  0  0  0  0  0
   20.2105   37.0628   34.1480 C   0  0  0  0  0  0  0  0  0  0  0  0
   18.8414   36.8359   34.7744 C   0  0  0  0  0  0  0  0  0  0  0  0
   20.1436   34.0880   33.0754 N   0  0  0  0  0  0  0  0  0  0  0  0
   20.6357   32.7152   32.9860 C   0  0  2  0  0  0  0  0  0  0  0  0
   20.0163   31.9845   31.7475 C   0  0  0  0  0  0  0  0  0  0  0  0
   18.8103   31.7739   31.6228 O   0  0  0  0  0  0  0  0  0  0  0  0
   20.5031   31.9248   34.3134 C   0  0  0  0  0  0  0  0  0  0  0  0
   20.8607   30.4209   34.2251 C   0  0  1  0  0  0  0  0  0  0  0  0
   21.9911   30.0088   35.1741 C   0  0  0  0  0  0  0  0  0  0  0  0
   19.6148   29.5823   34.5380 C   0  0  0  0  0  0  0  0  0  0  0  0
   20.9384   31.6509   30.7732 N   0  0  0  0  0  0  0  0  0  0  0  0
   21.0077   30.3763   30.0574 C   0  0  2  0  0  0  0  0  0  0  0  0
   19.6458   30.0557   29.4077 C   0  0  0  0  0  0  0  0  0  0  0  0
   18.7204   29.5165   30.0069 O   0  0  0  0  0  0  0  0  0  0  0  0
   21.5493   29.1935   30.8777 C   0  0  0  0  0  0  0  0  0  0  0  0
   20.6240   28.7499   32.0231 C   0  0  0  0  0  0  0  0  0  0  0  0
   19.8642   27.4677   31.6772 C   0  0  0  0  0  0  0  0  0  0  0  0
   20.4971   26.3088   32.2749 N   0  0  0  0  0  0  0  0  0  0  0  0
   19.9843   25.0657   32.1788 C   0  0  0  0  0  0  0  0  0  0  0  0
   19.5902   24.5166   31.0922 N   0  0  0  0  0  0  0  0  0  0  0  0
   19.9492   24.4507   33.3769 N   0  0  0  0  0  0  0  0  0  0  0  0
   19.5923   30.3176   28.0471 N   0  0  0  0  0  0  0  0  0  0  0  0
   20.3199   29.4932   27.0642 C   0  0  2  0  0  0  0  0  0  0  0  0
   20.3876   30.0600   25.6239 C   0  0  0  0  0  0  0  0  0  0  0  0
   21.2354   30.8786   25.2803 O   0  0  0  0  0  0  0  0  0  0  0  0
   19.6774   28.1079   26.9835 C   0  0  0  0  0  0  0  0  0  0  0  0
   19.4296   29.5667   24.7729 N   0  0  0  0  0  0  0  0  0  0  0  0
   19.1634   28.1418   24.5758 C   0  0  2  0  0  0  0  0  0  0  0  0
   18.7739   27.8494   23.1020 C   0  0  0  0  0  0  0  0  0  0  0  0
   18.6786   26.6997   22.6713 O   0  0  0  0  0  0  0  0  0  0  0  0
   18.0171   27.7731   25.5348 C   0  0  0  0  0  0  0  0  0  0  0  0
   17.5146   28.9189   26.4159 C   0  0  0  0  0  0  0  0  0  0  0  0
   15.9851   28.9941   26.4616 C   0  0  0  0  0  0  0  0  0  0  0  0
   15.5009   29.9483   27.4561 N   0  0  0  0  0  0  0  0  0  0  0  0
   14.7196   29.5592   28.4914 C   0  0  0  0  0  0  0  0  0  0  0  0
   15.4026   28.7739   29.3494 N   0  0  0  0  0  0  0  0  0  0  0  0
   13.4955   29.8868   28.6700 N   0  0  0  0  0  0  0  0  0  0  0  0
   18.3383   28.9465   22.3826 N   0  0  0  0  0  0  0  0  0  0  0  0
   17.4755   28.8234   21.2018 C   0  0  2  0  0  0  0  0  0  0  0  0
   17.1292   30.1991   20.5970 C   0  0  0  0  0  0  0  0  0  0  0  0
   16.1737   30.8743   20.9826 O   0  0  0  0  0  0  0  0  0  0  0  0
   16.1668   28.1137   21.5612 C   0  0  0  0  0  0  0  0  0  0  0  0
   16.2463   26.6442   21.2465 C   0  0  0  0  0  0  0  0  0  0  0  0
   15.6963   26.1150   20.2867 O   0  0  0  0  0  0  0  0  0  0  0  0
   16.9845   25.9133   22.1243 N   0  0  0  0  0  0  0  0  0  0  0  0
   18.0519   30.6861   19.6934 N   0  0  0  0  0  0  0  0  0  0  0  0
   17.8526   30.5637   18.2535 C   0  0  2  0  0  0  0  0  0  0  0  0
   16.3218   30.5557   18.0084 C   0  0  0  0  0  0  0  0  0  0  0  0
   15.5714   31.3472   18.5933 O   0  0  0  0  0  0  0  0  0  0  0  0
   18.5397   29.2874   17.7261 C   0  0  0  0  0  0  0  0  0  0  0  0
   20.0855   29.3282   17.7432 C   0  0  1  0  0  0  0  0  0  0  0  0
   20.5618   30.5872   18.4751 C   0  0  0  0  0  0  0  0  0  0  0  0
   20.7107   28.0900   18.3932 C   0  0  0  0  0  0  0  0  0  0  0  0
   15.8308   29.6813   17.0591 N   0  0  0  0  0  0  0  0  0  0  0  0
   14.4202   29.3736   16.7777 C   0  0  2  0  0  0  0  0  0  0  0  0
   13.7463   28.5392   17.9016 C   0  0  0  0  0  0  0  0  0  0  0  0
   14.4094   27.8354   18.6601 O   0  0  0  0  0  0  0  0  0  0  0  0
   14.4518   28.5685   15.4738 C   0  0  0  0  0  0  0  0  0  0  0  0
   15.8167   28.8860   14.8721 C   0  0  0  0  0  0  0  0  0  0  0  0
   16.7046   29.0547   16.0906 C   0  0  0  0  0  0  0  0  0  0  0  0
   12.3652   28.5758   17.9986 N   0  0  0  0  0  0  0  0  0  0  0  0
   11.7122   27.8564   19.1118 C   0  0  2  0  0  0  0  0  0  0  0  0
   11.6750   26.3221   19.0025 C   0  0  0  0  0  0  0  0  0  0  0  0
   12.3545   25.7174   18.1716 O   0  0  0  0  0  0  0  0  0  0  0  0
   10.2701   28.3762   19.0932 C   0  0  0  0  0  0  0  0  0  0  0  0
   10.4099   29.7797   18.5275 C   0  0  0  0  0  0  0  0  0  0  0  0
   11.4995   29.6198   17.4765 C   0  0  0  0  0  0  0  0  0  0  0  0
   11.0037   25.6660   20.0173 N   0  0  0  0  0  0  0  0  0  0  0  0
   11.4987   24.3682   20.4929 C   0  0  2  0  0  0  0  0  0  0  0  0
   11.6454   24.2960   22.0221 C   0  0  0  0  0  0  0  0  0  0  0  0
   12.7402   24.2005   22.5761 O   0  0  0  0  0  0  0  0  0  0  0  0
   12.8670   24.0190   19.8685 C   0  0  0  0  0  0  0  0  0  0  0  0
   13.9325   23.9708   20.8214 O   0  0  0  0  0  0  0  0  0  0  0  0
   10.4558   24.3039   22.7310 N   0  0  0  0  0  0  0  0  0  0  0  0
   10.4406   24.4622   24.1817 C   0  0  2  0  0  0  0  0  0  0  0  0
   10.8189   23.1251   24.8484 C   0  0  0  0  0  0  0  0  0  0  0  0
   10.2425   22.7030   25.8491 O   0  0  0  0  0  0  0  0  0  0  0  0
    9.0510   24.8965   24.7016 C   0  0  0  0  0  0  0  0  0  0  0  0
    8.8994   24.8784   26.2052 C   0  0  0  0  0  0  0  0  0  0  0  0
    9.9672   24.4899   27.0283 C   0  0  0  0  0  0  0  0  0  0  0  0
    7.6820   25.2340   26.8010 C   0  0  0  0  0  0  0  0  0  0  0  0
    9.8238   24.4732   28.4184 C   0  0  0  0  0  0  0  0  0  0  0  0
    7.5388   25.2135   28.1903 C   0  0  0  0  0  0  0  0  0  0  0  0
    8.6106   24.8377   28.9999 C   0  0  0  0  0  0  0  0  0  0  0  0
   11.8820   22.4737   24.2590 N   0  0  0  0  0  0  0  0  0  0  0  0
   12.4136   21.1887   24.7619 C   0  0  2  0  0  0  0  0  0  0  0  0
   12.0986   21.0484   26.2720 C   0  0  0  0  0  0  0  0  0  0  0  0
   11.8603   22.0114   27.0013 O   0  0  0  0  0  0  0  0  0  0  0  0
   13.9271   21.1088   24.5111 C   0  0  0  0  0  0  0  0  0  0  0  0
   14.3304   21.1517   23.0565 C   0  0  0  0  0  0  0  0  0  0  0  0
   13.3549   21.2518   22.0511 C   0  0  0  0  0  0  0  0  0  0  0  0
   15.6807   21.0689   22.6835 C   0  0  0  0  0  0  0  0  0  0  0  0
   13.7218   21.2479   20.7057 C   0  0  0  0  0  0  0  0  0  0  0  0
   16.0421   21.0731   21.3354 C   0  0  0  0  0  0  0  0  0  0  0  0
   15.0648   21.1556   20.3451 C   0  0  0  0  0  0  0  0  0  0  0  0
   12.1818   19.7491   26.7459 N   0  0  0  0  0  0  0  0  0  0  0  0
   13.0190   19.4217   27.9041 C   0  0  2  0  0  0  0  0  0  0  0  0
   12.7120   20.5017   28.9683 C   0  0  0  0  0  0  0  0  0  0  0  0
   12.5175   21.6788   28.6521 O   0  0  0  0  0  0  0  0  0  0  0  0
   14.5125   19.3306   27.5326 C   0  0  2  0  0  0  0  0  0  0  0  0
   14.9544   20.5813   26.9911 O   0  0  0  0  0  0  0  0  0  0  0  0
   14.8497   18.2106   26.5526 C   0  0  0  0  0  0  0  0  0  0  0  0
   12.6999   20.0467   30.2670 N   0  0  0  0  0  0  0  0  0  0  0  0
   12.4678   20.9033   31.4356 C   0  0  2  0  0  0  0  0  0  0  0  0
   12.1644   19.9800   32.6612 C   0  0  0  0  0  0  0  0  0  0  0  0
   13.0725   19.2999   33.1593 O   0  0  0  0  0  0  0  0  0  0  0  0
   11.4371   22.0193   31.2061 C   0  0  0  0  0  0  0  0  0  0  0  0
   12.0038   23.3042   30.5914 C   0  0  0  0  0  0  0  0  0  0  0  0
   11.3218   23.7002   29.3124 C   0  0  0  0  0  0  0  0  0  0  0  0
   10.8121   22.9460   28.5014 O   0  0  0  0  0  0  0  0  0  0  0  0
   11.2671   25.0353   29.1361 O   0  0  0  0  0  0  0  0  0  0  0  0
   10.9034   19.9446   33.2235 N   0  0  0  0  0  0  0  0  0  0  0  0
   10.4926   20.0284   34.6319 C   0  0  2  0  0  0  0  0  0  0  0  0
   10.9468   18.8702   35.5363 C   0  0  0  0  0  0  0  0  0  0  0  0
   10.4208   17.7624   35.5787 O   0  0  0  0  0  0  0  0  0  0  0  0
    8.9522   20.0261   34.5855 C   0  0  0  0  0  0  0  0  0  0  0  0
    8.6232   20.5229   33.1875 C   0  0  0  0  0  0  0  0  0  0  0  0
    9.7367   19.9282   32.3482 C   0  0  0  0  0  0  0  0  0  0  0  0
   12.0167   19.1474   36.3434 N   0  0  0  0  0  0  0  0  0  0  0  0
   20.1972   24.8087   30.3235 H   0  0  0  0  0  0  0  0  0  0  0  0
   12.9752   29.7442   27.8022 H   0  0  0  0  0  0  0  0  0  0  0  0
  1  2  2  0
  1  3  1  0
  1  4  1  0
  5  4  1  6
  5  6  1  0
  5  8  1  0
  6  7  2  0
  6 11  1  0
  8  9  1  1
  8 10  1  0
 11 12  1  0
 11 17  1  0
 12 13  1  1
 12 15  1  0
 13 14  2  0
 13 18  1  0
 15 16  1  0
 16 17  1  0
 18 19  1  0
 19 20  1  0
 19 22  1  1
 20 21  2  0
 20 26  1  0
 22 23  1  0
 23 24  1  1
 23 25  1  0
 26 27  1  0
 27 28  1  0
 27 30  1  1
 28 29  2  0
 28 37  1  0
 30 31  1  0
 31 32  1  0
 32 33  1  0
 33 34  1  0
 34 35  2  0
 34 36  1  0
 37 38  1  0
 38 39  1  0
 38 41  1  6
 39 40  2  0
 39 42  1  0
 42 43  1  0
 43 44  1  0
 43 46  1  1
 44 45  2  0
 44 53  1  0
 46 47  1  0
 47 48  1  0
 48 49  1  0
 49 50  1  0
 50 51  1  0
 50 52  2  0
 53 54  1  0
 54 55  1  0
 54 57  1  1
 55 56  2  0
 55 61  1  0
 57 58  1  0
 58 59  2  0
 58 60  1  0
 61 62  1  0
 62 63  1  0
 62 65  1  1
 63 64  2  0
 63 69  1  0
 65 66  1  0
 66 67  1  1
 66 68  1  0
 69 70  1  0
 69 75  1  0
 70 71  1  1
 70 73  1  0
 71 72  2  0
 71 76  1  0
 73 74  1  0
 74 75  1  0
 76 77  1  0
 76 82  1  0
 77 78  1  6
 77 80  1  0
 78 79  2  0
 78 83  1  0
 80 81  1  0
 81 82  1  0
 83 84  1  0
 84 85  1  0
 84 87  1  6
 85 86  2  0
 85 89  1  0
 87 88  1  0
 89 90  1  0
 90 91  1  0
 90 93  1  1
 91 92  2  0
 91100  1  0
 93 94  1  0
 94 95  2  0
 94 96  1  0
 95 97  1  0
 96 98  2  0
 97 99  2  0
 98 99  1  0
100101  1  0
101102  1  0
101104  1  1
102103  2  0
102111  1  0
104105  1  0
105106  2  0
105107  1  0
106108  1  0
107109  2  0
108110  2  0
109110  1  0
112111  1  6
112113  1  0
112115  1  0
113114  2  0
113118  1  0
115116  1  0
115117  1  6
118119  1  0
119120  1  0
119122  1  6
120121  2  0
120127  1  0
122123  1  0
123124  1  0
124125  2  0
124126  1  0
127128  1  0
127133  1  0
128129  1  1
128131  1  0
129130  2  0
129134  1  0
131132  1  0
132133  1  0
 35135  1  0
 52136  1  0
M  END
$$$$
