
     RDKit          3D

136141  0  0  0  0  0  0  0  0999 V2000
   18.3361   12.0032   31.0163 C   0  0  0  0  0  0  0  0  0  0  0  0
   19.0630   11.4267   30.2144 O   0  0  0  0  0  0  0  0  0  0  0  0
   17.5679   11.2583   32.0782 C   0  0  0  0  0  0  0  0  0  0  0  0
   18.1092   13.3638   31.0126 N   0  0  0  0  0  0  0  0  0  0  0  0
   16.9622   13.9095   31.7457 C   0  0  2  0  0  0  0  0  0  0  0  0
   16.2236   12.7115   32.3988 C   0  0  0  0  0  0  0  0  0  0  0  0
   16.7070   11.5740   32.3513 O   0  0  0  0  0  0  0  0  0  0  0  0
   16.0180   14.7410   30.8502 C   0  0  1  0  0  0  0  0  0  0  0  0
   14.6197   14.8376   31.4735 C   0  0  0  0  0  0  0  0  0  0  0  0
   16.5480   16.1414   30.5314 C   0  0  0  0  0  0  0  0  0  0  0  0
   14.9951   12.9312   32.9784 N   0  0  0  0  0  0  0  0  0  0  0  0
   14.7969   12.7854   34.4316 C   0  0  2  0  0  0  0  0  0  0  0  0
   14.4820   11.3439   34.9034 C   0  0  0  0  0  0  0  0  0  0  0  0
   13.8427   10.5470   34.2019 O   0  0  0  0  0  0  0  0  0  0  0  0
   13.6581   13.7642   34.7368 C   0  0  0  0  0  0  0  0  0  0  0  0
   12.8223   13.7083   33.4640 C   0  0  0  0  0  0  0  0  0  0  0  0
   13.8874   13.6616   32.3771 C   0  0  0  0  0  0  0  0  0  0  0  0
   14.8006   11.0883   36.2145 N   0  0  0  0  0  0  0  0  0  0  0  0
   14.0369   11.5966   37.3516 C   0  0  2  0  0  0  0  0  0  0  0  0
   12.5912   12.0045   36.9096 C   0  0  0  0  0  0  0  0  0  0  0  0
   12.2396   13.1730   36.7504 O   0  0  0  0  0  0  0  0  0  0  0  0
   14.7822   12.6943   38.1541 C   0  0  0  0  0  0  0  0  0  0  0  0
   14.0483   13.1997   39.4204 C   0  0  1  0  0  0  0  0  0  0  0  0
   13.8239   12.1055   40.4694 C   0  0  0  0  0  0  0  0  0  0  0  0
   14.8538   14.3415   40.0537 C   0  0  0  0  0  0  0  0  0  0  0  0
   11.7588   10.9314   36.6523 N   0  0  0  0  0  0  0  0  0  0  0  0
   10.4896   10.6491   37.3239 C   0  0  2  0  0  0  0  0  0  0  0  0
    9.4365   11.7087   36.9392 C   0  0  0  0  0  0  0  0  0  0  0  0
    8.5822   11.5316   36.0760 O   0  0  0  0  0  0  0  0  0  0  0  0
   10.5838   10.4545   38.8466 C   0  0  0  0  0  0  0  0  0  0  0  0
   10.9559    9.0247   39.2732 C   0  0  0  0  0  0  0  0  0  0  0  0
   11.0318    8.8861   40.7950 C   0  0  0  0  0  0  0  0  0  0  0  0
    9.7675    8.4348   41.3416 N   0  0  0  0  0  0  0  0  0  0  0  0
    9.4836    8.4793   42.6587 C   0  0  0  0  0  0  0  0  0  0  0  0
   10.3365    8.7041   43.5859 N   0  0  0  0  0  0  0  0  0  0  0  0
    8.1726    8.2727   42.8898 N   0  0  0  0  0  0  0  0  0  0  0  0
    9.6098   12.9328   37.5671 N   0  0  0  0  0  0  0  0  0  0  0  0
    8.9732   13.2438   38.8606 C   0  0  2  0  0  0  0  0  0  0  0  0
    7.9808   14.4334   38.8575 C   0  0  0  0  0  0  0  0  0  0  0  0
    7.7135   15.0675   39.8741 O   0  0  0  0  0  0  0  0  0  0  0  0
   10.0518   13.5474   39.9012 C   0  0  0  0  0  0  0  0  0  0  0  0
    7.4366   14.7170   37.6291 N   0  0  0  0  0  0  0  0  0  0  0  0
    7.7217   15.9328   36.8672 C   0  0  2  0  0  0  0  0  0  0  0  0
    7.0911   15.8600   35.4507 C   0  0  0  0  0  0  0  0  0  0  0  0
    5.9718   16.3156   35.2139 O   0  0  0  0  0  0  0  0  0  0  0  0
    9.2545   16.0497   36.7852 C   0  0  0  0  0  0  0  0  0  0  0  0
    9.7720   17.2684   36.0180 C   0  0  0  0  0  0  0  0  0  0  0  0
    9.3893   18.5898   36.6923 C   0  0  0  0  0  0  0  0  0  0  0  0
   10.5313   19.2482   37.3219 N   0  0  0  0  0  0  0  0  0  0  0  0
   11.0890   20.3624   36.7915 C   0  0  0  0  0  0  0  0  0  0  0  0
   10.3000   21.4399   36.9806 N   0  0  0  0  0  0  0  0  0  0  0  0
   12.2199   20.4226   36.1958 N   0  0  0  0  0  0  0  0  0  0  0  0
    7.9497   15.4505   34.4478 N   0  0  0  0  0  0  0  0  0  0  0  0
    7.5611   14.4678   33.4293 C   0  0  2  0  0  0  0  0  0  0  0  0
    8.7132   14.1704   32.4483 C   0  0  0  0  0  0  0  0  0  0  0  0
    9.8869   14.4516   32.6950 O   0  0  0  0  0  0  0  0  0  0  0  0
    6.3613   14.9727   32.6222 C   0  0  0  0  0  0  0  0  0  0  0  0
    6.4641   16.4531   32.3723 C   0  0  0  0  0  0  0  0  0  0  0  0
    6.1800   17.3123   33.2000 O   0  0  0  0  0  0  0  0  0  0  0  0
    6.8995   16.7917   31.1292 N   0  0  0  0  0  0  0  0  0  0  0  0
    8.3552   13.4346   31.3368 N   0  0  0  0  0  0  0  0  0  0  0  0
    7.7344   12.1198   31.4557 C   0  0  2  0  0  0  0  0  0  0  0  0
    8.7024   11.2364   32.2839 C   0  0  0  0  0  0  0  0  0  0  0  0
    9.8651   11.5939   32.5126 O   0  0  0  0  0  0  0  0  0  0  0  0
    7.4538   11.5336   30.0568 C   0  0  0  0  0  0  0  0  0  0  0  0
    6.1247   11.9946   29.4146 C   0  0  1  0  0  0  0  0  0  0  0  0
    6.4066   12.6623   28.0647 C   0  0  0  0  0  0  0  0  0  0  0  0
    5.1237   10.8512   29.2218 C   0  0  0  0  0  0  0  0  0  0  0  0
    8.2006   10.0670   32.8202 N   0  0  0  0  0  0  0  0  0  0  0  0
    8.9661    8.8966   33.2758 C   0  0  2  0  0  0  0  0  0  0  0  0
    9.5991    8.0938   32.1059 C   0  0  0  0  0  0  0  0  0  0  0  0
    8.9874    7.9033   31.0572 O   0  0  0  0  0  0  0  0  0  0  0  0
    7.9423    8.0276   34.0148 C   0  0  0  0  0  0  0  0  0  0  0  0
    6.7978    8.9851   34.3293 C   0  0  0  0  0  0  0  0  0  0  0  0
    6.7964    9.9294   33.1418 C   0  0  0  0  0  0  0  0  0  0  0  0
   10.8622    7.5580   32.2944 N   0  0  0  0  0  0  0  0  0  0  0  0
   11.8381    7.6343   31.1876 C   0  0  2  0  0  0  0  0  0  0  0  0
   11.5992    6.6830   30.0021 C   0  0  0  0  0  0  0  0  0  0  0  0
   12.1477    6.8583   28.9129 O   0  0  0  0  0  0  0  0  0  0  0  0
   13.1723    7.2609   31.8441 C   0  0  0  0  0  0  0  0  0  0  0  0
   12.9952    7.7162   33.2831 C   0  0  0  0  0  0  0  0  0  0  0  0
   11.5366    7.3884   33.5704 C   0  0  0  0  0  0  0  0  0  0  0  0
   10.9082    5.5223   30.2961 N   0  0  0  0  0  0  0  0  0  0  0  0
   11.6372    4.2524   30.4030 C   0  0  2  0  0  0  0  0  0  0  0  0
   11.4610    3.3442   29.1744 C   0  0  0  0  0  0  0  0  0  0  0  0
   11.9857    2.2338   29.0942 O   0  0  0  0  0  0  0  0  0  0  0  0
   11.2034    3.4519   31.6502 C   0  0  0  0  0  0  0  0  0  0  0  0
   12.2918    3.1016   32.5094 O   0  0  0  0  0  0  0  0  0  0  0  0
   10.7044    3.8810   28.1462 N   0  0  0  0  0  0  0  0  0  0  0  0
    9.3991    3.3282   27.7993 C   0  0  2  0  0  0  0  0  0  0  0  0
    8.6440    4.3221   26.8953 C   0  0  0  0  0  0  0  0  0  0  0  0
    7.8770    5.1701   27.3472 O   0  0  0  0  0  0  0  0  0  0  0  0
    8.5377    3.0490   29.0523 C   0  0  0  0  0  0  0  0  0  0  0  0
    7.2796    2.2520   28.7954 C   0  0  0  0  0  0  0  0  0  0  0  0
    6.9483    1.8347   27.4975 C   0  0  0  0  0  0  0  0  0  0  0  0
    6.4139    1.9313   29.8497 C   0  0  0  0  0  0  0  0  0  0  0  0
    5.7837    1.0986   27.2628 C   0  0  0  0  0  0  0  0  0  0  0  0
    5.2484    1.1986   29.6133 C   0  0  0  0  0  0  0  0  0  0  0  0
    4.9349    0.7779   28.3210 C   0  0  0  0  0  0  0  0  0  0  0  0
    8.8645    4.1471   25.5451 N   0  0  0  0  0  0  0  0  0  0  0  0
    7.9387    4.6538   24.5093 C   0  0  2  0  0  0  0  0  0  0  0  0
    6.5857    5.0355   25.1597 C   0  0  0  0  0  0  0  0  0  0  0  0
    6.2353    4.6315   26.2687 O   0  0  0  0  0  0  0  0  0  0  0  0
    7.7380    3.5934   23.4160 C   0  0  0  0  0  0  0  0  0  0  0  0
    8.9489    3.3406   22.5499 C   0  0  0  0  0  0  0  0  0  0  0  0
    9.1358    4.0643   21.3609 C   0  0  0  0  0  0  0  0  0  0  0  0
    9.8936    2.3653   22.9041 C   0  0  0  0  0  0  0  0  0  0  0  0
   10.2303    3.8026   20.5374 C   0  0  0  0  0  0  0  0  0  0  0  0
   10.9910    2.1132   22.0795 C   0  0  0  0  0  0  0  0  0  0  0  0
   11.1579    2.8252   20.8930 C   0  0  0  0  0  0  0  0  0  0  0  0
    5.7720    5.8124   24.3511 N   0  0  0  0  0  0  0  0  0  0  0  0
    4.3116    5.7364   24.4566 C   0  0  2  0  0  0  0  0  0  0  0  0
    4.0153    4.5345   25.3845 C   0  0  0  0  0  0  0  0  0  0  0  0
    4.8839    3.6994   25.6519 O   0  0  0  0  0  0  0  0  0  0  0  0
    3.6354    5.6291   23.0753 C   0  0  2  0  0  0  0  0  0  0  0  0
    3.1221    4.3045   22.8885 O   0  0  0  0  0  0  0  0  0  0  0  0
    4.5421    5.9877   21.9015 C   0  0  0  0  0  0  0  0  0  0  0  0
    2.7228    4.4702   25.8523 N   0  0  0  0  0  0  0  0  0  0  0  0
    2.3106    3.6867   27.0226 C   0  0  2  0  0  0  0  0  0  0  0  0
    1.4515    2.4799   26.5204 C   0  0  0  0  0  0  0  0  0  0  0  0
    1.1059    1.5964   27.3175 O   0  0  0  0  0  0  0  0  0  0  0  0
    1.6569    4.5152   28.1392 C   0  0  0  0  0  0  0  0  0  0  0  0
    0.6678    3.7435   29.0202 C   0  0  0  0  0  0  0  0  0  0  0  0
    0.0671    4.5827   30.1122 C   0  0  0  0  0  0  0  0  0  0  0  0
   -0.7846    4.2295   30.9098 O   0  0  0  0  0  0  0  0  0  0  0  0
    0.6039    5.8169   30.1839 O   0  0  0  0  0  0  0  0  0  0  0  0
    1.0366    2.4075   25.2051 N   0  0  0  0  0  0  0  0  0  0  0  0
   -0.3198    2.3531   24.6423 C   0  0  2  0  0  0  0  0  0  0  0  0
   -1.1432    1.1010   24.9887 C   0  0  0  0  0  0  0  0  0  0  0  0
   -0.6936   -0.0382   25.0645 O   0  0  0  0  0  0  0  0  0  0  0  0
   -0.1060    2.3805   23.1164 C   0  0  0  0  0  0  0  0  0  0  0  0
    1.2604    3.0233   22.9454 C   0  0  0  0  0  0  0  0  0  0  0  0
    2.0307    2.4999   24.1416 C   0  0  0  0  0  0  0  0  0  0  0  0
   -2.4749    1.3238   25.2117 N   0  0  0  0  0  0  0  0  0  0  0  0
    9.8529    8.7739   44.4836 H   0  0  0  0  0  0  0  0  0  0  0  0
   12.5217   19.4797   35.9426 H   0  0  0  0  0  0  0  0  0  0  0  0
  1  2  2  0
  1  3  1  0
  1  4  1  0
  5  4  1  6
  5  6  1  0
  5  8  1  0
  6  7  2  0
  6 11  1  0
  8  9  1  1
  8 10  1  0
 11 12  1  0
 11 17  1  0
 12 13  1  6
 12 15  1  0
 13 14  2  0
 13 18  1  0
 15 16  1  0
 16 17  1  0
 18 19  1  0
 19 20  1  0
 19 22  1  6
 20 21  2  0
 20 26  1  0
 22 23  1  0
 23 24  1  1
 23 25  1  0
 26 27  1  0
 27 28  1  0
 27 30  1  1
 28 29  2  0
 28 37  1  0
 30 31  1  0
 31 32  1  0
 32 33  1  0
 33 34  1  0
 34 35  2  0
 34 36  1  0
 37 38  1  0
 38 39  1  0
 38 41  1  1
 39 40  2  0
 39 42  1  0
 42 43  1  0
 43 44  1  0
 43 46  1  6
 44 45  2  0
 44 53  1  0
 46 47  1  0
 47 48  1  0
 48 49  1  0
 49 50  1  0
 50 51  1  0
 50 52  2  0
 53 54  1  0
 54 55  1  0
 54 57  1  6
 55 56  2  0
 55 61  1  0
 57 58  1  0
 58 59  2  0
 58 60  1  0
 61 62  1  0
 62 63  1  0
 62 65  1  6
 63 64  2  0
 63 69  1  0
 65 66  1  0
 66 67  1  6
 66 68  1  0
 69 70  1  0
 69 75  1  0
 70 71  1  6
 70 73  1  0
 71 72  2  0
 71 76  1  0
 73 74  1  0
 74 75  1  0
 76 77  1  0
 76 82  1  0
 77 78  1  6
 77 80  1  0
 78 79  2  0
 78 83  1  0
 80 81  1  0
 81 82  1  0
 83 84  1  0
 84 85  1  0
 84 87  1  1
 85 86  2  0
 85 89  1  0
 87 88  1  0
 89 90  1  0
 90 91  1  0
 90 93  1  1
 91 92  2  0
 91100  1  0
 93 94  1  0
 94 95  2  0
 94 96  1  0
 95 97  1  0
 96 98  2  0
 97 99  2  0
 98 99  1  0
100101  1  0
101102  1  0
101104  1  6
102103  2  0
102111  1  0
104105  1  0
105106  2  0
105107  1  0
106108  1  0
107109  2  0
108110  2  0
109110  1  0
112111  1  6
112113  1  0
112115  1  0
113114  2  0
113118  1  0
115116  1  0
115117  1  6
118119  1  0
119120  1  0
119122  1  1
120121  2  0
120127  1  0
122123  1  0
123124  1  0
124125  2  0
124126  1  0
127128  1  0
127133  1  0
128129  1  6
128131  1  0
129130  2  0
129134  1  0
131132  1  0
132133  1  0
 35135  1  0
 52136  1  0
M  END
$$$$
