
     RDKit          3D

136141  0  0  0  0  0  0  0  0999 V2000
   -3.7267   20.3462   25.0820 C   0  0  0  0  0  0  0  0  0  0  0  0
   -2.9631   21.2899   24.9090 O   0  0  0  0  0  0  0  0  0  0  0  0
   -4.9284   20.1180   24.2008 C   0  0  0  0  0  0  0  0  0  0  0  0
   -3.6014   19.4297   26.1053 N   0  0  0  0  0  0  0  0  0  0  0  0
   -3.7723   18.0006   25.8236 C   0  0  2  0  0  0  0  0  0  0  0  0
   -3.5758   17.2428   27.1632 C   0  0  0  0  0  0  0  0  0  0  0  0
   -2.4396   17.0246   27.6007 O   0  0  0  0  0  0  0  0  0  0  0  0
   -2.8103   17.4850   24.7312 C   0  0  1  0  0  0  0  0  0  0  0  0
   -3.0299   15.9889   24.4729 C   0  0  0  0  0  0  0  0  0  0  0  0
   -2.9000   18.2630   23.4158 C   0  0  0  0  0  0  0  0  0  0  0  0
   -4.6872   16.7689   27.8215 N   0  0  0  0  0  0  0  0  0  0  0  0
   -4.5877   16.1893   29.1730 C   0  0  2  0  0  0  0  0  0  0  0  0
   -4.2325   14.6819   29.2095 C   0  0  0  0  0  0  0  0  0  0  0  0
   -5.0754   13.8019   28.9842 O   0  0  0  0  0  0  0  0  0  0  0  0
   -5.9591   16.4837   29.7899 C   0  0  0  0  0  0  0  0  0  0  0  0
   -6.8886   16.4058   28.5851 C   0  0  0  0  0  0  0  0  0  0  0  0
   -6.0708   17.0904   27.4984 C   0  0  0  0  0  0  0  0  0  0  0  0
   -2.9761   14.4013   29.6876 N   0  0  0  0  0  0  0  0  0  0  0  0
   -2.4686   13.0473   29.8966 C   0  0  2  0  0  0  0  0  0  0  0  0
   -1.8647   12.8981   31.3335 C   0  0  0  0  0  0  0  0  0  0  0  0
   -2.5547   12.8013   32.3479 O   0  0  0  0  0  0  0  0  0  0  0  0
   -1.5269   12.5599   28.7652 C   0  0  0  0  0  0  0  0  0  0  0  0
   -2.2335   11.8963   27.5578 C   0  0  1  0  0  0  0  0  0  0  0  0
   -3.2334   10.8079   27.9625 C   0  0  0  0  0  0  0  0  0  0  0  0
   -2.9664   12.9705   26.7437 C   0  0  0  0  0  0  0  0  0  0  0  0
   -0.4848   12.8212   31.3576 N   0  0  0  0  0  0  0  0  0  0  0  0
    0.3223   12.2036   32.4106 C   0  0  2  0  0  0  0  0  0  0  0  0
    0.6166   10.7302   32.0609 C   0  0  0  0  0  0  0  0  0  0  0  0
    1.3392   10.3869   31.1302 O   0  0  0  0  0  0  0  0  0  0  0  0
   -0.2321   12.3593   33.8367 C   0  0  0  0  0  0  0  0  0  0  0  0
   -1.6554   12.9387   33.8954 C   0  0  0  0  0  0  0  0  0  0  0  0
   -1.7937   13.9993   34.9894 C   0  0  0  0  0  0  0  0  0  0  0  0
   -0.5087   14.5877   35.3111 N   0  0  0  0  0  0  0  0  0  0  0  0
   -0.3499   15.5092   36.2823 C   0  0  0  0  0  0  0  0  0  0  0  0
   -1.2682   15.8937   37.0862 N   0  0  0  0  0  0  0  0  0  0  0  0
    0.9136   15.9750   36.3209 N   0  0  0  0  0  0  0  0  0  0  0  0
   -0.1037    9.8153   32.8137 N   0  0  0  0  0  0  0  0  0  0  0  0
    0.5315    8.6295   33.4182 C   0  0  2  0  0  0  0  0  0  0  0  0
    2.0658    8.5165   33.2348 C   0  0  0  0  0  0  0  0  0  0  0  0
    2.8584    8.8852   34.0967 O   0  0  0  0  0  0  0  0  0  0  0  0
   -0.0956    7.3616   32.8373 C   0  0  0  0  0  0  0  0  0  0  0  0
    2.4567    7.9679   32.0383 N   0  0  0  0  0  0  0  0  0  0  0  0
    3.8487    7.7054   31.6728 C   0  0  2  0  0  0  0  0  0  0  0  0
    4.7319    8.9580   31.9183 C   0  0  0  0  0  0  0  0  0  0  0  0
    4.2411   10.0656   32.1388 O   0  0  0  0  0  0  0  0  0  0  0  0
    3.8448    7.3142   30.1839 C   0  0  0  0  0  0  0  0  0  0  0  0
    2.8903    8.1235   29.3031 C   0  0  0  0  0  0  0  0  0  0  0  0
    3.5852    8.7040   28.0673 C   0  0  0  0  0  0  0  0  0  0  0  0
    4.0053    7.6705   27.1241 N   0  0  0  0  0  0  0  0  0  0  0  0
    3.1057    6.9567   26.4065 C   0  0  0  0  0  0  0  0  0  0  0  0
    3.5927    5.7404   26.0859 N   0  0  0  0  0  0  0  0  0  0  0  0
    1.9345    7.3488   26.0718 N   0  0  0  0  0  0  0  0  0  0  0  0
    6.0799    8.7007   32.0840 N   0  0  0  0  0  0  0  0  0  0  0  0
    6.9938    9.6589   32.7169 C   0  0  2  0  0  0  0  0  0  0  0  0
    8.1200   10.0979   31.7593 C   0  0  0  0  0  0  0  0  0  0  0  0
    9.2338    9.5717   31.7561 O   0  0  0  0  0  0  0  0  0  0  0  0
    7.6363    9.0479   33.9658 C   0  0  0  0  0  0  0  0  0  0  0  0
    7.8854    7.5756   33.7785 C   0  0  0  0  0  0  0  0  0  0  0  0
    7.0113    6.7582   33.5104 O   0  0  0  0  0  0  0  0  0  0  0  0
    9.1808    7.1929   33.9363 N   0  0  0  0  0  0  0  0  0  0  0  0
    7.7452   11.0233   30.8064 N   0  0  0  0  0  0  0  0  0  0  0  0
    7.6780   12.4491   31.1076 C   0  0  2  0  0  0  0  0  0  0  0  0
    7.6962   12.5859   32.6517 C   0  0  0  0  0  0  0  0  0  0  0  0
    7.8007   11.5946   33.3853 O   0  0  0  0  0  0  0  0  0  0  0  0
    6.4141   13.0689   30.4769 C   0  0  0  0  0  0  0  0  0  0  0  0
    6.3591   14.6138   30.5181 C   0  0  1  0  0  0  0  0  0  0  0  0
    7.7008   15.1663   31.0102 C   0  0  0  0  0  0  0  0  0  0  0  0
    6.0140   15.2378   29.1624 C   0  0  0  0  0  0  0  0  0  0  0  0
    7.6643   13.8609   33.1812 N   0  0  0  0  0  0  0  0  0  0  0  0
    8.7010   14.8980   33.0671 C   0  0  2  0  0  0  0  0  0  0  0  0
    9.9720   14.5785   33.9014 C   0  0  0  0  0  0  0  0  0  0  0  0
    9.9629   14.6398   35.1288 O   0  0  0  0  0  0  0  0  0  0  0  0
    8.0336   16.1729   33.5953 C   0  0  0  0  0  0  0  0  0  0  0  0
    6.5407   15.8699   33.5231 C   0  0  0  0  0  0  0  0  0  0  0  0
    6.4719   14.3825   33.8138 C   0  0  0  0  0  0  0  0  0  0  0  0
   11.1350   14.2633   33.2185 N   0  0  0  0  0  0  0  0  0  0  0  0
   12.1694   13.4652   33.9085 C   0  0  2  0  0  0  0  0  0  0  0  0
   12.9876   14.1970   34.9869 C   0  0  0  0  0  0  0  0  0  0  0  0
   12.4597   14.6397   36.0082 O   0  0  0  0  0  0  0  0  0  0  0  0
   13.1222   13.0427   32.7843 C   0  0  0  0  0  0  0  0  0  0  0  0
   12.2205   12.9861   31.5624 C   0  0  0  0  0  0  0  0  0  0  0  0
   11.2779   14.1623   31.7758 C   0  0  0  0  0  0  0  0  0  0  0  0
   14.3607   14.1402   34.8373 N   0  0  0  0  0  0  0  0  0  0  0  0
   15.2253   14.7884   35.8312 C   0  0  2  0  0  0  0  0  0  0  0  0
   16.7225   14.6854   35.4951 C   0  0  0  0  0  0  0  0  0  0  0  0
   17.5995   15.0833   36.2613 O   0  0  0  0  0  0  0  0  0  0  0  0
   15.0140   14.1947   37.2409 C   0  0  0  0  0  0  0  0  0  0  0  0
   13.7154   13.6264   37.4311 O   0  0  0  0  0  0  0  0  0  0  0  0
   17.0135   14.1514   34.2510 N   0  0  0  0  0  0  0  0  0  0  0  0
   18.3144   14.3606   33.6235 C   0  0  2  0  0  0  0  0  0  0  0  0
   18.3493   15.7536   32.9650 C   0  0  0  0  0  0  0  0  0  0  0  0
   18.5019   16.7852   33.6163 O   0  0  0  0  0  0  0  0  0  0  0  0
   18.6127   13.2966   32.5423 C   0  0  0  0  0  0  0  0  0  0  0  0
   20.0767   13.1165   32.2129 C   0  0  0  0  0  0  0  0  0  0  0  0
   21.0165   14.0963   32.5668 C   0  0  0  0  0  0  0  0  0  0  0  0
   20.5166   11.9731   31.5326 C   0  0  0  0  0  0  0  0  0  0  0  0
   22.3695   13.9275   32.2601 C   0  0  0  0  0  0  0  0  0  0  0  0
   21.8686   11.8071   31.2234 C   0  0  0  0  0  0  0  0  0  0  0  0
   22.7964   12.7817   31.5910 C   0  0  0  0  0  0  0  0  0  0  0  0
   18.1476   15.7455   31.6007 N   0  0  0  0  0  0  0  0  0  0  0  0
   19.2571   15.8195   30.6258 C   0  0  2  0  0  0  0  0  0  0  0  0
   20.4640   14.9989   31.1449 C   0  0  0  0  0  0  0  0  0  0  0  0
   20.3414   13.9773   31.8210 O   0  0  0  0  0  0  0  0  0  0  0  0
   19.6553   17.2842   30.3891 C   0  0  0  0  0  0  0  0  0  0  0  0
   20.5138   17.5171   29.1688 C   0  0  0  0  0  0  0  0  0  0  0  0
   21.8936   17.7419   29.3030 C   0  0  0  0  0  0  0  0  0  0  0  0
   19.9466   17.5364   27.8854 C   0  0  0  0  0  0  0  0  0  0  0  0
   22.6812   18.0003   28.1815 C   0  0  0  0  0  0  0  0  0  0  0  0
   20.7415   17.7880   26.7661 C   0  0  0  0  0  0  0  0  0  0  0  0
   22.1069   18.0269   26.9121 C   0  0  0  0  0  0  0  0  0  0  0  0
   21.6955   15.5576   30.8435 N   0  0  0  0  0  0  0  0  0  0  0  0
   22.8588   14.7105   30.5629 C   0  0  2  0  0  0  0  0  0  0  0  0
   24.0406   15.6790   30.3211 C   0  0  0  0  0  0  0  0  0  0  0  0
   23.8652   16.8974   30.2313 O   0  0  0  0  0  0  0  0  0  0  0  0
   22.6032   13.7457   29.3877 C   0  0  2  0  0  0  0  0  0  0  0  0
   21.4867   12.8999   29.6892 O   0  0  0  0  0  0  0  0  0  0  0  0
   23.8028   12.8808   29.0116 C   0  0  0  0  0  0  0  0  0  0  0  0
   25.2691   15.0719   30.1947 N   0  0  0  0  0  0  0  0  0  0  0  0
   25.9126   14.7795   28.9088 C   0  0  2  0  0  0  0  0  0  0  0  0
   27.2136   13.9588   29.1929 C   0  0  0  0  0  0  0  0  0  0  0  0
   27.7385   13.3026   28.2823 O   0  0  0  0  0  0  0  0  0  0  0  0
   26.1165   16.0089   28.0103 C   0  0  0  0  0  0  0  0  0  0  0  0
   27.4844   16.6875   28.1462 C   0  0  0  0  0  0  0  0  0  0  0  0
   27.5652   18.0068   27.4316 C   0  0  0  0  0  0  0  0  0  0  0  0
   28.3832   18.3208   26.5839 O   0  0  0  0  0  0  0  0  0  0  0  0
   26.5785   18.8561   27.7804 O   0  0  0  0  0  0  0  0  0  0  0  0
   27.8100   13.9897   30.4381 N   0  0  0  0  0  0  0  0  0  0  0  0
   29.0984   13.4415   30.8842 C   0  0  2  0  0  0  0  0  0  0  0  0
   29.2303   11.9098   30.8403 C   0  0  0  0  0  0  0  0  0  0  0  0
   28.5359   11.1249   31.4787 O   0  0  0  0  0  0  0  0  0  0  0  0
   29.2223   13.8925   32.3526 C   0  0  0  0  0  0  0  0  0  0  0  0
   28.3182   15.1106   32.4433 C   0  0  0  0  0  0  0  0  0  0  0  0
   27.1795   14.7551   31.5078 C   0  0  0  0  0  0  0  0  0  0  0  0
   30.2170   11.4340   30.0199 N   0  0  0  0  0  0  0  0  0  0  0  0
   -0.9207   15.8491   38.0464 H   0  0  0  0  0  0  0  0  0  0  0  0
    1.7184    8.2240   26.5531 H   0  0  0  0  0  0  0  0  0  0  0  0
  1  2  2  0
  1  3  1  0
  1  4  1  0
  5  4  1  1
  5  6  1  0
  5  8  1  0
  6  7  2  0
  6 11  1  0
  8  9  1  6
  8 10  1  0
 11 12  1  0
 11 17  1  0
 12 13  1  6
 12 15  1  0
 13 14  2  0
 13 18  1  0
 15 16  1  0
 16 17  1  0
 18 19  1  0
 19 20  1  0
 19 22  1  6
 20 21  2  0
 20 26  1  0
 22 23  1  0
 23 24  1  1
 23 25  1  0
 26 27  1  0
 27 28  1  0
 27 30  1  1
 28 29  2  0
 28 37  1  0
 30 31  1  0
 31 32  1  0
 32 33  1  0
 33 34  1  0
 34 35  2  0
 34 36  1  0
 37 38  1  0
 38 39  1  0
 38 41  1  6
 39 40  2  0
 39 42  1  0
 42 43  1  0
 43 44  1  0
 43 46  1  6
 44 45  2  0
 44 53  1  0
 46 47  1  0
 47 48  1  0
 48 49  1  0
 49 50  1  0
 50 51  1  0
 50 52  2  0
 53 54  1  0
 54 55  1  0
 54 57  1  1
 55 56  2  0
 55 61  1  0
 57 58  1  0
 58 59  2  0
 58 60  1  0
 61 62  1  0
 62 63  1  0
 62 65  1  1
 63 64  2  0
 63 69  1  0
 65 66  1  0
 66 67  1  6
 66 68  1  0
 69 70  1  0
 69 75  1  0
 70 71  1  1
 70 73  1  0
 71 72  2  0
 71 76  1  0
 73 74  1  0
 74 75  1  0
 76 77  1  0
 76 82  1  0
 77 78  1  1
 77 80  1  0
 78 79  2  0
 78 83  1  0
 80 81  1  0
 81 82  1  0
 83 84  1  0
 84 85  1  0
 84 87  1  1
 85 86  2  0
 85 89  1  0
 87 88  1  0
 89 90  1  0
 90 91  1  0
 90 93  1  6
 91 92  2  0
 91100  1  0
 93 94  1  0
 94 95  2  0
 94 96  1  0
 95 97  1  0
 96 98  2  0
 97 99  2  0
 98 99  1  0
100101  1  0
101102  1  0
101104  1  1
102103  2  0
102111  1  0
104105  1  0
105106  2  0
105107  1  0
106108  1  0
107109  2  0
108110  2  0
109110  1  0
112111  1  6
112113  1  0
112115  1  0
113114  2  0
113118  1  0
115116  1  0
115117  1  1
118119  1  0
119120  1  0
119122  1  1
120121  2  0
120127  1  0
122123  1  0
123124  1  0
124125  2  0
124126  1  0
127128  1  0
127133  1  0
128129  1  1
128131  1  0
129130  2  0
129134  1  0
131132  1  0
132133  1  0
 35135  1  0
 52136  1  0
M  END
$$$$
