
     RDKit          3D

136141  0  0  0  0  0  0  0  0999 V2000
   -3.2263   13.7496   31.2501 C   0  0  0  0  0  0  0  0  0  0  0  0
   -3.9858   12.9354   31.7637 O   0  0  0  0  0  0  0  0  0  0  0  0
   -3.4558   14.2929   29.8627 C   0  0  0  0  0  0  0  0  0  0  0  0
   -2.0774   14.2195   31.8517 N   0  0  0  0  0  0  0  0  0  0  0  0
   -2.0508   14.4234   33.3039 C   0  0  2  0  0  0  0  0  0  0  0  0
   -1.8321   15.9397   33.5498 C   0  0  0  0  0  0  0  0  0  0  0  0
   -2.1587   16.7687   32.6920 O   0  0  0  0  0  0  0  0  0  0  0  0
   -0.9741   13.5708   34.0100 C   0  0  1  0  0  0  0  0  0  0  0  0
   -1.5129   12.1719   34.3353 C   0  0  0  0  0  0  0  0  0  0  0  0
    0.3348   13.4590   33.2239 C   0  0  0  0  0  0  0  0  0  0  0  0
   -1.2149   16.3363   34.7138 N   0  0  0  0  0  0  0  0  0  0  0  0
   -0.7167   17.7127   34.8860 C   0  0  2  0  0  0  0  0  0  0  0  0
    0.7114   17.9604   34.3395 C   0  0  0  0  0  0  0  0  0  0  0  0
    1.6209   17.1296   34.4752 O   0  0  0  0  0  0  0  0  0  0  0  0
   -0.8139   17.9413   36.3980 C   0  0  0  0  0  0  0  0  0  0  0  0
   -0.5370   16.5531   36.9621 C   0  0  0  0  0  0  0  0  0  0  0  0
   -1.2968   15.6527   35.9977 C   0  0  0  0  0  0  0  0  0  0  0  0
    0.9313   19.2310   33.8674 N   0  0  0  0  0  0  0  0  0  0  0  0
    2.2371   19.7243   33.4362 C   0  0  2  0  0  0  0  0  0  0  0  0
    3.3884   18.8891   34.0909 C   0  0  0  0  0  0  0  0  0  0  0  0
    3.9864   17.9888   33.5026 O   0  0  0  0  0  0  0  0  0  0  0  0
    2.4019   21.2575   33.5990 C   0  0  0  0  0  0  0  0  0  0  0  0
    3.8632   21.7562   33.7140 C   0  0  1  0  0  0  0  0  0  0  0  0
    4.7782   21.2145   32.6106 C   0  0  0  0  0  0  0  0  0  0  0  0
    3.8825   23.2896   33.6711 C   0  0  0  0  0  0  0  0  0  0  0  0
    3.7182   19.2941   35.3707 N   0  0  0  0  0  0  0  0  0  0  0  0
    4.8625   18.8230   36.1520 C   0  0  2  0  0  0  0  0  0  0  0  0
    4.6736   17.3397   36.5316 C   0  0  0  0  0  0  0  0  0  0  0  0
    3.5876   16.8493   36.8250 O   0  0  0  0  0  0  0  0  0  0  0  0
    5.2248   19.6894   37.3699 C   0  0  0  0  0  0  0  0  0  0  0  0
    5.2320   18.9234   38.7034 C   0  0  0  0  0  0  0  0  0  0  0  0
    4.6768   19.7710   39.8498 C   0  0  0  0  0  0  0  0  0  0  0  0
    5.6105   20.8133   40.2277 N   0  0  0  0  0  0  0  0  0  0  0  0
    5.3452   21.7169   41.1923 C   0  0  0  0  0  0  0  0  0  0  0  0
    4.4960   22.6690   41.0923 N   0  0  0  0  0  0  0  0  0  0  0  0
    6.0778   21.4886   42.2996 N   0  0  0  0  0  0  0  0  0  0  0  0
    5.8584   16.6264   36.6333 N   0  0  0  0  0  0  0  0  0  0  0  0
    5.8752   15.1676   36.8493 C   0  0  2  0  0  0  0  0  0  0  0  0
    6.3665   14.6954   38.2407 C   0  0  0  0  0  0  0  0  0  0  0  0
    5.6675   14.7790   39.2464 O   0  0  0  0  0  0  0  0  0  0  0  0
    6.7664   14.5055   35.7978 C   0  0  0  0  0  0  0  0  0  0  0  0
    7.6372   14.1750   38.2487 N   0  0  0  0  0  0  0  0  0  0  0  0
    8.3897   13.8684   39.4652 C   0  0  2  0  0  0  0  0  0  0  0  0
    9.7924   13.2999   39.1207 C   0  0  0  0  0  0  0  0  0  0  0  0
   10.7382   14.0343   38.8335 O   0  0  0  0  0  0  0  0  0  0  0  0
    7.5540   12.8415   40.2506 C   0  0  0  0  0  0  0  0  0  0  0  0
    8.3584   11.9107   41.1609 C   0  0  0  0  0  0  0  0  0  0  0  0
    7.4646   10.9500   41.9515 C   0  0  0  0  0  0  0  0  0  0  0  0
    6.0741   10.9835   41.5049 N   0  0  0  0  0  0  0  0  0  0  0  0
    5.4753    9.8949   40.9663 C   0  0  0  0  0  0  0  0  0  0  0  0
    4.4053   10.2446   40.2232 N   0  0  0  0  0  0  0  0  0  0  0  0
    5.8566    8.6820   41.1114 N   0  0  0  0  0  0  0  0  0  0  0  0
    9.9539   11.9495   39.3680 N   0  0  0  0  0  0  0  0  0  0  0  0
   11.2357   11.2606   39.1773 C   0  0  2  0  0  0  0  0  0  0  0  0
   11.6419   11.2032   37.6908 C   0  0  0  0  0  0  0  0  0  0  0  0
   12.6621   10.6333   37.3010 O   0  0  0  0  0  0  0  0  0  0  0  0
   11.1624    9.8267   39.7107 C   0  0  0  0  0  0  0  0  0  0  0  0
   11.0634    8.8361   38.5822 C   0  0  0  0  0  0  0  0  0  0  0  0
   10.0061    8.3970   38.1424 O   0  0  0  0  0  0  0  0  0  0  0  0
   12.2576    8.4391   38.0669 N   0  0  0  0  0  0  0  0  0  0  0  0
   10.7058   11.7099   36.8122 N   0  0  0  0  0  0  0  0  0  0  0  0
   10.9397   11.7329   35.3724 C   0  0  2  0  0  0  0  0  0  0  0  0
   12.4155   12.1583   35.1613 C   0  0  0  0  0  0  0  0  0  0  0  0
   13.3447   11.5595   35.7179 O   0  0  0  0  0  0  0  0  0  0  0  0
    9.9467   12.6928   34.6856 C   0  0  0  0  0  0  0  0  0  0  0  0
    9.1488   12.0725   33.5149 C   0  0  1  0  0  0  0  0  0  0  0  0
    8.0890   13.0659   33.0275 C   0  0  0  0  0  0  0  0  0  0  0  0
   10.0373   11.6532   32.3397 C   0  0  0  0  0  0  0  0  0  0  0  0
   12.6641   13.1854   34.2724 N   0  0  0  0  0  0  0  0  0  0  0  0
   11.9331   13.4848   33.0316 C   0  0  2  0  0  0  0  0  0  0  0  0
   12.1940   12.4436   31.9085 C   0  0  0  0  0  0  0  0  0  0  0  0
   12.0401   11.2402   32.1045 O   0  0  0  0  0  0  0  0  0  0  0  0
   12.4496   14.8621   32.6003 C   0  0  0  0  0  0  0  0  0  0  0  0
   13.0731   15.4401   33.8663 C   0  0  0  0  0  0  0  0  0  0  0  0
   13.6339   14.2178   34.5685 C   0  0  0  0  0  0  0  0  0  0  0  0
   12.6496   12.9075   30.6856 N   0  0  0  0  0  0  0  0  0  0  0  0
   12.2479   12.1883   29.4590 C   0  0  2  0  0  0  0  0  0  0  0  0
   12.9296   10.8313   29.2109 C   0  0  0  0  0  0  0  0  0  0  0  0
   13.6691   10.3171   30.0514 O   0  0  0  0  0  0  0  0  0  0  0  0
   12.6433   13.1410   28.3250 C   0  0  0  0  0  0  0  0  0  0  0  0
   12.5348   14.5146   28.9662 C   0  0  0  0  0  0  0  0  0  0  0  0
   13.0401   14.2739   30.3819 C   0  0  0  0  0  0  0  0  0  0  0  0
   12.4991   10.1410   28.0933 N   0  0  0  0  0  0  0  0  0  0  0  0
   12.2505    8.6969   28.1847 C   0  0  2  0  0  0  0  0  0  0  0  0
   11.8052    8.0704   26.8527 C   0  0  0  0  0  0  0  0  0  0  0  0
   11.5149    8.7499   25.8685 O   0  0  0  0  0  0  0  0  0  0  0  0
   11.1754    8.3718   29.2443 C   0  0  0  0  0  0  0  0  0  0  0  0
   10.4238    7.1911   28.9497 O   0  0  0  0  0  0  0  0  0  0  0  0
   11.7134    6.6886   26.8509 N   0  0  0  0  0  0  0  0  0  0  0  0
   11.1347    5.9704   25.7199 C   0  0  2  0  0  0  0  0  0  0  0  0
   10.9673    4.4830   26.0872 C   0  0  0  0  0  0  0  0  0  0  0  0
   11.8500    3.8423   26.6547 O   0  0  0  0  0  0  0  0  0  0  0  0
   12.0210    6.0696   24.4572 C   0  0  0  0  0  0  0  0  0  0  0  0
   13.1201    7.1044   24.5303 C   0  0  0  0  0  0  0  0  0  0  0  0
   12.8830    8.4303   24.1376 C   0  0  0  0  0  0  0  0  0  0  0  0
   14.4004    6.7508   24.9768 C   0  0  0  0  0  0  0  0  0  0  0  0
   13.9016    9.3848   24.2055 C   0  0  0  0  0  0  0  0  0  0  0  0
   15.4186    7.7049   25.0408 C   0  0  0  0  0  0  0  0  0  0  0  0
   15.1687    9.0232   24.6598 C   0  0  0  0  0  0  0  0  0  0  0  0
    9.7716    3.9263   25.6840 N   0  0  0  0  0  0  0  0  0  0  0  0
    8.5348    4.7191   25.5150 C   0  0  2  0  0  0  0  0  0  0  0  0
    7.5304    4.3660   26.6402 C   0  0  0  0  0  0  0  0  0  0  0  0
    6.8679    5.2130   27.2400 O   0  0  0  0  0  0  0  0  0  0  0  0
    7.9206    4.4514   24.1325 C   0  0  0  0  0  0  0  0  0  0  0  0
    8.3816    5.3899   23.0430 C   0  0  0  0  0  0  0  0  0  0  0  0
    9.5306    5.0960   22.2909 C   0  0  0  0  0  0  0  0  0  0  0  0
    7.6862    6.5799   22.7792 C   0  0  0  0  0  0  0  0  0  0  0  0
    9.9831    5.9820   21.3137 C   0  0  0  0  0  0  0  0  0  0  0  0
    8.1398    7.4590   21.7947 C   0  0  0  0  0  0  0  0  0  0  0  0
    9.2910    7.1659   21.0658 C   0  0  0  0  0  0  0  0  0  0  0  0
    7.4980    3.0191   26.9632 N   0  0  0  0  0  0  0  0  0  0  0  0
    6.2353    2.2740   26.9612 C   0  0  2  0  0  0  0  0  0  0  0  0
    5.9935    1.8528   25.4924 C   0  0  0  0  0  0  0  0  0  0  0  0
    6.4441    2.5129   24.5519 O   0  0  0  0  0  0  0  0  0  0  0  0
    5.0776    3.0937   27.5651 C   0  0  2  0  0  0  0  0  0  0  0  0
    5.5937    4.0352   28.5138 O   0  0  0  0  0  0  0  0  0  0  0  0
    3.9915    2.2530   28.2301 C   0  0  0  0  0  0  0  0  0  0  0  0
    5.2301    0.7188   25.3343 N   0  0  0  0  0  0  0  0  0  0  0  0
    5.7838   -0.6138   25.0687 C   0  0  2  0  0  0  0  0  0  0  0  0
    5.9252   -0.7805   23.5198 C   0  0  0  0  0  0  0  0  0  0  0  0
    7.0336   -0.6397   22.9842 O   0  0  0  0  0  0  0  0  0  0  0  0
    5.0367   -1.7594   25.7687 C   0  0  0  0  0  0  0  0  0  0  0  0
    3.5088   -1.6919   25.6643 C   0  0  0  0  0  0  0  0  0  0  0  0
    2.8215   -1.7214   27.0001 C   0  0  0  0  0  0  0  0  0  0  0  0
    1.7392   -2.2264   27.2452 O   0  0  0  0  0  0  0  0  0  0  0  0
    3.5528   -1.1568   27.9814 O   0  0  0  0  0  0  0  0  0  0  0  0
    4.8355   -1.1248   22.7444 N   0  0  0  0  0  0  0  0  0  0  0  0
    4.6931   -1.1780   21.2827 C   0  0  2  0  0  0  0  0  0  0  0  0
    4.8151    0.1658   20.5446 C   0  0  0  0  0  0  0  0  0  0  0  0
    3.9592    0.6437   19.8065 O   0  0  0  0  0  0  0  0  0  0  0  0
    3.2707   -1.7249   21.0532 C   0  0  0  0  0  0  0  0  0  0  0  0
    2.9487   -2.4702   22.3377 C   0  0  0  0  0  0  0  0  0  0  0  0
    3.6310   -1.6266   23.3964 C   0  0  0  0  0  0  0  0  0  0  0  0
    5.9891    0.8383   20.7506 N   0  0  0  0  0  0  0  0  0  0  0  0
    4.9888   23.5643   41.0753 H   0  0  0  0  0  0  0  0  0  0  0  0
    5.9013    8.4562   42.1070 H   0  0  0  0  0  0  0  0  0  0  0  0
  1  2  2  0
  1  3  1  0
  1  4  1  0
  5  4  1  6
  5  6  1  0
  5  8  1  0
  6  7  2  0
  6 11  1  0
  8  9  1  6
  8 10  1  0
 11 12  1  0
 11 17  1  0
 12 13  1  1
 12 15  1  0
 13 14  2  0
 13 18  1  0
 15 16  1  0
 16 17  1  0
 18 19  1  0
 19 20  1  0
 19 22  1  1
 20 21  2  0
 20 26  1  0
 22 23  1  0
 23 24  1  6
 23 25  1  0
 26 27  1  0
 27 28  1  0
 27 30  1  1
 28 29  2  0
 28 37  1  0
 30 31  1  0
 31 32  1  0
 32 33  1  0
 33 34  1  0
 34 35  2  0
 34 36  1  0
 37 38  1  0
 38 39  1  0
 38 41  1  6
 39 40  2  0
 39 42  1  0
 42 43  1  0
 43 44  1  0
 43 46  1  6
 44 45  2  0
 44 53  1  0
 46 47  1  0
 47 48  1  0
 48 49  1  0
 49 50  1  0
 50 51  1  0
 50 52  2  0
 53 54  1  0
 54 55  1  0
 54 57  1  6
 55 56  2  0
 55 61  1  0
 57 58  1  0
 58 59  2  0
 58 60  1  0
 61 62  1  0
 62 63  1  0
 62 65  1  6
 63 64  2  0
 63 69  1  0
 65 66  1  0
 66 67  1  6
 66 68  1  0
 69 70  1  0
 69 75  1  0
 70 71  1  6
 70 73  1  0
 71 72  2  0
 71 76  1  0
 73 74  1  0
 74 75  1  0
 76 77  1  0
 76 82  1  0
 77 78  1  6
 77 80  1  0
 78 79  2  0
 78 83  1  0
 80 81  1  0
 81 82  1  0
 83 84  1  0
 84 85  1  0
 84 87  1  1
 85 86  2  0
 85 89  1  0
 87 88  1  0
 89 90  1  0
 90 91  1  0
 90 93  1  6
 91 92  2  0
 91100  1  0
 93 94  1  0
 94 95  2  0
 94 96  1  0
 95 97  1  0
 96 98  2  0
 97 99  2  0
 98 99  1  0
100101  1  0
101102  1  0
101104  1  6
102103  2  0
102111  1  0
104105  1  0
105106  2  0
105107  1  0
106108  1  0
107109  2  0
108110  2  0
109110  1  0
112111  1  6
112113  1  0
112115  1  0
113114  2  0
113118  1  0
115116  1  0
115117  1  1
118119  1  0
119120  1  0
119122  1  6
120121  2  0
120127  1  0
122123  1  0
123124  1  0
124125  2  0
124126  1  0
127128  1  0
127133  1  0
128129  1  1
128131  1  0
129130  2  0
129134  1  0
131132  1  0
132133  1  0
 35135  1  0
 52136  1  0
M  END
$$$$
