
     RDKit          3D

136141  0  0  0  0  0  0  0  0999 V2000
   18.2879   53.3748   21.9484 C   0  0  0  0  0  0  0  0  0  0  0  0
   18.9706   53.8977   22.8226 O   0  0  0  0  0  0  0  0  0  0  0  0
   18.6206   53.5126   20.4845 C   0  0  0  0  0  0  0  0  0  0  0  0
   17.1389   52.6526   22.1952 N   0  0  0  0  0  0  0  0  0  0  0  0
   17.2375   51.3098   22.7769 C   0  0  2  0  0  0  0  0  0  0  0  0
   17.9743   50.4161   21.7445 C   0  0  0  0  0  0  0  0  0  0  0  0
   17.9292   50.6826   20.5376 O   0  0  0  0  0  0  0  0  0  0  0  0
   15.8632   50.7203   23.1624 C   0  0  1  0  0  0  0  0  0  0  0  0
   15.3012   51.4166   24.4083 C   0  0  0  0  0  0  0  0  0  0  0  0
   14.8355   50.7642   22.0285 C   0  0  0  0  0  0  0  0  0  0  0  0
   18.6274   49.2914   22.1938 N   0  0  0  0  0  0  0  0  0  0  0  0
   19.2417   48.3361   21.2545 C   0  0  2  0  0  0  0  0  0  0  0  0
   18.2793   47.2529   20.7065 C   0  0  0  0  0  0  0  0  0  0  0  0
   17.0709   47.4705   20.5393 O   0  0  0  0  0  0  0  0  0  0  0  0
   20.4002   47.7381   22.0597 C   0  0  0  0  0  0  0  0  0  0  0  0
   19.8528   47.7420   23.4817 C   0  0  0  0  0  0  0  0  0  0  0  0
   19.1245   49.0776   23.5463 C   0  0  0  0  0  0  0  0  0  0  0  0
   18.8291   45.9990   20.6014 N   0  0  0  0  0  0  0  0  0  0  0  0
   18.0866   44.8187   20.1651 C   0  0  2  0  0  0  0  0  0  0  0  0
   18.4129   43.5901   21.0793 C   0  0  0  0  0  0  0  0  0  0  0  0
   19.4219   43.5207   21.7803 O   0  0  0  0  0  0  0  0  0  0  0  0
   18.2257   44.5283   18.6484 C   0  0  0  0  0  0  0  0  0  0  0  0
   19.0611   45.5605   17.8521 C   0  0  1  0  0  0  0  0  0  0  0  0
   18.4838   46.9790   17.9044 C   0  0  0  0  0  0  0  0  0  0  0  0
   20.4949   45.5841   18.3975 C   0  0  0  0  0  0  0  0  0  0  0  0
   17.4343   42.6138   21.0784 N   0  0  0  0  0  0  0  0  0  0  0  0
   16.6351   42.1984   22.2318 C   0  0  2  0  0  0  0  0  0  0  0  0
   15.4670   41.3005   21.7746 C   0  0  0  0  0  0  0  0  0  0  0  0
   14.5617   41.6883   21.0424 O   0  0  0  0  0  0  0  0  0  0  0  0
   16.1619   43.3410   23.1461 C   0  0  0  0  0  0  0  0  0  0  0  0
   15.6328   44.5705   22.3890 C   0  0  0  0  0  0  0  0  0  0  0  0
   14.5861   44.1869   21.3410 C   0  0  0  0  0  0  0  0  0  0  0  0
   13.2593   44.5999   21.7533 N   0  0  0  0  0  0  0  0  0  0  0  0
   13.0377   45.6875   22.5184 C   0  0  0  0  0  0  0  0  0  0  0  0
   13.9487   46.3777   23.0940 N   0  0  0  0  0  0  0  0  0  0  0  0
   11.7248   45.9794   22.5956 N   0  0  0  0  0  0  0  0  0  0  0  0
   15.4568   40.0435   22.3601 N   0  0  0  0  0  0  0  0  0  0  0  0
   15.4219   38.8079   21.5558 C   0  0  2  0  0  0  0  0  0  0  0  0
   16.7714   38.3652   20.9370 C   0  0  0  0  0  0  0  0  0  0  0  0
   17.6638   39.1644   20.6689 O   0  0  0  0  0  0  0  0  0  0  0  0
   14.4224   38.9718   20.4101 C   0  0  0  0  0  0  0  0  0  0  0  0
   16.8827   37.0135   20.7226 N   0  0  0  0  0  0  0  0  0  0  0  0
   18.0947   36.3586   20.2303 C   0  0  2  0  0  0  0  0  0  0  0  0
   18.4551   35.1289   21.1063 C   0  0  0  0  0  0  0  0  0  0  0  0
   19.5046   34.5044   20.9487 O   0  0  0  0  0  0  0  0  0  0  0  0
   19.2128   37.4158   20.2738 C   0  0  0  0  0  0  0  0  0  0  0  0
   20.3863   37.0812   21.1974 C   0  0  0  0  0  0  0  0  0  0  0  0
   21.7155   36.9834   20.4421 C   0  0  0  0  0  0  0  0  0  0  0  0
   21.8203   37.9636   19.3640 N   0  0  0  0  0  0  0  0  0  0  0  0
   22.9471   38.0858   18.6230 C   0  0  0  0  0  0  0  0  0  0  0  0
   23.4888   39.3135   18.7583 N   0  0  0  0  0  0  0  0  0  0  0  0
   23.4647   37.1724   17.8913 N   0  0  0  0  0  0  0  0  0  0  0  0
   17.6300   34.9244   22.1964 N   0  0  0  0  0  0  0  0  0  0  0  0
   17.6521   33.6840   22.9805 C   0  0  2  0  0  0  0  0  0  0  0  0
   18.9676   33.5261   23.7695 C   0  0  0  0  0  0  0  0  0  0  0  0
   20.0763   33.6516   23.2473 O   0  0  0  0  0  0  0  0  0  0  0  0
   17.4907   32.4652   22.0671 C   0  0  0  0  0  0  0  0  0  0  0  0
   16.4191   32.7013   21.0373 C   0  0  0  0  0  0  0  0  0  0  0  0
   16.5827   32.5640   19.8297 O   0  0  0  0  0  0  0  0  0  0  0  0
   15.2201   33.0957   21.5436 N   0  0  0  0  0  0  0  0  0  0  0  0
   18.8137   33.3786   25.1332 N   0  0  0  0  0  0  0  0  0  0  0  0
   19.5534   32.3693   25.8831 C   0  0  2  0  0  0  0  0  0  0  0  0
   18.9291   30.9953   25.5285 C   0  0  0  0  0  0  0  0  0  0  0  0
   17.8353   30.9131   24.9554 O   0  0  0  0  0  0  0  0  0  0  0  0
   19.4885   32.6730   27.3940 C   0  0  0  0  0  0  0  0  0  0  0  0
   20.0529   34.0533   27.8034 C   0  0  1  0  0  0  0  0  0  0  0  0
   21.5704   34.0748   27.5934 C   0  0  0  0  0  0  0  0  0  0  0  0
   19.4127   35.2143   27.0361 C   0  0  0  0  0  0  0  0  0  0  0  0
   19.6700   29.8645   25.8101 N   0  0  0  0  0  0  0  0  0  0  0  0
   19.2945   28.4667   25.5484 C   0  0  2  0  0  0  0  0  0  0  0  0
   18.1587   27.9599   26.4794 C   0  0  0  0  0  0  0  0  0  0  0  0
   17.8911   28.5347   27.5321 O   0  0  0  0  0  0  0  0  0  0  0  0
   20.5772   27.6668   25.8025 C   0  0  0  0  0  0  0  0  0  0  0  0
   21.6881   28.7088   25.7260 C   0  0  0  0  0  0  0  0  0  0  0  0
   21.0338   29.9582   26.2849 C   0  0  0  0  0  0  0  0  0  0  0  0
   17.4806   26.8101   26.1101 N   0  0  0  0  0  0  0  0  0  0  0  0
   16.2822   26.4149   26.8788 C   0  0  2  0  0  0  0  0  0  0  0  0
   16.5338   25.8301   28.2796 C   0  0  0  0  0  0  0  0  0  0  0  0
   16.5781   26.5475   29.2802 O   0  0  0  0  0  0  0  0  0  0  0  0
   15.6287   25.3307   26.0140 C   0  0  0  0  0  0  0  0  0  0  0  0
   16.0417   25.7114   24.6019 C   0  0  0  0  0  0  0  0  0  0  0  0
   17.4666   26.2150   24.7844 C   0  0  0  0  0  0  0  0  0  0  0  0
   16.4969   24.4510   28.3678 N   0  0  0  0  0  0  0  0  0  0  0  0
   16.7511   23.8004   29.6591 C   0  0  2  0  0  0  0  0  0  0  0  0
   18.0951   24.2026   30.2892 C   0  0  0  0  0  0  0  0  0  0  0  0
   18.3111   24.1109   31.4974 O   0  0  0  0  0  0  0  0  0  0  0  0
   16.7278   22.2615   29.5340 C   0  0  0  0  0  0  0  0  0  0  0  0
   15.4821   21.7476   29.0548 O   0  0  0  0  0  0  0  0  0  0  0  0
   19.0317   24.7146   29.4070 N   0  0  0  0  0  0  0  0  0  0  0  0
   20.3264   25.1990   29.8751 C   0  0  2  0  0  0  0  0  0  0  0  0
   20.8536   24.2667   30.9834 C   0  0  0  0  0  0  0  0  0  0  0  0
   21.7505   24.6030   31.7542 O   0  0  0  0  0  0  0  0  0  0  0  0
   20.2367   26.6351   30.4404 C   0  0  0  0  0  0  0  0  0  0  0  0
   21.5644   27.2639   30.7952 C   0  0  0  0  0  0  0  0  0  0  0  0
   22.7553   26.5295   30.6917 C   0  0  0  0  0  0  0  0  0  0  0  0
   21.6246   28.5880   31.2500 C   0  0  0  0  0  0  0  0  0  0  0  0
   23.9816   27.1133   31.0214 C   0  0  0  0  0  0  0  0  0  0  0  0
   22.8504   29.1693   31.5827 C   0  0  0  0  0  0  0  0  0  0  0  0
   24.0298   28.4341   31.4642 C   0  0  0  0  0  0  0  0  0  0  0  0
   20.2709   23.0169   31.0033 N   0  0  0  0  0  0  0  0  0  0  0  0
   20.5825   22.0033   32.0341 C   0  0  2  0  0  0  0  0  0  0  0  0
   20.5781   20.5916   31.3965 C   0  0  0  0  0  0  0  0  0  0  0  0
   19.9333   20.3127   30.3855 O   0  0  0  0  0  0  0  0  0  0  0  0
   19.5641   22.0864   33.1813 C   0  0  0  0  0  0  0  0  0  0  0  0
   20.1283   21.7911   34.5506 C   0  0  0  0  0  0  0  0  0  0  0  0
   21.4783   21.4349   34.7014 C   0  0  0  0  0  0  0  0  0  0  0  0
   19.3110   21.8443   35.6902 C   0  0  0  0  0  0  0  0  0  0  0  0
   21.9912   21.1196   35.9593 C   0  0  0  0  0  0  0  0  0  0  0  0
   19.8321   21.5350   36.9475 C   0  0  0  0  0  0  0  0  0  0  0  0
   21.1692   21.1659   37.0837 C   0  0  0  0  0  0  0  0  0  0  0  0
   21.3056   19.6509   32.1075 N   0  0  0  0  0  0  0  0  0  0  0  0
   22.1887   18.7042   31.4195 C   0  0  2  0  0  0  0  0  0  0  0  0
   21.7364   17.2959   31.8725 C   0  0  0  0  0  0  0  0  0  0  0  0
   20.9805   17.1426   32.8361 O   0  0  0  0  0  0  0  0  0  0  0  0
   23.6774   18.9921   31.6987 C   0  0  2  0  0  0  0  0  0  0  0  0
   23.8066   20.2297   32.4089 O   0  0  0  0  0  0  0  0  0  0  0  0
   24.5548   19.0338   30.4511 C   0  0  0  0  0  0  0  0  0  0  0  0
   22.2590   16.2565   31.1376 N   0  0  0  0  0  0  0  0  0  0  0  0
   21.9913   14.8401   31.4119 C   0  0  2  0  0  0  0  0  0  0  0  0
   23.1617   14.2862   32.2894 C   0  0  0  0  0  0  0  0  0  0  0  0
   24.3134   14.7099   32.1180 O   0  0  0  0  0  0  0  0  0  0  0  0
   21.6783   14.0027   30.1624 C   0  0  0  0  0  0  0  0  0  0  0  0
   22.9055   13.4189   29.4531 C   0  0  0  0  0  0  0  0  0  0  0  0
   23.4339   12.1751   30.1101 C   0  0  0  0  0  0  0  0  0  0  0  0
   23.8610   12.0845   31.2484 O   0  0  0  0  0  0  0  0  0  0  0  0
   23.3534   11.0868   29.3192 O   0  0  0  0  0  0  0  0  0  0  0  0
   22.9207   13.3589   33.2841 N   0  0  0  0  0  0  0  0  0  0  0  0
   23.8591   12.6546   34.1688 C   0  0  2  0  0  0  0  0  0  0  0  0
   24.8371   11.6873   33.4806 C   0  0  0  0  0  0  0  0  0  0  0  0
   24.9946   10.5095   33.7868 O   0  0  0  0  0  0  0  0  0  0  0  0
   22.9582   11.8356   35.1135 C   0  0  0  0  0  0  0  0  0  0  0  0
   21.6270   12.5678   35.0829 C   0  0  0  0  0  0  0  0  0  0  0  0
   21.5421   13.0521   33.6490 C   0  0  0  0  0  0  0  0  0  0  0  0
   25.5717   12.2301   32.4614 N   0  0  0  0  0  0  0  0  0  0  0  0
   14.3154   47.0712   22.4387 H   0  0  0  0  0  0  0  0  0  0  0  0
   24.4160   36.9792   18.2106 H   0  0  0  0  0  0  0  0  0  0  0  0
  1  2  2  0
  1  3  1  0
  1  4  1  0
  5  4  1  6
  5  6  1  0
  5  8  1  0
  6  7  2  0
  6 11  1  0
  8  9  1  1
  8 10  1  0
 11 12  1  0
 11 17  1  0
 12 13  1  1
 12 15  1  0
 13 14  2  0
 13 18  1  0
 15 16  1  0
 16 17  1  0
 18 19  1  0
 19 20  1  0
 19 22  1  6
 20 21  2  0
 20 26  1  0
 22 23  1  0
 23 24  1  1
 23 25  1  0
 26 27  1  0
 27 28  1  0
 27 30  1  6
 28 29  2  0
 28 37  1  0
 30 31  1  0
 31 32  1  0
 32 33  1  0
 33 34  1  0
 34 35  2  0
 34 36  1  0
 37 38  1  0
 38 39  1  0
 38 41  1  6
 39 40  2  0
 39 42  1  0
 42 43  1  0
 43 44  1  0
 43 46  1  1
 44 45  2  0
 44 53  1  0
 46 47  1  0
 47 48  1  0
 48 49  1  0
 49 50  1  0
 50 51  1  0
 50 52  2  0
 53 54  1  0
 54 55  1  0
 54 57  1  6
 55 56  2  0
 55 61  1  0
 57 58  1  0
 58 59  2  0
 58 60  1  0
 61 62  1  0
 62 63  1  0
 62 65  1  1
 63 64  2  0
 63 69  1  0
 65 66  1  0
 66 67  1  6
 66 68  1  0
 69 70  1  0
 69 75  1  0
 70 71  1  1
 70 73  1  0
 71 72  2  0
 71 76  1  0
 73 74  1  0
 74 75  1  0
 76 77  1  0
 76 82  1  0
 77 78  1  1
 77 80  1  0
 78 79  2  0
 78 83  1  0
 80 81  1  0
 81 82  1  0
 83 84  1  0
 84 85  1  0
 84 87  1  6
 85 86  2  0
 85 89  1  0
 87 88  1  0
 89 90  1  0
 90 91  1  0
 90 93  1  1
 91 92  2  0
 91100  1  0
 93 94  1  0
 94 95  2  0
 94 96  1  0
 95 97  1  0
 96 98  2  0
 97 99  2  0
 98 99  1  0
100101  1  0
101102  1  0
101104  1  1
102103  2  0
102111  1  0
104105  1  0
105106  2  0
105107  1  0
106108  1  0
107109  2  0
108110  2  0
109110  1  0
112111  1  1
112113  1  0
112115  1  0
113114  2  0
113118  1  0
115116  1  0
115117  1  6
118119  1  0
119120  1  0
119122  1  6
120121  2  0
120127  1  0
122123  1  0
123124  1  0
124125  2  0
124126  1  0
127128  1  0
127133  1  0
128129  1  6
128131  1  0
129130  2  0
129134  1  0
131132  1  0
132133  1  0
 35135  1  0
 52136  1  0
M  END
$$$$
