
     RDKit          3D

 65 66  0  0  0  0  0  0  0  0999 V2000
   69.5178   10.6695   37.3424 N   0  0  0  0  0  4  0  0  0  0  0  0
   70.4522    9.8836   36.5254 C   0  0  2  0  0  0  0  0  0  0  0  0
   69.7050    9.4289   35.3307 C   0  0  0  0  0  0  0  0  0  0  0  0
   68.4463    9.4881   35.3694 O   0  0  0  0  0  0  0  0  0  0  0  0
   70.9751    8.7260   37.3599 C   0  0  2  0  0  0  0  0  0  0  0  0
   72.0084    8.1566   36.5738 O   0  0  0  0  0  0  0  0  0  0  0  0
   69.9011    7.6565   37.4178 C   0  0  0  0  0  0  0  0  0  0  0  0
   70.3620    8.9467   34.1908 N   0  0  0  0  0  0  0  0  0  0  0  0
   69.6549    8.5432   32.9838 C   0  0  2  0  0  0  0  0  0  0  0  0
   69.4285    7.0628   32.9831 C   0  0  0  0  0  0  0  0  0  0  0  0
   69.7833    6.3414   33.9319 O   0  0  0  0  0  0  0  0  0  0  0  0
   70.3749    8.9471   31.7409 C   0  0  2  0  0  0  0  0  0  0  0  0
   69.7067    8.6238   30.5765 O   0  0  0  0  0  0  0  0  0  0  0  0
   71.8192    8.4496   31.7343 C   0  0  0  0  0  0  0  0  0  0  0  0
   68.7796    6.4329   31.8575 N   0  0  0  0  0  0  0  0  0  0  0  0
   68.4128    5.0528   31.8091 C   0  0  2  0  0  0  0  0  0  0  0  0
   69.1690    4.3064   30.8057 C   0  0  0  0  0  0  0  0  0  0  0  0
   68.7821    4.4944   29.5762 O   0  0  0  0  0  0  0  0  0  0  0  0
   66.8960    4.8959   31.5703 C   0  0  0  0  0  0  0  0  0  0  0  0
   70.2448    3.4235   31.0263 N   0  0  0  0  0  0  0  0  0  0  0  0
   71.3900    3.2958   30.0913 C   0  0  2  0  0  0  0  0  0  0  0  0
   70.9090    2.7781   28.7964 C   0  0  0  0  0  0  0  0  0  0  0  0
   69.7416    3.1767   28.4527 O   0  0  0  0  0  0  0  0  0  0  0  0
   72.3166    2.3095   30.7143 C   0  0  0  0  0  0  0  0  0  0  0  0
   71.4201    1.4612   31.5707 C   0  0  0  0  0  0  0  0  0  0  0  0
   70.4623    2.5170   32.1148 C   0  0  0  0  0  0  0  0  0  0  0  0
   71.6451    1.8963   27.9527 N   0  0  0  0  0  0  0  0  0  0  0  0
   70.8861    0.7964   27.3846 C   0  0  2  0  0  0  0  0  0  0  0  0
   71.5149   -0.5047   27.7627 C   0  0  0  0  0  0  0  0  0  0  0  0
   71.4252   -0.8862   28.9756 O   0  0  0  0  0  0  0  0  0  0  0  0
   70.9701    0.9860   25.8777 C   0  0  0  0  0  0  0  0  0  0  0  0
   70.0051    1.9867   25.3864 C   0  0  0  0  0  0  0  0  0  0  0  0
   69.1782    2.6317   26.2570 C   0  0  0  0  0  0  0  0  0  0  0  0
   69.9112    2.2942   24.0384 C   0  0  0  0  0  0  0  0  0  0  0  0
   68.2499    3.5851   25.8098 C   0  0  0  0  0  0  0  0  0  0  0  0
   69.0044    3.2267   23.5982 C   0  0  0  0  0  0  0  0  0  0  0  0
   68.1686    3.8797   24.4712 C   0  0  0  0  0  0  0  0  0  0  0  0
   72.1861   -1.2889   26.7918 N   0  0  0  0  0  0  0  0  0  0  0  0
   72.3763   -2.7178   26.9072 C   0  0  2  0  0  0  0  0  0  0  0  0
   73.0280   -3.2741   25.7672 C   0  0  0  0  0  0  0  0  0  0  0  0
   74.1575   -3.8609   25.9436 O   0  0  0  0  0  0  0  0  0  0  0  0
   71.2288   -3.3255   27.5778 C   0  0  0  0  0  0  0  0  0  0  0  0
   71.0472   -3.1486   29.0424 C   0  0  1  0  0  0  0  0  0  0  0  0
   69.9267   -2.3246   29.5350 C   0  0  0  0  0  0  0  0  0  0  0  0
   70.9082   -4.5488   29.6838 C   0  0  0  0  0  0  0  0  0  0  0  0
   72.6032   -3.2871   24.4066 N   0  0  0  0  0  0  0  0  0  0  0  0
   72.7156   -4.4423   23.5413 C   0  0  2  0  0  0  0  0  0  0  0  0
   72.0664   -4.0854   22.2302 C   0  0  0  0  0  0  0  0  0  0  0  0
   72.8203   -3.7400   21.2612 O   0  0  0  0  0  0  0  0  0  0  0  0
   72.1304   -5.6951   24.1177 C   0  0  0  0  0  0  0  0  0  0  0  0
   72.2794   -6.7111   23.1685 O   0  0  0  0  0  0  0  0  0  0  0  0
   70.6815   -4.1051   22.0101 N   0  0  0  0  0  0  0  0  0  0  0  0
   69.9461   -3.4846   20.9602 C   0  0  0  0  0  0  0  0  0  0  0  0
   70.3505   -3.7515   19.5933 C   0  0  0  0  0  0  0  0  0  0  0  0
   71.4711   -4.3364   19.4054 O   0  0  0  0  0  0  0  0  0  0  0  0
   69.5545   -3.3824   18.4776 N   0  0  0  0  0  0  0  0  0  0  0  0
   70.0236   -3.7110   17.1561 C   0  0  2  0  0  0  0  0  0  0  0  0
   71.2816   -2.9365   16.9158 C   0  0  0  0  0  0  0  0  0  0  0  0
   72.0663   -3.2631   15.8342 O   0  0  0  0  0  0  0  0  0  0  0  0
   68.9966   -3.4224   16.1255 C   0  0  0  0  0  0  0  0  0  0  0  0
   67.7610   -4.2197   16.3347 C   0  0  0  0  0  0  0  0  0  0  0  0
   66.6831   -4.0226   15.3152 C   0  0  0  0  0  0  0  0  0  0  0  0
   65.3575   -4.6292   15.6789 C   0  0  0  0  0  0  0  0  0  0  0  0
   64.5208   -3.8384   16.5149 N   0  0  0  0  0  4  0  0  0  0  0  0
   71.5906   -2.0107   17.6998 O   0  0  0  0  0  0  0  0  0  0  0  0
  2  1  1  1
  2  3  1  0
  2  5  1  0
  3  4  2  0
  3  8  1  0
  5  6  1  0
  5  7  1  6
  9  8  1  1
  9 10  1  0
  9 12  1  0
 10 11  2  0
 10 15  1  0
 12 13  1  0
 12 14  1  6
 15 16  1  0
 16 17  1  0
 16 19  1  6
 17 18  2  0
 17 20  1  0
 20 21  1  0
 20 26  1  0
 21 22  1  6
 21 24  1  0
 22 23  2  0
 22 27  1  0
 24 25  1  0
 25 26  1  0
 27 28  1  0
 28 29  1  0
 28 31  1  6
 29 30  2  0
 29 38  1  0
 31 32  1  0
 32 33  2  0
 32 34  1  0
 33 35  1  0
 34 36  2  0
 35 37  2  0
 36 37  1  0
 38 39  1  0
 39 40  1  0
 39 42  1  6
 40 41  2  0
 40 46  1  0
 42 43  1  0
 43 44  1  6
 43 45  1  0
 46 47  1  0
 47 48  1  0
 47 50  1  1
 48 49  2  0
 48 52  1  0
 50 51  1  0
 52 53  1  0
 53 54  1  0
 54 55  2  0
 54 56  1  0
 56 57  1  0
 57 58  1  0
 57 60  1  6
 58 59  1  0
 58 65  2  0
 60 61  1  0
 61 62  1  0
 62 63  1  0
 63 64  1  0
M  CHG  2   1   1  64   1
M  END
$$$$
