
     RDKit          3D

 65 66  0  0  0  0  0  0  0  0999 V2000
   68.3412    9.0299   38.1912 N   0  0  0  0  0  4  0  0  0  0  0  0
   69.4392    9.1124   37.2186 C   0  0  2  0  0  0  0  0  0  0  0  0
   68.9607    8.4741   35.9711 C   0  0  0  0  0  0  0  0  0  0  0  0
   67.8660    7.8502   36.0149 O   0  0  0  0  0  0  0  0  0  0  0  0
   70.6582    8.4143   37.7987 C   0  0  2  0  0  0  0  0  0  0  0  0
   71.6786    8.6173   36.8356 O   0  0  0  0  0  0  0  0  0  0  0  0
   70.4045    6.9190   37.7820 C   0  0  0  0  0  0  0  0  0  0  0  0
   69.6901    8.5525   34.7773 N   0  0  0  0  0  0  0  0  0  0  0  0
   69.2444    7.9320   33.5379 C   0  0  2  0  0  0  0  0  0  0  0  0
   69.4601    6.4510   33.5899 C   0  0  0  0  0  0  0  0  0  0  0  0
   70.2685    5.9300   34.3783 O   0  0  0  0  0  0  0  0  0  0  0  0
   69.9256    8.5024   32.3392 C   0  0  2  0  0  0  0  0  0  0  0  0
   71.2955    8.6138   32.4736 O   0  0  0  0  0  0  0  0  0  0  0  0
   69.2818    9.8129   31.8902 C   0  0  0  0  0  0  0  0  0  0  0  0
   68.7172    5.5825   32.7076 N   0  0  0  0  0  0  0  0  0  0  0  0
   68.9554    4.1803   32.5704 C   0  0  2  0  0  0  0  0  0  0  0  0
   69.9613    3.8791   31.5539 C   0  0  0  0  0  0  0  0  0  0  0  0
   69.7662    4.4556   30.4023 O   0  0  0  0  0  0  0  0  0  0  0  0
   67.6419    3.4270   32.2714 C   0  0  0  0  0  0  0  0  0  0  0  0
   71.0906    3.0470   31.6871 N   0  0  0  0  0  0  0  0  0  0  0  0
   72.0002    2.7325   30.5576 C   0  0  2  0  0  0  0  0  0  0  0  0
   71.2596    1.9786   29.5284 C   0  0  0  0  0  0  0  0  0  0  0  0
   70.1959    1.3978   29.9417 O   0  0  0  0  0  0  0  0  0  0  0  0
   73.0785    1.8777   31.1286 C   0  0  0  0  0  0  0  0  0  0  0  0
   72.4290    1.2175   32.3114 C   0  0  0  0  0  0  0  0  0  0  0  0
   71.5802    2.3658   32.8490 C   0  0  0  0  0  0  0  0  0  0  0  0
   71.6546    1.8691   28.1633 N   0  0  0  0  0  0  0  0  0  0  0  0
   70.7665    1.0931   27.3162 C   0  0  2  0  0  0  0  0  0  0  0  0
   71.1991    1.2018   25.8907 C   0  0  0  0  0  0  0  0  0  0  0  0
   71.6886    2.3096   25.4933 O   0  0  0  0  0  0  0  0  0  0  0  0
   69.3945    1.7279   27.4839 C   0  0  0  0  0  0  0  0  0  0  0  0
   69.3824    3.1461   27.0802 C   0  0  0  0  0  0  0  0  0  0  0  0
   69.6558    4.1235   27.9898 C   0  0  0  0  0  0  0  0  0  0  0  0
   69.0930    3.5207   25.7778 C   0  0  0  0  0  0  0  0  0  0  0  0
   69.6462    5.4797   27.6272 C   0  0  0  0  0  0  0  0  0  0  0  0
   69.0834    4.8465   25.4202 C   0  0  0  0  0  0  0  0  0  0  0  0
   69.3581    5.8358   26.3329 C   0  0  0  0  0  0  0  0  0  0  0  0
   71.0698    0.0968   25.0129 N   0  0  0  0  0  0  0  0  0  0  0  0
   71.2150   -1.2801   25.4307 C   0  0  2  0  0  0  0  0  0  0  0  0
   71.0951   -2.1945   24.3429 C   0  0  0  0  0  0  0  0  0  0  0  0
   71.3041   -3.4408   24.5755 O   0  0  0  0  0  0  0  0  0  0  0  0
   70.6006   -1.4755   26.7422 C   0  0  0  0  0  0  0  0  0  0  0  0
   71.4580   -1.6538   27.9431 C   0  0  1  0  0  0  0  0  0  0  0  0
   70.9157   -2.3660   29.1161 C   0  0  0  0  0  0  0  0  0  0  0  0
   72.7470   -2.3904   27.5103 C   0  0  0  0  0  0  0  0  0  0  0  0
   70.7602   -1.9333   22.9822 N   0  0  0  0  0  0  0  0  0  0  0  0
   71.7410   -1.6733   21.9495 C   0  0  2  0  0  0  0  0  0  0  0  0
   71.3970   -2.5488   20.7736 C   0  0  0  0  0  0  0  0  0  0  0  0
   72.1084   -3.5876   20.5697 O   0  0  0  0  0  0  0  0  0  0  0  0
   73.1582   -1.8802   22.3888 C   0  0  0  0  0  0  0  0  0  0  0  0
   73.4831   -3.2214   22.1626 O   0  0  0  0  0  0  0  0  0  0  0  0
   70.3437   -2.2895   19.8848 N   0  0  0  0  0  0  0  0  0  0  0  0
   69.2903   -3.1614   19.4866 C   0  0  0  0  0  0  0  0  0  0  0  0
   69.0636   -3.3544   18.0673 C   0  0  0  0  0  0  0  0  0  0  0  0
   69.0270   -2.3170   17.3219 O   0  0  0  0  0  0  0  0  0  0  0  0
   68.8779   -4.6392   17.4933 N   0  0  0  0  0  0  0  0  0  0  0  0
   68.5071   -4.7277   16.1045 C   0  0  2  0  0  0  0  0  0  0  0  0
   67.0745   -4.3093   15.9900 C   0  0  0  0  0  0  0  0  0  0  0  0
   66.4450   -4.4221   14.7721 O   0  0  0  0  0  0  0  0  0  0  0  0
   68.7239   -6.0935   15.5681 C   0  0  0  0  0  0  0  0  0  0  0  0
   69.6796   -6.8705   16.3984 C   0  0  0  0  0  0  0  0  0  0  0  0
   71.0991   -6.8687   15.9240 C   0  0  0  0  0  0  0  0  0  0  0  0
   71.9555   -7.9584   16.5042 C   0  0  0  0  0  0  0  0  0  0  0  0
   73.3215   -7.9534   16.1064 N   0  0  0  0  0  4  0  0  0  0  0  0
   66.4818   -3.8694   17.0011 O   0  0  0  0  0  0  0  0  0  0  0  0
  2  1  1  1
  2  3  1  0
  2  5  1  0
  3  4  2  0
  3  8  1  0
  5  6  1  0
  5  7  1  6
  9  8  1  1
  9 10  1  0
  9 12  1  0
 10 11  2  0
 10 15  1  0
 12 13  1  0
 12 14  1  1
 15 16  1  0
 16 17  1  0
 16 19  1  6
 17 18  2  0
 17 20  1  0
 20 21  1  0
 20 26  1  0
 21 22  1  6
 21 24  1  0
 22 23  2  0
 22 27  1  0
 24 25  1  0
 25 26  1  0
 27 28  1  0
 28 29  1  0
 28 31  1  6
 29 30  2  0
 29 38  1  0
 31 32  1  0
 32 33  2  0
 32 34  1  0
 33 35  1  0
 34 36  2  0
 35 37  2  0
 36 37  1  0
 38 39  1  0
 39 40  1  0
 39 42  1  1
 40 41  2  0
 40 46  1  0
 42 43  1  0
 43 44  1  1
 43 45  1  0
 46 47  1  0
 47 48  1  0
 47 50  1  1
 48 49  2  0
 48 52  1  0
 50 51  1  0
 52 53  1  0
 53 54  1  0
 54 55  2  0
 54 56  1  0
 56 57  1  0
 57 58  1  0
 57 60  1  1
 58 59  1  0
 58 65  2  0
 60 61  1  0
 61 62  1  0
 62 63  1  0
 63 64  1  0
M  CHG  2   1   1  64   1
M  END
$$$$
