
     RDKit          3D

 65 66  0  0  0  0  0  0  0  0999 V2000
   69.2063   10.8618   37.6878 N   0  0  0  0  0  4  0  0  0  0  0  0
   68.5628   10.1632   36.5671 C   0  0  2  0  0  0  0  0  0  0  0  0
   69.2170    8.8401   36.4493 C   0  0  0  0  0  0  0  0  0  0  0  0
   70.2471    8.6319   37.1458 O   0  0  0  0  0  0  0  0  0  0  0  0
   68.7222   11.0047   35.3116 C   0  0  2  0  0  0  0  0  0  0  0  0
   68.0024   10.2993   34.3145 O   0  0  0  0  0  0  0  0  0  0  0  0
   70.1705   10.9293   34.8674 C   0  0  0  0  0  0  0  0  0  0  0  0
   68.7192    7.8459   35.5965 N   0  0  0  0  0  0  0  0  0  0  0  0
   69.3160    6.5218   35.4952 C   0  0  2  0  0  0  0  0  0  0  0  0
   69.9300    6.3294   34.1429 C   0  0  0  0  0  0  0  0  0  0  0  0
   69.4479    6.8476   33.1204 O   0  0  0  0  0  0  0  0  0  0  0  0
   68.3328    5.4326   35.7659 C   0  0  2  0  0  0  0  0  0  0  0  0
   68.8716    4.1628   35.7006 O   0  0  0  0  0  0  0  0  0  0  0  0
   67.0793    5.5721   34.9040 C   0  0  0  0  0  0  0  0  0  0  0  0
   71.1185    5.5223   33.9987 N   0  0  0  0  0  0  0  0  0  0  0  0
   71.7699    5.2645   32.7534 C   0  0  2  0  0  0  0  0  0  0  0  0
   70.9767    4.4105   31.8717 C   0  0  0  0  0  0  0  0  0  0  0  0
   70.7198    3.2240   32.3439 O   0  0  0  0  0  0  0  0  0  0  0  0
   73.1692    4.6546   32.9816 C   0  0  0  0  0  0  0  0  0  0  0  0
   70.4766    4.7295   30.5936 N   0  0  0  0  0  0  0  0  0  0  0  0
   69.8209    3.7331   29.7108 C   0  0  2  0  0  0  0  0  0  0  0  0
   70.7969    2.6910   29.3396 C   0  0  0  0  0  0  0  0  0  0  0  0
   71.9839    2.8771   29.7826 O   0  0  0  0  0  0  0  0  0  0  0  0
   69.3980    4.4821   28.4944 C   0  0  0  0  0  0  0  0  0  0  0  0
   70.3587    5.6350   28.4270 C   0  0  0  0  0  0  0  0  0  0  0  0
   70.4869    5.9869   29.9061 C   0  0  0  0  0  0  0  0  0  0  0  0
   70.4964    1.5448   28.5477 N   0  0  0  0  0  0  0  0  0  0  0  0
   71.5965    0.6188   28.3459 C   0  0  2  0  0  0  0  0  0  0  0  0
   71.2501   -0.3561   27.2685 C   0  0  0  0  0  0  0  0  0  0  0  0
   72.1414   -1.1907   26.9030 O   0  0  0  0  0  0  0  0  0  0  0  0
   71.7519   -0.1153   29.6690 C   0  0  0  0  0  0  0  0  0  0  0  0
   72.6878    0.5687   30.5803 C   0  0  0  0  0  0  0  0  0  0  0  0
   73.6291    1.4223   30.0874 C   0  0  0  0  0  0  0  0  0  0  0  0
   72.6383    0.3624   31.9497 C   0  0  0  0  0  0  0  0  0  0  0  0
   74.5319    2.0808   30.9371 C   0  0  0  0  0  0  0  0  0  0  0  0
   73.5198    1.0056   32.7833 C   0  0  0  0  0  0  0  0  0  0  0  0
   74.4706    1.8669   32.2920 C   0  0  0  0  0  0  0  0  0  0  0  0
   69.9617   -0.3489   26.6784 N   0  0  0  0  0  0  0  0  0  0  0  0
   69.5734   -1.2188   25.5903 C   0  0  2  0  0  0  0  0  0  0  0  0
   70.6317   -1.4298   24.6579 C   0  0  0  0  0  0  0  0  0  0  0  0
   71.4698   -0.4744   24.4690 O   0  0  0  0  0  0  0  0  0  0  0  0
   68.1838   -0.9660   25.2153 C   0  0  0  0  0  0  0  0  0  0  0  0
   67.2443   -2.1045   25.0409 C   0  0  1  0  0  0  0  0  0  0  0  0
   66.9627   -2.9883   26.1883 C   0  0  0  0  0  0  0  0  0  0  0  0
   65.8910   -1.5418   24.5477 C   0  0  0  0  0  0  0  0  0  0  0  0
   70.9214   -2.5844   23.8738 N   0  0  0  0  0  0  0  0  0  0  0  0
   71.6776   -2.5480   22.6398 C   0  0  2  0  0  0  0  0  0  0  0  0
   70.7644   -3.0217   21.5401 C   0  0  0  0  0  0  0  0  0  0  0  0
   69.7662   -2.2902   21.2314 O   0  0  0  0  0  0  0  0  0  0  0  0
   72.9458   -3.3444   22.6781 C   0  0  0  0  0  0  0  0  0  0  0  0
   72.8643   -4.2238   23.7623 O   0  0  0  0  0  0  0  0  0  0  0  0
   70.9415   -4.2218   20.8365 N   0  0  0  0  0  0  0  0  0  0  0  0
   70.0276   -4.8739   19.9601 C   0  0  0  0  0  0  0  0  0  0  0  0
   69.7751   -4.2712   18.6655 C   0  0  0  0  0  0  0  0  0  0  0  0
   70.7377   -3.6518   18.0972 O   0  0  0  0  0  0  0  0  0  0  0  0
   68.5102   -4.3426   18.0257 N   0  0  0  0  0  0  0  0  0  0  0  0
   68.4323   -4.0556   16.6165 C   0  0  2  0  0  0  0  0  0  0  0  0
   69.0262   -5.2176   15.8835 C   0  0  0  0  0  0  0  0  0  0  0  0
   70.3946   -5.3047   15.7742 O   0  0  0  0  0  0  0  0  0  0  0  0
   69.1203   -2.7853   16.2799 C   0  0  0  0  0  0  0  0  0  0  0  0
   68.2927   -1.5993   16.6187 C   0  0  0  0  0  0  0  0  0  0  0  0
   68.5606   -0.3701   15.8077 C   0  0  0  0  0  0  0  0  0  0  0  0
   67.7560    0.8336   16.2093 C   0  0  0  0  0  0  0  0  0  0  0  0
   68.1604    2.0708   15.6349 N   0  0  0  0  0  4  0  0  0  0  0  0
   68.2681   -6.0826   15.3892 O   0  0  0  0  0  0  0  0  0  0  0  0
  2  1  1  1
  2  3  1  0
  2  5  1  0
  3  4  2  0
  3  8  1  0
  5  6  1  0
  5  7  1  6
  9  8  1  6
  9 10  1  0
  9 12  1  0
 10 11  2  0
 10 15  1  0
 12 13  1  0
 12 14  1  6
 15 16  1  0
 16 17  1  0
 16 19  1  1
 17 18  2  0
 17 20  1  0
 20 21  1  0
 20 26  1  0
 21 22  1  6
 21 24  1  0
 22 23  2  0
 22 27  1  0
 24 25  1  0
 25 26  1  0
 27 28  1  0
 28 29  1  0
 28 31  1  1
 29 30  2  0
 29 38  1  0
 31 32  1  0
 32 33  2  0
 32 34  1  0
 33 35  1  0
 34 36  2  0
 35 37  2  0
 36 37  1  0
 38 39  1  0
 39 40  1  0
 39 42  1  6
 40 41  2  0
 40 46  1  0
 42 43  1  0
 43 44  1  1
 43 45  1  0
 46 47  1  0
 47 48  1  0
 47 50  1  1
 48 49  2  0
 48 52  1  0
 50 51  1  0
 52 53  1  0
 53 54  1  0
 54 55  2  0
 54 56  1  0
 56 57  1  0
 57 58  1  0
 57 60  1  1
 58 59  1  0
 58 65  2  0
 60 61  1  0
 61 62  1  0
 62 63  1  0
 63 64  1  0
M  CHG  2   1   1  64   1
M  END
$$$$
