
     RDKit          3D

 65 66  0  0  0  0  0  0  0  0999 V2000
   69.6977    9.4985   37.7831 N   0  0  0  0  0  4  0  0  0  0  0  0
   68.6056    9.6481   36.8119 C   0  0  2  0  0  0  0  0  0  0  0  0
   68.3630    8.3107   36.2246 C   0  0  0  0  0  0  0  0  0  0  0  0
   67.1913    7.8489   36.2833 O   0  0  0  0  0  0  0  0  0  0  0  0
   69.0168   10.6751   35.7699 C   0  0  2  0  0  0  0  0  0  0  0  0
   68.7889   10.0337   34.5263 O   0  0  0  0  0  0  0  0  0  0  0  0
   70.5215   10.8519   35.8422 C   0  0  0  0  0  0  0  0  0  0  0  0
   69.3912    7.5733   35.6225 N   0  0  0  0  0  0  0  0  0  0  0  0
   69.2567    6.1643   35.2818 C   0  0  2  0  0  0  0  0  0  0  0  0
   70.2858    5.7733   34.2665 C   0  0  0  0  0  0  0  0  0  0  0  0
   70.7766    6.5972   33.4748 O   0  0  0  0  0  0  0  0  0  0  0  0
   67.8931    5.8287   34.7775 C   0  0  2  0  0  0  0  0  0  0  0  0
   67.7098    4.4865   34.5091 O   0  0  0  0  0  0  0  0  0  0  0  0
   67.4902    6.7128   33.5986 C   0  0  0  0  0  0  0  0  0  0  0  0
   70.7371    4.4041   34.1872 N   0  0  0  0  0  0  0  0  0  0  0  0
   71.7804    3.9494   33.3233 C   0  0  2  0  0  0  0  0  0  0  0  0
   71.2909    3.5891   31.9942 C   0  0  0  0  0  0  0  0  0  0  0  0
   70.2304    2.8327   31.9873 O   0  0  0  0  0  0  0  0  0  0  0  0
   72.5424    2.7668   33.9579 C   0  0  0  0  0  0  0  0  0  0  0  0
   71.8366    3.9636   30.7503 N   0  0  0  0  0  0  0  0  0  0  0  0
   71.3056    3.4729   29.4544 C   0  0  2  0  0  0  0  0  0  0  0  0
   71.4882    2.0114   29.3727 C   0  0  0  0  0  0  0  0  0  0  0  0
   72.6828    1.6275   29.1172 O   0  0  0  0  0  0  0  0  0  0  0  0
   72.1200    4.1412   28.4010 C   0  0  0  0  0  0  0  0  0  0  0  0
   73.4272    4.4297   29.0827 C   0  0  0  0  0  0  0  0  0  0  0  0
   72.9420    4.8322   30.4721 C   0  0  0  0  0  0  0  0  0  0  0  0
   70.4482    1.0537   29.5529 N   0  0  0  0  0  0  0  0  0  0  0  0
   70.8741   -0.3343   29.5767 C   0  0  2  0  0  0  0  0  0  0  0  0
   71.0724   -0.8298   28.1816 C   0  0  0  0  0  0  0  0  0  0  0  0
   71.7574   -1.8913   28.0118 O   0  0  0  0  0  0  0  0  0  0  0  0
   69.7309   -1.0944   30.2316 C   0  0  0  0  0  0  0  0  0  0  0  0
   69.6667   -0.8615   31.6862 C   0  0  0  0  0  0  0  0  0  0  0  0
   68.9147    0.1586   32.1878 C   0  0  0  0  0  0  0  0  0  0  0  0
   70.3644   -1.6639   32.5747 C   0  0  0  0  0  0  0  0  0  0  0  0
   68.8426    0.3999   33.5688 C   0  0  0  0  0  0  0  0  0  0  0  0
   70.2953   -1.4305   33.9262 C   0  0  0  0  0  0  0  0  0  0  0  0
   69.5391   -0.4038   34.4372 C   0  0  0  0  0  0  0  0  0  0  0  0
   70.5065   -0.1351   27.0837 N   0  0  0  0  0  0  0  0  0  0  0  0
   71.0543   -0.1679   25.7458 C   0  0  2  0  0  0  0  0  0  0  0  0
   70.6527   -1.3288   25.0214 C   0  0  0  0  0  0  0  0  0  0  0  0
   71.4404   -2.3440   25.0223 O   0  0  0  0  0  0  0  0  0  0  0  0
   72.4111    0.3752   25.7442 C   0  0  0  0  0  0  0  0  0  0  0  0
   73.2433    0.2867   24.5159 C   0  0  1  0  0  0  0  0  0  0  0  0
   74.5930    0.8830   24.5156 C   0  0  0  0  0  0  0  0  0  0  0  0
   73.3976   -1.2064   24.1443 C   0  0  0  0  0  0  0  0  0  0  0  0
   69.4623   -1.5516   24.2695 N   0  0  0  0  0  0  0  0  0  0  0  0
   69.1950   -2.7675   23.5306 C   0  0  2  0  0  0  0  0  0  0  0  0
   69.7066   -2.5623   22.1292 C   0  0  0  0  0  0  0  0  0  0  0  0
   69.6447   -1.3889   21.6330 O   0  0  0  0  0  0  0  0  0  0  0  0
   67.7541   -3.1773   23.5317 C   0  0  0  0  0  0  0  0  0  0  0  0
   67.1598   -2.6426   24.6790 O   0  0  0  0  0  0  0  0  0  0  0  0
   70.2436   -3.5844   21.3332 N   0  0  0  0  0  0  0  0  0  0  0  0
   70.4190   -3.6021   19.9199 C   0  0  0  0  0  0  0  0  0  0  0  0
   69.2874   -3.9815   19.0963 C   0  0  0  0  0  0  0  0  0  0  0  0
   68.5868   -4.9833   19.4689 O   0  0  0  0  0  0  0  0  0  0  0  0
   68.9454   -3.2886   17.9058 N   0  0  0  0  0  0  0  0  0  0  0  0
   67.8218   -3.7545   17.1344 C   0  0  2  0  0  0  0  0  0  0  0  0
   68.2594   -4.9758   16.3879 C   0  0  0  0  0  0  0  0  0  0  0  0
   69.6009   -5.2748   16.3319 O   0  0  0  0  0  0  0  0  0  0  0  0
   67.3161   -2.7035   16.2180 C   0  0  0  0  0  0  0  0  0  0  0  0
   68.4146   -1.8603   15.6807 C   0  0  0  0  0  0  0  0  0  0  0  0
   68.1479   -0.3877   15.6571 C   0  0  0  0  0  0  0  0  0  0  0  0
   69.2702    0.4439   15.1037 C   0  0  0  0  0  0  0  0  0  0  0  0
   69.2414    1.8268   15.4369 N   0  0  0  0  0  4  0  0  0  0  0  0
   67.3988   -5.6969   15.8343 O   0  0  0  0  0  0  0  0  0  0  0  0
  2  1  1  1
  2  3  1  0
  2  5  1  0
  3  4  2  0
  3  8  1  0
  5  6  1  0
  5  7  1  1
  9  8  1  6
  9 10  1  0
  9 12  1  0
 10 11  2  0
 10 15  1  0
 12 13  1  0
 12 14  1  6
 15 16  1  0
 16 17  1  0
 16 19  1  1
 17 18  2  0
 17 20  1  0
 20 21  1  0
 20 26  1  0
 21 22  1  1
 21 24  1  0
 22 23  2  0
 22 27  1  0
 24 25  1  0
 25 26  1  0
 27 28  1  0
 28 29  1  0
 28 31  1  6
 29 30  2  0
 29 38  1  0
 31 32  1  0
 32 33  2  0
 32 34  1  0
 33 35  1  0
 34 36  2  0
 35 37  2  0
 36 37  1  0
 38 39  1  0
 39 40  1  0
 39 42  1  1
 40 41  2  0
 40 46  1  0
 42 43  1  0
 43 44  1  1
 43 45  1  0
 46 47  1  0
 47 48  1  0
 47 50  1  6
 48 49  2  0
 48 52  1  0
 50 51  1  0
 52 53  1  0
 53 54  1  0
 54 55  2  0
 54 56  1  0
 56 57  1  0
 57 58  1  0
 57 60  1  6
 58 59  1  0
 58 65  2  0
 60 61  1  0
 61 62  1  0
 62 63  1  0
 63 64  1  0
M  CHG  2   1   1  64   1
M  END
$$$$
