
     RDKit          3D

 65 66  0  0  0  0  0  0  0  0999 V2000
   68.6629    9.4865   37.2396 N   0  0  0  0  0  4  0  0  0  0  0  0
   69.8959    9.3929   36.4464 C   0  0  2  0  0  0  0  0  0  0  0  0
   69.5194    8.8396   35.1256 C   0  0  0  0  0  0  0  0  0  0  0  0
   68.3837    8.3031   35.0174 O   0  0  0  0  0  0  0  0  0  0  0  0
   70.8861    8.5089   37.1865 C   0  0  2  0  0  0  0  0  0  0  0  0
   71.6708    7.9175   36.1646 O   0  0  0  0  0  0  0  0  0  0  0  0
   70.1238    7.3527   37.8050 C   0  0  0  0  0  0  0  0  0  0  0  0
   70.3863    8.9028   34.0265 N   0  0  0  0  0  0  0  0  0  0  0  0
   70.1049    8.2417   32.7603 C   0  0  2  0  0  0  0  0  0  0  0  0
   70.0754    6.7558   32.9439 C   0  0  0  0  0  0  0  0  0  0  0  0
   71.0023    6.1420   33.5011 O   0  0  0  0  0  0  0  0  0  0  0  0
   71.0898    8.6026   31.6991 C   0  0  2  0  0  0  0  0  0  0  0  0
   71.7271    9.8088   31.9133 O   0  0  0  0  0  0  0  0  0  0  0  0
   70.4774    8.5140   30.3024 C   0  0  0  0  0  0  0  0  0  0  0  0
   68.9459    5.9925   32.4680 N   0  0  0  0  0  0  0  0  0  0  0  0
   69.0343    4.9383   31.5076 C   0  0  2  0  0  0  0  0  0  0  0  0
   70.3251    4.2539   31.5431 C   0  0  0  0  0  0  0  0  0  0  0  0
   71.3270    4.9499   31.0864 O   0  0  0  0  0  0  0  0  0  0  0  0
   68.7397    5.4639   30.0866 C   0  0  0  0  0  0  0  0  0  0  0  0
   70.5902    2.9497   32.0059 N   0  0  0  0  0  0  0  0  0  0  0  0
   71.9610    2.3895   32.1016 C   0  0  2  0  0  0  0  0  0  0  0  0
   72.5462    2.2944   30.7508 C   0  0  0  0  0  0  0  0  0  0  0  0
   73.2803    3.2857   30.4068 O   0  0  0  0  0  0  0  0  0  0  0  0
   71.8041    1.0250   32.6788 C   0  0  0  0  0  0  0  0  0  0  0  0
   70.4129    0.6214   32.2811 C   0  0  0  0  0  0  0  0  0  0  0  0
   69.6718    1.9441   32.4523 C   0  0  0  0  0  0  0  0  0  0  0  0
   72.3407    1.2063   29.8536 N   0  0  0  0  0  0  0  0  0  0  0  0
   72.9539    1.3507   28.5454 C   0  0  2  0  0  0  0  0  0  0  0  0
   72.5921    0.1865   27.6824 C   0  0  0  0  0  0  0  0  0  0  0  0
   72.1694   -0.8741   28.2491 O   0  0  0  0  0  0  0  0  0  0  0  0
   74.4532    1.3506   28.8019 C   0  0  0  0  0  0  0  0  0  0  0  0
   74.8758    0.2145   29.6414 C   0  0  0  0  0  0  0  0  0  0  0  0
   74.4158   -1.0421   29.3822 C   0  0  0  0  0  0  0  0  0  0  0  0
   75.7419    0.3916   30.7085 C   0  0  0  0  0  0  0  0  0  0  0  0
   74.8028   -2.1369   30.1711 C   0  0  0  0  0  0  0  0  0  0  0  0
   76.1225   -0.6776   31.4816 C   0  0  0  0  0  0  0  0  0  0  0  0
   75.6620   -1.9461   31.2249 C   0  0  0  0  0  0  0  0  0  0  0  0
   72.7141    0.2698   26.2729 N   0  0  0  0  0  0  0  0  0  0  0  0
   71.5911    0.1914   25.3651 C   0  0  2  0  0  0  0  0  0  0  0  0
   71.5489   -1.0458   24.6571 C   0  0  0  0  0  0  0  0  0  0  0  0
   72.5808   -1.3844   23.9704 O   0  0  0  0  0  0  0  0  0  0  0  0
   71.3438    1.4970   24.7568 C   0  0  0  0  0  0  0  0  0  0  0  0
   70.1216    1.7142   23.9395 C   0  0  1  0  0  0  0  0  0  0  0  0
   70.1839    1.5043   22.4803 C   0  0  0  0  0  0  0  0  0  0  0  0
   69.0037    0.7988   24.4908 C   0  0  0  0  0  0  0  0  0  0  0  0
   70.5001   -2.0091   24.5933 N   0  0  0  0  0  0  0  0  0  0  0  0
   70.5142   -3.1540   23.7072 C   0  0  2  0  0  0  0  0  0  0  0  0
   70.1787   -2.6564   22.3261 C   0  0  0  0  0  0  0  0  0  0  0  0
   70.3277   -1.4132   22.0830 O   0  0  0  0  0  0  0  0  0  0  0  0
   69.5966   -4.2611   24.1271 C   0  0  0  0  0  0  0  0  0  0  0  0
   69.6738   -5.2685   23.1602 O   0  0  0  0  0  0  0  0  0  0  0  0
   69.7074   -3.4761   21.2904 N   0  0  0  0  0  0  0  0  0  0  0  0
   69.8684   -3.3036   19.8860 C   0  0  0  0  0  0  0  0  0  0  0  0
   69.2085   -4.2453   19.0024 C   0  0  0  0  0  0  0  0  0  0  0  0
   69.0648   -5.4476   19.4110 O   0  0  0  0  0  0  0  0  0  0  0  0
   68.7319   -3.8782   17.7168 N   0  0  0  0  0  0  0  0  0  0  0  0
   67.6943   -4.6734   17.1124 C   0  0  2  0  0  0  0  0  0  0  0  0
   68.3287   -5.9227   16.5860 C   0  0  0  0  0  0  0  0  0  0  0  0
   67.5757   -6.7747   15.8120 O   0  0  0  0  0  0  0  0  0  0  0  0
   66.9867   -3.9258   16.0443 C   0  0  0  0  0  0  0  0  0  0  0  0
   66.3443   -2.6912   16.5633 C   0  0  0  0  0  0  0  0  0  0  0  0
   65.6710   -1.8322   15.5391 C   0  0  0  0  0  0  0  0  0  0  0  0
   64.9945   -0.6101   16.0925 C   0  0  0  0  0  0  0  0  0  0  0  0
   65.2715   -0.3102   17.4554 N   0  0  0  0  0  4  0  0  0  0  0  0
   69.5266   -6.1636   16.8588 O   0  0  0  0  0  0  0  0  0  0  0  0
  2  1  1  1
  2  3  1  0
  2  5  1  0
  3  4  2  0
  3  8  1  0
  5  6  1  0
  5  7  1  6
  9  8  1  1
  9 10  1  0
  9 12  1  0
 10 11  2  0
 10 15  1  0
 12 13  1  0
 12 14  1  6
 15 16  1  0
 16 17  1  0
 16 19  1  6
 17 18  2  0
 17 20  1  0
 20 21  1  0
 20 26  1  0
 21 22  1  6
 21 24  1  0
 22 23  2  0
 22 27  1  0
 24 25  1  0
 25 26  1  0
 27 28  1  0
 28 29  1  0
 28 31  1  1
 29 30  2  0
 29 38  1  0
 31 32  1  0
 32 33  2  0
 32 34  1  0
 33 35  1  0
 34 36  2  0
 35 37  2  0
 36 37  1  0
 38 39  1  0
 39 40  1  0
 39 42  1  6
 40 41  2  0
 40 46  1  0
 42 43  1  0
 43 44  1  6
 43 45  1  0
 46 47  1  0
 47 48  1  0
 47 50  1  1
 48 49  2  0
 48 52  1  0
 50 51  1  0
 52 53  1  0
 53 54  1  0
 54 55  2  0
 54 56  1  0
 56 57  1  0
 57 58  1  0
 57 60  1  6
 58 59  1  0
 58 65  2  0
 60 61  1  0
 61 62  1  0
 62 63  1  0
 63 64  1  0
M  CHG  2   1   1  64   1
M  END
$$$$
