
     RDKit          3D

 65 66  0  0  0  0  0  0  0  0999 V2000
   68.8037    9.5287   36.1993 N   0  0  0  0  0  4  0  0  0  0  0  0
   69.9863    9.2781   35.3646 C   0  0  2  0  0  0  0  0  0  0  0  0
   69.4973    8.7632   34.0652 C   0  0  0  0  0  0  0  0  0  0  0  0
   68.2600    8.8361   33.8345 O   0  0  0  0  0  0  0  0  0  0  0  0
   70.8878    8.2863   36.0811 C   0  0  2  0  0  0  0  0  0  0  0  0
   70.0197    7.2408   36.4849 O   0  0  0  0  0  0  0  0  0  0  0  0
   71.3579    8.9190   37.3770 C   0  0  0  0  0  0  0  0  0  0  0  0
   70.3687    8.2109   33.1170 N   0  0  0  0  0  0  0  0  0  0  0  0
   69.9111    7.6714   31.8445 C   0  0  2  0  0  0  0  0  0  0  0  0
   69.6038    6.2118   31.9779 C   0  0  0  0  0  0  0  0  0  0  0  0
   69.9659    5.5498   32.9664 O   0  0  0  0  0  0  0  0  0  0  0  0
   70.9006    7.8836   30.7480 C   0  0  2  0  0  0  0  0  0  0  0  0
   72.1273    7.2930   30.9786 O   0  0  0  0  0  0  0  0  0  0  0  0
   71.0316    9.3603   30.3795 C   0  0  0  0  0  0  0  0  0  0  0  0
   68.8651    5.5324   30.9400 N   0  0  0  0  0  0  0  0  0  0  0  0
   68.5394    4.1414   30.9628 C   0  0  2  0  0  0  0  0  0  0  0  0
   69.7248    3.2873   30.9283 C   0  0  0  0  0  0  0  0  0  0  0  0
   70.7927    3.8515   30.4407 O   0  0  0  0  0  0  0  0  0  0  0  0
   67.5808    3.7829   29.8075 C   0  0  0  0  0  0  0  0  0  0  0  0
   69.8278    1.9481   31.3545 N   0  0  0  0  0  0  0  0  0  0  0  0
   71.0003    1.0912   31.0496 C   0  0  2  0  0  0  0  0  0  0  0  0
   71.0952    0.8927   29.5910 C   0  0  0  0  0  0  0  0  0  0  0  0
   69.9765    0.9046   28.9680 O   0  0  0  0  0  0  0  0  0  0  0  0
   70.7363   -0.2136   31.7186 C   0  0  0  0  0  0  0  0  0  0  0  0
   69.2377   -0.2849   31.7944 C   0  0  0  0  0  0  0  0  0  0  0  0
   68.8986    1.1675   32.1166 C   0  0  0  0  0  0  0  0  0  0  0  0
   72.3133    0.6950   28.8779 N   0  0  0  0  0  0  0  0  0  0  0  0
   72.1917    0.6588   27.4314 C   0  0  2  0  0  0  0  0  0  0  0  0
   71.6895   -0.6789   26.9961 C   0  0  0  0  0  0  0  0  0  0  0  0
   72.5422   -1.6036   26.7896 O   0  0  0  0  0  0  0  0  0  0  0  0
   73.6024    0.8717   26.9040 C   0  0  0  0  0  0  0  0  0  0  0  0
   74.4571    1.5874   27.8691 C   0  0  0  0  0  0  0  0  0  0  0  0
   75.7490    1.8872   27.5550 C   0  0  0  0  0  0  0  0  0  0  0  0
   73.9758    1.9689   29.1113 C   0  0  0  0  0  0  0  0  0  0  0  0
   76.5807    2.5648   28.4606 C   0  0  0  0  0  0  0  0  0  0  0  0
   74.7869    2.6322   29.9989 C   0  0  0  0  0  0  0  0  0  0  0  0
   76.0898    2.9368   29.6877 C   0  0  0  0  0  0  0  0  0  0  0  0
   70.3012   -0.9057   26.8250 N   0  0  0  0  0  0  0  0  0  0  0  0
   69.6711   -1.0851   25.5358 C   0  0  2  0  0  0  0  0  0  0  0  0
   70.3790   -2.0049   24.7071 C   0  0  0  0  0  0  0  0  0  0  0  0
   71.4013   -1.5718   24.0602 O   0  0  0  0  0  0  0  0  0  0  0  0
   69.1113    0.1815   25.0687 C   0  0  0  0  0  0  0  0  0  0  0  0
   69.3500    0.6265   23.6708 C   0  0  1  0  0  0  0  0  0  0  0  0
   68.8741    1.9574   23.2473 C   0  0  0  0  0  0  0  0  0  0  0  0
   70.8715    0.5721   23.4004 C   0  0  0  0  0  0  0  0  0  0  0  0
   70.1238   -3.3885   24.4784 N   0  0  0  0  0  0  0  0  0  0  0  0
   71.0200   -4.2605   23.7488 C   0  0  2  0  0  0  0  0  0  0  0  0
   70.1690   -5.2349   22.9782 C   0  0  0  0  0  0  0  0  0  0  0  0
   70.3553   -6.4813   23.1746 O   0  0  0  0  0  0  0  0  0  0  0  0
   72.0175   -4.9701   24.6124 C   0  0  0  0  0  0  0  0  0  0  0  0
   72.8202   -5.7555   23.7792 O   0  0  0  0  0  0  0  0  0  0  0  0
   69.1857   -4.8558   22.0528 N   0  0  0  0  0  0  0  0  0  0  0  0
   69.2127   -3.7699   21.1318 C   0  0  0  0  0  0  0  0  0  0  0  0
   69.6750   -4.0307   19.7822 C   0  0  0  0  0  0  0  0  0  0  0  0
   70.1818   -5.1777   19.5357 O   0  0  0  0  0  0  0  0  0  0  0  0
   69.5881   -3.0635   18.7471 N   0  0  0  0  0  0  0  0  0  0  0  0
   69.5433   -3.5169   17.3808 C   0  0  2  0  0  0  0  0  0  0  0  0
   70.5736   -2.7483   16.6139 C   0  0  0  0  0  0  0  0  0  0  0  0
   71.0217   -1.5505   17.1203 O   0  0  0  0  0  0  0  0  0  0  0  0
   68.1899   -3.3538   16.7961 C   0  0  0  0  0  0  0  0  0  0  0  0
   67.2206   -2.8126   17.7831 C   0  0  0  0  0  0  0  0  0  0  0  0
   66.4895   -1.5765   17.3614 C   0  0  0  0  0  0  0  0  0  0  0  0
   65.4503   -1.0995   18.3360 C   0  0  0  0  0  0  0  0  0  0  0  0
   64.7601    0.0911   17.9750 N   0  0  0  0  0  4  0  0  0  0  0  0
   71.0049   -3.2109   15.5336 O   0  0  0  0  0  0  0  0  0  0  0  0
  2  1  1  1
  2  3  1  0
  2  5  1  0
  3  4  2  0
  3  8  1  0
  5  6  1  0
  5  7  1  1
  9  8  1  1
  9 10  1  0
  9 12  1  0
 10 11  2  0
 10 15  1  0
 12 13  1  0
 12 14  1  1
 15 16  1  0
 16 17  1  0
 16 19  1  6
 17 18  2  0
 17 20  1  0
 20 21  1  0
 20 26  1  0
 21 22  1  6
 21 24  1  0
 22 23  2  0
 22 27  1  0
 24 25  1  0
 25 26  1  0
 27 28  1  0
 28 29  1  0
 28 31  1  6
 29 30  2  0
 29 38  1  0
 31 32  1  0
 32 33  2  0
 32 34  1  0
 33 35  1  0
 34 36  2  0
 35 37  2  0
 36 37  1  0
 38 39  1  0
 39 40  1  0
 39 42  1  6
 40 41  2  0
 40 46  1  0
 42 43  1  0
 43 44  1  1
 43 45  1  0
 46 47  1  0
 47 48  1  0
 47 50  1  1
 48 49  2  0
 48 52  1  0
 50 51  1  0
 52 53  1  0
 53 54  1  0
 54 55  2  0
 54 56  1  0
 56 57  1  0
 57 58  1  0
 57 60  1  6
 58 59  1  0
 58 65  2  0
 60 61  1  0
 61 62  1  0
 62 63  1  0
 63 64  1  0
M  CHG  2   1   1  64   1
M  END
$$$$
