
     RDKit          3D

 65 66  0  0  0  0  0  0  0  0999 V2000
   69.6843   10.4050   36.3269 N   0  0  0  0  0  4  0  0  0  0  0  0
   71.0871    9.9809   36.2241 C   0  0  2  0  0  0  0  0  0  0  0  0
   71.0808    8.5734   35.7645 C   0  0  0  0  0  0  0  0  0  0  0  0
   72.1942    8.0026   35.6100 O   0  0  0  0  0  0  0  0  0  0  0  0
   71.7476   10.1462   37.5828 C   0  0  2  0  0  0  0  0  0  0  0  0
   73.0922    9.7465   37.3778 O   0  0  0  0  0  0  0  0  0  0  0  0
   71.1742    9.1023   38.5220 C   0  0  0  0  0  0  0  0  0  0  0  0
   69.8859    7.8886   35.5058 N   0  0  0  0  0  0  0  0  0  0  0  0
   69.8511    6.5049   35.0545 C   0  0  2  0  0  0  0  0  0  0  0  0
   70.5290    6.3732   33.7256 C   0  0  0  0  0  0  0  0  0  0  0  0
   70.8692    7.3658   33.0581 O   0  0  0  0  0  0  0  0  0  0  0  0
   68.4612    5.9688   34.9706 C   0  0  2  0  0  0  0  0  0  0  0  0
   67.5877    6.7832   34.2772 O   0  0  0  0  0  0  0  0  0  0  0  0
   67.9190    5.5793   36.3446 C   0  0  0  0  0  0  0  0  0  0  0  0
   70.8066    5.0639   33.1841 N   0  0  0  0  0  0  0  0  0  0  0  0
   71.1950    4.8184   31.8311 C   0  0  2  0  0  0  0  0  0  0  0  0
   70.0583    4.4967   30.9708 C   0  0  0  0  0  0  0  0  0  0  0  0
   69.3123    3.5157   31.3926 O   0  0  0  0  0  0  0  0  0  0  0  0
   72.2601    3.7038   31.7593 C   0  0  0  0  0  0  0  0  0  0  0  0
   69.6971    5.1208   29.7602 N   0  0  0  0  0  0  0  0  0  0  0  0
   68.5325    4.6925   28.9465 C   0  0  2  0  0  0  0  0  0  0  0  0
   68.7560    3.3188   28.4574 C   0  0  0  0  0  0  0  0  0  0  0  0
   67.7878    2.8181   27.7852 O   0  0  0  0  0  0  0  0  0  0  0  0
   68.4732    5.6335   27.7930 C   0  0  0  0  0  0  0  0  0  0  0  0
   69.8930    6.0962   27.6299 C   0  0  0  0  0  0  0  0  0  0  0  0
   70.3217    6.2221   29.0888 C   0  0  0  0  0  0  0  0  0  0  0  0
   69.9392    2.5588   28.6890 N   0  0  0  0  0  0  0  0  0  0  0  0
   69.9392    1.2174   28.1330 C   0  0  2  0  0  0  0  0  0  0  0  0
   69.3270    1.2312   26.7706 C   0  0  0  0  0  0  0  0  0  0  0  0
   68.4280    2.1004   26.5238 O   0  0  0  0  0  0  0  0  0  0  0  0
   69.0745    0.3923   29.0738 C   0  0  0  0  0  0  0  0  0  0  0  0
   69.6970   -0.9002   29.4149 C   0  0  0  0  0  0  0  0  0  0  0  0
   70.6205   -0.9775   30.4142 C   0  0  0  0  0  0  0  0  0  0  0  0
   69.3652   -2.0603   28.7335 C   0  0  0  0  0  0  0  0  0  0  0  0
   71.2277   -2.1972   30.7525 C   0  0  0  0  0  0  0  0  0  0  0  0
   69.9571   -3.2549   29.0626 C   0  0  0  0  0  0  0  0  0  0  0  0
   70.8886   -3.3386   30.0687 C   0  0  0  0  0  0  0  0  0  0  0  0
   69.7442    0.3027   25.7846 N   0  0  0  0  0  0  0  0  0  0  0  0
   69.4223    0.4260   24.3801 C   0  0  2  0  0  0  0  0  0  0  0  0
   69.3973   -0.8351   23.7147 C   0  0  0  0  0  0  0  0  0  0  0  0
   70.3001   -1.6970   24.0195 O   0  0  0  0  0  0  0  0  0  0  0  0
   70.0295    1.6358   23.8292 C   0  0  0  0  0  0  0  0  0  0  0  0
   69.3109    2.9337   23.9216 C   0  0  1  0  0  0  0  0  0  0  0  0
   69.9482    4.1500   23.3817 C   0  0  0  0  0  0  0  0  0  0  0  0
   67.9422    2.7783   23.2190 C   0  0  0  0  0  0  0  0  0  0  0  0
   68.4866   -1.3119   22.7271 N   0  0  0  0  0  0  0  0  0  0  0  0
   68.1476   -2.7089   22.5552 C   0  0  2  0  0  0  0  0  0  0  0  0
   69.2027   -3.3210   21.6722 C   0  0  0  0  0  0  0  0  0  0  0  0
   70.0133   -2.5386   21.0742 O   0  0  0  0  0  0  0  0  0  0  0  0
   66.7734   -2.9396   22.0052 C   0  0  0  0  0  0  0  0  0  0  0  0
   66.5821   -2.0455   20.9472 O   0  0  0  0  0  0  0  0  0  0  0  0
   69.3463   -4.7002   21.4628 N   0  0  0  0  0  0  0  0  0  0  0  0
   70.1352   -5.3664   20.4820 C   0  0  0  0  0  0  0  0  0  0  0  0
   70.0568   -4.9001   19.1110 C   0  0  0  0  0  0  0  0  0  0  0  0
   68.9986   -4.2810   18.7504 O   0  0  0  0  0  0  0  0  0  0  0  0
   71.1005   -5.1134   18.1730 N   0  0  0  0  0  0  0  0  0  0  0  0
   70.8435   -4.8451   16.7816 C   0  0  2  0  0  0  0  0  0  0  0  0
   70.6866   -6.1618   16.0872 C   0  0  0  0  0  0  0  0  0  0  0  0
   70.8363   -7.3188   16.8159 O   0  0  0  0  0  0  0  0  0  0  0  0
   71.9243   -4.0304   16.1745 C   0  0  0  0  0  0  0  0  0  0  0  0
   73.0842   -3.8771   17.0896 C   0  0  0  0  0  0  0  0  0  0  0  0
   74.2837   -3.1981   16.5061 C   0  0  0  0  0  0  0  0  0  0  0  0
   75.4546   -3.0816   17.4403 C   0  0  0  0  0  0  0  0  0  0  0  0
   76.2753   -4.2382   17.5550 N   0  0  0  0  0  4  0  0  0  0  0  0
   70.4218   -6.1818   14.8639 O   0  0  0  0  0  0  0  0  0  0  0  0
  2  1  1  1
  2  3  1  0
  2  5  1  0
  3  4  2  0
  3  8  1  0
  5  6  1  0
  5  7  1  1
  9  8  1  6
  9 10  1  0
  9 12  1  0
 10 11  2  0
 10 15  1  0
 12 13  1  0
 12 14  1  1
 15 16  1  0
 16 17  1  0
 16 19  1  1
 17 18  2  0
 17 20  1  0
 20 21  1  0
 20 26  1  0
 21 22  1  6
 21 24  1  0
 22 23  2  0
 22 27  1  0
 24 25  1  0
 25 26  1  0
 27 28  1  0
 28 29  1  0
 28 31  1  1
 29 30  2  0
 29 38  1  0
 31 32  1  0
 32 33  2  0
 32 34  1  0
 33 35  1  0
 34 36  2  0
 35 37  2  0
 36 37  1  0
 38 39  1  0
 39 40  1  0
 39 42  1  6
 40 41  2  0
 40 46  1  0
 42 43  1  0
 43 44  1  6
 43 45  1  0
 46 47  1  0
 47 48  1  0
 47 50  1  6
 48 49  2  0
 48 52  1  0
 50 51  1  0
 52 53  1  0
 53 54  1  0
 54 55  2  0
 54 56  1  0
 56 57  1  0
 57 58  1  0
 57 60  1  6
 58 59  1  0
 58 65  2  0
 60 61  1  0
 61 62  1  0
 62 63  1  0
 63 64  1  0
M  CHG  2   1   1  64   1
M  END
$$$$
