
     RDKit          3D

 65 66  0  0  0  0  0  0  0  0999 V2000
   73.3439    6.4556   38.6033 N   0  0  0  0  0  4  0  0  0  0  0  0
   73.4180    7.4311   37.5074 C   0  0  2  0  0  0  0  0  0  0  0  0
   72.1053    7.4127   36.8225 C   0  0  0  0  0  0  0  0  0  0  0  0
   71.0695    7.4281   37.5410 O   0  0  0  0  0  0  0  0  0  0  0  0
   74.5611    7.0421   36.5845 C   0  0  2  0  0  0  0  0  0  0  0  0
   74.4198    5.6423   36.4106 O   0  0  0  0  0  0  0  0  0  0  0  0
   75.8640    7.2066   37.3434 C   0  0  0  0  0  0  0  0  0  0  0  0
   72.0042    7.3784   35.4254 N   0  0  0  0  0  0  0  0  0  0  0  0
   70.8329    6.8626   34.7313 C   0  0  2  0  0  0  0  0  0  0  0  0
   71.2451    5.9161   33.6465 C   0  0  0  0  0  0  0  0  0  0  0  0
   72.4304    5.5775   33.4826 O   0  0  0  0  0  0  0  0  0  0  0  0
   69.9850    7.9499   34.1612 C   0  0  2  0  0  0  0  0  0  0  0  0
   70.6930    8.8961   33.4468 O   0  0  0  0  0  0  0  0  0  0  0  0
   69.0844    8.5823   35.2208 C   0  0  0  0  0  0  0  0  0  0  0  0
   70.2529    5.3672   32.7527 N   0  0  0  0  0  0  0  0  0  0  0  0
   70.4736    5.1124   31.3642 C   0  0  2  0  0  0  0  0  0  0  0  0
   69.7620    6.0531   30.5014 C   0  0  0  0  0  0  0  0  0  0  0  0
   70.1066    7.3006   30.6490 O   0  0  0  0  0  0  0  0  0  0  0  0
   70.0973    3.6591   31.0060 C   0  0  0  0  0  0  0  0  0  0  0  0
   68.7635    5.7572   29.5521 N   0  0  0  0  0  0  0  0  0  0  0  0
   68.1297    4.4205   29.4362 C   0  0  2  0  0  0  0  0  0  0  0  0
   69.1475    3.4293   29.0390 C   0  0  0  0  0  0  0  0  0  0  0  0
   69.3755    2.5105   29.9015 O   0  0  0  0  0  0  0  0  0  0  0  0
   67.1050    4.5471   28.3621 C   0  0  0  0  0  0  0  0  0  0  0  0
   67.6210    5.6634   27.4993 C   0  0  0  0  0  0  0  0  0  0  0  0
   68.1788    6.6090   28.5590 C   0  0  0  0  0  0  0  0  0  0  0  0
   69.8563    3.4467   27.8027 N   0  0  0  0  0  0  0  0  0  0  0  0
   69.4333    2.4591   26.8258 C   0  0  2  0  0  0  0  0  0  0  0  0
   70.0908    1.1484   27.1098 C   0  0  0  0  0  0  0  0  0  0  0  0
   71.2153    1.1569   27.7100 O   0  0  0  0  0  0  0  0  0  0  0  0
   69.9116    2.9909   25.4835 C   0  0  0  0  0  0  0  0  0  0  0  0
   69.4079    2.1885   24.3536 C   0  0  0  0  0  0  0  0  0  0  0  0
   68.0695    2.1058   24.1101 C   0  0  0  0  0  0  0  0  0  0  0  0
   70.2731    1.5008   23.5177 C   0  0  0  0  0  0  0  0  0  0  0  0
   67.5688    1.3447   23.0421 C   0  0  0  0  0  0  0  0  0  0  0  0
   69.7861    0.7558   22.4719 C   0  0  0  0  0  0  0  0  0  0  0  0
   68.4382    0.6689   22.2219 C   0  0  0  0  0  0  0  0  0  0  0  0
   69.4715   -0.0663   26.7232 N   0  0  0  0  0  0  0  0  0  0  0  0
   70.1227   -1.3557   26.7925 C   0  0  2  0  0  0  0  0  0  0  0  0
   70.9188   -1.6261   25.6406 C   0  0  0  0  0  0  0  0  0  0  0  0
   70.7526   -0.8852   24.6040 O   0  0  0  0  0  0  0  0  0  0  0  0
   69.2416   -2.3307   27.4318 C   0  0  0  0  0  0  0  0  0  0  0  0
   69.0823   -2.3286   28.9096 C   0  0  1  0  0  0  0  0  0  0  0  0
   68.1763   -3.3091   29.5380 C   0  0  0  0  0  0  0  0  0  0  0  0
   70.4793   -2.5164   29.5455 C   0  0  0  0  0  0  0  0  0  0  0  0
   71.9157   -2.6274   25.4521 N   0  0  0  0  0  0  0  0  0  0  0  0
   72.5120   -2.9354   24.1694 C   0  0  2  0  0  0  0  0  0  0  0  0
   71.3885   -3.2404   23.2142 C   0  0  0  0  0  0  0  0  0  0  0  0
   70.2097   -3.3495   23.6887 O   0  0  0  0  0  0  0  0  0  0  0  0
   73.5101   -4.0517   24.2134 C   0  0  0  0  0  0  0  0  0  0  0  0
   73.8489   -4.3728   22.8952 O   0  0  0  0  0  0  0  0  0  0  0  0
   71.5595   -3.4166   21.8334 N   0  0  0  0  0  0  0  0  0  0  0  0
   70.6242   -3.1646   20.7894 C   0  0  0  0  0  0  0  0  0  0  0  0
   70.1560   -4.2914   20.0056 C   0  0  0  0  0  0  0  0  0  0  0  0
   70.9822   -4.8452   19.2032 O   0  0  0  0  0  0  0  0  0  0  0  0
   68.8281   -4.7840   20.0978 N   0  0  0  0  0  0  0  0  0  0  0  0
   67.9062   -4.4871   19.0318 C   0  0  2  0  0  0  0  0  0  0  0  0
   68.5312   -4.9449   17.7511 C   0  0  0  0  0  0  0  0  0  0  0  0
   69.7862   -4.4870   17.4236 O   0  0  0  0  0  0  0  0  0  0  0  0
   67.5664   -3.0438   18.9908 C   0  0  0  0  0  0  0  0  0  0  0  0
   66.5146   -2.7497   17.9841 C   0  0  0  0  0  0  0  0  0  0  0  0
   66.1108   -1.3129   17.8707 C   0  0  0  0  0  0  0  0  0  0  0  0
   64.7071   -1.0190   18.3185 C   0  0  0  0  0  0  0  0  0  0  0  0
   63.7925   -0.6491   17.2934 N   0  0  0  0  0  4  0  0  0  0  0  0
   67.9018   -5.7329   17.0094 O   0  0  0  0  0  0  0  0  0  0  0  0
  2  1  1  1
  2  3  1  0
  2  5  1  0
  3  4  2  0
  3  8  1  0
  5  6  1  0
  5  7  1  1
  9  8  1  6
  9 10  1  0
  9 12  1  0
 10 11  2  0
 10 15  1  0
 12 13  1  0
 12 14  1  1
 15 16  1  0
 16 17  1  0
 16 19  1  6
 17 18  2  0
 17 20  1  0
 20 21  1  0
 20 26  1  0
 21 22  1  6
 21 24  1  0
 22 23  2  0
 22 27  1  0
 24 25  1  0
 25 26  1  0
 27 28  1  0
 28 29  1  0
 28 31  1  6
 29 30  2  0
 29 38  1  0
 31 32  1  0
 32 33  2  0
 32 34  1  0
 33 35  1  0
 34 36  2  0
 35 37  2  0
 36 37  1  0
 38 39  1  0
 39 40  1  0
 39 42  1  6
 40 41  2  0
 40 46  1  0
 42 43  1  0
 43 44  1  6
 43 45  1  0
 46 47  1  0
 47 48  1  0
 47 50  1  1
 48 49  2  0
 48 52  1  0
 50 51  1  0
 52 53  1  0
 53 54  1  0
 54 55  2  0
 54 56  1  0
 56 57  1  0
 57 58  1  0
 57 60  1  6
 58 59  1  0
 58 65  2  0
 60 61  1  0
 61 62  1  0
 62 63  1  0
 63 64  1  0
M  CHG  2   1   1  64   1
M  END
$$$$
