
     RDKit          3D

 65 66  0  0  0  0  0  0  0  0999 V2000
   67.8304   10.4322   36.9251 N   0  0  0  0  0  4  0  0  0  0  0  0
   68.9345   10.2171   35.9801 C   0  0  2  0  0  0  0  0  0  0  0  0
   68.4169    9.3445   34.9016 C   0  0  0  0  0  0  0  0  0  0  0  0
   67.3784    8.6709   35.1408 O   0  0  0  0  0  0  0  0  0  0  0  0
   70.1003    9.5900   36.7266 C   0  0  2  0  0  0  0  0  0  0  0  0
   69.4946    8.7478   37.6930 O   0  0  0  0  0  0  0  0  0  0  0  0
   70.7868   10.6736   37.5359 C   0  0  0  0  0  0  0  0  0  0  0  0
   69.0504    9.2606   33.6546 N   0  0  0  0  0  0  0  0  0  0  0  0
   68.6403    8.3189   32.6229 C   0  0  2  0  0  0  0  0  0  0  0  0
   68.9470    6.9157   33.0467 C   0  0  0  0  0  0  0  0  0  0  0  0
   69.7045    6.6662   34.0009 O   0  0  0  0  0  0  0  0  0  0  0  0
   69.2817    8.6030   31.3060 C   0  0  2  0  0  0  0  0  0  0  0  0
   70.6601    8.5214   31.3252 O   0  0  0  0  0  0  0  0  0  0  0  0
   68.7902    9.9197   30.7074 C   0  0  0  0  0  0  0  0  0  0  0  0
   68.3558    5.8034   32.3410 N   0  0  0  0  0  0  0  0  0  0  0  0
   68.7871    4.4474   32.4704 C   0  0  2  0  0  0  0  0  0  0  0  0
   69.9854    4.1626   31.6839 C   0  0  0  0  0  0  0  0  0  0  0  0
   70.1758    4.9560   30.6686 O   0  0  0  0  0  0  0  0  0  0  0  0
   67.6508    3.4719   32.0973 C   0  0  0  0  0  0  0  0  0  0  0  0
   70.9307    3.1409   31.9033 N   0  0  0  0  0  0  0  0  0  0  0  0
   71.4336    2.2595   30.8207 C   0  0  2  0  0  0  0  0  0  0  0  0
   70.3189    1.4525   30.2893 C   0  0  0  0  0  0  0  0  0  0  0  0
   69.1526    1.9445   30.4829 O   0  0  0  0  0  0  0  0  0  0  0  0
   72.4419    1.3665   31.4576 C   0  0  0  0  0  0  0  0  0  0  0  0
   72.0141    1.3056   32.8964 C   0  0  0  0  0  0  0  0  0  0  0  0
   71.5708    2.7478   33.1238 C   0  0  0  0  0  0  0  0  0  0  0  0
   70.4712    0.2107   29.6066 N   0  0  0  0  0  0  0  0  0  0  0  0
   70.8873    0.3074   28.2188 C   0  0  2  0  0  0  0  0  0  0  0  0
   70.2016   -0.7427   27.4075 C   0  0  0  0  0  0  0  0  0  0  0  0
   68.9853   -1.0123   27.6768 O   0  0  0  0  0  0  0  0  0  0  0  0
   72.3860    0.0479   28.2294 C   0  0  0  0  0  0  0  0  0  0  0  0
   72.7691   -0.9708   29.2242 C   0  0  0  0  0  0  0  0  0  0  0  0
   71.8257   -1.5371   30.0286 C   0  0  0  0  0  0  0  0  0  0  0  0
   74.0867   -1.3747   29.3692 C   0  0  0  0  0  0  0  0  0  0  0  0
   72.1696   -2.5060   30.9844 C   0  0  0  0  0  0  0  0  0  0  0  0
   74.4258   -2.3227   30.3031 C   0  0  0  0  0  0  0  0  0  0  0  0
   73.4792   -2.8966   31.1164 C   0  0  0  0  0  0  0  0  0  0  0  0
   70.8911   -1.4119   26.3659 N   0  0  0  0  0  0  0  0  0  0  0  0
   70.9330   -0.9398   24.9996 C   0  0  2  0  0  0  0  0  0  0  0  0
   71.7834   -1.7339   24.1750 C   0  0  0  0  0  0  0  0  0  0  0  0
   73.0328   -1.7876   24.4705 O   0  0  0  0  0  0  0  0  0  0  0  0
   70.8876    0.5206   24.9704 C   0  0  0  0  0  0  0  0  0  0  0  0
   69.5924    1.2257   25.1559 C   0  0  1  0  0  0  0  0  0  0  0  0
   69.3467    2.4849   24.4271 C   0  0  0  0  0  0  0  0  0  0  0  0
   68.4534    0.2475   24.7856 C   0  0  0  0  0  0  0  0  0  0  0  0
   71.4506   -2.5148   23.0299 N   0  0  0  0  0  0  0  0  0  0  0  0
   72.4070   -3.3238   22.3041 C   0  0  2  0  0  0  0  0  0  0  0  0
   71.6697   -3.9754   21.1642 C   0  0  0  0  0  0  0  0  0  0  0  0
   70.8286   -4.8937   21.4398 O   0  0  0  0  0  0  0  0  0  0  0  0
   73.1130   -4.3390   23.1497 C   0  0  0  0  0  0  0  0  0  0  0  0
   73.9589   -5.0755   22.3145 O   0  0  0  0  0  0  0  0  0  0  0  0
   71.8544   -3.6373   19.8157 N   0  0  0  0  0  0  0  0  0  0  0  0
   71.2125   -2.6092   19.0680 C   0  0  0  0  0  0  0  0  0  0  0  0
   69.8337   -2.8150   18.6684 C   0  0  0  0  0  0  0  0  0  0  0  0
   68.9385   -2.7952   19.5800 O   0  0  0  0  0  0  0  0  0  0  0  0
   69.4574   -3.0402   17.3185 N   0  0  0  0  0  0  0  0  0  0  0  0
   68.2341   -2.4530   16.8358 C   0  0  2  0  0  0  0  0  0  0  0  0
   67.1034   -3.3210   17.2924 C   0  0  0  0  0  0  0  0  0  0  0  0
   65.8124   -2.8991   17.0746 O   0  0  0  0  0  0  0  0  0  0  0  0
   68.2472   -2.3009   15.3603 C   0  0  0  0  0  0  0  0  0  0  0  0
   69.4065   -2.9931   14.7414 C   0  0  0  0  0  0  0  0  0  0  0  0
   69.0752   -4.1907   13.9070 C   0  0  0  0  0  0  0  0  0  0  0  0
   70.2656   -4.8941   13.3191 C   0  0  0  0  0  0  0  0  0  0  0  0
   70.4502   -6.2459   13.7226 N   0  0  0  0  0  4  0  0  0  0  0  0
   67.3556   -4.4086   17.8587 O   0  0  0  0  0  0  0  0  0  0  0  0
  2  1  1  1
  2  3  1  0
  2  5  1  0
  3  4  2  0
  3  8  1  0
  5  6  1  0
  5  7  1  1
  9  8  1  1
  9 10  1  0
  9 12  1  0
 10 11  2  0
 10 15  1  0
 12 13  1  0
 12 14  1  1
 15 16  1  0
 16 17  1  0
 16 19  1  6
 17 18  2  0
 17 20  1  0
 20 21  1  0
 20 26  1  0
 21 22  1  1
 21 24  1  0
 22 23  2  0
 22 27  1  0
 24 25  1  0
 25 26  1  0
 27 28  1  0
 28 29  1  0
 28 31  1  1
 29 30  2  0
 29 38  1  0
 31 32  1  0
 32 33  2  0
 32 34  1  0
 33 35  1  0
 34 36  2  0
 35 37  2  0
 36 37  1  0
 38 39  1  0
 39 40  1  0
 39 42  1  1
 40 41  2  0
 40 46  1  0
 42 43  1  0
 43 44  1  6
 43 45  1  0
 46 47  1  0
 47 48  1  0
 47 50  1  1
 48 49  2  0
 48 52  1  0
 50 51  1  0
 52 53  1  0
 53 54  1  0
 54 55  2  0
 54 56  1  0
 56 57  1  0
 57 58  1  0
 57 60  1  6
 58 59  1  0
 58 65  2  0
 60 61  1  0
 61 62  1  0
 62 63  1  0
 63 64  1  0
M  CHG  2   1   1  64   1
M  END
$$$$
