
     RDKit          3D

 65 66  0  0  0  0  0  0  0  0999 V2000
   68.9767   10.2916   37.0454 N   0  0  0  0  0  4  0  0  0  0  0  0
   68.4151    9.2812   36.1388 C   0  0  2  0  0  0  0  0  0  0  0  0
   69.5580    8.5601   35.5337 C   0  0  0  0  0  0  0  0  0  0  0  0
   70.6121    9.2149   35.3109 O   0  0  0  0  0  0  0  0  0  0  0  0
   67.5540    9.9819   35.1009 C   0  0  2  0  0  0  0  0  0  0  0  0
   66.2215    9.6750   35.4756 O   0  0  0  0  0  0  0  0  0  0  0  0
   67.7501    9.2839   33.7687 C   0  0  0  0  0  0  0  0  0  0  0  0
   69.4833    7.1978   35.2141 N   0  0  0  0  0  0  0  0  0  0  0  0
   70.6046    6.4553   34.6566 C   0  0  2  0  0  0  0  0  0  0  0  0
   70.5148    6.4206   33.1621 C   0  0  0  0  0  0  0  0  0  0  0  0
   69.5330    6.8768   32.5502 O   0  0  0  0  0  0  0  0  0  0  0  0
   70.6891    5.0653   35.1924 C   0  0  2  0  0  0  0  0  0  0  0  0
   69.5735    4.2950   34.9297 O   0  0  0  0  0  0  0  0  0  0  0  0
   71.0652    5.0495   36.6729 C   0  0  0  0  0  0  0  0  0  0  0  0
   71.5894    5.8456   32.3881 N   0  0  0  0  0  0  0  0  0  0  0  0
   71.5894    5.7432   30.9629 C   0  0  2  0  0  0  0  0  0  0  0  0
   70.8310    4.5896   30.4835 C   0  0  0  0  0  0  0  0  0  0  0  0
   70.9058    3.5319   31.2400 O   0  0  0  0  0  0  0  0  0  0  0  0
   73.0318    5.7077   30.4150 C   0  0  0  0  0  0  0  0  0  0  0  0
   70.0493    4.5049   29.3142 N   0  0  0  0  0  0  0  0  0  0  0  0
   69.4161    3.2437   28.8553 C   0  0  2  0  0  0  0  0  0  0  0  0
   70.4658    2.2628   28.5206 C   0  0  0  0  0  0  0  0  0  0  0  0
   71.3711    2.6887   27.7212 O   0  0  0  0  0  0  0  0  0  0  0  0
   68.6478    3.5963   27.6286 C   0  0  0  0  0  0  0  0  0  0  0  0
   69.3679    4.7965   27.0829 C   0  0  0  0  0  0  0  0  0  0  0  0
   69.7145    5.5329   28.3735 C   0  0  0  0  0  0  0  0  0  0  0  0
   70.5158    0.9282   29.0181 N   0  0  0  0  0  0  0  0  0  0  0  0
   71.8120    0.2789   28.9361 C   0  0  2  0  0  0  0  0  0  0  0  0
   71.9467   -0.4250   27.6255 C   0  0  0  0  0  0  0  0  0  0  0  0
   72.9016   -1.2575   27.4850 O   0  0  0  0  0  0  0  0  0  0  0  0
   71.8241   -0.7387   30.0665 C   0  0  0  0  0  0  0  0  0  0  0  0
   71.8547   -0.0979   31.3942 C   0  0  0  0  0  0  0  0  0  0  0  0
   72.8971    0.7061   31.7471 C   0  0  0  0  0  0  0  0  0  0  0  0
   70.8355   -0.2956   32.3119 C   0  0  0  0  0  0  0  0  0  0  0  0
   72.9475    1.3230   33.0071 C   0  0  0  0  0  0  0  0  0  0  0  0
   70.8819    0.3069   33.5450 C   0  0  0  0  0  0  0  0  0  0  0  0
   71.9301    1.1180   33.9060 C   0  0  0  0  0  0  0  0  0  0  0  0
   71.0301   -0.1714   26.5748 N   0  0  0  0  0  0  0  0  0  0  0  0
   71.2081   -0.6517   25.2224 C   0  0  2  0  0  0  0  0  0  0  0  0
   70.1537   -0.2393   24.3551 C   0  0  0  0  0  0  0  0  0  0  0  0
   68.9587   -0.6214   24.6329 O   0  0  0  0  0  0  0  0  0  0  0  0
   71.7845   -1.9946   25.2372 C   0  0  0  0  0  0  0  0  0  0  0  0
   70.9227   -3.1677   25.5376 C   0  0  1  0  0  0  0  0  0  0  0  0
   69.7170   -3.4041   24.7206 C   0  0  0  0  0  0  0  0  0  0  0  0
   71.7954   -4.4415   25.4532 C   0  0  0  0  0  0  0  0  0  0  0  0
   70.2188    0.5686   23.1826 N   0  0  0  0  0  0  0  0  0  0  0  0
   69.2616    0.4903   22.0993 C   0  0  2  0  0  0  0  0  0  0  0  0
   69.9996   -0.0046   20.8836 C   0  0  0  0  0  0  0  0  0  0  0  0
   71.2264    0.3188   20.7527 O   0  0  0  0  0  0  0  0  0  0  0  0
   68.5503    1.7788   21.8199 C   0  0  0  0  0  0  0  0  0  0  0  0
   67.6847    1.5630   20.7430 O   0  0  0  0  0  0  0  0  0  0  0  0
   69.4190   -0.7968   19.8825 N   0  0  0  0  0  0  0  0  0  0  0  0
   68.7268   -2.0331   20.0262 C   0  0  0  0  0  0  0  0  0  0  0  0
   67.9927   -2.5414   18.8835 C   0  0  0  0  0  0  0  0  0  0  0  0
   67.5197   -1.6936   18.0524 O   0  0  0  0  0  0  0  0  0  0  0  0
   67.7826   -3.9285   18.6688 N   0  0  0  0  0  0  0  0  0  0  0  0
   68.1183   -4.4868   17.3843 C   0  0  2  0  0  0  0  0  0  0  0  0
   67.8031   -5.9494   17.4291 C   0  0  0  0  0  0  0  0  0  0  0  0
   67.9499   -6.6242   18.6187 O   0  0  0  0  0  0  0  0  0  0  0  0
   69.5398   -4.2426   17.0382 C   0  0  0  0  0  0  0  0  0  0  0  0
   69.6900   -3.6868   15.6690 C   0  0  0  0  0  0  0  0  0  0  0  0
   71.0981   -3.4896   15.2013 C   0  0  0  0  0  0  0  0  0  0  0  0
   71.6957   -4.6733   14.4948 C   0  0  0  0  0  0  0  0  0  0  0  0
   71.5931   -5.9192   15.1742 N   0  0  0  0  0  4  0  0  0  0  0  0
   67.4125   -6.5243   16.3880 O   0  0  0  0  0  0  0  0  0  0  0  0
  2  1  1  1
  2  3  1  0
  2  5  1  0
  3  4  2  0
  3  8  1  0
  5  6  1  0
  5  7  1  6
  9  8  1  1
  9 10  1  0
  9 12  1  0
 10 11  2  0
 10 15  1  0
 12 13  1  0
 12 14  1  1
 15 16  1  0
 16 17  1  0
 16 19  1  1
 17 18  2  0
 17 20  1  0
 20 21  1  0
 20 26  1  0
 21 22  1  6
 21 24  1  0
 22 23  2  0
 22 27  1  0
 24 25  1  0
 25 26  1  0
 27 28  1  0
 28 29  1  0
 28 31  1  1
 29 30  2  0
 29 38  1  0
 31 32  1  0
 32 33  2  0
 32 34  1  0
 33 35  1  0
 34 36  2  0
 35 37  2  0
 36 37  1  0
 38 39  1  0
 39 40  1  0
 39 42  1  1
 40 41  2  0
 40 46  1  0
 42 43  1  0
 43 44  1  6
 43 45  1  0
 46 47  1  0
 47 48  1  0
 47 50  1  6
 48 49  2  0
 48 52  1  0
 50 51  1  0
 52 53  1  0
 53 54  1  0
 54 55  2  0
 54 56  1  0
 56 57  1  0
 57 58  1  0
 57 60  1  1
 58 59  1  0
 58 65  2  0
 60 61  1  0
 61 62  1  0
 62 63  1  0
 63 64  1  0
M  CHG  2   1   1  64   1
M  END
$$$$
