
     RDKit          3D

 65 66  0  0  0  0  0  0  0  0999 V2000
   68.8448    9.2078   36.1507 N   0  0  0  0  0  4  0  0  0  0  0  0
   69.2758    9.9783   34.9764 C   0  0  2  0  0  0  0  0  0  0  0  0
   69.9380    9.0274   34.0546 C   0  0  0  0  0  0  0  0  0  0  0  0
   69.4530    8.8989   32.8980 O   0  0  0  0  0  0  0  0  0  0  0  0
   70.2076   11.0875   35.4360 C   0  0  2  0  0  0  0  0  0  0  0  0
   70.7718   11.5989   34.2401 O   0  0  0  0  0  0  0  0  0  0  0  0
   71.3735   10.4564   36.1728 C   0  0  0  0  0  0  0  0  0  0  0  0
   71.0644    8.2895   34.4420 N   0  0  0  0  0  0  0  0  0  0  0  0
   71.3750    6.9771   33.8937 C   0  0  2  0  0  0  0  0  0  0  0  0
   70.7577    6.8194   32.5385 C   0  0  0  0  0  0  0  0  0  0  0  0
   71.3233    7.2201   31.5060 O   0  0  0  0  0  0  0  0  0  0  0  0
   70.9296    5.8677   34.7866 C   0  0  2  0  0  0  0  0  0  0  0  0
   71.0765    6.1389   36.1327 O   0  0  0  0  0  0  0  0  0  0  0  0
   71.5631    4.5342   34.3945 C   0  0  0  0  0  0  0  0  0  0  0  0
   69.4677    6.1851   32.4028 N   0  0  0  0  0  0  0  0  0  0  0  0
   69.0245    5.5064   31.2262 C   0  0  2  0  0  0  0  0  0  0  0  0
   69.4547    4.1102   31.1884 C   0  0  0  0  0  0  0  0  0  0  0  0
   70.7044    3.9133   31.4986 O   0  0  0  0  0  0  0  0  0  0  0  0
   69.4886    6.2498   29.9558 C   0  0  0  0  0  0  0  0  0  0  0  0
   68.6768    2.9834   30.8557 N   0  0  0  0  0  0  0  0  0  0  0  0
   69.2034    1.5967   30.8993 C   0  0  2  0  0  0  0  0  0  0  0  0
   70.2833    1.4520   29.9047 C   0  0  0  0  0  0  0  0  0  0  0  0
   70.5503    2.5109   29.2359 O   0  0  0  0  0  0  0  0  0  0  0  0
   68.0601    0.7149   30.5321 C   0  0  0  0  0  0  0  0  0  0  0  0
   67.1808    1.5943   29.6893 C   0  0  0  0  0  0  0  0  0  0  0  0
   67.3095    2.9216   30.4308 C   0  0  0  0  0  0  0  0  0  0  0  0
   71.0058    0.2476   29.6629 N   0  0  0  0  0  0  0  0  0  0  0  0
   71.9241    0.2847   28.5387 C   0  0  2  0  0  0  0  0  0  0  0  0
   71.3549   -0.4834   27.3910 C   0  0  0  0  0  0  0  0  0  0  0  0
   70.8051   -1.6076   27.6330 O   0  0  0  0  0  0  0  0  0  0  0  0
   73.1912   -0.3971   29.0320 C   0  0  0  0  0  0  0  0  0  0  0  0
   73.9550    0.4519   29.9648 C   0  0  0  0  0  0  0  0  0  0  0  0
   73.5203    0.6340   31.2437 C   0  0  0  0  0  0  0  0  0  0  0  0
   75.1232    1.0840   29.5700 C   0  0  0  0  0  0  0  0  0  0  0  0
   74.2304    1.4408   32.1467 C   0  0  0  0  0  0  0  0  0  0  0  0
   75.8201    1.8735   30.4514 C   0  0  0  0  0  0  0  0  0  0  0  0
   75.3865    2.0606   31.7413 C   0  0  0  0  0  0  0  0  0  0  0  0
   71.4245    0.0340   26.0735 N   0  0  0  0  0  0  0  0  0  0  0  0
   70.9120   -0.6588   24.9121 C   0  0  2  0  0  0  0  0  0  0  0  0
   71.7447   -0.4908   23.7666 C   0  0  0  0  0  0  0  0  0  0  0  0
   72.3520    0.6322   23.6207 O   0  0  0  0  0  0  0  0  0  0  0  0
   69.4525   -0.5870   24.8869 C   0  0  0  0  0  0  0  0  0  0  0  0
   68.7741    0.7334   24.9608 C   0  0  1  0  0  0  0  0  0  0  0  0
   69.0929    1.7645   23.9547 C   0  0  0  0  0  0  0  0  0  0  0  0
   67.2472    0.4946   24.9102 C   0  0  0  0  0  0  0  0  0  0  0  0
   72.0256   -1.4133   22.7169 N   0  0  0  0  0  0  0  0  0  0  0  0
   73.0833   -2.3999   22.7766 C   0  0  2  0  0  0  0  0  0  0  0  0
   72.9462   -3.2786   21.5614 C   0  0  0  0  0  0  0  0  0  0  0  0
   72.9213   -4.5421   21.7335 O   0  0  0  0  0  0  0  0  0  0  0  0
   73.0923   -3.2087   24.0375 C   0  0  0  0  0  0  0  0  0  0  0  0
   74.1364   -4.1340   23.9431 O   0  0  0  0  0  0  0  0  0  0  0  0
   72.8485   -2.7926   20.2495 N   0  0  0  0  0  0  0  0  0  0  0  0
   72.5632   -3.5193   19.0584 C   0  0  0  0  0  0  0  0  0  0  0  0
   71.3498   -4.3123   19.0166 C   0  0  0  0  0  0  0  0  0  0  0  0
   71.3473   -5.3621   18.2879 O   0  0  0  0  0  0  0  0  0  0  0  0
   70.1832   -3.9587   19.7437 N   0  0  0  0  0  0  0  0  0  0  0  0
   68.9813   -3.6498   19.0127 C   0  0  2  0  0  0  0  0  0  0  0  0
   68.8074   -4.7008   17.9612 C   0  0  0  0  0  0  0  0  0  0  0  0
   67.5513   -4.9241   17.4468 O   0  0  0  0  0  0  0  0  0  0  0  0
   69.0353   -2.2893   18.4243 C   0  0  0  0  0  0  0  0  0  0  0  0
   67.7741   -1.9376   17.7229 C   0  0  0  0  0  0  0  0  0  0  0  0
   67.1933   -0.6016   18.0665 C   0  0  0  0  0  0  0  0  0  0  0  0
   65.9044   -0.2791   17.3649 C   0  0  0  0  0  0  0  0  0  0  0  0
   65.8333   -0.6519   15.9937 N   0  0  0  0  0  4  0  0  0  0  0  0
   69.8047   -5.3501   17.5728 O   0  0  0  0  0  0  0  0  0  0  0  0
  2  1  1  1
  2  3  1  0
  2  5  1  0
  3  4  2  0
  3  8  1  0
  5  6  1  0
  5  7  1  1
  9  8  1  1
  9 10  1  0
  9 12  1  0
 10 11  2  0
 10 15  1  0
 12 13  1  0
 12 14  1  6
 15 16  1  0
 16 17  1  0
 16 19  1  6
 17 18  2  0
 17 20  1  0
 20 21  1  0
 20 26  1  0
 21 22  1  6
 21 24  1  0
 22 23  2  0
 22 27  1  0
 24 25  1  0
 25 26  1  0
 27 28  1  0
 28 29  1  0
 28 31  1  1
 29 30  2  0
 29 38  1  0
 31 32  1  0
 32 33  2  0
 32 34  1  0
 33 35  1  0
 34 36  2  0
 35 37  2  0
 36 37  1  0
 38 39  1  0
 39 40  1  0
 39 42  1  6
 40 41  2  0
 40 46  1  0
 42 43  1  0
 43 44  1  6
 43 45  1  0
 46 47  1  0
 47 48  1  0
 47 50  1  1
 48 49  2  0
 48 52  1  0
 50 51  1  0
 52 53  1  0
 53 54  1  0
 54 55  2  0
 54 56  1  0
 56 57  1  0
 57 58  1  0
 57 60  1  6
 58 59  1  0
 58 65  2  0
 60 61  1  0
 61 62  1  0
 62 63  1  0
 63 64  1  0
M  CHG  2   1   1  64   1
M  END
$$$$
