
     RDKit          3D

 65 66  0  0  0  0  0  0  0  0999 V2000
   70.6596   10.4740   34.9408 N   0  0  0  0  0  4  0  0  0  0  0  0
   69.6078    9.5743   35.4333 C   0  0  2  0  0  0  0  0  0  0  0  0
   69.1079    8.8133   34.2656 C   0  0  0  0  0  0  0  0  0  0  0  0
   68.0993    8.0761   34.4351 O   0  0  0  0  0  0  0  0  0  0  0  0
   68.5217   10.4083   36.0925 C   0  0  2  0  0  0  0  0  0  0  0  0
   68.0120   11.2211   35.0487 O   0  0  0  0  0  0  0  0  0  0  0  0
   69.1825   11.3810   37.0504 C   0  0  0  0  0  0  0  0  0  0  0  0
   69.7256    8.9001   33.0109 N   0  0  0  0  0  0  0  0  0  0  0  0
   69.4867    7.9373   31.9454 C   0  0  2  0  0  0  0  0  0  0  0  0
   69.6806    6.5413   32.4516 C   0  0  0  0  0  0  0  0  0  0  0  0
   70.3310    6.2988   33.4835 O   0  0  0  0  0  0  0  0  0  0  0  0
   70.3607    8.1730   30.7592 C   0  0  2  0  0  0  0  0  0  0  0  0
   71.7053    7.9790   31.0070 O   0  0  0  0  0  0  0  0  0  0  0  0
   70.0836    9.5277   30.1100 C   0  0  0  0  0  0  0  0  0  0  0  0
   69.1030    5.4279   31.7364 N   0  0  0  0  0  0  0  0  0  0  0  0
   69.4412    4.0593   31.9692 C   0  0  2  0  0  0  0  0  0  0  0  0
   70.8713    3.8010   31.8155 C   0  0  0  0  0  0  0  0  0  0  0  0
   71.4873    4.6008   30.9923 O   0  0  0  0  0  0  0  0  0  0  0  0
   68.6216    3.1275   31.0515 C   0  0  0  0  0  0  0  0  0  0  0  0
   71.6330    2.7983   32.4480 N   0  0  0  0  0  0  0  0  0  0  0  0
   72.9975    2.4197   32.0043 C   0  0  2  0  0  0  0  0  0  0  0  0
   72.9303    1.8551   30.6431 C   0  0  0  0  0  0  0  0  0  0  0  0
   72.8792    2.7192   29.6994 O   0  0  0  0  0  0  0  0  0  0  0  0
   73.4614    1.3749   32.9597 C   0  0  0  0  0  0  0  0  0  0  0  0
   72.1896    0.7491   33.4574 C   0  0  0  0  0  0  0  0  0  0  0  0
   71.2926    1.9780   33.5727 C   0  0  0  0  0  0  0  0  0  0  0  0
   72.9174    0.4618   30.3437 N   0  0  0  0  0  0  0  0  0  0  0  0
   72.6901    0.1242   28.9498 C   0  0  2  0  0  0  0  0  0  0  0  0
   72.5955   -1.3583   28.7941 C   0  0  0  0  0  0  0  0  0  0  0  0
   73.3319   -2.0893   29.5344 O   0  0  0  0  0  0  0  0  0  0  0  0
   73.9134    0.6392   28.2069 C   0  0  0  0  0  0  0  0  0  0  0  0
   75.1689    0.3251   28.9135 C   0  0  0  0  0  0  0  0  0  0  0  0
   76.3462    0.2597   28.2299 C   0  0  0  0  0  0  0  0  0  0  0  0
   75.1859    0.0873   30.2786 C   0  0  0  0  0  0  0  0  0  0  0  0
   77.5520   -0.0413   28.8826 C   0  0  0  0  0  0  0  0  0  0  0  0
   76.3640   -0.2069   30.9198 C   0  0  0  0  0  0  0  0  0  0  0  0
   77.5534   -0.2742   30.2358 C   0  0  0  0  0  0  0  0  0  0  0  0
   71.7048   -1.9275   27.8501 N   0  0  0  0  0  0  0  0  0  0  0  0
   70.7887   -1.1520   27.0434 C   0  0  2  0  0  0  0  0  0  0  0  0
   71.0755   -1.2478   25.6497 C   0  0  0  0  0  0  0  0  0  0  0  0
   71.4699   -0.1878   25.0399 O   0  0  0  0  0  0  0  0  0  0  0  0
   70.4428    0.0912   27.7294 C   0  0  0  0  0  0  0  0  0  0  0  0
   69.4911    1.0443   27.1009 C   0  0  1  0  0  0  0  0  0  0  0  0
   68.1849    0.5497   26.6250 C   0  0  0  0  0  0  0  0  0  0  0  0
   69.2144    2.1845   28.1083 C   0  0  0  0  0  0  0  0  0  0  0  0
   70.9956   -2.3834   24.7919 N   0  0  0  0  0  0  0  0  0  0  0  0
   71.7243   -2.5020   23.5466 C   0  0  2  0  0  0  0  0  0  0  0  0
   70.7300   -2.8746   22.4789 C   0  0  0  0  0  0  0  0  0  0  0  0
   69.9401   -3.8495   22.7077 O   0  0  0  0  0  0  0  0  0  0  0  0
   72.8628   -3.4744   23.5966 C   0  0  0  0  0  0  0  0  0  0  0  0
   73.6163   -3.3088   22.4303 O   0  0  0  0  0  0  0  0  0  0  0  0
   70.6219   -2.2176   21.2446 N   0  0  0  0  0  0  0  0  0  0  0  0
   71.2821   -2.5249   20.0207 C   0  0  0  0  0  0  0  0  0  0  0  0
   70.4650   -2.8160   18.8586 C   0  0  0  0  0  0  0  0  0  0  0  0
   71.0504   -2.9170   17.7271 O   0  0  0  0  0  0  0  0  0  0  0  0
   69.0578   -2.9825   18.9392 N   0  0  0  0  0  0  0  0  0  0  0  0
   68.3092   -3.1311   17.7178 C   0  0  2  0  0  0  0  0  0  0  0  0
   68.5526   -4.5151   17.2022 C   0  0  0  0  0  0  0  0  0  0  0  0
   68.7652   -4.6941   15.8550 O   0  0  0  0  0  0  0  0  0  0  0  0
   68.6844   -2.1002   16.7193 C   0  0  0  0  0  0  0  0  0  0  0  0
   67.9103   -2.2404   15.4594 C   0  0  0  0  0  0  0  0  0  0  0  0
   66.8459   -1.2121   15.2359 C   0  0  0  0  0  0  0  0  0  0  0  0
   65.9993   -1.4409   14.0159 C   0  0  0  0  0  0  0  0  0  0  0  0
   66.1463   -0.4877   12.9701 N   0  0  0  0  0  4  0  0  0  0  0  0
   68.5592   -5.4757   18.0049 O   0  0  0  0  0  0  0  0  0  0  0  0
  2  1  1  6
  2  3  1  0
  2  5  1  0
  3  4  2  0
  3  8  1  0
  5  6  1  0
  5  7  1  1
  9  8  1  1
  9 10  1  0
  9 12  1  0
 10 11  2  0
 10 15  1  0
 12 13  1  0
 12 14  1  1
 15 16  1  0
 16 17  1  0
 16 19  1  6
 17 18  2  0
 17 20  1  0
 20 21  1  0
 20 26  1  0
 21 22  1  6
 21 24  1  0
 22 23  2  0
 22 27  1  0
 24 25  1  0
 25 26  1  0
 27 28  1  0
 28 29  1  0
 28 31  1  6
 29 30  2  0
 29 38  1  0
 31 32  1  0
 32 33  2  0
 32 34  1  0
 33 35  1  0
 34 36  2  0
 35 37  2  0
 36 37  1  0
 38 39  1  0
 39 40  1  0
 39 42  1  1
 40 41  2  0
 40 46  1  0
 42 43  1  0
 43 44  1  1
 43 45  1  0
 46 47  1  0
 47 48  1  0
 47 50  1  1
 48 49  2  0
 48 52  1  0
 50 51  1  0
 52 53  1  0
 53 54  1  0
 54 55  2  0
 54 56  1  0
 56 57  1  0
 57 58  1  0
 57 60  1  6
 58 59  1  0
 58 65  2  0
 60 61  1  0
 61 62  1  0
 62 63  1  0
 63 64  1  0
M  CHG  2   1   1  64   1
M  END
$$$$
