
     RDKit          3D

 65 66  0  0  0  0  0  0  0  0999 V2000
   67.7190   10.5841   35.8215 N   0  0  0  0  0  4  0  0  0  0  0  0
   68.9864   10.6275   35.0798 C   0  0  2  0  0  0  0  0  0  0  0  0
   69.6878    9.3511   35.3471 C   0  0  0  0  0  0  0  0  0  0  0  0
   70.8721    9.4120   35.7750 O   0  0  0  0  0  0  0  0  0  0  0  0
   69.7819   11.8365   35.5436 C   0  0  2  0  0  0  0  0  0  0  0  0
   70.5528   12.2119   34.4146 O   0  0  0  0  0  0  0  0  0  0  0  0
   70.7996   11.3733   36.5684 C   0  0  0  0  0  0  0  0  0  0  0  0
   69.0684    8.1122   35.1352 N   0  0  0  0  0  0  0  0  0  0  0  0
   69.7089    6.8446   35.4557 C   0  0  2  0  0  0  0  0  0  0  0  0
   70.5426    6.3762   34.3033 C   0  0  0  0  0  0  0  0  0  0  0  0
   70.8142    7.1173   33.3422 O   0  0  0  0  0  0  0  0  0  0  0  0
   68.7239    5.7888   35.8319 C   0  0  2  0  0  0  0  0  0  0  0  0
   67.9691    5.3242   34.7729 O   0  0  0  0  0  0  0  0  0  0  0  0
   67.8566    6.2168   37.0143 C   0  0  0  0  0  0  0  0  0  0  0  0
   71.0580    5.0276   34.2870 N   0  0  0  0  0  0  0  0  0  0  0  0
   72.2710    4.6374   33.6405 C   0  0  2  0  0  0  0  0  0  0  0  0
   72.0341    3.8760   32.4159 C   0  0  0  0  0  0  0  0  0  0  0  0
   73.1071    3.4041   31.8478 O   0  0  0  0  0  0  0  0  0  0  0  0
   73.1761    3.8422   34.6052 C   0  0  0  0  0  0  0  0  0  0  0  0
   70.7953    3.6093   31.7996 N   0  0  0  0  0  0  0  0  0  0  0  0
   70.4610    2.2975   31.1919 C   0  0  2  0  0  0  0  0  0  0  0  0
   71.3622    2.0425   30.0521 C   0  0  0  0  0  0  0  0  0  0  0  0
   72.4800    2.6657   30.0945 O   0  0  0  0  0  0  0  0  0  0  0  0
   69.0578    2.4192   30.7061 C   0  0  0  0  0  0  0  0  0  0  0  0
   68.8888    3.8902   30.4527 C   0  0  0  0  0  0  0  0  0  0  0  0
   69.6651    4.4739   31.6294 C   0  0  0  0  0  0  0  0  0  0  0  0
   71.0608    1.1800   28.9583 N   0  0  0  0  0  0  0  0  0  0  0  0
   72.0122    0.1076   28.7275 C   0  0  2  0  0  0  0  0  0  0  0  0
   71.6575   -0.6271   27.4764 C   0  0  0  0  0  0  0  0  0  0  0  0
   72.3961   -1.6036   27.1221 O   0  0  0  0  0  0  0  0  0  0  0  0
   71.8693   -0.8210   29.9237 C   0  0  0  0  0  0  0  0  0  0  0  0
   72.7474   -2.0012   29.8224 C   0  0  0  0  0  0  0  0  0  0  0  0
   73.9655   -2.0079   30.4337 C   0  0  0  0  0  0  0  0  0  0  0  0
   72.3632   -3.1243   29.1074 C   0  0  0  0  0  0  0  0  0  0  0  0
   74.8183   -3.1196   30.3469 C   0  0  0  0  0  0  0  0  0  0  0  0
   73.1951   -4.2134   29.0211 C   0  0  0  0  0  0  0  0  0  0  0  0
   74.4239   -4.2255   29.6352 C   0  0  0  0  0  0  0  0  0  0  0  0
   70.5260   -0.2449   26.7135 N   0  0  0  0  0  0  0  0  0  0  0  0
   70.1263   -0.9013   25.4884 C   0  0  2  0  0  0  0  0  0  0  0  0
   71.1323   -1.7795   24.9880 C   0  0  0  0  0  0  0  0  0  0  0  0
   72.3589   -1.4081   25.0809 O   0  0  0  0  0  0  0  0  0  0  0  0
   69.3455    0.0141   24.6588 C   0  0  0  0  0  0  0  0  0  0  0  0
   68.1046    0.6284   25.1990 C   0  0  1  0  0  0  0  0  0  0  0  0
   67.0513    1.0669   24.2633 C   0  0  0  0  0  0  0  0  0  0  0  0
   67.4596   -0.3740   26.1842 C   0  0  0  0  0  0  0  0  0  0  0  0
   70.9856   -3.0606   24.3806 N   0  0  0  0  0  0  0  0  0  0  0  0
   71.6259   -3.4385   23.1384 C   0  0  2  0  0  0  0  0  0  0  0  0
   71.0744   -2.5444   22.0595 C   0  0  0  0  0  0  0  0  0  0  0  0
   69.8673   -2.1469   22.1677 O   0  0  0  0  0  0  0  0  0  0  0  0
   71.4646   -4.8852   22.7847 C   0  0  0  0  0  0  0  0  0  0  0  0
   72.2900   -5.1504   21.6875 O   0  0  0  0  0  0  0  0  0  0  0  0
   71.8058   -2.1250   20.9388 N   0  0  0  0  0  0  0  0  0  0  0  0
   71.6169   -2.4892   19.5750 C   0  0  0  0  0  0  0  0  0  0  0  0
   70.3932   -2.0696   18.9196 C   0  0  0  0  0  0  0  0  0  0  0  0
   70.1156   -0.8222   18.9150 O   0  0  0  0  0  0  0  0  0  0  0  0
   69.5072   -2.9890   18.2998 N   0  0  0  0  0  0  0  0  0  0  0  0
   68.7028   -2.5346   17.1949 C   0  0  2  0  0  0  0  0  0  0  0  0
   67.7981   -3.6596   16.7997 C   0  0  0  0  0  0  0  0  0  0  0  0
   68.2108   -4.9529   17.0212 O   0  0  0  0  0  0  0  0  0  0  0  0
   69.5424   -2.0813   16.0592 C   0  0  0  0  0  0  0  0  0  0  0  0
   69.6962   -3.1377   15.0264 C   0  0  0  0  0  0  0  0  0  0  0  0
   68.8058   -3.0080   13.8303 C   0  0  0  0  0  0  0  0  0  0  0  0
   68.6411   -4.2699   13.0315 C   0  0  0  0  0  0  0  0  0  0  0  0
   69.7781   -4.6843   12.2834 N   0  0  0  0  0  4  0  0  0  0  0  0
   66.6891   -3.4006   16.2798 O   0  0  0  0  0  0  0  0  0  0  0  0
  2  1  1  1
  2  3  1  0
  2  5  1  0
  3  4  2  0
  3  8  1  0
  5  6  1  0
  5  7  1  1
  9  8  1  6
  9 10  1  0
  9 12  1  0
 10 11  2  0
 10 15  1  0
 12 13  1  0
 12 14  1  1
 15 16  1  0
 16 17  1  0
 16 19  1  1
 17 18  2  0
 17 20  1  0
 20 21  1  0
 20 26  1  0
 21 22  1  6
 21 24  1  0
 22 23  2  0
 22 27  1  0
 24 25  1  0
 25 26  1  0
 27 28  1  0
 28 29  1  0
 28 31  1  1
 29 30  2  0
 29 38  1  0
 31 32  1  0
 32 33  2  0
 32 34  1  0
 33 35  1  0
 34 36  2  0
 35 37  2  0
 36 37  1  0
 38 39  1  0
 39 40  1  0
 39 42  1  6
 40 41  2  0
 40 46  1  0
 42 43  1  0
 43 44  1  6
 43 45  1  0
 46 47  1  0
 47 48  1  0
 47 50  1  6
 48 49  2  0
 48 52  1  0
 50 51  1  0
 52 53  1  0
 53 54  1  0
 54 55  2  0
 54 56  1  0
 56 57  1  0
 57 58  1  0
 57 60  1  6
 58 59  1  0
 58 65  2  0
 60 61  1  0
 61 62  1  0
 62 63  1  0
 63 64  1  0
M  CHG  2   1   1  64   1
M  END
$$$$
