
     RDKit          3D

 65 66  0  0  0  0  0  0  0  0999 V2000
   71.2410   10.4803   35.3900 N   0  0  0  0  0  4  0  0  0  0  0  0
   70.2223    9.5017   35.7935 C   0  0  2  0  0  0  0  0  0  0  0  0
   70.1686    8.4708   34.7319 C   0  0  0  0  0  0  0  0  0  0  0  0
   69.3516    7.5218   34.8779 O   0  0  0  0  0  0  0  0  0  0  0  0
   68.8965   10.2230   35.9715 C   0  0  2  0  0  0  0  0  0  0  0  0
   67.9762    9.2003   36.3137 O   0  0  0  0  0  0  0  0  0  0  0  0
   68.4361   10.7169   34.6133 C   0  0  0  0  0  0  0  0  0  0  0  0
   70.9923    8.5356   33.6002 N   0  0  0  0  0  0  0  0  0  0  0  0
   70.9834    7.5188   32.5584 C   0  0  2  0  0  0  0  0  0  0  0  0
   69.7423    6.6861   32.6538 C   0  0  0  0  0  0  0  0  0  0  0  0
   68.6841    7.1328   33.1303 O   0  0  0  0  0  0  0  0  0  0  0  0
   72.1888    6.6409   32.6101 C   0  0  2  0  0  0  0  0  0  0  0  0
   71.9400    5.3270   32.2655 O   0  0  0  0  0  0  0  0  0  0  0  0
   72.9197    6.7581   33.9464 C   0  0  0  0  0  0  0  0  0  0  0  0
   69.7516    5.3210   32.1835 N   0  0  0  0  0  0  0  0  0  0  0  0
   68.5770    4.5674   31.8771 C   0  0  2  0  0  0  0  0  0  0  0  0
   68.8809    3.2003   31.4593 C   0  0  0  0  0  0  0  0  0  0  0  0
   67.8398    2.4398   31.2741 O   0  0  0  0  0  0  0  0  0  0  0  0
   67.7286    5.2844   30.8056 C   0  0  0  0  0  0  0  0  0  0  0  0
   70.1530    2.6333   31.2451 N   0  0  0  0  0  0  0  0  0  0  0  0
   70.6278    2.1958   29.9090 C   0  0  2  0  0  0  0  0  0  0  0  0
   69.7810    1.0881   29.4273 C   0  0  0  0  0  0  0  0  0  0  0  0
   69.0466    0.5385   30.3210 O   0  0  0  0  0  0  0  0  0  0  0  0
   72.0223    1.7116   30.1106 C   0  0  0  0  0  0  0  0  0  0  0  0
   72.0511    1.2795   31.5491 C   0  0  0  0  0  0  0  0  0  0  0  0
   71.1959    2.3677   32.1914 C   0  0  0  0  0  0  0  0  0  0  0  0
   69.7455    0.6218   28.0810 N   0  0  0  0  0  0  0  0  0  0  0  0
   69.0528   -0.6375   27.8739 C   0  0  2  0  0  0  0  0  0  0  0  0
   70.0433   -1.7303   27.6377 C   0  0  0  0  0  0  0  0  0  0  0  0
   71.1596   -1.6733   28.2504 O   0  0  0  0  0  0  0  0  0  0  0  0
   68.2103   -0.4321   26.6243 C   0  0  0  0  0  0  0  0  0  0  0  0
   68.8380    0.5065   25.6760 C   0  0  0  0  0  0  0  0  0  0  0  0
   70.0347    1.0876   25.9722 C   0  0  0  0  0  0  0  0  0  0  0  0
   68.2329    0.8226   24.4700 C   0  0  0  0  0  0  0  0  0  0  0  0
   70.6477    1.9865   25.0851 C   0  0  0  0  0  0  0  0  0  0  0  0
   68.8305    1.7012   23.6001 C   0  0  0  0  0  0  0  0  0  0  0  0
   70.0365    2.2899   23.8937 C   0  0  0  0  0  0  0  0  0  0  0  0
   69.7394   -2.7996   26.7587 N   0  0  0  0  0  0  0  0  0  0  0  0
   70.7120   -3.7733   26.3145 C   0  0  2  0  0  0  0  0  0  0  0  0
   71.0664   -3.6024   24.9437 C   0  0  0  0  0  0  0  0  0  0  0  0
   70.1504   -3.7676   24.0579 O   0  0  0  0  0  0  0  0  0  0  0  0
   70.4518   -5.0670   26.9426 C   0  0  0  0  0  0  0  0  0  0  0  0
   71.3105   -6.2354   26.6161 C   0  0  1  0  0  0  0  0  0  0  0  0
   70.6796   -7.5454   26.3650 C   0  0  0  0  0  0  0  0  0  0  0  0
   72.1528   -5.8813   25.3685 C   0  0  0  0  0  0  0  0  0  0  0  0
   72.3285   -3.2572   24.3783 N   0  0  0  0  0  0  0  0  0  0  0  0
   72.5840   -2.0126   23.6842 C   0  0  2  0  0  0  0  0  0  0  0  0
   72.8664   -2.3518   22.2445 C   0  0  0  0  0  0  0  0  0  0  0  0
   74.0061   -2.0376   21.7658 O   0  0  0  0  0  0  0  0  0  0  0  0
   73.6906   -1.1979   24.2809 C   0  0  0  0  0  0  0  0  0  0  0  0
   74.8072   -2.0290   24.4152 O   0  0  0  0  0  0  0  0  0  0  0  0
   71.9503   -2.9887   21.3949 N   0  0  0  0  0  0  0  0  0  0  0  0
   70.9720   -2.3943   20.5477 C   0  0  0  0  0  0  0  0  0  0  0  0
   70.2056   -3.2631   19.6754 C   0  0  0  0  0  0  0  0  0  0  0  0
   69.7681   -4.3613   20.1609 O   0  0  0  0  0  0  0  0  0  0  0  0
   69.9377   -2.9376   18.3202 N   0  0  0  0  0  0  0  0  0  0  0  0
   68.8839   -3.6420   17.6364 C   0  0  2  0  0  0  0  0  0  0  0  0
   69.4553   -4.9271   17.1243 C   0  0  0  0  0  0  0  0  0  0  0  0
   70.8118   -5.1350   17.2184 O   0  0  0  0  0  0  0  0  0  0  0  0
   68.3028   -2.8259   16.5425 C   0  0  0  0  0  0  0  0  0  0  0  0
   67.1232   -2.0465   16.9981 C   0  0  0  0  0  0  0  0  0  0  0  0
   66.4528   -1.2149   15.9497 C   0  0  0  0  0  0  0  0  0  0  0  0
   65.3327   -0.3509   16.4563 C   0  0  0  0  0  0  0  0  0  0  0  0
   65.7210    0.8695   17.0760 N   0  0  0  0  0  4  0  0  0  0  0  0
   68.6896   -5.7825   16.6251 O   0  0  0  0  0  0  0  0  0  0  0  0
  2  1  1  6
  2  3  1  0
  2  5  1  0
  3  4  2  0
  3  8  1  0
  5  6  1  0
  5  7  1  6
  9  8  1  1
  9 10  1  0
  9 12  1  0
 10 11  2  0
 10 15  1  0
 12 13  1  0
 12 14  1  1
 15 16  1  0
 16 17  1  0
 16 19  1  6
 17 18  2  0
 17 20  1  0
 20 21  1  0
 20 26  1  0
 21 22  1  1
 21 24  1  0
 22 23  2  0
 22 27  1  0
 24 25  1  0
 25 26  1  0
 27 28  1  0
 28 29  1  0
 28 31  1  6
 29 30  2  0
 29 38  1  0
 31 32  1  0
 32 33  2  0
 32 34  1  0
 33 35  1  0
 34 36  2  0
 35 37  2  0
 36 37  1  0
 38 39  1  0
 39 40  1  0
 39 42  1  6
 40 41  2  0
 40 46  1  0
 42 43  1  0
 43 44  1  6
 43 45  1  0
 46 47  1  0
 47 48  1  0
 47 50  1  1
 48 49  2  0
 48 52  1  0
 50 51  1  0
 52 53  1  0
 53 54  1  0
 54 55  2  0
 54 56  1  0
 56 57  1  0
 57 58  1  0
 57 60  1  6
 58 59  1  0
 58 65  2  0
 60 61  1  0
 61 62  1  0
 62 63  1  0
 63 64  1  0
M  CHG  2   1   1  64   1
M  END
$$$$
