
     RDKit          3D

 65 66  0  0  0  0  0  0  0  0999 V2000
   67.9824    9.0963   36.7836 N   0  0  0  0  0  4  0  0  0  0  0  0
   67.6245    9.5766   35.4422 C   0  0  2  0  0  0  0  0  0  0  0  0
   68.8424    9.4730   34.6065 C   0  0  0  0  0  0  0  0  0  0  0  0
   68.7854    9.9221   33.4299 O   0  0  0  0  0  0  0  0  0  0  0  0
   67.1161   11.0044   35.5549 C   0  0  2  0  0  0  0  0  0  0  0  0
   66.7668   11.3653   34.2291 O   0  0  0  0  0  0  0  0  0  0  0  0
   68.2883   11.9021   35.9025 C   0  0  0  0  0  0  0  0  0  0  0  0
   70.0233    8.8974   35.0942 N   0  0  0  0  0  0  0  0  0  0  0  0
   71.0327    8.3105   34.2248 C   0  0  2  0  0  0  0  0  0  0  0  0
   70.4926    8.1435   32.8381 C   0  0  0  0  0  0  0  0  0  0  0  0
   70.1884    9.1178   32.1275 O   0  0  0  0  0  0  0  0  0  0  0  0
   71.5319    7.0007   34.7362 C   0  0  2  0  0  0  0  0  0  0  0  0
   72.6729    6.5500   34.1021 O   0  0  0  0  0  0  0  0  0  0  0  0
   70.4298    5.9433   34.7605 C   0  0  0  0  0  0  0  0  0  0  0  0
   70.3120    6.8205   32.2887 N   0  0  0  0  0  0  0  0  0  0  0  0
   69.8335    6.5557   30.9687 C   0  0  2  0  0  0  0  0  0  0  0  0
   69.6491    5.1283   30.7148 C   0  0  0  0  0  0  0  0  0  0  0  0
   70.6675    4.3798   31.0299 O   0  0  0  0  0  0  0  0  0  0  0  0
   70.7697    7.1767   29.9104 C   0  0  0  0  0  0  0  0  0  0  0  0
   68.5125    4.4947   30.1743 N   0  0  0  0  0  0  0  0  0  0  0  0
   68.0665    3.1423   30.5916 C   0  0  2  0  0  0  0  0  0  0  0  0
   69.0970    2.1524   30.2250 C   0  0  0  0  0  0  0  0  0  0  0  0
   69.7992    1.7134   31.2017 O   0  0  0  0  0  0  0  0  0  0  0  0
   66.8158    2.8722   29.8284 C   0  0  0  0  0  0  0  0  0  0  0  0
   66.9557    3.7163   28.5936 C   0  0  0  0  0  0  0  0  0  0  0  0
   67.6005    4.9704   29.1765 C   0  0  0  0  0  0  0  0  0  0  0  0
   69.3380    1.6869   28.8997 N   0  0  0  0  0  0  0  0  0  0  0  0
   70.2557    0.5671   28.7880 C   0  0  2  0  0  0  0  0  0  0  0  0
   70.3418    0.1196   27.3655 C   0  0  0  0  0  0  0  0  0  0  0  0
   69.2664    0.0751   26.6827 O   0  0  0  0  0  0  0  0  0  0  0  0
   69.6459   -0.5386   29.6359 C   0  0  0  0  0  0  0  0  0  0  0  0
   70.4330   -1.7842   29.5792 C   0  0  0  0  0  0  0  0  0  0  0  0
   70.2495   -2.6691   28.5590 C   0  0  0  0  0  0  0  0  0  0  0  0
   71.3703   -2.0877   30.5536 C   0  0  0  0  0  0  0  0  0  0  0  0
   70.9858   -3.8622   28.4879 C   0  0  0  0  0  0  0  0  0  0  0  0
   72.0924   -3.2538   30.4864 C   0  0  0  0  0  0  0  0  0  0  0  0
   71.9114   -4.1493   29.4606 C   0  0  0  0  0  0  0  0  0  0  0  0
   71.5898   -0.2390   26.7980 N   0  0  0  0  0  0  0  0  0  0  0  0
   71.7851   -0.4965   25.3884 C   0  0  2  0  0  0  0  0  0  0  0  0
   71.5150   -1.8528   25.0402 C   0  0  0  0  0  0  0  0  0  0  0  0
   71.6455   -2.7481   25.9527 O   0  0  0  0  0  0  0  0  0  0  0  0
   72.9252    0.2702   24.8901 C   0  0  0  0  0  0  0  0  0  0  0  0
   73.0128    1.7289   25.1614 C   0  0  1  0  0  0  0  0  0  0  0  0
   74.2067    2.4738   24.7177 C   0  0  0  0  0  0  0  0  0  0  0  0
   71.7793    2.4124   24.5270 C   0  0  0  0  0  0  0  0  0  0  0  0
   71.1003   -2.3936   23.7883 N   0  0  0  0  0  0  0  0  0  0  0  0
   71.1801   -3.8003   23.4552 C   0  0  2  0  0  0  0  0  0  0  0  0
   72.6386   -4.1436   23.3054 C   0  0  0  0  0  0  0  0  0  0  0  0
   73.5000   -3.2632   23.6366 O   0  0  0  0  0  0  0  0  0  0  0  0
   70.4004   -4.1830   22.2347 C   0  0  0  0  0  0  0  0  0  0  0  0
   69.2616   -3.3729   22.1850 O   0  0  0  0  0  0  0  0  0  0  0  0
   73.1090   -5.3720   22.8190 N   0  0  0  0  0  0  0  0  0  0  0  0
   74.4493   -5.8518   22.7830 C   0  0  0  0  0  0  0  0  0  0  0  0
   75.0972   -6.1628   24.0426 C   0  0  0  0  0  0  0  0  0  0  0  0
   74.3981   -6.0832   25.1093 O   0  0  0  0  0  0  0  0  0  0  0  0
   76.4631   -6.5400   24.1239 N   0  0  0  0  0  0  0  0  0  0  0  0
   76.9880   -6.9618   25.3970 C   0  0  2  0  0  0  0  0  0  0  0  0
   77.3286   -5.7308   26.1774 C   0  0  0  0  0  0  0  0  0  0  0  0
   77.8527   -5.8698   27.4416 O   0  0  0  0  0  0  0  0  0  0  0  0
   78.1642   -7.8508   25.2344 C   0  0  0  0  0  0  0  0  0  0  0  0
   77.7660   -9.2699   25.0505 C   0  0  0  0  0  0  0  0  0  0  0  0
   78.6784  -10.0926   24.1955 C   0  0  0  0  0  0  0  0  0  0  0  0
   77.9801  -10.9558   23.1832 C   0  0  0  0  0  0  0  0  0  0  0  0
   76.6096  -11.2344   23.4443 N   0  0  0  0  0  4  0  0  0  0  0  0
   77.1318   -4.6060   25.6645 O   0  0  0  0  0  0  0  0  0  0  0  0
  2  1  1  1
  2  3  1  0
  2  5  1  0
  3  4  2  0
  3  8  1  0
  5  6  1  0
  5  7  1  6
  9  8  1  1
  9 10  1  0
  9 12  1  0
 10 11  2  0
 10 15  1  0
 12 13  1  0
 12 14  1  6
 15 16  1  0
 16 17  1  0
 16 19  1  6
 17 18  2  0
 17 20  1  0
 20 21  1  0
 20 26  1  0
 21 22  1  6
 21 24  1  0
 22 23  2  0
 22 27  1  0
 24 25  1  0
 25 26  1  0
 27 28  1  0
 28 29  1  0
 28 31  1  1
 29 30  2  0
 29 38  1  0
 31 32  1  0
 32 33  2  0
 32 34  1  0
 33 35  1  0
 34 36  2  0
 35 37  2  0
 36 37  1  0
 38 39  1  0
 39 40  1  0
 39 42  1  1
 40 41  2  0
 40 46  1  0
 42 43  1  0
 43 44  1  6
 43 45  1  0
 46 47  1  0
 47 48  1  0
 47 50  1  6
 48 49  2  0
 48 52  1  0
 50 51  1  0
 52 53  1  0
 53 54  1  0
 54 55  2  0
 54 56  1  0
 56 57  1  0
 57 58  1  0
 57 60  1  6
 58 59  1  0
 58 65  2  0
 60 61  1  0
 61 62  1  0
 62 63  1  0
 63 64  1  0
M  CHG  2   1   1  64   1
M  END
$$$$
