
     RDKit          3D

 65 66  0  0  0  0  0  0  0  0999 V2000
   69.9234    7.8956   39.4594 N   0  0  0  0  0  4  0  0  0  0  0  0
   70.0060    8.2287   38.0310 C   0  0  2  0  0  0  0  0  0  0  0  0
   70.0253    6.9476   37.2886 C   0  0  0  0  0  0  0  0  0  0  0  0
   70.3889    5.9144   37.9127 O   0  0  0  0  0  0  0  0  0  0  0  0
   71.2584    9.0567   37.7948 C   0  0  2  0  0  0  0  0  0  0  0  0
   71.1583    9.4794   36.4453 O   0  0  0  0  0  0  0  0  0  0  0  0
   72.4566    8.1271   37.8196 C   0  0  0  0  0  0  0  0  0  0  0  0
   69.6555    6.8730   35.9391 N   0  0  0  0  0  0  0  0  0  0  0  0
   69.6005    5.6175   35.2042 C   0  0  2  0  0  0  0  0  0  0  0  0
   70.9154    5.3436   34.5418 C   0  0  0  0  0  0  0  0  0  0  0  0
   71.7997    6.2128   34.4479 O   0  0  0  0  0  0  0  0  0  0  0  0
   68.5073    5.6002   34.1889 C   0  0  2  0  0  0  0  0  0  0  0  0
   68.6304    4.5946   33.2504 O   0  0  0  0  0  0  0  0  0  0  0  0
   68.3103    6.9705   33.5432 C   0  0  0  0  0  0  0  0  0  0  0  0
   71.1864    4.0375   33.9891 N   0  0  0  0  0  0  0  0  0  0  0  0
   72.3922    3.6865   33.3075 C   0  0  2  0  0  0  0  0  0  0  0  0
   72.5552    4.4093   32.0479 C   0  0  0  0  0  0  0  0  0  0  0  0
   71.7528    5.4232   31.8901 O   0  0  0  0  0  0  0  0  0  0  0  0
   72.4653    2.1632   33.0704 C   0  0  0  0  0  0  0  0  0  0  0  0
   73.4660    4.1269   31.0104 N   0  0  0  0  0  0  0  0  0  0  0  0
   73.0750    4.0921   29.5794 C   0  0  2  0  0  0  0  0  0  0  0  0
   72.1091    2.9983   29.3625 C   0  0  0  0  0  0  0  0  0  0  0  0
   71.3185    2.7705   30.3437 O   0  0  0  0  0  0  0  0  0  0  0  0
   74.3274    3.8146   28.8215 C   0  0  0  0  0  0  0  0  0  0  0  0
   75.1897    3.0762   29.8052 C   0  0  0  0  0  0  0  0  0  0  0  0
   74.8657    3.8301   31.0915 C   0  0  0  0  0  0  0  0  0  0  0  0
   72.0208    2.2197   28.1721 N   0  0  0  0  0  0  0  0  0  0  0  0
   70.6889    1.7567   27.8256 C   0  0  2  0  0  0  0  0  0  0  0  0
   70.4846    1.8531   26.3491 C   0  0  0  0  0  0  0  0  0  0  0  0
   70.4204    3.0133   25.8251 O   0  0  0  0  0  0  0  0  0  0  0  0
   69.7359    2.7053   28.5367 C   0  0  0  0  0  0  0  0  0  0  0  0
   68.5030    2.0291   28.9804 C   0  0  0  0  0  0  0  0  0  0  0  0
   67.7848    1.2653   28.1096 C   0  0  0  0  0  0  0  0  0  0  0  0
   68.0434    2.1526   30.2819 C   0  0  0  0  0  0  0  0  0  0  0  0
   66.6065    0.6159   28.5105 C   0  0  0  0  0  0  0  0  0  0  0  0
   66.8914    1.5182   30.6769 C   0  0  0  0  0  0  0  0  0  0  0  0
   66.1636    0.7472   29.8035 C   0  0  0  0  0  0  0  0  0  0  0  0
   70.3713    0.6814   25.5601 N   0  0  0  0  0  0  0  0  0  0  0  0
   70.1070    0.6948   24.1383 C   0  0  2  0  0  0  0  0  0  0  0  0
   69.5969   -0.5511   23.6677 C   0  0  0  0  0  0  0  0  0  0  0  0
   69.1641   -0.6089   22.4593 O   0  0  0  0  0  0  0  0  0  0  0  0
   71.1237    1.4830   23.4449 C   0  0  0  0  0  0  0  0  0  0  0  0
   70.7648    2.7971   22.8505 C   0  0  1  0  0  0  0  0  0  0  0  0
   69.4924    2.9320   22.1157 C   0  0  0  0  0  0  0  0  0  0  0  0
   70.7600    3.8525   23.9807 C   0  0  0  0  0  0  0  0  0  0  0  0
   69.4925   -1.7960   24.3540 N   0  0  0  0  0  0  0  0  0  0  0  0
   69.8069   -3.0742   23.7511 C   0  0  2  0  0  0  0  0  0  0  0  0
   69.0461   -3.1576   22.4543 C   0  0  0  0  0  0  0  0  0  0  0  0
   68.6933   -2.0675   21.8938 O   0  0  0  0  0  0  0  0  0  0  0  0
   69.5172   -4.2512   24.6314 C   0  0  0  0  0  0  0  0  0  0  0  0
   69.8045   -5.4095   23.9025 O   0  0  0  0  0  0  0  0  0  0  0  0
   68.6970   -4.3619   21.8262 N   0  0  0  0  0  0  0  0  0  0  0  0
   67.8841   -4.5519   20.6723 C   0  0  0  0  0  0  0  0  0  0  0  0
   68.5006   -4.3936   19.3693 C   0  0  0  0  0  0  0  0  0  0  0  0
   69.2404   -3.3691   19.1791 O   0  0  0  0  0  0  0  0  0  0  0  0
   68.3043   -5.3241   18.3156 N   0  0  0  0  0  0  0  0  0  0  0  0
   68.8441   -5.0189   17.0157 C   0  0  2  0  0  0  0  0  0  0  0  0
   67.9766   -3.9658   16.4003 C   0  0  0  0  0  0  0  0  0  0  0  0
   68.3222   -3.4561   15.1703 O   0  0  0  0  0  0  0  0  0  0  0  0
   68.9270   -6.2290   16.1619 C   0  0  0  0  0  0  0  0  0  0  0  0
   68.8358   -7.4785   16.9598 C   0  0  0  0  0  0  0  0  0  0  0  0
   69.6943   -8.6108   16.4897 C   0  0  0  0  0  0  0  0  0  0  0  0
   69.5194   -9.8908   17.2568 C   0  0  0  0  0  0  0  0  0  0  0  0
   69.3757  -11.0698   16.4737 N   0  0  0  0  0  4  0  0  0  0  0  0
   66.9585   -3.5744   17.0145 O   0  0  0  0  0  0  0  0  0  0  0  0
  2  1  1  1
  2  3  1  0
  2  5  1  0
  3  4  2  0
  3  8  1  0
  5  6  1  0
  5  7  1  6
  9  8  1  6
  9 10  1  0
  9 12  1  0
 10 11  2  0
 10 15  1  0
 12 13  1  0
 12 14  1  6
 15 16  1  0
 16 17  1  0
 16 19  1  6
 17 18  2  0
 17 20  1  0
 20 21  1  0
 20 26  1  0
 21 22  1  1
 21 24  1  0
 22 23  2  0
 22 27  1  0
 24 25  1  0
 25 26  1  0
 27 28  1  0
 28 29  1  0
 28 31  1  1
 29 30  2  0
 29 38  1  0
 31 32  1  0
 32 33  2  0
 32 34  1  0
 33 35  1  0
 34 36  2  0
 35 37  2  0
 36 37  1  0
 38 39  1  0
 39 40  1  0
 39 42  1  6
 40 41  2  0
 40 46  1  0
 42 43  1  0
 43 44  1  1
 43 45  1  0
 46 47  1  0
 47 48  1  0
 47 50  1  1
 48 49  2  0
 48 52  1  0
 50 51  1  0
 52 53  1  0
 53 54  1  0
 54 55  2  0
 54 56  1  0
 56 57  1  0
 57 58  1  0
 57 60  1  6
 58 59  1  0
 58 65  2  0
 60 61  1  0
 61 62  1  0
 62 63  1  0
 63 64  1  0
M  CHG  2   1   1  64   1
M  END
$$$$
