
     RDKit          3D

 65 66  0  0  0  0  0  0  0  0999 V2000
   72.1077   10.2849   35.8769 N   0  0  0  0  0  4  0  0  0  0  0  0
   70.7061   10.4110   35.4553 C   0  0  2  0  0  0  0  0  0  0  0  0
   70.3004    9.0978   34.9045 C   0  0  0  0  0  0  0  0  0  0  0  0
   70.8463    8.7180   33.8334 O   0  0  0  0  0  0  0  0  0  0  0  0
   70.6036   11.5285   34.4304 C   0  0  2  0  0  0  0  0  0  0  0  0
   70.5082   10.8618   33.1828 O   0  0  0  0  0  0  0  0  0  0  0  0
   71.9354   12.2526   34.3794 C   0  0  0  0  0  0  0  0  0  0  0  0
   69.3437    8.2960   35.5411 N   0  0  0  0  0  0  0  0  0  0  0  0
   68.7131    7.1548   34.8934 C   0  0  2  0  0  0  0  0  0  0  0  0
   69.7523    6.1955   34.4011 C   0  0  0  0  0  0  0  0  0  0  0  0
   70.8859    6.5722   34.0553 O   0  0  0  0  0  0  0  0  0  0  0  0
   67.8227    7.5607   33.7669 C   0  0  2  0  0  0  0  0  0  0  0  0
   66.9850    6.5556   33.3252 O   0  0  0  0  0  0  0  0  0  0  0  0
   68.6087    8.2003   32.6239 C   0  0  0  0  0  0  0  0  0  0  0  0
   69.4511    4.7859   34.3181 N   0  0  0  0  0  0  0  0  0  0  0  0
   70.3344    3.8051   33.7709 C   0  0  2  0  0  0  0  0  0  0  0  0
   70.4513    3.9041   32.3176 C   0  0  0  0  0  0  0  0  0  0  0  0
   69.4010    4.3838   31.7148 O   0  0  0  0  0  0  0  0  0  0  0  0
   69.8987    2.3829   34.1828 C   0  0  0  0  0  0  0  0  0  0  0  0
   71.5547    3.5396   31.5205 N   0  0  0  0  0  0  0  0  0  0  0  0
   71.5758    3.7047   30.0460 C   0  0  2  0  0  0  0  0  0  0  0  0
   70.5416    2.8432   29.4423 C   0  0  0  0  0  0  0  0  0  0  0  0
   69.4743    2.7089   30.1370 O   0  0  0  0  0  0  0  0  0  0  0  0
   72.9257    3.2543   29.6049 C   0  0  0  0  0  0  0  0  0  0  0  0
   73.3475    2.2800   30.6677 C   0  0  0  0  0  0  0  0  0  0  0  0
   72.8082    2.9695   31.9175 C   0  0  0  0  0  0  0  0  0  0  0  0
   70.6693    2.1836   28.1854 N   0  0  0  0  0  0  0  0  0  0  0  0
   69.6307    1.2160   27.8792 C   0  0  2  0  0  0  0  0  0  0  0  0
   70.2394   -0.0153   27.2920 C   0  0  0  0  0  0  0  0  0  0  0  0
   71.0459    0.1198   26.3143 O   0  0  0  0  0  0  0  0  0  0  0  0
   68.7444    1.8917   26.8441 C   0  0  0  0  0  0  0  0  0  0  0  0
   67.5965    2.5838   27.4585 C   0  0  0  0  0  0  0  0  0  0  0  0
   67.3845    2.5064   28.8026 C   0  0  0  0  0  0  0  0  0  0  0  0
   66.7086    3.3229   26.6933 C   0  0  0  0  0  0  0  0  0  0  0  0
   66.2960    3.1547   29.4072 C   0  0  0  0  0  0  0  0  0  0  0  0
   65.6432    3.9586   27.2820 C   0  0  0  0  0  0  0  0  0  0  0  0
   65.4247    3.8838   28.6362 C   0  0  0  0  0  0  0  0  0  0  0  0
   69.9266   -1.2936   27.8176 N   0  0  0  0  0  0  0  0  0  0  0  0
   70.3122   -2.5362   27.1861 C   0  0  2  0  0  0  0  0  0  0  0  0
   69.3570   -2.9767   26.2230 C   0  0  0  0  0  0  0  0  0  0  0  0
   68.1110   -2.8062   26.4863 O   0  0  0  0  0  0  0  0  0  0  0  0
   70.9672   -3.4114   28.1560 C   0  0  0  0  0  0  0  0  0  0  0  0
   72.0758   -2.8879   28.9963 C   0  0  1  0  0  0  0  0  0  0  0  0
   72.3709   -1.4423   28.9807 C   0  0  0  0  0  0  0  0  0  0  0  0
   71.7984   -3.2872   30.4642 C   0  0  0  0  0  0  0  0  0  0  0  0
   69.5766   -3.5973   24.9587 N   0  0  0  0  0  0  0  0  0  0  0  0
   70.4810   -3.0770   23.9550 C   0  0  2  0  0  0  0  0  0  0  0  0
   69.7416   -3.0744   22.6432 C   0  0  0  0  0  0  0  0  0  0  0  0
   68.4996   -3.3643   22.6532 O   0  0  0  0  0  0  0  0  0  0  0  0
   71.7739   -3.8266   23.8522 C   0  0  0  0  0  0  0  0  0  0  0  0
   72.3757   -3.4742   22.6401 O   0  0  0  0  0  0  0  0  0  0  0  0
   70.3365   -2.7770   21.4085 N   0  0  0  0  0  0  0  0  0  0  0  0
   69.9372   -1.8041   20.4483 C   0  0  0  0  0  0  0  0  0  0  0  0
   69.5661   -2.2640   19.1240 C   0  0  0  0  0  0  0  0  0  0  0  0
   68.5552   -1.7186   18.5639 O   0  0  0  0  0  0  0  0  0  0  0  0
   70.2770   -3.2889   18.4467 N   0  0  0  0  0  0  0  0  0  0  0  0
   70.0167   -3.4996   17.0459 C   0  0  2  0  0  0  0  0  0  0  0  0
   68.7590   -4.3035   16.9343 C   0  0  0  0  0  0  0  0  0  0  0  0
   68.2320   -4.5422   15.6863 O   0  0  0  0  0  0  0  0  0  0  0  0
   71.1569   -4.1695   16.3741 C   0  0  0  0  0  0  0  0  0  0  0  0
   71.9847   -4.9484   17.3303 C   0  0  0  0  0  0  0  0  0  0  0  0
   73.1871   -5.6217   16.7464 C   0  0  0  0  0  0  0  0  0  0  0  0
   74.0030   -6.4117   17.7302 C   0  0  0  0  0  0  0  0  0  0  0  0
   74.0928   -5.8673   19.0416 N   0  0  0  0  0  4  0  0  0  0  0  0
   68.2169   -4.7410   17.9743 O   0  0  0  0  0  0  0  0  0  0  0  0
  2  1  1  6
  2  3  1  0
  2  5  1  0
  3  4  2  0
  3  8  1  0
  5  6  1  0
  5  7  1  6
  9  8  1  6
  9 10  1  0
  9 12  1  0
 10 11  2  0
 10 15  1  0
 12 13  1  0
 12 14  1  6
 15 16  1  0
 16 17  1  0
 16 19  1  6
 17 18  2  0
 17 20  1  0
 20 21  1  0
 20 26  1  0
 21 22  1  6
 21 24  1  0
 22 23  2  0
 22 27  1  0
 24 25  1  0
 25 26  1  0
 27 28  1  0
 28 29  1  0
 28 31  1  6
 29 30  2  0
 29 38  1  0
 31 32  1  0
 32 33  2  0
 32 34  1  0
 33 35  1  0
 34 36  2  0
 35 37  2  0
 36 37  1  0
 38 39  1  0
 39 40  1  0
 39 42  1  1
 40 41  2  0
 40 46  1  0
 42 43  1  0
 43 44  1  1
 43 45  1  0
 46 47  1  0
 47 48  1  0
 47 50  1  6
 48 49  2  0
 48 52  1  0
 50 51  1  0
 52 53  1  0
 53 54  1  0
 54 55  2  0
 54 56  1  0
 56 57  1  0
 57 58  1  0
 57 60  1  1
 58 59  1  0
 58 65  2  0
 60 61  1  0
 61 62  1  0
 62 63  1  0
 63 64  1  0
M  CHG  2   1   1  64   1
M  END
$$$$
