
     RDKit          3D

 65 66  0  0  0  0  0  0  0  0999 V2000
   69.6049   10.9103   36.4442 N   0  0  0  0  0  4  0  0  0  0  0  0
   69.9713    9.6384   35.8068 C   0  0  2  0  0  0  0  0  0  0  0  0
   68.7077    8.9435   35.4704 C   0  0  0  0  0  0  0  0  0  0  0  0
   67.6350    9.5986   35.5682 O   0  0  0  0  0  0  0  0  0  0  0  0
   70.8349    8.8409   36.7701 C   0  0  2  0  0  0  0  0  0  0  0  0
   69.9269    8.3497   37.7418 O   0  0  0  0  0  0  0  0  0  0  0  0
   71.7233    9.8092   37.5276 C   0  0  0  0  0  0  0  0  0  0  0  0
   68.6911    7.6046   35.0573 N   0  0  0  0  0  0  0  0  0  0  0  0
   68.4478    7.2073   33.6780 C   0  0  2  0  0  0  0  0  0  0  0  0
   68.9274    5.8076   33.4469 C   0  0  0  0  0  0  0  0  0  0  0  0
   70.0246    5.4078   33.8744 O   0  0  0  0  0  0  0  0  0  0  0  0
   69.0892    8.1319   32.6982 C   0  0  2  0  0  0  0  0  0  0  0  0
   69.7496    7.4883   31.6703 O   0  0  0  0  0  0  0  0  0  0  0  0
   69.9714    9.1694   33.3901 C   0  0  0  0  0  0  0  0  0  0  0  0
   68.1070    4.8767   32.7086 N   0  0  0  0  0  0  0  0  0  0  0  0
   68.4251    3.4963   32.5218 C   0  0  2  0  0  0  0  0  0  0  0  0
   69.4593    3.2910   31.5099 C   0  0  0  0  0  0  0  0  0  0  0  0
   69.1447    3.7005   30.3140 O   0  0  0  0  0  0  0  0  0  0  0  0
   67.1599    2.6833   32.1747 C   0  0  0  0  0  0  0  0  0  0  0  0
   70.7289    2.7068   31.6895 N   0  0  0  0  0  0  0  0  0  0  0  0
   71.8316    2.8528   30.7073 C   0  0  2  0  0  0  0  0  0  0  0  0
   71.4436    2.2109   29.4370 C   0  0  0  0  0  0  0  0  0  0  0  0
   70.4016    2.7019   28.8774 O   0  0  0  0  0  0  0  0  0  0  0  0
   72.9988    2.1380   31.2958 C   0  0  0  0  0  0  0  0  0  0  0  0
   72.3766    1.1074   32.1945 C   0  0  0  0  0  0  0  0  0  0  0  0
   71.2086    1.9006   32.7729 C   0  0  0  0  0  0  0  0  0  0  0  0
   72.1378    1.1218   28.8344 N   0  0  0  0  0  0  0  0  0  0  0  0
   71.3083    0.1781   28.1066 C   0  0  2  0  0  0  0  0  0  0  0  0
   72.1484   -0.9421   27.5864 C   0  0  0  0  0  0  0  0  0  0  0  0
   73.4159   -0.8226   27.6485 O   0  0  0  0  0  0  0  0  0  0  0  0
   70.7294    0.9666   26.9418 C   0  0  0  0  0  0  0  0  0  0  0  0
   70.1132    2.2335   27.3768 C   0  0  0  0  0  0  0  0  0  0  0  0
   70.8517    3.1659   28.0424 C   0  0  0  0  0  0  0  0  0  0  0  0
   68.7782    2.5075   27.1257 C   0  0  0  0  0  0  0  0  0  0  0  0
   70.2837    4.3769   28.4684 C   0  0  0  0  0  0  0  0  0  0  0  0
   68.2201    3.6915   27.5409 C   0  0  0  0  0  0  0  0  0  0  0  0
   68.9597    4.6346   28.2121 C   0  0  0  0  0  0  0  0  0  0  0  0
   71.5438   -2.1039   27.0451 N   0  0  0  0  0  0  0  0  0  0  0  0
   72.2861   -3.1792   26.4252 C   0  0  2  0  0  0  0  0  0  0  0  0
   72.3056   -3.0778   25.0028 C   0  0  0  0  0  0  0  0  0  0  0  0
   71.8862   -1.9867   24.4692 O   0  0  0  0  0  0  0  0  0  0  0  0
   72.0742   -4.4252   27.1590 C   0  0  0  0  0  0  0  0  0  0  0  0
   71.3557   -4.4060   28.4600 C   0  0  1  0  0  0  0  0  0  0  0  0
   71.1102   -5.6780   29.1662 C   0  0  0  0  0  0  0  0  0  0  0  0
   72.1333   -3.4831   29.4269 C   0  0  0  0  0  0  0  0  0  0  0  0
   72.7408   -4.0343   24.0397 N   0  0  0  0  0  0  0  0  0  0  0  0
   72.5835   -3.8637   22.6107 C   0  0  2  0  0  0  0  0  0  0  0  0
   71.1471   -3.4880   22.3594 C   0  0  0  0  0  0  0  0  0  0  0  0
   70.5169   -2.8728   23.2819 O   0  0  0  0  0  0  0  0  0  0  0  0
   72.9838   -5.0621   21.8059 C   0  0  0  0  0  0  0  0  0  0  0  0
   74.1066   -5.6299   22.4164 O   0  0  0  0  0  0  0  0  0  0  0  0
   70.4570   -3.7775   21.1733 N   0  0  0  0  0  0  0  0  0  0  0  0
   70.6092   -3.1714   19.8936 C   0  0  0  0  0  0  0  0  0  0  0  0
   69.7807   -3.6552   18.8062 C   0  0  0  0  0  0  0  0  0  0  0  0
   69.8181   -4.9039   18.5368 O   0  0  0  0  0  0  0  0  0  0  0  0
   68.9490   -2.7959   18.0417 N   0  0  0  0  0  0  0  0  0  0  0  0
   68.1208   -3.3718   17.0137 C   0  0  2  0  0  0  0  0  0  0  0  0
   69.0180   -4.1059   16.0668 C   0  0  0  0  0  0  0  0  0  0  0  0
   70.3669   -3.8371   16.0867 O   0  0  0  0  0  0  0  0  0  0  0  0
   67.3174   -2.3375   16.3173 C   0  0  0  0  0  0  0  0  0  0  0  0
   66.5151   -2.9122   15.2073 C   0  0  0  0  0  0  0  0  0  0  0  0
   65.2796   -2.1512   14.8402 C   0  0  0  0  0  0  0  0  0  0  0  0
   64.7501   -2.4415   13.4644 C   0  0  0  0  0  0  0  0  0  0  0  0
   65.0454   -1.4703   12.4674 N   0  0  0  0  0  4  0  0  0  0  0  0
   68.5240   -4.9464   15.2815 O   0  0  0  0  0  0  0  0  0  0  0  0
  2  1  1  1
  2  3  1  0
  2  5  1  0
  3  4  2  0
  3  8  1  0
  5  6  1  0
  5  7  1  1
  9  8  1  1
  9 10  1  0
  9 12  1  0
 10 11  2  0
 10 15  1  0
 12 13  1  0
 12 14  1  1
 15 16  1  0
 16 17  1  0
 16 19  1  6
 17 18  2  0
 17 20  1  0
 20 21  1  0
 20 26  1  0
 21 22  1  6
 21 24  1  0
 22 23  2  0
 22 27  1  0
 24 25  1  0
 25 26  1  0
 27 28  1  0
 28 29  1  0
 28 31  1  6
 29 30  2  0
 29 38  1  0
 31 32  1  0
 32 33  2  0
 32 34  1  0
 33 35  1  0
 34 36  2  0
 35 37  2  0
 36 37  1  0
 38 39  1  0
 39 40  1  0
 39 42  1  6
 40 41  2  0
 40 46  1  0
 42 43  1  0
 43 44  1  1
 43 45  1  0
 46 47  1  0
 47 48  1  0
 47 50  1  6
 48 49  2  0
 48 52  1  0
 50 51  1  0
 52 53  1  0
 53 54  1  0
 54 55  2  0
 54 56  1  0
 56 57  1  0
 57 58  1  0
 57 60  1  6
 58 59  1  0
 58 65  2  0
 60 61  1  0
 61 62  1  0
 62 63  1  0
 63 64  1  0
M  CHG  2   1   1  64   1
M  END
$$$$
