
     RDKit          3D

 65 66  0  0  0  0  0  0  0  0999 V2000
   70.1157   10.3674   37.1583 N   0  0  0  0  0  4  0  0  0  0  0  0
   69.4961    9.9023   35.9101 C   0  0  2  0  0  0  0  0  0  0  0  0
   69.6655    8.4321   35.8648 C   0  0  0  0  0  0  0  0  0  0  0  0
   70.2883    7.8846   36.8144 O   0  0  0  0  0  0  0  0  0  0  0  0
   70.1697   10.6018   34.7410 C   0  0  2  0  0  0  0  0  0  0  0  0
   71.5579   10.4685   34.9962 O   0  0  0  0  0  0  0  0  0  0  0  0
   69.8982   12.0897   34.8546 C   0  0  0  0  0  0  0  0  0  0  0  0
   69.1569    7.6645   34.8085 N   0  0  0  0  0  0  0  0  0  0  0  0
   69.3167    6.2193   34.7348 C   0  0  2  0  0  0  0  0  0  0  0  0
   70.4405    5.8660   33.8103 C   0  0  0  0  0  0  0  0  0  0  0  0
   70.7166    6.5574   32.8142 O   0  0  0  0  0  0  0  0  0  0  0  0
   68.0665    5.5302   34.3007 C   0  0  2  0  0  0  0  0  0  0  0  0
   68.1750    4.1546   34.2468 O   0  0  0  0  0  0  0  0  0  0  0  0
   67.5168    6.1166   33.0016 C   0  0  0  0  0  0  0  0  0  0  0  0
   71.2416    4.6919   34.0643 N   0  0  0  0  0  0  0  0  0  0  0  0
   72.3229    4.2608   33.2359 C   0  0  2  0  0  0  0  0  0  0  0  0
   71.8829    3.8671   31.8991 C   0  0  0  0  0  0  0  0  0  0  0  0
   72.8352    3.7672   31.0160 O   0  0  0  0  0  0  0  0  0  0  0  0
   73.1053    3.1124   33.9077 C   0  0  0  0  0  0  0  0  0  0  0  0
   70.5665    3.5946   31.4767 N   0  0  0  0  0  0  0  0  0  0  0  0
   70.0765    2.2228   31.1936 C   0  0  2  0  0  0  0  0  0  0  0  0
   70.8220    1.6631   30.0503 C   0  0  0  0  0  0  0  0  0  0  0  0
   72.0846    1.8762   30.0695 O   0  0  0  0  0  0  0  0  0  0  0  0
   68.6386    2.3702   30.8326 C   0  0  0  0  0  0  0  0  0  0  0  0
   68.5422    3.7691   30.2936 C   0  0  0  0  0  0  0  0  0  0  0  0
   69.4857    4.5054   31.2399 C   0  0  0  0  0  0  0  0  0  0  0  0
   70.2319    0.9348   28.9768 N   0  0  0  0  0  0  0  0  0  0  0  0
   71.1657    0.2765   28.0805 C   0  0  2  0  0  0  0  0  0  0  0  0
   70.4896   -0.0455   26.7881 C   0  0  0  0  0  0  0  0  0  0  0  0
   69.7243    0.8346   26.2738 O   0  0  0  0  0  0  0  0  0  0  0  0
   71.5599   -1.0119   28.7862 C   0  0  0  0  0  0  0  0  0  0  0  0
   72.8797   -0.9112   29.4359 C   0  0  0  0  0  0  0  0  0  0  0  0
   72.9726   -0.6394   30.7683 C   0  0  0  0  0  0  0  0  0  0  0  0
   74.0510   -1.0859   28.7163 C   0  0  0  0  0  0  0  0  0  0  0  0
   74.2190   -0.5357   31.4057 C   0  0  0  0  0  0  0  0  0  0  0  0
   75.2716   -0.9856   29.3373 C   0  0  0  0  0  0  0  0  0  0  0  0
   75.3710   -0.7117   30.6797 C   0  0  0  0  0  0  0  0  0  0  0  0
   70.7032   -1.2957   26.1559 N   0  0  0  0  0  0  0  0  0  0  0  0
   69.9901   -1.7290   24.9748 C   0  0  2  0  0  0  0  0  0  0  0  0
   70.8451   -2.3594   24.0233 C   0  0  0  0  0  0  0  0  0  0  0  0
   70.9199   -1.8486   22.8466 O   0  0  0  0  0  0  0  0  0  0  0  0
   68.9489   -0.7622   24.6327 C   0  0  0  0  0  0  0  0  0  0  0  0
   68.3166    0.0550   25.7011 C   0  0  1  0  0  0  0  0  0  0  0  0
   69.0323    1.2343   26.2248 C   0  0  0  0  0  0  0  0  0  0  0  0
   66.9410    0.5398   25.1872 C   0  0  0  0  0  0  0  0  0  0  0  0
   71.6688   -3.5122   24.1805 N   0  0  0  0  0  0  0  0  0  0  0  0
   71.8671   -4.5046   23.1453 C   0  0  2  0  0  0  0  0  0  0  0  0
   70.5838   -4.5995   22.3633 C   0  0  0  0  0  0  0  0  0  0  0  0
   69.6427   -5.3177   22.8380 O   0  0  0  0  0  0  0  0  0  0  0  0
   72.2939   -5.8453   23.6598 C   0  0  0  0  0  0  0  0  0  0  0  0
   73.4904   -5.6710   24.3624 O   0  0  0  0  0  0  0  0  0  0  0  0
   70.3608   -3.9495   21.1407 N   0  0  0  0  0  0  0  0  0  0  0  0
   69.3295   -4.1903   20.1886 C   0  0  0  0  0  0  0  0  0  0  0  0
   69.4094   -3.5121   18.9093 C   0  0  0  0  0  0  0  0  0  0  0  0
   69.4866   -2.2365   18.9135 O   0  0  0  0  0  0  0  0  0  0  0  0
   69.3979   -4.2114   17.6743 N   0  0  0  0  0  0  0  0  0  0  0  0
   69.5079   -3.4567   16.4526 C   0  0  2  0  0  0  0  0  0  0  0  0
   68.1714   -2.8412   16.1780 C   0  0  0  0  0  0  0  0  0  0  0  0
   68.0856   -1.8238   15.2562 O   0  0  0  0  0  0  0  0  0  0  0  0
   69.9620   -4.3070   15.3252 C   0  0  0  0  0  0  0  0  0  0  0  0
   69.8877   -3.5916   14.0256 C   0  0  0  0  0  0  0  0  0  0  0  0
   71.0222   -3.8434   13.0824 C   0  0  0  0  0  0  0  0  0  0  0  0
   72.3878   -3.7159   13.6960 C   0  0  0  0  0  0  0  0  0  0  0  0
   73.4857   -3.9591   12.8243 N   0  0  0  0  0  4  0  0  0  0  0  0
   67.1643   -3.2649   16.7890 O   0  0  0  0  0  0  0  0  0  0  0  0
  2  1  1  1
  2  3  1  0
  2  5  1  0
  3  4  2  0
  3  8  1  0
  5  6  1  0
  5  7  1  1
  9  8  1  6
  9 10  1  0
  9 12  1  0
 10 11  2  0
 10 15  1  0
 12 13  1  0
 12 14  1  6
 15 16  1  0
 16 17  1  0
 16 19  1  1
 17 18  2  0
 17 20  1  0
 20 21  1  0
 20 26  1  0
 21 22  1  6
 21 24  1  0
 22 23  2  0
 22 27  1  0
 24 25  1  0
 25 26  1  0
 27 28  1  0
 28 29  1  0
 28 31  1  1
 29 30  2  0
 29 38  1  0
 31 32  1  0
 32 33  2  0
 32 34  1  0
 33 35  1  0
 34 36  2  0
 35 37  2  0
 36 37  1  0
 38 39  1  0
 39 40  1  0
 39 42  1  6
 40 41  2  0
 40 46  1  0
 42 43  1  0
 43 44  1  6
 43 45  1  0
 46 47  1  0
 47 48  1  0
 47 50  1  1
 48 49  2  0
 48 52  1  0
 50 51  1  0
 52 53  1  0
 53 54  1  0
 54 55  2  0
 54 56  1  0
 56 57  1  0
 57 58  1  0
 57 60  1  6
 58 59  1  0
 58 65  2  0
 60 61  1  0
 61 62  1  0
 62 63  1  0
 63 64  1  0
M  CHG  2   1   1  64   1
M  END
$$$$
