
     RDKit          3D

 65 66  0  0  0  0  0  0  0  0999 V2000
   68.6777    9.7400   37.4218 N   0  0  0  0  0  4  0  0  0  0  0  0
   69.7274    8.8117   36.9808 C   0  0  2  0  0  0  0  0  0  0  0  0
   69.4565    8.4959   35.5597 C   0  0  0  0  0  0  0  0  0  0  0  0
   68.2674    8.5981   35.1534 O   0  0  0  0  0  0  0  0  0  0  0  0
   69.6918    7.5781   37.8678 C   0  0  2  0  0  0  0  0  0  0  0  0
   70.8808    6.8745   37.5498 O   0  0  0  0  0  0  0  0  0  0  0  0
   68.5706    6.6770   37.3867 C   0  0  0  0  0  0  0  0  0  0  0  0
   70.4769    8.0957   34.6868 N   0  0  0  0  0  0  0  0  0  0  0  0
   70.2353    7.7620   33.2905 C   0  0  2  0  0  0  0  0  0  0  0  0
   69.6242    6.3994   33.1787 C   0  0  0  0  0  0  0  0  0  0  0  0
   69.5861    5.6133   34.1416 O   0  0  0  0  0  0  0  0  0  0  0  0
   71.4772    7.8306   32.4662 C   0  0  2  0  0  0  0  0  0  0  0  0
   72.4967    7.0176   32.9209 O   0  0  0  0  0  0  0  0  0  0  0  0
   71.9392    9.2711   32.2543 C   0  0  0  0  0  0  0  0  0  0  0  0
   69.0554    5.9646   31.9249 N   0  0  0  0  0  0  0  0  0  0  0  0
   68.0985    4.9111   31.7976 C   0  0  2  0  0  0  0  0  0  0  0  0
   68.7186    3.5878   31.7932 C   0  0  0  0  0  0  0  0  0  0  0  0
   67.8848    2.5923   31.6903 O   0  0  0  0  0  0  0  0  0  0  0  0
   67.2316    5.1064   30.5357 C   0  0  0  0  0  0  0  0  0  0  0  0
   70.0914    3.2852   31.8900 N   0  0  0  0  0  0  0  0  0  0  0  0
   71.0282    3.4070   30.7457 C   0  0  2  0  0  0  0  0  0  0  0  0
   70.6398    2.4509   29.6915 C   0  0  0  0  0  0  0  0  0  0  0  0
   69.3814    2.3723   29.4674 O   0  0  0  0  0  0  0  0  0  0  0  0
   72.3722    3.0484   31.2793 C   0  0  0  0  0  0  0  0  0  0  0  0
   72.0712    2.1418   32.4387 C   0  0  0  0  0  0  0  0  0  0  0  0
   70.8385    2.8251   33.0231 C   0  0  0  0  0  0  0  0  0  0  0  0
   71.5539    1.6481   28.9491 N   0  0  0  0  0  0  0  0  0  0  0  0
   71.5627    1.8749   27.5149 C   0  0  2  0  0  0  0  0  0  0  0  0
   72.6804    1.1097   26.8854 C   0  0  0  0  0  0  0  0  0  0  0  0
   73.8667    1.3304   27.2962 O   0  0  0  0  0  0  0  0  0  0  0  0
   71.8053    3.3669   27.3453 C   0  0  0  0  0  0  0  0  0  0  0  0
   70.6877    4.0396   26.6579 C   0  0  0  0  0  0  0  0  0  0  0  0
   69.6121    3.3220   26.2269 C   0  0  0  0  0  0  0  0  0  0  0  0
   70.7011    5.4066   26.4311 C   0  0  0  0  0  0  0  0  0  0  0  0
   68.5393    3.9422   25.5673 C   0  0  0  0  0  0  0  0  0  0  0  0
   69.6528    6.0160   25.7866 C   0  0  0  0  0  0  0  0  0  0  0  0
   68.5664    5.2976   25.3499 C   0  0  0  0  0  0  0  0  0  0  0  0
   72.4189    0.1629   25.8639 N   0  0  0  0  0  0  0  0  0  0  0  0
   72.6226   -1.2604   26.0189 C   0  0  2  0  0  0  0  0  0  0  0  0
   72.4568   -1.9706   24.7933 C   0  0  0  0  0  0  0  0  0  0  0  0
   71.3206   -1.8917   24.1984 O   0  0  0  0  0  0  0  0  0  0  0  0
   72.0960   -1.7068   27.3069 C   0  0  0  0  0  0  0  0  0  0  0  0
   73.0307   -2.0673   28.4049 C   0  0  1  0  0  0  0  0  0  0  0  0
   73.0266   -3.4458   28.9310 C   0  0  0  0  0  0  0  0  0  0  0  0
   74.4705   -1.7563   27.9343 C   0  0  0  0  0  0  0  0  0  0  0  0
   73.3944   -2.7838   24.0922 N   0  0  0  0  0  0  0  0  0  0  0  0
   73.5019   -2.8230   22.6490 C   0  0  2  0  0  0  0  0  0  0  0  0
   72.3181   -3.5970   22.1319 C   0  0  0  0  0  0  0  0  0  0  0  0
   71.3437   -3.8068   22.9277 O   0  0  0  0  0  0  0  0  0  0  0  0
   74.7915   -3.3984   22.1491 C   0  0  0  0  0  0  0  0  0  0  0  0
   74.9714   -2.9615   20.8329 O   0  0  0  0  0  0  0  0  0  0  0  0
   72.2229   -4.1061   20.8287 N   0  0  0  0  0  0  0  0  0  0  0  0
   71.0597   -4.5523   20.1386 C   0  0  0  0  0  0  0  0  0  0  0  0
   70.3784   -3.6120   19.2700 C   0  0  0  0  0  0  0  0  0  0  0  0
   70.6868   -2.3758   19.3694 O   0  0  0  0  0  0  0  0  0  0  0  0
   69.3918   -4.0171   18.3335 N   0  0  0  0  0  0  0  0  0  0  0  0
   68.7555   -3.0112   17.5225 C   0  0  2  0  0  0  0  0  0  0  0  0
   67.6613   -2.3965   18.3380 C   0  0  0  0  0  0  0  0  0  0  0  0
   67.3833   -2.9207   19.5790 O   0  0  0  0  0  0  0  0  0  0  0  0
   68.2400   -3.5799   16.2532 C   0  0  0  0  0  0  0  0  0  0  0  0
   66.9464   -4.2841   16.4456 C   0  0  0  0  0  0  0  0  0  0  0  0
   66.2213   -4.6600   15.1913 C   0  0  0  0  0  0  0  0  0  0  0  0
   65.0284   -3.8027   14.8759 C   0  0  0  0  0  0  0  0  0  0  0  0
   65.0482   -3.1517   13.6110 N   0  0  0  0  0  4  0  0  0  0  0  0
   67.0265   -1.4214   17.8761 O   0  0  0  0  0  0  0  0  0  0  0  0
  2  1  1  1
  2  3  1  0
  2  5  1  0
  3  4  2  0
  3  8  1  0
  5  6  1  0
  5  7  1  6
  9  8  1  1
  9 10  1  0
  9 12  1  0
 10 11  2  0
 10 15  1  0
 12 13  1  0
 12 14  1  1
 15 16  1  0
 16 17  1  0
 16 19  1  6
 17 18  2  0
 17 20  1  0
 20 21  1  0
 20 26  1  0
 21 22  1  6
 21 24  1  0
 22 23  2  0
 22 27  1  0
 24 25  1  0
 25 26  1  0
 27 28  1  0
 28 29  1  0
 28 31  1  1
 29 30  2  0
 29 38  1  0
 31 32  1  0
 32 33  2  0
 32 34  1  0
 33 35  1  0
 34 36  2  0
 35 37  2  0
 36 37  1  0
 38 39  1  0
 39 40  1  0
 39 42  1  1
 40 41  2  0
 40 46  1  0
 42 43  1  0
 43 44  1  6
 43 45  1  0
 46 47  1  0
 47 48  1  0
 47 50  1  1
 48 49  2  0
 48 52  1  0
 50 51  1  0
 52 53  1  0
 53 54  1  0
 54 55  2  0
 54 56  1  0
 56 57  1  0
 57 58  1  0
 57 60  1  6
 58 59  1  0
 58 65  2  0
 60 61  1  0
 61 62  1  0
 62 63  1  0
 63 64  1  0
M  CHG  2   1   1  64   1
M  END
$$$$
