
     RDKit          3D

 65 66  0  0  0  0  0  0  0  0999 V2000
   69.1280   10.7625   36.4773 N   0  0  0  0  0  4  0  0  0  0  0  0
   69.7066    9.4125   36.5090 C   0  0  2  0  0  0  0  0  0  0  0  0
   68.5927    8.4596   36.2999 C   0  0  0  0  0  0  0  0  0  0  0  0
   67.5873    8.5593   37.0540 O   0  0  0  0  0  0  0  0  0  0  0  0
   70.4016    9.2108   37.8454 C   0  0  2  0  0  0  0  0  0  0  0  0
   71.2456    8.0897   37.6440 O   0  0  0  0  0  0  0  0  0  0  0  0
   69.3701    8.7406   38.8532 C   0  0  0  0  0  0  0  0  0  0  0  0
   68.6423    7.4761   35.3030 N   0  0  0  0  0  0  0  0  0  0  0  0
   69.8211    7.2448   34.4806 C   0  0  2  0  0  0  0  0  0  0  0  0
   69.6408    6.0145   33.6461 C   0  0  0  0  0  0  0  0  0  0  0  0
   69.4291    4.8991   34.1537 O   0  0  0  0  0  0  0  0  0  0  0  0
   71.0675    7.1292   35.2927 C   0  0  2  0  0  0  0  0  0  0  0  0
   72.1056    7.9199   34.8409 O   0  0  0  0  0  0  0  0  0  0  0  0
   71.4905    5.6733   35.4794 C   0  0  0  0  0  0  0  0  0  0  0  0
   69.7100    6.1026   32.2066 N   0  0  0  0  0  0  0  0  0  0  0  0
   68.6441    5.7420   31.3261 C   0  0  2  0  0  0  0  0  0  0  0  0
   68.8674    4.4536   30.6734 C   0  0  0  0  0  0  0  0  0  0  0  0
   68.2660    4.3086   29.5271 O   0  0  0  0  0  0  0  0  0  0  0  0
   68.4028    6.8461   30.2750 C   0  0  0  0  0  0  0  0  0  0  0  0
   69.6442    3.3774   31.1465 N   0  0  0  0  0  0  0  0  0  0  0  0
   70.8458    2.8745   30.4358 C   0  0  2  0  0  0  0  0  0  0  0  0
   70.4466    2.3311   29.1238 C   0  0  0  0  0  0  0  0  0  0  0  0
   69.1831    2.2487   28.9325 O   0  0  0  0  0  0  0  0  0  0  0  0
   71.3950    1.7818   31.2867 C   0  0  0  0  0  0  0  0  0  0  0  0
   70.1993    1.2755   32.0421 C   0  0  0  0  0  0  0  0  0  0  0  0
   69.4661    2.5832   32.3261 C   0  0  0  0  0  0  0  0  0  0  0  0
   71.3562    1.9113   28.1101 N   0  0  0  0  0  0  0  0  0  0  0  0
   70.7486    1.3205   26.9309 C   0  0  2  0  0  0  0  0  0  0  0  0
   71.5493    0.1421   26.4821 C   0  0  0  0  0  0  0  0  0  0  0  0
   72.5723    0.3528   25.7515 O   0  0  0  0  0  0  0  0  0  0  0  0
   70.7966    2.4065   25.8670 C   0  0  0  0  0  0  0  0  0  0  0  0
   70.6925    3.7590   26.4448 C   0  0  0  0  0  0  0  0  0  0  0  0
   70.7568    4.8581   25.6414 C   0  0  0  0  0  0  0  0  0  0  0  0
   70.5305    3.9483   27.8080 C   0  0  0  0  0  0  0  0  0  0  0  0
   70.6633    6.1547   26.1714 C   0  0  0  0  0  0  0  0  0  0  0  0
   70.4382    5.2155   28.3292 C   0  0  0  0  0  0  0  0  0  0  0  0
   70.5026    6.3267   27.5241 C   0  0  0  0  0  0  0  0  0  0  0  0
   71.1769   -1.1699   26.8671 N   0  0  0  0  0  0  0  0  0  0  0  0
   70.4998   -2.1006   25.9914 C   0  0  2  0  0  0  0  0  0  0  0  0
   70.8594   -1.9207   24.6231 C   0  0  0  0  0  0  0  0  0  0  0  0
   71.3275   -0.7784   24.2667 O   0  0  0  0  0  0  0  0  0  0  0  0
   69.1351   -2.3310   26.4606 C   0  0  0  0  0  0  0  0  0  0  0  0
   68.2154   -3.1915   25.6714 C   0  0  1  0  0  0  0  0  0  0  0  0
   66.8505   -3.4385   26.1744 C   0  0  0  0  0  0  0  0  0  0  0  0
   68.0833   -2.5845   24.2553 C   0  0  0  0  0  0  0  0  0  0  0  0
   70.7834   -2.8495   23.5445 N   0  0  0  0  0  0  0  0  0  0  0  0
   71.6589   -2.8151   22.3920 C   0  0  2  0  0  0  0  0  0  0  0  0
   71.3005   -3.9904   21.5214 C   0  0  0  0  0  0  0  0  0  0  0  0
   70.8016   -5.0223   22.0809 O   0  0  0  0  0  0  0  0  0  0  0  0
   73.1173   -2.8130   22.7341 C   0  0  0  0  0  0  0  0  0  0  0  0
   73.3674   -3.9269   23.5416 O   0  0  0  0  0  0  0  0  0  0  0  0
   71.4861   -4.0221   20.1317 N   0  0  0  0  0  0  0  0  0  0  0  0
   71.0387   -5.0056   19.2040 C   0  0  0  0  0  0  0  0  0  0  0  0
   69.7911   -4.7666   18.5043 C   0  0  0  0  0  0  0  0  0  0  0  0
   68.7647   -4.4606   19.2013 O   0  0  0  0  0  0  0  0  0  0  0  0
   69.6778   -4.8674   17.0931 N   0  0  0  0  0  0  0  0  0  0  0  0
   68.6838   -4.0702   16.4218 C   0  0  2  0  0  0  0  0  0  0  0  0
   68.5650   -4.5800   15.0195 C   0  0  0  0  0  0  0  0  0  0  0  0
   69.5939   -5.3274   14.4952 O   0  0  0  0  0  0  0  0  0  0  0  0
   69.0288   -2.6280   16.4534 C   0  0  0  0  0  0  0  0  0  0  0  0
   68.6157   -1.9864   17.7278 C   0  0  0  0  0  0  0  0  0  0  0  0
   67.8610   -0.7012   17.5906 C   0  0  0  0  0  0  0  0  0  0  0  0
   67.4541   -0.0710   18.8924 C   0  0  0  0  0  0  0  0  0  0  0  0
   66.2073    0.6144   18.8879 N   0  0  0  0  0  4  0  0  0  0  0  0
   67.5354   -4.3180   14.3573 O   0  0  0  0  0  0  0  0  0  0  0  0
  2  1  1  1
  2  3  1  0
  2  5  1  0
  3  4  2  0
  3  8  1  0
  5  6  1  0
  5  7  1  1
  9  8  1  1
  9 10  1  0
  9 12  1  0
 10 11  2  0
 10 15  1  0
 12 13  1  0
 12 14  1  6
 15 16  1  0
 16 17  1  0
 16 19  1  6
 17 18  2  0
 17 20  1  0
 20 21  1  0
 20 26  1  0
 21 22  1  6
 21 24  1  0
 22 23  2  0
 22 27  1  0
 24 25  1  0
 25 26  1  0
 27 28  1  0
 28 29  1  0
 28 31  1  6
 29 30  2  0
 29 38  1  0
 31 32  1  0
 32 33  2  0
 32 34  1  0
 33 35  1  0
 34 36  2  0
 35 37  2  0
 36 37  1  0
 38 39  1  0
 39 40  1  0
 39 42  1  6
 40 41  2  0
 40 46  1  0
 42 43  1  0
 43 44  1  1
 43 45  1  0
 46 47  1  0
 47 48  1  0
 47 50  1  1
 48 49  2  0
 48 52  1  0
 50 51  1  0
 52 53  1  0
 53 54  1  0
 54 55  2  0
 54 56  1  0
 56 57  1  0
 57 58  1  0
 57 60  1  6
 58 59  1  0
 58 65  2  0
 60 61  1  0
 61 62  1  0
 62 63  1  0
 63 64  1  0
M  CHG  2   1   1  64   1
M  END
$$$$
