
     RDKit          3D

 65 66  0  0  0  0  0  0  0  0999 V2000
   68.0573   10.3305   36.6817 N   0  0  0  0  0  4  0  0  0  0  0  0
   69.3170    9.6481   36.3565 C   0  0  2  0  0  0  0  0  0  0  0  0
   69.3469    9.4729   34.8865 C   0  0  0  0  0  0  0  0  0  0  0  0
   68.9202   10.4219   34.1746 O   0  0  0  0  0  0  0  0  0  0  0  0
   69.3608    8.3240   37.1011 C   0  0  2  0  0  0  0  0  0  0  0  0
   69.8653    8.6521   38.3848 O   0  0  0  0  0  0  0  0  0  0  0  0
   70.4373    7.4592   36.4735 C   0  0  0  0  0  0  0  0  0  0  0  0
   69.8292    8.2979   34.2947 N   0  0  0  0  0  0  0  0  0  0  0  0
   69.7419    8.0414   32.8642 C   0  0  2  0  0  0  0  0  0  0  0  0
   69.4357    6.5975   32.6116 C   0  0  0  0  0  0  0  0  0  0  0  0
   69.5493    5.7345   33.4999 O   0  0  0  0  0  0  0  0  0  0  0  0
   70.9869    8.4306   32.1397 C   0  0  2  0  0  0  0  0  0  0  0  0
   72.1328    7.8453   32.6410 O   0  0  0  0  0  0  0  0  0  0  0  0
   71.1209    9.9472   32.0153 C   0  0  0  0  0  0  0  0  0  0  0  0
   68.9927    6.1719   31.3050 N   0  0  0  0  0  0  0  0  0  0  0  0
   68.6251    4.8306   30.9772 C   0  0  2  0  0  0  0  0  0  0  0  0
   69.7654    3.9167   30.9933 C   0  0  0  0  0  0  0  0  0  0  0  0
   70.9214    4.4792   30.7836 O   0  0  0  0  0  0  0  0  0  0  0  0
   67.9075    4.7761   29.6118 C   0  0  0  0  0  0  0  0  0  0  0  0
   69.7431    2.5236   31.2035 N   0  0  0  0  0  0  0  0  0  0  0  0
   70.9645    1.6816   31.1685 C   0  0  2  0  0  0  0  0  0  0  0  0
   71.5439    1.7161   29.8123 C   0  0  0  0  0  0  0  0  0  0  0  0
   70.7135    1.9817   28.8743 O   0  0  0  0  0  0  0  0  0  0  0  0
   70.5148    0.2977   31.4882 C   0  0  0  0  0  0  0  0  0  0  0  0
   69.0782    0.2736   31.0499 C   0  0  0  0  0  0  0  0  0  0  0  0
   68.6263    1.6676   31.4752 C   0  0  0  0  0  0  0  0  0  0  0  0
   72.9162    1.4766   29.5112 N   0  0  0  0  0  0  0  0  0  0  0  0
   73.2674    1.5396   28.1037 C   0  0  2  0  0  0  0  0  0  0  0  0
   72.5898    0.4355   27.3601 C   0  0  0  0  0  0  0  0  0  0  0  0
   73.2110   -0.6694   27.2261 O   0  0  0  0  0  0  0  0  0  0  0  0
   74.7743    1.3386   28.0560 C   0  0  0  0  0  0  0  0  0  0  0  0
   75.4132    1.5946   29.3600 C   0  0  0  0  0  0  0  0  0  0  0  0
   75.4957    0.6043   30.2929 C   0  0  0  0  0  0  0  0  0  0  0  0
   75.9400    2.8379   29.6712 C   0  0  0  0  0  0  0  0  0  0  0  0
   76.0966    0.8279   31.5417 C   0  0  0  0  0  0  0  0  0  0  0  0
   76.5288    3.0593   30.8918 C   0  0  0  0  0  0  0  0  0  0  0  0
   76.6146    2.0650   31.8357 C   0  0  0  0  0  0  0  0  0  0  0  0
   71.2899    0.6190   26.8264 N   0  0  0  0  0  0  0  0  0  0  0  0
   70.8226   -0.0203   25.6162 C   0  0  2  0  0  0  0  0  0  0  0  0
   71.8917   -0.3861   24.7461 C   0  0  0  0  0  0  0  0  0  0  0  0
   73.0370   -0.6404   25.2702 O   0  0  0  0  0  0  0  0  0  0  0  0
   69.5734    0.5947   25.1724 C   0  0  0  0  0  0  0  0  0  0  0  0
   68.5293    0.9532   26.1678 C   0  0  1  0  0  0  0  0  0  0  0  0
   67.3053    1.6397   25.7123 C   0  0  0  0  0  0  0  0  0  0  0  0
   68.0911   -0.3398   26.8940 C   0  0  0  0  0  0  0  0  0  0  0  0
   71.8880   -0.5252   23.3275 N   0  0  0  0  0  0  0  0  0  0  0  0
   72.2902   -1.7330   22.6380 C   0  0  2  0  0  0  0  0  0  0  0  0
   71.0348   -2.4795   22.2718 C   0  0  0  0  0  0  0  0  0  0  0  0
   70.5199   -3.2535   23.1451 O   0  0  0  0  0  0  0  0  0  0  0  0
   73.2313   -2.5970   23.4204 C   0  0  0  0  0  0  0  0  0  0  0  0
   73.6418   -1.8720   24.5435 O   0  0  0  0  0  0  0  0  0  0  0  0
   70.3984   -2.3796   21.0261 N   0  0  0  0  0  0  0  0  0  0  0  0
   69.3836   -3.2189   20.4839 C   0  0  0  0  0  0  0  0  0  0  0  0
   69.3851   -3.4550   19.0531 C   0  0  0  0  0  0  0  0  0  0  0  0
   70.2504   -2.8345   18.3464 O   0  0  0  0  0  0  0  0  0  0  0  0
   68.4652   -4.3349   18.4252 N   0  0  0  0  0  0  0  0  0  0  0  0
   68.5177   -4.4814   16.9934 C   0  0  2  0  0  0  0  0  0  0  0  0
   67.6593   -3.4105   16.3962 C   0  0  0  0  0  0  0  0  0  0  0  0
   67.9396   -2.9668   15.1246 O   0  0  0  0  0  0  0  0  0  0  0  0
   68.0827   -5.8340   16.5674 C   0  0  0  0  0  0  0  0  0  0  0  0
   69.2037   -6.8085   16.5847 C   0  0  0  0  0  0  0  0  0  0  0  0
   68.8074   -8.2515   16.5531 C   0  0  0  0  0  0  0  0  0  0  0  0
   69.9556   -9.2185   16.6152 C   0  0  0  0  0  0  0  0  0  0  0  0
   70.6820   -9.3989   15.4052 N   0  0  0  0  0  4  0  0  0  0  0  0
   66.7077   -2.9448   17.0629 O   0  0  0  0  0  0  0  0  0  0  0  0
  2  1  1  6
  2  3  1  0
  2  5  1  0
  3  4  2  0
  3  8  1  0
  5  6  1  0
  5  7  1  6
  9  8  1  1
  9 10  1  0
  9 12  1  0
 10 11  2  0
 10 15  1  0
 12 13  1  0
 12 14  1  1
 15 16  1  0
 16 17  1  0
 16 19  1  6
 17 18  2  0
 17 20  1  0
 20 21  1  0
 20 26  1  0
 21 22  1  6
 21 24  1  0
 22 23  2  0
 22 27  1  0
 24 25  1  0
 25 26  1  0
 27 28  1  0
 28 29  1  0
 28 31  1  1
 29 30  2  0
 29 38  1  0
 31 32  1  0
 32 33  2  0
 32 34  1  0
 33 35  1  0
 34 36  2  0
 35 37  2  0
 36 37  1  0
 38 39  1  0
 39 40  1  0
 39 42  1  6
 40 41  2  0
 40 46  1  0
 42 43  1  0
 43 44  1  6
 43 45  1  0
 46 47  1  0
 47 48  1  0
 47 50  1  1
 48 49  2  0
 48 52  1  0
 50 51  1  0
 52 53  1  0
 53 54  1  0
 54 55  2  0
 54 56  1  0
 56 57  1  0
 57 58  1  0
 57 60  1  1
 58 59  1  0
 58 65  2  0
 60 61  1  0
 61 62  1  0
 62 63  1  0
 63 64  1  0
M  CHG  2   1   1  64   1
M  END
$$$$
