
     RDKit          3D

 65 66  0  0  0  0  0  0  0  0999 V2000
   69.0960   10.5818   38.7276 N   0  0  0  0  0  4  0  0  0  0  0  0
   69.1406   10.0726   37.3503 C   0  0  2  0  0  0  0  0  0  0  0  0
   70.0884    8.9351   37.3402 C   0  0  0  0  0  0  0  0  0  0  0  0
   70.7812    8.7406   38.3755 O   0  0  0  0  0  0  0  0  0  0  0  0
   69.5746   11.1995   36.4275 C   0  0  2  0  0  0  0  0  0  0  0  0
   68.5429   12.1661   36.5337 O   0  0  0  0  0  0  0  0  0  0  0  0
   69.4916   10.7030   34.9967 C   0  0  0  0  0  0  0  0  0  0  0  0
   70.2210    8.0970   36.2251 N   0  0  0  0  0  0  0  0  0  0  0  0
   70.3187    6.6485   36.3337 C   0  0  2  0  0  0  0  0  0  0  0  0
   71.2846    6.1142   35.3216 C   0  0  0  0  0  0  0  0  0  0  0  0
   72.5156    6.1972   35.4775 O   0  0  0  0  0  0  0  0  0  0  0  0
   68.9960    5.9759   36.1774 C   0  0  2  0  0  0  0  0  0  0  0  0
   68.4075    6.1773   34.9444 O   0  0  0  0  0  0  0  0  0  0  0  0
   68.0499    6.3094   37.3294 C   0  0  0  0  0  0  0  0  0  0  0  0
   70.7941    5.4789   34.1214 N   0  0  0  0  0  0  0  0  0  0  0  0
   71.6264    5.0337   33.0488 C   0  0  2  0  0  0  0  0  0  0  0  0
   70.8588    4.4732   31.9387 C   0  0  0  0  0  0  0  0  0  0  0  0
   70.1704    3.4069   32.2317 O   0  0  0  0  0  0  0  0  0  0  0  0
   72.6722    4.0159   33.5514 C   0  0  0  0  0  0  0  0  0  0  0  0
   70.7912    4.9537   30.6157 N   0  0  0  0  0  0  0  0  0  0  0  0
   70.0383    4.2598   29.5417 C   0  0  2  0  0  0  0  0  0  0  0  0
   70.6465    2.9391   29.2925 C   0  0  0  0  0  0  0  0  0  0  0  0
   71.7395    2.7179   29.9219 O   0  0  0  0  0  0  0  0  0  0  0  0
   70.1773    5.1143   28.3292 C   0  0  0  0  0  0  0  0  0  0  0  0
   71.4693    5.8483   28.5499 C   0  0  0  0  0  0  0  0  0  0  0  0
   71.3874    6.1266   30.0478 C   0  0  0  0  0  0  0  0  0  0  0  0
   70.1031    1.9478   28.4246 N   0  0  0  0  0  0  0  0  0  0  0  0
   70.9005    0.7434   28.2750 C   0  0  2  0  0  0  0  0  0  0  0  0
   70.2746   -0.1587   27.2623 C   0  0  0  0  0  0  0  0  0  0  0  0
   69.0045   -0.2653   27.2547 O   0  0  0  0  0  0  0  0  0  0  0  0
   70.8769    0.0735   29.6404 C   0  0  0  0  0  0  0  0  0  0  0  0
   70.7117    1.0459   30.7365 C   0  0  0  0  0  0  0  0  0  0  0  0
   71.3845    0.8815   31.9103 C   0  0  0  0  0  0  0  0  0  0  0  0
   69.8737    2.1418   30.6056 C   0  0  0  0  0  0  0  0  0  0  0  0
   71.2388    1.7934   32.9676 C   0  0  0  0  0  0  0  0  0  0  0  0
   69.7297    3.0357   31.6380 C   0  0  0  0  0  0  0  0  0  0  0  0
   70.4052    2.8749   32.8232 C   0  0  0  0  0  0  0  0  0  0  0  0
   71.0788   -0.8686   26.3361 N   0  0  0  0  0  0  0  0  0  0  0  0
   70.5426   -1.6965   25.2785 C   0  0  2  0  0  0  0  0  0  0  0  0
   71.5314   -2.5425   24.6952 C   0  0  0  0  0  0  0  0  0  0  0  0
   71.8096   -3.6464   25.2911 O   0  0  0  0  0  0  0  0  0  0  0  0
   69.5413   -0.9532   24.5163 C   0  0  0  0  0  0  0  0  0  0  0  0
   69.3417    0.4973   24.7720 C   0  0  1  0  0  0  0  0  0  0  0  0
   70.2404    1.4730   24.1259 C   0  0  0  0  0  0  0  0  0  0  0  0
   67.8947    0.8636   24.3681 C   0  0  0  0  0  0  0  0  0  0  0  0
   72.2873   -2.3509   23.5019 N   0  0  0  0  0  0  0  0  0  0  0  0
   72.3093   -3.2955   22.4050 C   0  0  2  0  0  0  0  0  0  0  0  0
   71.0815   -3.0426   21.5707 C   0  0  0  0  0  0  0  0  0  0  0  0
   70.1079   -2.4185   22.1086 O   0  0  0  0  0  0  0  0  0  0  0  0
   72.3920   -4.7279   22.8354 C   0  0  0  0  0  0  0  0  0  0  0  0
   73.4796   -4.8493   23.7060 O   0  0  0  0  0  0  0  0  0  0  0  0
   70.9405   -3.4556   20.2379 N   0  0  0  0  0  0  0  0  0  0  0  0
   69.8445   -3.2325   19.3563 C   0  0  0  0  0  0  0  0  0  0  0  0
   69.8977   -3.8300   18.0360 C   0  0  0  0  0  0  0  0  0  0  0  0
   70.8670   -4.6218   17.7775 O   0  0  0  0  0  0  0  0  0  0  0  0
   68.9251   -3.5604   17.0381 N   0  0  0  0  0  0  0  0  0  0  0  0
   68.6617   -4.5661   16.0414 C   0  0  2  0  0  0  0  0  0  0  0  0
   69.7599   -4.4975   15.0267 C   0  0  0  0  0  0  0  0  0  0  0  0
   69.6654   -5.2702   13.8926 O   0  0  0  0  0  0  0  0  0  0  0  0
   67.3280   -4.3811   15.4192 C   0  0  0  0  0  0  0  0  0  0  0  0
   67.3068   -4.8376   14.0058 C   0  0  0  0  0  0  0  0  0  0  0  0
   65.9728   -4.7867   13.3291 C   0  0  0  0  0  0  0  0  0  0  0  0
   64.9726   -5.7852   13.8390 C   0  0  0  0  0  0  0  0  0  0  0  0
   64.1825   -5.3640   14.9446 N   0  0  0  0  0  4  0  0  0  0  0  0
   70.7358   -3.7404   15.2300 O   0  0  0  0  0  0  0  0  0  0  0  0
  2  1  1  1
  2  3  1  0
  2  5  1  0
  3  4  2  0
  3  8  1  0
  5  6  1  0
  5  7  1  6
  9  8  1  6
  9 10  1  0
  9 12  1  0
 10 11  2  0
 10 15  1  0
 12 13  1  0
 12 14  1  1
 15 16  1  0
 16 17  1  0
 16 19  1  1
 17 18  2  0
 17 20  1  0
 20 21  1  0
 20 26  1  0
 21 22  1  6
 21 24  1  0
 22 23  2  0
 22 27  1  0
 24 25  1  0
 25 26  1  0
 27 28  1  0
 28 29  1  0
 28 31  1  1
 29 30  2  0
 29 38  1  0
 31 32  1  0
 32 33  2  0
 32 34  1  0
 33 35  1  0
 34 36  2  0
 35 37  2  0
 36 37  1  0
 38 39  1  0
 39 40  1  0
 39 42  1  6
 40 41  2  0
 40 46  1  0
 42 43  1  0
 43 44  1  6
 43 45  1  0
 46 47  1  0
 47 48  1  0
 47 50  1  1
 48 49  2  0
 48 52  1  0
 50 51  1  0
 52 53  1  0
 53 54  1  0
 54 55  2  0
 54 56  1  0
 56 57  1  0
 57 58  1  0
 57 60  1  6
 58 59  1  0
 58 65  2  0
 60 61  1  0
 61 62  1  0
 62 63  1  0
 63 64  1  0
M  CHG  2   1   1  64   1
M  END
$$$$
