
     RDKit          3D

 65 66  0  0  0  0  0  0  0  0999 V2000
   68.6257   10.5763   36.1406 N   0  0  0  0  0  4  0  0  0  0  0  0
   69.6165    9.5378   35.8277 C   0  0  2  0  0  0  0  0  0  0  0  0
   69.2977    9.0298   34.4739 C   0  0  0  0  0  0  0  0  0  0  0  0
   68.0899    8.7828   34.2103 O   0  0  0  0  0  0  0  0  0  0  0  0
   69.5380    8.4530   36.8893 C   0  0  2  0  0  0  0  0  0  0  0  0
   70.0301    9.0694   38.0674 O   0  0  0  0  0  0  0  0  0  0  0  0
   70.5622    7.3850   36.5566 C   0  0  0  0  0  0  0  0  0  0  0  0
   70.2945    8.8256   33.5105 N   0  0  0  0  0  0  0  0  0  0  0  0
   70.0108    8.3129   32.1777 C   0  0  2  0  0  0  0  0  0  0  0  0
   69.7531    6.8386   32.2307 C   0  0  0  0  0  0  0  0  0  0  0  0
   69.8951    6.1820   33.2772 O   0  0  0  0  0  0  0  0  0  0  0  0
   71.1103    8.6016   31.2113 C   0  0  2  0  0  0  0  0  0  0  0  0
   72.3322    8.0734   31.5789 O   0  0  0  0  0  0  0  0  0  0  0  0
   71.2011   10.0907   30.8829 C   0  0  0  0  0  0  0  0  0  0  0  0
   69.3252    6.1381   31.0429 N   0  0  0  0  0  0  0  0  0  0  0  0
   69.0404    4.7388   30.9926 C   0  0  2  0  0  0  0  0  0  0  0  0
   70.2498    3.9189   31.0234 C   0  0  0  0  0  0  0  0  0  0  0  0
   71.3061    4.4810   30.5088 O   0  0  0  0  0  0  0  0  0  0  0  0
   68.1864    4.3965   29.7534 C   0  0  0  0  0  0  0  0  0  0  0  0
   70.3864    2.6137   31.5366 N   0  0  0  0  0  0  0  0  0  0  0  0
   71.6704    1.8699   31.5214 C   0  0  2  0  0  0  0  0  0  0  0  0
   72.0796    1.6287   30.1248 C   0  0  0  0  0  0  0  0  0  0  0  0
   71.6127    2.4613   29.2713 O   0  0  0  0  0  0  0  0  0  0  0  0
   71.3966    0.5705   32.1968 C   0  0  0  0  0  0  0  0  0  0  0  0
   69.9272    0.3499   31.9753 C   0  0  0  0  0  0  0  0  0  0  0  0
   69.3969    1.7710   32.1404 C   0  0  0  0  0  0  0  0  0  0  0  0
   72.9261    0.5632   29.7012 N   0  0  0  0  0  0  0  0  0  0  0  0
   73.6618    0.8005   28.4720 C   0  0  2  0  0  0  0  0  0  0  0  0
   72.9026    0.2490   27.3099 C   0  0  0  0  0  0  0  0  0  0  0  0
   73.4691    0.2460   26.1680 O   0  0  0  0  0  0  0  0  0  0  0  0
   74.9704    0.0423   28.6341 C   0  0  0  0  0  0  0  0  0  0  0  0
   76.0330    0.8812   29.2184 C   0  0  0  0  0  0  0  0  0  0  0  0
   75.9600    1.2774   30.5204 C   0  0  0  0  0  0  0  0  0  0  0  0
   77.1233    1.2883   28.4663 C   0  0  0  0  0  0  0  0  0  0  0  0
   76.9588    2.0790   31.0953 C   0  0  0  0  0  0  0  0  0  0  0  0
   78.1022    2.0720   29.0261 C   0  0  0  0  0  0  0  0  0  0  0  0
   78.0336    2.4743   30.3378 C   0  0  0  0  0  0  0  0  0  0  0  0
   71.5911   -0.2592   27.4827 N   0  0  0  0  0  0  0  0  0  0  0  0
   70.7779   -0.7647   26.3989 C   0  0  2  0  0  0  0  0  0  0  0  0
   71.5270   -0.9585   25.2009 C   0  0  0  0  0  0  0  0  0  0  0  0
   72.4698   -0.1264   24.9367 O   0  0  0  0  0  0  0  0  0  0  0  0
   69.4451   -0.1675   26.4490 C   0  0  0  0  0  0  0  0  0  0  0  0
   68.7317   -0.0551   27.7481 C   0  0  1  0  0  0  0  0  0  0  0  0
   67.4685    0.7046   27.8130 C   0  0  0  0  0  0  0  0  0  0  0  0
   68.4389   -1.4837   28.2627 C   0  0  0  0  0  0  0  0  0  0  0  0
   71.3926   -1.9762   24.2119 N   0  0  0  0  0  0  0  0  0  0  0  0
   72.3598   -2.2058   23.1594 C   0  0  2  0  0  0  0  0  0  0  0  0
   71.8188   -3.3063   22.2854 C   0  0  0  0  0  0  0  0  0  0  0  0
   71.2021   -4.2711   22.8473 O   0  0  0  0  0  0  0  0  0  0  0  0
   73.7359   -2.5286   23.6557 C   0  0  0  0  0  0  0  0  0  0  0  0
   73.7529   -3.8796   24.0164 O   0  0  0  0  0  0  0  0  0  0  0  0
   71.9555   -3.3382   20.8901 N   0  0  0  0  0  0  0  0  0  0  0  0
   71.1388   -2.7070   19.9089 C   0  0  0  0  0  0  0  0  0  0  0  0
   69.9995   -3.4416   19.3937 C   0  0  0  0  0  0  0  0  0  0  0  0
   69.7565   -4.5931   19.8920 O   0  0  0  0  0  0  0  0  0  0  0  0
   69.1651   -2.9304   18.3656 N   0  0  0  0  0  0  0  0  0  0  0  0
   68.0413   -3.7200   17.9321 C   0  0  2  0  0  0  0  0  0  0  0  0
   68.5517   -4.7432   16.9663 C   0  0  0  0  0  0  0  0  0  0  0  0
   69.8700   -4.6901   16.5773 O   0  0  0  0  0  0  0  0  0  0  0  0
   66.9823   -2.8755   17.3275 C   0  0  0  0  0  0  0  0  0  0  0  0
   67.3476   -2.4207   15.9614 C   0  0  0  0  0  0  0  0  0  0  0  0
   66.3862   -1.4721   15.3164 C   0  0  0  0  0  0  0  0  0  0  0  0
   65.0360   -2.0573   15.0132 C   0  0  0  0  0  0  0  0  0  0  0  0
   64.6937   -2.1486   13.6353 N   0  0  0  0  0  4  0  0  0  0  0  0
   67.7717   -5.6229   16.5363 O   0  0  0  0  0  0  0  0  0  0  0  0
  2  1  1  1
  2  3  1  0
  2  5  1  0
  3  4  2  0
  3  8  1  0
  5  6  1  0
  5  7  1  6
  9  8  1  1
  9 10  1  0
  9 12  1  0
 10 11  2  0
 10 15  1  0
 12 13  1  0
 12 14  1  1
 15 16  1  0
 16 17  1  0
 16 19  1  6
 17 18  2  0
 17 20  1  0
 20 21  1  0
 20 26  1  0
 21 22  1  6
 21 24  1  0
 22 23  2  0
 22 27  1  0
 24 25  1  0
 25 26  1  0
 27 28  1  0
 28 29  1  0
 28 31  1  1
 29 30  2  0
 29 38  1  0
 31 32  1  0
 32 33  2  0
 32 34  1  0
 33 35  1  0
 34 36  2  0
 35 37  2  0
 36 37  1  0
 38 39  1  0
 39 40  1  0
 39 42  1  6
 40 41  2  0
 40 46  1  0
 42 43  1  0
 43 44  1  6
 43 45  1  0
 46 47  1  0
 47 48  1  0
 47 50  1  1
 48 49  2  0
 48 52  1  0
 50 51  1  0
 52 53  1  0
 53 54  1  0
 54 55  2  0
 54 56  1  0
 56 57  1  0
 57 58  1  0
 57 60  1  6
 58 59  1  0
 58 65  2  0
 60 61  1  0
 61 62  1  0
 62 63  1  0
 63 64  1  0
M  CHG  2   1   1  64   1
M  END
$$$$
