
     RDKit          3D

 69 70  0  0  0  0  0  0  0  0999 V2000
   96.5829  215.4467  326.5796 C   0  0  2  0  0  0  0  0  0  0  0  0
   97.3950  214.7614  325.4619 C   0  0  1  0  0  0  0  0  0  0  0  0
   98.2760  215.7947  324.7494 C   0  0  2  0  0  0  0  0  0  0  0  0
   96.6226  217.5239  325.2238 O   0  0  0  0  0  0  0  0  0  0  0  0
   94.9672  217.3976  326.9656 C   0  0  0  0  0  0  0  0  0  0  0  0
   87.1344  204.7141  326.5523 C   0  0  0  0  0  0  0  0  0  0  0  0
   86.5150  206.0673  326.8676 C   0  0  0  0  0  0  0  0  0  0  0  0
   85.5675  206.5165  325.7542 C   0  0  0  0  0  0  0  0  0  0  0  0
   84.8814  207.8567  326.0390 C   0  0  0  0  0  0  0  0  0  0  0  0
   85.2890  208.9565  325.0570 C   0  0  0  0  0  0  0  0  0  0  0  0
   86.6388  208.6563  324.4019 C   0  0  0  0  0  0  0  0  0  0  0  0
   86.6145  209.0251  322.9171 C   0  0  0  0  0  0  0  0  0  0  0  0
   87.4359  210.2832  322.6379 C   0  0  0  0  0  0  0  0  0  0  0  0
   87.3392  210.6862  321.1643 C   0  0  0  0  0  0  0  0  0  0  0  0
   88.0925  211.9806  320.8448 C   0  0  0  0  0  0  0  0  0  0  0  0
   89.1638  212.3230  321.8853 C   0  0  0  0  0  0  0  0  0  0  0  0
   90.2733  213.2196  321.3252 C   0  0  0  0  0  0  0  0  0  0  0  0
   91.3328  213.6382  322.3505 C   0  0  0  0  0  0  0  0  0  0  0  0
   91.3563  215.1348  322.7018 C   0  0  0  0  0  0  0  0  0  0  0  0
   92.3141  215.9827  321.8481 C   0  0  1  0  0  0  0  0  0  0  0  0
   91.8326  217.3396  321.8670 O   0  0  0  0  0  0  0  0  0  0  0  0
   93.7629  216.0229  322.4019 C   0  0  1  0  0  0  0  0  0  0  0  0
   94.0928  214.6640  322.7580 O   0  0  0  0  0  0  0  0  0  0  0  0
   94.8050  216.7229  321.4703 C   0  0  2  0  0  0  0  0  0  0  0  0
   95.9758  217.3421  322.2646 C   0  0  0  0  0  0  0  0  0  0  0  0
   96.4291  216.3845  323.2222 O   0  0  0  0  0  0  0  0  0  0  0  0
   97.3698  216.9002  324.1717 C   0  0  2  0  0  0  0  0  0  0  0  0
   99.0664  215.1418  323.7448 O   0  0  0  0  0  0  0  0  0  0  0  0
   98.2348  213.6983  325.9416 O   0  0  0  0  0  0  0  0  0  0  0  0
   95.7739  216.6004  325.9379 C   0  0  2  0  0  0  0  0  0  0  0  0
   95.2092  218.7936  326.8194 O   0  0  0  0  0  0  0  0  0  0  0  0
   97.4666  215.9995  327.5764 O   0  0  0  0  0  0  0  0  0  0  0  0
   97.7049  215.1455  328.6947 C   0  0  0  0  0  0  0  0  0  0  0  0
   96.4458  214.4125  329.0897 C   0  0  0  0  0  0  0  0  0  0  0  0
   95.2672  215.1259  329.3585 C   0  0  0  0  0  0  0  0  0  0  0  0
   94.0887  214.4564  329.7019 C   0  0  0  0  0  0  0  0  0  0  0  0
   92.6788  215.4103  329.9959 Cl  0  0  0  0  0  0  0  0  0  0  0  0
   94.0820  213.0602  329.7901 C   0  0  0  0  0  0  0  0  0  0  0  0
   92.6658  212.1646  330.2070 Cl  0  0  0  0  0  0  0  0  0  0  0  0
   95.2532  212.3429  329.5340 C   0  0  0  0  0  0  0  0  0  0  0  0
   96.4279  213.0149  329.1855 C   0  0  0  0  0  0  0  0  0  0  0  0
   94.1787  217.7497  320.6309 N   0  0  0  0  0  0  0  0  0  0  0  0
   94.0507  217.5974  319.2657 C   0  0  0  0  0  0  0  0  0  0  0  0
   94.3881  216.5778  318.6745 O   0  0  0  0  0  0  0  0  0  0  0  0
   93.4937  218.8276  318.5732 C   0  0  0  0  0  0  0  0  0  0  0  0
   92.5966  218.4586  317.3918 C   0  0  0  0  0  0  0  0  0  0  0  0
   91.1014  218.6102  317.6908 C   0  0  0  0  0  0  0  0  0  0  0  0
   90.5606  220.0436  317.6159 C   0  0  0  0  0  0  0  0  0  0  0  0
   89.5129  220.2320  316.5166 C   0  0  0  0  0  0  0  0  0  0  0  0
   90.0482  220.9577  315.2779 C   0  0  0  0  0  0  0  0  0  0  0  0
   89.0308  221.2019  314.1574 C   0  0  0  0  0  0  0  0  0  0  0  0
   88.7245  222.6847  313.9295 C   0  0  0  0  0  0  0  0  0  0  0  0
   87.3760  223.0822  314.5330 C   0  0  0  0  0  0  0  0  0  0  0  0
   86.2332  223.0432  313.5126 C   0  0  0  0  0  0  0  0  0  0  0  0
   86.3107  221.9117  312.4792 C   0  0  0  0  0  0  0  0  0  0  0  0
   85.1708  221.8788  311.4578 C   0  0  0  0  0  0  0  0  0  0  0  0
   84.5058  220.5060  311.3485 C   0  0  0  0  0  0  0  0  0  0  0  0
   82.9845  220.6073  311.4794 C   0  0  0  0  0  0  0  0  0  0  0  0
   82.3350  219.2272  311.3642 C   0  0  0  0  0  0  0  0  0  0  0  0
   81.1695  219.1819  310.3730 C   0  0  0  0  0  0  0  0  0  0  0  0
   80.5494  220.5355  310.0117 C   0  0  0  0  0  0  0  0  0  0  0  0
   80.6783  220.9603  308.5459 C   0  0  0  0  0  0  0  0  0  0  0  0
   79.9767  222.2837  308.2320 C   0  0  0  0  0  0  0  0  0  0  0  0
   78.5758  222.0461  307.6623 C   0  0  0  0  0  0  0  0  0  0  0  0
   78.4032  222.5939  306.2411 C   0  0  0  0  0  0  0  0  0  0  0  0
   78.9074  221.6315  305.1622 C   0  0  0  0  0  0  0  0  0  0  0  0
   77.8968  221.4015  304.0342 C   0  0  0  0  0  0  0  0  0  0  0  0
   78.3046  220.3677  302.9821 C   0  0  0  0  0  0  0  0  0  0  0  0
   78.4610  218.9605  303.5391 C   0  0  0  0  0  0  0  0  0  0  0  0
  2  1  1  0
 30  1  1  0
  1 32  1  1
  3  2  1  0
  2 29  1  1
 27  3  1  0
  3 28  1  6
 27  4  1  0
  4 30  1  0
 30  5  1  1
  5 31  1  0
  7  6  1  0
  8  7  1  0
  9  8  1  0
 10  9  1  0
 11 10  1  0
 12 11  1  0
 13 12  1  0
 14 13  1  0
 15 14  1  0
 16 15  1  0
 17 16  1  0
 18 17  1  0
 19 18  1  0
 20 19  1  0
 20 21  1  1
 22 20  1  0
 22 23  1  6
 24 22  1  0
 24 25  1  1
 24 42  1  0
 26 25  1  0
 27 26  1  6
 32 33  1  0
 33 34  1  0
 34 35  2  0
 34 41  1  0
 35 36  1  0
 36 37  1  0
 36 38  2  0
 38 39  1  0
 38 40  1  0
 40 41  2  0
 42 43  1  0
 43 44  2  0
 43 45  1  0
 45 46  1  0
 46 47  1  0
 47 48  1  0
 48 49  1  0
 49 50  1  0
 50 51  1  0
 51 52  1  0
 52 53  1  0
 53 54  1  0
 54 55  1  0
 55 56  1  0
 56 57  1  0
 57 58  1  0
 58 59  1  0
 59 60  1  0
 60 61  1  0
 61 62  1  0
 62 63  1  0
 63 64  1  0
 64 65  1  0
 65 66  1  0
 66 67  1  0
 67 68  1  0
 68 69  1  0
M  END
$$$$
