
     RDKit          3D

 69 70  0  0  0  0  0  0  0  0999 V2000
   94.0574  214.3810  326.7953 C   0  0  2  0  0  0  0  0  0  0  0  0
   95.4480  213.8827  326.3522 C   0  0  1  0  0  0  0  0  0  0  0  0
   96.4250  215.0622  326.2780 C   0  0  2  0  0  0  0  0  0  0  0  0
   94.5778  216.5500  325.7094 O   0  0  0  0  0  0  0  0  0  0  0  0
   92.2606  216.0996  326.1761 C   0  0  0  0  0  0  0  0  0  0  0  0
   93.6966  218.4452  308.6946 C   0  0  0  0  0  0  0  0  0  0  0  0
   92.9126  218.8808  309.9234 C   0  0  0  0  0  0  0  0  0  0  0  0
   91.9572  217.7814  310.3901 C   0  0  0  0  0  0  0  0  0  0  0  0
   91.0053  218.2307  311.5036 C   0  0  0  0  0  0  0  0  0  0  0  0
   89.8133  217.2895  311.6858 C   0  0  0  0  0  0  0  0  0  0  0  0
   90.1619  216.1060  312.5908 C   0  0  0  0  0  0  0  0  0  0  0  0
   89.5637  216.2964  313.9862 C   0  0  0  0  0  0  0  0  0  0  0  0
   88.8722  215.0255  314.4785 C   0  0  0  0  0  0  0  0  0  0  0  0
   89.6845  214.3532  315.5882 C   0  0  0  0  0  0  0  0  0  0  0  0
   88.9739  214.3658  316.9447 C   0  0  0  0  0  0  0  0  0  0  0  0
   89.8065  213.7308  318.0631 C   0  0  0  0  0  0  0  0  0  0  0  0
   90.6240  214.7580  318.8539 C   0  0  0  0  0  0  0  0  0  0  0  0
   90.7868  214.4331  320.3428 C   0  0  0  0  0  0  0  0  0  0  0  0
   92.0288  215.0371  321.0183 C   0  0  0  0  0  0  0  0  0  0  0  0
   93.3107  214.1992  320.8783 C   0  0  1  0  0  0  0  0  0  0  0  0
   93.8289  214.4103  319.5515 O   0  0  0  0  0  0  0  0  0  0  0  0
   94.4345  214.6215  321.8611 C   0  0  1  0  0  0  0  0  0  0  0  0
   95.5250  213.7026  321.6403 O   0  0  0  0  0  0  0  0  0  0  0  0
   94.8329  216.1318  321.7965 C   0  0  2  0  0  0  0  0  0  0  0  0
   95.8206  216.5240  322.9171 C   0  0  0  0  0  0  0  0  0  0  0  0
   95.7234  215.5577  323.9643 O   0  0  0  0  0  0  0  0  0  0  0  0
   95.8698  216.1001  325.2821 C   0  0  2  0  0  0  0  0  0  0  0  0
   97.7289  214.5846  325.9145 O   0  0  0  0  0  0  0  0  0  0  0  0
   95.9996  212.8870  327.2295 O   0  0  0  0  0  0  0  0  0  0  0  0
   93.6108  215.4827  325.8033 C   0  0  2  0  0  0  0  0  0  0  0  0
   92.0817  217.3499  325.5178 O   0  0  0  0  0  0  0  0  0  0  0  0
   94.1256  214.9498  328.1189 O   0  0  0  0  0  0  0  0  0  0  0  0
   93.8428  214.0305  329.1733 C   0  0  0  0  0  0  0  0  0  0  0  0
   92.4688  213.4279  329.0072 C   0  0  0  0  0  0  0  0  0  0  0  0
   92.3207  212.0434  328.8290 C   0  0  0  0  0  0  0  0  0  0  0  0
   91.0519  211.4710  328.6980 C   0  0  0  0  0  0  0  0  0  0  0  0
   90.9595  209.7570  328.5032 Cl  0  0  0  0  0  0  0  0  0  0  0  0
   89.9144  212.2845  328.7338 C   0  0  0  0  0  0  0  0  0  0  0  0
   88.3158  211.6502  328.5801 Cl  0  0  0  0  0  0  0  0  0  0  0  0
   90.0530  213.6647  328.9006 C   0  0  0  0  0  0  0  0  0  0  0  0
   91.3226  214.2330  329.0370 C   0  0  0  0  0  0  0  0  0  0  0  0
   93.6561  217.0058  321.8459 N   0  0  0  0  0  0  0  0  0  0  0  0
   93.3211  217.8379  320.7976 C   0  0  0  0  0  0  0  0  0  0  0  0
   94.0191  217.9640  319.7978 O   0  0  0  0  0  0  0  0  0  0  0  0
   92.0325  218.6057  321.0279 C   0  0  0  0  0  0  0  0  0  0  0  0
   91.1087  218.5449  319.8116 C   0  0  0  0  0  0  0  0  0  0  0  0
   89.7184  219.1345  320.0716 C   0  0  0  0  0  0  0  0  0  0  0  0
   88.7586  219.1012  318.8756 C   0  0  0  0  0  0  0  0  0  0  0  0
   87.4355  219.8198  319.1490 C   0  0  0  0  0  0  0  0  0  0  0  0
   86.3971  219.6353  318.0376 C   0  0  0  0  0  0  0  0  0  0  0  0
   86.4409  220.6695  316.9067 C   0  0  0  0  0  0  0  0  0  0  0  0
   85.2030  220.6356  316.0063 C   0  0  0  0  0  0  0  0  0  0  0  0
   85.1292  221.8668  315.1010 C   0  0  0  0  0  0  0  0  0  0  0  0
   86.4099  222.0850  314.2882 C   0  0  0  0  0  0  0  0  0  0  0  0
   86.1998  222.4529  312.8135 C   0  0  0  0  0  0  0  0  0  0  0  0
   85.2274  223.6074  312.5588 C   0  0  0  0  0  0  0  0  0  0  0  0
   85.3038  224.1491  311.1308 C   0  0  0  0  0  0  0  0  0  0  0  0
   84.0675  223.7614  310.3165 C   0  0  0  0  0  0  0  0  0  0  0  0
   83.9969  224.5658  309.0174 C   0  0  0  0  0  0  0  0  0  0  0  0
   82.6019  224.5874  308.3878 C   0  0  0  0  0  0  0  0  0  0  0  0
   81.9180  223.2248  308.2368 C   0  0  0  0  0  0  0  0  0  0  0  0
   80.3990  223.2135  308.4316 C   0  0  0  0  0  0  0  0  0  0  0  0
   79.9711  223.3989  309.8892 C   0  0  0  0  0  0  0  0  0  0  0  0
   79.5680  222.0645  310.5219 C   0  0  0  0  0  0  0  0  0  0  0  0
   78.4427  221.3535  309.7617 C   0  0  0  0  0  0  0  0  0  0  0  0
   78.2650  219.8920  310.1824 C   0  0  0  0  0  0  0  0  0  0  0  0
   76.7992  219.4884  310.3688 C   0  0  0  0  0  0  0  0  0  0  0  0
   76.5594  218.0252  310.7477 C   0  0  0  0  0  0  0  0  0  0  0  0
   75.1126  217.5832  310.5862 C   0  0  0  0  0  0  0  0  0  0  0  0
  2  1  1  0
 30  1  1  0
  1 32  1  1
  3  2  1  0
  2 29  1  1
 27  3  1  0
  3 28  1  6
 27  4  1  0
  4 30  1  0
 30  5  1  1
  5 31  1  0
  7  6  1  0
  8  7  1  0
  9  8  1  0
 10  9  1  0
 11 10  1  0
 12 11  1  0
 13 12  1  0
 14 13  1  0
 15 14  1  0
 16 15  1  0
 17 16  1  0
 18 17  1  0
 19 18  1  0
 20 19  1  0
 20 21  1  6
 22 20  1  0
 22 23  1  6
 24 22  1  0
 24 25  1  1
 24 42  1  0
 26 25  1  0
 27 26  1  6
 32 33  1  0
 33 34  1  0
 34 35  2  0
 34 41  1  0
 35 36  1  0
 36 37  1  0
 36 38  2  0
 38 39  1  0
 38 40  1  0
 40 41  2  0
 42 43  1  0
 43 44  2  0
 43 45  1  0
 45 46  1  0
 46 47  1  0
 47 48  1  0
 48 49  1  0
 49 50  1  0
 50 51  1  0
 51 52  1  0
 52 53  1  0
 53 54  1  0
 54 55  1  0
 55 56  1  0
 56 57  1  0
 57 58  1  0
 58 59  1  0
 59 60  1  0
 60 61  1  0
 61 62  1  0
 62 63  1  0
 63 64  1  0
 64 65  1  0
 65 66  1  0
 66 67  1  0
 67 68  1  0
 68 69  1  0
M  END
$$$$
