
     RDKit          3D

 69 70  0  0  0  0  0  0  0  0999 V2000
   95.2770  220.9344  323.7486 C   0  0  2  0  0  0  0  0  0  0  0  0
   95.0382  219.9550  324.9156 C   0  0  1  0  0  0  0  0  0  0  0  0
   96.1082  218.8566  324.9012 C   0  0  2  0  0  0  0  0  0  0  0  0
   96.2663  219.0493  322.4750 O   0  0  0  0  0  0  0  0  0  0  0  0
   95.5806  220.9745  321.2047 C   0  0  0  0  0  0  0  0  0  0  0  0
   91.4174  215.9847  314.3244 C   0  0  0  0  0  0  0  0  0  0  0  0
   90.8234  214.6164  314.0263 C   0  0  0  0  0  0  0  0  0  0  0  0
   90.8062  213.7351  315.2762 C   0  0  0  0  0  0  0  0  0  0  0  0
   89.7187  212.6561  315.2487 C   0  0  0  0  0  0  0  0  0  0  0  0
   89.6748  211.8200  316.5290 C   0  0  0  0  0  0  0  0  0  0  0  0
   88.2568  211.7318  317.0971 C   0  0  0  0  0  0  0  0  0  0  0  0
   88.2583  211.0166  318.4497 C   0  0  0  0  0  0  0  0  0  0  0  0
   87.2215  211.6129  319.4010 C   0  0  0  0  0  0  0  0  0  0  0  0
   87.2212  210.8776  320.7436 C   0  0  0  0  0  0  0  0  0  0  0  0
   88.6152  210.7655  321.3674 C   0  0  0  0  0  0  0  0  0  0  0  0
   89.0516  212.0424  322.0928 C   0  0  0  0  0  0  0  0  0  0  0  0
   90.4468  211.9264  322.7162 C   0  0  0  0  0  0  0  0  0  0  0  0
   90.9253  213.1861  323.4465 C   0  0  0  0  0  0  0  0  0  0  0  0
   92.3913  213.1638  323.9095 C   0  0  0  0  0  0  0  0  0  0  0  0
   92.7709  214.2754  324.9022 C   0  0  1  0  0  0  0  0  0  0  0  0
   93.3556  213.6482  326.0590 O   0  0  0  0  0  0  0  0  0  0  0  0
   93.8365  215.2586  324.3499 C   0  0  1  0  0  0  0  0  0  0  0  0
   95.0683  214.9360  325.0288 O   0  0  0  0  0  0  0  0  0  0  0  0
   93.9453  215.3046  322.7911 C   0  0  2  0  0  0  0  0  0  0  0  0
   94.7641  216.5176  322.2979 C   0  0  0  0  0  0  0  0  0  0  0  0
   94.7689  217.5083  323.3267 O   0  0  0  0  0  0  0  0  0  0  0  0
   96.0438  218.1236  323.5464 C   0  0  2  0  0  0  0  0  0  0  0  0
   95.9105  217.9780  326.0190 O   0  0  0  0  0  0  0  0  0  0  0  0
   95.0553  220.5925  326.2035 O   0  0  0  0  0  0  0  0  0  0  0  0
   95.2915  220.1130  322.4363 C   0  0  2  0  0  0  0  0  0  0  0  0
   96.3778  220.2575  320.2671 O   0  0  0  0  0  0  0  0  0  0  0  0
   96.5518  221.5923  323.8972 O   0  0  0  0  0  0  0  0  0  0  0  0
   96.6841  222.8017  323.1512 C   0  0  0  0  0  0  0  0  0  0  0  0
   95.4244  223.6287  323.2396 C   0  0  0  0  0  0  0  0  0  0  0  0
   94.6668  223.6389  324.4212 C   0  0  0  0  0  0  0  0  0  0  0  0
   93.5113  224.4195  324.5230 C   0  0  0  0  0  0  0  0  0  0  0  0
   92.6503  224.3895  326.0204 Cl  0  0  0  0  0  0  0  0  0  0  0  0
   93.0958  225.1930  323.4339 C   0  0  0  0  0  0  0  0  0  0  0  0
   91.6815  226.1823  323.4853 Cl  0  0  0  0  0  0  0  0  0  0  0  0
   93.8383  225.1809  322.2505 C   0  0  0  0  0  0  0  0  0  0  0  0
   94.9959  224.4039  322.1541 C   0  0  0  0  0  0  0  0  0  0  0  0
   92.6238  215.3080  322.1549 N   0  0  0  0  0  0  0  0  0  0  0  0
   91.9396  216.4789  321.9010 C   0  0  0  0  0  0  0  0  0  0  0  0
   92.4658  217.5845  321.9615 O   0  0  0  0  0  0  0  0  0  0  0  0
   90.4717  216.2606  321.5838 C   0  0  0  0  0  0  0  0  0  0  0  0
   90.2637  215.7971  320.1421 C   0  0  0  0  0  0  0  0  0  0  0  0
   89.7883  216.9127  319.2054 C   0  0  0  0  0  0  0  0  0  0  0  0
   88.2746  217.1602  319.1971 C   0  0  0  0  0  0  0  0  0  0  0  0
   87.8419  218.1917  318.1528 C   0  0  0  0  0  0  0  0  0  0  0  0
   86.9194  217.6191  317.0717 C   0  0  0  0  0  0  0  0  0  0  0  0
   85.4562  218.0720  317.1365 C   0  0  0  0  0  0  0  0  0  0  0  0
   85.2482  219.5173  316.6756 C   0  0  0  0  0  0  0  0  0  0  0  0
   83.8149  219.7568  316.1970 C   0  0  0  0  0  0  0  0  0  0  0  0
   83.7488  220.5799  314.9060 C   0  0  0  0  0  0  0  0  0  0  0  0
   85.1041  220.9998  314.3220 C   0  0  0  0  0  0  0  0  0  0  0  0
   85.0557  222.1590  313.3233 C   0  0  0  0  0  0  0  0  0  0  0  0
   83.8328  222.1073  312.4065 C   0  0  0  0  0  0  0  0  0  0  0  0
   84.1670  221.4588  311.0612 C   0  0  0  0  0  0  0  0  0  0  0  0
   82.8990  220.9553  310.3695 C   0  0  0  0  0  0  0  0  0  0  0  0
   82.2212  222.0115  309.4933 C   0  0  0  0  0  0  0  0  0  0  0  0
   82.1421  221.6858  307.9983 C   0  0  0  0  0  0  0  0  0  0  0  0
   81.3029  222.6444  307.1485 C   0  0  0  0  0  0  0  0  0  0  0  0
   81.0246  222.1217  305.7372 C   0  0  0  0  0  0  0  0  0  0  0  0
   82.2350  221.3711  305.1760 C   0  0  0  0  0  0  0  0  0  0  0  0
   82.6358  221.8392  303.7726 C   0  0  0  0  0  0  0  0  0  0  0  0
   84.0273  222.4766  303.7276 C   0  0  0  0  0  0  0  0  0  0  0  0
   84.0684  223.8861  304.3259 C   0  0  0  0  0  0  0  0  0  0  0  0
   85.4589  224.5144  304.4424 C   0  0  0  0  0  0  0  0  0  0  0  0
   85.4547  225.8854  305.1022 C   0  0  0  0  0  0  0  0  0  0  0  0
  2  1  1  0
 30  1  1  0
  1 32  1  1
  3  2  1  0
  2 29  1  1
 27  3  1  0
  3 28  1  1
 27  4  1  0
  4 30  1  0
 30  5  1  6
  5 31  1  0
  7  6  1  0
  8  7  1  0
  9  8  1  0
 10  9  1  0
 11 10  1  0
 12 11  1  0
 13 12  1  0
 14 13  1  0
 15 14  1  0
 16 15  1  0
 17 16  1  0
 18 17  1  0
 19 18  1  0
 20 19  1  0
 20 21  1  1
 22 20  1  0
 22 23  1  1
 24 22  1  0
 24 25  1  1
 24 42  1  0
 26 25  1  0
 27 26  1  6
 32 33  1  0
 33 34  1  0
 34 35  2  0
 34 41  1  0
 35 36  1  0
 36 37  1  0
 36 38  2  0
 38 39  1  0
 38 40  1  0
 40 41  2  0
 42 43  1  0
 43 44  2  0
 43 45  1  0
 45 46  1  0
 46 47  1  0
 47 48  1  0
 48 49  1  0
 49 50  1  0
 50 51  1  0
 51 52  1  0
 52 53  1  0
 53 54  1  0
 54 55  1  0
 55 56  1  0
 56 57  1  0
 57 58  1  0
 58 59  1  0
 59 60  1  0
 60 61  1  0
 61 62  1  0
 62 63  1  0
 63 64  1  0
 64 65  1  0
 65 66  1  0
 66 67  1  0
 67 68  1  0
 68 69  1  0
M  END
$$$$
