
     RDKit          3D

 69 70  0  0  0  0  0  0  0  0999 V2000
   91.5010  221.1926  318.1254 C   0  0  2  0  0  0  0  0  0  0  0  0
   91.7560  221.8400  319.5016 C   0  0  1  0  0  0  0  0  0  0  0  0
   93.2563  221.8177  319.8181 C   0  0  2  0  0  0  0  0  0  0  0  0
   93.4956  219.7698  318.5152 O   0  0  0  0  0  0  0  0  0  0  0  0
   91.9567  219.0374  316.8164 C   0  0  0  0  0  0  0  0  0  0  0  0
   84.4669  210.2313  332.3090 C   0  0  0  0  0  0  0  0  0  0  0  0
   84.1495  209.2280  331.2104 C   0  0  0  0  0  0  0  0  0  0  0  0
   83.2407  209.8420  330.1443 C   0  0  0  0  0  0  0  0  0  0  0  0
   83.9746  210.2004  328.8480 C   0  0  0  0  0  0  0  0  0  0  0  0
   83.0554  210.8192  327.7932 C   0  0  0  0  0  0  0  0  0  0  0  0
   83.8272  211.2087  326.5307 C   0  0  0  0  0  0  0  0  0  0  0  0
   83.8614  212.7293  326.3640 C   0  0  0  0  0  0  0  0  0  0  0  0
   84.8239  213.1507  325.2544 C   0  0  0  0  0  0  0  0  0  0  0  0
   84.7939  214.6671  325.0480 C   0  0  0  0  0  0  0  0  0  0  0  0
   86.0132  215.1940  324.2859 C   0  0  0  0  0  0  0  0  0  0  0  0
   87.2333  215.4140  325.1860 C   0  0  0  0  0  0  0  0  0  0  0  0
   88.3711  216.1560  324.4764 C   0  0  0  0  0  0  0  0  0  0  0  0
   89.6310  216.3532  325.3266 C   0  0  0  0  0  0  0  0  0  0  0  0
   90.8769  216.8266  324.5602 C   0  0  0  0  0  0  0  0  0  0  0  0
   90.5927  217.8077  323.4106 C   0  0  1  0  0  0  0  0  0  0  0  0
   89.7838  218.8764  323.9369 O   0  0  0  0  0  0  0  0  0  0  0  0
   91.8721  218.4688  322.8329 C   0  0  1  0  0  0  0  0  0  0  0  0
   92.5101  219.1395  323.9398 O   0  0  0  0  0  0  0  0  0  0  0  0
   92.8056  217.5061  322.0296 C   0  0  2  0  0  0  0  0  0  0  0  0
   93.6321  218.2520  320.9591 C   0  0  0  0  0  0  0  0  0  0  0  0
   93.0676  219.5510  320.7760 O   0  0  0  0  0  0  0  0  0  0  0  0
   93.7420  220.3545  319.8004 C   0  0  2  0  0  0  0  0  0  0  0  0
   93.4921  222.4669  321.0764 O   0  0  0  0  0  0  0  0  0  0  0  0
   91.2918  223.1976  319.5844 O   0  0  0  0  0  0  0  0  0  0  0  0
   92.0977  219.7642  318.1561 C   0  0  2  0  0  0  0  0  0  0  0  0
   92.6568  219.7356  315.7912 O   0  0  0  0  0  0  0  0  0  0  0  0
   92.1577  221.9464  317.0859 O   0  0  0  0  0  0  0  0  0  0  0  0
   91.8306  223.3354  317.0655 C   0  0  0  0  0  0  0  0  0  0  0  0
   90.6704  223.6011  316.1370 C   0  0  0  0  0  0  0  0  0  0  0  0
   90.8141  223.4114  314.7536 C   0  0  0  0  0  0  0  0  0  0  0  0
   89.7397  223.6313  313.8864 C   0  0  0  0  0  0  0  0  0  0  0  0
   89.9974  223.3538  312.2008 Cl  0  0  0  0  0  0  0  0  0  0  0  0
   88.5084  224.0553  314.3975 C   0  0  0  0  0  0  0  0  0  0  0  0
   87.1368  224.3459  313.3894 Cl  0  0  0  0  0  0  0  0  0  0  0  0
   88.3594  224.2563  315.7719 C   0  0  0  0  0  0  0  0  0  0  0  0
   89.4338  224.0301  316.6367 C   0  0  0  0  0  0  0  0  0  0  0  0
   92.0505  216.4169  321.4016 N   0  0  0  0  0  0  0  0  0  0  0  0
   92.2259  215.0996  321.7721 C   0  0  0  0  0  0  0  0  0  0  0  0
   93.0492  214.7469  322.6091 O   0  0  0  0  0  0  0  0  0  0  0  0
   91.3317  214.1373  321.0121 C   0  0  0  0  0  0  0  0  0  0  0  0
   91.5156  212.6953  321.4850 C   0  0  0  0  0  0  0  0  0  0  0  0
   90.3718  212.1943  322.3731 C   0  0  0  0  0  0  0  0  0  0  0  0
   90.5039  210.7441  322.8551 C   0  0  0  0  0  0  0  0  0  0  0  0
   89.3424  210.3013  323.7477 C   0  0  0  0  0  0  0  0  0  0  0  0
   89.5552  208.9284  324.3939 C   0  0  0  0  0  0  0  0  0  0  0  0
   88.3326  208.3260  325.0957 C   0  0  0  0  0  0  0  0  0  0  0  0
   88.6193  206.9772  325.7612 C   0  0  0  0  0  0  0  0  0  0  0  0
   87.4575  206.5272  326.6492 C   0  0  0  0  0  0  0  0  0  0  0  0
   86.0967  207.0155  326.1409 C   0  0  0  0  0  0  0  0  0  0  0  0
   85.3384  206.0325  325.2394 C   0  0  0  0  0  0  0  0  0  0  0  0
   84.2836  205.1767  325.9456 C   0  0  0  0  0  0  0  0  0  0  0  0
   84.6724  203.7003  326.0324 C   0  0  0  0  0  0  0  0  0  0  0  0
   84.2041  202.9232  324.8000 C   0  0  0  0  0  0  0  0  0  0  0  0
   85.3582  202.7119  323.8186 C   0  0  0  0  0  0  0  0  0  0  0  0
   84.9536  201.9472  322.5559 C   0  0  0  0  0  0  0  0  0  0  0  0
   85.7080  202.3259  321.2773 C   0  0  0  0  0  0  0  0  0  0  0  0
   85.1577  201.7346  319.9762 C   0  0  0  0  0  0  0  0  0  0  0  0
   86.1922  201.6741  318.8500 C   0  0  0  0  0  0  0  0  0  0  0  0
   85.5551  201.2113  317.5372 C   0  0  0  0  0  0  0  0  0  0  0  0
   86.5092  201.3010  316.3408 C   0  0  0  0  0  0  0  0  0  0  0  0
   87.0677  202.7101  316.1236 C   0  0  0  0  0  0  0  0  0  0  0  0
   87.9009  202.8418  314.8450 C   0  0  0  0  0  0  0  0  0  0  0  0
   88.7931  204.0825  314.7621 C   0  0  0  0  0  0  0  0  0  0  0  0
   89.1158  204.5067  313.3370 C   0  0  0  0  0  0  0  0  0  0  0  0
  2  1  1  0
 30  1  1  0
  1 32  1  6
  3  2  1  0
  2 29  1  6
 27  3  1  0
  3 28  1  1
 27  4  1  0
  4 30  1  0
 30  5  1  6
  5 31  1  0
  7  6  1  0
  8  7  1  0
  9  8  1  0
 10  9  1  0
 11 10  1  0
 12 11  1  0
 13 12  1  0
 14 13  1  0
 15 14  1  0
 16 15  1  0
 17 16  1  0
 18 17  1  0
 19 18  1  0
 20 19  1  0
 20 21  1  1
 22 20  1  0
 22 23  1  1
 24 22  1  0
 24 25  1  6
 24 42  1  0
 26 25  1  0
 27 26  1  1
 32 33  1  0
 33 34  1  0
 34 35  2  0
 34 41  1  0
 35 36  1  0
 36 37  1  0
 36 38  2  0
 38 39  1  0
 38 40  1  0
 40 41  2  0
 42 43  1  0
 43 44  2  0
 43 45  1  0
 45 46  1  0
 46 47  1  0
 47 48  1  0
 48 49  1  0
 49 50  1  0
 50 51  1  0
 51 52  1  0
 52 53  1  0
 53 54  1  0
 54 55  1  0
 55 56  1  0
 56 57  1  0
 57 58  1  0
 58 59  1  0
 59 60  1  0
 60 61  1  0
 61 62  1  0
 62 63  1  0
 63 64  1  0
 64 65  1  0
 65 66  1  0
 66 67  1  0
 67 68  1  0
 68 69  1  0
M  END
$$$$
