
     RDKit          3D

 69 70  0  0  0  0  0  0  0  0999 V2000
   94.0784  219.7392  319.9501 C   0  0  2  0  0  0  0  0  0  0  0  0
   93.7981  220.3579  321.3346 C   0  0  1  0  0  0  0  0  0  0  0  0
   95.1213  220.6997  322.0302 C   0  0  2  0  0  0  0  0  0  0  0  0
   96.2045  218.8493  320.8677 O   0  0  0  0  0  0  0  0  0  0  0  0
   95.3924  217.8404  318.8397 C   0  0  0  0  0  0  0  0  0  0  0  0
   96.4621  205.9699  328.2747 C   0  0  0  0  0  0  0  0  0  0  0  0
   95.4521  207.0561  328.6126 C   0  0  0  0  0  0  0  0  0  0  0  0
   96.1229  208.2385  329.3135 C   0  0  0  0  0  0  0  0  0  0  0  0
   95.1431  209.3440  329.7204 C   0  0  0  0  0  0  0  0  0  0  0  0
   95.5138  210.7118  329.1443 C   0  0  0  0  0  0  0  0  0  0  0  0
   95.9239  210.6124  327.6735 C   0  0  0  0  0  0  0  0  0  0  0  0
   97.3464  211.1383  327.4708 C   0  0  0  0  0  0  0  0  0  0  0  0
   97.5770  212.4417  328.2347 C   0  0  0  0  0  0  0  0  0  0  0  0
   98.7140  213.2520  327.6072 C   0  0  0  0  0  0  0  0  0  0  0  0
   99.0207  214.5453  328.3677 C   0  0  0  0  0  0  0  0  0  0  0  0
   98.2589  215.7570  327.8210 C   0  0  0  0  0  0  0  0  0  0  0  0
   96.7813  215.7648  328.2279 C   0  0  0  0  0  0  0  0  0  0  0  0
   96.1665  217.1617  328.3685 C   0  0  0  0  0  0  0  0  0  0  0  0
   94.7390  217.3130  327.8178 C   0  0  0  0  0  0  0  0  0  0  0  0
   94.4708  216.5578  326.5053 C   0  0  1  0  0  0  0  0  0  0  0  0
   93.3076  217.1450  325.8923 O   0  0  0  0  0  0  0  0  0  0  0  0
   95.6225  216.6851  325.4735 C   0  0  1  0  0  0  0  0  0  0  0  0
   96.7479  215.9831  326.0419 O   0  0  0  0  0  0  0  0  0  0  0  0
   95.2534  216.2524  324.0175 C   0  0  2  0  0  0  0  0  0  0  0  0
   95.9347  217.1406  322.9534 C   0  0  0  0  0  0  0  0  0  0  0  0
   95.2854  218.4126  322.9430 O   0  0  0  0  0  0  0  0  0  0  0  0
   95.9556  219.4100  322.1631 C   0  0  2  0  0  0  0  0  0  0  0  0
   94.8527  221.3213  323.2959 O   0  0  0  0  0  0  0  0  0  0  0  0
   92.9944  221.5477  321.2719 O   0  0  0  0  0  0  0  0  0  0  0  0
   94.9948  218.5087  320.1580 C   0  0  2  0  0  0  0  0  0  0  0  0
   96.8090  217.8255  318.6924 O   0  0  0  0  0  0  0  0  0  0  0  0
   94.7611  220.6875  319.1047 O   0  0  0  0  0  0  0  0  0  0  0  0
   94.4916  220.5391  317.7111 C   0  0  0  0  0  0  0  0  0  0  0  0
   93.1243  221.0783  317.3673 C   0  0  0  0  0  0  0  0  0  0  0  0
   92.5475  222.0927  318.1476 C   0  0  0  0  0  0  0  0  0  0  0  0
   91.2921  222.6166  317.8249 C   0  0  0  0  0  0  0  0  0  0  0  0
   90.6657  223.8773  318.8262 Cl  0  0  0  0  0  0  0  0  0  0  0  0
   90.5944  222.1203  316.7186 C   0  0  0  0  0  0  0  0  0  0  0  0
   89.0414  222.7180  316.2576 Cl  0  0  0  0  0  0  0  0  0  0  0  0
   91.1565  221.1038  315.9424 C   0  0  0  0  0  0  0  0  0  0  0  0
   92.4141  220.5862  316.2644 C   0  0  0  0  0  0  0  0  0  0  0  0
   93.8024  216.2492  323.8038 N   0  0  0  0  0  0  0  0  0  0  0  0
   93.1890  215.3313  322.9764 C   0  0  0  0  0  0  0  0  0  0  0  0
   93.8131  214.5103  322.3137 O   0  0  0  0  0  0  0  0  0  0  0  0
   91.6782  215.4704  322.9399 C   0  0  0  0  0  0  0  0  0  0  0  0
   91.1241  215.2910  321.5266 C   0  0  0  0  0  0  0  0  0  0  0  0
   91.2475  216.5481  320.6591 C   0  0  0  0  0  0  0  0  0  0  0  0
   90.1574  216.7180  319.5935 C   0  0  0  0  0  0  0  0  0  0  0  0
   90.2458  215.6776  318.4748 C   0  0  0  0  0  0  0  0  0  0  0  0
   89.4688  216.0672  317.2130 C   0  0  0  0  0  0  0  0  0  0  0  0
   89.4778  215.0348  316.0798 C   0  0  0  0  0  0  0  0  0  0  0  0
   89.7148  215.6526  314.6990 C   0  0  0  0  0  0  0  0  0  0  0  0
   88.5624  216.5699  314.2852 C   0  0  0  0  0  0  0  0  0  0  0  0
   89.0426  217.8722  313.6358 C   0  0  0  0  0  0  0  0  0  0  0  0
   88.0155  219.0118  313.6062 C   0  0  0  0  0  0  0  0  0  0  0  0
   86.8203  218.8405  314.5472 C   0  0  0  0  0  0  0  0  0  0  0  0
   85.4746  219.0117  313.8412 C   0  0  0  0  0  0  0  0  0  0  0  0
   84.3154  219.0320  314.8401 C   0  0  0  0  0  0  0  0  0  0  0  0
   83.0911  219.7250  314.2394 C   0  0  0  0  0  0  0  0  0  0  0  0
   81.8787  219.7402  315.1736 C   0  0  0  0  0  0  0  0  0  0  0  0
   80.6173  220.4083  314.6170 C   0  0  0  0  0  0  0  0  0  0  0  0
   80.1898  219.9661  313.2143 C   0  0  0  0  0  0  0  0  0  0  0  0
   79.1490  218.8442  313.2207 C   0  0  0  0  0  0  0  0  0  0  0  0
   77.8929  219.2588  313.9911 C   0  0  0  0  0  0  0  0  0  0  0  0
   76.7817  218.2039  313.9430 C   0  0  0  0  0  0  0  0  0  0  0  0
   75.3998  218.7728  314.2764 C   0  0  0  0  0  0  0  0  0  0  0  0
   74.2469  217.9243  313.7313 C   0  0  0  0  0  0  0  0  0  0  0  0
   72.8551  218.2857  314.2549 C   0  0  0  0  0  0  0  0  0  0  0  0
   71.7379  217.4574  313.6376 C   0  0  0  0  0  0  0  0  0  0  0  0
  2  1  1  0
 30  1  1  0
  1 32  1  6
  3  2  1  0
  2 29  1  6
 27  3  1  0
  3 28  1  1
 27  4  1  0
  4 30  1  0
 30  5  1  6
  5 31  1  0
  7  6  1  0
  8  7  1  0
  9  8  1  0
 10  9  1  0
 11 10  1  0
 12 11  1  0
 13 12  1  0
 14 13  1  0
 15 14  1  0
 16 15  1  0
 17 16  1  0
 18 17  1  0
 19 18  1  0
 20 19  1  0
 20 21  1  6
 22 20  1  0
 22 23  1  1
 24 22  1  0
 24 25  1  6
 24 42  1  0
 26 25  1  0
 27 26  1  1
 32 33  1  0
 33 34  1  0
 34 35  2  0
 34 41  1  0
 35 36  1  0
 36 37  1  0
 36 38  2  0
 38 39  1  0
 38 40  1  0
 40 41  2  0
 42 43  1  0
 43 44  2  0
 43 45  1  0
 45 46  1  0
 46 47  1  0
 47 48  1  0
 48 49  1  0
 49 50  1  0
 50 51  1  0
 51 52  1  0
 52 53  1  0
 53 54  1  0
 54 55  1  0
 55 56  1  0
 56 57  1  0
 57 58  1  0
 58 59  1  0
 59 60  1  0
 60 61  1  0
 61 62  1  0
 62 63  1  0
 63 64  1  0
 64 65  1  0
 65 66  1  0
 66 67  1  0
 67 68  1  0
 68 69  1  0
M  END
$$$$
