
     RDKit          3D

 69 70  0  0  0  0  0  0  0  0999 V2000
   92.1065  217.9271  321.1960 C   0  0  2  0  0  0  0  0  0  0  0  0
   92.0975  216.4794  321.7277 C   0  0  1  0  0  0  0  0  0  0  0  0
   93.3970  215.7698  321.3291 C   0  0  2  0  0  0  0  0  0  0  0  0
   93.5236  217.1424  319.3170 O   0  0  0  0  0  0  0  0  0  0  0  0
   92.4115  219.2565  319.0270 C   0  0  0  0  0  0  0  0  0  0  0  0
   97.9127  214.6964  335.8530 C   0  0  0  0  0  0  0  0  0  0  0  0
   97.3819  215.5374  334.7018 C   0  0  0  0  0  0  0  0  0  0  0  0
   97.7682  214.9344  333.3504 C   0  0  0  0  0  0  0  0  0  0  0  0
   97.5144  215.8737  332.1667 C   0  0  0  0  0  0  0  0  0  0  0  0
   97.9230  215.2656  330.8238 C   0  0  0  0  0  0  0  0  0  0  0  0
   97.6829  216.2384  329.6674 C   0  0  0  0  0  0  0  0  0  0  0  0
   98.0923  215.6076  328.3348 C   0  0  0  0  0  0  0  0  0  0  0  0
   96.8767  215.3098  327.4579 C   0  0  0  0  0  0  0  0  0  0  0  0
   95.9585  216.5306  327.3593 C   0  0  0  0  0  0  0  0  0  0  0  0
   94.9411  216.4266  326.2195 C   0  0  0  0  0  0  0  0  0  0  0  0
   93.5056  216.7165  326.6694 C   0  0  0  0  0  0  0  0  0  0  0  0
   92.4801  216.5317  325.5455 C   0  0  0  0  0  0  0  0  0  0  0  0
   93.0631  216.6169  324.1306 C   0  0  0  0  0  0  0  0  0  0  0  0
   92.0746  217.0467  323.0343 C   0  0  0  0  0  0  0  0  0  0  0  0
   92.6441  217.0197  321.6060 C   0  0  1  0  0  0  0  0  0  0  0  0
   92.9491  215.6503  321.2821 O   0  0  0  0  0  0  0  0  0  0  0  0
   91.6388  217.5117  320.5314 C   0  0  1  0  0  0  0  0  0  0  0  0
   92.4332  218.1023  319.4814 O   0  0  0  0  0  0  0  0  0  0  0  0
   90.6145  216.4354  320.0457 C   0  0  2  0  0  0  0  0  0  0  0  0
   91.2448  215.0285  319.9533 C   0  0  0  0  0  0  0  0  0  0  0  0
   92.4270  215.1141  319.1566 O   0  0  0  0  0  0  0  0  0  0  0  0
   93.5183  215.7902  319.7923 C   0  0  2  0  0  0  0  0  0  0  0  0
   93.4044  214.4402  321.8701 O   0  0  0  0  0  0  0  0  0  0  0  0
   91.9533  216.4007  323.1555 O   0  0  0  0  0  0  0  0  0  0  0  0
   92.3251  217.8677  319.6644 C   0  0  2  0  0  0  0  0  0  0  0  0
   93.7650  219.6952  318.9622 O   0  0  0  0  0  0  0  0  0  0  0  0
   93.1883  218.6738  321.7895 O   0  0  0  0  0  0  0  0  0  0  0  0
   92.8846  219.2461  323.0611 C   0  0  0  0  0  0  0  0  0  0  0  0
   92.5482  220.7113  322.9248 C   0  0  0  0  0  0  0  0  0  0  0  0
   91.9907  221.2009  321.7333 C   0  0  0  0  0  0  0  0  0  0  0  0
   91.6530  222.5515  321.6039 C   0  0  0  0  0  0  0  0  0  0  0  0
   90.9524  223.0655  320.1108 Cl  0  0  0  0  0  0  0  0  0  0  0  0
   91.8810  223.4308  322.6678 C   0  0  0  0  0  0  0  0  0  0  0  0
   91.4890  225.1103  322.5827 Cl  0  0  0  0  0  0  0  0  0  0  0  0
   92.4448  222.9540  323.8539 C   0  0  0  0  0  0  0  0  0  0  0  0
   92.7760  221.6023  323.9818 C   0  0  0  0  0  0  0  0  0  0  0  0
   90.0190  216.7966  318.7550 N   0  0  0  0  0  0  0  0  0  0  0  0
   89.0844  217.8049  318.6395 C   0  0  0  0  0  0  0  0  0  0  0  0
   88.6104  218.3881  319.6081 O   0  0  0  0  0  0  0  0  0  0  0  0
   88.6764  218.0849  317.2049 C   0  0  0  0  0  0  0  0  0  0  0  0
   87.1665  217.9520  317.0062 C   0  0  0  0  0  0  0  0  0  0  0  0
   86.5420  219.1396  316.2663 C   0  0  0  0  0  0  0  0  0  0  0  0
   85.0211  219.2757  316.4122 C   0  0  0  0  0  0  0  0  0  0  0  0
   84.2727  219.0802  315.0919 C   0  0  0  0  0  0  0  0  0  0  0  0
   83.1100  220.0587  314.8959 C   0  0  0  0  0  0  0  0  0  0  0  0
   83.5001  221.4823  314.4824 C   0  0  0  0  0  0  0  0  0  0  0  0
   82.2968  222.3655  314.1412 C   0  0  0  0  0  0  0  0  0  0  0  0
   82.6604  223.4460  313.1209 C   0  0  0  0  0  0  0  0  0  0  0  0
   84.0664  223.2653  312.5387 C   0  0  0  0  0  0  0  0  0  0  0  0
   84.3846  224.1225  311.3065 C   0  0  0  0  0  0  0  0  0  0  0  0
   85.8404  224.0761  310.8349 C   0  0  0  0  0  0  0  0  0  0  0  0
   86.6280  222.9138  311.4410 C   0  0  0  0  0  0  0  0  0  0  0  0
   86.4426  221.6280  310.6321 C   0  0  0  0  0  0  0  0  0  0  0  0
   86.6659  220.3954  311.5100 C   0  0  0  0  0  0  0  0  0  0  0  0
   87.8855  219.5665  311.0998 C   0  0  0  0  0  0  0  0  0  0  0  0
   87.6036  218.1087  310.7220 C   0  0  0  0  0  0  0  0  0  0  0  0
   88.8193  217.2821  310.2924 C   0  0  0  0  0  0  0  0  0  0  0  0
   88.6250  215.7749  310.4737 C   0  0  0  0  0  0  0  0  0  0  0  0
   88.4362  215.0750  309.1255 C   0  0  0  0  0  0  0  0  0  0  0  0
   86.9639  214.9248  308.7263 C   0  0  0  0  0  0  0  0  0  0  0  0
   86.5148  213.4641  308.6298 C   0  0  0  0  0  0  0  0  0  0  0  0
   85.0260  213.3075  308.3052 C   0  0  0  0  0  0  0  0  0  0  0  0
   84.4563  211.8978  308.4791 C   0  0  0  0  0  0  0  0  0  0  0  0
   82.9850  211.7852  308.1084 C   0  0  0  0  0  0  0  0  0  0  0  0
  2  1  1  0
 30  1  1  0
  1 32  1  1
  3  2  1  0
  2 29  1  1
 27  3  1  0
  3 28  1  6
 27  4  1  0
  4 30  1  0
 30  5  1  1
  5 31  1  0
  7  6  1  0
  8  7  1  0
  9  8  1  0
 10  9  1  0
 11 10  1  0
 12 11  1  0
 13 12  1  0
 14 13  1  0
 15 14  1  0
 16 15  1  0
 17 16  1  0
 18 17  1  0
 19 18  1  0
 20 19  1  0
 20 21  1  6
 22 20  1  0
 22 23  1  6
 24 22  1  0
 24 25  1  6
 24 42  1  0
 26 25  1  0
 27 26  1  6
 32 33  1  0
 33 34  1  0
 34 35  2  0
 34 41  1  0
 35 36  1  0
 36 37  1  0
 36 38  2  0
 38 39  1  0
 38 40  1  0
 40 41  2  0
 42 43  1  0
 43 44  2  0
 43 45  1  0
 45 46  1  0
 46 47  1  0
 47 48  1  0
 48 49  1  0
 49 50  1  0
 50 51  1  0
 51 52  1  0
 52 53  1  0
 53 54  1  0
 54 55  1  0
 55 56  1  0
 56 57  1  0
 57 58  1  0
 58 59  1  0
 59 60  1  0
 60 61  1  0
 61 62  1  0
 62 63  1  0
 63 64  1  0
 64 65  1  0
 65 66  1  0
 66 67  1  0
 67 68  1  0
 68 69  1  0
M  END
$$$$
