
     RDKit          3D

 69 70  0  0  0  0  0  0  0  0999 V2000
   94.7481  220.7270  320.6648 C   0  0  2  0  0  0  0  0  0  0  0  0
   93.3458  220.9471  321.2676 C   0  0  1  0  0  0  0  0  0  0  0  0
   93.4621  221.2168  322.7727 C   0  0  2  0  0  0  0  0  0  0  0  0
   95.4628  219.8248  322.8624 O   0  0  0  0  0  0  0  0  0  0  0  0
   96.8512  219.2955  320.9697 C   0  0  0  0  0  0  0  0  0  0  0  0
   83.3936  206.9521  330.8841 C   0  0  0  0  0  0  0  0  0  0  0  0
   84.8715  207.0615  330.5406 C   0  0  0  0  0  0  0  0  0  0  0  0
   85.2430  206.1295  329.3862 C   0  0  0  0  0  0  0  0  0  0  0  0
   84.9893  206.7381  328.0032 C   0  0  0  0  0  0  0  0  0  0  0  0
   86.2498  206.8027  327.1389 C   0  0  0  0  0  0  0  0  0  0  0  0
   85.9109  207.0107  325.6614 C   0  0  0  0  0  0  0  0  0  0  0  0
   86.4534  208.3523  325.1646 C   0  0  0  0  0  0  0  0  0  0  0  0
   86.9255  208.2643  323.7137 C   0  0  0  0  0  0  0  0  0  0  0  0
   88.4443  208.4296  323.6195 C   0  0  0  0  0  0  0  0  0  0  0  0
   88.9215  209.8310  324.0112 C   0  0  0  0  0  0  0  0  0  0  0  0
   90.4291  210.0260  323.8198 C   0  0  0  0  0  0  0  0  0  0  0  0
   90.8662  211.4860  323.9809 C   0  0  0  0  0  0  0  0  0  0  0  0
   92.3417  211.7486  323.6598 C   0  0  0  0  0  0  0  0  0  0  0  0
   92.7220  213.2254  323.4648 C   0  0  0  0  0  0  0  0  0  0  0  0
   92.1089  214.1904  324.4934 C   0  0  1  0  0  0  0  0  0  0  0  0
   91.9004  213.4549  325.7136 O   0  0  0  0  0  0  0  0  0  0  0  0
   93.0364  215.3815  324.8515 C   0  0  1  0  0  0  0  0  0  0  0  0
   94.2642  214.8000  325.3382 O   0  0  0  0  0  0  0  0  0  0  0  0
   93.2223  216.4370  323.7135 C   0  0  2  0  0  0  0  0  0  0  0  0
   93.6764  217.8092  324.2576 C   0  0  0  0  0  0  0  0  0  0  0  0
   93.4304  218.7968  323.2556 O   0  0  0  0  0  0  0  0  0  0  0  0
   94.1631  220.0145  323.4360 C   0  0  2  0  0  0  0  0  0  0  0  0
   92.1588  221.4710  323.3178 O   0  0  0  0  0  0  0  0  0  0  0  0
   92.6330  222.0382  320.6617 O   0  0  0  0  0  0  0  0  0  0  0  0
   95.4216  219.5699  321.4424 C   0  0  2  0  0  0  0  0  0  0  0  0
   97.4867  218.3454  321.8195 O   0  0  0  0  0  0  0  0  0  0  0  0
   95.5518  221.9151  320.8146 O   0  0  0  0  0  0  0  0  0  0  0  0
   96.2120  222.3372  319.6218 C   0  0  0  0  0  0  0  0  0  0  0  0
   95.2522  223.0483  318.6989 C   0  0  0  0  0  0  0  0  0  0  0  0
   94.5103  222.3219  317.7543 C   0  0  0  0  0  0  0  0  0  0  0  0
   93.6009  222.9664  316.9104 C   0  0  0  0  0  0  0  0  0  0  0  0
   92.7140  221.9938  315.7915 Cl  0  0  0  0  0  0  0  0  0  0  0  0
   93.4325  224.3525  316.9975 C   0  0  0  0  0  0  0  0  0  0  0  0
   92.3281  225.2173  315.9905 Cl  0  0  0  0  0  0  0  0  0  0  0  0
   94.1742  225.0847  317.9279 C   0  0  0  0  0  0  0  0  0  0  0  0
   95.0783  224.4365  318.7739 C   0  0  0  0  0  0  0  0  0  0  0  0
   92.0001  216.5994  322.9192 N   0  0  0  0  0  0  0  0  0  0  0  0
   92.0047  216.4933  321.5436 C   0  0  0  0  0  0  0  0  0  0  0  0
   92.9846  216.1222  320.9073 O   0  0  0  0  0  0  0  0  0  0  0  0
   90.6967  216.9204  320.9035 C   0  0  0  0  0  0  0  0  0  0  0  0
   89.4958  216.2241  321.5437 C   0  0  0  0  0  0  0  0  0  0  0  0
   88.9826  215.0275  320.7357 C   0  0  0  0  0  0  0  0  0  0  0  0
   88.5289  215.3488  319.3060 C   0  0  0  0  0  0  0  0  0  0  0  0
   87.9754  214.1296  318.5650 C   0  0  0  0  0  0  0  0  0  0  0  0
   87.1582  214.4887  317.3196 C   0  0  0  0  0  0  0  0  0  0  0  0
   85.7024  214.0084  317.3170 C   0  0  0  0  0  0  0  0  0  0  0  0
   84.8623  214.6265  316.1960 C   0  0  0  0  0  0  0  0  0  0  0  0
   84.6858  216.1341  316.3882 C   0  0  0  0  0  0  0  0  0  0  0  0
   83.6047  216.7270  315.4782 C   0  0  0  0  0  0  0  0  0  0  0  0
   83.3134  218.2189  315.6864 C   0  0  0  0  0  0  0  0  0  0  0  0
   82.7772  218.9589  314.4582 C   0  0  0  0  0  0  0  0  0  0  0  0
   83.8409  219.8071  313.7600 C   0  0  0  0  0  0  0  0  0  0  0  0
   83.2263  221.0377  313.0893 C   0  0  0  0  0  0  0  0  0  0  0  0
   84.3128  221.9257  312.4805 C   0  0  0  0  0  0  0  0  0  0  0  0
   83.7616  223.1631  311.7678 C   0  0  0  0  0  0  0  0  0  0  0  0
   82.4628  222.9559  310.9821 C   0  0  0  0  0  0  0  0  0  0  0  0
   82.6208  222.4023  309.5628 C   0  0  0  0  0  0  0  0  0  0  0  0
   82.8219  223.4894  308.5045 C   0  0  0  0  0  0  0  0  0  0  0  0
   83.0571  222.8785  307.1208 C   0  0  0  0  0  0  0  0  0  0  0  0
   82.1546  223.4781  306.0367 C   0  0  0  0  0  0  0  0  0  0  0  0
   82.5797  223.0872  304.6187 C   0  0  0  0  0  0  0  0  0  0  0  0
   84.0991  223.0107  304.4402 C   0  0  0  0  0  0  0  0  0  0  0  0
   84.7491  224.2278  303.7784 C   0  0  0  0  0  0  0  0  0  0  0  0
   86.2597  224.1114  303.6389 C   0  0  0  0  0  0  0  0  0  0  0  0
  2  1  1  0
 30  1  1  0
  1 32  1  1
  3  2  1  0
  2 29  1  6
 27  3  1  0
  3 28  1  1
 27  4  1  0
  4 30  1  0
 30  5  1  6
  5 31  1  0
  7  6  1  0
  8  7  1  0
  9  8  1  0
 10  9  1  0
 11 10  1  0
 12 11  1  0
 13 12  1  0
 14 13  1  0
 15 14  1  0
 16 15  1  0
 17 16  1  0
 18 17  1  0
 19 18  1  0
 20 19  1  0
 20 21  1  1
 22 20  1  0
 22 23  1  6
 24 22  1  0
 24 25  1  1
 24 42  1  0
 26 25  1  0
 27 26  1  6
 32 33  1  0
 33 34  1  0
 34 35  2  0
 34 41  1  0
 35 36  1  0
 36 37  1  0
 36 38  2  0
 38 39  1  0
 38 40  1  0
 40 41  2  0
 42 43  1  0
 43 44  2  0
 43 45  1  0
 45 46  1  0
 46 47  1  0
 47 48  1  0
 48 49  1  0
 49 50  1  0
 50 51  1  0
 51 52  1  0
 52 53  1  0
 53 54  1  0
 54 55  1  0
 55 56  1  0
 56 57  1  0
 57 58  1  0
 58 59  1  0
 59 60  1  0
 60 61  1  0
 61 62  1  0
 62 63  1  0
 63 64  1  0
 64 65  1  0
 65 66  1  0
 66 67  1  0
 67 68  1  0
 68 69  1  0
M  END
$$$$
