
     RDKit          3D

 69 70  0  0  0  0  0  0  0  0999 V2000
   94.8775  214.2681  326.3484 C   0  0  2  0  0  0  0  0  0  0  0  0
   95.2015  213.9697  324.8705 C   0  0  1  0  0  0  0  0  0  0  0  0
   96.3523  214.8663  324.3979 C   0  0  2  0  0  0  0  0  0  0  0  0
   95.6388  216.5973  325.9611 O   0  0  0  0  0  0  0  0  0  0  0  0
   94.2813  216.2102  327.9099 C   0  0  0  0  0  0  0  0  0  0  0  0
   86.5508  226.2451  311.2429 C   0  0  0  0  0  0  0  0  0  0  0  0
   86.6927  224.8250  310.7161 C   0  0  0  0  0  0  0  0  0  0  0  0
   86.5060  223.7977  311.8336 C   0  0  0  0  0  0  0  0  0  0  0  0
   86.6654  222.3479  311.3641 C   0  0  0  0  0  0  0  0  0  0  0  0
   86.5117  221.3329  312.4983 C   0  0  0  0  0  0  0  0  0  0  0  0
   87.8699  220.8506  313.0118 C   0  0  0  0  0  0  0  0  0  0  0  0
   87.7046  219.6250  313.9128 C   0  0  0  0  0  0  0  0  0  0  0  0
   89.0470  219.1529  314.4699 C   0  0  0  0  0  0  0  0  0  0  0  0
   88.9492  218.8683  315.9708 C   0  0  0  0  0  0  0  0  0  0  0  0
   90.2169  218.2295  316.5451 C   0  0  0  0  0  0  0  0  0  0  0  0
   91.2293  219.2603  317.0547 C   0  0  0  0  0  0  0  0  0  0  0  0
   91.1960  219.4255  318.5780 C   0  0  0  0  0  0  0  0  0  0  0  0
   92.0364  220.5910  319.1111 C   0  0  0  0  0  0  0  0  0  0  0  0
   92.1567  220.6720  320.6417 C   0  0  0  0  0  0  0  0  0  0  0  0
   93.5905  220.5460  321.1835 C   0  0  1  0  0  0  0  0  0  0  0  0
   93.5878  221.0195  322.5433 O   0  0  0  0  0  0  0  0  0  0  0  0
   94.1069  219.0836  321.2286 C   0  0  1  0  0  0  0  0  0  0  0  0
   95.5451  219.1646  321.1444 O   0  0  0  0  0  0  0  0  0  0  0  0
   93.5718  218.2327  322.4258 C   0  0  2  0  0  0  0  0  0  0  0  0
   94.6274  218.0637  323.5405 C   0  0  0  0  0  0  0  0  0  0  0  0
   94.7706  216.6706  323.8202 O   0  0  0  0  0  0  0  0  0  0  0  0
   95.9371  216.3395  324.5831 C   0  0  2  0  0  0  0  0  0  0  0  0
   96.6825  214.5481  323.0378 O   0  0  0  0  0  0  0  0  0  0  0  0
   95.5640  212.5990  324.6350 O   0  0  0  0  0  0  0  0  0  0  0  0
   94.5632  215.7794  326.4685 C   0  0  2  0  0  0  0  0  0  0  0  0
   94.3174  217.6294  328.0251 O   0  0  0  0  0  0  0  0  0  0  0  0
   96.0132  213.9636  327.1834 O   0  0  0  0  0  0  0  0  0  0  0  0
   96.0634  212.6140  327.6451 C   0  0  0  0  0  0  0  0  0  0  0  0
   94.6924  212.1353  328.0571 C   0  0  0  0  0  0  0  0  0  0  0  0
   94.5245  210.8497  328.5950 C   0  0  0  0  0  0  0  0  0  0  0  0
   93.2634  210.4042  329.0023 C   0  0  0  0  0  0  0  0  0  0  0  0
   93.1499  208.8161  329.6728 Cl  0  0  0  0  0  0  0  0  0  0  0  0
   92.1515  211.2418  328.8645 C   0  0  0  0  0  0  0  0  0  0  0  0
   90.5641  210.7620  329.3459 Cl  0  0  0  0  0  0  0  0  0  0  0  0
   92.3078  212.5192  328.3207 C   0  0  0  0  0  0  0  0  0  0  0  0
   93.5708  212.9635  327.9199 C   0  0  0  0  0  0  0  0  0  0  0  0
   93.1003  216.9150  321.9870 N   0  0  0  0  0  0  0  0  0  0  0  0
   92.2629  216.7646  320.9010 C   0  0  0  0  0  0  0  0  0  0  0  0
   91.3978  217.5824  320.6083 O   0  0  0  0  0  0  0  0  0  0  0  0
   92.4936  215.4728  320.1385 C   0  0  0  0  0  0  0  0  0  0  0  0
   91.1826  214.8623  319.6434 C   0  0  0  0  0  0  0  0  0  0  0  0
   89.9811  215.1919  320.5355 C   0  0  0  0  0  0  0  0  0  0  0  0
   88.6135  214.7958  319.9650 C   0  0  0  0  0  0  0  0  0  0  0  0
   88.0007  215.8772  319.0724 C   0  0  0  0  0  0  0  0  0  0  0  0
   87.4453  215.3379  317.7502 C   0  0  0  0  0  0  0  0  0  0  0  0
   86.9654  216.3949  316.7489 C   0  0  0  0  0  0  0  0  0  0  0  0
   88.0295  216.7799  315.7175 C   0  0  0  0  0  0  0  0  0  0  0  0
   87.8574  216.0023  314.4111 C   0  0  0  0  0  0  0  0  0  0  0  0
   88.6200  216.6308  313.2400 C   0  0  0  0  0  0  0  0  0  0  0  0
   87.8680  217.7299  312.4778 C   0  0  0  0  0  0  0  0  0  0  0  0
   87.1929  217.2814  311.1791 C   0  0  0  0  0  0  0  0  0  0  0  0
   85.6681  217.3864  311.2312 C   0  0  0  0  0  0  0  0  0  0  0  0
   85.0808  217.7126  309.8562 C   0  0  0  0  0  0  0  0  0  0  0  0
   83.5789  217.9845  309.9564 C   0  0  0  0  0  0  0  0  0  0  0  0
   82.9484  218.4238  308.6325 C   0  0  0  0  0  0  0  0  0  0  0  0
   81.4446  218.7138  308.6747 C   0  0  0  0  0  0  0  0  0  0  0  0
   81.0484  220.1932  308.6721 C   0  0  0  0  0  0  0  0  0  0  0  0
   82.0815  221.0985  307.9973 C   0  0  0  0  0  0  0  0  0  0  0  0
   81.4023  222.1963  307.1746 C   0  0  0  0  0  0  0  0  0  0  0  0
   82.1199  223.5478  307.2654 C   0  0  0  0  0  0  0  0  0  0  0  0
   82.0825  224.1531  308.6714 C   0  0  0  0  0  0  0  0  0  0  0  0
   82.5855  225.5991  308.7226 C   0  0  0  0  0  0  0  0  0  0  0  0
   82.5195  226.2739  310.0945 C   0  0  0  0  0  0  0  0  0  0  0  0
   83.5590  225.7575  311.0781 C   0  0  0  0  0  0  0  0  0  0  0  0
  2  1  1  0
 30  1  1  0
  1 32  1  1
  3  2  1  0
  2 29  1  1
 27  3  1  0
  3 28  1  6
 27  4  1  0
  4 30  1  0
 30  5  1  1
  5 31  1  0
  7  6  1  0
  8  7  1  0
  9  8  1  0
 10  9  1  0
 11 10  1  0
 12 11  1  0
 13 12  1  0
 14 13  1  0
 15 14  1  0
 16 15  1  0
 17 16  1  0
 18 17  1  0
 19 18  1  0
 20 19  1  0
 20 21  1  1
 22 20  1  0
 22 23  1  1
 24 22  1  0
 24 25  1  1
 24 42  1  0
 26 25  1  0
 27 26  1  6
 32 33  1  0
 33 34  1  0
 34 35  2  0
 34 41  1  0
 35 36  1  0
 36 37  1  0
 36 38  2  0
 38 39  1  0
 38 40  1  0
 40 41  2  0
 42 43  1  0
 43 44  2  0
 43 45  1  0
 45 46  1  0
 46 47  1  0
 47 48  1  0
 48 49  1  0
 49 50  1  0
 50 51  1  0
 51 52  1  0
 52 53  1  0
 53 54  1  0
 54 55  1  0
 55 56  1  0
 56 57  1  0
 57 58  1  0
 58 59  1  0
 59 60  1  0
 60 61  1  0
 61 62  1  0
 62 63  1  0
 63 64  1  0
 64 65  1  0
 65 66  1  0
 66 67  1  0
 67 68  1  0
 68 69  1  0
M  END
$$$$
