
     RDKit          3D

 69 70  0  0  0  0  0  0  0  0999 V2000
   94.0521  222.9253  321.3750 C   0  0  2  0  0  0  0  0  0  0  0  0
   93.3888  222.5815  322.7242 C   0  0  1  0  0  0  0  0  0  0  0  0
   94.4114  221.9162  323.6531 C   0  0  2  0  0  0  0  0  0  0  0  0
   95.5597  220.9844  321.7135 O   0  0  0  0  0  0  0  0  0  0  0  0
   95.3879  221.8461  319.4733 C   0  0  0  0  0  0  0  0  0  0  0  0
   78.1499  216.0016  318.1929 C   0  0  0  0  0  0  0  0  0  0  0  0
   79.5836  215.7500  317.7510 C   0  0  0  0  0  0  0  0  0  0  0  0
   79.7269  214.3798  317.0868 C   0  0  0  0  0  0  0  0  0  0  0  0
   81.0616  214.1900  316.3586 C   0  0  0  0  0  0  0  0  0  0  0  0
   82.1695  213.6610  317.2712 C   0  0  0  0  0  0  0  0  0  0  0  0
   83.3468  214.6349  317.3524 C   0  0  0  0  0  0  0  0  0  0  0  0
   84.6714  213.9042  317.1224 C   0  0  0  0  0  0  0  0  0  0  0  0
   85.6454  214.1310  318.2779 C   0  0  0  0  0  0  0  0  0  0  0  0
   87.0964  214.0424  317.7982 C   0  0  0  0  0  0  0  0  0  0  0  0
   87.6380  212.6102  317.7836 C   0  0  0  0  0  0  0  0  0  0  0  0
   89.0869  212.5124  318.2716 C   0  0  0  0  0  0  0  0  0  0  0  0
   89.4489  213.6029  319.2858 C   0  0  0  0  0  0  0  0  0  0  0  0
   90.7540  214.3472  318.9826 C   0  0  0  0  0  0  0  0  0  0  0  0
   91.0396  215.5679  319.8726 C   0  0  0  0  0  0  0  0  0  0  0  0
   92.4721  215.6403  320.4275 C   0  0  1  0  0  0  0  0  0  0  0  0
   93.2636  214.6641  319.7247 O   0  0  0  0  0  0  0  0  0  0  0  0
   93.1565  217.0127  320.1919 C   0  0  1  0  0  0  0  0  0  0  0  0
   92.8642  217.3761  318.8264 O   0  0  0  0  0  0  0  0  0  0  0  0
   92.8081  218.1123  321.2469 C   0  0  2  0  0  0  0  0  0  0  0  0
   93.9152  219.1830  321.3625 C   0  0  0  0  0  0  0  0  0  0  0  0
   93.9086  219.6983  322.6944 O   0  0  0  0  0  0  0  0  0  0  0  0
   94.9488  220.6455  322.9650 C   0  0  2  0  0  0  0  0  0  0  0  0
   93.8018  221.6451  324.9240 O   0  0  0  0  0  0  0  0  0  0  0  0
   92.8403  223.7281  323.3949 O   0  0  0  0  0  0  0  0  0  0  0  0
   94.6470  221.6196  320.7934 C   0  0  2  0  0  0  0  0  0  0  0  0
   96.6504  221.1870  319.4875 O   0  0  0  0  0  0  0  0  0  0  0  0
   95.1201  223.8751  321.5677 O   0  0  0  0  0  0  0  0  0  0  0  0
   95.3318  224.7589  320.4672 C   0  0  0  0  0  0  0  0  0  0  0  0
   94.0183  225.2760  319.9325 C   0  0  0  0  0  0  0  0  0  0  0  0
   93.5120  224.7951  318.7149 C   0  0  0  0  0  0  0  0  0  0  0  0
   92.2851  225.2490  318.2215 C   0  0  0  0  0  0  0  0  0  0  0  0
   91.7263  224.5891  316.7259 Cl  0  0  0  0  0  0  0  0  0  0  0  0
   91.5550  226.2012  318.9409 C   0  0  0  0  0  0  0  0  0  0  0  0
   90.0329  226.8078  318.3960 Cl  0  0  0  0  0  0  0  0  0  0  0  0
   92.0563  226.6928  320.1487 C   0  0  0  0  0  0  0  0  0  0  0  0
   93.2803  226.2327  320.6418 C   0  0  0  0  0  0  0  0  0  0  0  0
   92.5412  217.5321  322.5673 N   0  0  0  0  0  0  0  0  0  0  0  0
   92.1911  216.2069  322.7244 C   0  0  0  0  0  0  0  0  0  0  0  0
   91.0624  215.7848  322.4996 O   0  0  0  0  0  0  0  0  0  0  0  0
   93.3268  215.3423  323.2401 C   0  0  0  0  0  0  0  0  0  0  0  0
   92.8263  214.2485  324.1834 C   0  0  0  0  0  0  0  0  0  0  0  0
   92.1199  213.0965  323.4609 C   0  0  0  0  0  0  0  0  0  0  0  0
   91.6211  211.9634  324.3665 C   0  0  0  0  0  0  0  0  0  0  0  0
   90.1207  211.6985  324.2234 C   0  0  0  0  0  0  0  0  0  0  0  0
   89.6002  210.6019  325.1583 C   0  0  0  0  0  0  0  0  0  0  0  0
   88.6535  209.5778  324.5218 C   0  0  0  0  0  0  0  0  0  0  0  0
   87.2575  209.5703  325.1508 C   0  0  0  0  0  0  0  0  0  0  0  0
   86.1636  209.3930  324.0959 C   0  0  0  0  0  0  0  0  0  0  0  0
   84.8248  208.9506  324.6961 C   0  0  0  0  0  0  0  0  0  0  0  0
   83.5980  209.7433  324.2263 C   0  0  0  0  0  0  0  0  0  0  0  0
   82.9018  210.5739  325.3076 C   0  0  0  0  0  0  0  0  0  0  0  0
   81.7457  211.4143  324.7637 C   0  0  0  0  0  0  0  0  0  0  0  0
   80.4797  210.5745  324.5793 C   0  0  0  0  0  0  0  0  0  0  0  0
   80.0802  210.5085  323.1043 C   0  0  0  0  0  0  0  0  0  0  0  0
   79.6824  211.8655  322.5182 C   0  0  0  0  0  0  0  0  0  0  0  0
   80.4433  212.2966  321.2603 C   0  0  0  0  0  0  0  0  0  0  0  0
   79.8554  213.4881  320.4986 C   0  0  0  0  0  0  0  0  0  0  0  0
   80.4262  213.6501  319.0879 C   0  0  0  0  0  0  0  0  0  0  0  0
   80.0053  214.9861  318.4704 C   0  0  0  0  0  0  0  0  0  0  0  0
   79.9050  216.1190  319.4980 C   0  0  0  0  0  0  0  0  0  0  0  0
   80.6785  217.3741  319.0844 C   0  0  0  0  0  0  0  0  0  0  0  0
   79.8842  218.2975  318.1554 C   0  0  0  0  0  0  0  0  0  0  0  0
   80.4570  219.7051  317.9749 C   0  0  0  0  0  0  0  0  0  0  0  0
   79.6479  220.5750  317.0244 C   0  0  0  0  0  0  0  0  0  0  0  0
  2  1  1  0
 30  1  1  0
  1 32  1  1
  3  2  1  0
  2 29  1  1
 27  3  1  0
  3 28  1  1
 27  4  1  0
  4 30  1  0
 30  5  1  6
  5 31  1  0
  7  6  1  0
  8  7  1  0
  9  8  1  0
 10  9  1  0
 11 10  1  0
 12 11  1  0
 13 12  1  0
 14 13  1  0
 15 14  1  0
 16 15  1  0
 17 16  1  0
 18 17  1  0
 19 18  1  0
 20 19  1  0
 20 21  1  6
 22 20  1  0
 22 23  1  6
 24 22  1  0
 24 25  1  1
 24 42  1  0
 26 25  1  0
 27 26  1  6
 32 33  1  0
 33 34  1  0
 34 35  2  0
 34 41  1  0
 35 36  1  0
 36 37  1  0
 36 38  2  0
 38 39  1  0
 38 40  1  0
 40 41  2  0
 42 43  1  0
 43 44  2  0
 43 45  1  0
 45 46  1  0
 46 47  1  0
 47 48  1  0
 48 49  1  0
 49 50  1  0
 50 51  1  0
 51 52  1  0
 52 53  1  0
 53 54  1  0
 54 55  1  0
 55 56  1  0
 56 57  1  0
 57 58  1  0
 58 59  1  0
 59 60  1  0
 60 61  1  0
 61 62  1  0
 62 63  1  0
 63 64  1  0
 64 65  1  0
 65 66  1  0
 66 67  1  0
 67 68  1  0
 68 69  1  0
M  END
$$$$
