
     RDKit          3D

 69 70  0  0  0  0  0  0  0  0999 V2000
   99.1141  217.4756  323.2795 C   0  0  2  0  0  0  0  0  0  0  0  0
   99.0408  218.2608  321.9542 C   0  0  1  0  0  0  0  0  0  0  0  0
   98.8929  219.7593  322.2437 C   0  0  2  0  0  0  0  0  0  0  0  0
   97.7030  219.2379  324.3079 O   0  0  0  0  0  0  0  0  0  0  0  0
   97.8354  217.1372  325.4740 C   0  0  0  0  0  0  0  0  0  0  0  0
   85.0760  219.7798  309.7100 C   0  0  0  0  0  0  0  0  0  0  0  0
   83.6431  219.3849  310.0341 C   0  0  0  0  0  0  0  0  0  0  0  0
   83.3370  219.5786  311.5200 C   0  0  0  0  0  0  0  0  0  0  0  0
   83.6339  218.3401  312.3719 C   0  0  0  0  0  0  0  0  0  0  0  0
   85.0809  218.2880  312.8654 C   0  0  0  0  0  0  0  0  0  0  0  0
   85.2774  217.2004  313.9236 C   0  0  0  0  0  0  0  0  0  0  0  0
   86.7576  217.0547  314.2826 C   0  0  0  0  0  0  0  0  0  0  0  0
   87.0597  217.6341  315.6641 C   0  0  0  0  0  0  0  0  0  0  0  0
   87.8566  218.9361  315.5511 C   0  0  0  0  0  0  0  0  0  0  0  0
   88.1558  219.5771  316.9093 C   0  0  0  0  0  0  0  0  0  0  0  0
   89.1612  218.7752  317.7419 C   0  0  0  0  0  0  0  0  0  0  0  0
   90.4096  219.5844  318.1102 C   0  0  0  0  0  0  0  0  0  0  0  0
   90.6918  219.6715  319.6141 C   0  0  0  0  0  0  0  0  0  0  0  0
   91.7230  220.7326  320.0317 C   0  0  0  0  0  0  0  0  0  0  0  0
   93.1888  220.2744  319.9507 C   0  0  1  0  0  0  0  0  0  0  0  0
   93.8203  221.0134  318.8885 O   0  0  0  0  0  0  0  0  0  0  0  0
   94.0013  220.5745  321.2380 C   0  0  1  0  0  0  0  0  0  0  0  0
   93.4960  221.8267  321.7469 O   0  0  0  0  0  0  0  0  0  0  0  0
   94.0327  219.4124  322.2830 C   0  0  2  0  0  0  0  0  0  0  0  0
   95.2666  219.4919  323.2085 C   0  0  0  0  0  0  0  0  0  0  0  0
   96.4398  219.5350  322.3952 O   0  0  0  0  0  0  0  0  0  0  0  0
   97.6172  219.9757  323.0821 C   0  0  2  0  0  0  0  0  0  0  0  0
   98.8765  220.4886  321.0075 O   0  0  0  0  0  0  0  0  0  0  0  0
  100.1931  218.0688  321.1169 O   0  0  0  0  0  0  0  0  0  0  0  0
   97.8478  217.8166  324.1025 C   0  0  2  0  0  0  0  0  0  0  0  0
   96.5000  216.9812  325.9442 O   0  0  0  0  0  0  0  0  0  0  0  0
  100.2775  217.8712  324.0344 O   0  0  0  0  0  0  0  0  0  0  0  0
  101.5013  217.2929  323.5820 C   0  0  0  0  0  0  0  0  0  0  0  0
  101.4864  215.7941  323.7611 C   0  0  0  0  0  0  0  0  0  0  0  0
  101.2561  215.2357  325.0282 C   0  0  0  0  0  0  0  0  0  0  0  0
  101.2162  213.8490  325.2019 C   0  0  0  0  0  0  0  0  0  0  0  0
  100.9063  213.2465  326.7910 Cl  0  0  0  0  0  0  0  0  0  0  0  0
  101.4181  213.0042  324.1053 C   0  0  0  0  0  0  0  0  0  0  0  0
  101.3821  211.2832  324.2418 Cl  0  0  0  0  0  0  0  0  0  0  0  0
  101.6580  213.5514  322.8424 C   0  0  0  0  0  0  0  0  0  0  0  0
  101.6914  214.9380  322.6712 C   0  0  0  0  0  0  0  0  0  0  0  0
   93.9847  218.0979  321.6342 N   0  0  0  0  0  0  0  0  0  0  0  0
   93.7962  216.9359  322.3538 C   0  0  0  0  0  0  0  0  0  0  0  0
   93.5233  216.9292  323.5489 O   0  0  0  0  0  0  0  0  0  0  0  0
   94.0019  215.6785  321.5293 C   0  0  0  0  0  0  0  0  0  0  0  0
   92.7096  214.8748  321.3850 C   0  0  0  0  0  0  0  0  0  0  0  0
   91.9500  215.1694  320.0872 C   0  0  0  0  0  0  0  0  0  0  0  0
   90.5776  214.4954  319.9644 C   0  0  0  0  0  0  0  0  0  0  0  0
   89.8212  214.9031  318.6981 C   0  0  0  0  0  0  0  0  0  0  0  0
   88.3063  214.6947  318.7955 C   0  0  0  0  0  0  0  0  0  0  0  0
   87.8123  213.2671  318.5344 C   0  0  0  0  0  0  0  0  0  0  0  0
   86.3266  213.1969  318.1712 C   0  0  0  0  0  0  0  0  0  0  0  0
   85.4350  213.4523  319.3881 C   0  0  0  0  0  0  0  0  0  0  0  0
   84.7185  212.1887  319.8762 C   0  0  0  0  0  0  0  0  0  0  0  0
   83.6152  212.4174  320.9177 C   0  0  0  0  0  0  0  0  0  0  0  0
   83.8260  211.7122  322.2601 C   0  0  0  0  0  0  0  0  0  0  0  0
   82.5974  211.7764  323.1683 C   0  0  0  0  0  0  0  0  0  0  0  0
   82.6555  212.9837  324.1068 C   0  0  0  0  0  0  0  0  0  0  0  0
   81.9218  212.6910  325.4165 C   0  0  0  0  0  0  0  0  0  0  0  0
   80.3976  212.7523  325.2893 C   0  0  0  0  0  0  0  0  0  0  0  0
   79.6300  213.0029  326.5913 C   0  0  0  0  0  0  0  0  0  0  0  0
   78.4626  212.0523  326.8728 C   0  0  0  0  0  0  0  0  0  0  0  0
   78.8018  210.9547  327.8839 C   0  0  0  0  0  0  0  0  0  0  0  0
   77.6198  210.0034  328.0860 C   0  0  0  0  0  0  0  0  0  0  0  0
   77.9179  208.8753  329.0800 C   0  0  0  0  0  0  0  0  0  0  0  0
   77.1044  207.6068  328.8088 C   0  0  0  0  0  0  0  0  0  0  0  0
   77.9579  206.3352  328.7722 C   0  0  0  0  0  0  0  0  0  0  0  0
   77.1829  205.0226  328.6356 C   0  0  0  0  0  0  0  0  0  0  0  0
   78.0766  203.7974  328.5133 C   0  0  0  0  0  0  0  0  0  0  0  0
  2  1  1  0
 30  1  1  0
  1 32  1  1
  3  2  1  0
  2 29  1  1
 27  3  1  0
  3 28  1  6
 27  4  1  0
  4 30  1  0
 30  5  1  1
  5 31  1  0
  7  6  1  0
  8  7  1  0
  9  8  1  0
 10  9  1  0
 11 10  1  0
 12 11  1  0
 13 12  1  0
 14 13  1  0
 15 14  1  0
 16 15  1  0
 17 16  1  0
 18 17  1  0
 19 18  1  0
 20 19  1  0
 20 21  1  6
 22 20  1  0
 22 23  1  1
 24 22  1  0
 24 25  1  6
 24 42  1  0
 26 25  1  0
 27 26  1  6
 32 33  1  0
 33 34  1  0
 34 35  2  0
 34 41  1  0
 35 36  1  0
 36 37  1  0
 36 38  2  0
 38 39  1  0
 38 40  1  0
 40 41  2  0
 42 43  1  0
 43 44  2  0
 43 45  1  0
 45 46  1  0
 46 47  1  0
 47 48  1  0
 48 49  1  0
 49 50  1  0
 50 51  1  0
 51 52  1  0
 52 53  1  0
 53 54  1  0
 54 55  1  0
 55 56  1  0
 56 57  1  0
 57 58  1  0
 58 59  1  0
 59 60  1  0
 60 61  1  0
 61 62  1  0
 62 63  1  0
 63 64  1  0
 64 65  1  0
 65 66  1  0
 66 67  1  0
 67 68  1  0
 68 69  1  0
M  END
$$$$
