
     RDKit          3D

 69 70  0  0  0  0  0  0  0  0999 V2000
   93.7206  218.8663  327.4277 C   0  0  2  0  0  0  0  0  0  0  0  0
   92.7126  219.5260  326.4649 C   0  0  1  0  0  0  0  0  0  0  0  0
   91.6825  218.4901  325.9989 C   0  0  2  0  0  0  0  0  0  0  0  0
   93.3598  216.7326  326.2147 O   0  0  0  0  0  0  0  0  0  0  0  0
   95.3383  216.8847  327.5758 C   0  0  0  0  0  0  0  0  0  0  0  0
   85.6326  207.5226  322.6607 C   0  0  0  0  0  0  0  0  0  0  0  0
   84.6277  208.3862  321.9135 C   0  0  0  0  0  0  0  0  0  0  0  0
   85.3162  209.2462  320.8527 C   0  0  0  0  0  0  0  0  0  0  0  0
   84.3494  210.1382  320.0669 C   0  0  0  0  0  0  0  0  0  0  0  0
   84.9450  211.5041  319.7207 C   0  0  0  0  0  0  0  0  0  0  0  0
   84.3718  212.0546  318.4131 C   0  0  0  0  0  0  0  0  0  0  0  0
   85.4435  212.8149  317.6293 C   0  0  0  0  0  0  0  0  0  0  0  0
   86.7942  212.1025  317.6895 C   0  0  0  0  0  0  0  0  0  0  0  0
   87.8664  212.8941  316.9366 C   0  0  0  0  0  0  0  0  0  0  0  0
   89.2575  212.2608  317.0304 C   0  0  0  0  0  0  0  0  0  0  0  0
   90.2670  213.1398  317.7758 C   0  0  0  0  0  0  0  0  0  0  0  0
   90.5586  212.6400  319.1949 C   0  0  0  0  0  0  0  0  0  0  0  0
   91.5141  213.5281  319.9995 C   0  0  0  0  0  0  0  0  0  0  0  0
   91.8010  213.0581  321.4349 C   0  0  0  0  0  0  0  0  0  0  0  0
   92.3328  214.1510  322.3772 C   0  0  1  0  0  0  0  0  0  0  0  0
   92.6877  213.5207  323.6223 O   0  0  0  0  0  0  0  0  0  0  0  0
   93.6181  214.8451  321.8542 C   0  0  1  0  0  0  0  0  0  0  0  0
   93.4022  215.0779  320.4466 O   0  0  0  0  0  0  0  0  0  0  0  0
   94.0602  216.1079  322.6625 C   0  0  2  0  0  0  0  0  0  0  0  0
   92.8769  217.0543  322.9614 C   0  0  0  0  0  0  0  0  0  0  0  0
   93.1655  217.7743  324.1606 O   0  0  0  0  0  0  0  0  0  0  0  0
   92.4274  217.3317  325.3058 C   0  0  2  0  0  0  0  0  0  0  0  0
   90.7181  219.1219  325.1438 O   0  0  0  0  0  0  0  0  0  0  0  0
   92.0118  220.6356  327.0507 O   0  0  0  0  0  0  0  0  0  0  0  0
   94.3563  217.6600  326.6942 C   0  0  2  0  0  0  0  0  0  0  0  0
   94.6989  216.4419  328.7691 O   0  0  0  0  0  0  0  0  0  0  0  0
   93.0472  218.3871  328.6096 O   0  0  0  0  0  0  0  0  0  0  0  0
   92.6405  219.4120  329.5155 C   0  0  0  0  0  0  0  0  0  0  0  0
   91.3462  219.0430  330.1991 C   0  0  0  0  0  0  0  0  0  0  0  0
   91.3485  218.1516  331.2835 C   0  0  0  0  0  0  0  0  0  0  0  0
   90.1590  217.8210  331.9397 C   0  0  0  0  0  0  0  0  0  0  0  0
   90.2550  216.7326  333.2779 Cl  0  0  0  0  0  0  0  0  0  0  0  0
   88.9489  218.3741  331.5077 C   0  0  0  0  0  0  0  0  0  0  0  0
   87.4411  218.0142  332.2684 Cl  0  0  0  0  0  0  0  0  0  0  0  0
   88.9361  219.2543  330.4227 C   0  0  0  0  0  0  0  0  0  0  0  0
   90.1276  219.5871  329.7726 C   0  0  0  0  0  0  0  0  0  0  0  0
   95.1237  216.8474  321.9747 N   0  0  0  0  0  0  0  0  0  0  0  0
   95.0794  217.0960  320.6183 C   0  0  0  0  0  0  0  0  0  0  0  0
   95.8761  216.6073  319.8250 O   0  0  0  0  0  0  0  0  0  0  0  0
   93.9786  218.0617  320.2199 C   0  0  0  0  0  0  0  0  0  0  0  0
   93.7128  218.0322  318.7148 C   0  0  0  0  0  0  0  0  0  0  0  0
   92.5334  217.1365  318.3213 C   0  0  0  0  0  0  0  0  0  0  0  0
   92.2953  216.9923  316.8129 C   0  0  0  0  0  0  0  0  0  0  0  0
   91.1122  216.0815  316.4775 C   0  0  0  0  0  0  0  0  0  0  0  0
   90.8896  215.8954  314.9730 C   0  0  0  0  0  0  0  0  0  0  0  0
   89.4413  215.6392  314.5407 C   0  0  0  0  0  0  0  0  0  0  0  0
   88.9459  216.6172  313.4718 C   0  0  0  0  0  0  0  0  0  0  0  0
   87.9957  217.6625  314.0595 C   0  0  0  0  0  0  0  0  0  0  0  0
   87.0196  218.2287  313.0227 C   0  0  0  0  0  0  0  0  0  0  0  0
   86.1774  217.1879  312.2731 C   0  0  0  0  0  0  0  0  0  0  0  0
   84.8689  216.7874  312.9595 C   0  0  0  0  0  0  0  0  0  0  0  0
   83.8148  217.8949  312.9289 C   0  0  0  0  0  0  0  0  0  0  0  0
   82.5299  217.4666  313.6413 C   0  0  0  0  0  0  0  0  0  0  0  0
   81.4262  218.5074  313.4461 C   0  0  0  0  0  0  0  0  0  0  0  0
   81.9562  219.9304  313.2536 C   0  0  0  0  0  0  0  0  0  0  0  0
   80.8946  221.0329  313.1842 C   0  0  0  0  0  0  0  0  0  0  0  0
   81.4246  222.4653  313.0700 C   0  0  0  0  0  0  0  0  0  0  0  0
   81.6389  222.9214  311.6249 C   0  0  0  0  0  0  0  0  0  0  0  0
   83.0897  222.7071  311.1859 C   0  0  0  0  0  0  0  0  0  0  0  0
   83.3394  223.0932  309.7238 C   0  0  0  0  0  0  0  0  0  0  0  0
   84.3399  224.2420  309.5693 C   0  0  0  0  0  0  0  0  0  0  0  0
   85.0196  224.2738  308.1969 C   0  0  0  0  0  0  0  0  0  0  0  0
   86.0159  225.4147  307.9790 C   0  0  0  0  0  0  0  0  0  0  0  0
   87.3570  224.9553  307.4261 C   0  0  0  0  0  0  0  0  0  0  0  0
  2  1  1  0
 30  1  1  0
  1 32  1  1
  3  2  1  0
  2 29  1  1
 27  3  1  0
  3 28  1  6
 27  4  1  0
  4 30  1  0
 30  5  1  1
  5 31  1  0
  7  6  1  0
  8  7  1  0
  9  8  1  0
 10  9  1  0
 11 10  1  0
 12 11  1  0
 13 12  1  0
 14 13  1  0
 15 14  1  0
 16 15  1  0
 17 16  1  0
 18 17  1  0
 19 18  1  0
 20 19  1  0
 20 21  1  1
 22 20  1  0
 22 23  1  6
 24 22  1  0
 24 25  1  6
 24 42  1  0
 26 25  1  0
 27 26  1  6
 32 33  1  0
 33 34  1  0
 34 35  2  0
 34 41  1  0
 35 36  1  0
 36 37  1  0
 36 38  2  0
 38 39  1  0
 38 40  1  0
 40 41  2  0
 42 43  1  0
 43 44  2  0
 43 45  1  0
 45 46  1  0
 46 47  1  0
 47 48  1  0
 48 49  1  0
 49 50  1  0
 50 51  1  0
 51 52  1  0
 52 53  1  0
 53 54  1  0
 54 55  1  0
 55 56  1  0
 56 57  1  0
 57 58  1  0
 58 59  1  0
 59 60  1  0
 60 61  1  0
 61 62  1  0
 62 63  1  0
 63 64  1  0
 64 65  1  0
 65 66  1  0
 66 67  1  0
 67 68  1  0
 68 69  1  0
M  END
$$$$
