
     RDKit          3D

 69 70  0  0  0  0  0  0  0  0999 V2000
   90.5716  221.4147  314.8866 C   0  0  2  0  0  0  0  0  0  0  0  0
   90.0027  221.4887  316.3181 C   0  0  1  0  0  0  0  0  0  0  0  0
   90.7829  222.5248  317.1361 C   0  0  2  0  0  0  0  0  0  0  0  0
   92.7804  222.0538  315.8181 O   0  0  0  0  0  0  0  0  0  0  0  0
   92.7748  221.0549  313.6289 C   0  0  0  0  0  0  0  0  0  0  0  0
   90.6194  204.7801  326.1582 C   0  0  0  0  0  0  0  0  0  0  0  0
   91.1210  205.9484  325.3228 C   0  0  0  0  0  0  0  0  0  0  0  0
   91.5146  207.1333  326.2063 C   0  0  0  0  0  0  0  0  0  0  0  0
   92.2028  208.2665  325.4383 C   0  0  0  0  0  0  0  0  0  0  0  0
   92.2250  209.5853  326.2132 C   0  0  0  0  0  0  0  0  0  0  0  0
   93.3245  209.5961  327.2772 C   0  0  0  0  0  0  0  0  0  0  0  0
   93.9404  210.9910  327.4058 C   0  0  0  0  0  0  0  0  0  0  0  0
   93.7216  211.8199  326.1407 C   0  0  0  0  0  0  0  0  0  0  0  0
   94.3065  213.2257  326.2975 C   0  0  0  0  0  0  0  0  0  0  0  0
   94.1034  214.1025  325.0585 C   0  0  0  0  0  0  0  0  0  0  0  0
   93.9115  215.5841  325.3977 C   0  0  0  0  0  0  0  0  0  0  0  0
   93.6014  216.4420  324.1662 C   0  0  0  0  0  0  0  0  0  0  0  0
   93.2157  217.8917  324.4802 C   0  0  0  0  0  0  0  0  0  0  0  0
   92.6458  218.6937  323.2987 C   0  0  0  0  0  0  0  0  0  0  0  0
   93.6782  219.0882  322.2293 C   0  0  1  0  0  0  0  0  0  0  0  0
   94.0332  217.8967  321.5030 O   0  0  0  0  0  0  0  0  0  0  0  0
   93.1293  220.0935  321.1827 C   0  0  1  0  0  0  0  0  0  0  0  0
   93.7739  221.3538  321.4625 O   0  0  0  0  0  0  0  0  0  0  0  0
   93.2386  219.6223  319.6962 C   0  0  2  0  0  0  0  0  0  0  0  0
   93.5136  220.7954  318.7300 C   0  0  0  0  0  0  0  0  0  0  0  0
   92.4697  220.8333  317.7561 O   0  0  0  0  0  0  0  0  0  0  0  0
   92.2701  222.1187  317.1559 C   0  0  2  0  0  0  0  0  0  0  0  0
   90.2162  222.6252  318.4510 O   0  0  0  0  0  0  0  0  0  0  0  0
   88.6078  221.8323  316.3569 O   0  0  0  0  0  0  0  0  0  0  0  0
   92.0830  221.0962  314.9935 C   0  0  2  0  0  0  0  0  0  0  0  0
   94.1449  220.6927  313.7720 O   0  0  0  0  0  0  0  0  0  0  0  0
   90.4117  222.6815  314.2161 O   0  0  0  0  0  0  0  0  0  0  0  0
   89.0963  222.9263  313.7196 C   0  0  0  0  0  0  0  0  0  0  0  0
   88.8308  222.1128  312.4761 C   0  0  0  0  0  0  0  0  0  0  0  0
   88.0991  220.9176  312.5559 C   0  0  0  0  0  0  0  0  0  0  0  0
   87.8265  220.1681  311.4076 C   0  0  0  0  0  0  0  0  0  0  0  0
   86.9015  218.7208  311.5930 Cl  0  0  0  0  0  0  0  0  0  0  0  0
   88.2951  220.6049  310.1639 C   0  0  0  0  0  0  0  0  0  0  0  0
   87.9972  219.7341  308.7030 Cl  0  0  0  0  0  0  0  0  0  0  0  0
   89.0328  221.7882  310.0767 C   0  0  0  0  0  0  0  0  0  0  0  0
   89.2986  222.5379  311.2258 C   0  0  0  0  0  0  0  0  0  0  0  0
   92.0374  218.8987  319.2667 N   0  0  0  0  0  0  0  0  0  0  0  0
   91.7358  217.6390  319.7418 C   0  0  0  0  0  0  0  0  0  0  0  0
   92.5928  216.8409  320.1042 O   0  0  0  0  0  0  0  0  0  0  0  0
   90.2497  217.3318  319.7291 C   0  0  0  0  0  0  0  0  0  0  0  0
   89.9697  215.8930  319.2952 C   0  0  0  0  0  0  0  0  0  0  0  0
   90.4270  214.8477  320.3181 C   0  0  0  0  0  0  0  0  0  0  0  0
   89.6742  213.5121  320.2708 C   0  0  0  0  0  0  0  0  0  0  0  0
   89.1191  213.0887  321.6326 C   0  0  0  0  0  0  0  0  0  0  0  0
   87.6767  213.5452  321.8750 C   0  0  0  0  0  0  0  0  0  0  0  0
   87.1288  213.3001  323.2857 C   0  0  0  0  0  0  0  0  0  0  0  0
   87.3413  211.8658  323.7776 C   0  0  0  0  0  0  0  0  0  0  0  0
   86.0270  211.2202  324.2209 C   0  0  0  0  0  0  0  0  0  0  0  0
   86.1985  209.7612  324.6573 C   0  0  0  0  0  0  0  0  0  0  0  0
   85.7677  208.7099  323.6261 C   0  0  0  0  0  0  0  0  0  0  0  0
   84.5241  207.8986  323.9987 C   0  0  0  0  0  0  0  0  0  0  0  0
   84.8588  206.5679  324.6738 C   0  0  0  0  0  0  0  0  0  0  0  0
   84.3478  205.3796  323.8560 C   0  0  0  0  0  0  0  0  0  0  0  0
   84.1298  204.1573  324.7495 C   0  0  0  0  0  0  0  0  0  0  0  0
   83.0837  204.3803  325.8445 C   0  0  0  0  0  0  0  0  0  0  0  0
   83.1768  203.4455  327.0547 C   0  0  0  0  0  0  0  0  0  0  0  0
   82.5587  202.0557  326.8754 C   0  0  0  0  0  0  0  0  0  0  0  0
   81.7017  201.6130  328.0635 C   0  0  0  0  0  0  0  0  0  0  0  0
   80.3171  202.2644  328.0208 C   0  0  0  0  0  0  0  0  0  0  0  0
   79.4866  201.9965  329.2809 C   0  0  0  0  0  0  0  0  0  0  0  0
   78.1357  202.7173  329.2732 C   0  0  0  0  0  0  0  0  0  0  0  0
   77.2809  202.4167  330.5083 C   0  0  0  0  0  0  0  0  0  0  0  0
   77.7786  203.0261  331.8209 C   0  0  0  0  0  0  0  0  0  0  0  0
   77.8991  202.0177  332.9538 C   0  0  0  0  0  0  0  0  0  0  0  0
  2  1  1  0
 30  1  1  0
  1 32  1  1
  3  2  1  0
  2 29  1  6
 27  3  1  0
  3 28  1  1
 27  4  1  0
  4 30  1  0
 30  5  1  6
  5 31  1  0
  7  6  1  0
  8  7  1  0
  9  8  1  0
 10  9  1  0
 11 10  1  0
 12 11  1  0
 13 12  1  0
 14 13  1  0
 15 14  1  0
 16 15  1  0
 17 16  1  0
 18 17  1  0
 19 18  1  0
 20 19  1  0
 20 21  1  6
 22 20  1  0
 22 23  1  6
 24 22  1  0
 24 25  1  6
 24 42  1  0
 26 25  1  0
 27 26  1  6
 32 33  1  0
 33 34  1  0
 34 35  2  0
 34 41  1  0
 35 36  1  0
 36 37  1  0
 36 38  2  0
 38 39  1  0
 38 40  1  0
 40 41  2  0
 42 43  1  0
 43 44  2  0
 43 45  1  0
 45 46  1  0
 46 47  1  0
 47 48  1  0
 48 49  1  0
 49 50  1  0
 50 51  1  0
 51 52  1  0
 52 53  1  0
 53 54  1  0
 54 55  1  0
 55 56  1  0
 56 57  1  0
 57 58  1  0
 58 59  1  0
 59 60  1  0
 60 61  1  0
 61 62  1  0
 62 63  1  0
 63 64  1  0
 64 65  1  0
 65 66  1  0
 66 67  1  0
 67 68  1  0
 68 69  1  0
M  END
$$$$
