
     RDKit          3D

 69 70  0  0  0  0  0  0  0  0999 V2000
   97.9585  216.9355  326.0358 C   0  0  2  0  0  0  0  0  0  0  0  0
   98.3689  216.3198  324.6827 C   0  0  1  0  0  0  0  0  0  0  0  0
   99.1376  217.3539  323.8513 C   0  0  2  0  0  0  0  0  0  0  0  0
   97.8642  219.1443  324.9104 O   0  0  0  0  0  0  0  0  0  0  0  0
   96.7218  218.9525  327.0195 C   0  0  0  0  0  0  0  0  0  0  0  0
   90.9716  205.0614  315.2395 C   0  0  0  0  0  0  0  0  0  0  0  0
   91.2080  206.3910  315.9397 C   0  0  0  0  0  0  0  0  0  0  0  0
   91.4792  206.1916  317.4316 C   0  0  0  0  0  0  0  0  0  0  0  0
   91.5516  207.5030  318.2206 C   0  0  0  0  0  0  0  0  0  0  0  0
   90.1729  208.0761  318.5537 C   0  0  0  0  0  0  0  0  0  0  0  0
   90.2440  209.5726  318.8650 C   0  0  0  0  0  0  0  0  0  0  0  0
   88.8983  210.0824  319.3849 C   0  0  0  0  0  0  0  0  0  0  0  0
   89.0088  211.5078  319.9249 C   0  0  0  0  0  0  0  0  0  0  0  0
   88.9149  212.5329  318.7920 C   0  0  0  0  0  0  0  0  0  0  0  0
   88.9985  213.9808  319.2835 C   0  0  0  0  0  0  0  0  0  0  0  0
   90.3640  214.3324  319.8827 C   0  0  0  0  0  0  0  0  0  0  0  0
   90.5065  215.8236  320.2064 C   0  0  0  0  0  0  0  0  0  0  0  0
   91.5421  216.1444  321.2898 C   0  0  0  0  0  0  0  0  0  0  0  0
   92.2518  217.5004  321.1435 C   0  0  0  0  0  0  0  0  0  0  0  0
   93.0472  217.9487  322.3810 C   0  0  1  0  0  0  0  0  0  0  0  0
   92.6229  217.1368  323.4919 O   0  0  0  0  0  0  0  0  0  0  0  0
   94.5778  217.7365  322.2412 C   0  0  1  0  0  0  0  0  0  0  0  0
   94.7557  216.3628  321.8368 O   0  0  0  0  0  0  0  0  0  0  0  0
   95.3077  218.7812  321.3359 C   0  0  2  0  0  0  0  0  0  0  0  0
   96.6977  219.1643  321.8896 C   0  0  0  0  0  0  0  0  0  0  0  0
   97.0288  218.2606  322.9448 O   0  0  0  0  0  0  0  0  0  0  0  0
   98.2362  218.5873  323.6432 C   0  0  2  0  0  0  0  0  0  0  0  0
   99.5604  216.7590  322.6153 O   0  0  0  0  0  0  0  0  0  0  0  0
   99.1854  215.1448  324.8188 O   0  0  0  0  0  0  0  0  0  0  0  0
   97.1387  218.2161  325.7441 C   0  0  2  0  0  0  0  0  0  0  0  0
   97.6822  219.9475  327.3606 O   0  0  0  0  0  0  0  0  0  0  0  0
   99.1277  217.2979  326.7984 O   0  0  0  0  0  0  0  0  0  0  0  0
   99.6275  216.2621  327.6434 C   0  0  0  0  0  0  0  0  0  0  0  0
   98.5203  215.3217  328.0539 C   0  0  0  0  0  0  0  0  0  0  0  0
   98.0469  215.3209  329.3753 C   0  0  0  0  0  0  0  0  0  0  0  0
   97.0057  214.4713  329.7614 C   0  0  0  0  0  0  0  0  0  0  0  0
   96.4704  214.5500  331.4019 Cl  0  0  0  0  0  0  0  0  0  0  0  0
   96.4331  213.6029  328.8259 C   0  0  0  0  0  0  0  0  0  0  0  0
   95.1441  212.5266  329.2279 Cl  0  0  0  0  0  0  0  0  0  0  0  0
   96.9049  213.5899  327.5110 C   0  0  0  0  0  0  0  0  0  0  0  0
   97.9420  214.4445  327.1271 C   0  0  0  0  0  0  0  0  0  0  0  0
   94.5008  219.9910  321.1446 N   0  0  0  0  0  0  0  0  0  0  0  0
   93.5578  220.0877  320.1422 C   0  0  0  0  0  0  0  0  0  0  0  0
   93.1170  219.1116  319.5457 O   0  0  0  0  0  0  0  0  0  0  0  0
   93.1584  221.5178  319.8287 C   0  0  0  0  0  0  0  0  0  0  0  0
   91.7237  221.6071  319.3087 C   0  0  0  0  0  0  0  0  0  0  0  0
   91.6302  222.0847  317.8557 C   0  0  0  0  0  0  0  0  0  0  0  0
   90.8416  221.1662  316.9138 C   0  0  0  0  0  0  0  0  0  0  0  0
   90.6587  221.7577  315.5144 C   0  0  0  0  0  0  0  0  0  0  0  0
   89.4464  221.1952  314.7651 C   0  0  0  0  0  0  0  0  0  0  0  0
   89.7037  219.9326  313.9345 C   0  0  0  0  0  0  0  0  0  0  0  0
   88.5429  219.5731  313.0031 C   0  0  0  0  0  0  0  0  0  0  0  0
   87.1915  219.9511  313.6131 C   0  0  0  0  0  0  0  0  0  0  0  0
   86.8115  219.0705  314.8084 C   0  0  0  0  0  0  0  0  0  0  0  0
   85.5382  219.4878  315.5560 C   0  0  0  0  0  0  0  0  0  0  0  0
   84.6225  218.3372  315.9820 C   0  0  0  0  0  0  0  0  0  0  0  0
   83.4858  218.7870  316.9009 C   0  0  0  0  0  0  0  0  0  0  0  0
   83.7322  218.3590  318.3493 C   0  0  0  0  0  0  0  0  0  0  0  0
   82.5621  217.5276  318.8779 C   0  0  0  0  0  0  0  0  0  0  0  0
   81.5290  218.3503  319.6518 C   0  0  0  0  0  0  0  0  0  0  0  0
   80.9293  217.6731  320.8883 C   0  0  0  0  0  0  0  0  0  0  0  0
   79.4971  218.0812  321.2457 C   0  0  0  0  0  0  0  0  0  0  0  0
   78.4343  217.3775  320.3986 C   0  0  0  0  0  0  0  0  0  0  0  0
   77.0344  217.5853  320.9820 C   0  0  0  0  0  0  0  0  0  0  0  0
   76.5883  216.4406  321.8984 C   0  0  0  0  0  0  0  0  0  0  0  0
   75.3168  216.7649  322.6877 C   0  0  0  0  0  0  0  0  0  0  0  0
   75.5859  217.1132  324.1548 C   0  0  0  0  0  0  0  0  0  0  0  0
   74.3579  217.5145  324.9750 C   0  0  0  0  0  0  0  0  0  0  0  0
   74.6788  217.8658  326.4202 C   0  0  0  0  0  0  0  0  0  0  0  0
  2  1  1  0
 30  1  1  0
  1 32  1  1
  3  2  1  0
  2 29  1  1
 27  3  1  0
  3 28  1  6
 27  4  1  0
  4 30  1  0
 30  5  1  1
  5 31  1  0
  7  6  1  0
  8  7  1  0
  9  8  1  0
 10  9  1  0
 11 10  1  0
 12 11  1  0
 13 12  1  0
 14 13  1  0
 15 14  1  0
 16 15  1  0
 17 16  1  0
 18 17  1  0
 19 18  1  0
 20 19  1  0
 20 21  1  1
 22 20  1  0
 22 23  1  6
 24 22  1  0
 24 25  1  1
 24 42  1  0
 26 25  1  0
 27 26  1  1
 32 33  1  0
 33 34  1  0
 34 35  2  0
 34 41  1  0
 35 36  1  0
 36 37  1  0
 36 38  2  0
 38 39  1  0
 38 40  1  0
 40 41  2  0
 42 43  1  0
 43 44  2  0
 43 45  1  0
 45 46  1  0
 46 47  1  0
 47 48  1  0
 48 49  1  0
 49 50  1  0
 50 51  1  0
 51 52  1  0
 52 53  1  0
 53 54  1  0
 54 55  1  0
 55 56  1  0
 56 57  1  0
 57 58  1  0
 58 59  1  0
 59 60  1  0
 60 61  1  0
 61 62  1  0
 62 63  1  0
 63 64  1  0
 64 65  1  0
 65 66  1  0
 66 67  1  0
 67 68  1  0
 68 69  1  0
M  END
$$$$
