
     RDKit          3D

 69 70  0  0  0  0  0  0  0  0999 V2000
   97.8244  213.6406  325.9426 C   0  0  2  0  0  0  0  0  0  0  0  0
   98.6423  214.4144  324.8887 C   0  0  1  0  0  0  0  0  0  0  0  0
   98.8171  215.8720  325.3319 C   0  0  2  0  0  0  0  0  0  0  0  0
   96.6768  215.7691  326.4971 O   0  0  0  0  0  0  0  0  0  0  0  0
   95.6010  213.7390  327.2124 C   0  0  0  0  0  0  0  0  0  0  0  0
   82.8956  218.3750  322.5040 C   0  0  0  0  0  0  0  0  0  0  0  0
   82.6274  218.7967  321.0671 C   0  0  0  0  0  0  0  0  0  0  0  0
   83.3547  217.8857  320.0770 C   0  0  0  0  0  0  0  0  0  0  0  0
   83.0878  218.2401  318.6104 C   0  0  0  0  0  0  0  0  0  0  0  0
   83.7301  217.2550  317.6320 C   0  0  0  0  0  0  0  0  0  0  0  0
   85.2332  217.5023  317.4875 C   0  0  0  0  0  0  0  0  0  0  0  0
   85.9318  216.2706  316.9080 C   0  0  0  0  0  0  0  0  0  0  0  0
   86.4128  215.3275  318.0102 C   0  0  0  0  0  0  0  0  0  0  0  0
   87.9241  215.4524  318.2188 C   0  0  0  0  0  0  0  0  0  0  0  0
   88.4652  214.4918  319.2816 C   0  0  0  0  0  0  0  0  0  0  0  0
   89.9884  214.5602  319.4312 C   0  0  0  0  0  0  0  0  0  0  0  0
   90.4523  215.7639  320.2587 C   0  0  0  0  0  0  0  0  0  0  0  0
   90.3591  215.5682  321.7760 C   0  0  0  0  0  0  0  0  0  0  0  0
   90.8601  216.7475  322.6256 C   0  0  0  0  0  0  0  0  0  0  0  0
   92.2648  217.2553  322.2594 C   0  0  1  0  0  0  0  0  0  0  0  0
   92.3475  218.6373  322.6549 O   0  0  0  0  0  0  0  0  0  0  0  0
   93.4036  216.5149  323.0093 C   0  0  1  0  0  0  0  0  0  0  0  0
   93.4008  215.1627  322.5057 O   0  0  0  0  0  0  0  0  0  0  0  0
   94.7953  217.2251  322.9600 C   0  0  2  0  0  0  0  0  0  0  0  0
   95.4723  217.2811  324.3470 C   0  0  0  0  0  0  0  0  0  0  0  0
   96.6618  216.4921  324.3018 O   0  0  0  0  0  0  0  0  0  0  0  0
   97.4219  216.5018  325.5161 C   0  0  2  0  0  0  0  0  0  0  0  0
   99.6217  216.5732  324.3722 O   0  0  0  0  0  0  0  0  0  0  0  0
   99.9426  213.8494  324.6533 O   0  0  0  0  0  0  0  0  0  0  0  0
   96.4809  214.3846  326.1393 C   0  0  2  0  0  0  0  0  0  0  0  0
   94.2780  214.2639  327.1586 O   0  0  0  0  0  0  0  0  0  0  0  0
   98.5265  213.6122  327.2021 O   0  0  0  0  0  0  0  0  0  0  0  0
   98.4865  212.3535  327.8736 C   0  0  0  0  0  0  0  0  0  0  0  0
   99.0564  211.2607  327.0021 C   0  0  0  0  0  0  0  0  0  0  0  0
   98.3414  210.0692  326.8039 C   0  0  0  0  0  0  0  0  0  0  0  0
   98.8482  209.0598  325.9799 C   0  0  0  0  0  0  0  0  0  0  0  0
   97.8934  207.6348  325.7744 Cl  0  0  0  0  0  0  0  0  0  0  0  0
  100.0866  209.2303  325.3518 C   0  0  0  0  0  0  0  0  0  0  0  0
  100.7758  208.0297  324.3198 Cl  0  0  0  0  0  0  0  0  0  0  0  0
  100.8097  210.4089  325.5516 C   0  0  0  0  0  0  0  0  0  0  0  0
  100.2975  211.4182  326.3714 C   0  0  0  0  0  0  0  0  0  0  0  0
   94.6944  218.5783  322.4036 N   0  0  0  0  0  0  0  0  0  0  0  0
   94.7808  218.8177  321.0476 C   0  0  0  0  0  0  0  0  0  0  0  0
   95.0599  217.9448  320.2334 O   0  0  0  0  0  0  0  0  0  0  0  0
   94.5386  220.2693  320.6769 C   0  0  0  0  0  0  0  0  0  0  0  0
   93.0614  220.5467  320.3983 C   0  0  0  0  0  0  0  0  0  0  0  0
   92.5661  219.9444  319.0793 C   0  0  0  0  0  0  0  0  0  0  0  0
   91.3019  220.5903  318.4983 C   0  0  0  0  0  0  0  0  0  0  0  0
   90.0166  219.8710  318.9135 C   0  0  0  0  0  0  0  0  0  0  0  0
   88.7399  220.5987  318.4799 C   0  0  0  0  0  0  0  0  0  0  0  0
   87.4410  219.7930  318.5988 C   0  0  0  0  0  0  0  0  0  0  0  0
   87.0219  219.1223  317.2878 C   0  0  0  0  0  0  0  0  0  0  0  0
   85.6818  219.6595  316.7817 C   0  0  0  0  0  0  0  0  0  0  0  0
   85.2945  219.0954  315.4105 C   0  0  0  0  0  0  0  0  0  0  0  0
   84.5777  220.0759  314.4729 C   0  0  0  0  0  0  0  0  0  0  0  0
   83.8124  219.4325  313.3136 C   0  0  0  0  0  0  0  0  0  0  0  0
   83.1654  220.4585  312.3823 C   0  0  0  0  0  0  0  0  0  0  0  0
   81.9385  219.8789  311.6747 C   0  0  0  0  0  0  0  0  0  0  0  0
   82.2438  219.5911  310.2037 C   0  0  0  0  0  0  0  0  0  0  0  0
   81.7969  220.7084  309.2575 C   0  0  0  0  0  0  0  0  0  0  0  0
   82.3867  220.6603  307.8444 C   0  0  0  0  0  0  0  0  0  0  0  0
   82.0123  221.8253  306.9235 C   0  0  0  0  0  0  0  0  0  0  0  0
   82.9430  221.9709  305.7173 C   0  0  0  0  0  0  0  0  0  0  0  0
   84.1321  222.8786  306.0419 C   0  0  0  0  0  0  0  0  0  0  0  0
   85.4137  222.4793  305.3019 C   0  0  0  0  0  0  0  0  0  0  0  0
   86.2144  221.3966  306.0307 C   0  0  0  0  0  0  0  0  0  0  0  0
   87.4673  220.9528  305.2692 C   0  0  0  0  0  0  0  0  0  0  0  0
   88.4034  222.0785  304.8237 C   0  0  0  0  0  0  0  0  0  0  0  0
   89.8068  221.9684  305.4010 C   0  0  0  0  0  0  0  0  0  0  0  0
  2  1  1  0
 30  1  1  0
  1 32  1  1
  3  2  1  0
  2 29  1  1
 27  3  1  0
  3 28  1  6
 27  4  1  0
  4 30  1  0
 30  5  1  1
  5 31  1  0
  7  6  1  0
  8  7  1  0
  9  8  1  0
 10  9  1  0
 11 10  1  0
 12 11  1  0
 13 12  1  0
 14 13  1  0
 15 14  1  0
 16 15  1  0
 17 16  1  0
 18 17  1  0
 19 18  1  0
 20 19  1  0
 20 21  1  1
 22 20  1  0
 22 23  1  6
 24 22  1  0
 24 25  1  1
 24 42  1  0
 26 25  1  0
 27 26  1  6
 32 33  1  0
 33 34  1  0
 34 35  2  0
 34 41  1  0
 35 36  1  0
 36 37  1  0
 36 38  2  0
 38 39  1  0
 38 40  1  0
 40 41  2  0
 42 43  1  0
 43 44  2  0
 43 45  1  0
 45 46  1  0
 46 47  1  0
 47 48  1  0
 48 49  1  0
 49 50  1  0
 50 51  1  0
 51 52  1  0
 52 53  1  0
 53 54  1  0
 54 55  1  0
 55 56  1  0
 56 57  1  0
 57 58  1  0
 58 59  1  0
 59 60  1  0
 60 61  1  0
 61 62  1  0
 62 63  1  0
 63 64  1  0
 64 65  1  0
 65 66  1  0
 66 67  1  0
 67 68  1  0
 68 69  1  0
M  END
$$$$
