
     RDKit          3D

 69 70  0  0  0  0  0  0  0  0999 V2000
   92.0202  214.5825  322.4299 C   0  0  2  0  0  0  0  0  0  0  0  0
   91.5174  214.6581  320.9739 C   0  0  1  0  0  0  0  0  0  0  0  0
   92.7100  214.6582  320.0101 C   0  0  2  0  0  0  0  0  0  0  0  0
   94.0687  215.7760  321.6993 O   0  0  0  0  0  0  0  0  0  0  0  0
   93.6039  215.7654  324.0602 C   0  0  0  0  0  0  0  0  0  0  0  0
   84.5921  219.7051  311.4489 C   0  0  0  0  0  0  0  0  0  0  0  0
   85.1091  220.9470  312.1591 C   0  0  0  0  0  0  0  0  0  0  0  0
   86.5659  221.2310  311.7899 C   0  0  0  0  0  0  0  0  0  0  0  0
   87.0051  222.6668  312.0948 C   0  0  0  0  0  0  0  0  0  0  0  0
   88.0296  222.7499  313.2278 C   0  0  0  0  0  0  0  0  0  0  0  0
   87.5625  223.6873  314.3433 C   0  0  0  0  0  0  0  0  0  0  0  0
   88.6277  224.7435  314.6451 C   0  0  0  0  0  0  0  0  0  0  0  0
   88.1699  225.7050  315.7411 C   0  0  0  0  0  0  0  0  0  0  0  0
   89.3302  226.0714  316.6699 C   0  0  0  0  0  0  0  0  0  0  0  0
   90.6113  225.2886  316.3683 C   0  0  0  0  0  0  0  0  0  0  0  0
   91.7937  225.7135  317.2451 C   0  0  0  0  0  0  0  0  0  0  0  0
   92.4589  224.5330  317.9612 C   0  0  0  0  0  0  0  0  0  0  0  0
   91.7526  223.1873  317.7627 C   0  0  0  0  0  0  0  0  0  0  0  0
   92.1724  222.0721  318.7342 C   0  0  0  0  0  0  0  0  0  0  0  0
   91.4811  220.7185  318.4994 C   0  0  1  0  0  0  0  0  0  0  0  0
   91.2447  220.5871  317.0851 O   0  0  0  0  0  0  0  0  0  0  0  0
   92.3498  219.5017  318.9144 C   0  0  1  0  0  0  0  0  0  0  0  0
   93.4111  219.4174  317.9404 O   0  0  0  0  0  0  0  0  0  0  0  0
   92.8307  219.5123  320.4018 C   0  0  2  0  0  0  0  0  0  0  0  0
   93.6001  218.2266  320.7764 C   0  0  0  0  0  0  0  0  0  0  0  0
   92.9221  217.1097  320.1996 O   0  0  0  0  0  0  0  0  0  0  0  0
   93.6128  215.8629  320.3432 C   0  0  2  0  0  0  0  0  0  0  0  0
   92.2340  214.6774  318.6560 O   0  0  0  0  0  0  0  0  0  0  0  0
   90.6432  213.5741  320.6189 O   0  0  0  0  0  0  0  0  0  0  0  0
   92.9900  215.7677  322.6582 C   0  0  2  0  0  0  0  0  0  0  0  0
   92.6035  215.5254  325.0452 O   0  0  0  0  0  0  0  0  0  0  0  0
   92.7354  213.3498  322.6513 O   0  0  0  0  0  0  0  0  0  0  0  0
   91.9730  212.1699  322.3994 C   0  0  0  0  0  0  0  0  0  0  0  0
   91.1959  211.7595  323.6267 C   0  0  0  0  0  0  0  0  0  0  0  0
   89.8600  212.1603  323.7845 C   0  0  0  0  0  0  0  0  0  0  0  0
   89.1229  211.7664  324.9053 C   0  0  0  0  0  0  0  0  0  0  0  0
   87.4789  212.2869  325.0098 Cl  0  0  0  0  0  0  0  0  0  0  0  0
   89.7226  210.9725  325.8888 C   0  0  0  0  0  0  0  0  0  0  0  0
   88.8762  210.4463  327.2988 Cl  0  0  0  0  0  0  0  0  0  0  0  0
   91.0549  210.5774  325.7448 C   0  0  0  0  0  0  0  0  0  0  0  0
   91.7870  210.9681  324.6202 C   0  0  0  0  0  0  0  0  0  0  0  0
   91.7138  219.7093  321.3317 N   0  0  0  0  0  0  0  0  0  0  0  0
   90.5345  220.3079  320.9388 C   0  0  0  0  0  0  0  0  0  0  0  0
   90.4702  221.1094  320.0134 O   0  0  0  0  0  0  0  0  0  0  0  0
   89.3441  219.9071  321.7905 C   0  0  0  0  0  0  0  0  0  0  0  0
   88.5550  218.7590  321.1614 C   0  0  0  0  0  0  0  0  0  0  0  0
   87.6383  218.0340  322.1525 C   0  0  0  0  0  0  0  0  0  0  0  0
   86.7860  216.9083  321.5533 C   0  0  0  0  0  0  0  0  0  0  0  0
   85.5452  216.5864  322.3892 C   0  0  0  0  0  0  0  0  0  0  0  0
   84.6659  215.4881  321.7826 C   0  0  0  0  0  0  0  0  0  0  0  0
   83.2683  215.3397  322.3950 C   0  0  0  0  0  0  0  0  0  0  0  0
   83.2633  214.5565  323.7107 C   0  0  0  0  0  0  0  0  0  0  0  0
   82.8559  213.0972  323.4978 C   0  0  0  0  0  0  0  0  0  0  0  0
   82.9850  212.2522  324.7696 C   0  0  0  0  0  0  0  0  0  0  0  0
   82.5019  210.8008  324.6484 C   0  0  0  0  0  0  0  0  0  0  0  0
   81.0542  210.5545  325.0807 C   0  0  0  0  0  0  0  0  0  0  0  0
   80.9317  209.5106  326.1916 C   0  0  0  0  0  0  0  0  0  0  0  0
   82.3046  209.0060  326.6415 C   0  0  0  0  0  0  0  0  0  0  0  0
   82.1637  207.9504  327.7393 C   0  0  0  0  0  0  0  0  0  0  0  0
   83.4834  207.2624  328.0977 C   0  0  0  0  0  0  0  0  0  0  0  0
   84.7567  208.0241  327.7159 C   0  0  0  0  0  0  0  0  0  0  0  0
   85.1059  208.0380  326.2248 C   0  0  0  0  0  0  0  0  0  0  0  0
   86.4006  207.2910  325.8961 C   0  0  0  0  0  0  0  0  0  0  0  0
   87.0763  207.8748  324.6527 C   0  0  0  0  0  0  0  0  0  0  0  0
   87.9209  206.8488  323.8889 C   0  0  0  0  0  0  0  0  0  0  0  0
   88.2559  207.2911  322.4618 C   0  0  0  0  0  0  0  0  0  0  0  0
   89.7603  207.3276  322.1755 C   0  0  0  0  0  0  0  0  0  0  0  0
   90.1505  207.6277  320.7266 C   0  0  0  0  0  0  0  0  0  0  0  0
   91.5580  208.1862  320.5777 C   0  0  0  0  0  0  0  0  0  0  0  0
  2  1  1  0
 30  1  1  0
  1 32  1  6
  3  2  1  0
  2 29  1  6
 27  3  1  0
  3 28  1  6
 27  4  1  0
  4 30  1  0
 30  5  1  1
  5 31  1  0
  7  6  1  0
  8  7  1  0
  9  8  1  0
 10  9  1  0
 11 10  1  0
 12 11  1  0
 13 12  1  0
 14 13  1  0
 15 14  1  0
 16 15  1  0
 17 16  1  0
 18 17  1  0
 19 18  1  0
 20 19  1  0
 20 21  1  6
 22 20  1  0
 22 23  1  6
 24 22  1  0
 24 25  1  1
 24 42  1  0
 26 25  1  0
 27 26  1  1
 32 33  1  0
 33 34  1  0
 34 35  2  0
 34 41  1  0
 35 36  1  0
 36 37  1  0
 36 38  2  0
 38 39  1  0
 38 40  1  0
 40 41  2  0
 42 43  1  0
 43 44  2  0
 43 45  1  0
 45 46  1  0
 46 47  1  0
 47 48  1  0
 48 49  1  0
 49 50  1  0
 50 51  1  0
 51 52  1  0
 52 53  1  0
 53 54  1  0
 54 55  1  0
 55 56  1  0
 56 57  1  0
 57 58  1  0
 58 59  1  0
 59 60  1  0
 60 61  1  0
 61 62  1  0
 62 63  1  0
 63 64  1  0
 64 65  1  0
 65 66  1  0
 66 67  1  0
 67 68  1  0
 68 69  1  0
M  END
$$$$
