
     RDKit          3D

116123  0  0  0  0  0  0  0  0999 V2000
  -11.0750  103.3503    6.2202 N   0  0  0  0  0  0  0  0  0  0  0  0
  -11.7259  102.3559    5.6859 C   0  0  2  0  0  0  0  0  0  0  0  0
  -11.1245  101.1514    5.0831 C   0  0  0  0  0  0  0  0  0  0  0  0
  -11.6856  100.8326    3.9645 O   0  0  0  0  0  0  0  0  0  0  0  0
  -10.0946  100.3361    5.5084 N   0  0  0  0  0  0  0  0  0  0  0  0
   -8.7072  100.6434    5.7948 C   0  0  2  0  0  0  0  0  0  0  0  0
   -8.4431  100.7187    7.2446 C   0  0  0  0  0  0  0  0  0  0  0  0
   -9.4991  100.6316    7.9818 O   0  0  0  0  0  0  0  0  0  0  0  0
   -8.1484  101.8083    5.0571 C   0  0  0  0  0  0  0  0  0  0  0  0
   -7.6737  101.4431    3.6694 C   0  0  0  0  0  0  0  0  0  0  0  0
   -7.4007   99.9882    3.4876 C   0  0  0  0  0  0  0  0  0  0  0  0
   -6.9629   99.4759    4.7928 N   0  0  0  0  0  0  0  0  0  0  0  0
   -5.9799   98.4518    4.8747 C   0  0  0  0  0  0  0  0  0  0  0  0
   -5.2747   98.4097    5.9735 N   0  0  0  0  0  0  0  0  0  0  0  0
   -5.7913   97.5349    3.8138 N   0  0  0  0  0  0  0  0  0  0  0  0
   -7.2224  100.8691    7.8901 N   0  0  0  0  0  0  0  0  0  0  0  0
   -6.0035  100.0867    7.6997 C   0  0  2  0  0  0  0  0  0  0  0  0
   -5.9378   98.9937    8.6926 C   0  0  0  0  0  0  0  0  0  0  0  0
   -5.3963   99.3011    9.8195 O   0  0  0  0  0  0  0  0  0  0  0  0
   -4.7900  100.9959    7.9831 C   0  0  0  0  0  0  0  0  0  0  0  0
   -5.2341  102.4613    8.9204 S   0  0  0  0  0  0  0  0  0  0  0  0
   -6.3916   97.6716    8.5634 N   0  0  0  0  0  0  0  0  0  0  0  0
   -6.0638   96.6824    7.5644 C   0  0  2  0  0  0  0  0  0  0  0  0
   -4.6228   96.6540    7.1994 C   0  0  0  0  0  0  0  0  0  0  0  0
   -4.0489   97.7980    7.0497 O   0  0  0  0  0  0  0  0  0  0  0  0
   -6.9572   96.7945    6.3479 C   0  0  0  0  0  0  0  0  0  0  0  0
   -6.1567   97.3176    5.2174 C   0  0  0  0  0  0  0  0  0  0  0  0
   -5.1415   96.6488    4.6063 C   0  0  0  0  0  0  0  0  0  0  0  0
   -6.4361   98.5999    4.7372 C   0  0  0  0  0  0  0  0  0  0  0  0
   -4.4256   97.2035    3.5701 C   0  0  0  0  0  0  0  0  0  0  0  0
   -5.7302   99.1671    3.7028 C   0  0  0  0  0  0  0  0  0  0  0  0
   -4.7077   98.4714    3.1009 C   0  0  0  0  0  0  0  0  0  0  0  0
   -3.9694   99.0288    2.0403 O   0  0  0  0  0  0  0  0  0  0  0  0
   -3.8225   95.5316    6.9998 N   0  0  0  0  0  0  0  0  0  0  0  0
   -3.5754   94.4298    7.9269 C   0  0  2  0  0  0  0  0  0  0  0  0
   -2.1585   94.0427    7.7195 C   0  0  0  0  0  0  0  0  0  0  0  0
   -1.9612   93.0028    6.9996 O   0  0  0  0  0  0  0  0  0  0  0  0
   -4.4644   93.2874    7.4707 C   0  0  0  0  0  0  0  0  0  0  0  0
   -3.7065   92.3244    6.5606 C   0  0  0  0  0  0  0  0  0  0  0  0
   -2.2306   92.4353    6.9283 C   0  0  0  0  0  0  0  0  0  0  0  0
   -1.3541   92.2334    5.7192 C   0  0  0  0  0  0  0  0  0  0  0  0
   -0.0087   91.9988    6.1754 N   0  0  0  0  0  4  0  0  0  0  0  0
   -1.0241   94.6923    8.2245 N   0  0  0  0  0  0  0  0  0  0  0  0
   -0.7912   95.0978    9.6126 C   0  0  2  0  0  0  0  0  0  0  0  0
   -1.7053   94.4108   10.5354 C   0  0  0  0  0  0  0  0  0  0  0  0
   -1.8479   93.1661   10.1709 O   0  0  0  0  0  0  0  0  0  0  0  0
   -0.7421   96.5810    9.6927 C   0  0  0  0  0  0  0  0  0  0  0  0
   -0.2591   97.0045    8.4187 O   0  0  0  0  0  0  0  0  0  0  0  0
   -2.4103   94.7947   11.6512 N   0  0  0  0  0  0  0  0  0  0  0  0
   -1.9749   95.1646   13.0037 C   0  0  2  0  0  0  0  0  0  0  0  0
   -1.7388   96.6052   13.1267 C   0  0  0  0  0  0  0  0  0  0  0  0
   -2.5138   97.2892   12.3301 O   0  0  0  0  0  0  0  0  0  0  0  0
   -1.0750   94.2260   13.6689 C   0  0  0  0  0  0  0  0  0  0  0  0
   -1.4163   93.5699   14.9327 C   0  0  0  0  0  0  0  0  0  0  0  0
   -2.6138   92.6887   14.9714 C   0  0  0  0  0  0  0  0  0  0  0  0
   -2.8511   92.2541   13.5845 N   0  0  0  0  0  0  0  0  0  0  0  0
   -3.3985   90.9671   13.3188 C   0  0  0  0  0  0  0  0  0  0  0  0
   -4.1385   90.3944   14.2353 N   0  0  0  0  0  0  0  0  0  0  0  0
   -3.1385   90.3356   12.0807 N   0  0  0  0  0  0  0  0  0  0  0  0
   -0.8727   97.3635   13.9077 N   0  0  0  0  0  0  0  0  0  0  0  0
   -0.7585   97.4083   15.3486 C   0  0  2  0  0  0  0  0  0  0  0  0
   -1.9843   97.3447   16.1304 C   0  0  0  0  0  0  0  0  0  0  0  0
   -2.6652   96.2590   15.9779 O   0  0  0  0  0  0  0  0  0  0  0  0
    0.1517   98.5621   15.7086 C   0  0  0  0  0  0  0  0  0  0  0  0
    1.1454   98.4295   14.5371 C   0  0  0  0  0  0  0  0  0  0  0  0
    0.1163   98.3326   13.4303 C   0  0  0  0  0  0  0  0  0  0  0  0
   -2.5875   98.2317   17.0324 N   0  0  0  0  0  0  0  0  0  0  0  0
   -3.0179   99.6028   16.8691 C   0  0  2  0  0  0  0  0  0  0  0  0
   -3.0544  100.1586   15.5518 C   0  0  0  0  0  0  0  0  0  0  0  0
   -3.0083   99.4333   14.4922 O   0  0  0  0  0  0  0  0  0  0  0  0
   -2.1955  100.2809   17.9189 C   0  0  0  0  0  0  0  0  0  0  0  0
   -2.1727   99.2141   19.0210 C   0  0  0  0  0  0  0  0  0  0  0  0
   -3.0038   98.0768   18.4642 C   0  0  0  0  0  0  0  0  0  0  0  0
   -3.1438  101.5388   15.3199 N   0  0  0  0  0  0  0  0  0  0  0  0
   -4.1981  102.4373   15.8191 C   0  0  2  0  0  0  0  0  0  0  0  0
   -5.4942  102.2086   15.2278 C   0  0  0  0  0  0  0  0  0  0  0  0
   -6.3866  101.6012   16.0098 O   0  0  0  0  0  0  0  0  0  0  0  0
   -3.7229  103.8013   16.1514 C   0  0  2  0  0  0  0  0  0  0  0  0
   -4.6249  104.6127   17.0328 C   0  0  0  0  0  0  0  0  0  0  0  0
   -3.5350  104.6655   14.8856 C   0  0  0  0  0  0  0  0  0  0  0  0
   -5.7659  103.7690   17.5853 C   0  0  0  0  0  0  0  0  0  0  0  0
   -6.0644  102.4754   13.9838 N   0  0  0  0  0  0  0  0  0  0  0  0
   -6.1680  103.6187   13.1671 C   0  0  2  0  0  0  0  0  0  0  0  0
   -7.4507  103.8654   12.4788 C   0  0  0  0  0  0  0  0  0  0  0  0
   -7.2787  104.3744   11.3039 O   0  0  0  0  0  0  0  0  0  0  0  0
   -5.0973  103.4113   12.0593 C   0  0  0  0  0  0  0  0  0  0  0  0
   -5.6948  102.1340   10.9285 S   0  0  0  0  0  0  0  0  0  0  0  0
   -8.7693  103.6560   12.8502 N   0  0  0  0  0  0  0  0  0  0  0  0
   -9.5442  104.0994   13.9647 C   0  0  2  0  0  0  0  0  0  0  0  0
  -10.4541  105.2303   13.8040 C   0  0  0  0  0  0  0  0  0  0  0  0
  -11.4292  105.2181   14.6904 O   0  0  0  0  0  0  0  0  0  0  0  0
   -8.6616  104.3360   15.1929 C   0  0  0  0  0  0  0  0  0  0  0  0
   -7.5773  105.2972   14.9158 C   0  0  0  0  0  0  0  0  0  0  0  0
   -7.1204  105.4671   13.6342 C   0  0  0  0  0  0  0  0  0  0  0  0
   -7.0153  106.0356   15.9262 C   0  0  0  0  0  0  0  0  0  0  0  0
   -6.1115  106.3622   13.3446 C   0  0  0  0  0  0  0  0  0  0  0  0
   -6.0094  106.9273   15.6322 C   0  0  0  0  0  0  0  0  0  0  0  0
   -5.5300  107.1161   14.3388 C   0  0  0  0  0  0  0  0  0  0  0  0
  -10.5335  106.3097   12.9473 N   0  0  0  0  0  0  0  0  0  0  0  0
  -10.7735  106.3380   11.4963 C   0  0  2  0  0  0  0  0  0  0  0  0
  -11.0468  105.0309   10.9367 C   0  0  0  0  0  0  0  0  0  0  0  0
  -11.6629  104.2638   11.8102 O   0  0  0  0  0  0  0  0  0  0  0  0
   -9.6317  107.1258   11.0005 C   0  0  0  0  0  0  0  0  0  0  0  0
   -9.2317  107.9816   12.2174 C   0  0  0  0  0  0  0  0  0  0  0  0
  -10.4331  107.7874   13.1627 C   0  0  0  0  0  0  0  0  0  0  0  0
  -10.7774  104.4662    9.6778 N   0  0  0  0  0  0  0  0  0  0  0  0
  -11.3484  104.6408    8.4013 C   0  0  2  0  0  0  0  0  0  0  0  0
  -10.5083  103.8624    7.3669 C   0  0  0  0  0  0  0  0  0  0  0  0
   -9.2969  103.7667    7.6974 O   0  0  0  0  0  0  0  0  0  0  0  0
  -11.5612  106.0200    7.8839 C   0  0  0  0  0  0  0  0  0  0  0  0
  -12.3289  106.1382    6.6427 C   0  0  0  0  0  0  0  0  0  0  0  0
  -13.1060  105.2350    6.2940 O   0  0  0  0  0  0  0  0  0  0  0  0
  -12.1883  107.2850    5.8333 N   0  0  0  0  0  0  0  0  0  0  0  0
  -11.4047  103.4796    4.8096 O   0  0  0  0  0  0  0  0  0  0  0  0
   -5.2852   97.5692    6.5874 H   0  0  0  0  0  0  0  0  0  0  0  0
   -4.9197   89.7587   13.9696 H   0  0  0  0  0  0  0  0  0  0  0  0
  1  2  1  0
  1108  1  0
  1114  1  0
  2  3  1  0
  2114  1  6
  3  4  2  0
  3  5  1  0
  5  6  1  0
  6  7  1  0
  6  9  1  6
  7  8  2  0
  7 16  1  0
  9 10  1  0
 10 11  1  0
 11 12  1  0
 12 13  1  0
 13 14  2  0
 13 15  1  0
 17 16  1  1
 17 18  1  0
 17 20  1  0
 18 19  2  0
 18 22  1  0
 20 21  1  0
 21 87  1  0
 22 23  1  0
 23 24  1  0
 23 26  1  6
 24 25  2  0
 24 34  1  0
 26 27  1  0
 27 28  2  0
 27 29  1  0
 28 30  1  0
 29 31  2  0
 30 32  2  0
 31 32  1  0
 32 33  1  0
 34 35  1  0
 35 36  1  0
 35 38  1  6
 36 37  2  0
 36 43  1  0
 38 39  1  0
 39 40  1  0
 40 41  1  0
 41 42  1  0
 43 44  1  0
 44 45  1  0
 44 47  1  6
 45 46  2  0
 45 49  1  0
 47 48  1  0
 49 50  1  0
 50 51  1  0
 50 53  1  6
 51 52  2  0
 51 60  1  0
 53 54  1  0
 54 55  1  0
 55 56  1  0
 56 57  1  0
 57 58  2  0
 57 59  1  0
 60 61  1  0
 60 66  1  0
 61 62  1  0
 61 64  1  6
 62 63  2  0
 62 67  1  0
 64 65  1  0
 65 66  1  0
 67 68  1  0
 67 73  1  0
 68 69  1  0
 68 71  1  1
 69 70  2  0
 69 74  1  0
 71 72  1  0
 72 73  1  0
 75 74  1  6
 75 76  1  0
 75 78  1  0
 76 77  2  0
 76 82  1  0
 78 79  1  0
 78 80  1  6
 79 81  1  0
 83 82  1  1
 83 84  1  0
 83 86  1  0
 84 85  2  0
 84 88  1  0
 86 87  1  0
 88 89  1  0
 89 90  1  0
 89 92  1  1
 90 91  2  0
 90 99  1  0
 92 93  1  0
 93 94  2  0
 93 95  1  0
 94 96  1  0
 95 97  2  0
 96 98  2  0
 97 98  1  0
 99100  1  0
 99105  1  0
100101  1  0
100103  1  6
101102  2  0
101106  1  0
103104  1  0
104105  1  0
106107  1  0
107108  1  0
107110  1  6
108109  2  0
110111  1  0
111112  2  0
111113  1  0
 14115  1  0
 58116  1  0
M  CHG  1  42   1
M  END
$$$$
