
     RDKit          3D

116123  0  0  0  0  0  0  0  0999 V2000
   -3.5044  109.6153   12.2924 N   0  0  0  0  0  0  0  0  0  0  0  0
   -2.6532  109.6584   11.3067 C   0  0  2  0  0  0  0  0  0  0  0  0
   -1.4797  108.7808   11.1368 C   0  0  0  0  0  0  0  0  0  0  0  0
   -0.4274  109.4364   10.7758 O   0  0  0  0  0  0  0  0  0  0  0  0
   -1.3305  107.4172   11.2943 N   0  0  0  0  0  0  0  0  0  0  0  0
   -1.5446  106.5742   12.4540 C   0  0  2  0  0  0  0  0  0  0  0  0
   -2.8091  105.8188   12.3654 C   0  0  0  0  0  0  0  0  0  0  0  0
   -3.5478  106.1370   11.3558 O   0  0  0  0  0  0  0  0  0  0  0  0
   -1.3801  107.2488   13.7698 C   0  0  0  0  0  0  0  0  0  0  0  0
   -1.0252  106.2829   14.8768 C   0  0  0  0  0  0  0  0  0  0  0  0
   -0.1872  105.1330   14.4299 C   0  0  0  0  0  0  0  0  0  0  0  0
    1.2128  105.5285   14.6334 N   0  0  0  0  0  0  0  0  0  0  0  0
    1.6694  105.9371   15.9164 C   0  0  0  0  0  0  0  0  0  0  0  0
    2.1743  107.1392   15.9980 N   0  0  0  0  0  0  0  0  0  0  0  0
    1.5720  105.0752   17.0342 N   0  0  0  0  0  0  0  0  0  0  0  0
   -3.2836  104.8322   13.2202 N   0  0  0  0  0  0  0  0  0  0  0  0
   -2.5888  103.6323   13.6801 C   0  0  2  0  0  0  0  0  0  0  0  0
   -2.9284  102.4824   12.8157 C   0  0  0  0  0  0  0  0  0  0  0  0
   -3.9851  101.8290   13.1531 O   0  0  0  0  0  0  0  0  0  0  0  0
   -3.1077  103.2768   15.0887 C   0  0  0  0  0  0  0  0  0  0  0  0
   -4.6755  104.0677   15.4625 S   0  0  0  0  0  0  0  0  0  0  0  0
   -2.2494  102.0179   11.6782 N   0  0  0  0  0  0  0  0  0  0  0  0
   -0.8683  101.6246   11.5306 C   0  0  2  0  0  0  0  0  0  0  0  0
   -0.3490  100.8214   12.6689 C   0  0  0  0  0  0  0  0  0  0  0  0
   -0.6851  101.2181   13.8480 O   0  0  0  0  0  0  0  0  0  0  0  0
    0.0222  102.8069   11.2150 C   0  0  0  0  0  0  0  0  0  0  0  0
    0.4128  103.4597   12.4854 C   0  0  0  0  0  0  0  0  0  0  0  0
    0.5846  102.8158   13.6716 C   0  0  0  0  0  0  0  0  0  0  0  0
    0.6078  104.8435   12.4936 C   0  0  0  0  0  0  0  0  0  0  0  0
    0.9317  103.4891   14.8206 C   0  0  0  0  0  0  0  0  0  0  0  0
    0.9550  105.5298   13.6331 C   0  0  0  0  0  0  0  0  0  0  0  0
    1.1227  104.8569   14.8209 C   0  0  0  0  0  0  0  0  0  0  0  0
    1.4779  105.5353   16.0017 O   0  0  0  0  0  0  0  0  0  0  0  0
    0.4601   99.6894   12.6061 N   0  0  0  0  0  0  0  0  0  0  0  0
    0.2058   98.4438   11.8863 C   0  0  2  0  0  0  0  0  0  0  0  0
    0.7541   97.3661   12.7455 C   0  0  0  0  0  0  0  0  0  0  0  0
    1.8991   96.9058   12.4051 O   0  0  0  0  0  0  0  0  0  0  0  0
    1.0278   98.5174   10.6126 C   0  0  0  0  0  0  0  0  0  0  0  0
    2.3547   99.2337   10.8497 C   0  0  0  0  0  0  0  0  0  0  0  0
    2.1383  100.1944   12.0142 C   0  0  0  0  0  0  0  0  0  0  0  0
    1.5437  101.4955   11.5402 C   0  0  0  0  0  0  0  0  0  0  0  0
    1.9266  102.5274   12.4684 N   0  0  0  0  0  4  0  0  0  0  0  0
    0.1547   96.8057   13.8814 N   0  0  0  0  0  0  0  0  0  0  0  0
   -1.2163   96.3018   13.9910 C   0  0  2  0  0  0  0  0  0  0  0  0
   -1.8145   96.0753   12.6681 C   0  0  0  0  0  0  0  0  0  0  0  0
   -0.9267   95.5568   11.8646 O   0  0  0  0  0  0  0  0  0  0  0  0
   -1.9814   97.1524   14.9395 C   0  0  0  0  0  0  0  0  0  0  0  0
   -2.0833   98.4226   14.2978 O   0  0  0  0  0  0  0  0  0  0  0  0
   -3.0602   96.2906   12.1283 N   0  0  0  0  0  0  0  0  0  0  0  0
   -4.3569   95.6475   12.3744 C   0  0  2  0  0  0  0  0  0  0  0  0
   -5.1148   96.3306   13.4255 C   0  0  0  0  0  0  0  0  0  0  0  0
   -4.8453   97.6070   13.4606 O   0  0  0  0  0  0  0  0  0  0  0  0
   -4.3754   94.1887   12.3028 C   0  0  0  0  0  0  0  0  0  0  0  0
   -5.1487   93.4600   11.2953 C   0  0  0  0  0  0  0  0  0  0  0  0
   -4.4115   92.6988   10.2517 C   0  0  0  0  0  0  0  0  0  0  0  0
   -3.4849   91.8069   10.9690 N   0  0  0  0  0  0  0  0  0  0  0  0
   -3.1255   90.5468   10.4127 C   0  0  0  0  0  0  0  0  0  0  0  0
   -4.0480   89.8349    9.8144 N   0  0  0  0  0  0  0  0  0  0  0  0
   -1.7911   90.0902   10.5123 N   0  0  0  0  0  0  0  0  0  0  0  0
   -6.0412   95.8935   14.3668 N   0  0  0  0  0  0  0  0  0  0  0  0
   -7.3030   95.2213   14.1495 C   0  0  2  0  0  0  0  0  0  0  0  0
   -8.1139   95.6458   13.0181 C   0  0  0  0  0  0  0  0  0  0  0  0
   -7.5562   95.4865   11.8652 O   0  0  0  0  0  0  0  0  0  0  0  0
   -8.0439   95.1826   15.4682 C   0  0  0  0  0  0  0  0  0  0  0  0
   -6.8309   94.9578   16.3931 C   0  0  0  0  0  0  0  0  0  0  0  0
   -5.9548   96.0522   15.8203 C   0  0  0  0  0  0  0  0  0  0  0  0
   -9.3981   96.1984   12.9188 N   0  0  0  0  0  0  0  0  0  0  0  0
   -9.9605   97.3993   13.4960 C   0  0  2  0  0  0  0  0  0  0  0  0
   -9.0804   98.3385   14.1196 C   0  0  0  0  0  0  0  0  0  0  0  0
   -7.8079   98.3193   13.9419 O   0  0  0  0  0  0  0  0  0  0  0  0
  -11.0889   96.8247   14.2928 C   0  0  0  0  0  0  0  0  0  0  0  0
  -11.5415   95.6716   13.3878 C   0  0  0  0  0  0  0  0  0  0  0  0
  -10.6267   95.7541   12.1835 C   0  0  0  0  0  0  0  0  0  0  0  0
   -9.5428   99.3515   14.9721 N   0  0  0  0  0  0  0  0  0  0  0  0
  -10.5403  100.3814   14.6367 C   0  0  2  0  0  0  0  0  0  0  0  0
  -10.0858  101.3455   13.6642 C   0  0  0  0  0  0  0  0  0  0  0  0
  -10.5961  101.2151   12.4398 O   0  0  0  0  0  0  0  0  0  0  0  0
  -11.4131  100.7697   15.7699 C   0  0  2  0  0  0  0  0  0  0  0  0
  -12.1458  102.0692   15.6170 C   0  0  0  0  0  0  0  0  0  0  0  0
  -10.6124  100.9259   17.0809 C   0  0  0  0  0  0  0  0  0  0  0  0
  -11.1965  103.2559   15.7145 C   0  0  0  0  0  0  0  0  0  0  0  0
   -9.2023  102.4237   13.6925 N   0  0  0  0  0  0  0  0  0  0  0  0
   -9.0450  103.5531   14.5198 C   0  0  2  0  0  0  0  0  0  0  0  0
   -8.7291  104.8447   13.8778 C   0  0  0  0  0  0  0  0  0  0  0  0
   -7.9237  105.5565   14.5945 O   0  0  0  0  0  0  0  0  0  0  0  0
   -7.8422  103.2040   15.4406 C   0  0  0  0  0  0  0  0  0  0  0  0
   -6.3304  103.2958   14.4539 S   0  0  0  0  0  0  0  0  0  0  0  0
   -9.1255  105.4178   12.6800 N   0  0  0  0  0  0  0  0  0  0  0  0
  -10.4074  105.7163   12.1259 C   0  0  2  0  0  0  0  0  0  0  0  0
  -10.9209  107.0816   12.1949 C   0  0  0  0  0  0  0  0  0  0  0  0
  -11.8146  107.3283   11.2584 O   0  0  0  0  0  0  0  0  0  0  0  0
  -11.4744  104.7515   12.6495 C   0  0  0  0  0  0  0  0  0  0  0  0
  -11.6086  103.5592   11.7913 C   0  0  0  0  0  0  0  0  0  0  0  0
  -10.4969  102.9934   11.2221 C   0  0  0  0  0  0  0  0  0  0  0  0
  -12.8372  102.9970   11.5536 C   0  0  0  0  0  0  0  0  0  0  0  0
  -10.5913  101.8754   10.4195 C   0  0  0  0  0  0  0  0  0  0  0  0
  -12.9264  101.8817   10.7526 C   0  0  0  0  0  0  0  0  0  0  0  0
  -11.8113  101.2908   10.1646 C   0  0  0  0  0  0  0  0  0  0  0  0
  -10.6954  108.1730   13.0095 N   0  0  0  0  0  0  0  0  0  0  0  0
   -9.4758  108.9772   13.1813 C   0  0  2  0  0  0  0  0  0  0  0  0
   -8.4054  108.5904   12.2863 C   0  0  0  0  0  0  0  0  0  0  0  0
   -8.8839  108.1406   11.1462 O   0  0  0  0  0  0  0  0  0  0  0  0
   -9.2675  108.9316   14.6390 C   0  0  0  0  0  0  0  0  0  0  0  0
  -10.6807  108.6710   15.1946 C   0  0  0  0  0  0  0  0  0  0  0  0
  -11.5690  108.9278   13.9619 C   0  0  0  0  0  0  0  0  0  0  0  0
   -7.0062  108.6107   12.4211 N   0  0  0  0  0  0  0  0  0  0  0  0
   -6.0509  109.6465   12.3984 C   0  0  2  0  0  0  0  0  0  0  0  0
   -4.6719  109.0634   12.7725 C   0  0  0  0  0  0  0  0  0  0  0  0
   -4.7568  108.0673   13.5382 O   0  0  0  0  0  0  0  0  0  0  0  0
   -6.2803  110.8635   13.2239 C   0  0  0  0  0  0  0  0  0  0  0  0
   -5.3587  111.9804   13.0067 C   0  0  0  0  0  0  0  0  0  0  0  0
   -4.9326  112.2335   11.8684 O   0  0  0  0  0  0  0  0  0  0  0  0
   -4.9488  112.7781   14.0955 N   0  0  0  0  0  0  0  0  0  0  0  0
   -2.3794  110.5231   12.4516 O   0  0  0  0  0  0  0  0  0  0  0  0
    1.8939  107.8867   15.3302 H   0  0  0  0  0  0  0  0  0  0  0  0
   -3.8024   88.9532    9.3172 H   0  0  0  0  0  0  0  0  0  0  0  0
  1  2  1  0
  1108  1  0
  1114  1  0
  2  3  1  0
  2114  1  1
  3  4  2  0
  3  5  1  0
  5  6  1  0
  6  7  1  0
  6  9  1  1
  7  8  2  0
  7 16  1  0
  9 10  1  0
 10 11  1  0
 11 12  1  0
 12 13  1  0
 13 14  2  0
 13 15  1  0
 17 16  1  6
 17 18  1  0
 17 20  1  0
 18 19  2  0
 18 22  1  0
 20 21  1  0
 21 87  1  0
 22 23  1  0
 23 24  1  0
 23 26  1  1
 24 25  2  0
 24 34  1  0
 26 27  1  0
 27 28  2  0
 27 29  1  0
 28 30  1  0
 29 31  2  0
 30 32  2  0
 31 32  1  0
 32 33  1  0
 34 35  1  0
 35 36  1  0
 35 38  1  6
 36 37  2  0
 36 43  1  0
 38 39  1  0
 39 40  1  0
 40 41  1  0
 41 42  1  0
 43 44  1  0
 44 45  1  0
 44 47  1  6
 45 46  2  0
 45 49  1  0
 47 48  1  0
 49 50  1  0
 50 51  1  0
 50 53  1  1
 51 52  2  0
 51 60  1  0
 53 54  1  0
 54 55  1  0
 55 56  1  0
 56 57  1  0
 57 58  2  0
 57 59  1  0
 60 61  1  0
 60 66  1  0
 61 62  1  0
 61 64  1  1
 62 63  2  0
 62 67  1  0
 64 65  1  0
 65 66  1  0
 67 68  1  0
 67 73  1  0
 68 69  1  0
 68 71  1  1
 69 70  2  0
 69 74  1  0
 71 72  1  0
 72 73  1  0
 75 74  1  1
 75 76  1  0
 75 78  1  0
 76 77  2  0
 76 82  1  0
 78 79  1  0
 78 80  1  1
 79 81  1  0
 83 82  1  6
 83 84  1  0
 83 86  1  0
 84 85  2  0
 84 88  1  0
 86 87  1  0
 88 89  1  0
 89 90  1  0
 89 92  1  1
 90 91  2  0
 90 99  1  0
 92 93  1  0
 93 94  2  0
 93 95  1  0
 94 96  1  0
 95 97  2  0
 96 98  2  0
 97 98  1  0
 99100  1  0
 99105  1  0
100101  1  0
100103  1  1
101102  2  0
101106  1  0
103104  1  0
104105  1  0
106107  1  0
107108  1  0
107110  1  1
108109  2  0
110111  1  0
111112  2  0
111113  1  0
 14115  1  0
 58116  1  0
M  CHG  1  42   1
M  END
$$$$
