
     RDKit          3D

116123  0  0  0  0  0  0  0  0999 V2000
   -9.9457   95.4912   10.9166 N   0  0  0  0  0  0  0  0  0  0  0  0
   -9.8217   94.5643   11.8241 C   0  0  2  0  0  0  0  0  0  0  0  0
   -8.5540   94.0930   12.4130 C   0  0  0  0  0  0  0  0  0  0  0  0
   -8.5053   92.8056   12.5018 O   0  0  0  0  0  0  0  0  0  0  0  0
   -7.4493   94.7830   12.8709 N   0  0  0  0  0  0  0  0  0  0  0  0
   -6.5598   95.6988   12.1844 C   0  0  2  0  0  0  0  0  0  0  0  0
   -6.8345   97.1060   12.5334 C   0  0  0  0  0  0  0  0  0  0  0  0
   -7.8817   97.2758   13.2688 O   0  0  0  0  0  0  0  0  0  0  0  0
   -6.4450   95.4928   10.7154 C   0  0  0  0  0  0  0  0  0  0  0  0
   -6.3748   94.0310   10.3380 C   0  0  0  0  0  0  0  0  0  0  0  0
   -5.0134   93.4370   10.4723 C   0  0  0  0  0  0  0  0  0  0  0  0
   -4.9603   92.2940    9.5512 N   0  0  0  0  0  0  0  0  0  0  0  0
   -3.8291   92.0922    8.7138 C   0  0  0  0  0  0  0  0  0  0  0  0
   -2.8012   91.4982    9.2587 N   0  0  0  0  0  0  0  0  0  0  0  0
   -3.8353   92.5167    7.3641 N   0  0  0  0  0  0  0  0  0  0  0  0
   -6.1161   98.2382   12.1714 N   0  0  0  0  0  0  0  0  0  0  0  0
   -4.6812   98.4743   12.3116 C   0  0  2  0  0  0  0  0  0  0  0  0
   -4.4026   99.1926   13.5730 C   0  0  0  0  0  0  0  0  0  0  0  0
   -4.4643  100.4767   13.5043 O   0  0  0  0  0  0  0  0  0  0  0  0
   -4.2271   99.4133   11.1750 C   0  0  0  0  0  0  0  0  0  0  0  0
   -5.5991  100.2932   10.4220 S   0  0  0  0  0  0  0  0  0  0  0  0
   -4.0841   98.6539   14.8296 N   0  0  0  0  0  0  0  0  0  0  0  0
   -3.0208   97.7495   15.1976 C   0  0  2  0  0  0  0  0  0  0  0  0
   -1.7200   98.0576   14.5470 C   0  0  0  0  0  0  0  0  0  0  0  0
   -1.7663   98.3731   13.2985 O   0  0  0  0  0  0  0  0  0  0  0  0
   -3.4231   96.3027   15.0090 C   0  0  0  0  0  0  0  0  0  0  0  0
   -3.0523   95.5443   16.2255 C   0  0  0  0  0  0  0  0  0  0  0  0
   -3.9287   95.1158   17.1740 C   0  0  0  0  0  0  0  0  0  0  0  0
   -1.7037   95.2508   16.4452 C   0  0  0  0  0  0  0  0  0  0  0  0
   -3.5120   94.4296   18.2918 C   0  0  0  0  0  0  0  0  0  0  0  0
   -1.2724   94.5661   17.5566 C   0  0  0  0  0  0  0  0  0  0  0  0
   -2.1775   94.1433   18.5020 C   0  0  0  0  0  0  0  0  0  0  0  0
   -1.7625   93.4406   19.6486 O   0  0  0  0  0  0  0  0  0  0  0  0
   -0.4565   98.0434   15.1332 N   0  0  0  0  0  0  0  0  0  0  0  0
   -0.0052   98.7820   16.3101 C   0  0  2  0  0  0  0  0  0  0  0  0
    1.4024   99.1576   16.0313 C   0  0  0  0  0  0  0  0  0  0  0  0
    2.2971   98.4331   16.5909 O   0  0  0  0  0  0  0  0  0  0  0  0
   -0.0270   97.7939   17.4620 C   0  0  0  0  0  0  0  0  0  0  0  0
    0.2141   96.3679   16.9739 C   0  0  0  0  0  0  0  0  0  0  0  0
   -0.1806   96.3304   15.5013 C   0  0  0  0  0  0  0  0  0  0  0  0
   -0.9452   97.5697   15.1133 C   0  0  0  0  0  0  0  0  0  0  0  0
   -0.7647   97.7836   13.7010 N   0  0  0  0  0  4  0  0  0  0  0  0
    1.8500  100.2129   15.2253 N   0  0  0  0  0  0  0  0  0  0  0  0
    1.4075  101.6081   15.2819 C   0  0  2  0  0  0  0  0  0  0  0  0
    0.7117  101.9020   16.5423 C   0  0  0  0  0  0  0  0  0  0  0  0
    1.3190  101.3062   17.5316 O   0  0  0  0  0  0  0  0  0  0  0  0
    0.6960  101.9526   14.0234 C   0  0  0  0  0  0  0  0  0  0  0  0
    0.9460  103.3434   13.8261 O   0  0  0  0  0  0  0  0  0  0  0  0
   -0.3987  102.6403   16.8761 N   0  0  0  0  0  0  0  0  0  0  0  0
   -0.6478  104.0872   16.8740 C   0  0  2  0  0  0  0  0  0  0  0  0
   -1.1996  104.5446   15.5964 C   0  0  0  0  0  0  0  0  0  0  0  0
   -1.9167  103.6174   15.0226 O   0  0  0  0  0  0  0  0  0  0  0  0
    0.3366  104.9104   17.5716 C   0  0  0  0  0  0  0  0  0  0  0  0
    1.3292  105.7205   16.8626 C   0  0  0  0  0  0  0  0  0  0  0  0
    1.1989  105.8686   15.3884 C   0  0  0  0  0  0  0  0  0  0  0  0
    0.6250  104.6050   14.8960 N   0  0  0  0  0  0  0  0  0  0  0  0
    0.4365  104.3973   13.5003 C   0  0  0  0  0  0  0  0  0  0  0  0
   -0.2830  103.3764   13.1056 N   0  0  0  0  0  0  0  0  0  0  0  0
    1.0216  105.2895   12.5724 N   0  0  0  0  0  0  0  0  0  0  0  0
   -1.1098  105.7436   14.8966 N   0  0  0  0  0  0  0  0  0  0  0  0
   -1.4888  107.0716   15.3254 C   0  0  2  0  0  0  0  0  0  0  0  0
   -2.6996  107.2100   16.1208 C   0  0  0  0  0  0  0  0  0  0  0  0
   -2.6746  106.5909   17.2529 O   0  0  0  0  0  0  0  0  0  0  0  0
   -1.4253  107.9862   14.1217 C   0  0  0  0  0  0  0  0  0  0  0  0
   -0.1856  107.3687   13.4440 C   0  0  0  0  0  0  0  0  0  0  0  0
   -0.6302  105.9232   13.5244 C   0  0  0  0  0  0  0  0  0  0  0  0
   -3.9067  107.8903   15.9101 N   0  0  0  0  0  0  0  0  0  0  0  0
   -4.8776  107.7899   14.8428 C   0  0  2  0  0  0  0  0  0  0  0  0
   -4.7681  106.7072   13.9148 C   0  0  0  0  0  0  0  0  0  0  0  0
   -4.0444  105.6700   14.1422 O   0  0  0  0  0  0  0  0  0  0  0  0
   -4.8681  109.1929   14.3233 C   0  0  0  0  0  0  0  0  0  0  0  0
   -4.6712  109.9930   15.6174 C   0  0  0  0  0  0  0  0  0  0  0  0
   -4.6169  108.9427   16.7073 C   0  0  0  0  0  0  0  0  0  0  0  0
   -5.4444  106.6981   12.6862 N   0  0  0  0  0  0  0  0  0  0  0  0
   -6.8985  106.8266   12.4937 C   0  0  2  0  0  0  0  0  0  0  0  0
   -7.6569  105.6955   12.9706 C   0  0  0  0  0  0  0  0  0  0  0  0
   -8.3301  105.8884   14.1048 O   0  0  0  0  0  0  0  0  0  0  0  0
   -7.2834  107.5608   11.2652 C   0  0  2  0  0  0  0  0  0  0  0  0
   -8.7119  107.4122   10.8336 C   0  0  0  0  0  0  0  0  0  0  0  0
   -6.4578  107.1031   10.0432 C   0  0  0  0  0  0  0  0  0  0  0  0
   -9.1902  105.9743   10.9851 C   0  0  0  0  0  0  0  0  0  0  0  0
   -7.8632  104.3931   12.5176 N   0  0  0  0  0  0  0  0  0  0  0  0
   -8.2524  103.8220   11.2900 C   0  0  2  0  0  0  0  0  0  0  0  0
   -9.2024  102.6921   11.3208 C   0  0  0  0  0  0  0  0  0  0  0  0
   -8.9446  101.8189   10.4044 O   0  0  0  0  0  0  0  0  0  0  0  0
   -6.9333  103.2819   10.6696 C   0  0  0  0  0  0  0  0  0  0  0  0
   -6.4409  101.8047   11.5875 S   0  0  0  0  0  0  0  0  0  0  0  0
  -10.2892  102.4031   12.1306 N   0  0  0  0  0  0  0  0  0  0  0  0
  -11.4852  103.1196   12.4395 C   0  0  2  0  0  0  0  0  0  0  0  0
  -12.7295  102.7694   11.7601 C   0  0  0  0  0  0  0  0  0  0  0  0
  -13.7942  103.1192   12.4536 O   0  0  0  0  0  0  0  0  0  0  0  0
  -11.2661  104.6313   12.3381 C   0  0  0  0  0  0  0  0  0  0  0  0
  -10.4380  104.9913   11.1715 C   0  0  0  0  0  0  0  0  0  0  0  0
   -9.3090  104.2695   10.8810 C   0  0  0  0  0  0  0  0  0  0  0  0
  -10.7827  106.0428   10.3606 C   0  0  0  0  0  0  0  0  0  0  0  0
   -8.5184  104.5798    9.7941 C   0  0  0  0  0  0  0  0  0  0  0  0
   -9.9910  106.3484    9.2774 C   0  0  0  0  0  0  0  0  0  0  0  0
   -8.8408  105.6294    8.9636 C   0  0  0  0  0  0  0  0  0  0  0  0
  -13.0552  102.1629   10.5637 N   0  0  0  0  0  0  0  0  0  0  0  0
  -12.8113  100.7830   10.1164 C   0  0  2  0  0  0  0  0  0  0  0  0
  -12.2189   99.9470   11.1394 C   0  0  0  0  0  0  0  0  0  0  0  0
  -12.6175  100.3150   12.3379 O   0  0  0  0  0  0  0  0  0  0  0  0
  -12.1128  100.9828    8.8348 C   0  0  0  0  0  0  0  0  0  0  0  0
  -12.5863  102.3774    8.3826 C   0  0  0  0  0  0  0  0  0  0  0  0
  -13.7644  102.6483    9.3383 C   0  0  0  0  0  0  0  0  0  0  0  0
  -11.3298   98.8599   11.0744 N   0  0  0  0  0  0  0  0  0  0  0  0
  -11.4815   97.5128   10.6891 C   0  0  2  0  0  0  0  0  0  0  0  0
  -10.0934   96.8387   10.6704 C   0  0  0  0  0  0  0  0  0  0  0  0
   -9.1636   97.6474   10.4106 O   0  0  0  0  0  0  0  0  0  0  0  0
  -12.1686   97.1976    9.4071 C   0  0  0  0  0  0  0  0  0  0  0  0
  -12.9590   95.9653    9.3781 C   0  0  0  0  0  0  0  0  0  0  0  0
  -13.4301   95.4942   10.4257 O   0  0  0  0  0  0  0  0  0  0  0  0
  -13.1898   95.3045    8.1534 N   0  0  0  0  0  0  0  0  0  0  0  0
   -9.8369   94.1245   10.4314 O   0  0  0  0  0  0  0  0  0  0  0  0
   -2.2901   90.7415    8.7591 H   0  0  0  0  0  0  0  0  0  0  0  0
    0.0971  102.4075   13.1489 H   0  0  0  0  0  0  0  0  0  0  0  0
  1  2  1  0
  1108  1  0
  1114  1  0
  2  3  1  0
  2114  1  6
  3  4  2  0
  3  5  1  0
  5  6  1  0
  6  7  1  0
  6  9  1  6
  7  8  2  0
  7 16  1  0
  9 10  1  0
 10 11  1  0
 11 12  1  0
 12 13  1  0
 13 14  2  0
 13 15  1  0
 17 16  1  6
 17 18  1  0
 17 20  1  0
 18 19  2  0
 18 22  1  0
 20 21  1  0
 21 87  1  0
 22 23  1  0
 23 24  1  0
 23 26  1  6
 24 25  2  0
 24 34  1  0
 26 27  1  0
 27 28  2  0
 27 29  1  0
 28 30  1  0
 29 31  2  0
 30 32  2  0
 31 32  1  0
 32 33  1  0
 34 35  1  0
 35 36  1  0
 35 38  1  1
 36 37  2  0
 36 43  1  0
 38 39  1  0
 39 40  1  0
 40 41  1  0
 41 42  1  0
 43 44  1  0
 44 45  1  0
 44 47  1  6
 45 46  2  0
 45 49  1  0
 47 48  1  0
 49 50  1  0
 50 51  1  0
 50 53  1  6
 51 52  2  0
 51 60  1  0
 53 54  1  0
 54 55  1  0
 55 56  1  0
 56 57  1  0
 57 58  2  0
 57 59  1  0
 60 61  1  0
 60 66  1  0
 61 62  1  0
 61 64  1  6
 62 63  2  0
 62 67  1  0
 64 65  1  0
 65 66  1  0
 67 68  1  0
 67 73  1  0
 68 69  1  0
 68 71  1  6
 69 70  2  0
 69 74  1  0
 71 72  1  0
 72 73  1  0
 75 74  1  6
 75 76  1  0
 75 78  1  0
 76 77  2  0
 76 82  1  0
 78 79  1  0
 78 80  1  6
 79 81  1  0
 83 82  1  1
 83 84  1  0
 83 86  1  0
 84 85  2  0
 84 88  1  0
 86 87  1  0
 88 89  1  0
 89 90  1  0
 89 92  1  6
 90 91  2  0
 90 99  1  0
 92 93  1  0
 93 94  2  0
 93 95  1  0
 94 96  1  0
 95 97  2  0
 96 98  2  0
 97 98  1  0
 99100  1  0
 99105  1  0
100101  1  0
100103  1  6
101102  2  0
101106  1  0
103104  1  0
104105  1  0
106107  1  0
107108  1  0
107110  1  6
108109  2  0
110111  1  0
111112  2  0
111113  1  0
 14115  1  0
 58116  1  0
M  CHG  1  42   1
M  END
$$$$
