
     RDKit          3D

116123  0  0  0  0  0  0  0  0999 V2000
  -10.8880  101.9029    6.4656 N   0  0  0  0  0  0  0  0  0  0  0  0
  -11.4095  100.7437    6.1788 C   0  0  2  0  0  0  0  0  0  0  0  0
  -10.6619   99.5157    5.8482 C   0  0  0  0  0  0  0  0  0  0  0  0
  -11.1710   98.8903    4.8397 O   0  0  0  0  0  0  0  0  0  0  0  0
   -9.5446   98.9454    6.4250 N   0  0  0  0  0  0  0  0  0  0  0  0
   -8.2070   99.4727    6.6093 C   0  0  2  0  0  0  0  0  0  0  0  0
   -7.9659   99.9012    8.0006 C   0  0  0  0  0  0  0  0  0  0  0  0
   -9.0098   99.8553    8.7586 O   0  0  0  0  0  0  0  0  0  0  0  0
   -7.7869  100.5015    5.6202 C   0  0  0  0  0  0  0  0  0  0  0  0
   -6.7382   99.9893    4.6598 C   0  0  0  0  0  0  0  0  0  0  0  0
   -6.3350   98.5744    4.9039 C   0  0  0  0  0  0  0  0  0  0  0  0
   -7.5746   97.8118    5.1025 N   0  0  0  0  0  0  0  0  0  0  0  0
   -7.8117   96.6145    4.3732 C   0  0  0  0  0  0  0  0  0  0  0  0
   -8.0942   96.7526    3.1053 N   0  0  0  0  0  0  0  0  0  0  0  0
   -7.7388   95.3498    5.0033 N   0  0  0  0  0  0  0  0  0  0  0  0
   -6.7779  100.3370    8.5731 N   0  0  0  0  0  0  0  0  0  0  0  0
   -5.4717   99.6834    8.5388 C   0  0  2  0  0  0  0  0  0  0  0  0
   -5.2827   98.8559    9.7489 C   0  0  0  0  0  0  0  0  0  0  0  0
   -4.7918   99.4699   10.7685 O   0  0  0  0  0  0  0  0  0  0  0  0
   -4.3794  100.7715    8.5894 C   0  0  0  0  0  0  0  0  0  0  0  0
   -5.0052  102.3454    9.1848 S   0  0  0  0  0  0  0  0  0  0  0  0
   -5.5722   97.4938    9.9262 N   0  0  0  0  0  0  0  0  0  0  0  0
   -5.1190   96.3529    9.1667 C   0  0  2  0  0  0  0  0  0  0  0  0
   -3.6821   96.4163    8.7899 C   0  0  0  0  0  0  0  0  0  0  0  0
   -3.2495   97.5581    8.3783 O   0  0  0  0  0  0  0  0  0  0  0  0
   -6.0092   96.0826    7.9730 C   0  0  0  0  0  0  0  0  0  0  0  0
   -5.6690   97.0441    6.8996 C   0  0  0  0  0  0  0  0  0  0  0  0
   -4.9642   96.7404    5.7761 C   0  0  0  0  0  0  0  0  0  0  0  0
   -6.0776   98.3733    7.0385 C   0  0  0  0  0  0  0  0  0  0  0  0
   -4.6675   97.6900    4.8252 C   0  0  0  0  0  0  0  0  0  0  0  0
   -5.7892   99.3329    6.0973 C   0  0  0  0  0  0  0  0  0  0  0  0
   -5.0747   99.0017    4.9696 C   0  0  0  0  0  0  0  0  0  0  0  0
   -4.7660   99.9647    3.9907 O   0  0  0  0  0  0  0  0  0  0  0  0
   -2.7504   95.3817    8.8304 N   0  0  0  0  0  0  0  0  0  0  0  0
   -2.3796   94.5527    9.9748 C   0  0  2  0  0  0  0  0  0  0  0  0
   -0.9247   94.3015    9.8321 C   0  0  0  0  0  0  0  0  0  0  0  0
   -0.5971   93.1583    9.3585 O   0  0  0  0  0  0  0  0  0  0  0  0
   -3.1202   93.2392    9.8016 C   0  0  0  0  0  0  0  0  0  0  0  0
   -3.9524   92.9049   11.0367 C   0  0  0  0  0  0  0  0  0  0  0  0
   -4.7702   91.6630   10.6979 C   0  0  0  0  0  0  0  0  0  0  0  0
   -4.0397   90.7845    9.7152 C   0  0  0  0  0  0  0  0  0  0  0  0
   -4.7825   89.5595    9.5713 N   0  0  0  0  0  4  0  0  0  0  0  0
    0.1186   95.1784   10.1581 N   0  0  0  0  0  0  0  0  0  0  0  0
    0.2892   95.9088   11.4162 C   0  0  2  0  0  0  0  0  0  0  0  0
   -0.5427   95.3411   12.4861 C   0  0  0  0  0  0  0  0  0  0  0  0
   -0.5308   94.0385   12.4109 O   0  0  0  0  0  0  0  0  0  0  0  0
    0.1580   97.3673   11.1629 C   0  0  0  0  0  0  0  0  0  0  0  0
   -1.2419   97.5899   10.9998 O   0  0  0  0  0  0  0  0  0  0  0  0
   -1.2983   95.8775   13.5014 N   0  0  0  0  0  0  0  0  0  0  0  0
   -0.9221   96.5896   14.7289 C   0  0  2  0  0  0  0  0  0  0  0  0
   -0.8629   98.0389   14.5233 C   0  0  0  0  0  0  0  0  0  0  0  0
   -1.7082   98.4298   13.6092 O   0  0  0  0  0  0  0  0  0  0  0  0
    0.0791   95.9381   15.5695 C   0  0  0  0  0  0  0  0  0  0  0  0
    0.4329   96.4350   16.9006 C   0  0  0  0  0  0  0  0  0  0  0  0
   -0.6637   96.7182   17.8646 C   0  0  0  0  0  0  0  0  0  0  0  0
   -1.9222   96.5500   17.1186 N   0  0  0  0  0  0  0  0  0  0  0  0
   -2.4612   95.2501   16.9029 C   0  0  0  0  0  0  0  0  0  0  0  0
   -1.7420   94.2060   17.2322 N   0  0  0  0  0  0  0  0  0  0  0  0
   -3.7525   95.1093   16.3444 N   0  0  0  0  0  0  0  0  0  0  0  0
   -0.1013   99.0506   15.0992 N   0  0  0  0  0  0  0  0  0  0  0  0
   -0.0054   99.4297   16.4914 C   0  0  2  0  0  0  0  0  0  0  0  0
   -1.2210   99.3962   17.2908 C   0  0  0  0  0  0  0  0  0  0  0  0
   -1.7644   98.2304   17.3970 O   0  0  0  0  0  0  0  0  0  0  0  0
    0.7557  100.7351   16.5679 C   0  0  0  0  0  0  0  0  0  0  0  0
    1.7678  100.4639   15.4368 C   0  0  0  0  0  0  0  0  0  0  0  0
    0.7672   99.9997   14.3991 C   0  0  0  0  0  0  0  0  0  0  0  0
   -1.9345  100.3837   17.9838 N   0  0  0  0  0  0  0  0  0  0  0  0
   -2.5261  101.6219   17.5272 C   0  0  2  0  0  0  0  0  0  0  0  0
   -2.6185  101.8608   16.1202 C   0  0  0  0  0  0  0  0  0  0  0  0
   -2.4763  100.9279   15.2481 O   0  0  0  0  0  0  0  0  0  0  0  0
   -1.8004  102.6110   18.3837 C   0  0  0  0  0  0  0  0  0  0  0  0
   -1.6580  101.8280   19.6953 C   0  0  0  0  0  0  0  0  0  0  0  0
   -2.3409  100.5040   19.4217 C   0  0  0  0  0  0  0  0  0  0  0  0
   -2.8722  103.1334   15.5882 N   0  0  0  0  0  0  0  0  0  0  0  0
   -4.0315  103.9880   15.8945 C   0  0  2  0  0  0  0  0  0  0  0  0
   -5.2855  103.4795   15.3937 C   0  0  0  0  0  0  0  0  0  0  0  0
   -6.1043  102.9599   16.3082 O   0  0  0  0  0  0  0  0  0  0  0  0
   -3.7274  105.4385   15.9054 C   0  0  2  0  0  0  0  0  0  0  0  0
   -4.7596  106.3195   16.5437 C   0  0  0  0  0  0  0  0  0  0  0  0
   -3.5665  105.9998   14.4759 C   0  0  0  0  0  0  0  0  0  0  0  0
   -4.6328  107.7593   16.0644 C   0  0  0  0  0  0  0  0  0  0  0  0
   -5.8733  103.3913   14.1326 N   0  0  0  0  0  0  0  0  0  0  0  0
   -6.1076  104.3023   13.0838 C   0  0  2  0  0  0  0  0  0  0  0  0
   -7.4049  104.2336   12.3822 C   0  0  0  0  0  0  0  0  0  0  0  0
   -7.2858  104.4839   11.1204 O   0  0  0  0  0  0  0  0  0  0  0  0
   -5.0105  103.9823   12.0300 C   0  0  0  0  0  0  0  0  0  0  0  0
   -5.4396  102.4224   11.2238 S   0  0  0  0  0  0  0  0  0  0  0  0
   -8.6915  103.9563   12.8159 N   0  0  0  0  0  0  0  0  0  0  0  0
   -9.5236  104.5416   13.8180 C   0  0  2  0  0  0  0  0  0  0  0  0
  -10.5622  105.4907   13.4266 C   0  0  0  0  0  0  0  0  0  0  0  0
  -11.5360  105.5603   14.3118 O   0  0  0  0  0  0  0  0  0  0  0  0
   -8.6863  105.1505   14.9457 C   0  0  0  0  0  0  0  0  0  0  0  0
   -7.3053  105.4379   14.5136 C   0  0  0  0  0  0  0  0  0  0  0  0
   -6.6734  106.5762   14.9437 C   0  0  0  0  0  0  0  0  0  0  0  0
   -6.6328  104.5759   13.6849 C   0  0  0  0  0  0  0  0  0  0  0  0
   -5.3809  106.8682   14.5602 C   0  0  0  0  0  0  0  0  0  0  0  0
   -5.3436  104.8715   13.3053 C   0  0  0  0  0  0  0  0  0  0  0  0
   -4.6826  106.0210   13.7297 C   0  0  0  0  0  0  0  0  0  0  0  0
  -10.7643  106.3339   12.3526 N   0  0  0  0  0  0  0  0  0  0  0  0
  -10.9939  106.0083   10.9366 C   0  0  2  0  0  0  0  0  0  0  0  0
  -11.1025  104.5861   10.6876 C   0  0  0  0  0  0  0  0  0  0  0  0
  -11.6286  103.9656   11.7216 O   0  0  0  0  0  0  0  0  0  0  0  0
   -9.9516  106.7961   10.2561 C   0  0  0  0  0  0  0  0  0  0  0  0
   -9.6680  107.9439   11.2439 C   0  0  0  0  0  0  0  0  0  0  0  0
  -10.8450  107.8234   12.2313 C   0  0  0  0  0  0  0  0  0  0  0  0
  -10.7563  103.7906    9.5813 N   0  0  0  0  0  0  0  0  0  0  0  0
  -11.3335  103.6060    8.3090 C   0  0  2  0  0  0  0  0  0  0  0  0
  -10.3970  102.7224    7.4584 C   0  0  0  0  0  0  0  0  0  0  0  0
   -9.1857  102.8486    7.7789 O   0  0  0  0  0  0  0  0  0  0  0  0
  -11.7072  104.7990    7.5015 C   0  0  0  0  0  0  0  0  0  0  0  0
  -12.5419  104.5524    6.3240 C   0  0  0  0  0  0  0  0  0  0  0  0
  -12.0425  104.5470    5.1875 O   0  0  0  0  0  0  0  0  0  0  0  0
  -13.9247  104.3187    6.4766 N   0  0  0  0  0  0  0  0  0  0  0  0
  -11.2191  101.6732    5.0682 O   0  0  0  0  0  0  0  0  0  0  0  0
   -8.0932   95.9345    2.4619 H   0  0  0  0  0  0  0  0  0  0  0  0
   -2.1869   93.3626   17.6513 H   0  0  0  0  0  0  0  0  0  0  0  0
  1  2  1  0
  1108  1  0
  1114  1  0
  2  3  1  0
  2114  1  6
  3  4  2  0
  3  5  1  0
  5  6  1  0
  6  7  1  0
  6  9  1  6
  7  8  2  0
  7 16  1  0
  9 10  1  0
 10 11  1  0
 11 12  1  0
 12 13  1  0
 13 14  2  0
 13 15  1  0
 17 16  1  1
 17 18  1  0
 17 20  1  0
 18 19  2  0
 18 22  1  0
 20 21  1  0
 21 87  1  0
 22 23  1  0
 23 24  1  0
 23 26  1  6
 24 25  2  0
 24 34  1  0
 26 27  1  0
 27 28  2  0
 27 29  1  0
 28 30  1  0
 29 31  2  0
 30 32  2  0
 31 32  1  0
 32 33  1  0
 34 35  1  0
 35 36  1  0
 35 38  1  6
 36 37  2  0
 36 43  1  0
 38 39  1  0
 39 40  1  0
 40 41  1  0
 41 42  1  0
 43 44  1  0
 44 45  1  0
 44 47  1  6
 45 46  2  0
 45 49  1  0
 47 48  1  0
 49 50  1  0
 50 51  1  0
 50 53  1  6
 51 52  2  0
 51 60  1  0
 53 54  1  0
 54 55  1  0
 55 56  1  0
 56 57  1  0
 57 58  2  0
 57 59  1  0
 60 61  1  0
 60 66  1  0
 61 62  1  0
 61 64  1  6
 62 63  2  0
 62 67  1  0
 64 65  1  0
 65 66  1  0
 67 68  1  0
 67 73  1  0
 68 69  1  0
 68 71  1  1
 69 70  2  0
 69 74  1  0
 71 72  1  0
 72 73  1  0
 75 74  1  6
 75 76  1  0
 75 78  1  0
 76 77  2  0
 76 82  1  0
 78 79  1  0
 78 80  1  6
 79 81  1  0
 83 82  1  1
 83 84  1  0
 83 86  1  0
 84 85  2  0
 84 88  1  0
 86 87  1  0
 88 89  1  0
 89 90  1  0
 89 92  1  1
 90 91  2  0
 90 99  1  0
 92 93  1  0
 93 94  2  0
 93 95  1  0
 94 96  1  0
 95 97  2  0
 96 98  2  0
 97 98  1  0
 99100  1  0
 99105  1  0
100101  1  0
100103  1  6
101102  2  0
101106  1  0
103104  1  0
104105  1  0
106107  1  0
107108  1  0
107110  1  6
108109  2  0
110111  1  0
111112  2  0
111113  1  0
 14115  1  0
 58116  1  0
M  CHG  1  42   1
M  END
$$$$
