
     RDKit          3D

116123  0  0  0  0  0  0  0  0999 V2000
  -10.1080  105.8349    8.2733 N   0  0  0  0  0  0  0  0  0  0  0  0
  -11.0125  105.1114    7.6763 C   0  0  2  0  0  0  0  0  0  0  0  0
  -10.7553  103.9503    6.8035 C   0  0  0  0  0  0  0  0  0  0  0  0
  -11.4822  103.9706    5.7364 O   0  0  0  0  0  0  0  0  0  0  0  0
   -9.8933  102.8804    6.9398 N   0  0  0  0  0  0  0  0  0  0  0  0
   -8.4507  102.8451    7.0779 C   0  0  2  0  0  0  0  0  0  0  0  0
   -8.0324  102.5861    8.4691 C   0  0  0  0  0  0  0  0  0  0  0  0
   -9.0022  102.5703    9.3208 O   0  0  0  0  0  0  0  0  0  0  0  0
   -7.7256  103.9954    6.4744 C   0  0  0  0  0  0  0  0  0  0  0  0
   -6.2679  103.6913    6.2155 C   0  0  0  0  0  0  0  0  0  0  0  0
   -5.9634  102.2350    6.1132 C   0  0  0  0  0  0  0  0  0  0  0  0
   -7.1305  101.6044    5.4823 N   0  0  0  0  0  0  0  0  0  0  0  0
   -7.0203  100.9986    4.2006 C   0  0  0  0  0  0  0  0  0  0  0  0
   -7.3754   99.7442    4.1183 N   0  0  0  0  0  0  0  0  0  0  0  0
   -6.5512  101.7315    3.0850 N   0  0  0  0  0  0  0  0  0  0  0  0
   -6.7502  102.3640    8.9547 N   0  0  0  0  0  0  0  0  0  0  0  0
   -5.7593  101.4065    8.4692 C   0  0  2  0  0  0  0  0  0  0  0  0
   -5.8371  100.1521    9.2472 C   0  0  0  0  0  0  0  0  0  0  0  0
   -5.1309  100.1232   10.3233 O   0  0  0  0  0  0  0  0  0  0  0  0
   -4.3529  101.9847    8.7289 C   0  0  0  0  0  0  0  0  0  0  0  0
   -4.3665  103.3009    9.9499 S   0  0  0  0  0  0  0  0  0  0  0  0
   -6.5820   98.9966    8.9636 N   0  0  0  0  0  0  0  0  0  0  0  0
   -6.5825   98.1730    7.7780 C   0  0  2  0  0  0  0  0  0  0  0  0
   -5.2273   97.9297    7.2168 C   0  0  0  0  0  0  0  0  0  0  0  0
   -4.4332   98.9439    7.1818 O   0  0  0  0  0  0  0  0  0  0  0  0
   -7.5465   98.6922    6.7332 C   0  0  0  0  0  0  0  0  0  0  0  0
   -8.4079   99.7246    7.3534 C   0  0  0  0  0  0  0  0  0  0  0  0
   -9.5086   99.4686    8.1112 C   0  0  0  0  0  0  0  0  0  0  0  0
   -8.0956  101.0704    7.1429 C   0  0  0  0  0  0  0  0  0  0  0  0
  -10.2759  100.4796    8.6433 C   0  0  0  0  0  0  0  0  0  0  0  0
   -8.8522  102.0911    7.6681 C   0  0  0  0  0  0  0  0  0  0  0  0
   -9.9610  101.8073    8.4309 C   0  0  0  0  0  0  0  0  0  0  0  0
  -10.7525  102.8331    8.9803 O   0  0  0  0  0  0  0  0  0  0  0  0
   -4.7185   96.7304    6.7238 N   0  0  0  0  0  0  0  0  0  0  0  0
   -4.6288   95.4442    7.4107 C   0  0  2  0  0  0  0  0  0  0  0  0
   -3.3604   94.8307    6.9471 C   0  0  0  0  0  0  0  0  0  0  0  0
   -3.4706   93.9306    6.0436 O   0  0  0  0  0  0  0  0  0  0  0  0
   -5.7892   94.6107    6.8984 C   0  0  0  0  0  0  0  0  0  0  0  0
   -5.8243   94.5879    5.3726 C   0  0  0  0  0  0  0  0  0  0  0  0
   -6.9518   95.5197    4.9409 C   0  0  0  0  0  0  0  0  0  0  0  0
   -8.2945   94.8522    5.0920 C   0  0  0  0  0  0  0  0  0  0  0  0
   -9.2297   95.5268    4.2299 N   0  0  0  0  0  4  0  0  0  0  0  0
   -2.0659   95.1324    7.3907 N   0  0  0  0  0  0  0  0  0  0  0  0
   -1.6111   95.2088    8.7810 C   0  0  2  0  0  0  0  0  0  0  0  0
   -2.5569   94.5526    9.6943 C   0  0  0  0  0  0  0  0  0  0  0  0
   -3.0065   93.4549    9.1508 O   0  0  0  0  0  0  0  0  0  0  0  0
   -1.2283   96.6090    9.0997 C   0  0  0  0  0  0  0  0  0  0  0  0
   -2.2185   97.0625   10.0215 O   0  0  0  0  0  0  0  0  0  0  0  0
   -3.0443   94.8470   10.9454 N   0  0  0  0  0  0  0  0  0  0  0  0
   -2.4045   94.8558   12.2669 C   0  0  2  0  0  0  0  0  0  0  0  0
   -1.8454   96.1696   12.5943 C   0  0  0  0  0  0  0  0  0  0  0  0
   -2.5263   97.1342   12.0384 O   0  0  0  0  0  0  0  0  0  0  0  0
   -1.6718   93.6471   12.6349 C   0  0  0  0  0  0  0  0  0  0  0  0
   -1.7171   93.0794   13.9838 C   0  0  0  0  0  0  0  0  0  0  0  0
   -1.4947   91.6176   14.1440 C   0  0  0  0  0  0  0  0  0  0  0  0
   -2.0588   90.9803   12.9422 N   0  0  0  0  0  0  0  0  0  0  0  0
   -1.9458   89.5737   12.7547 C   0  0  0  0  0  0  0  0  0  0  0  0
   -1.2737   88.8719   13.6331 N   0  0  0  0  0  0  0  0  0  0  0  0
   -2.5570   88.9632   11.6354 N   0  0  0  0  0  0  0  0  0  0  0  0
   -0.7594   96.5761   13.3629 N   0  0  0  0  0  0  0  0  0  0  0  0
   -0.4942   96.3193   14.7610 C   0  0  2  0  0  0  0  0  0  0  0  0
   -1.6190   96.3512   15.6838 C   0  0  0  0  0  0  0  0  0  0  0  0
   -2.5345   95.4725   15.4485 O   0  0  0  0  0  0  0  0  0  0  0  0
    0.6796   97.1780   15.1784 C   0  0  0  0  0  0  0  0  0  0  0  0
    1.4968   97.0786   13.8747 C   0  0  0  0  0  0  0  0  0  0  0  0
    0.3660   97.4028   12.9210 C   0  0  0  0  0  0  0  0  0  0  0  0
   -1.9180   97.1500   16.7960 N   0  0  0  0  0  0  0  0  0  0  0  0
   -2.0495   98.5845   16.9249 C   0  0  2  0  0  0  0  0  0  0  0  0
   -2.0945   99.3793   15.7368 C   0  0  0  0  0  0  0  0  0  0  0  0
   -2.3161   98.8770   14.5750 O   0  0  0  0  0  0  0  0  0  0  0  0
   -0.9966   98.8709   17.9486 C   0  0  0  0  0  0  0  0  0  0  0  0
   -1.0993   97.6291   18.8434 C   0  0  0  0  0  0  0  0  0  0  0  0
   -2.2124   96.8083   18.2257 C   0  0  0  0  0  0  0  0  0  0  0  0
   -1.9000  100.7681   15.7528 N   0  0  0  0  0  0  0  0  0  0  0  0
   -2.6745  101.7450   16.5364 C   0  0  2  0  0  0  0  0  0  0  0  0
   -4.0418  101.8964   16.1010 C   0  0  0  0  0  0  0  0  0  0  0  0
   -4.9630  101.3395   16.8870 O   0  0  0  0  0  0  0  0  0  0  0  0
   -1.8792  102.8974   17.0221 C   0  0  2  0  0  0  0  0  0  0  0  0
   -1.0000  103.5618   16.0051 C   0  0  0  0  0  0  0  0  0  0  0  0
   -0.9187  102.4901   18.1605 C   0  0  0  0  0  0  0  0  0  0  0  0
   -0.4377  102.5519   15.0137 C   0  0  0  0  0  0  0  0  0  0  0  0
   -4.6608  102.5053   15.0103 N   0  0  0  0  0  0  0  0  0  0  0  0
   -4.5911  103.7817   14.4180 C   0  0  2  0  0  0  0  0  0  0  0  0
   -5.8502  104.4060   13.9653 C   0  0  0  0  0  0  0  0  0  0  0  0
   -5.6889  105.0870   12.8794 O   0  0  0  0  0  0  0  0  0  0  0  0
   -3.7093  103.5829   13.1534 C   0  0  0  0  0  0  0  0  0  0  0  0
   -4.6841  102.6916   11.9195 S   0  0  0  0  0  0  0  0  0  0  0  0
   -7.1384  104.3953   14.4761 N   0  0  0  0  0  0  0  0  0  0  0  0
   -7.6806  104.7609   15.7456 C   0  0  2  0  0  0  0  0  0  0  0  0
   -8.3300  106.0593   15.9036 C   0  0  0  0  0  0  0  0  0  0  0  0
   -9.1898  106.0708   16.9023 O   0  0  0  0  0  0  0  0  0  0  0  0
   -6.6488  104.5767   16.8614 C   0  0  0  0  0  0  0  0  0  0  0  0
   -5.4696  105.4422   16.6704 C   0  0  0  0  0  0  0  0  0  0  0  0
   -5.5984  106.8053   16.7441 C   0  0  0  0  0  0  0  0  0  0  0  0
   -4.2327  104.9030   16.4228 C   0  0  0  0  0  0  0  0  0  0  0  0
   -4.5126  107.6392   16.5747 C   0  0  0  0  0  0  0  0  0  0  0  0
   -3.1526  105.7388   16.2549 C   0  0  0  0  0  0  0  0  0  0  0  0
   -3.2600  107.1251   16.3255 C   0  0  0  0  0  0  0  0  0  0  0  0
   -8.2548  107.2773   15.2583 N   0  0  0  0  0  0  0  0  0  0  0  0
   -8.6270  107.6313   13.8799 C   0  0  2  0  0  0  0  0  0  0  0  0
   -9.2367  106.5371   13.1537 C   0  0  0  0  0  0  0  0  0  0  0  0
   -9.9160  105.7543   13.9640 O   0  0  0  0  0  0  0  0  0  0  0  0
   -7.3952  108.2569   13.3686 C   0  0  0  0  0  0  0  0  0  0  0  0
   -6.6961  108.7658   14.6437 C   0  0  0  0  0  0  0  0  0  0  0  0
   -7.8098  108.6359   15.7009 C   0  0  0  0  0  0  0  0  0  0  0  0
   -9.2262  106.1830   11.7932 N   0  0  0  0  0  0  0  0  0  0  0  0
   -9.8697  106.7098   10.6554 C   0  0  2  0  0  0  0  0  0  0  0  0
   -9.3302  105.9939    9.3993 C   0  0  0  0  0  0  0  0  0  0  0  0
   -8.1429  105.5978    9.5378 O   0  0  0  0  0  0  0  0  0  0  0  0
   -9.8238  108.1771   10.4099 C   0  0  0  0  0  0  0  0  0  0  0  0
   -9.6536  108.5990    9.0181 C   0  0  0  0  0  0  0  0  0  0  0  0
   -9.7698  109.7942    8.7033 O   0  0  0  0  0  0  0  0  0  0  0  0
   -9.3554  107.6441    8.0235 N   0  0  0  0  0  0  0  0  0  0  0  0
  -10.5409  106.2960    6.9636 O   0  0  0  0  0  0  0  0  0  0  0  0
   -8.1090   99.3508    4.7431 H   0  0  0  0  0  0  0  0  0  0  0  0
   -1.2206   87.8343   13.5588 H   0  0  0  0  0  0  0  0  0  0  0  0
  1  2  1  0
  1108  1  0
  1114  1  0
  2  3  1  0
  2114  1  6
  3  4  2  0
  3  5  1  0
  5  6  1  0
  6  7  1  0
  6  9  1  1
  7  8  2  0
  7 16  1  0
  9 10  1  0
 10 11  1  0
 11 12  1  0
 12 13  1  0
 13 14  2  0
 13 15  1  0
 17 16  1  1
 17 18  1  0
 17 20  1  0
 18 19  2  0
 18 22  1  0
 20 21  1  0
 21 87  1  0
 22 23  1  0
 23 24  1  0
 23 26  1  6
 24 25  2  0
 24 34  1  0
 26 27  1  0
 27 28  2  0
 27 29  1  0
 28 30  1  0
 29 31  2  0
 30 32  2  0
 31 32  1  0
 32 33  1  0
 34 35  1  0
 35 36  1  0
 35 38  1  6
 36 37  2  0
 36 43  1  0
 38 39  1  0
 39 40  1  0
 40 41  1  0
 41 42  1  0
 43 44  1  0
 44 45  1  0
 44 47  1  1
 45 46  2  0
 45 49  1  0
 47 48  1  0
 49 50  1  0
 50 51  1  0
 50 53  1  6
 51 52  2  0
 51 60  1  0
 53 54  1  0
 54 55  1  0
 55 56  1  0
 56 57  1  0
 57 58  2  0
 57 59  1  0
 60 61  1  0
 60 66  1  0
 61 62  1  0
 61 64  1  1
 62 63  2  0
 62 67  1  0
 64 65  1  0
 65 66  1  0
 67 68  1  0
 67 73  1  0
 68 69  1  0
 68 71  1  1
 69 70  2  0
 69 74  1  0
 71 72  1  0
 72 73  1  0
 75 74  1  6
 75 76  1  0
 75 78  1  0
 76 77  2  0
 76 82  1  0
 78 79  1  0
 78 80  1  1
 79 81  1  0
 83 82  1  6
 83 84  1  0
 83 86  1  0
 84 85  2  0
 84 88  1  0
 86 87  1  0
 88 89  1  0
 89 90  1  0
 89 92  1  1
 90 91  2  0
 90 99  1  0
 92 93  1  0
 93 94  2  0
 93 95  1  0
 94 96  1  0
 95 97  2  0
 96 98  2  0
 97 98  1  0
 99100  1  0
 99105  1  0
100101  1  0
100103  1  6
101102  2  0
101106  1  0
103104  1  0
104105  1  0
106107  1  0
107108  1  0
107110  1  6
108109  2  0
110111  1  0
111112  2  0
111113  1  0
 14115  1  0
 58116  1  0
M  CHG  1  42   1
M  END
$$$$
