
     RDKit          3D

116123  0  0  0  0  0  0  0  0999 V2000
   -0.9860  108.0779   12.3425 N   0  0  0  0  0  0  0  0  0  0  0  0
   -0.7094  108.1186   11.0698 C   0  0  2  0  0  0  0  0  0  0  0  0
   -0.1127  107.0264   10.2778 C   0  0  0  0  0  0  0  0  0  0  0  0
    0.8180  107.4477    9.4880 O   0  0  0  0  0  0  0  0  0  0  0  0
   -0.3811  105.6725   10.2445 N   0  0  0  0  0  0  0  0  0  0  0  0
   -0.3240  104.6751   11.2948 C   0  0  2  0  0  0  0  0  0  0  0  0
   -1.6657  104.3176   11.7945 C   0  0  0  0  0  0  0  0  0  0  0  0
   -2.6214  105.0382   11.3111 O   0  0  0  0  0  0  0  0  0  0  0  0
    0.6307  104.9668   12.3979 C   0  0  0  0  0  0  0  0  0  0  0  0
    0.1181  104.5115   13.7448 C   0  0  0  0  0  0  0  0  0  0  0  0
   -1.1264  103.6927   13.6724 C   0  0  0  0  0  0  0  0  0  0  0  0
   -1.1225  103.0365   12.3582 N   0  0  0  0  0  0  0  0  0  0  0  0
   -0.3213  101.8848   12.1276 C   0  0  0  0  0  0  0  0  0  0  0  0
   -0.3946  101.3550   10.9358 N   0  0  0  0  0  0  0  0  0  0  0  0
    0.5068  101.3562   13.1458 N   0  0  0  0  0  0  0  0  0  0  0  0
   -2.0095  103.3227   12.7006 N   0  0  0  0  0  0  0  0  0  0  0  0
   -1.6355  101.9108   12.6688 C   0  0  2  0  0  0  0  0  0  0  0  0
   -2.6938  101.1168   12.0099 C   0  0  0  0  0  0  0  0  0  0  0  0
   -3.6381  100.7041   12.7817 O   0  0  0  0  0  0  0  0  0  0  0  0
   -1.5536  101.3943   14.1201 C   0  0  0  0  0  0  0  0  0  0  0  0
   -2.4145  102.4622   15.2785 S   0  0  0  0  0  0  0  0  0  0  0  0
   -2.7999  100.7608   10.6562 N   0  0  0  0  0  0  0  0  0  0  0  0
   -1.8572  100.0636    9.8141 C   0  0  2  0  0  0  0  0  0  0  0  0
   -1.1897   98.9163   10.4840 C   0  0  0  0  0  0  0  0  0  0  0  0
   -0.8045   99.1094   11.6983 O   0  0  0  0  0  0  0  0  0  0  0  0
   -0.8613  101.0111    9.1809 C   0  0  0  0  0  0  0  0  0  0  0  0
   -0.4089  101.9791   10.2059 C   0  0  0  0  0  0  0  0  0  0  0  0
    0.5326  101.7261   11.1549 C   0  0  0  0  0  0  0  0  0  0  0  0
   -0.9924  103.2488   10.2300 C   0  0  0  0  0  0  0  0  0  0  0  0
    0.8932  102.6686   12.0906 C   0  0  0  0  0  0  0  0  0  0  0  0
   -0.6423  104.2008   11.1580 C   0  0  0  0  0  0  0  0  0  0  0  0
    0.3122  103.9213   12.1081 C   0  0  0  0  0  0  0  0  0  0  0  0
    0.6888  104.8778   13.0694 O   0  0  0  0  0  0  0  0  0  0  0  0
   -0.9326   97.6566    9.9481 N   0  0  0  0  0  0  0  0  0  0  0  0
   -1.8881   96.7177    9.3651 C   0  0  2  0  0  0  0  0  0  0  0  0
   -1.4148   95.3685    9.7600 C   0  0  0  0  0  0  0  0  0  0  0  0
   -0.7766   94.7139    8.8639 O   0  0  0  0  0  0  0  0  0  0  0  0
   -1.7543   96.8599    7.8600 C   0  0  0  0  0  0  0  0  0  0  0  0
   -1.8548   95.5051    7.1639 C   0  0  0  0  0  0  0  0  0  0  0  0
   -2.6284   95.7281    5.8687 C   0  0  0  0  0  0  0  0  0  0  0  0
   -1.7147   96.1956    4.7652 C   0  0  0  0  0  0  0  0  0  0  0  0
   -2.1697   95.6124    3.5299 N   0  0  0  0  0  4  0  0  0  0  0  0
   -1.5913   94.7424   11.0012 N   0  0  0  0  0  0  0  0  0  0  0  0
   -2.8469   94.6040   11.7427 C   0  0  2  0  0  0  0  0  0  0  0  0
   -4.0116   94.8477   10.8805 C   0  0  0  0  0  0  0  0  0  0  0  0
   -3.8133   94.3108    9.7079 O   0  0  0  0  0  0  0  0  0  0  0  0
   -2.7659   95.3875   13.0029 C   0  0  0  0  0  0  0  0  0  0  0  0
   -2.9048   96.7495   12.6012 O   0  0  0  0  0  0  0  0  0  0  0  0
   -5.2108   95.4982   11.0485 N   0  0  0  0  0  0  0  0  0  0  0  0
   -6.3910   95.1787   11.8614 C   0  0  2  0  0  0  0  0  0  0  0  0
   -6.3148   95.7800   13.1950 C   0  0  0  0  0  0  0  0  0  0  0  0
   -5.6434   96.8990   13.1805 O   0  0  0  0  0  0  0  0  0  0  0  0
   -6.9330   93.8313   11.7067 C   0  0  0  0  0  0  0  0  0  0  0  0
   -6.7849   92.8005   12.7361 C   0  0  0  0  0  0  0  0  0  0  0  0
   -5.4252   92.2629   13.0084 C   0  0  0  0  0  0  0  0  0  0  0  0
   -4.6885   92.3402   11.7356 N   0  0  0  0  0  0  0  0  0  0  0  0
   -3.3004   92.0279   11.6889 C   0  0  0  0  0  0  0  0  0  0  0  0
   -2.8687   91.2083   10.7628 N   0  0  0  0  0  0  0  0  0  0  0  0
   -2.4190   92.6041   12.6325 N   0  0  0  0  0  0  0  0  0  0  0  0
   -6.8072   95.3994   14.4392 N   0  0  0  0  0  0  0  0  0  0  0  0
   -8.1761   95.1485   14.8320 C   0  0  2  0  0  0  0  0  0  0  0  0
   -9.2101   96.0153   14.2867 C   0  0  0  0  0  0  0  0  0  0  0  0
   -9.3197   95.9809   13.0012 O   0  0  0  0  0  0  0  0  0  0  0  0
   -8.2107   95.0075   16.3381 C   0  0  0  0  0  0  0  0  0  0  0  0
   -6.8690   94.2695   16.5188 C   0  0  0  0  0  0  0  0  0  0  0  0
   -6.0302   95.1965   15.6641 C   0  0  0  0  0  0  0  0  0  0  0  0
  -10.1293   96.8925   14.8783 N   0  0  0  0  0  0  0  0  0  0  0  0
   -9.9283   98.0357   15.7410 C   0  0  2  0  0  0  0  0  0  0  0  0
   -8.6024   98.5451   15.9080 C   0  0  0  0  0  0  0  0  0  0  0  0
   -7.6362   98.2341   15.1201 O   0  0  0  0  0  0  0  0  0  0  0  0
  -10.6991   97.6117   16.9512 C   0  0  0  0  0  0  0  0  0  0  0  0
  -11.8703   96.8535   16.3132 C   0  0  0  0  0  0  0  0  0  0  0  0
  -11.6256   96.9640   14.8225 C   0  0  0  0  0  0  0  0  0  0  0  0
   -8.2590   99.4235   16.9460 N   0  0  0  0  0  0  0  0  0  0  0  0
   -8.8851  100.7269   17.2242 C   0  0  2  0  0  0  0  0  0  0  0  0
   -8.6183  101.7326   16.2245 C   0  0  0  0  0  0  0  0  0  0  0  0
   -9.6336  102.0212   15.4105 O   0  0  0  0  0  0  0  0  0  0  0  0
   -8.9672  101.0631   18.6653 C   0  0  2  0  0  0  0  0  0  0  0  0
   -9.8166  102.2488   19.0140 C   0  0  0  0  0  0  0  0  0  0  0  0
   -7.5788  101.3915   19.2558 C   0  0  0  0  0  0  0  0  0  0  0  0
   -9.8669  103.2510   17.8685 C   0  0  0  0  0  0  0  0  0  0  0  0
   -7.5094  102.5063   15.8849 N   0  0  0  0  0  0  0  0  0  0  0  0
   -6.6253  103.3373   16.6009 C   0  0  2  0  0  0  0  0  0  0  0  0
   -6.2139  104.6116   15.9789 C   0  0  0  0  0  0  0  0  0  0  0  0
   -4.9851  104.9061   16.2478 O   0  0  0  0  0  0  0  0  0  0  0  0
   -5.3361  102.4862   16.7744 C   0  0  0  0  0  0  0  0  0  0  0  0
   -4.4971  102.3999   15.1757 S   0  0  0  0  0  0  0  0  0  0  0  0
   -6.8845  105.5244   15.1804 N   0  0  0  0  0  0  0  0  0  0  0  0
   -8.0918  106.2656   15.3598 C   0  0  2  0  0  0  0  0  0  0  0  0
   -8.0226  107.6653   15.7703 C   0  0  0  0  0  0  0  0  0  0  0  0
   -9.0979  108.3429   15.4223 O   0  0  0  0  0  0  0  0  0  0  0  0
   -9.0667  105.5214   16.2760 C   0  0  0  0  0  0  0  0  0  0  0  0
   -9.4042  104.1842   15.7520 C   0  0  0  0  0  0  0  0  0  0  0  0
  -10.4563  103.4834   16.2831 C   0  0  0  0  0  0  0  0  0  0  0  0
   -8.6807  103.6252   14.7293 C   0  0  0  0  0  0  0  0  0  0  0  0
  -10.7982  102.2336   15.8099 C   0  0  0  0  0  0  0  0  0  0  0  0
   -9.0256  102.3784   14.2605 C   0  0  0  0  0  0  0  0  0  0  0  0
  -10.0896  101.6491   14.7845 C   0  0  0  0  0  0  0  0  0  0  0  0
   -7.1008  108.4456   16.4388 N   0  0  0  0  0  0  0  0  0  0  0  0
   -5.7423  108.8418   16.0369 C   0  0  2  0  0  0  0  0  0  0  0  0
   -5.3896  108.4013   14.7035 C   0  0  0  0  0  0  0  0  0  0  0  0
   -6.4490  108.3628   13.9243 O   0  0  0  0  0  0  0  0  0  0  0  0
   -4.9320  108.4144   17.1905 C   0  0  0  0  0  0  0  0  0  0  0  0
   -5.9400  108.4141   18.3557 C   0  0  0  0  0  0  0  0  0  0  0  0
   -7.1403  109.1669   17.7496 C   0  0  0  0  0  0  0  0  0  0  0  0
   -4.1651  108.0233   14.1255 N   0  0  0  0  0  0  0  0  0  0  0  0
   -3.0339  108.7501   13.7031 C   0  0  2  0  0  0  0  0  0  0  0  0
   -1.9235  107.7572   13.2998 C   0  0  0  0  0  0  0  0  0  0  0  0
   -1.9882  106.6714   13.9346 O   0  0  0  0  0  0  0  0  0  0  0  0
   -2.4408  109.7649   14.6160 C   0  0  0  0  0  0  0  0  0  0  0  0
   -1.4417  110.6615   14.0312 C   0  0  0  0  0  0  0  0  0  0  0  0
   -1.7936  111.6654   13.3913 O   0  0  0  0  0  0  0  0  0  0  0  0
   -0.0675  110.3869   14.1932 N   0  0  0  0  0  0  0  0  0  0  0  0
    0.3236  108.5989   11.9839 O   0  0  0  0  0  0  0  0  0  0  0  0
    0.3207  100.6754   10.6045 H   0  0  0  0  0  0  0  0  0  0  0  0
   -3.0472   90.1844   10.8314 H   0  0  0  0  0  0  0  0  0  0  0  0
  1  2  1  0
  1108  1  0
  1114  1  0
  2  3  1  0
  2114  1  1
  3  4  2  0
  3  5  1  0
  5  6  1  0
  6  7  1  0
  6  9  1  1
  7  8  2  0
  7 16  1  0
  9 10  1  0
 10 11  1  0
 11 12  1  0
 12 13  1  0
 13 14  2  0
 13 15  1  0
 17 16  1  1
 17 18  1  0
 17 20  1  0
 18 19  2  0
 18 22  1  0
 20 21  1  0
 21 87  1  0
 22 23  1  0
 23 24  1  0
 23 26  1  1
 24 25  2  0
 24 34  1  0
 26 27  1  0
 27 28  2  0
 27 29  1  0
 28 30  1  0
 29 31  2  0
 30 32  2  0
 31 32  1  0
 32 33  1  0
 34 35  1  0
 35 36  1  0
 35 38  1  6
 36 37  2  0
 36 43  1  0
 38 39  1  0
 39 40  1  0
 40 41  1  0
 41 42  1  0
 43 44  1  0
 44 45  1  0
 44 47  1  1
 45 46  2  0
 45 49  1  0
 47 48  1  0
 49 50  1  0
 50 51  1  0
 50 53  1  1
 51 52  2  0
 51 60  1  0
 53 54  1  0
 54 55  1  0
 55 56  1  0
 56 57  1  0
 57 58  2  0
 57 59  1  0
 60 61  1  0
 60 66  1  0
 61 62  1  0
 61 64  1  1
 62 63  2  0
 62 67  1  0
 64 65  1  0
 65 66  1  0
 67 68  1  0
 67 73  1  0
 68 69  1  0
 68 71  1  1
 69 70  2  0
 69 74  1  0
 71 72  1  0
 72 73  1  0
 75 74  1  1
 75 76  1  0
 75 78  1  0
 76 77  2  0
 76 82  1  0
 78 79  1  0
 78 80  1  6
 79 81  1  0
 83 82  1  6
 83 84  1  0
 83 86  1  0
 84 85  2  0
 84 88  1  0
 86 87  1  0
 88 89  1  0
 89 90  1  0
 89 92  1  1
 90 91  2  0
 90 99  1  0
 92 93  1  0
 93 94  2  0
 93 95  1  0
 94 96  1  0
 95 97  2  0
 96 98  2  0
 97 98  1  0
 99100  1  0
 99105  1  0
100101  1  0
100103  1  1
101102  2  0
101106  1  0
103104  1  0
104105  1  0
106107  1  0
107108  1  0
107110  1  1
108109  2  0
110111  1  0
111112  2  0
111113  1  0
 14115  1  0
 58116  1  0
M  CHG  1  42   1
M  END
$$$$
