
     RDKit          3D

116123  0  0  0  0  0  0  0  0999 V2000
   -1.9744  108.9520   11.2799 N   0  0  0  0  0  0  0  0  0  0  0  0
   -1.6743  108.7185   10.0335 C   0  0  2  0  0  0  0  0  0  0  0  0
   -0.8813  107.5800    9.5324 C   0  0  0  0  0  0  0  0  0  0  0  0
   -0.0136  107.9411    8.6468 O   0  0  0  0  0  0  0  0  0  0  0  0
   -0.9174  106.2358    9.8453 N   0  0  0  0  0  0  0  0  0  0  0  0
   -0.7221  105.5582   11.1118 C   0  0  2  0  0  0  0  0  0  0  0  0
   -1.9977  105.1156   11.7072 C   0  0  0  0  0  0  0  0  0  0  0  0
   -3.0474  105.5192   11.0737 O   0  0  0  0  0  0  0  0  0  0  0  0
    0.1399  106.2746   12.0901 C   0  0  0  0  0  0  0  0  0  0  0  0
    0.0757  107.7761   11.9298 C   0  0  0  0  0  0  0  0  0  0  0  0
   -0.7739  108.2263   10.7896 C   0  0  0  0  0  0  0  0  0  0  0  0
   -2.1597  108.2384   11.2766 N   0  0  0  0  0  0  0  0  0  0  0  0
   -3.1108  107.3086   10.7740 C   0  0  0  0  0  0  0  0  0  0  0  0
   -4.3635  107.6759   10.8210 N   0  0  0  0  0  0  0  0  0  0  0  0
   -2.7034  106.0580   10.2526 N   0  0  0  0  0  0  0  0  0  0  0  0
   -2.1938  104.3364   12.8401 N   0  0  0  0  0  0  0  0  0  0  0  0
   -1.5872  103.0460   13.1586 C   0  0  2  0  0  0  0  0  0  0  0  0
   -2.4789  101.9447   12.7382 C   0  0  0  0  0  0  0  0  0  0  0  0
   -3.3609  101.5850   13.6043 O   0  0  0  0  0  0  0  0  0  0  0  0
   -1.4590  102.9315   14.6916 C   0  0  0  0  0  0  0  0  0  0  0  0
   -2.5181  104.0940   15.5578 S   0  0  0  0  0  0  0  0  0  0  0  0
   -2.4869  101.2480   11.5196 N   0  0  0  0  0  0  0  0  0  0  0  0
   -1.4181  100.5319   10.8648 C   0  0  2  0  0  0  0  0  0  0  0  0
   -0.5857   99.7195   11.7909 C   0  0  0  0  0  0  0  0  0  0  0  0
   -0.2714  100.2733   12.9111 O   0  0  0  0  0  0  0  0  0  0  0  0
   -0.5787  101.4448    9.9972 C   0  0  0  0  0  0  0  0  0  0  0  0
   -0.6493  102.8183   10.5460 C   0  0  0  0  0  0  0  0  0  0  0  0
    0.3501  103.7387   10.4731 C   0  0  0  0  0  0  0  0  0  0  0  0
   -1.8143  103.2146   11.2082 C   0  0  0  0  0  0  0  0  0  0  0  0
    0.2233  104.9944   11.0220 C   0  0  0  0  0  0  0  0  0  0  0  0
   -1.9559  104.4653   11.7611 C   0  0  0  0  0  0  0  0  0  0  0  0
   -0.9313  105.3788   11.6750 C   0  0  0  0  0  0  0  0  0  0  0  0
   -1.0503  106.6656   12.2323 O   0  0  0  0  0  0  0  0  0  0  0  0
   -0.1062   98.4280   11.5852 N   0  0  0  0  0  0  0  0  0  0  0  0
   -0.8742   97.2250   11.2731 C   0  0  2  0  0  0  0  0  0  0  0  0
   -0.1919   96.1183   11.9870 C   0  0  0  0  0  0  0  0  0  0  0  0
    0.5712   95.3778   11.2742 O   0  0  0  0  0  0  0  0  0  0  0  0
   -0.7256   97.0058    9.7786 C   0  0  0  0  0  0  0  0  0  0  0  0
    0.6591   97.4247    9.2918 C   0  0  0  0  0  0  0  0  0  0  0  0
    0.7122   98.9472    9.3620 C   0  0  0  0  0  0  0  0  0  0  0  0
    2.1314   99.4451    9.2660 C   0  0  0  0  0  0  0  0  0  0  0  0
    2.2864  100.5373   10.1913 N   0  0  0  0  0  4  0  0  0  0  0  0
   -0.2942   95.8030   13.3486 N   0  0  0  0  0  0  0  0  0  0  0  0
   -1.5283   95.6443   14.1214 C   0  0  2  0  0  0  0  0  0  0  0  0
   -2.6936   95.4632   13.2448 C   0  0  0  0  0  0  0  0  0  0  0  0
   -2.3763   94.6909   12.2421 O   0  0  0  0  0  0  0  0  0  0  0  0
   -1.6142   96.7209   15.1424 C   0  0  0  0  0  0  0  0  0  0  0  0
   -1.5823   97.9386   14.3994 O   0  0  0  0  0  0  0  0  0  0  0  0
   -3.9892   95.9222   13.2633 N   0  0  0  0  0  0  0  0  0  0  0  0
   -5.1205   95.6216   14.1495 C   0  0  2  0  0  0  0  0  0  0  0  0
   -5.1825   96.5421   15.2875 C   0  0  0  0  0  0  0  0  0  0  0  0
   -4.7085   97.7186   14.9807 O   0  0  0  0  0  0  0  0  0  0  0  0
   -5.4240   94.2067   14.3479 C   0  0  0  0  0  0  0  0  0  0  0  0
   -6.2125   93.4292   13.3898 C   0  0  0  0  0  0  0  0  0  0  0  0
   -6.1925   93.8383   11.9601 C   0  0  0  0  0  0  0  0  0  0  0  0
   -5.3810   92.8321   11.2545 N   0  0  0  0  0  0  0  0  0  0  0  0
   -5.9220   92.1223   10.1454 C   0  0  0  0  0  0  0  0  0  0  0  0
   -5.2946   91.0578    9.7106 N   0  0  0  0  0  0  0  0  0  0  0  0
   -7.1173   92.5725    9.5390 N   0  0  0  0  0  0  0  0  0  0  0  0
   -5.6374   96.4079   16.5952 N   0  0  0  0  0  0  0  0  0  0  0  0
   -6.9549   96.0354   17.0608 C   0  0  2  0  0  0  0  0  0  0  0  0
   -8.1046   96.5497   16.3319 C   0  0  0  0  0  0  0  0  0  0  0  0
   -8.1721   96.1759   15.0985 O   0  0  0  0  0  0  0  0  0  0  0  0
   -7.0061   96.2729   18.5543 C   0  0  0  0  0  0  0  0  0  0  0  0
   -5.5649   95.8421   18.8930 C   0  0  0  0  0  0  0  0  0  0  0  0
   -4.8709   96.6533   17.8189 C   0  0  0  0  0  0  0  0  0  0  0  0
   -9.1738   97.3784   16.6985 N   0  0  0  0  0  0  0  0  0  0  0  0
   -9.1912   98.7184   17.2424 C   0  0  2  0  0  0  0  0  0  0  0  0
   -7.9747   99.4704   17.2541 C   0  0  0  0  0  0  0  0  0  0  0  0
   -6.9490   99.1400   16.5541 O   0  0  0  0  0  0  0  0  0  0  0  0
   -9.9123   98.4872   18.5327 C   0  0  0  0  0  0  0  0  0  0  0  0
  -10.9217   97.4062   18.1253 C   0  0  0  0  0  0  0  0  0  0  0  0
  -10.6588   97.1791   16.6511 C   0  0  0  0  0  0  0  0  0  0  0  0
   -7.8120  100.6261   18.0318 N   0  0  0  0  0  0  0  0  0  0  0  0
   -8.6555  101.8321   17.9831 C   0  0  2  0  0  0  0  0  0  0  0  0
   -8.5345  102.5851   16.7583 C   0  0  0  0  0  0  0  0  0  0  0  0
   -9.5614  102.4840   15.9145 O   0  0  0  0  0  0  0  0  0  0  0  0
   -8.8319  102.5000   19.2943 C   0  0  2  0  0  0  0  0  0  0  0  0
   -8.3404  103.9142   19.3805 C   0  0  0  0  0  0  0  0  0  0  0  0
   -8.0802  101.7571   20.4202 C   0  0  0  0  0  0  0  0  0  0  0  0
   -6.9818  104.0709   18.7106 C   0  0  0  0  0  0  0  0  0  0  0  0
   -7.5625  103.4252   16.2168 N   0  0  0  0  0  0  0  0  0  0  0  0
   -6.8503  104.5465   16.6860 C   0  0  2  0  0  0  0  0  0  0  0  0
   -6.6422  105.6747   15.7566 C   0  0  0  0  0  0  0  0  0  0  0  0
   -5.4881  106.2310   15.9226 O   0  0  0  0  0  0  0  0  0  0  0  0
   -5.4416  103.9973   17.0470 C   0  0  0  0  0  0  0  0  0  0  0  0
   -4.5571  103.6561   15.5080 S   0  0  0  0  0  0  0  0  0  0  0  0
   -7.4347  106.2309   14.7652 N   0  0  0  0  0  0  0  0  0  0  0  0
   -8.7538  106.7778   14.7718 C   0  0  2  0  0  0  0  0  0  0  0  0
   -8.9318  108.2266   14.8157 C   0  0  0  0  0  0  0  0  0  0  0  0
  -10.0959  108.6030   14.3259 O   0  0  0  0  0  0  0  0  0  0  0  0
   -9.6142  106.1332   15.8617 C   0  0  0  0  0  0  0  0  0  0  0  0
  -10.0636  104.7805   15.4813 C   0  0  0  0  0  0  0  0  0  0  0  0
  -10.6231  103.9527   16.4203 C   0  0  0  0  0  0  0  0  0  0  0  0
   -9.9354  104.3325   14.1910 C   0  0  0  0  0  0  0  0  0  0  0  0
  -11.0569  102.6849   16.0925 C   0  0  0  0  0  0  0  0  0  0  0  0
  -10.3698  103.0673   13.8688 C   0  0  0  0  0  0  0  0  0  0  0  0
  -10.9407  102.2101   14.8056 C   0  0  0  0  0  0  0  0  0  0  0  0
   -8.1727  109.2941   15.2510 N   0  0  0  0  0  0  0  0  0  0  0  0
   -6.8897  109.8010   14.7402 C   0  0  2  0  0  0  0  0  0  0  0  0
   -6.4321  109.1065   13.5550 C   0  0  0  0  0  0  0  0  0  0  0  0
   -7.4485  108.6950   12.8280 O   0  0  0  0  0  0  0  0  0  0  0  0
   -6.0507  109.8202   15.9509 C   0  0  0  0  0  0  0  0  0  0  0  0
   -7.0754  109.9415   17.0949 C   0  0  0  0  0  0  0  0  0  0  0  0
   -8.3683  110.3036   16.3385 C   0  0  0  0  0  0  0  0  0  0  0  0
   -5.1462  108.8087   13.0708 N   0  0  0  0  0  0  0  0  0  0  0  0
   -4.1422  109.5871   12.4607 C   0  0  2  0  0  0  0  0  0  0  0  0
   -2.8703  108.7277   12.3023 C   0  0  0  0  0  0  0  0  0  0  0  0
   -2.7688  107.8411   13.1908 O   0  0  0  0  0  0  0  0  0  0  0  0
   -3.7530  110.8838   13.0790 C   0  0  0  0  0  0  0  0  0  0  0  0
   -2.5003  111.4787   12.6091 C   0  0  0  0  0  0  0  0  0  0  0  0
   -2.1385  112.5927   13.0205 O   0  0  0  0  0  0  0  0  0  0  0  0
   -1.6947  110.7850   11.6819 N   0  0  0  0  0  0  0  0  0  0  0  0
   -0.7617  109.5805   10.7803 O   0  0  0  0  0  0  0  0  0  0  0  0
   -4.8571  107.7887   11.7303 H   0  0  0  0  0  0  0  0  0  0  0  0
   -4.3265   90.8421   10.0288 H   0  0  0  0  0  0  0  0  0  0  0  0
  1  2  1  0
  1108  1  0
  1114  1  0
  2  3  1  0
  2114  1  1
  3  4  2  0
  3  5  1  0
  5  6  1  0
  6  7  1  0
  6  9  1  1
  7  8  2  0
  7 16  1  0
  9 10  1  0
 10 11  1  0
 11 12  1  0
 12 13  1  0
 13 14  2  0
 13 15  1  0
 17 16  1  1
 17 18  1  0
 17 20  1  0
 18 19  2  0
 18 22  1  0
 20 21  1  0
 21 87  1  0
 22 23  1  0
 23 24  1  0
 23 26  1  1
 24 25  2  0
 24 34  1  0
 26 27  1  0
 27 28  2  0
 27 29  1  0
 28 30  1  0
 29 31  2  0
 30 32  2  0
 31 32  1  0
 32 33  1  0
 34 35  1  0
 35 36  1  0
 35 38  1  6
 36 37  2  0
 36 43  1  0
 38 39  1  0
 39 40  1  0
 40 41  1  0
 41 42  1  0
 43 44  1  0
 44 45  1  0
 44 47  1  6
 45 46  2  0
 45 49  1  0
 47 48  1  0
 49 50  1  0
 50 51  1  0
 50 53  1  1
 51 52  2  0
 51 60  1  0
 53 54  1  0
 54 55  1  0
 55 56  1  0
 56 57  1  0
 57 58  2  0
 57 59  1  0
 60 61  1  0
 60 66  1  0
 61 62  1  0
 61 64  1  1
 62 63  2  0
 62 67  1  0
 64 65  1  0
 65 66  1  0
 67 68  1  0
 67 73  1  0
 68 69  1  0
 68 71  1  1
 69 70  2  0
 69 74  1  0
 71 72  1  0
 72 73  1  0
 75 74  1  1
 75 76  1  0
 75 78  1  0
 76 77  2  0
 76 82  1  0
 78 79  1  0
 78 80  1  1
 79 81  1  0
 83 82  1  6
 83 84  1  0
 83 86  1  0
 84 85  2  0
 84 88  1  0
 86 87  1  0
 88 89  1  0
 89 90  1  0
 89 92  1  1
 90 91  2  0
 90 99  1  0
 92 93  1  0
 93 94  2  0
 93 95  1  0
 94 96  1  0
 95 97  2  0
 96 98  2  0
 97 98  1  0
 99100  1  0
 99105  1  0
100101  1  0
100103  1  1
101102  2  0
101106  1  0
103104  1  0
104105  1  0
106107  1  0
107108  1  0
107110  1  1
108109  2  0
110111  1  0
111112  2  0
111113  1  0
 14115  1  0
 58116  1  0
M  CHG  1  42   1
M  END
$$$$
