
     RDKit          3D

116123  0  0  0  0  0  0  0  0999 V2000
   -8.0293   94.2773    8.0867 N   0  0  0  0  0  0  0  0  0  0  0  0
   -8.3148   93.4179    9.0237 C   0  0  2  0  0  0  0  0  0  0  0  0
   -7.4457   93.0534   10.1585 C   0  0  0  0  0  0  0  0  0  0  0  0
   -7.4187   91.7787   10.3636 O   0  0  0  0  0  0  0  0  0  0  0  0
   -6.6839   93.8291   11.0094 N   0  0  0  0  0  0  0  0  0  0  0  0
   -5.5967   94.7458   10.7282 C   0  0  2  0  0  0  0  0  0  0  0  0
   -6.0265   96.1556   10.8000 C   0  0  0  0  0  0  0  0  0  0  0  0
   -7.2967   96.3155   10.9654 O   0  0  0  0  0  0  0  0  0  0  0  0
   -4.8217   94.4533    9.4923 C   0  0  0  0  0  0  0  0  0  0  0  0
   -3.3341   94.6410    9.6820 C   0  0  0  0  0  0  0  0  0  0  0  0
   -2.6614   93.4932   10.3561 C   0  0  0  0  0  0  0  0  0  0  0  0
   -2.3035   92.5364    9.3006 N   0  0  0  0  0  0  0  0  0  0  0  0
   -2.2636   91.1413    9.5727 C   0  0  0  0  0  0  0  0  0  0  0  0
   -1.0798   90.6161    9.7434 N   0  0  0  0  0  0  0  0  0  0  0  0
   -3.4531   90.3793    9.6528 N   0  0  0  0  0  0  0  0  0  0  0  0
   -5.2434   97.2993   10.7120 N   0  0  0  0  0  0  0  0  0  0  0  0
   -4.0345   97.6203   11.4669 C   0  0  2  0  0  0  0  0  0  0  0  0
   -4.3743   98.4311   12.6551 C   0  0  0  0  0  0  0  0  0  0  0  0
   -4.4220   99.7031   12.4622 O   0  0  0  0  0  0  0  0  0  0  0  0
   -3.1304   98.5081   10.5871 C   0  0  0  0  0  0  0  0  0  0  0  0
   -4.0252   99.2637    9.2263 S   0  0  0  0  0  0  0  0  0  0  0  0
   -4.6529   97.9911   13.9587 N   0  0  0  0  0  0  0  0  0  0  0  0
   -3.8572   97.1700   14.8399 C   0  0  2  0  0  0  0  0  0  0  0  0
   -2.4088   97.5054   14.8260 C   0  0  0  0  0  0  0  0  0  0  0  0
   -1.8874   97.7380   13.6708 O   0  0  0  0  0  0  0  0  0  0  0  0
   -4.1022   95.6948   14.6074 C   0  0  0  0  0  0  0  0  0  0  0  0
   -4.2647   95.0279   15.9194 C   0  0  0  0  0  0  0  0  0  0  0  0
   -3.3469   95.0497   16.9236 C   0  0  0  0  0  0  0  0  0  0  0  0
   -5.4338   94.3008   16.1595 C   0  0  0  0  0  0  0  0  0  0  0  0
   -3.5559   94.3912   18.1138 C   0  0  0  0  0  0  0  0  0  0  0  0
   -5.6570   93.6382   17.3432 C   0  0  0  0  0  0  0  0  0  0  0  0
   -4.7139   93.6746   18.3437 C   0  0  0  0  0  0  0  0  0  0  0  0
   -4.9173   93.0052   19.5649 O   0  0  0  0  0  0  0  0  0  0  0  0
   -1.5508   97.5960   15.9195 N   0  0  0  0  0  0  0  0  0  0  0  0
   -1.6989   98.4310   17.1092 C   0  0  2  0  0  0  0  0  0  0  0  0
   -0.3260   98.8628   17.4683 C   0  0  0  0  0  0  0  0  0  0  0  0
    0.2291   98.2242   18.4288 O   0  0  0  0  0  0  0  0  0  0  0  0
   -2.2243   97.5183   18.2022 C   0  0  0  0  0  0  0  0  0  0  0  0
   -3.1201   96.4241   17.6278 C   0  0  0  0  0  0  0  0  0  0  0  0
   -3.2647   96.7066   16.1362 C   0  0  0  0  0  0  0  0  0  0  0  0
   -1.9606   97.1759   15.5445 C   0  0  0  0  0  0  0  0  0  0  0  0
   -1.4796   96.1532   14.6524 N   0  0  0  0  0  4  0  0  0  0  0  0
    0.4197   99.8872   16.8697 N   0  0  0  0  0  0  0  0  0  0  0  0
   -0.0262  101.2575   16.6069 C   0  0  2  0  0  0  0  0  0  0  0  0
   -1.2250  101.5933   17.3875 C   0  0  0  0  0  0  0  0  0  0  0  0
   -1.1237  101.0949   18.5891 O   0  0  0  0  0  0  0  0  0  0  0  0
   -0.0929  101.4829   15.1394 C   0  0  0  0  0  0  0  0  0  0  0  0
   -1.2009  100.7014   14.6952 O   0  0  0  0  0  0  0  0  0  0  0  0
   -2.3792  102.2908   17.1216 N   0  0  0  0  0  0  0  0  0  0  0  0
   -2.6271  103.7193   16.8899 C   0  0  2  0  0  0  0  0  0  0  0  0
   -2.5450  104.0645   15.4686 C   0  0  0  0  0  0  0  0  0  0  0  0
   -2.9047  103.0657   14.7096 O   0  0  0  0  0  0  0  0  0  0  0  0
   -2.0839  104.6366   17.8883 C   0  0  0  0  0  0  0  0  0  0  0  0
   -0.8752  105.4292   17.6538 C   0  0  0  0  0  0  0  0  0  0  0  0
   -0.2900  105.4391   16.2865 C   0  0  0  0  0  0  0  0  0  0  0  0
   -1.4154  105.2540   15.3548 N   0  0  0  0  0  0  0  0  0  0  0  0
   -1.1932  104.7061   14.0599 C   0  0  0  0  0  0  0  0  0  0  0  0
    0.0216  104.3469   13.7265 N   0  0  0  0  0  0  0  0  0  0  0  0
   -2.2775  104.5579   13.1647 N   0  0  0  0  0  0  0  0  0  0  0  0
   -2.1689  105.2197   14.7909 N   0  0  0  0  0  0  0  0  0  0  0  0
   -2.7264  106.5501   14.8927 C   0  0  2  0  0  0  0  0  0  0  0  0
   -4.1690  106.6737   15.0398 C   0  0  0  0  0  0  0  0  0  0  0  0
   -4.6506  106.1300   16.1065 O   0  0  0  0  0  0  0  0  0  0  0  0
   -2.1389  107.3884   13.7785 C   0  0  0  0  0  0  0  0  0  0  0  0
   -0.7153  106.7963   13.7877 C   0  0  0  0  0  0  0  0  0  0  0  0
   -1.1206  105.3372   13.7748 C   0  0  0  0  0  0  0  0  0  0  0  0
   -5.1603  107.2737   14.2513 N   0  0  0  0  0  0  0  0  0  0  0  0
   -5.5365  107.0539   12.8722 C   0  0  2  0  0  0  0  0  0  0  0  0
   -4.9962  105.9219   12.1852 C   0  0  0  0  0  0  0  0  0  0  0  0
   -4.4361  104.9415   12.7986 O   0  0  0  0  0  0  0  0  0  0  0  0
   -5.3178  108.4197   12.3017 C   0  0  0  0  0  0  0  0  0  0  0  0
   -5.7468  109.3097   13.4752 C   0  0  0  0  0  0  0  0  0  0  0  0
   -6.1751  108.3351   14.5527 C   0  0  0  0  0  0  0  0  0  0  0  0
   -5.0385  105.7986   10.7888 N   0  0  0  0  0  0  0  0  0  0  0  0
   -6.2477  105.8366    9.9494 C   0  0  2  0  0  0  0  0  0  0  0  0
   -7.1186  104.6992   10.1211 C   0  0  0  0  0  0  0  0  0  0  0  0
   -8.2379  104.9275   10.8080 O   0  0  0  0  0  0  0  0  0  0  0  0
   -6.0446  106.4697    8.6248 C   0  0  2  0  0  0  0  0  0  0  0  0
   -6.6889  107.8103    8.4337 C   0  0  0  0  0  0  0  0  0  0  0  0
   -6.6108  105.5990    7.4821 C   0  0  0  0  0  0  0  0  0  0  0  0
   -7.8392  108.0169    9.4100 C   0  0  0  0  0  0  0  0  0  0  0  0
   -7.0716  103.3615    9.7309 N   0  0  0  0  0  0  0  0  0  0  0  0
   -6.8483  102.6936    8.5108 C   0  0  2  0  0  0  0  0  0  0  0  0
   -7.6867  101.5188    8.1996 C   0  0  0  0  0  0  0  0  0  0  0  0
   -7.0236  100.6041    7.5730 O   0  0  0  0  0  0  0  0  0  0  0  0
   -5.3815  102.1865    8.6005 C   0  0  0  0  0  0  0  0  0  0  0  0
   -5.3335  100.7990    9.7580 S   0  0  0  0  0  0  0  0  0  0  0  0
   -9.0174  101.2241    8.4502 N   0  0  0  0  0  0  0  0  0  0  0  0
  -10.2361  101.8937    8.1252 C   0  0  2  0  0  0  0  0  0  0  0  0
  -11.0277  101.4350    6.9870 C   0  0  0  0  0  0  0  0  0  0  0  0
  -12.2977  101.7707    7.0927 O   0  0  0  0  0  0  0  0  0  0  0  0
  -10.0233  103.4054    8.0120 C   0  0  0  0  0  0  0  0  0  0  0  0
   -8.8342  103.7358    7.2037 C   0  0  0  0  0  0  0  0  0  0  0  0
   -8.7647  104.9346    6.5417 C   0  0  0  0  0  0  0  0  0  0  0  0
   -7.7838  102.8591    7.1050 C   0  0  0  0  0  0  0  0  0  0  0  0
   -7.6635  105.2726    5.7827 C   0  0  0  0  0  0  0  0  0  0  0  0
   -6.6874  103.2009    6.3469 C   0  0  0  0  0  0  0  0  0  0  0  0
   -6.5953  104.4120    5.6666 C   0  0  0  0  0  0  0  0  0  0  0  0
  -10.7615  100.7372    5.8262 N   0  0  0  0  0  0  0  0  0  0  0  0
  -10.3148   99.3466    5.6510 C   0  0  2  0  0  0  0  0  0  0  0  0
  -10.2376   98.6102    6.8952 C   0  0  0  0  0  0  0  0  0  0  0  0
  -11.1451   99.0318    7.7494 O   0  0  0  0  0  0  0  0  0  0  0  0
   -9.1132   99.5018    4.8130 C   0  0  0  0  0  0  0  0  0  0  0  0
   -9.3549  100.8374    4.0842 C   0  0  0  0  0  0  0  0  0  0  0  0
  -10.8438  101.1051    4.3778 C   0  0  0  0  0  0  0  0  0  0  0  0
   -9.3963   97.5703    7.3279 N   0  0  0  0  0  0  0  0  0  0  0  0
   -9.3306   96.1953    7.0261 C   0  0  2  0  0  0  0  0  0  0  0  0
   -8.0739   95.5965    7.6922 C   0  0  0  0  0  0  0  0  0  0  0  0
   -7.1432   96.4357    7.8169 O   0  0  0  0  0  0  0  0  0  0  0  0
   -9.3525   95.7630    5.6021 C   0  0  0  0  0  0  0  0  0  0  0  0
  -10.2002   94.6122    5.2843 C   0  0  0  0  0  0  0  0  0  0  0  0
  -11.0566   94.2183    6.0921 O   0  0  0  0  0  0  0  0  0  0  0  0
  -10.0468   93.9423    4.0524 N   0  0  0  0  0  0  0  0  0  0  0  0
   -7.6858   92.8903    7.8156 O   0  0  0  0  0  0  0  0  0  0  0  0
   -0.2884   90.8571    9.1118 H   0  0  0  0  0  0  0  0  0  0  0  0
    0.6565  105.0082   13.2319 H   0  0  0  0  0  0  0  0  0  0  0  0
  1  2  1  0
  1108  1  0
  1114  1  0
  2  3  1  0
  2114  1  6
  3  4  2  0
  3  5  1  0
  5  6  1  0
  6  7  1  0
  6  9  1  6
  7  8  2  0
  7 16  1  0
  9 10  1  0
 10 11  1  0
 11 12  1  0
 12 13  1  0
 13 14  2  0
 13 15  1  0
 17 16  1  6
 17 18  1  0
 17 20  1  0
 18 19  2  0
 18 22  1  0
 20 21  1  0
 21 87  1  0
 22 23  1  0
 23 24  1  0
 23 26  1  6
 24 25  2  0
 24 34  1  0
 26 27  1  0
 27 28  2  0
 27 29  1  0
 28 30  1  0
 29 31  2  0
 30 32  2  0
 31 32  1  0
 32 33  1  0
 34 35  1  0
 35 36  1  0
 35 38  1  1
 36 37  2  0
 36 43  1  0
 38 39  1  0
 39 40  1  0
 40 41  1  0
 41 42  1  0
 43 44  1  0
 44 45  1  0
 44 47  1  6
 45 46  2  0
 45 49  1  0
 47 48  1  0
 49 50  1  0
 50 51  1  0
 50 53  1  1
 51 52  2  0
 51 60  1  0
 53 54  1  0
 54 55  1  0
 55 56  1  0
 56 57  1  0
 57 58  2  0
 57 59  1  0
 60 61  1  0
 60 66  1  0
 61 62  1  0
 61 64  1  6
 62 63  2  0
 62 67  1  0
 64 65  1  0
 65 66  1  0
 67 68  1  0
 67 73  1  0
 68 69  1  0
 68 71  1  6
 69 70  2  0
 69 74  1  0
 71 72  1  0
 72 73  1  0
 75 74  1  6
 75 76  1  0
 75 78  1  0
 76 77  2  0
 76 82  1  0
 78 79  1  0
 78 80  1  6
 79 81  1  0
 83 82  1  1
 83 84  1  0
 83 86  1  0
 84 85  2  0
 84 88  1  0
 86 87  1  0
 88 89  1  0
 89 90  1  0
 89 92  1  6
 90 91  2  0
 90 99  1  0
 92 93  1  0
 93 94  2  0
 93 95  1  0
 94 96  1  0
 95 97  2  0
 96 98  2  0
 97 98  1  0
 99100  1  0
 99105  1  0
100101  1  0
100103  1  1
101102  2  0
101106  1  0
103104  1  0
104105  1  0
106107  1  0
107108  1  0
107110  1  6
108109  2  0
110111  1  0
111112  2  0
111113  1  0
 14115  1  0
 58116  1  0
M  CHG  1  42   1
M  END
$$$$
