
     RDKit          3D

116123  0  0  0  0  0  0  0  0999 V2000
   -3.9296  104.0195   19.1754 N   0  0  0  0  0  0  0  0  0  0  0  0
   -2.8290  103.5117   19.6539 C   0  0  2  0  0  0  0  0  0  0  0  0
   -2.5116  102.0748   19.7573 C   0  0  0  0  0  0  0  0  0  0  0  0
   -1.9836  101.7718   20.8961 O   0  0  0  0  0  0  0  0  0  0  0  0
   -2.6804  101.0371   18.8623 N   0  0  0  0  0  0  0  0  0  0  0  0
   -3.8801  100.5238   18.2311 C   0  0  2  0  0  0  0  0  0  0  0  0
   -3.9971  100.9576   16.8256 C   0  0  0  0  0  0  0  0  0  0  0  0
   -3.0987  101.8077   16.4560 O   0  0  0  0  0  0  0  0  0  0  0  0
   -5.1399  100.7336   18.9942 C   0  0  0  0  0  0  0  0  0  0  0  0
   -4.9836  100.4315   20.4669 C   0  0  0  0  0  0  0  0  0  0  0  0
   -3.5711  100.2119   20.8921 C   0  0  0  0  0  0  0  0  0  0  0  0
   -2.7823  101.3077   20.3134 N   0  0  0  0  0  0  0  0  0  0  0  0
   -1.6096  101.7774   20.9661 C   0  0  0  0  0  0  0  0  0  0  0  0
   -1.1398  101.0280   21.9274 N   0  0  0  0  0  0  0  0  0  0  0  0
   -0.9968  102.9927   20.5799 N   0  0  0  0  0  0  0  0  0  0  0  0
   -4.9371  100.5680   15.8803 N   0  0  0  0  0  0  0  0  0  0  0  0
   -5.3209   99.2100   15.5022 C   0  0  2  0  0  0  0  0  0  0  0  0
   -4.5453   98.7694   14.3237 C   0  0  0  0  0  0  0  0  0  0  0  0
   -5.0505   99.0793   13.1808 O   0  0  0  0  0  0  0  0  0  0  0  0
   -6.7989   99.2249   15.0608 C   0  0  0  0  0  0  0  0  0  0  0  0
   -7.3780  100.8756   14.6566 S   0  0  0  0  0  0  0  0  0  0  0  0
   -3.3329   98.0624   14.2940 N   0  0  0  0  0  0  0  0  0  0  0  0
   -2.9947   96.7948   14.8965 C   0  0  2  0  0  0  0  0  0  0  0  0
   -4.0649   95.7698   14.7763 C   0  0  0  0  0  0  0  0  0  0  0  0
   -5.2699   96.1748   14.9868 O   0  0  0  0  0  0  0  0  0  0  0  0
   -2.5219   96.9596   16.3247 C   0  0  0  0  0  0  0  0  0  0  0  0
   -3.3779   97.9645   16.9953 C   0  0  0  0  0  0  0  0  0  0  0  0
   -4.3494   98.6940   16.3826 C   0  0  0  0  0  0  0  0  0  0  0  0
   -3.1784   98.2112   18.3564 C   0  0  0  0  0  0  0  0  0  0  0  0
   -5.0974   99.6264   17.0645 C   0  0  0  0  0  0  0  0  0  0  0  0
   -3.9178   99.1390   19.0510 C   0  0  0  0  0  0  0  0  0  0  0  0
   -4.8945   99.8646   18.4096 C   0  0  0  0  0  0  0  0  0  0  0  0
   -5.6655  100.8204   19.0972 O   0  0  0  0  0  0  0  0  0  0  0  0
   -3.9133   94.4211   14.4630 N   0  0  0  0  0  0  0  0  0  0  0  0
   -3.2706   93.8402   13.2865 C   0  0  2  0  0  0  0  0  0  0  0  0
   -4.0675   92.6354   12.9493 C   0  0  0  0  0  0  0  0  0  0  0  0
   -3.5749   91.5148   13.3236 O   0  0  0  0  0  0  0  0  0  0  0  0
   -1.8887   93.4007   13.7347 C   0  0  0  0  0  0  0  0  0  0  0  0
   -0.9177   93.3398   12.5586 C   0  0  0  0  0  0  0  0  0  0  0  0
   -0.6119   94.7799   12.1608 C   0  0  0  0  0  0  0  0  0  0  0  0
   -1.7927   95.6779   12.4259 C   0  0  0  0  0  0  0  0  0  0  0  0
   -1.4447   97.0108   12.0071 N   0  0  0  0  0  4  0  0  0  0  0  0
   -5.2930   92.5975   12.2706 N   0  0  0  0  0  0  0  0  0  0  0  0
   -5.6150   93.2601   11.0047 C   0  0  2  0  0  0  0  0  0  0  0  0
   -4.4002   93.6706   10.2870 C   0  0  0  0  0  0  0  0  0  0  0  0
   -3.4890   92.7429   10.3942 O   0  0  0  0  0  0  0  0  0  0  0  0
   -6.6433   94.3065   11.2419 C   0  0  0  0  0  0  0  0  0  0  0  0
   -6.1187   95.4854   10.6330 O   0  0  0  0  0  0  0  0  0  0  0  0
   -4.0435   94.7823    9.5614 N   0  0  0  0  0  0  0  0  0  0  0  0
   -4.4932   95.2843    8.2571 C   0  0  2  0  0  0  0  0  0  0  0  0
   -5.6262   96.2038    8.3868 C   0  0  0  0  0  0  0  0  0  0  0  0
   -5.5887   96.8570    9.5159 O   0  0  0  0  0  0  0  0  0  0  0  0
   -4.4624   94.3274    7.1540 C   0  0  0  0  0  0  0  0  0  0  0  0
   -3.2130   93.8779    6.5368 C   0  0  0  0  0  0  0  0  0  0  0  0
   -2.0244   93.6799    7.4087 C   0  0  0  0  0  0  0  0  0  0  0  0
   -2.4144   92.6799    8.4169 N   0  0  0  0  0  0  0  0  0  0  0  0
   -2.0827   91.3077    8.2334 C   0  0  0  0  0  0  0  0  0  0  0  0
   -0.8247   90.9485    8.2980 N   0  0  0  0  0  0  0  0  0  0  0  0
   -3.1071   90.3643    7.9893 N   0  0  0  0  0  0  0  0  0  0  0  0
   -6.7039   96.5072    7.5610 N   0  0  0  0  0  0  0  0  0  0  0  0
   -6.6910   97.0067    6.2040 C   0  0  2  0  0  0  0  0  0  0  0  0
   -5.6801   97.9924    5.8515 C   0  0  0  0  0  0  0  0  0  0  0  0
   -4.4624   97.5805    5.9665 O   0  0  0  0  0  0  0  0  0  0  0  0
   -8.1046   97.4056    5.8405 C   0  0  0  0  0  0  0  0  0  0  0  0
   -8.8473   96.2764    6.5826 C   0  0  0  0  0  0  0  0  0  0  0  0
   -8.1245   96.4164    7.9059 C   0  0  0  0  0  0  0  0  0  0  0  0
   -5.7559   99.3178    5.4023 N   0  0  0  0  0  0  0  0  0  0  0  0
   -6.3783  100.4836    5.9899 C   0  0  2  0  0  0  0  0  0  0  0  0
   -6.8419  100.4070    7.3406 C   0  0  0  0  0  0  0  0  0  0  0  0
   -6.4803   99.4729    8.1455 O   0  0  0  0  0  0  0  0  0  0  0  0
   -7.3463  100.8570    4.9119 C   0  0  0  0  0  0  0  0  0  0  0  0
   -6.5471  100.5013    3.6516 C   0  0  0  0  0  0  0  0  0  0  0  0
   -5.2201   99.9930    4.1757 C   0  0  0  0  0  0  0  0  0  0  0  0
   -7.7268  101.3480    7.8869 N   0  0  0  0  0  0  0  0  0  0  0  0
   -7.5148  102.8036    7.9536 C   0  0  2  0  0  0  0  0  0  0  0  0
   -6.4619  103.2038    8.8552 C   0  0  0  0  0  0  0  0  0  0  0  0
   -5.3292  103.6048    8.2784 O   0  0  0  0  0  0  0  0  0  0  0  0
   -8.7533  103.6028    7.7982 C   0  0  2  0  0  0  0  0  0  0  0  0
   -8.8960  104.7760    8.7213 C   0  0  0  0  0  0  0  0  0  0  0  0
  -10.0176  102.7528    8.0502 C   0  0  0  0  0  0  0  0  0  0  0  0
   -8.4707  104.4205   10.1397 C   0  0  0  0  0  0  0  0  0  0  0  0
   -6.3329  103.2724   10.2418 N   0  0  0  0  0  0  0  0  0  0  0  0
   -7.0990  103.8371   11.2805 C   0  0  2  0  0  0  0  0  0  0  0  0
   -6.3848  104.5283   12.3723 C   0  0  0  0  0  0  0  0  0  0  0  0
   -6.9573  104.3458   13.5159 O   0  0  0  0  0  0  0  0  0  0  0  0
   -7.8423  102.6324   11.9230 C   0  0  0  0  0  0  0  0  0  0  0  0
   -6.6428  101.6706   12.8735 S   0  0  0  0  0  0  0  0  0  0  0  0
   -5.2437  105.3142   12.3958 N   0  0  0  0  0  0  0  0  0  0  0  0
   -4.8758  106.5095   11.7065 C   0  0  2  0  0  0  0  0  0  0  0  0
   -4.9844  107.7961   12.3888 C   0  0  0  0  0  0  0  0  0  0  0  0
   -4.1828  108.7058   11.8725 O   0  0  0  0  0  0  0  0  0  0  0  0
   -5.5747  106.6015   10.3475 C   0  0  0  0  0  0  0  0  0  0  0  0
   -4.8351  107.4615    9.4043 C   0  0  0  0  0  0  0  0  0  0  0  0
   -5.5008  108.4121    8.6741 C   0  0  0  0  0  0  0  0  0  0  0  0
   -3.4787  107.3299    9.2461 C   0  0  0  0  0  0  0  0  0  0  0  0
   -4.8348  109.2338    7.7885 C   0  0  0  0  0  0  0  0  0  0  0  0
   -2.8187  108.1519    8.3618 C   0  0  0  0  0  0  0  0  0  0  0  0
   -3.4741  109.1236    7.6103 C   0  0  0  0  0  0  0  0  0  0  0  0
   -5.7289  108.2862   13.4428 N   0  0  0  0  0  0  0  0  0  0  0  0
   -5.6996  107.9104   14.8647 C   0  0  2  0  0  0  0  0  0  0  0  0
   -4.6676  106.9448   15.1794 C   0  0  0  0  0  0  0  0  0  0  0  0
   -3.6218  107.1008   14.3964 O   0  0  0  0  0  0  0  0  0  0  0  0
   -7.1117  107.5927   15.1388 C   0  0  0  0  0  0  0  0  0  0  0  0
   -7.8748  108.4083   14.0777 C   0  0  0  0  0  0  0  0  0  0  0  0
   -6.7793  109.3481   13.5378 C   0  0  0  0  0  0  0  0  0  0  0  0
   -4.5954  105.9150   16.1337 N   0  0  0  0  0  0  0  0  0  0  0  0
   -4.4066  105.9071   17.5303 C   0  0  2  0  0  0  0  0  0  0  0  0
   -4.5894  104.4661   18.0515 C   0  0  0  0  0  0  0  0  0  0  0  0
   -5.3846  103.7911   17.3458 O   0  0  0  0  0  0  0  0  0  0  0  0
   -5.2253  106.8155   18.3785 C   0  0  0  0  0  0  0  0  0  0  0  0
   -4.5199  107.9396   18.9973 C   0  0  0  0  0  0  0  0  0  0  0  0
   -4.3929  109.0149   18.3901 O   0  0  0  0  0  0  0  0  0  0  0  0
   -3.9787  107.8050   20.2930 N   0  0  0  0  0  0  0  0  0  0  0  0
   -3.8989  103.7841   20.6103 O   0  0  0  0  0  0  0  0  0  0  0  0
   -0.3875  101.3723   22.5589 H   0  0  0  0  0  0  0  0  0  0  0  0
   -0.4003   90.6523    9.2020 H   0  0  0  0  0  0  0  0  0  0  0  0
  1  2  1  0
  1108  1  0
  1114  1  0
  2  3  1  0
  2114  1  1
  3  4  2  0
  3  5  1  0
  5  6  1  0
  6  7  1  0
  6  9  1  1
  7  8  2  0
  7 16  1  0
  9 10  1  0
 10 11  1  0
 11 12  1  0
 12 13  1  0
 13 14  2  0
 13 15  1  0
 17 16  1  6
 17 18  1  0
 17 20  1  0
 18 19  2  0
 18 22  1  0
 20 21  1  0
 21 87  1  0
 22 23  1  0
 23 24  1  0
 23 26  1  1
 24 25  2  0
 24 34  1  0
 26 27  1  0
 27 28  2  0
 27 29  1  0
 28 30  1  0
 29 31  2  0
 30 32  2  0
 31 32  1  0
 32 33  1  0
 34 35  1  0
 35 36  1  0
 35 38  1  1
 36 37  2  0
 36 43  1  0
 38 39  1  0
 39 40  1  0
 40 41  1  0
 41 42  1  0
 43 44  1  0
 44 45  1  0
 44 47  1  1
 45 46  2  0
 45 49  1  0
 47 48  1  0
 49 50  1  0
 50 51  1  0
 50 53  1  6
 51 52  2  0
 51 60  1  0
 53 54  1  0
 54 55  1  0
 55 56  1  0
 56 57  1  0
 57 58  2  0
 57 59  1  0
 60 61  1  0
 60 66  1  0
 61 62  1  0
 61 64  1  1
 62 63  2  0
 62 67  1  0
 64 65  1  0
 65 66  1  0
 67 68  1  0
 67 73  1  0
 68 69  1  0
 68 71  1  6
 69 70  2  0
 69 74  1  0
 71 72  1  0
 72 73  1  0
 75 74  1  1
 75 76  1  0
 75 78  1  0
 76 77  2  0
 76 82  1  0
 78 79  1  0
 78 80  1  1
 79 81  1  0
 83 82  1  6
 83 84  1  0
 83 86  1  0
 84 85  2  0
 84 88  1  0
 86 87  1  0
 88 89  1  0
 89 90  1  0
 89 92  1  6
 90 91  2  0
 90 99  1  0
 92 93  1  0
 93 94  2  0
 93 95  1  0
 94 96  1  0
 95 97  2  0
 96 98  2  0
 97 98  1  0
 99100  1  0
 99105  1  0
100101  1  0
100103  1  6
101102  2  0
101106  1  0
103104  1  0
104105  1  0
106107  1  0
107108  1  0
107110  1  1
108109  2  0
110111  1  0
111112  2  0
111113  1  0
 14115  1  0
 58116  1  0
M  CHG  1  42   1
M  END
$$$$
