
     RDKit          3D

116123  0  0  0  0  0  0  0  0999 V2000
  -11.3659   96.6060    7.0034 N   0  0  0  0  0  0  0  0  0  0  0  0
  -11.6070   95.4713    7.5969 C   0  0  2  0  0  0  0  0  0  0  0  0
  -10.5936   94.5166    8.0845 C   0  0  0  0  0  0  0  0  0  0  0  0
  -10.8893   93.2955    7.7862 O   0  0  0  0  0  0  0  0  0  0  0  0
   -9.4208   94.7113    8.7865 N   0  0  0  0  0  0  0  0  0  0  0  0
   -8.2422   95.4871    8.4543 C   0  0  2  0  0  0  0  0  0  0  0  0
   -8.1911   96.7632    9.1936 C   0  0  0  0  0  0  0  0  0  0  0  0
   -9.2486   97.0165    9.8889 O   0  0  0  0  0  0  0  0  0  0  0  0
   -7.9878   95.6661    6.9994 C   0  0  0  0  0  0  0  0  0  0  0  0
   -6.6490   95.1102    6.5717 C   0  0  0  0  0  0  0  0  0  0  0  0
   -6.5744   94.7613    5.1236 C   0  0  0  0  0  0  0  0  0  0  0  0
   -6.7361   93.3041    5.0331 N   0  0  0  0  0  0  0  0  0  0  0  0
   -6.7793   92.6588    3.7668 C   0  0  0  0  0  0  0  0  0  0  0  0
   -6.4702   91.3897    3.7504 N   0  0  0  0  0  0  0  0  0  0  0  0
   -7.1422   93.3688    2.5980 N   0  0  0  0  0  0  0  0  0  0  0  0
   -7.1643   97.6980    9.2261 N   0  0  0  0  0  0  0  0  0  0  0  0
   -5.7492   97.4683    9.5072 C   0  0  2  0  0  0  0  0  0  0  0  0
   -5.4678   97.7048   10.9388 C   0  0  0  0  0  0  0  0  0  0  0  0
   -5.1882   98.9212   11.2546 O   0  0  0  0  0  0  0  0  0  0  0  0
   -4.9210   98.5121    8.7300 C   0  0  0  0  0  0  0  0  0  0  0  0
   -5.9072   99.9167    8.2028 S   0  0  0  0  0  0  0  0  0  0  0  0
   -5.4700   96.7762   11.9915 N   0  0  0  0  0  0  0  0  0  0  0  0
   -4.7339   95.5419   12.1281 C   0  0  2  0  0  0  0  0  0  0  0  0
   -3.3222   95.6325   11.6703 C   0  0  0  0  0  0  0  0  0  0  0  0
   -3.1179   96.2763   10.5730 O   0  0  0  0  0  0  0  0  0  0  0  0
   -5.4647   94.3784   11.4937 C   0  0  0  0  0  0  0  0  0  0  0  0
   -4.5863   93.7670   10.4704 C   0  0  0  0  0  0  0  0  0  0  0  0
   -4.6326   92.4638   10.0819 C   0  0  0  0  0  0  0  0  0  0  0  0
   -3.6176   94.5661    9.8572 C   0  0  0  0  0  0  0  0  0  0  0  0
   -3.7719   91.9566    9.1353 C   0  0  0  0  0  0  0  0  0  0  0  0
   -2.7513   94.0739    8.9100 C   0  0  0  0  0  0  0  0  0  0  0  0
   -2.8171   92.7526    8.5336 C   0  0  0  0  0  0  0  0  0  0  0  0
   -1.9422   92.2234    7.5665 O   0  0  0  0  0  0  0  0  0  0  0  0
   -2.1954   95.0998   12.2920 N   0  0  0  0  0  0  0  0  0  0  0  0
   -1.7321   95.3289   13.6585 C   0  0  2  0  0  0  0  0  0  0  0  0
   -0.2510   95.3495   13.5807 C   0  0  0  0  0  0  0  0  0  0  0  0
    0.3443   94.2763   13.9446 O   0  0  0  0  0  0  0  0  0  0  0  0
   -2.1612   94.1127   14.4587 C   0  0  0  0  0  0  0  0  0  0  0  0
   -1.6887   92.8199   13.7990 C   0  0  0  0  0  0  0  0  0  0  0  0
   -1.1236   93.1992   12.4342 C   0  0  0  0  0  0  0  0  0  0  0  0
    0.1805   92.4911   12.1717 C   0  0  0  0  0  0  0  0  0  0  0  0
    0.4535   92.5640   10.7599 N   0  0  0  0  0  4  0  0  0  0  0  0
    0.5565   96.4118   13.1528 N   0  0  0  0  0  0  0  0  0  0  0  0
    0.4833   97.8044   13.6009 C   0  0  2  0  0  0  0  0  0  0  0  0
   -0.2767   97.9286   14.8524 C   0  0  0  0  0  0  0  0  0  0  0  0
    0.0188   96.9382   15.6489 O   0  0  0  0  0  0  0  0  0  0  0  0
    0.0598   98.6670   12.4672 C   0  0  0  0  0  0  0  0  0  0  0  0
   -1.3233   98.9297   12.6989 O   0  0  0  0  0  0  0  0  0  0  0  0
   -1.1951   98.8320   15.3321 N   0  0  0  0  0  0  0  0  0  0  0  0
   -1.0620  100.2332   15.7500 C   0  0  2  0  0  0  0  0  0  0  0  0
   -1.3010  101.1593   14.6404 C   0  0  0  0  0  0  0  0  0  0  0  0
   -2.1481  100.6679   13.7779 O   0  0  0  0  0  0  0  0  0  0  0  0
   -0.0023  100.5191   16.7137 C   0  0  0  0  0  0  0  0  0  0  0  0
   -0.2000  101.4088   17.8598 C   0  0  0  0  0  0  0  0  0  0  0  0
   -1.1238  100.9745   18.9414 C   0  0  0  0  0  0  0  0  0  0  0  0
   -2.4806  101.3297   18.4922 N   0  0  0  0  0  0  0  0  0  0  0  0
   -3.5941  101.1537   19.3615 C   0  0  0  0  0  0  0  0  0  0  0  0
   -3.6213  101.8120   20.4936 N   0  0  0  0  0  0  0  0  0  0  0  0
   -4.6433  100.2814   18.9907 N   0  0  0  0  0  0  0  0  0  0  0  0
   -0.8134  102.4265   14.3377 N   0  0  0  0  0  0  0  0  0  0  0  0
   -0.8932  103.6378   15.1236 C   0  0  2  0  0  0  0  0  0  0  0  0
   -2.1235  103.8925   15.8579 C   0  0  0  0  0  0  0  0  0  0  0  0
   -2.4105  103.0075   16.7523 O   0  0  0  0  0  0  0  0  0  0  0  0
   -0.4360  104.7887   14.2542 C   0  0  0  0  0  0  0  0  0  0  0  0
    0.6832  104.0533   13.4901 C   0  0  0  0  0  0  0  0  0  0  0  0
   -0.1239  102.8296   13.1100 C   0  0  0  0  0  0  0  0  0  0  0  0
   -3.0761  104.9187   15.7964 N   0  0  0  0  0  0  0  0  0  0  0  0
   -3.8876  105.3941   14.6977 C   0  0  2  0  0  0  0  0  0  0  0  0
   -3.9358  104.6212   13.4953 C   0  0  0  0  0  0  0  0  0  0  0  0
   -3.5398  103.4001   13.4400 O   0  0  0  0  0  0  0  0  0  0  0  0
   -3.4488  106.8225   14.6235 C   0  0  0  0  0  0  0  0  0  0  0  0
   -3.2290  107.1486   16.1064 C   0  0  0  0  0  0  0  0  0  0  0  0
   -3.5929  105.8704   16.8330 C   0  0  0  0  0  0  0  0  0  0  0  0
   -4.4203  105.1406   12.2860 N   0  0  0  0  0  0  0  0  0  0  0  0
   -5.7534  105.7251   12.0634 C   0  0  2  0  0  0  0  0  0  0  0  0
   -6.8335  104.7714   12.1383 C   0  0  0  0  0  0  0  0  0  0  0  0
   -7.5807  104.8308   13.2405 O   0  0  0  0  0  0  0  0  0  0  0  0
   -5.7683  106.8447   11.0923 C   0  0  2  0  0  0  0  0  0  0  0  0
   -4.8061  107.9619   11.3658 C   0  0  0  0  0  0  0  0  0  0  0  0
   -7.1514  107.5285   11.0293 C   0  0  0  0  0  0  0  0  0  0  0  0
   -4.8327  109.0016   10.2534 C   0  0  0  0  0  0  0  0  0  0  0  0
   -7.3041  103.7569   11.3058 N   0  0  0  0  0  0  0  0  0  0  0  0
   -7.6582  103.6779    9.9445 C   0  0  2  0  0  0  0  0  0  0  0  0
   -8.8614  102.9016    9.5847 C   0  0  0  0  0  0  0  0  0  0  0  0
   -8.7156  102.2758    8.4639 O   0  0  0  0  0  0  0  0  0  0  0  0
   -6.4508  102.9754    9.2623 C   0  0  0  0  0  0  0  0  0  0  0  0
   -6.4818  101.2272    9.7207 S   0  0  0  0  0  0  0  0  0  0  0  0
  -10.0847  102.7243   10.2114 N   0  0  0  0  0  0  0  0  0  0  0  0
  -11.0871  103.6388   10.6562 C   0  0  2  0  0  0  0  0  0  0  0  0
  -12.2766  103.8566    9.8376 C   0  0  0  0  0  0  0  0  0  0  0  0
  -13.2991  104.2918   10.5460 O   0  0  0  0  0  0  0  0  0  0  0  0
  -10.4760  104.9933   11.0241 C   0  0  0  0  0  0  0  0  0  0  0  0
   -9.7924  104.9532   12.3308 C   0  0  0  0  0  0  0  0  0  0  0  0
   -9.7681  103.7912   13.0583 C   0  0  0  0  0  0  0  0  0  0  0  0
   -9.1698  106.0670   12.8345 C   0  0  0  0  0  0  0  0  0  0  0  0
   -9.1323  103.7227   14.2806 C   0  0  0  0  0  0  0  0  0  0  0  0
   -8.5367  105.9937   14.0540 C   0  0  0  0  0  0  0  0  0  0  0  0
   -8.4994  104.8249   14.8096 C   0  0  0  0  0  0  0  0  0  0  0  0
  -12.5832  103.7185    8.4988 N   0  0  0  0  0  0  0  0  0  0  0  0
  -12.6436  102.5030    7.6725 C   0  0  2  0  0  0  0  0  0  0  0  0
  -12.4285  101.2869    8.4283 C   0  0  0  0  0  0  0  0  0  0  0  0
  -12.8767  101.4115    9.6590 O   0  0  0  0  0  0  0  0  0  0  0  0
  -11.7515  102.8376    6.5489 C   0  0  0  0  0  0  0  0  0  0  0  0
  -11.7862  104.3774    6.5104 C   0  0  0  0  0  0  0  0  0  0  0  0
  -12.9727  104.7008    7.4389 C   0  0  0  0  0  0  0  0  0  0  0  0
  -11.8477  100.0526    8.0885 N   0  0  0  0  0  0  0  0  0  0  0  0
  -12.2866   98.9630    7.3099 C   0  0  2  0  0  0  0  0  0  0  0  0
  -11.1285   97.9536    7.1644 C   0  0  0  0  0  0  0  0  0  0  0  0
   -9.9962   98.5030    7.2089 O   0  0  0  0  0  0  0  0  0  0  0  0
  -12.8528   99.2188    5.9574 C   0  0  0  0  0  0  0  0  0  0  0  0
  -14.1561   98.6151    5.6728 C   0  0  0  0  0  0  0  0  0  0  0  0
  -14.8275   98.1063    6.5846 O   0  0  0  0  0  0  0  0  0  0  0  0
  -14.6572   98.6090    4.3541 N   0  0  0  0  0  0  0  0  0  0  0  0
  -11.5471   95.4515    6.1376 O   0  0  0  0  0  0  0  0  0  0  0  0
   -6.1225   90.9098    4.6061 H   0  0  0  0  0  0  0  0  0  0  0  0
   -4.4959  101.8692   21.0565 H   0  0  0  0  0  0  0  0  0  0  0  0
  1  2  1  0
  1108  1  0
  1114  1  0
  2  3  1  0
  2114  1  6
  3  4  2  0
  3  5  1  0
  5  6  1  0
  6  7  1  0
  6  9  1  6
  7  8  2  0
  7 16  1  0
  9 10  1  0
 10 11  1  0
 11 12  1  0
 12 13  1  0
 13 14  2  0
 13 15  1  0
 17 16  1  1
 17 18  1  0
 17 20  1  0
 18 19  2  0
 18 22  1  0
 20 21  1  0
 21 87  1  0
 22 23  1  0
 23 24  1  0
 23 26  1  6
 24 25  2  0
 24 34  1  0
 26 27  1  0
 27 28  2  0
 27 29  1  0
 28 30  1  0
 29 31  2  0
 30 32  2  0
 31 32  1  0
 32 33  1  0
 34 35  1  0
 35 36  1  0
 35 38  1  1
 36 37  2  0
 36 43  1  0
 38 39  1  0
 39 40  1  0
 40 41  1  0
 41 42  1  0
 43 44  1  0
 44 45  1  0
 44 47  1  6
 45 46  2  0
 45 49  1  0
 47 48  1  0
 49 50  1  0
 50 51  1  0
 50 53  1  6
 51 52  2  0
 51 60  1  0
 53 54  1  0
 54 55  1  0
 55 56  1  0
 56 57  1  0
 57 58  2  0
 57 59  1  0
 60 61  1  0
 60 66  1  0
 61 62  1  0
 61 64  1  6
 62 63  2  0
 62 67  1  0
 64 65  1  0
 65 66  1  0
 67 68  1  0
 67 73  1  0
 68 69  1  0
 68 71  1  6
 69 70  2  0
 69 74  1  0
 71 72  1  0
 72 73  1  0
 75 74  1  6
 75 76  1  0
 75 78  1  0
 76 77  2  0
 76 82  1  0
 78 79  1  0
 78 80  1  1
 79 81  1  0
 83 82  1  1
 83 84  1  0
 83 86  1  0
 84 85  2  0
 84 88  1  0
 86 87  1  0
 88 89  1  0
 89 90  1  0
 89 92  1  6
 90 91  2  0
 90 99  1  0
 92 93  1  0
 93 94  2  0
 93 95  1  0
 94 96  1  0
 95 97  2  0
 96 98  2  0
 97 98  1  0
 99100  1  0
 99105  1  0
100101  1  0
100103  1  6
101102  2  0
101106  1  0
103104  1  0
104105  1  0
106107  1  0
107108  1  0
107110  1  6
108109  2  0
110111  1  0
111112  2  0
111113  1  0
 14115  1  0
 58116  1  0
M  CHG  1  42   1
M  END
$$$$
