
     RDKit          3D

116123  0  0  0  0  0  0  0  0999 V2000
   -2.7991  105.6370   17.5749 N   0  0  0  0  0  0  0  0  0  0  0  0
   -1.5069  105.5056   17.4692 C   0  0  2  0  0  0  0  0  0  0  0  0
   -0.7676  104.2303   17.4160 C   0  0  0  0  0  0  0  0  0  0  0  0
    0.2855  104.2444   18.1633 O   0  0  0  0  0  0  0  0  0  0  0  0
   -1.0105  103.0640   16.7181 N   0  0  0  0  0  0  0  0  0  0  0  0
   -2.1528  102.1721   16.7434 C   0  0  2  0  0  0  0  0  0  0  0  0
   -3.0219  102.3494   15.5641 C   0  0  0  0  0  0  0  0  0  0  0  0
   -2.6894  103.3379   14.8036 O   0  0  0  0  0  0  0  0  0  0  0  0
   -2.9228  102.1606   18.0163 C   0  0  0  0  0  0  0  0  0  0  0  0
   -2.4074  101.1327   18.9972 C   0  0  0  0  0  0  0  0  0  0  0  0
   -1.0320  100.6431   18.6924 C   0  0  0  0  0  0  0  0  0  0  0  0
   -0.8983   99.3324   19.3420 N   0  0  0  0  0  0  0  0  0  0  0  0
   -0.3202   99.2226   20.6363 C   0  0  0  0  0  0  0  0  0  0  0  0
   -0.7976   98.2831   21.4083 N   0  0  0  0  0  0  0  0  0  0  0  0
    0.7176  100.0916   21.0481 N   0  0  0  0  0  0  0  0  0  0  0  0
   -4.1267  101.5961   15.1884 N   0  0  0  0  0  0  0  0  0  0  0  0
   -4.2188  100.1447   15.0490 C   0  0  2  0  0  0  0  0  0  0  0  0
   -3.9763   99.7500   13.6454 C   0  0  0  0  0  0  0  0  0  0  0  0
   -5.0141   99.7478   12.8836 O   0  0  0  0  0  0  0  0  0  0  0  0
   -5.6645   99.7137   15.3713 C   0  0  0  0  0  0  0  0  0  0  0  0
   -6.8241  101.0815   15.2850 S   0  0  0  0  0  0  0  0  0  0  0  0
   -2.7635   99.3824   13.0415 N   0  0  0  0  0  0  0  0  0  0  0  0
   -1.8289   98.3476   13.4151 C   0  0  2  0  0  0  0  0  0  0  0  0
   -2.4774   97.0756   13.8295 C   0  0  0  0  0  0  0  0  0  0  0  0
   -3.5118   97.1833   14.5903 O   0  0  0  0  0  0  0  0  0  0  0  0
   -0.8285   98.8370   14.4400 C   0  0  0  0  0  0  0  0  0  0  0  0
   -1.4662   98.8109   15.7760 C   0  0  0  0  0  0  0  0  0  0  0  0
   -2.8084   98.7962   15.9987 C   0  0  0  0  0  0  0  0  0  0  0  0
   -0.6469   98.8195   16.9081 C   0  0  0  0  0  0  0  0  0  0  0  0
   -3.3342   98.7903   17.2705 C   0  0  0  0  0  0  0  0  0  0  0  0
   -1.1573   98.8134   18.1846 C   0  0  0  0  0  0  0  0  0  0  0  0
   -2.5181   98.7988   18.3845 C   0  0  0  0  0  0  0  0  0  0  0  0
   -3.0666   98.7924   19.6805 O   0  0  0  0  0  0  0  0  0  0  0  0
   -2.0936   95.7804   13.4898 N   0  0  0  0  0  0  0  0  0  0  0  0
   -1.9201   95.2178   12.1527 C   0  0  2  0  0  0  0  0  0  0  0  0
   -2.3854   93.8125   12.2465 C   0  0  0  0  0  0  0  0  0  0  0  0
   -1.4691   92.9241   12.3449 O   0  0  0  0  0  0  0  0  0  0  0  0
   -0.4261   95.2197   11.8850 C   0  0  0  0  0  0  0  0  0  0  0  0
   -0.0064   96.4550   11.0928 C   0  0  0  0  0  0  0  0  0  0  0  0
   -0.7769   96.4213    9.7772 C   0  0  0  0  0  0  0  0  0  0  0  0
   -0.2152   95.3775    8.8466 C   0  0  0  0  0  0  0  0  0  0  0  0
    0.2898   96.0462    7.6759 N   0  0  0  0  0  4  0  0  0  0  0  0
   -3.7120   93.3609   12.2398 N   0  0  0  0  0  0  0  0  0  0  0  0
   -4.7570   93.7245   11.2799 C   0  0  2  0  0  0  0  0  0  0  0  0
   -4.1879   94.3234   10.0648 C   0  0  0  0  0  0  0  0  0  0  0  0
   -3.0997   93.6877    9.7269 O   0  0  0  0  0  0  0  0  0  0  0  0
   -5.8212   94.4941   11.9755 C   0  0  0  0  0  0  0  0  0  0  0  0
   -5.7312   95.8145   11.4424 O   0  0  0  0  0  0  0  0  0  0  0  0
   -4.5498   95.3701    9.2505 N   0  0  0  0  0  0  0  0  0  0  0  0
   -5.6719   95.5418    8.3193 C   0  0  2  0  0  0  0  0  0  0  0  0
   -6.8353   96.1475    8.9716 C   0  0  0  0  0  0  0  0  0  0  0  0
   -6.4815   96.9472    9.9402 O   0  0  0  0  0  0  0  0  0  0  0  0
   -5.8665   94.4734    7.3426 C   0  0  0  0  0  0  0  0  0  0  0  0
   -5.6009   93.0669    7.6514 C   0  0  0  0  0  0  0  0  0  0  0  0
   -4.4033   92.7361    8.4690 C   0  0  0  0  0  0  0  0  0  0  0  0
   -3.4749   92.0268    7.5724 N   0  0  0  0  0  0  0  0  0  0  0  0
   -2.6313   90.9985    8.0797 C   0  0  0  0  0  0  0  0  0  0  0  0
   -2.6855   89.8100    7.5316 N   0  0  0  0  0  0  0  0  0  0  0  0
   -1.7555   91.2752    9.1547 N   0  0  0  0  0  0  0  0  0  0  0  0
   -8.2064   96.0383    8.7629 N   0  0  0  0  0  0  0  0  0  0  0  0
   -8.9638   96.3188    7.5634 C   0  0  2  0  0  0  0  0  0  0  0  0
   -8.5693   97.4684    6.7630 C   0  0  0  0  0  0  0  0  0  0  0  0
   -7.3735   97.4054    6.2817 O   0  0  0  0  0  0  0  0  0  0  0  0
  -10.4336   96.2825    7.9208 C   0  0  0  0  0  0  0  0  0  0  0  0
  -10.3826   95.1222    8.9349 C   0  0  0  0  0  0  0  0  0  0  0  0
   -9.2132   95.6368    9.7479 C   0  0  0  0  0  0  0  0  0  0  0  0
   -9.2311   98.6486    6.3976 N   0  0  0  0  0  0  0  0  0  0  0  0
   -9.8301   99.6883    7.2050 C   0  0  2  0  0  0  0  0  0  0  0  0
   -9.5789   99.6947    8.6129 C   0  0  0  0  0  0  0  0  0  0  0  0
   -8.6310   99.0142    9.1508 O   0  0  0  0  0  0  0  0  0  0  0  0
  -11.2452   99.6371    6.7218 C   0  0  0  0  0  0  0  0  0  0  0  0
  -11.0455   99.3175    5.2347 C   0  0  0  0  0  0  0  0  0  0  0  0
   -9.5424   99.2507    5.0604 C   0  0  0  0  0  0  0  0  0  0  0  0
  -10.3503  100.4462    9.5113 N   0  0  0  0  0  0  0  0  0  0  0  0
  -10.5736  101.9007    9.4595 C   0  0  2  0  0  0  0  0  0  0  0  0
   -9.3971  102.6866    9.7426 C   0  0  0  0  0  0  0  0  0  0  0  0
   -8.8297  103.2762    8.6904 O   0  0  0  0  0  0  0  0  0  0  0  0
  -11.9201  102.3223    9.9131 C   0  0  2  0  0  0  0  0  0  0  0  0
  -12.1057  102.4363   11.3968 C   0  0  0  0  0  0  0  0  0  0  0  0
  -13.0130  101.3305    9.4589 C   0  0  0  0  0  0  0  0  0  0  0  0
  -11.0320  101.6633   12.1509 C   0  0  0  0  0  0  0  0  0  0  0  0
   -8.6756  102.9895   10.8965 N   0  0  0  0  0  0  0  0  0  0  0  0
   -9.0108  103.4845   12.1721 C   0  0  2  0  0  0  0  0  0  0  0  0
   -8.1178  104.4892   12.7829 C   0  0  0  0  0  0  0  0  0  0  0  0
   -8.0213  104.3361   14.0621 O   0  0  0  0  0  0  0  0  0  0  0  0
   -8.9834  102.2374   13.0997 C   0  0  0  0  0  0  0  0  0  0  0  0
   -7.2581  101.7674   13.3633 S   0  0  0  0  0  0  0  0  0  0  0  0
   -7.3831  105.5370   12.2511 N   0  0  0  0  0  0  0  0  0  0  0  0
   -7.7440  106.6717   11.4628 C   0  0  2  0  0  0  0  0  0  0  0  0
   -7.9046  107.9729   12.1059 C   0  0  0  0  0  0  0  0  0  0  0  0
   -7.7380  108.9720   11.2628 O   0  0  0  0  0  0  0  0  0  0  0  0
   -8.9783  106.3796   10.6057 C   0  0  0  0  0  0  0  0  0  0  0  0
   -8.6164  106.0281    9.2194 C   0  0  0  0  0  0  0  0  0  0  0  0
   -9.0614  106.7990    8.1764 C   0  0  0  0  0  0  0  0  0  0  0  0
   -7.8305  104.9360    8.9519 C   0  0  0  0  0  0  0  0  0  0  0  0
   -8.7347  106.4975    6.8705 C   0  0  0  0  0  0  0  0  0  0  0  0
   -7.5071  104.6395    7.6477 C   0  0  0  0  0  0  0  0  0  0  0  0
   -7.9476  105.4079    6.5735 C   0  0  0  0  0  0  0  0  0  0  0  0
   -8.1925  108.4046   13.3850 N   0  0  0  0  0  0  0  0  0  0  0  0
   -7.4068  108.2626   14.6204 C   0  0  2  0  0  0  0  0  0  0  0  0
   -6.1113  107.6524   14.4067 C   0  0  0  0  0  0  0  0  0  0  0  0
   -5.6383  107.9551   13.2169 O   0  0  0  0  0  0  0  0  0  0  0  0
   -8.3716  107.6361   15.5407 C   0  0  0  0  0  0  0  0  0  0  0  0
   -9.7382  108.0625   14.9714 C   0  0  0  0  0  0  0  0  0  0  0  0
   -9.3448  109.1624   13.9664 C   0  0  0  0  0  0  0  0  0  0  0  0
   -5.3094  106.8280   15.2153 N   0  0  0  0  0  0  0  0  0  0  0  0
   -4.5105  107.0746   16.3497 C   0  0  2  0  0  0  0  0  0  0  0  0
   -3.9985  105.7282   16.9031 C   0  0  0  0  0  0  0  0  0  0  0  0
   -4.7877  104.7749   16.6699 O   0  0  0  0  0  0  0  0  0  0  0  0
   -5.0787  107.8564   17.4815 C   0  0  0  0  0  0  0  0  0  0  0  0
   -4.5797  107.5241   18.8174 C   0  0  0  0  0  0  0  0  0  0  0  0
   -3.5339  108.0383   19.2453 O   0  0  0  0  0  0  0  0  0  0  0  0
   -5.2887  106.6132   19.6283 N   0  0  0  0  0  0  0  0  0  0  0  0
   -2.0478  105.6313   18.8202 O   0  0  0  0  0  0  0  0  0  0  0  0
   -0.2103   97.4735   21.6963 H   0  0  0  0  0  0  0  0  0  0  0  0
   -2.0114   89.0648    7.8062 H   0  0  0  0  0  0  0  0  0  0  0  0
  1  2  1  0
  1108  1  0
  1114  1  0
  2  3  1  0
  2114  1  1
  3  4  2  0
  3  5  1  0
  5  6  1  0
  6  7  1  0
  6  9  1  1
  7  8  2  0
  7 16  1  0
  9 10  1  0
 10 11  1  0
 11 12  1  0
 12 13  1  0
 13 14  2  0
 13 15  1  0
 17 16  1  6
 17 18  1  0
 17 20  1  0
 18 19  2  0
 18 22  1  0
 20 21  1  0
 21 87  1  0
 22 23  1  0
 23 24  1  0
 23 26  1  1
 24 25  2  0
 24 34  1  0
 26 27  1  0
 27 28  2  0
 27 29  1  0
 28 30  1  0
 29 31  2  0
 30 32  2  0
 31 32  1  0
 32 33  1  0
 34 35  1  0
 35 36  1  0
 35 38  1  1
 36 37  2  0
 36 43  1  0
 38 39  1  0
 39 40  1  0
 40 41  1  0
 41 42  1  0
 43 44  1  0
 44 45  1  0
 44 47  1  1
 45 46  2  0
 45 49  1  0
 47 48  1  0
 49 50  1  0
 50 51  1  0
 50 53  1  1
 51 52  2  0
 51 60  1  0
 53 54  1  0
 54 55  1  0
 55 56  1  0
 56 57  1  0
 57 58  2  0
 57 59  1  0
 60 61  1  0
 60 66  1  0
 61 62  1  0
 61 64  1  1
 62 63  2  0
 62 67  1  0
 64 65  1  0
 65 66  1  0
 67 68  1  0
 67 73  1  0
 68 69  1  0
 68 71  1  1
 69 70  2  0
 69 74  1  0
 71 72  1  0
 72 73  1  0
 75 74  1  1
 75 76  1  0
 75 78  1  0
 76 77  2  0
 76 82  1  0
 78 79  1  0
 78 80  1  1
 79 81  1  0
 83 82  1  6
 83 84  1  0
 83 86  1  0
 84 85  2  0
 84 88  1  0
 86 87  1  0
 88 89  1  0
 89 90  1  0
 89 92  1  1
 90 91  2  0
 90 99  1  0
 92 93  1  0
 93 94  2  0
 93 95  1  0
 94 96  1  0
 95 97  2  0
 96 98  2  0
 97 98  1  0
 99100  1  0
 99105  1  0
100101  1  0
100103  1  1
101102  2  0
101106  1  0
103104  1  0
104105  1  0
106107  1  0
107108  1  0
107110  1  1
108109  2  0
110111  1  0
111112  2  0
111113  1  0
 14115  1  0
 58116  1  0
M  CHG  1  42   1
M  END
$$$$
