
     RDKit          3D

116123  0  0  0  0  0  0  0  0999 V2000
   -9.5356   95.3868   14.4940 N   0  0  0  0  0  0  0  0  0  0  0  0
   -8.7511   94.6834   15.2606 C   0  0  2  0  0  0  0  0  0  0  0  0
   -7.3252   94.3985   15.0121 C   0  0  0  0  0  0  0  0  0  0  0  0
   -7.0263   93.1636   15.2425 O   0  0  0  0  0  0  0  0  0  0  0  0
   -6.2931   95.2122   14.5891 N   0  0  0  0  0  0  0  0  0  0  0  0
   -6.1446   95.9907   13.3754 C   0  0  2  0  0  0  0  0  0  0  0  0
   -6.3824   97.4288   13.6056 C   0  0  0  0  0  0  0  0  0  0  0  0
   -6.8020   97.7140   14.7926 O   0  0  0  0  0  0  0  0  0  0  0  0
   -6.8897   95.4765   12.1948 C   0  0  0  0  0  0  0  0  0  0  0  0
   -5.9838   94.8237   11.1761 C   0  0  0  0  0  0  0  0  0  0  0  0
   -5.0251   93.8424   11.7611 C   0  0  0  0  0  0  0  0  0  0  0  0
   -5.6255   92.5130   11.5880 N   0  0  0  0  0  0  0  0  0  0  0  0
   -4.8499   91.4281   11.0950 C   0  0  0  0  0  0  0  0  0  0  0  0
   -5.4064   90.2472   11.1422 N   0  0  0  0  0  0  0  0  0  0  0  0
   -3.5476   91.6357   10.5823 N   0  0  0  0  0  0  0  0  0  0  0  0
   -6.2121   98.4822   12.7165 N   0  0  0  0  0  0  0  0  0  0  0  0
   -5.0338   98.7968   11.9121 C   0  0  2  0  0  0  0  0  0  0  0  0
   -4.1836   99.7807   12.6147 C   0  0  0  0  0  0  0  0  0  0  0  0
   -4.4804  101.0164   12.4083 O   0  0  0  0  0  0  0  0  0  0  0  0
   -5.4992   99.4842   10.6119 C   0  0  0  0  0  0  0  0  0  0  0  0
   -7.1705  100.1282   10.7361 S   0  0  0  0  0  0  0  0  0  0  0  0
   -3.1016   99.5388   13.4757 N   0  0  0  0  0  0  0  0  0  0  0  0
   -1.8980   98.7760   13.2452 C   0  0  2  0  0  0  0  0  0  0  0  0
   -1.3050   98.9849   11.8978 C   0  0  0  0  0  0  0  0  0  0  0  0
   -2.1311   99.0210   10.9096 O   0  0  0  0  0  0  0  0  0  0  0  0
   -2.0935   97.3086   13.5598 C   0  0  0  0  0  0  0  0  0  0  0  0
   -2.3770   97.1668   15.0062 C   0  0  0  0  0  0  0  0  0  0  0  0
   -3.3005   97.8915   15.6940 C   0  0  0  0  0  0  0  0  0  0  0  0
   -1.6396   96.2365   15.7438 C   0  0  0  0  0  0  0  0  0  0  0  0
   -3.5000   97.7200   17.0448 C   0  0  0  0  0  0  0  0  0  0  0  0
   -1.8278   96.0537   17.0933 C   0  0  0  0  0  0  0  0  0  0  0  0
   -2.7675   96.7987   17.7671 C   0  0  0  0  0  0  0  0  0  0  0  0
   -2.9800   96.6313   19.1482 O   0  0  0  0  0  0  0  0  0  0  0  0
    0.0421   99.1453   11.5820 N   0  0  0  0  0  0  0  0  0  0  0  0
    0.9754  100.1373   12.1102 C   0  0  2  0  0  0  0  0  0  0  0  0
    1.8617  100.4964   10.9763 C   0  0  0  0  0  0  0  0  0  0  0  0
    3.0166   99.9442   10.9709 O   0  0  0  0  0  0  0  0  0  0  0  0
    1.7993   99.4216   13.1650 C   0  0  0  0  0  0  0  0  0  0  0  0
    1.9259   97.9327   12.8536 C   0  0  0  0  0  0  0  0  0  0  0  0
    0.8628   97.6057   11.8102 C   0  0  0  0  0  0  0  0  0  0  0  0
    1.4600   96.8654   10.6413 C   0  0  0  0  0  0  0  0  0  0  0  0
    0.8961   95.5409   10.6145 N   0  0  0  0  0  4  0  0  0  0  0  0
    1.5680  101.3686    9.9195 N   0  0  0  0  0  0  0  0  0  0  0  0
    1.0266  102.7253   10.0271 C   0  0  2  0  0  0  0  0  0  0  0  0
    1.1751  103.2584   11.3883 C   0  0  0  0  0  0  0  0  0  0  0  0
    2.3363  102.9139   11.8735 O   0  0  0  0  0  0  0  0  0  0  0  0
   -0.3355  102.7626    9.4339 C   0  0  0  0  0  0  0  0  0  0  0  0
   -1.1776  102.1379   10.4015 O   0  0  0  0  0  0  0  0  0  0  0  0
    0.3762  104.0091   12.2176 N   0  0  0  0  0  0  0  0  0  0  0  0
   -0.0556  105.4109   12.1534 C   0  0  2  0  0  0  0  0  0  0  0  0
   -1.3211  105.5602   11.4308 C   0  0  0  0  0  0  0  0  0  0  0  0
   -2.0772  104.5046   11.5618 O   0  0  0  0  0  0  0  0  0  0  0  0
    1.0017  106.4019   11.9704 C   0  0  0  0  0  0  0  0  0  0  0  0
    1.8250  106.4601   10.7609 C   0  0  0  0  0  0  0  0  0  0  0  0
    1.8598  105.2689    9.8710 C   0  0  0  0  0  0  0  0  0  0  0  0
    1.0157  104.2482   10.5147 N   0  0  0  0  0  0  0  0  0  0  0  0
    1.0400  104.0834   11.9285 C   0  0  0  0  0  0  0  0  0  0  0  0
    0.7822  102.9014   12.4307 N   0  0  0  0  0  0  0  0  0  0  0  0
    1.3416  105.1874   12.7590 N   0  0  0  0  0  0  0  0  0  0  0  0
   -1.8578  106.5821   10.6543 N   0  0  0  0  0  0  0  0  0  0  0  0
   -2.1181  107.9562   11.0221 C   0  0  2  0  0  0  0  0  0  0  0  0
   -2.6264  108.2176   12.3604 C   0  0  0  0  0  0  0  0  0  0  0  0
   -1.8369  107.8593   13.3164 O   0  0  0  0  0  0  0  0  0  0  0  0
   -2.9277  108.5906    9.9124 C   0  0  0  0  0  0  0  0  0  0  0  0
   -2.2497  107.8882    8.7190 C   0  0  0  0  0  0  0  0  0  0  0  0
   -2.3198  106.4787    9.2682 C   0  0  0  0  0  0  0  0  0  0  0  0
   -3.8144  108.7904   12.8345 N   0  0  0  0  0  0  0  0  0  0  0  0
   -5.1965  108.4251   12.6146 C   0  0  2  0  0  0  0  0  0  0  0  0
   -5.4841  107.1723   11.9876 C   0  0  0  0  0  0  0  0  0  0  0  0
   -4.6103  106.2368   11.8754 O   0  0  0  0  0  0  0  0  0  0  0  0
   -5.7229  109.6821   11.9969 C   0  0  0  0  0  0  0  0  0  0  0  0
   -4.9312  110.7498   12.7627 C   0  0  0  0  0  0  0  0  0  0  0  0
   -4.0738  109.9627   13.7321 C   0  0  0  0  0  0  0  0  0  0  0  0
   -6.7436  106.8724   11.4486 N   0  0  0  0  0  0  0  0  0  0  0  0
   -8.0268  106.9014   12.1701 C   0  0  2  0  0  0  0  0  0  0  0  0
   -8.1611  105.8725   13.1727 C   0  0  0  0  0  0  0  0  0  0  0  0
   -8.0530  106.2806   14.4370 O   0  0  0  0  0  0  0  0  0  0  0  0
   -9.1763  107.3376   11.3424 C   0  0  2  0  0  0  0  0  0  0  0  0
   -9.7305  106.3124   10.3987 C   0  0  0  0  0  0  0  0  0  0  0  0
   -8.8099  108.5377   10.4423 C   0  0  0  0  0  0  0  0  0  0  0  0
   -8.6776  105.2783   10.0226 C   0  0  0  0  0  0  0  0  0  0  0  0
   -8.3816  104.4962   13.1406 N   0  0  0  0  0  0  0  0  0  0  0  0
   -9.3230  103.6589   12.5101 C   0  0  2  0  0  0  0  0  0  0  0  0
   -9.8726  102.5275   13.2833 C   0  0  0  0  0  0  0  0  0  0  0  0
  -10.0701  101.4871   12.5434 O   0  0  0  0  0  0  0  0  0  0  0  0
   -8.5607  103.0475   11.3011 C   0  0  0  0  0  0  0  0  0  0  0  0
   -7.3901  101.8232   11.9321 S   0  0  0  0  0  0  0  0  0  0  0  0
  -10.2054  102.3798   14.6204 N   0  0  0  0  0  0  0  0  0  0  0  0
  -11.0831  103.1006   15.4860 C   0  0  2  0  0  0  0  0  0  0  0  0
  -12.4114  102.5653   15.7719 C   0  0  0  0  0  0  0  0  0  0  0  0
  -12.8986  103.0164   16.9102 O   0  0  0  0  0  0  0  0  0  0  0  0
  -11.2142  104.5617   15.0486 C   0  0  0  0  0  0  0  0  0  0  0  0
  -10.8014  105.4953   16.1137 C   0  0  0  0  0  0  0  0  0  0  0  0
  -10.4474  106.7824   15.8003 C   0  0  0  0  0  0  0  0  0  0  0  0
  -10.7695  105.0970   17.4261 C   0  0  0  0  0  0  0  0  0  0  0  0
  -10.0622  107.6786   16.7756 C   0  0  0  0  0  0  0  0  0  0  0  0
  -10.3848  105.9947   18.3954 C   0  0  0  0  0  0  0  0  0  0  0  0
  -10.0214  107.3059   18.1002 C   0  0  0  0  0  0  0  0  0  0  0  0
  -13.2784  101.7026   15.1320 N   0  0  0  0  0  0  0  0  0  0  0  0
  -13.1274  100.2687   14.8403 C   0  0  2  0  0  0  0  0  0  0  0  0
  -11.9192   99.6966   15.3964 C   0  0  0  0  0  0  0  0  0  0  0  0
  -11.5846  100.2998   16.5167 O   0  0  0  0  0  0  0  0  0  0  0  0
  -13.3660  100.2129   13.3876 C   0  0  0  0  0  0  0  0  0  0  0  0
  -14.2329  101.4579   13.1190 C   0  0  0  0  0  0  0  0  0  0  0  0
  -14.6419  101.8846   14.5422 C   0  0  0  0  0  0  0  0  0  0  0  0
  -11.0798   98.6554   14.9633 N   0  0  0  0  0  0  0  0  0  0  0  0
  -11.2099   97.2522   14.9569 C   0  0  2  0  0  0  0  0  0  0  0  0
  -10.0156   96.6426   14.1929 C   0  0  0  0  0  0  0  0  0  0  0  0
   -9.5655   97.4104   13.3019 O   0  0  0  0  0  0  0  0  0  0  0  0
  -12.4601   96.6416   14.4285 C   0  0  0  0  0  0  0  0  0  0  0  0
  -12.9107   95.4116   15.0827 C   0  0  0  0  0  0  0  0  0  0  0  0
  -12.4149   95.0548   16.1635 O   0  0  0  0  0  0  0  0  0  0  0  0
  -13.9154   94.6224   14.4847 N   0  0  0  0  0  0  0  0  0  0  0  0
   -9.5159   93.9526   14.2534 O   0  0  0  0  0  0  0  0  0  0  0  0
   -4.9073   89.4032   10.7930 H   0  0  0  0  0  0  0  0  0  0  0  0
    1.5038  102.1503   12.4242 H   0  0  0  0  0  0  0  0  0  0  0  0
  1  2  1  0
  1108  1  0
  1114  1  0
  2  3  1  0
  2114  1  6
  3  4  2  0
  3  5  1  0
  5  6  1  0
  6  7  1  0
  6  9  1  6
  7  8  2  0
  7 16  1  0
  9 10  1  0
 10 11  1  0
 11 12  1  0
 12 13  1  0
 13 14  2  0
 13 15  1  0
 17 16  1  1
 17 18  1  0
 17 20  1  0
 18 19  2  0
 18 22  1  0
 20 21  1  0
 21 87  1  0
 22 23  1  0
 23 24  1  0
 23 26  1  6
 24 25  2  0
 24 34  1  0
 26 27  1  0
 27 28  2  0
 27 29  1  0
 28 30  1  0
 29 31  2  0
 30 32  2  0
 31 32  1  0
 32 33  1  0
 34 35  1  0
 35 36  1  0
 35 38  1  1
 36 37  2  0
 36 43  1  0
 38 39  1  0
 39 40  1  0
 40 41  1  0
 41 42  1  0
 43 44  1  0
 44 45  1  0
 44 47  1  1
 45 46  2  0
 45 49  1  0
 47 48  1  0
 49 50  1  0
 50 51  1  0
 50 53  1  6
 51 52  2  0
 51 60  1  0
 53 54  1  0
 54 55  1  0
 55 56  1  0
 56 57  1  0
 57 58  2  0
 57 59  1  0
 60 61  1  0
 60 66  1  0
 61 62  1  0
 61 64  1  6
 62 63  2  0
 62 67  1  0
 64 65  1  0
 65 66  1  0
 67 68  1  0
 67 73  1  0
 68 69  1  0
 68 71  1  6
 69 70  2  0
 69 74  1  0
 71 72  1  0
 72 73  1  0
 75 74  1  6
 75 76  1  0
 75 78  1  0
 76 77  2  0
 76 82  1  0
 78 79  1  0
 78 80  1  6
 79 81  1  0
 83 82  1  1
 83 84  1  0
 83 86  1  0
 84 85  2  0
 84 88  1  0
 86 87  1  0
 88 89  1  0
 89 90  1  0
 89 92  1  6
 90 91  2  0
 90 99  1  0
 92 93  1  0
 93 94  2  0
 93 95  1  0
 94 96  1  0
 95 97  2  0
 96 98  2  0
 97 98  1  0
 99100  1  0
 99105  1  0
100101  1  0
100103  1  6
101102  2  0
101106  1  0
103104  1  0
104105  1  0
106107  1  0
107108  1  0
107110  1  6
108109  2  0
110111  1  0
111112  2  0
111113  1  0
 14115  1  0
 58116  1  0
M  CHG  1  42   1
M  END
$$$$
