
     RDKit          3D

116123  0  0  0  0  0  0  0  0999 V2000
  -12.3245   99.9545    7.8704 N   0  0  0  0  0  0  0  0  0  0  0  0
  -12.8625   98.7763    8.0139 C   0  0  2  0  0  0  0  0  0  0  0  0
  -12.1647   97.4836    7.8808 C   0  0  0  0  0  0  0  0  0  0  0  0
  -12.8491   96.6267    7.1989 O   0  0  0  0  0  0  0  0  0  0  0  0
  -10.9400   97.0556    8.3533 N   0  0  0  0  0  0  0  0  0  0  0  0
   -9.6068   97.5739    8.1187 C   0  0  2  0  0  0  0  0  0  0  0  0
   -9.1030   98.3509    9.2676 C   0  0  0  0  0  0  0  0  0  0  0  0
   -9.9722   98.5392   10.2032 O   0  0  0  0  0  0  0  0  0  0  0  0
   -9.4204   98.2890    6.8274 C   0  0  0  0  0  0  0  0  0  0  0  0
   -7.9642   98.5311    6.5030 C   0  0  0  0  0  0  0  0  0  0  0  0
   -7.7397   99.1749    5.1765 C   0  0  0  0  0  0  0  0  0  0  0  0
   -7.6920  100.6236    5.4146 N   0  0  0  0  0  0  0  0  0  0  0  0
   -7.1852  101.5035    4.4194 C   0  0  0  0  0  0  0  0  0  0  0  0
   -6.6364  102.6094    4.8463 N   0  0  0  0  0  0  0  0  0  0  0  0
   -7.2773  101.1809    3.0449 N   0  0  0  0  0  0  0  0  0  0  0  0
   -7.8360   98.8890    9.4533 N   0  0  0  0  0  0  0  0  0  0  0  0
   -6.5467   98.2124    9.3343 C   0  0  2  0  0  0  0  0  0  0  0  0
   -6.0975   97.7326   10.6582 C   0  0  0  0  0  0  0  0  0  0  0  0
   -5.4283   98.5819   11.3572 O   0  0  0  0  0  0  0  0  0  0  0  0
   -5.4951   99.2424    8.8728 C   0  0  0  0  0  0  0  0  0  0  0  0
   -6.0297  100.9356    9.1390 S   0  0  0  0  0  0  0  0  0  0  0  0
   -6.3101   96.4762   11.2470 N   0  0  0  0  0  0  0  0  0  0  0  0
   -5.9887   95.1613   10.7451 C   0  0  2  0  0  0  0  0  0  0  0  0
   -4.6587   95.0802   10.0856 C   0  0  0  0  0  0  0  0  0  0  0  0
   -4.3472   96.0578    9.3061 O   0  0  0  0  0  0  0  0  0  0  0  0
   -7.0928   94.6083    9.8701 C   0  0  0  0  0  0  0  0  0  0  0  0
   -6.6065   94.5487    8.4728 C   0  0  0  0  0  0  0  0  0  0  0  0
   -7.3725   94.7733    7.3709 C   0  0  0  0  0  0  0  0  0  0  0  0
   -5.2671   94.2216    8.2445 C   0  0  0  0  0  0  0  0  0  0  0  0
   -6.8582   94.6835    6.0976 C   0  0  0  0  0  0  0  0  0  0  0  0
   -4.7390   94.1284    6.9786 C   0  0  0  0  0  0  0  0  0  0  0  0
   -5.5334   94.3597    5.8799 C   0  0  0  0  0  0  0  0  0  0  0  0
   -5.0180   94.2709    4.5733 O   0  0  0  0  0  0  0  0  0  0  0  0
   -3.7112   94.0673   10.2138 N   0  0  0  0  0  0  0  0  0  0  0  0
   -3.0971   93.5633   11.4398 C   0  0  2  0  0  0  0  0  0  0  0  0
   -1.6943   93.2410   11.0814 C   0  0  0  0  0  0  0  0  0  0  0  0
   -1.4386   92.0039   10.8747 O   0  0  0  0  0  0  0  0  0  0  0  0
   -3.8230   92.2733   11.7755 C   0  0  0  0  0  0  0  0  0  0  0  0
   -3.9303   91.3637   10.5544 C   0  0  0  0  0  0  0  0  0  0  0  0
   -2.9043   91.8590    9.5407 C   0  0  0  0  0  0  0  0  0  0  0  0
   -3.0723   91.1624    8.2149 C   0  0  0  0  0  0  0  0  0  0  0  0
   -2.0391   91.6313    7.3285 N   0  0  0  0  0  4  0  0  0  0  0  0
   -0.6299   94.1425   10.9458 N   0  0  0  0  0  0  0  0  0  0  0  0
   -0.2297   95.1768   11.9026 C   0  0  2  0  0  0  0  0  0  0  0  0
   -0.8153   94.9394   13.2292 C   0  0  0  0  0  0  0  0  0  0  0  0
   -0.7848   93.6642   13.5038 O   0  0  0  0  0  0  0  0  0  0  0  0
   -0.4470   96.5181   11.3005 C   0  0  0  0  0  0  0  0  0  0  0  0
   -1.8519   96.5939   11.0636 O   0  0  0  0  0  0  0  0  0  0  0  0
   -1.3658   95.7489   14.1942 N   0  0  0  0  0  0  0  0  0  0  0  0
   -0.7698   96.7516   15.0859 C   0  0  2  0  0  0  0  0  0  0  0  0
   -0.7908   98.0911   14.4932 C   0  0  0  0  0  0  0  0  0  0  0  0
   -1.8120   98.2483   13.6961 O   0  0  0  0  0  0  0  0  0  0  0  0
    0.3962   96.3191   15.8520 C   0  0  0  0  0  0  0  0  0  0  0  0
    1.5858   97.1572   16.0150 C   0  0  0  0  0  0  0  0  0  0  0  0
    1.7480   98.3363   15.1231 C   0  0  0  0  0  0  0  0  0  0  0  0
    0.8564   98.1095   13.9732 N   0  0  0  0  0  0  0  0  0  0  0  0
   -0.5037   98.5267   14.0256 C   0  0  0  0  0  0  0  0  0  0  0  0
   -0.9865   98.9636   15.1622 N   0  0  0  0  0  0  0  0  0  0  0  0
   -1.3022   98.4655   12.8604 N   0  0  0  0  0  0  0  0  0  0  0  0
    0.0442   99.1972   14.6135 N   0  0  0  0  0  0  0  0  0  0  0  0
    0.4073   99.9310   15.8055 C   0  0  2  0  0  0  0  0  0  0  0  0
   -0.6221  100.1473   16.8112 C   0  0  0  0  0  0  0  0  0  0  0  0
   -1.1027   99.0684   17.3313 O   0  0  0  0  0  0  0  0  0  0  0  0
    1.1341  101.1870   15.3767 C   0  0  0  0  0  0  0  0  0  0  0  0
    1.9056  100.5946   14.1804 C   0  0  0  0  0  0  0  0  0  0  0  0
    0.7298   99.8996   13.5263 C   0  0  0  0  0  0  0  0  0  0  0  0
   -1.2077  101.3041   17.3434 N   0  0  0  0  0  0  0  0  0  0  0  0
   -1.9108  102.3923   16.7006 C   0  0  2  0  0  0  0  0  0  0  0  0
   -2.2896  102.2497   15.3288 C   0  0  0  0  0  0  0  0  0  0  0  0
   -2.3008  101.1142   14.7274 O   0  0  0  0  0  0  0  0  0  0  0  0
   -1.0542  103.5525   17.0987 C   0  0  0  0  0  0  0  0  0  0  0  0
   -0.6315  103.1440   18.5157 C   0  0  0  0  0  0  0  0  0  0  0  0
   -1.3206  101.8154   18.7480 C   0  0  0  0  0  0  0  0  0  0  0  0
   -2.6777  103.3411   14.5382 N   0  0  0  0  0  0  0  0  0  0  0  0
   -3.7740  104.2797   14.8306 C   0  0  2  0  0  0  0  0  0  0  0  0
   -5.0892  103.6926   14.7451 C   0  0  0  0  0  0  0  0  0  0  0  0
   -5.6943  103.4598   15.9097 O   0  0  0  0  0  0  0  0  0  0  0  0
   -3.5117  105.6711   14.3926 C   0  0  2  0  0  0  0  0  0  0  0  0
   -4.6588  106.3778   13.7341 C   0  0  0  0  0  0  0  0  0  0  0  0
   -2.3670  105.7388   13.3584 C   0  0  0  0  0  0  0  0  0  0  0  0
   -5.7362  105.3957   13.2941 C   0  0  0  0  0  0  0  0  0  0  0  0
   -5.9153  103.2882   13.6974 N   0  0  0  0  0  0  0  0  0  0  0  0
   -6.3787  103.8928   12.5123 C   0  0  2  0  0  0  0  0  0  0  0  0
   -7.7881  103.6771   12.1287 C   0  0  0  0  0  0  0  0  0  0  0  0
   -7.9309  103.5782   10.8486 O   0  0  0  0  0  0  0  0  0  0  0  0
   -5.5071  103.2716   11.3849 C   0  0  0  0  0  0  0  0  0  0  0  0
   -6.0485  101.5663   11.1273 S   0  0  0  0  0  0  0  0  0  0  0  0
   -8.9540  103.5630   12.8690 N   0  0  0  0  0  0  0  0  0  0  0  0
   -9.5834  104.4182   13.8238 C   0  0  2  0  0  0  0  0  0  0  0  0
  -10.7036  105.2582   13.4091 C   0  0  0  0  0  0  0  0  0  0  0  0
  -11.4818  105.5897   14.4197 O   0  0  0  0  0  0  0  0  0  0  0  0
   -8.5532  105.2814   14.5567 C   0  0  0  0  0  0  0  0  0  0  0  0
   -7.4709  105.7292   13.6597 C   0  0  0  0  0  0  0  0  0  0  0  0
   -6.8638  106.9411   13.8668 C   0  0  0  0  0  0  0  0  0  0  0  0
   -7.0529  104.9454   12.6143 C   0  0  0  0  0  0  0  0  0  0  0  0
   -5.8460  107.3835   13.0475 C   0  0  0  0  0  0  0  0  0  0  0  0
   -6.0371  105.3909   11.7999 C   0  0  0  0  0  0  0  0  0  0  0  0
   -5.4066  106.6173   11.9915 C   0  0  0  0  0  0  0  0  0  0  0  0
  -11.1388  105.7898   12.2118 N   0  0  0  0  0  0  0  0  0  0  0  0
  -11.6390  105.1051   11.0098 C   0  0  2  0  0  0  0  0  0  0  0  0
  -11.7582  103.6718   11.1767 C   0  0  0  0  0  0  0  0  0  0  0  0
  -12.0501  103.3651   12.4224 O   0  0  0  0  0  0  0  0  0  0  0  0
  -10.7750  105.6522    9.9494 C   0  0  0  0  0  0  0  0  0  0  0  0
  -10.3292  107.0132   10.5174 C   0  0  0  0  0  0  0  0  0  0  0  0
  -11.2809  107.1947   11.7158 C   0  0  0  0  0  0  0  0  0  0  0  0
  -11.6202  102.6003   10.2770 N   0  0  0  0  0  0  0  0  0  0  0  0
  -12.4357  102.0997    9.2424 C   0  0  2  0  0  0  0  0  0  0  0  0
  -11.6660  100.9945    8.4892 C   0  0  0  0  0  0  0  0  0  0  0  0
  -10.4187  101.1665    8.5153 O   0  0  0  0  0  0  0  0  0  0  0  0
  -12.9946  103.0445    8.2373 C   0  0  0  0  0  0  0  0  0  0  0  0
  -14.0746  102.5315    7.3920 C   0  0  0  0  0  0  0  0  0  0  0  0
  -13.8379  102.1316    6.2408 O   0  0  0  0  0  0  0  0  0  0  0  0
  -15.3957  102.4891    7.8846 N   0  0  0  0  0  0  0  0  0  0  0  0
  -12.9229   99.3700    6.6807 O   0  0  0  0  0  0  0  0  0  0  0  0
   -7.0108  103.1090    5.6791 H   0  0  0  0  0  0  0  0  0  0  0  0
   -1.8702   99.5144   15.1897 H   0  0  0  0  0  0  0  0  0  0  0  0
  1  2  1  0
  1108  1  0
  1114  1  0
  2  3  1  0
  2114  1  6
  3  4  2  0
  3  5  1  0
  5  6  1  0
  6  7  1  0
  6  9  1  6
  7  8  2  0
  7 16  1  0
  9 10  1  0
 10 11  1  0
 11 12  1  0
 12 13  1  0
 13 14  2  0
 13 15  1  0
 17 16  1  1
 17 18  1  0
 17 20  1  0
 18 19  2  0
 18 22  1  0
 20 21  1  0
 21 87  1  0
 22 23  1  0
 23 24  1  0
 23 26  1  6
 24 25  2  0
 24 34  1  0
 26 27  1  0
 27 28  2  0
 27 29  1  0
 28 30  1  0
 29 31  2  0
 30 32  2  0
 31 32  1  0
 32 33  1  0
 34 35  1  0
 35 36  1  0
 35 38  1  6
 36 37  2  0
 36 43  1  0
 38 39  1  0
 39 40  1  0
 40 41  1  0
 41 42  1  0
 43 44  1  0
 44 45  1  0
 44 47  1  6
 45 46  2  0
 45 49  1  0
 47 48  1  0
 49 50  1  0
 50 51  1  0
 50 53  1  6
 51 52  2  0
 51 60  1  0
 53 54  1  0
 54 55  1  0
 55 56  1  0
 56 57  1  0
 57 58  2  0
 57 59  1  0
 60 61  1  0
 60 66  1  0
 61 62  1  0
 61 64  1  6
 62 63  2  0
 62 67  1  0
 64 65  1  0
 65 66  1  0
 67 68  1  0
 67 73  1  0
 68 69  1  0
 68 71  1  6
 69 70  2  0
 69 74  1  0
 71 72  1  0
 72 73  1  0
 75 74  1  6
 75 76  1  0
 75 78  1  0
 76 77  2  0
 76 82  1  0
 78 79  1  0
 78 80  1  6
 79 81  1  0
 83 82  1  1
 83 84  1  0
 83 86  1  0
 84 85  2  0
 84 88  1  0
 86 87  1  0
 88 89  1  0
 89 90  1  0
 89 92  1  6
 90 91  2  0
 90 99  1  0
 92 93  1  0
 93 94  2  0
 93 95  1  0
 94 96  1  0
 95 97  2  0
 96 98  2  0
 97 98  1  0
 99100  1  0
 99105  1  0
100101  1  0
100103  1  6
101102  2  0
101106  1  0
103104  1  0
104105  1  0
106107  1  0
107108  1  0
107110  1  6
108109  2  0
110111  1  0
111112  2  0
111113  1  0
 14115  1  0
 58116  1  0
M  CHG  1  42   1
M  END
$$$$
