
     RDKit          3D

116123  0  0  0  0  0  0  0  0999 V2000
  -10.8052  104.4381    8.2483 N   0  0  0  0  0  0  0  0  0  0  0  0
  -11.6555  103.5504    7.8161 C   0  0  2  0  0  0  0  0  0  0  0  0
  -11.3249  102.3416    7.0379 C   0  0  0  0  0  0  0  0  0  0  0  0
  -12.1372  102.1585    6.0508 O   0  0  0  0  0  0  0  0  0  0  0  0
  -10.3222  101.4048    7.1906 N   0  0  0  0  0  0  0  0  0  0  0  0
   -8.8809  101.5593    7.1881 C   0  0  2  0  0  0  0  0  0  0  0  0
   -8.3143  101.5045    8.5496 C   0  0  0  0  0  0  0  0  0  0  0  0
   -9.1970  101.4635    9.4905 O   0  0  0  0  0  0  0  0  0  0  0  0
   -8.3666  102.7170    6.4081 C   0  0  0  0  0  0  0  0  0  0  0  0
   -8.4283  102.4848    4.9159 C   0  0  0  0  0  0  0  0  0  0  0  0
   -8.6155  103.7307    4.1177 C   0  0  0  0  0  0  0  0  0  0  0  0
   -8.5316  104.8523    5.0626 N   0  0  0  0  0  0  0  0  0  0  0  0
   -9.4875  105.9041    5.0228 C   0  0  0  0  0  0  0  0  0  0  0  0
   -9.0675  107.0853    5.3902 N   0  0  0  0  0  0  0  0  0  0  0  0
  -10.8174  105.6660    4.6029 N   0  0  0  0  0  0  0  0  0  0  0  0
   -6.9772  101.4928    8.9252 N   0  0  0  0  0  0  0  0  0  0  0  0
   -5.9153  100.6154    8.4384 C   0  0  2  0  0  0  0  0  0  0  0  0
   -5.7616   99.4522    9.3373 C   0  0  0  0  0  0  0  0  0  0  0  0
   -4.9678   99.6252   10.3361 O   0  0  0  0  0  0  0  0  0  0  0  0
   -4.5793  101.3841    8.5009 C   0  0  0  0  0  0  0  0  0  0  0  0
   -4.6595  102.8130    9.5850 S   0  0  0  0  0  0  0  0  0  0  0  0
   -6.3709   98.1912    9.2412 N   0  0  0  0  0  0  0  0  0  0  0  0
   -6.3658   97.2505    8.1462 C   0  0  2  0  0  0  0  0  0  0  0  0
   -5.0438   97.1138    7.4798 C   0  0  0  0  0  0  0  0  0  0  0  0
   -4.3947   98.2068    7.2690 O   0  0  0  0  0  0  0  0  0  0  0  0
   -7.4756   97.5335    7.1568 C   0  0  0  0  0  0  0  0  0  0  0  0
   -7.0581   97.0457    5.8226 C   0  0  0  0  0  0  0  0  0  0  0  0
   -7.8953   96.8464    4.7687 C   0  0  0  0  0  0  0  0  0  0  0  0
   -5.7097   96.7442    5.6128 C   0  0  0  0  0  0  0  0  0  0  0  0
   -7.4412   96.3727    3.5590 C   0  0  0  0  0  0  0  0  0  0  0  0
   -5.2411   96.2707    4.4103 C   0  0  0  0  0  0  0  0  0  0  0  0
   -6.1071   96.0770    3.3593 C   0  0  0  0  0  0  0  0  0  0  0  0
   -5.6535   95.5934    2.1179 O   0  0  0  0  0  0  0  0  0  0  0  0
   -4.4272   95.9388    7.0566 N   0  0  0  0  0  0  0  0  0  0  0  0
   -4.1117   94.7545    7.8518 C   0  0  2  0  0  0  0  0  0  0  0  0
   -2.8187   94.2525    7.3262 C   0  0  0  0  0  0  0  0  0  0  0  0
   -2.8877   93.2535    6.5288 O   0  0  0  0  0  0  0  0  0  0  0  0
   -5.1931   93.7364    7.5393 C   0  0  0  0  0  0  0  0  0  0  0  0
   -6.5375   94.1574    8.1268 C   0  0  0  0  0  0  0  0  0  0  0  0
   -6.4627   95.6605    8.3733 C   0  0  0  0  0  0  0  0  0  0  0  0
   -6.6022   96.4288    7.0844 C   0  0  0  0  0  0  0  0  0  0  0  0
   -7.8859   97.0809    7.0884 N   0  0  0  0  0  4  0  0  0  0  0  0
   -1.5413   94.7547    7.6086 N   0  0  0  0  0  0  0  0  0  0  0  0
   -0.9826   95.0351    8.9333 C   0  0  2  0  0  0  0  0  0  0  0  0
   -1.7527   94.3717    9.9944 C   0  0  0  0  0  0  0  0  0  0  0  0
   -2.1002   93.1755    9.6062 O   0  0  0  0  0  0  0  0  0  0  0  0
   -0.7598   96.4975    9.0764 C   0  0  0  0  0  0  0  0  0  0  0  0
   -0.8819   96.7552   10.4744 O   0  0  0  0  0  0  0  0  0  0  0  0
   -2.1650   94.7383   11.2535 N   0  0  0  0  0  0  0  0  0  0  0  0
   -1.4207   94.9669   12.4982 C   0  0  2  0  0  0  0  0  0  0  0  0
   -1.0117   96.3664   12.6409 C   0  0  0  0  0  0  0  0  0  0  0  0
   -1.8579   97.1759   12.0648 O   0  0  0  0  0  0  0  0  0  0  0  0
   -0.5076   93.9025   12.9065 C   0  0  0  0  0  0  0  0  0  0  0  0
   -0.4361   92.6167   12.2097 C   0  0  0  0  0  0  0  0  0  0  0  0
   -1.1518   91.4529   12.7972 C   0  0  0  0  0  0  0  0  0  0  0  0
   -2.5607   91.5866   12.3898 N   0  0  0  0  0  0  0  0  0  0  0  0
   -3.1284   90.6736   11.4566 C   0  0  0  0  0  0  0  0  0  0  0  0
   -2.3277   89.9300   10.7343 N   0  0  0  0  0  0  0  0  0  0  0  0
   -4.5336   90.5841   11.3280 N   0  0  0  0  0  0  0  0  0  0  0  0
    0.0740   96.9817   13.2556 N   0  0  0  0  0  0  0  0  0  0  0  0
    0.4895   96.9113   14.6389 C   0  0  2  0  0  0  0  0  0  0  0  0
   -0.5464   96.9063   15.6610 C   0  0  0  0  0  0  0  0  0  0  0  0
   -1.3561   95.9031   15.6030 O   0  0  0  0  0  0  0  0  0  0  0  0
    1.5728   97.9457   14.8536 C   0  0  0  0  0  0  0  0  0  0  0  0
    2.2809   97.8057   13.4912 C   0  0  0  0  0  0  0  0  0  0  0  0
    1.0397   97.8860   12.6272 C   0  0  0  0  0  0  0  0  0  0  0  0
   -0.8503   97.7784   16.7153 N   0  0  0  0  0  0  0  0  0  0  0  0
   -1.1563   99.1919   16.7180 C   0  0  2  0  0  0  0  0  0  0  0  0
   -1.4065   99.8426   15.4692 C   0  0  0  0  0  0  0  0  0  0  0  0
   -1.6597   99.1947   14.3888 O   0  0  0  0  0  0  0  0  0  0  0  0
   -0.0658   99.7124   17.6002 C   0  0  0  0  0  0  0  0  0  0  0  0
    0.0717   98.5711   18.6161 C   0  0  0  0  0  0  0  0  0  0  0  0
   -0.9737   97.5599   18.1933 C   0  0  0  0  0  0  0  0  0  0  0  0
   -1.3942  101.2382   15.3323 N   0  0  0  0  0  0  0  0  0  0  0  0
   -2.2194  102.1931   16.0909 C   0  0  2  0  0  0  0  0  0  0  0  0
   -3.6270  102.1301   15.7803 C   0  0  0  0  0  0  0  0  0  0  0  0
   -4.3967  101.5540   16.7035 O   0  0  0  0  0  0  0  0  0  0  0  0
   -1.5424  103.4789   16.3826 C   0  0  2  0  0  0  0  0  0  0  0  0
   -2.0231  104.2110   17.5999 C   0  0  0  0  0  0  0  0  0  0  0  0
   -1.7129  104.4896   15.2276 C   0  0  0  0  0  0  0  0  0  0  0  0
   -3.4937  104.5868   17.4763 C   0  0  0  0  0  0  0  0  0  0  0  0
   -4.4116  102.5385   14.7027 N   0  0  0  0  0  0  0  0  0  0  0  0
   -4.5602  103.7425   13.9864 C   0  0  2  0  0  0  0  0  0  0  0  0
   -5.9242  104.1574   13.6024 C   0  0  0  0  0  0  0  0  0  0  0  0
   -5.9470  104.7316   12.4455 O   0  0  0  0  0  0  0  0  0  0  0  0
   -3.7719  103.5165   12.6658 C   0  0  0  0  0  0  0  0  0  0  0  0
   -4.7245  102.3859   11.6258 S   0  0  0  0  0  0  0  0  0  0  0  0
   -7.1512  104.0461   14.2368 N   0  0  0  0  0  0  0  0  0  0  0  0
   -7.6254  104.4783   15.5125 C   0  0  2  0  0  0  0  0  0  0  0  0
   -8.4227  105.6980   15.6083 C   0  0  0  0  0  0  0  0  0  0  0  0
   -9.1876  105.7131   16.6814 O   0  0  0  0  0  0  0  0  0  0  0  0
   -6.4864  104.5417   16.5334 C   0  0  0  0  0  0  0  0  0  0  0  0
   -5.5477  105.6425   16.2445 C   0  0  0  0  0  0  0  0  0  0  0  0
   -6.0224  106.8577   15.8228 C   0  0  0  0  0  0  0  0  0  0  0  0
   -4.1949  105.4727   16.3964 C   0  0  0  0  0  0  0  0  0  0  0  0
   -5.1688  107.9065   15.5502 C   0  0  0  0  0  0  0  0  0  0  0  0
   -3.3474  106.5219   16.1235 C   0  0  0  0  0  0  0  0  0  0  0  0
   -3.8072  107.7640   15.6943 C   0  0  0  0  0  0  0  0  0  0  0  0
   -8.5628  106.8393   14.8446 N   0  0  0  0  0  0  0  0  0  0  0  0
   -9.0950  106.9949   13.4822 C   0  0  2  0  0  0  0  0  0  0  0  0
   -9.6168  105.7630   12.9284 C   0  0  0  0  0  0  0  0  0  0  0  0
  -10.1161  104.9958   13.8734 O   0  0  0  0  0  0  0  0  0  0  0  0
   -8.0039  107.7061   12.7938 C   0  0  0  0  0  0  0  0  0  0  0  0
   -7.2703  108.4304   13.9386 C   0  0  0  0  0  0  0  0  0  0  0  0
   -8.2624  108.2816   15.1083 C   0  0  0  0  0  0  0  0  0  0  0  0
   -9.6772  105.2681   11.6139 N   0  0  0  0  0  0  0  0  0  0  0  0
  -10.4793  105.5873   10.5000 C   0  0  2  0  0  0  0  0  0  0  0  0
   -9.9609  104.8106    9.2714 C   0  0  0  0  0  0  0  0  0  0  0  0
   -8.7246  104.5782    9.3293 O   0  0  0  0  0  0  0  0  0  0  0  0
  -10.6465  107.0142   10.1112 C   0  0  0  0  0  0  0  0  0  0  0  0
  -12.0037  107.4390    9.7628 C   0  0  0  0  0  0  0  0  0  0  0  0
  -12.3515  108.6215    9.9112 O   0  0  0  0  0  0  0  0  0  0  0  0
  -12.9271  106.5016    9.2543 N   0  0  0  0  0  0  0  0  0  0  0  0
  -11.4054  104.6994    6.9496 O   0  0  0  0  0  0  0  0  0  0  0  0
   -9.5185  107.9520    5.0313 H   0  0  0  0  0  0  0  0  0  0  0  0
   -2.2614   88.9034   10.8975 H   0  0  0  0  0  0  0  0  0  0  0  0
  1  2  1  0
  1108  1  0
  1114  1  0
  2  3  1  0
  2114  1  6
  3  4  2  0
  3  5  1  0
  5  6  1  0
  6  7  1  0
  6  9  1  1
  7  8  2  0
  7 16  1  0
  9 10  1  0
 10 11  1  0
 11 12  1  0
 12 13  1  0
 13 14  2  0
 13 15  1  0
 17 16  1  1
 17 18  1  0
 17 20  1  0
 18 19  2  0
 18 22  1  0
 20 21  1  0
 21 87  1  0
 22 23  1  0
 23 24  1  0
 23 26  1  6
 24 25  2  0
 24 34  1  0
 26 27  1  0
 27 28  2  0
 27 29  1  0
 28 30  1  0
 29 31  2  0
 30 32  2  0
 31 32  1  0
 32 33  1  0
 34 35  1  0
 35 36  1  0
 35 38  1  6
 36 37  2  0
 36 43  1  0
 38 39  1  0
 39 40  1  0
 40 41  1  0
 41 42  1  0
 43 44  1  0
 44 45  1  0
 44 47  1  1
 45 46  2  0
 45 49  1  0
 47 48  1  0
 49 50  1  0
 50 51  1  0
 50 53  1  6
 51 52  2  0
 51 60  1  0
 53 54  1  0
 54 55  1  0
 55 56  1  0
 56 57  1  0
 57 58  2  0
 57 59  1  0
 60 61  1  0
 60 66  1  0
 61 62  1  0
 61 64  1  1
 62 63  2  0
 62 67  1  0
 64 65  1  0
 65 66  1  0
 67 68  1  0
 67 73  1  0
 68 69  1  0
 68 71  1  6
 69 70  2  0
 69 74  1  0
 71 72  1  0
 72 73  1  0
 75 74  1  6
 75 76  1  0
 75 78  1  0
 76 77  2  0
 76 82  1  0
 78 79  1  0
 78 80  1  6
 79 81  1  0
 83 82  1  6
 83 84  1  0
 83 86  1  0
 84 85  2  0
 84 88  1  0
 86 87  1  0
 88 89  1  0
 89 90  1  0
 89 92  1  1
 90 91  2  0
 90 99  1  0
 92 93  1  0
 93 94  2  0
 93 95  1  0
 94 96  1  0
 95 97  2  0
 96 98  2  0
 97 98  1  0
 99100  1  0
 99105  1  0
100101  1  0
100103  1  6
101102  2  0
101106  1  0
103104  1  0
104105  1  0
106107  1  0
107108  1  0
107110  1  6
108109  2  0
110111  1  0
111112  2  0
111113  1  0
 14115  1  0
 58116  1  0
M  CHG  1  42   1
M  END
$$$$
