
     RDKit          3D

116123  0  0  0  0  0  0  0  0999 V2000
  -11.1939  104.8164    7.6705 N   0  0  0  0  0  0  0  0  0  0  0  0
  -12.1763  103.9922    7.4390 C   0  0  2  0  0  0  0  0  0  0  0  0
  -12.0538  102.6373    6.8687 C   0  0  0  0  0  0  0  0  0  0  0  0
  -12.9483  102.4039    5.9671 O   0  0  0  0  0  0  0  0  0  0  0  0
  -11.1682  101.6122    7.1358 N   0  0  0  0  0  0  0  0  0  0  0  0
   -9.7225  101.5680    7.0401 C   0  0  2  0  0  0  0  0  0  0  0  0
   -9.0753  101.6646    8.3627 C   0  0  0  0  0  0  0  0  0  0  0  0
   -9.8896  101.9005    9.3361 O   0  0  0  0  0  0  0  0  0  0  0  0
   -9.1219  102.4995    6.0476 C   0  0  0  0  0  0  0  0  0  0  0  0
   -8.9722  101.8730    4.6803 C   0  0  0  0  0  0  0  0  0  0  0  0
   -7.6171  102.0453    4.0817 C   0  0  0  0  0  0  0  0  0  0  0  0
   -7.6168  103.3518    3.4101 N   0  0  0  0  0  0  0  0  0  0  0  0
   -7.1714  104.5161    4.0940 C   0  0  0  0  0  0  0  0  0  0  0  0
   -6.1291  104.3724    4.8681 N   0  0  0  0  0  0  0  0  0  0  0  0
   -7.8330  105.7561    3.9307 N   0  0  0  0  0  0  0  0  0  0  0  0
   -7.7276  101.5351    8.6727 N   0  0  0  0  0  0  0  0  0  0  0  0
   -6.8198  100.4536    8.2976 C   0  0  2  0  0  0  0  0  0  0  0  0
   -6.7518   99.4463    9.3772 C   0  0  0  0  0  0  0  0  0  0  0  0
   -5.8760   99.6744   10.2930 O   0  0  0  0  0  0  0  0  0  0  0  0
   -5.3969  101.0344    8.1638 C   0  0  0  0  0  0  0  0  0  0  0  0
   -5.2231  102.6214    8.9851 S   0  0  0  0  0  0  0  0  0  0  0  0
   -7.5193   98.2810    9.5302 N   0  0  0  0  0  0  0  0  0  0  0  0
   -7.7071   97.1792    8.6166 C   0  0  2  0  0  0  0  0  0  0  0  0
   -6.4614   96.7561    7.9240 C   0  0  0  0  0  0  0  0  0  0  0  0
   -5.6965   97.7010    7.4966 O   0  0  0  0  0  0  0  0  0  0  0  0
   -8.8378   97.4408    7.6453 C   0  0  0  0  0  0  0  0  0  0  0  0
   -8.2974   98.1628    6.4708 C   0  0  0  0  0  0  0  0  0  0  0  0
   -6.9881   98.1793    6.1010 C   0  0  0  0  0  0  0  0  0  0  0  0
   -9.1781   98.9041    5.6785 C   0  0  0  0  0  0  0  0  0  0  0  0
   -6.5512   98.8880    5.0052 C   0  0  0  0  0  0  0  0  0  0  0  0
   -8.7567   99.6166    4.5808 C   0  0  0  0  0  0  0  0  0  0  0  0
   -7.4276   99.6183    4.2269 C   0  0  0  0  0  0  0  0  0  0  0  0
   -6.9699  100.3391    3.1081 O   0  0  0  0  0  0  0  0  0  0  0  0
   -6.0272   95.4546    7.6838 N   0  0  0  0  0  0  0  0  0  0  0  0
   -5.8088   94.3877    8.6576 C   0  0  2  0  0  0  0  0  0  0  0  0
   -4.6278   93.6351    8.1684 C   0  0  0  0  0  0  0  0  0  0  0  0
   -4.8759   92.5359    7.5611 O   0  0  0  0  0  0  0  0  0  0  0  0
   -7.0280   93.4873    8.5772 C   0  0  0  0  0  0  0  0  0  0  0  0
   -6.8376   92.3879    7.5355 C   0  0  0  0  0  0  0  0  0  0  0  0
   -7.0383   93.0329    6.1682 C   0  0  0  0  0  0  0  0  0  0  0  0
   -6.8682   92.0232    5.0625 C   0  0  0  0  0  0  0  0  0  0  0  0
   -7.2939   92.6330    3.8296 N   0  0  0  0  0  4  0  0  0  0  0  0
   -3.2813   94.0001    8.3000 N   0  0  0  0  0  0  0  0  0  0  0  0
   -2.6025   94.4191    9.5285 C   0  0  2  0  0  0  0  0  0  0  0  0
   -3.3751   94.0519   10.7232 C   0  0  0  0  0  0  0  0  0  0  0  0
   -3.8954   92.8658   10.5655 O   0  0  0  0  0  0  0  0  0  0  0  0
   -2.1890   95.8412    9.4045 C   0  0  0  0  0  0  0  0  0  0  0  0
   -3.3908   96.5918    9.5718 O   0  0  0  0  0  0  0  0  0  0  0  0
   -3.6510   94.6752   11.9169 N   0  0  0  0  0  0  0  0  0  0  0  0
   -2.8005   95.0053   13.0672 C   0  0  2  0  0  0  0  0  0  0  0  0
   -2.2106   96.3407   12.9451 C   0  0  0  0  0  0  0  0  0  0  0  0
   -2.9862   97.1497   12.2765 O   0  0  0  0  0  0  0  0  0  0  0  0
   -2.0020   93.9102   13.6120 C   0  0  0  0  0  0  0  0  0  0  0  0
   -0.9453   93.2489   12.8439 C   0  0  0  0  0  0  0  0  0  0  0  0
   -0.8992   93.4645   11.3731 C   0  0  0  0  0  0  0  0  0  0  0  0
    0.2060   92.6321   10.8686 N   0  0  0  0  0  0  0  0  0  0  0  0
    0.4384   91.3385   11.4155 C   0  0  0  0  0  0  0  0  0  0  0  0
    1.6724   90.9601   11.6390 N   0  0  0  0  0  0  0  0  0  0  0  0
   -0.6563   90.4927   11.7077 N   0  0  0  0  0  0  0  0  0  0  0  0
   -1.0169   96.8974   13.3927 N   0  0  0  0  0  0  0  0  0  0  0  0
   -0.5196   97.0027   14.7465 C   0  0  2  0  0  0  0  0  0  0  0  0
   -1.4755   97.3080   15.8005 C   0  0  0  0  0  0  0  0  0  0  0  0
   -2.4066   96.4279   15.9553 O   0  0  0  0  0  0  0  0  0  0  0  0
    0.6967   97.9025   14.7278 C   0  0  0  0  0  0  0  0  0  0  0  0
    1.2868   97.4433   13.3794 C   0  0  0  0  0  0  0  0  0  0  0  0
    0.0092   97.5455   12.5727 C   0  0  0  0  0  0  0  0  0  0  0  0
   -1.5950   98.3764   16.6998 N   0  0  0  0  0  0  0  0  0  0  0  0
   -1.7206   99.7989   16.4705 C   0  0  2  0  0  0  0  0  0  0  0  0
   -1.9723  100.2602   15.1404 C   0  0  0  0  0  0  0  0  0  0  0  0
   -2.3780   99.4818   14.2020 O   0  0  0  0  0  0  0  0  0  0  0  0
   -0.5156  100.3067   17.1975 C   0  0  0  0  0  0  0  0  0  0  0  0
   -0.4529   99.3426   18.3891 C   0  0  0  0  0  0  0  0  0  0  0  0
   -1.6432   98.4258   18.1973 C   0  0  0  0  0  0  0  0  0  0  0  0
   -1.7948  101.5990   14.7622 N   0  0  0  0  0  0  0  0  0  0  0  0
   -2.4399  102.7694   15.3803 C   0  0  2  0  0  0  0  0  0  0  0  0
   -3.8623  102.8464   15.1506 C   0  0  0  0  0  0  0  0  0  0  0  0
   -4.6331  102.5413   16.1944 O   0  0  0  0  0  0  0  0  0  0  0  0
   -1.5889  103.9825   15.4122 C   0  0  2  0  0  0  0  0  0  0  0  0
   -0.6377  104.1457   14.2644 C   0  0  0  0  0  0  0  0  0  0  0  0
   -0.6926  104.0192   16.6690 C   0  0  0  0  0  0  0  0  0  0  0  0
   -0.0940  102.8014   13.7992 C   0  0  0  0  0  0  0  0  0  0  0  0
   -4.6616  103.1718   14.0556 N   0  0  0  0  0  0  0  0  0  0  0  0
   -4.7069  104.2486   13.1483 C   0  0  2  0  0  0  0  0  0  0  0  0
   -6.0313  104.7742   12.7612 C   0  0  0  0  0  0  0  0  0  0  0  0
   -6.0612  105.1456   11.5242 O   0  0  0  0  0  0  0  0  0  0  0  0
   -4.0455  103.7015   11.8523 C   0  0  0  0  0  0  0  0  0  0  0  0
   -5.2011  102.5527   11.0700 S   0  0  0  0  0  0  0  0  0  0  0  0
   -7.2163  104.9369   13.4611 N   0  0  0  0  0  0  0  0  0  0  0  0
   -7.5441  105.6355   14.6626 C   0  0  2  0  0  0  0  0  0  0  0  0
   -8.1739  106.9505   14.5813 C   0  0  0  0  0  0  0  0  0  0  0  0
   -8.8556  107.2473   15.6694 O   0  0  0  0  0  0  0  0  0  0  0  0
   -6.3389  105.7135   15.6033 C   0  0  0  0  0  0  0  0  0  0  0  0
   -5.9448  104.3837   16.1060 C   0  0  0  0  0  0  0  0  0  0  0  0
   -4.9199  104.2664   17.0092 C   0  0  0  0  0  0  0  0  0  0  0  0
   -6.5948  103.2509   15.6860 C   0  0  0  0  0  0  0  0  0  0  0  0
   -4.5332  103.0367   17.5003 C   0  0  0  0  0  0  0  0  0  0  0  0
   -6.2056  102.0266   16.1789 C   0  0  0  0  0  0  0  0  0  0  0  0
   -5.1681  101.8840   17.0963 C   0  0  0  0  0  0  0  0  0  0  0  0
   -8.2220  107.9571   13.6378 N   0  0  0  0  0  0  0  0  0  0  0  0
   -8.8226  107.9541   12.2951 C   0  0  2  0  0  0  0  0  0  0  0  0
   -9.5312  106.7292   11.9888 C   0  0  0  0  0  0  0  0  0  0  0  0
  -10.0567  106.2046   13.0749 O   0  0  0  0  0  0  0  0  0  0  0  0
   -7.7007  108.3867   11.4439 C   0  0  0  0  0  0  0  0  0  0  0  0
   -6.8055  109.1857   12.4102 C   0  0  0  0  0  0  0  0  0  0  0  0
   -7.7260  109.3692   13.6323 C   0  0  0  0  0  0  0  0  0  0  0  0
   -9.7430  106.0350   10.7847 N   0  0  0  0  0  0  0  0  0  0  0  0
  -10.5732  106.2698    9.6704 C   0  0  2  0  0  0  0  0  0  0  0  0
  -10.2416  105.2365    8.5732 C   0  0  0  0  0  0  0  0  0  0  0  0
   -9.0431  104.8521    8.6136 O   0  0  0  0  0  0  0  0  0  0  0  0
  -10.5866  107.6213    9.0472 C   0  0  0  0  0  0  0  0  0  0  0  0
  -11.5108  107.8126    7.9277 C   0  0  0  0  0  0  0  0  0  0  0  0
  -12.2104  108.8357    7.8558 O   0  0  0  0  0  0  0  0  0  0  0  0
  -11.6110  106.8300    6.9205 N   0  0  0  0  0  0  0  0  0  0  0  0
  -11.8443  104.9364    6.3752 O   0  0  0  0  0  0  0  0  0  0  0  0
   -5.6515  103.4524    4.9618 H   0  0  0  0  0  0  0  0  0  0  0  0
    2.2230   91.3719   12.4215 H   0  0  0  0  0  0  0  0  0  0  0  0
  1  2  1  0
  1108  1  0
  1114  1  0
  2  3  1  0
  2114  1  6
  3  4  2  0
  3  5  1  0
  5  6  1  0
  6  7  1  0
  6  9  1  6
  7  8  2  0
  7 16  1  0
  9 10  1  0
 10 11  1  0
 11 12  1  0
 12 13  1  0
 13 14  2  0
 13 15  1  0
 17 16  1  1
 17 18  1  0
 17 20  1  0
 18 19  2  0
 18 22  1  0
 20 21  1  0
 21 87  1  0
 22 23  1  0
 23 24  1  0
 23 26  1  6
 24 25  2  0
 24 34  1  0
 26 27  1  0
 27 28  2  0
 27 29  1  0
 28 30  1  0
 29 31  2  0
 30 32  2  0
 31 32  1  0
 32 33  1  0
 34 35  1  0
 35 36  1  0
 35 38  1  6
 36 37  2  0
 36 43  1  0
 38 39  1  0
 39 40  1  0
 40 41  1  0
 41 42  1  0
 43 44  1  0
 44 45  1  0
 44 47  1  6
 45 46  2  0
 45 49  1  0
 47 48  1  0
 49 50  1  0
 50 51  1  0
 50 53  1  6
 51 52  2  0
 51 60  1  0
 53 54  1  0
 54 55  1  0
 55 56  1  0
 56 57  1  0
 57 58  2  0
 57 59  1  0
 60 61  1  0
 60 66  1  0
 61 62  1  0
 61 64  1  6
 62 63  2  0
 62 67  1  0
 64 65  1  0
 65 66  1  0
 67 68  1  0
 67 73  1  0
 68 69  1  0
 68 71  1  6
 69 70  2  0
 69 74  1  0
 71 72  1  0
 72 73  1  0
 75 74  1  6
 75 76  1  0
 75 78  1  0
 76 77  2  0
 76 82  1  0
 78 79  1  0
 78 80  1  1
 79 81  1  0
 83 82  1  1
 83 84  1  0
 83 86  1  0
 84 85  2  0
 84 88  1  0
 86 87  1  0
 88 89  1  0
 89 90  1  0
 89 92  1  6
 90 91  2  0
 90 99  1  0
 92 93  1  0
 93 94  2  0
 93 95  1  0
 94 96  1  0
 95 97  2  0
 96 98  2  0
 97 98  1  0
 99100  1  0
 99105  1  0
100101  1  0
100103  1  6
101102  2  0
101106  1  0
103104  1  0
104105  1  0
106107  1  0
107108  1  0
107110  1  6
108109  2  0
110111  1  0
111112  2  0
111113  1  0
 14115  1  0
 58116  1  0
M  CHG  1  42   1
M  END
$$$$
