
     RDKit          3D

116123  0  0  0  0  0  0  0  0999 V2000
   -2.5397  108.7002   15.9713 N   0  0  0  0  0  0  0  0  0  0  0  0
   -1.4274  108.9117   15.3263 C   0  0  2  0  0  0  0  0  0  0  0  0
   -0.3259  107.9448   15.1593 C   0  0  0  0  0  0  0  0  0  0  0  0
    0.8316  108.4853   15.3483 O   0  0  0  0  0  0  0  0  0  0  0  0
   -0.3325  106.6011   14.8422 N   0  0  0  0  0  0  0  0  0  0  0  0
   -0.9518  105.4774   15.5167 C   0  0  2  0  0  0  0  0  0  0  0  0
   -2.1808  105.0288   14.8341 C   0  0  0  0  0  0  0  0  0  0  0  0
   -2.5504  105.7848   13.8552 O   0  0  0  0  0  0  0  0  0  0  0  0
   -1.1480  105.6445   16.9820 C   0  0  0  0  0  0  0  0  0  0  0  0
   -1.3342  104.3259   17.6968 C   0  0  0  0  0  0  0  0  0  0  0  0
   -1.6595  103.1876   16.7897 C   0  0  0  0  0  0  0  0  0  0  0  0
   -1.0145  103.4778   15.5023 N   0  0  0  0  0  0  0  0  0  0  0  0
   -0.9502  102.4855   14.4859 C   0  0  0  0  0  0  0  0  0  0  0  0
   -1.6003  102.7413   13.3821 N   0  0  0  0  0  0  0  0  0  0  0  0
   -0.2146  101.2921   14.6769 N   0  0  0  0  0  0  0  0  0  0  0  0
   -2.9648  103.9175   15.1160 N   0  0  0  0  0  0  0  0  0  0  0  0
   -2.5338  102.5302   15.2706 C   0  0  2  0  0  0  0  0  0  0  0  0
   -2.6766  101.8052   13.9905 C   0  0  0  0  0  0  0  0  0  0  0  0
   -3.8309  101.2753   13.7800 O   0  0  0  0  0  0  0  0  0  0  0  0
   -3.4827  101.8317   16.2663 C   0  0  0  0  0  0  0  0  0  0  0  0
   -5.0273  102.7213   16.4818 S   0  0  0  0  0  0  0  0  0  0  0  0
   -1.7187  101.6255   12.9802 N   0  0  0  0  0  0  0  0  0  0  0  0
   -0.3913  101.0642   13.0634 C   0  0  2  0  0  0  0  0  0  0  0  0
   -0.3051   99.8547   13.9237 C   0  0  0  0  0  0  0  0  0  0  0  0
   -0.9551   99.8971   15.0355 O   0  0  0  0  0  0  0  0  0  0  0  0
    0.6373  102.1074   13.4429 C   0  0  0  0  0  0  0  0  0  0  0  0
    0.1418  102.8567   14.6200 C   0  0  0  0  0  0  0  0  0  0  0  0
    0.8608  103.7786   15.3161 C   0  0  0  0  0  0  0  0  0  0  0  0
   -1.1532  102.6006   15.0788 C   0  0  0  0  0  0  0  0  0  0  0  0
    0.3428  104.4261   16.4144 C   0  0  0  0  0  0  0  0  0  0  0  0
   -1.6845  103.2396   16.1740 C   0  0  0  0  0  0  0  0  0  0  0  0
   -0.9380  104.1677   16.8619 C   0  0  0  0  0  0  0  0  0  0  0  0
   -1.4577  104.8360   17.9861 O   0  0  0  0  0  0  0  0  0  0  0  0
    0.3991   98.6811   13.6652 N   0  0  0  0  0  0  0  0  0  0  0  0
    0.2860   97.8049   12.5016 C   0  0  2  0  0  0  0  0  0  0  0  0
    0.4651   96.4266   13.0198 C   0  0  0  0  0  0  0  0  0  0  0  0
    1.6222   95.9079   12.8449 O   0  0  0  0  0  0  0  0  0  0  0  0
    1.4609   98.1439   11.6026 C   0  0  0  0  0  0  0  0  0  0  0  0
    1.1075   97.9478   10.1307 C   0  0  0  0  0  0  0  0  0  0  0  0
    0.0509   96.8498   10.0707 C   0  0  0  0  0  0  0  0  0  0  0  0
    0.6744   95.4879   10.2371 C   0  0  0  0  0  0  0  0  0  0  0  0
   -0.3677   94.5010   10.1218 N   0  0  0  0  0  4  0  0  0  0  0  0
   -0.4921   95.6412   13.6761 N   0  0  0  0  0  0  0  0  0  0  0  0
   -1.8642   95.3802   13.2346 C   0  0  2  0  0  0  0  0  0  0  0  0
   -2.0447   95.7080   11.8137 C   0  0  0  0  0  0  0  0  0  0  0  0
   -0.9945   95.3321   11.1367 O   0  0  0  0  0  0  0  0  0  0  0  0
   -2.8178   95.9953   14.1943 C   0  0  0  0  0  0  0  0  0  0  0  0
   -3.0759   97.2990   13.6750 O   0  0  0  0  0  0  0  0  0  0  0  0
   -3.0467   96.3048   11.0860 N   0  0  0  0  0  0  0  0  0  0  0  0
   -4.4002   95.8568   10.7352 C   0  0  2  0  0  0  0  0  0  0  0  0
   -5.3906   96.2816   11.7275 C   0  0  0  0  0  0  0  0  0  0  0  0
   -5.0517   97.4075   12.2938 O   0  0  0  0  0  0  0  0  0  0  0  0
   -4.5029   94.5291   10.1350 C   0  0  0  0  0  0  0  0  0  0  0  0
   -3.8582   94.1874    8.8655 C   0  0  0  0  0  0  0  0  0  0  0  0
   -4.5777   93.2856    7.9269 C   0  0  0  0  0  0  0  0  0  0  0  0
   -4.9629   92.0987    8.7090 N   0  0  0  0  0  0  0  0  0  0  0  0
   -5.1237   90.8375    8.0685 C   0  0  0  0  0  0  0  0  0  0  0  0
   -5.6820   89.8578    8.7349 N   0  0  0  0  0  0  0  0  0  0  0  0
   -4.6844   90.6660    6.7355 N   0  0  0  0  0  0  0  0  0  0  0  0
   -6.5897   95.7321   12.1697 N   0  0  0  0  0  0  0  0  0  0  0  0
   -7.7706   95.4024   11.4030 C   0  0  2  0  0  0  0  0  0  0  0  0
   -8.1637   96.3097   10.3352 C   0  0  0  0  0  0  0  0  0  0  0  0
   -7.2937   96.4398    9.3908 O   0  0  0  0  0  0  0  0  0  0  0  0
   -8.8796   95.0666   12.3760 C   0  0  0  0  0  0  0  0  0  0  0  0
   -8.0270   94.3411   13.4362 C   0  0  0  0  0  0  0  0  0  0  0  0
   -6.9399   95.3893   13.5499 C   0  0  0  0  0  0  0  0  0  0  0  0
   -9.3119   97.0824   10.1144 N   0  0  0  0  0  0  0  0  0  0  0  0
   -9.9339   98.1083   10.9222 C   0  0  2  0  0  0  0  0  0  0  0  0
   -9.2198   98.6207   12.0504 C   0  0  0  0  0  0  0  0  0  0  0  0
   -7.9589   98.4358   12.2147 O   0  0  0  0  0  0  0  0  0  0  0  0
  -11.2908   97.5140   11.1326 C   0  0  0  0  0  0  0  0  0  0  0  0
  -11.5288   96.8194    9.7856 C   0  0  0  0  0  0  0  0  0  0  0  0
  -10.2863   97.1276    8.9760 C   0  0  0  0  0  0  0  0  0  0  0  0
   -9.8449   99.3644   13.0619 N   0  0  0  0  0  0  0  0  0  0  0  0
  -10.6137  100.6067   12.8781 C   0  0  2  0  0  0  0  0  0  0  0  0
   -9.8144  101.7391   12.4775 C   0  0  0  0  0  0  0  0  0  0  0  0
   -9.9345  102.1084   11.2024 O   0  0  0  0  0  0  0  0  0  0  0  0
  -11.7600  100.7513   13.8065 C   0  0  2  0  0  0  0  0  0  0  0  0
  -13.0388  101.2430   13.1968 C   0  0  0  0  0  0  0  0  0  0  0  0
  -11.4560  101.7573   14.9379 C   0  0  0  0  0  0  0  0  0  0  0  0
  -12.7780  102.0251   11.9164 C   0  0  0  0  0  0  0  0  0  0  0  0
   -8.9051  102.5745   13.1249 N   0  0  0  0  0  0  0  0  0  0  0  0
   -8.9255  103.3249   14.3171 C   0  0  2  0  0  0  0  0  0  0  0  0
   -8.3346  104.6777   14.2953 C   0  0  0  0  0  0  0  0  0  0  0  0
   -7.7366  104.9619   15.4047 O   0  0  0  0  0  0  0  0  0  0  0  0
   -8.0904  102.4870   15.3256 C   0  0  0  0  0  0  0  0  0  0  0  0
   -6.3471  102.6271   14.8690 S   0  0  0  0  0  0  0  0  0  0  0  0
   -8.3030  105.6714   13.3299 N   0  0  0  0  0  0  0  0  0  0  0  0
   -9.3288  106.3564   12.6103 C   0  0  2  0  0  0  0  0  0  0  0  0
   -9.7371  107.6923   13.0361 C   0  0  0  0  0  0  0  0  0  0  0  0
  -10.2813  108.3855   12.0564 O   0  0  0  0  0  0  0  0  0  0  0  0
  -10.5726  105.4785   12.4503 C   0  0  0  0  0  0  0  0  0  0  0  0
  -10.7591  104.5719   13.5991 C   0  0  0  0  0  0  0  0  0  0  0  0
  -11.6890  103.5662   13.5371 C   0  0  0  0  0  0  0  0  0  0  0  0
  -10.0081  104.7146   14.7382 C   0  0  0  0  0  0  0  0  0  0  0  0
  -11.8816  102.7004   14.5936 C   0  0  0  0  0  0  0  0  0  0  0  0
  -10.2037  103.8484   15.7893 C   0  0  0  0  0  0  0  0  0  0  0  0
  -11.1418  102.8205   15.7483 C   0  0  0  0  0  0  0  0  0  0  0  0
   -9.6916  108.3994   14.2208 N   0  0  0  0  0  0  0  0  0  0  0  0
   -8.5272  108.8741   14.9840 C   0  0  2  0  0  0  0  0  0  0  0  0
   -7.2660  108.6180   14.3204 C   0  0  0  0  0  0  0  0  0  0  0  0
   -7.4051  108.6576   13.0127 O   0  0  0  0  0  0  0  0  0  0  0  0
   -8.7781  108.3186   16.3251 C   0  0  0  0  0  0  0  0  0  0  0  0
  -10.3085  108.1452   16.3603 C   0  0  0  0  0  0  0  0  0  0  0  0
  -10.7564  108.9436   15.1208 C   0  0  0  0  0  0  0  0  0  0  0  0
   -5.9773  108.3452   14.8115 N   0  0  0  0  0  0  0  0  0  0  0  0
   -4.9874  109.1452   15.4165 C   0  0  2  0  0  0  0  0  0  0  0  0
   -3.8353  108.2376   15.8966 C   0  0  0  0  0  0  0  0  0  0  0  0
   -4.2229  107.0776   16.1966 O   0  0  0  0  0  0  0  0  0  0  0  0
   -5.3679  110.0459   16.5386 C   0  0  0  0  0  0  0  0  0  0  0  0
   -4.2720  110.5514   17.3677 C   0  0  0  0  0  0  0  0  0  0  0  0
   -4.5074  111.2581   18.3608 O   0  0  0  0  0  0  0  0  0  0  0  0
   -2.9367  110.2358   17.0400 N   0  0  0  0  0  0  0  0  0  0  0  0
   -1.4536  109.2920   16.7364 O   0  0  0  0  0  0  0  0  0  0  0  0
   -1.9609  101.9727   12.7801 H   0  0  0  0  0  0  0  0  0  0  0  0
   -5.5763   88.8705    8.4203 H   0  0  0  0  0  0  0  0  0  0  0  0
  1  2  1  0
  1108  1  0
  1114  1  0
  2  3  1  0
  2114  1  1
  3  4  2  0
  3  5  1  0
  5  6  1  0
  6  7  1  0
  6  9  1  1
  7  8  2  0
  7 16  1  0
  9 10  1  0
 10 11  1  0
 11 12  1  0
 12 13  1  0
 13 14  2  0
 13 15  1  0
 17 16  1  6
 17 18  1  0
 17 20  1  0
 18 19  2  0
 18 22  1  0
 20 21  1  0
 21 87  1  0
 22 23  1  0
 23 24  1  0
 23 26  1  1
 24 25  2  0
 24 34  1  0
 26 27  1  0
 27 28  2  0
 27 29  1  0
 28 30  1  0
 29 31  2  0
 30 32  2  0
 31 32  1  0
 32 33  1  0
 34 35  1  0
 35 36  1  0
 35 38  1  6
 36 37  2  0
 36 43  1  0
 38 39  1  0
 39 40  1  0
 40 41  1  0
 41 42  1  0
 43 44  1  0
 44 45  1  0
 44 47  1  1
 45 46  2  0
 45 49  1  0
 47 48  1  0
 49 50  1  0
 50 51  1  0
 50 53  1  1
 51 52  2  0
 51 60  1  0
 53 54  1  0
 54 55  1  0
 55 56  1  0
 56 57  1  0
 57 58  2  0
 57 59  1  0
 60 61  1  0
 60 66  1  0
 61 62  1  0
 61 64  1  1
 62 63  2  0
 62 67  1  0
 64 65  1  0
 65 66  1  0
 67 68  1  0
 67 73  1  0
 68 69  1  0
 68 71  1  1
 69 70  2  0
 69 74  1  0
 71 72  1  0
 72 73  1  0
 75 74  1  1
 75 76  1  0
 75 78  1  0
 76 77  2  0
 76 82  1  0
 78 79  1  0
 78 80  1  1
 79 81  1  0
 83 82  1  6
 83 84  1  0
 83 86  1  0
 84 85  2  0
 84 88  1  0
 86 87  1  0
 88 89  1  0
 89 90  1  0
 89 92  1  1
 90 91  2  0
 90 99  1  0
 92 93  1  0
 93 94  2  0
 93 95  1  0
 94 96  1  0
 95 97  2  0
 96 98  2  0
 97 98  1  0
 99100  1  0
 99105  1  0
100101  1  0
100103  1  1
101102  2  0
101106  1  0
103104  1  0
104105  1  0
106107  1  0
107108  1  0
107110  1  1
108109  2  0
110111  1  0
111112  2  0
111113  1  0
 14115  1  0
 58116  1  0
M  CHG  1  42   1
M  END
$$$$
