
     RDKit          3D

116123  0  0  0  0  0  0  0  0999 V2000
   -6.4264   96.3036   18.5710 N   0  0  0  0  0  0  0  0  0  0  0  0
   -5.3483   95.5724   18.6043 C   0  0  2  0  0  0  0  0  0  0  0  0
   -4.6770   94.9658   17.4392 C   0  0  0  0  0  0  0  0  0  0  0  0
   -4.3262   93.7427   17.6595 O   0  0  0  0  0  0  0  0  0  0  0  0
   -4.3718   95.4781   16.1939 N   0  0  0  0  0  0  0  0  0  0  0  0
   -5.2328   96.0239   15.1634 C   0  0  2  0  0  0  0  0  0  0  0  0
   -5.1793   97.4979   15.1184 C   0  0  0  0  0  0  0  0  0  0  0  0
   -4.4929   98.0334   16.0715 O   0  0  0  0  0  0  0  0  0  0  0  0
   -6.6284   95.5086   15.1618 C   0  0  0  0  0  0  0  0  0  0  0  0
   -6.6895   93.9984   15.1676 C   0  0  0  0  0  0  0  0  0  0  0  0
   -5.3610   93.3393   15.0100 C   0  0  0  0  0  0  0  0  0  0  0  0
   -5.6154   92.0121   14.4344 N   0  0  0  0  0  0  0  0  0  0  0  0
   -4.5348   91.1663   14.0620 C   0  0  0  0  0  0  0  0  0  0  0  0
   -3.9506   91.4362   12.9253 N   0  0  0  0  0  0  0  0  0  0  0  0
   -4.1266   90.0957   14.8922 N   0  0  0  0  0  0  0  0  0  0  0  0
   -5.7668   98.3524   14.1944 N   0  0  0  0  0  0  0  0  0  0  0  0
   -5.6799   98.2960   12.7372 C   0  0  2  0  0  0  0  0  0  0  0  0
   -4.5930   99.1745   12.2559 C   0  0  0  0  0  0  0  0  0  0  0  0
   -4.9235  100.4013   12.0481 O   0  0  0  0  0  0  0  0  0  0  0  0
   -6.9855   98.8681   12.1473 C   0  0  0  0  0  0  0  0  0  0  0  0
   -7.9011   99.8548   13.3354 S   0  0  0  0  0  0  0  0  0  0  0  0
   -3.2531   98.8421   12.0014 N   0  0  0  0  0  0  0  0  0  0  0  0
   -2.7089   97.8215   11.1375 C   0  0  2  0  0  0  0  0  0  0  0  0
   -3.4106   97.7049    9.8319 C   0  0  0  0  0  0  0  0  0  0  0  0
   -4.6972   97.7668    9.8675 O   0  0  0  0  0  0  0  0  0  0  0  0
   -2.5962   96.4881   11.8444 C   0  0  0  0  0  0  0  0  0  0  0  0
   -2.3492   96.7330   13.2836 C   0  0  0  0  0  0  0  0  0  0  0  0
   -2.3107   95.7687   14.2428 C   0  0  0  0  0  0  0  0  0  0  0  0
   -2.1558   98.0483   13.7144 C   0  0  0  0  0  0  0  0  0  0  0  0
   -2.0934   96.0698   15.5679 C   0  0  0  0  0  0  0  0  0  0  0  0
   -1.9373   98.3646   15.0344 C   0  0  0  0  0  0  0  0  0  0  0  0
   -1.9031   97.3721   15.9861 C   0  0  0  0  0  0  0  0  0  0  0  0
   -1.6813   97.6686   17.3438 O   0  0  0  0  0  0  0  0  0  0  0  0
   -2.8357   97.5355    8.5746 N   0  0  0  0  0  0  0  0  0  0  0  0
   -1.8358   98.3792    7.9243 C   0  0  2  0  0  0  0  0  0  0  0  0
   -2.1876   98.3783    6.4834 C   0  0  0  0  0  0  0  0  0  0  0  0
   -1.4926   97.6045    5.7372 O   0  0  0  0  0  0  0  0  0  0  0  0
   -0.5057   97.6700    8.1017 C   0  0  0  0  0  0  0  0  0  0  0  0
   -0.5066   96.3091    7.4104 C   0  0  0  0  0  0  0  0  0  0  0  0
   -1.7585   95.5746    7.8784 C   0  0  0  0  0  0  0  0  0  0  0  0
   -2.0603   94.3965    6.9883 C   0  0  0  0  0  0  0  0  0  0  0  0
   -2.0490   93.2074    7.8001 N   0  0  0  0  0  4  0  0  0  0  0  0
   -3.1935   99.1290    5.8602 N   0  0  0  0  0  0  0  0  0  0  0  0
   -3.4236  100.5693    5.9950 C   0  0  2  0  0  0  0  0  0  0  0  0
   -2.2493  101.2525    6.5548 C   0  0  0  0  0  0  0  0  0  0  0  0
   -1.1597  100.7497    6.0426 O   0  0  0  0  0  0  0  0  0  0  0  0
   -4.7250  100.8007    6.6743 C   0  0  0  0  0  0  0  0  0  0  0  0
   -4.4167  101.6346    7.7902 O   0  0  0  0  0  0  0  0  0  0  0  0
   -2.0725  102.2647    7.4679 N   0  0  0  0  0  0  0  0  0  0  0  0
   -2.3709  103.7009    7.4056 C   0  0  2  0  0  0  0  0  0  0  0  0
   -3.7145  104.0018    7.9060 C   0  0  0  0  0  0  0  0  0  0  0  0
   -4.0849  103.1560    8.8281 O   0  0  0  0  0  0  0  0  0  0  0  0
   -1.8584  104.4145    6.2387 C   0  0  0  0  0  0  0  0  0  0  0  0
   -0.4361  104.7147    6.0620 C   0  0  0  0  0  0  0  0  0  0  0  0
    0.5092  104.3222    7.1411 C   0  0  0  0  0  0  0  0  0  0  0  0
   -0.3074  104.1120    8.3485 N   0  0  0  0  0  0  0  0  0  0  0  0
    0.2907  103.6225    9.5440 C   0  0  0  0  0  0  0  0  0  0  0  0
    0.3059  102.3305    9.7590 N   0  0  0  0  0  0  0  0  0  0  0  0
    0.8552  104.5304   10.4693 N   0  0  0  0  0  0  0  0  0  0  0  0
   -4.6453  104.9884    7.5970 N   0  0  0  0  0  0  0  0  0  0  0  0
   -4.4975  106.4252    7.6670 C   0  0  2  0  0  0  0  0  0  0  0  0
   -3.7457  106.9781    8.7838 C   0  0  0  0  0  0  0  0  0  0  0  0
   -2.5108  106.6074    8.8385 O   0  0  0  0  0  0  0  0  0  0  0  0
   -5.8632  107.0449    7.4668 C   0  0  0  0  0  0  0  0  0  0  0  0
   -6.4016  106.0514    6.4178 C   0  0  0  0  0  0  0  0  0  0  0  0
   -6.0259  104.7822    7.1534 C   0  0  0  0  0  0  0  0  0  0  0  0
   -4.0898  107.8469    9.8284 N   0  0  0  0  0  0  0  0  0  0  0  0
   -5.1125  107.7473   10.8461 C   0  0  2  0  0  0  0  0  0  0  0  0
   -5.7990  106.5034   11.0102 C   0  0  0  0  0  0  0  0  0  0  0  0
   -5.3647  105.4013   10.5123 O   0  0  0  0  0  0  0  0  0  0  0  0
   -5.9087  108.9823   10.5642 C   0  0  0  0  0  0  0  0  0  0  0  0
   -4.8065  109.9631   10.1440 C   0  0  0  0  0  0  0  0  0  0  0  0
   -3.5244  109.1655   10.2631 C   0  0  0  0  0  0  0  0  0  0  0  0
   -6.9987  106.3952   11.7284 N   0  0  0  0  0  0  0  0  0  0  0  0
   -7.2114  106.7937   13.1299 C   0  0  2  0  0  0  0  0  0  0  0  0
   -6.5117  105.9719   14.0875 C   0  0  0  0  0  0  0  0  0  0  0  0
   -5.4403  106.5285   14.6523 O   0  0  0  0  0  0  0  0  0  0  0  0
   -8.5639  107.3329   13.4067 C   0  0  2  0  0  0  0  0  0  0  0  0
   -8.6229  108.5087   14.3355 C   0  0  0  0  0  0  0  0  0  0  0  0
   -9.4788  106.2743   14.0599 C   0  0  0  0  0  0  0  0  0  0  0  0
   -7.9646  108.1933   15.6720 C   0  0  0  0  0  0  0  0  0  0  0  0
   -6.6877  104.6813   14.5846 N   0  0  0  0  0  0  0  0  0  0  0  0
   -7.7716  103.9741   15.1412 C   0  0  2  0  0  0  0  0  0  0  0  0
   -7.5084  103.1057   16.3059 C   0  0  0  0  0  0  0  0  0  0  0  0
   -8.2267  102.0322   16.2805 O   0  0  0  0  0  0  0  0  0  0  0  0
   -8.2698  103.0489   13.9956 C   0  0  0  0  0  0  0  0  0  0  0  0
   -7.0691  101.7142   13.7850 S   0  0  0  0  0  0  0  0  0  0  0  0
   -6.6551  103.2262   17.3912 N   0  0  0  0  0  0  0  0  0  0  0  0
   -6.4980  104.2310   18.3936 C   0  0  2  0  0  0  0  0  0  0  0  0
   -7.0896  104.0294   19.7134 C   0  0  0  0  0  0  0  0  0  0  0  0
   -6.4811  104.7324   20.6474 O   0  0  0  0  0  0  0  0  0  0  0  0
   -6.9076  105.6082   17.8651 C   0  0  0  0  0  0  0  0  0  0  0  0
   -8.0645  106.1579   18.5970 C   0  0  0  0  0  0  0  0  0  0  0  0
   -9.1622  105.3722   18.8374 C   0  0  0  0  0  0  0  0  0  0  0  0
   -8.0605  107.4526   19.0507 C   0  0  0  0  0  0  0  0  0  0  0  0
  -10.2561  105.8575   19.5234 C   0  0  0  0  0  0  0  0  0  0  0  0
   -9.1539  107.9321   19.7347 C   0  0  0  0  0  0  0  0  0  0  0  0
  -10.2788  107.1525   19.9901 C   0  0  0  0  0  0  0  0  0  0  0  0
   -8.1358  103.2809   20.2141 N   0  0  0  0  0  0  0  0  0  0  0  0
   -8.2909  101.8200   20.2878 C   0  0  2  0  0  0  0  0  0  0  0  0
   -7.1190  101.0976   19.8392 C   0  0  0  0  0  0  0  0  0  0  0  0
   -6.0209  101.7751   20.0961 O   0  0  0  0  0  0  0  0  0  0  0  0
   -9.5871  101.6039   19.6220 C   0  0  0  0  0  0  0  0  0  0  0  0
  -10.3151  102.9485   19.8104 C   0  0  0  0  0  0  0  0  0  0  0  0
   -9.4336  103.6531   20.8599 C   0  0  0  0  0  0  0  0  0  0  0  0
   -6.9609   99.8536   19.2037 N   0  0  0  0  0  0  0  0  0  0  0  0
   -7.0616   98.5219   19.6538 C   0  0  2  0  0  0  0  0  0  0  0  0
   -6.9436   97.5740   18.4418 C   0  0  0  0  0  0  0  0  0  0  0  0
   -7.3649   98.0941   17.3750 O   0  0  0  0  0  0  0  0  0  0  0  0
   -8.2508   98.1128   20.4497 C   0  0  0  0  0  0  0  0  0  0  0  0
   -7.9949   97.2536   21.6074 C   0  0  0  0  0  0  0  0  0  0  0  0
   -7.1938   96.3087   21.5260 O   0  0  0  0  0  0  0  0  0  0  0  0
   -8.6609   97.4970   22.8269 N   0  0  0  0  0  0  0  0  0  0  0  0
   -6.6213   94.8769   18.7754 O   0  0  0  0  0  0  0  0  0  0  0  0
   -2.9759   91.1249   12.7344 H   0  0  0  0  0  0  0  0  0  0  0  0
    0.9781  101.9101   10.4345 H   0  0  0  0  0  0  0  0  0  0  0  0
  1  2  1  0
  1108  1  0
  1114  1  0
  2  3  1  0
  2114  1  1
  3  4  2  0
  3  5  1  0
  5  6  1  0
  6  7  1  0
  6  9  1  1
  7  8  2  0
  7 16  1  0
  9 10  1  0
 10 11  1  0
 11 12  1  0
 12 13  1  0
 13 14  2  0
 13 15  1  0
 17 16  1  1
 17 18  1  0
 17 20  1  0
 18 19  2  0
 18 22  1  0
 20 21  1  0
 21 87  1  0
 22 23  1  0
 23 24  1  0
 23 26  1  1
 24 25  2  0
 24 34  1  0
 26 27  1  0
 27 28  2  0
 27 29  1  0
 28 30  1  0
 29 31  2  0
 30 32  2  0
 31 32  1  0
 32 33  1  0
 34 35  1  0
 35 36  1  0
 35 38  1  6
 36 37  2  0
 36 43  1  0
 38 39  1  0
 39 40  1  0
 40 41  1  0
 41 42  1  0
 43 44  1  0
 44 45  1  0
 44 47  1  1
 45 46  2  0
 45 49  1  0
 47 48  1  0
 49 50  1  0
 50 51  1  0
 50 53  1  6
 51 52  2  0
 51 60  1  0
 53 54  1  0
 54 55  1  0
 55 56  1  0
 56 57  1  0
 57 58  2  0
 57 59  1  0
 60 61  1  0
 60 66  1  0
 61 62  1  0
 61 64  1  1
 62 63  2  0
 62 67  1  0
 64 65  1  0
 65 66  1  0
 67 68  1  0
 67 73  1  0
 68 69  1  0
 68 71  1  6
 69 70  2  0
 69 74  1  0
 71 72  1  0
 72 73  1  0
 75 74  1  6
 75 76  1  0
 75 78  1  0
 76 77  2  0
 76 82  1  0
 78 79  1  0
 78 80  1  1
 79 81  1  0
 83 82  1  6
 83 84  1  0
 83 86  1  0
 84 85  2  0
 84 88  1  0
 86 87  1  0
 88 89  1  0
 89 90  1  0
 89 92  1  6
 90 91  2  0
 90 99  1  0
 92 93  1  0
 93 94  2  0
 93 95  1  0
 94 96  1  0
 95 97  2  0
 96 98  2  0
 97 98  1  0
 99100  1  0
 99105  1  0
100101  1  0
100103  1  6
101102  2  0
101106  1  0
103104  1  0
104105  1  0
106107  1  0
107108  1  0
107110  1  6
108109  2  0
110111  1  0
111112  2  0
111113  1  0
 14115  1  0
 58116  1  0
M  CHG  1  42   1
M  END
$$$$
