
     RDKit          3D

116123  0  0  0  0  0  0  0  0999 V2000
   -7.1462   99.8050   19.2196 N   0  0  0  0  0  0  0  0  0  0  0  0
   -5.9936  100.0557   19.7734 C   0  0  2  0  0  0  0  0  0  0  0  0
   -4.7053   99.4356   19.4105 C   0  0  0  0  0  0  0  0  0  0  0  0
   -4.0189   99.0916   20.4488 O   0  0  0  0  0  0  0  0  0  0  0  0
   -4.1333   99.1744   18.1813 N   0  0  0  0  0  0  0  0  0  0  0  0
   -4.6073   98.3671   17.0746 C   0  0  2  0  0  0  0  0  0  0  0  0
   -5.1452   99.1922   15.9758 C   0  0  0  0  0  0  0  0  0  0  0  0
   -5.2191  100.4524   16.2455 O   0  0  0  0  0  0  0  0  0  0  0  0
   -5.5218   97.2537   17.4453 C   0  0  0  0  0  0  0  0  0  0  0  0
   -6.4701   96.8849   16.3277 C   0  0  0  0  0  0  0  0  0  0  0  0
   -5.9376   95.8432   15.4026 C   0  0  0  0  0  0  0  0  0  0  0  0
   -7.0302   94.8894   15.1694 N   0  0  0  0  0  0  0  0  0  0  0  0
   -6.7766   93.6388   14.5421 C   0  0  0  0  0  0  0  0  0  0  0  0
   -6.3043   93.6843   13.3251 N   0  0  0  0  0  0  0  0  0  0  0  0
   -7.0265   92.4204   15.2164 N   0  0  0  0  0  0  0  0  0  0  0  0
   -5.5702   98.7805   14.7192 N   0  0  0  0  0  0  0  0  0  0  0  0
   -4.8516   97.9501   13.7557 C   0  0  2  0  0  0  0  0  0  0  0  0
   -4.1265   98.8009   12.7887 C   0  0  0  0  0  0  0  0  0  0  0  0
   -4.8034   99.1664   11.7562 O   0  0  0  0  0  0  0  0  0  0  0  0
   -5.8838   97.1515   12.9333 C   0  0  0  0  0  0  0  0  0  0  0  0
   -7.5338   97.8518   13.0364 S   0  0  0  0  0  0  0  0  0  0  0  0
   -2.8018   99.2604   12.8555 N   0  0  0  0  0  0  0  0  0  0  0  0
   -1.5766   98.5107   12.9999 C   0  0  2  0  0  0  0  0  0  0  0  0
   -1.5343   97.2687   12.1837 C   0  0  0  0  0  0  0  0  0  0  0  0
   -2.6119   96.5626   12.1620 O   0  0  0  0  0  0  0  0  0  0  0  0
   -1.2461   98.2484   14.4534 C   0  0  0  0  0  0  0  0  0  0  0  0
   -1.4438   96.8078   14.7327 C   0  0  0  0  0  0  0  0  0  0  0  0
   -1.0039   96.1626   15.8470 C   0  0  0  0  0  0  0  0  0  0  0  0
   -2.1149   96.0291   13.7859 C   0  0  0  0  0  0  0  0  0  0  0  0
   -1.2073   94.8144   16.0343 C   0  0  0  0  0  0  0  0  0  0  0  0
   -2.3259   94.6817   13.9591 C   0  0  0  0  0  0  0  0  0  0  0  0
   -1.8714   94.0515   15.0940 C   0  0  0  0  0  0  0  0  0  0  0  0
   -2.0742   92.6735   15.2961 O   0  0  0  0  0  0  0  0  0  0  0  0
   -0.4621   96.7809   11.4404 N   0  0  0  0  0  0  0  0  0  0  0  0
    0.2795   97.4623   10.3819 C   0  0  2  0  0  0  0  0  0  0  0  0
    0.6148   96.4126    9.3890 C   0  0  0  0  0  0  0  0  0  0  0  0
    1.8106   95.9581    9.4361 O   0  0  0  0  0  0  0  0  0  0  0  0
    1.5644   97.9584   11.0195 C   0  0  0  0  0  0  0  0  0  0  0  0
    1.3456   99.2791   11.7528 C   0  0  0  0  0  0  0  0  0  0  0  0
    0.0911   99.9127   11.1607 C   0  0  0  0  0  0  0  0  0  0  0  0
   -0.3168   99.2190    9.8865 C   0  0  0  0  0  0  0  0  0  0  0  0
   -1.5881   99.7535    9.4727 N   0  0  0  0  0  4  0  0  0  0  0  0
   -0.2343   95.8712    8.4145 N   0  0  0  0  0  0  0  0  0  0  0  0
   -1.0642   96.6147    7.4638 C   0  0  2  0  0  0  0  0  0  0  0  0
   -0.6361   98.0163    7.3559 C   0  0  0  0  0  0  0  0  0  0  0  0
    0.6670   98.0824    7.3682 O   0  0  0  0  0  0  0  0  0  0  0  0
   -2.4992   96.3698    7.7630 C   0  0  0  0  0  0  0  0  0  0  0  0
   -2.7983   97.2247    8.8654 O   0  0  0  0  0  0  0  0  0  0  0  0
   -1.2978   99.2167    7.2521 N   0  0  0  0  0  0  0  0  0  0  0  0
   -2.0965   99.8024    6.1684 C   0  0  2  0  0  0  0  0  0  0  0  0
   -3.5169   99.4668    6.2939 C   0  0  0  0  0  0  0  0  0  0  0  0
   -3.8669   99.3154    7.5419 O   0  0  0  0  0  0  0  0  0  0  0  0
   -1.4730   99.8216    4.8477 C   0  0  0  0  0  0  0  0  0  0  0  0
   -0.5389  100.8704    4.4336 C   0  0  0  0  0  0  0  0  0  0  0  0
   -0.3555  102.0467    5.3251 C   0  0  0  0  0  0  0  0  0  0  0  0
    0.4841  101.5886    6.4449 N   0  0  0  0  0  0  0  0  0  0  0  0
    0.8225  102.4812    7.5010 C   0  0  0  0  0  0  0  0  0  0  0  0
    1.9225  103.1857    7.4039 N   0  0  0  0  0  0  0  0  0  0  0  0
   -0.0276  102.5930    8.6253 N   0  0  0  0  0  0  0  0  0  0  0  0
   -4.5365   99.2843    5.3652 N   0  0  0  0  0  0  0  0  0  0  0  0
   -5.0325  100.2118    4.3727 C   0  0  2  0  0  0  0  0  0  0  0  0
   -5.1311  101.6158    4.7427 C   0  0  0  0  0  0  0  0  0  0  0  0
   -4.0080  102.1723    5.0503 O   0  0  0  0  0  0  0  0  0  0  0  0
   -6.2999   99.6313    3.7843 C   0  0  0  0  0  0  0  0  0  0  0  0
   -5.8789   98.1481    3.7803 C   0  0  0  0  0  0  0  0  0  0  0  0
   -5.3750   98.0939    5.2074 C   0  0  0  0  0  0  0  0  0  0  0  0
   -6.2107  102.5050    4.8329 N   0  0  0  0  0  0  0  0  0  0  0  0
   -7.4315  102.4383    5.6055 C   0  0  2  0  0  0  0  0  0  0  0  0
   -7.5487  101.4362    6.6191 C   0  0  0  0  0  0  0  0  0  0  0  0
   -6.5360  100.7897    7.0747 O   0  0  0  0  0  0  0  0  0  0  0  0
   -8.4552  102.4896    4.5156 C   0  0  0  0  0  0  0  0  0  0  0  0
   -7.7858  103.4420    3.5166 C   0  0  0  0  0  0  0  0  0  0  0  0
   -6.4785  103.8265    4.1779 C   0  0  0  0  0  0  0  0  0  0  0  0
   -8.7801  101.0852    7.1913 N   0  0  0  0  0  0  0  0  0  0  0  0
   -9.7154  101.9989    7.8684 C   0  0  2  0  0  0  0  0  0  0  0  0
   -9.2278  102.5148    9.1246 C   0  0  0  0  0  0  0  0  0  0  0  0
   -8.8332  103.7878    9.1118 O   0  0  0  0  0  0  0  0  0  0  0  0
  -11.1442  101.6600    7.6671 C   0  0  2  0  0  0  0  0  0  0  0  0
  -12.1217  102.7705    7.9123 C   0  0  0  0  0  0  0  0  0  0  0  0
  -11.6006  100.5244    8.6086 C   0  0  0  0  0  0  0  0  0  0  0  0
  -11.4181  104.0327    8.3927 C   0  0  0  0  0  0  0  0  0  0  0  0
   -9.0574  101.9830   10.4021 N   0  0  0  0  0  0  0  0  0  0  0  0
   -9.8821  101.2731   11.2969 C   0  0  2  0  0  0  0  0  0  0  0  0
   -9.8164  101.6256   12.7292 C   0  0  0  0  0  0  0  0  0  0  0  0
   -9.9473  100.5888   13.4886 O   0  0  0  0  0  0  0  0  0  0  0  0
   -9.4152   99.7952   11.1770 C   0  0  0  0  0  0  0  0  0  0  0  0
   -7.8134   99.6405   12.0000 S   0  0  0  0  0  0  0  0  0  0  0  0
   -9.6434  102.8309   13.3909 N   0  0  0  0  0  0  0  0  0  0  0  0
  -10.3563  104.0677   13.3540 C   0  0  2  0  0  0  0  0  0  0  0  0
  -11.3177  104.3758   14.4092 C   0  0  0  0  0  0  0  0  0  0  0  0
  -11.5144  105.6719   14.5444 O   0  0  0  0  0  0  0  0  0  0  0  0
  -11.0204  104.2828   11.9915 C   0  0  0  0  0  0  0  0  0  0  0  0
  -10.0374  104.2750   10.8916 C   0  0  0  0  0  0  0  0  0  0  0  0
  -10.4639  104.2778    9.5885 C   0  0  0  0  0  0  0  0  0  0  0  0
   -8.6902  104.2700   11.1509 C   0  0  0  0  0  0  0  0  0  0  0  0
   -9.5678  104.2758    8.5397 C   0  0  0  0  0  0  0  0  0  0  0  0
   -7.8002  104.2682   10.1015 C   0  0  0  0  0  0  0  0  0  0  0  0
   -8.2107  104.2711    8.7711 C   0  0  0  0  0  0  0  0  0  0  0  0
  -12.0711  103.6327   15.2955 N   0  0  0  0  0  0  0  0  0  0  0  0
  -11.6329  102.7715   16.4045 C   0  0  2  0  0  0  0  0  0  0  0  0
  -10.2014  102.8013   16.6199 C   0  0  0  0  0  0  0  0  0  0  0  0
   -9.7023  103.9778   16.3073 O   0  0  0  0  0  0  0  0  0  0  0  0
  -12.3040  101.4957   16.1007 C   0  0  0  0  0  0  0  0  0  0  0  0
  -13.5193  101.9227   15.2557 C   0  0  0  0  0  0  0  0  0  0  0  0
  -13.5462  103.4485   15.4696 C   0  0  0  0  0  0  0  0  0  0  0  0
   -9.2944  101.8322   17.0833 N   0  0  0  0  0  0  0  0  0  0  0  0
   -9.0265  101.2948   18.3582 C   0  0  2  0  0  0  0  0  0  0  0  0
   -8.0251  100.1301   18.2096 C   0  0  0  0  0  0  0  0  0  0  0  0
   -8.1186   99.5475   17.0970 O   0  0  0  0  0  0  0  0  0  0  0  0
  -10.1603  100.8280   19.2019 C   0  0  0  0  0  0  0  0  0  0  0  0
   -9.8791   99.7167   20.1129 C   0  0  0  0  0  0  0  0  0  0  0  0
   -9.3015   98.6970   19.7035 O   0  0  0  0  0  0  0  0  0  0  0  0
  -10.2654   99.8003   21.4671 N   0  0  0  0  0  0  0  0  0  0  0  0
   -6.8101   99.0156   20.3939 O   0  0  0  0  0  0  0  0  0  0  0  0
   -6.1735   92.8161   12.7662 H   0  0  0  0  0  0  0  0  0  0  0  0
    2.3959  103.3114    6.4845 H   0  0  0  0  0  0  0  0  0  0  0  0
  1  2  1  0
  1108  1  0
  1114  1  0
  2  3  1  0
  2114  1  1
  3  4  2  0
  3  5  1  0
  5  6  1  0
  6  7  1  0
  6  9  1  1
  7  8  2  0
  7 16  1  0
  9 10  1  0
 10 11  1  0
 11 12  1  0
 12 13  1  0
 13 14  2  0
 13 15  1  0
 17 16  1  1
 17 18  1  0
 17 20  1  0
 18 19  2  0
 18 22  1  0
 20 21  1  0
 21 87  1  0
 22 23  1  0
 23 24  1  0
 23 26  1  1
 24 25  2  0
 24 34  1  0
 26 27  1  0
 27 28  2  0
 27 29  1  0
 28 30  1  0
 29 31  2  0
 30 32  2  0
 31 32  1  0
 32 33  1  0
 34 35  1  0
 35 36  1  0
 35 38  1  1
 36 37  2  0
 36 43  1  0
 38 39  1  0
 39 40  1  0
 40 41  1  0
 41 42  1  0
 43 44  1  0
 44 45  1  0
 44 47  1  1
 45 46  2  0
 45 49  1  0
 47 48  1  0
 49 50  1  0
 50 51  1  0
 50 53  1  6
 51 52  2  0
 51 60  1  0
 53 54  1  0
 54 55  1  0
 55 56  1  0
 56 57  1  0
 57 58  2  0
 57 59  1  0
 60 61  1  0
 60 66  1  0
 61 62  1  0
 61 64  1  1
 62 63  2  0
 62 67  1  0
 64 65  1  0
 65 66  1  0
 67 68  1  0
 67 73  1  0
 68 69  1  0
 68 71  1  6
 69 70  2  0
 69 74  1  0
 71 72  1  0
 72 73  1  0
 75 74  1  1
 75 76  1  0
 75 78  1  0
 76 77  2  0
 76 82  1  0
 78 79  1  0
 78 80  1  1
 79 81  1  0
 83 82  1  6
 83 84  1  0
 83 86  1  0
 84 85  2  0
 84 88  1  0
 86 87  1  0
 88 89  1  0
 89 90  1  0
 89 92  1  6
 90 91  2  0
 90 99  1  0
 92 93  1  0
 93 94  2  0
 93 95  1  0
 94 96  1  0
 95 97  2  0
 96 98  2  0
 97 98  1  0
 99100  1  0
 99105  1  0
100101  1  0
100103  1  6
101102  2  0
101106  1  0
103104  1  0
104105  1  0
106107  1  0
107108  1  0
107110  1  6
108109  2  0
110111  1  0
111112  2  0
111113  1  0
 14115  1  0
 58116  1  0
M  CHG  1  42   1
M  END
$$$$
