
     RDKit          3D

116123  0  0  0  0  0  0  0  0999 V2000
  -11.2307  101.5736    6.2880 N   0  0  0  0  0  0  0  0  0  0  0  0
  -11.7788  100.4182    6.0379 C   0  0  2  0  0  0  0  0  0  0  0  0
  -11.0689   99.1962    5.6153 C   0  0  0  0  0  0  0  0  0  0  0  0
  -11.6774   98.5852    4.6540 O   0  0  0  0  0  0  0  0  0  0  0  0
   -9.8993   98.6186    6.0678 N   0  0  0  0  0  0  0  0  0  0  0  0
   -8.5497   99.1445    6.1241 C   0  0  2  0  0  0  0  0  0  0  0  0
   -8.1694   99.5526    7.4903 C   0  0  0  0  0  0  0  0  0  0  0  0
   -9.1315   99.4941    8.3488 O   0  0  0  0  0  0  0  0  0  0  0  0
   -8.2312  100.1885    5.1131 C   0  0  0  0  0  0  0  0  0  0  0  0
   -8.3264   99.6722    3.6958 C   0  0  0  0  0  0  0  0  0  0  0  0
   -8.7824   98.2555    3.5982 C   0  0  0  0  0  0  0  0  0  0  0  0
   -9.6555   98.1748    2.4197 N   0  0  0  0  0  0  0  0  0  0  0  0
   -9.2792   97.3928    1.2933 C   0  0  0  0  0  0  0  0  0  0  0  0
   -9.9918   96.3221    1.0650 N   0  0  0  0  0  0  0  0  0  0  0  0
   -8.1898   97.7710    0.4737 N   0  0  0  0  0  0  0  0  0  0  0  0
   -6.9295   99.9811    7.9464 N   0  0  0  0  0  0  0  0  0  0  0  0
   -5.6337   99.3296    7.7708 C   0  0  2  0  0  0  0  0  0  0  0  0
   -5.3239   98.4844    8.9431 C   0  0  0  0  0  0  0  0  0  0  0  0
   -4.7323   99.0836    9.9170 O   0  0  0  0  0  0  0  0  0  0  0  0
   -4.5414  100.4181    7.7271 C   0  0  0  0  0  0  0  0  0  0  0  0
   -5.1034  101.9822    8.4062 S   0  0  0  0  0  0  0  0  0  0  0  0
   -5.5945   97.1195    9.1282 N   0  0  0  0  0  0  0  0  0  0  0  0
   -5.2206   95.9905    8.3099 C   0  0  2  0  0  0  0  0  0  0  0  0
   -3.8291   96.0612    7.7911 C   0  0  0  0  0  0  0  0  0  0  0  0
   -3.4398   97.2095    7.3551 O   0  0  0  0  0  0  0  0  0  0  0  0
   -6.2268   95.7370    7.2082 C   0  0  0  0  0  0  0  0  0  0  0  0
   -7.5659   95.5691    7.8175 C   0  0  0  0  0  0  0  0  0  0  0  0
   -8.4030   96.5881    8.1522 C   0  0  0  0  0  0  0  0  0  0  0  0
   -8.0168   94.2757    8.0946 C   0  0  0  0  0  0  0  0  0  0  0  0
   -9.6295   96.3602    8.7333 C   0  0  0  0  0  0  0  0  0  0  0  0
   -9.2394   94.0322    8.6744 C   0  0  0  0  0  0  0  0  0  0  0  0
  -10.0683   95.0791    9.0042 C   0  0  0  0  0  0  0  0  0  0  0  0
  -11.3247   94.8575    9.5984 O   0  0  0  0  0  0  0  0  0  0  0  0
   -2.8984   95.0271    7.7219 N   0  0  0  0  0  0  0  0  0  0  0  0
   -2.4144   94.1815    8.8105 C   0  0  2  0  0  0  0  0  0  0  0  0
   -0.9814   93.9342    8.5181 C   0  0  0  0  0  0  0  0  0  0  0  0
   -0.7037   92.7985    7.9967 O   0  0  0  0  0  0  0  0  0  0  0  0
   -3.1692   92.8700    8.6933 C   0  0  0  0  0  0  0  0  0  0  0  0
   -4.6787   93.0950    8.7167 C   0  0  0  0  0  0  0  0  0  0  0  0
   -5.1777   92.6157   10.0758 C   0  0  0  0  0  0  0  0  0  0  0  0
   -6.6725   92.4245   10.0678 C   0  0  0  0  0  0  0  0  0  0  0  0
   -7.0295   91.6371   11.2192 N   0  0  0  0  0  4  0  0  0  0  0  0
    0.0898   94.8073    8.7502 N   0  0  0  0  0  0  0  0  0  0  0  0
    0.3868   95.5191    9.9955 C   0  0  2  0  0  0  0  0  0  0  0  0
   -0.3332   94.9345   11.1352 C   0  0  0  0  0  0  0  0  0  0  0  0
   -0.3294   93.6332   11.0397 O   0  0  0  0  0  0  0  0  0  0  0  0
    0.2312   96.9811    9.7785 C   0  0  0  0  0  0  0  0  0  0  0  0
   -1.1772   97.2091    9.7920 O   0  0  0  0  0  0  0  0  0  0  0  0
   -0.9823   95.4548   12.2295 N   0  0  0  0  0  0  0  0  0  0  0  0
   -0.4839   96.1490   13.4233 C   0  0  2  0  0  0  0  0  0  0  0  0
   -0.4452   97.6012   13.2345 C   0  0  0  0  0  0  0  0  0  0  0  0
   -1.3783   98.0048   12.4163 O   0  0  0  0  0  0  0  0  0  0  0  0
    0.5968   95.4861   14.1487 C   0  0  0  0  0  0  0  0  0  0  0  0
    0.4674   94.1307   14.6874 C   0  0  0  0  0  0  0  0  0  0  0  0
    0.1676   93.0203   13.7444 C   0  0  0  0  0  0  0  0  0  0  0  0
   -0.2099   93.6528   12.4692 N   0  0  0  0  0  0  0  0  0  0  0  0
   -0.7708   92.8726   11.4188 C   0  0  0  0  0  0  0  0  0  0  0  0
   -0.6913   93.3186   10.1897 N   0  0  0  0  0  0  0  0  0  0  0  0
   -1.3963   91.6401   11.7167 N   0  0  0  0  0  0  0  0  0  0  0  0
    0.3710   98.6051   13.7457 N   0  0  0  0  0  0  0  0  0  0  0  0
    0.6070   98.9634   15.1266 C   0  0  2  0  0  0  0  0  0  0  0  0
   -0.5218   98.9166   16.0440 C   0  0  0  0  0  0  0  0  0  0  0  0
   -1.0522   97.7488   16.1870 O   0  0  0  0  0  0  0  0  0  0  0  0
    1.3724  100.2685   15.1455 C   0  0  0  0  0  0  0  0  0  0  0  0
    2.2651  100.0154   13.9141 C   0  0  0  0  0  0  0  0  0  0  0  0
    1.1648   99.5656   12.9758 C   0  0  0  0  0  0  0  0  0  0  0  0
   -1.1614   99.8929   16.8201 N   0  0  0  0  0  0  0  0  0  0  0  0
   -1.7956  101.1371   16.4441 C   0  0  2  0  0  0  0  0  0  0  0  0
   -2.0294  101.3968   15.0573 C   0  0  0  0  0  0  0  0  0  0  0  0
   -1.9762  100.4772   14.1614 O   0  0  0  0  0  0  0  0  0  0  0  0
   -0.9868  102.1141   17.2378 C   0  0  0  0  0  0  0  0  0  0  0  0
   -0.7131  101.3118   18.5164 C   0  0  0  0  0  0  0  0  0  0  0  0
   -1.4206   99.9912   18.2933 C   0  0  0  0  0  0  0  0  0  0  0  0
   -2.3350  102.6770   14.5727 N   0  0  0  0  0  0  0  0  0  0  0  0
   -3.4571  103.5256   15.0072 C   0  0  2  0  0  0  0  0  0  0  0  0
   -4.7554  103.0232   14.6279 C   0  0  0  0  0  0  0  0  0  0  0  0
   -5.4780  102.4891   15.6124 O   0  0  0  0  0  0  0  0  0  0  0  0
   -3.1529  104.9762   15.0091 C   0  0  2  0  0  0  0  0  0  0  0  0
   -3.4481  105.7057   16.2856 C   0  0  0  0  0  0  0  0  0  0  0  0
   -3.9623  105.7315   13.9326 C   0  0  0  0  0  0  0  0  0  0  0  0
   -4.8307  105.3540   16.8184 C   0  0  0  0  0  0  0  0  0  0  0  0
   -5.4675  102.9532   13.4313 N   0  0  0  0  0  0  0  0  0  0  0  0
   -5.8061  103.8794   12.4253 C   0  0  2  0  0  0  0  0  0  0  0  0
   -7.1676  103.8197   11.8572 C   0  0  0  0  0  0  0  0  0  0  0  0
   -7.1763  104.0890   10.5937 O   0  0  0  0  0  0  0  0  0  0  0  0
   -4.8210  103.5764   11.2615 C   0  0  0  0  0  0  0  0  0  0  0  0
   -5.3299  102.0283   10.4794 S   0  0  0  0  0  0  0  0  0  0  0  0
   -8.4040  103.5345   12.4143 N   0  0  0  0  0  0  0  0  0  0  0  0
   -9.1305  104.1038   13.5039 C   0  0  2  0  0  0  0  0  0  0  0  0
  -10.2029  105.0574   13.2335 C   0  0  0  0  0  0  0  0  0  0  0  0
  -11.0825  105.1128   14.2133 O   0  0  0  0  0  0  0  0  0  0  0  0
   -8.1835  104.6968   14.5503 C   0  0  0  0  0  0  0  0  0  0  0  0
   -7.2434  103.6893   15.0771 C   0  0  0  0  0  0  0  0  0  0  0  0
   -7.3907  102.3687   14.7388 C   0  0  0  0  0  0  0  0  0  0  0  0
   -6.2109  104.0535   15.9036 C   0  0  0  0  0  0  0  0  0  0  0  0
   -6.5240  101.4055   15.2120 C   0  0  0  0  0  0  0  0  0  0  0  0
   -5.3488  103.0891   16.3729 C   0  0  0  0  0  0  0  0  0  0  0  0
   -5.4792  101.7429   16.0426 C   0  0  0  0  0  0  0  0  0  0  0  0
  -10.5121  105.9164   12.1981 N   0  0  0  0  0  0  0  0  0  0  0  0
  -10.8835  105.6117   10.8077 C   0  0  2  0  0  0  0  0  0  0  0  0
  -11.0171  104.1932   10.5497 C   0  0  0  0  0  0  0  0  0  0  0  0
  -11.4365  103.5567   11.6221 O   0  0  0  0  0  0  0  0  0  0  0  0
   -9.9148  106.4108   10.0374 C   0  0  0  0  0  0  0  0  0  0  0  0
   -9.5327  107.5440   11.0087 C   0  0  0  0  0  0  0  0  0  0  0  0
  -10.6041  107.4075   12.1079 C   0  0  0  0  0  0  0  0  0  0  0  0
  -10.7847  103.4148    9.4024 N   0  0  0  0  0  0  0  0  0  0  0  0
  -11.4874  103.2484    8.1922 C   0  0  2  0  0  0  0  0  0  0  0  0
  -10.6417  102.3787    7.2383 C   0  0  0  0  0  0  0  0  0  0  0  0
   -9.4042  102.5016    7.4368 O   0  0  0  0  0  0  0  0  0  0  0  0
  -11.9401  104.4530    7.4444 C   0  0  0  0  0  0  0  0  0  0  0  0
  -13.0688  104.2656    6.5307 C   0  0  0  0  0  0  0  0  0  0  0  0
  -12.8843  104.2107    5.3042 O   0  0  0  0  0  0  0  0  0  0  0  0
  -14.3779  104.1458    7.0426 N   0  0  0  0  0  0  0  0  0  0  0  0
  -11.7012  101.3644    4.9278 O   0  0  0  0  0  0  0  0  0  0  0  0
   -9.9598   95.8415    0.1423 H   0  0  0  0  0  0  0  0  0  0  0  0
   -1.4566   93.8951    9.7810 H   0  0  0  0  0  0  0  0  0  0  0  0
  1  2  1  0
  1108  1  0
  1114  1  0
  2  3  1  0
  2114  1  6
  3  4  2  0
  3  5  1  0
  5  6  1  0
  6  7  1  0
  6  9  1  6
  7  8  2  0
  7 16  1  0
  9 10  1  0
 10 11  1  0
 11 12  1  0
 12 13  1  0
 13 14  2  0
 13 15  1  0
 17 16  1  1
 17 18  1  0
 17 20  1  0
 18 19  2  0
 18 22  1  0
 20 21  1  0
 21 87  1  0
 22 23  1  0
 23 24  1  0
 23 26  1  6
 24 25  2  0
 24 34  1  0
 26 27  1  0
 27 28  2  0
 27 29  1  0
 28 30  1  0
 29 31  2  0
 30 32  2  0
 31 32  1  0
 32 33  1  0
 34 35  1  0
 35 36  1  0
 35 38  1  6
 36 37  2  0
 36 43  1  0
 38 39  1  0
 39 40  1  0
 40 41  1  0
 41 42  1  0
 43 44  1  0
 44 45  1  0
 44 47  1  6
 45 46  2  0
 45 49  1  0
 47 48  1  0
 49 50  1  0
 50 51  1  0
 50 53  1  6
 51 52  2  0
 51 60  1  0
 53 54  1  0
 54 55  1  0
 55 56  1  0
 56 57  1  0
 57 58  2  0
 57 59  1  0
 60 61  1  0
 60 66  1  0
 61 62  1  0
 61 64  1  6
 62 63  2  0
 62 67  1  0
 64 65  1  0
 65 66  1  0
 67 68  1  0
 67 73  1  0
 68 69  1  0
 68 71  1  6
 69 70  2  0
 69 74  1  0
 71 72  1  0
 72 73  1  0
 75 74  1  6
 75 76  1  0
 75 78  1  0
 76 77  2  0
 76 82  1  0
 78 79  1  0
 78 80  1  6
 79 81  1  0
 83 82  1  1
 83 84  1  0
 83 86  1  0
 84 85  2  0
 84 88  1  0
 86 87  1  0
 88 89  1  0
 89 90  1  0
 89 92  1  1
 90 91  2  0
 90 99  1  0
 92 93  1  0
 93 94  2  0
 93 95  1  0
 94 96  1  0
 95 97  2  0
 96 98  2  0
 97 98  1  0
 99100  1  0
 99105  1  0
100101  1  0
100103  1  6
101102  2  0
101106  1  0
103104  1  0
104105  1  0
106107  1  0
107108  1  0
107110  1  6
108109  2  0
110111  1  0
111112  2  0
111113  1  0
 14115  1  0
 58116  1  0
M  CHG  1  42   1
M  END
$$$$
