
     RDKit          3D

116123  0  0  0  0  0  0  0  0999 V2000
  -10.6410  102.1080    6.6211 N   0  0  0  0  0  0  0  0  0  0  0  0
  -11.3358  101.0314    6.3839 C   0  0  2  0  0  0  0  0  0  0  0  0
  -10.7873   99.6923    6.0976 C   0  0  0  0  0  0  0  0  0  0  0  0
  -11.3979   99.1133    5.1180 O   0  0  0  0  0  0  0  0  0  0  0  0
   -9.7624   98.9812    6.6893 N   0  0  0  0  0  0  0  0  0  0  0  0
   -8.3581   99.3056    6.8439 C   0  0  2  0  0  0  0  0  0  0  0  0
   -8.0375   99.7454    8.2155 C   0  0  0  0  0  0  0  0  0  0  0  0
   -9.0668   99.8878    8.9814 O   0  0  0  0  0  0  0  0  0  0  0  0
   -7.7991  100.2200    5.8119 C   0  0  0  0  0  0  0  0  0  0  0  0
   -8.4234  100.0105    4.4515 C   0  0  0  0  0  0  0  0  0  0  0  0
   -8.4026   98.5927    3.9890 C   0  0  0  0  0  0  0  0  0  0  0  0
   -7.6669   98.5755    2.7177 N   0  0  0  0  0  0  0  0  0  0  0  0
   -8.2940   98.1204    1.5256 C   0  0  0  0  0  0  0  0  0  0  0  0
   -7.7392   98.4862    0.4009 N   0  0  0  0  0  0  0  0  0  0  0  0
   -9.4550   97.3132    1.5742 N   0  0  0  0  0  0  0  0  0  0  0  0
   -6.7901  100.0171    8.7625 N   0  0  0  0  0  0  0  0  0  0  0  0
   -5.5987   99.1717    8.7457 C   0  0  2  0  0  0  0  0  0  0  0  0
   -5.5224   98.3720    9.9865 C   0  0  0  0  0  0  0  0  0  0  0  0
   -4.9313   98.9428   10.9777 O   0  0  0  0  0  0  0  0  0  0  0  0
   -4.3534  100.0821    8.7459 C   0  0  0  0  0  0  0  0  0  0  0  0
   -4.7258  101.7545    9.2824 S   0  0  0  0  0  0  0  0  0  0  0  0
   -6.0129   97.0776   10.2196 N   0  0  0  0  0  0  0  0  0  0  0  0
   -5.7475   95.8528    9.5032 C   0  0  2  0  0  0  0  0  0  0  0  0
   -4.3225   95.6825    9.1149 C   0  0  0  0  0  0  0  0  0  0  0  0
   -3.7268   96.7286    8.6554 O   0  0  0  0  0  0  0  0  0  0  0  0
   -6.6832   95.6755    8.3269 C   0  0  0  0  0  0  0  0  0  0  0  0
   -6.4091   96.7421    7.3371 C   0  0  0  0  0  0  0  0  0  0  0  0
   -5.8098   96.5502    6.1307 C   0  0  0  0  0  0  0  0  0  0  0  0
   -6.7687   98.0552    7.6525 C   0  0  0  0  0  0  0  0  0  0  0  0
   -5.5690   97.5925    5.2648 C   0  0  0  0  0  0  0  0  0  0  0  0
   -6.5351   99.1064    6.7978 C   0  0  0  0  0  0  0  0  0  0  0  0
   -5.9273   98.8876    5.5835 C   0  0  0  0  0  0  0  0  0  0  0  0
   -5.6766   99.9458    4.6902 O   0  0  0  0  0  0  0  0  0  0  0  0
   -3.5580   94.5206    9.1904 N   0  0  0  0  0  0  0  0  0  0  0  0
   -3.3031   93.6892   10.3644 C   0  0  2  0  0  0  0  0  0  0  0  0
   -1.9050   93.2144   10.2224 C   0  0  0  0  0  0  0  0  0  0  0  0
   -1.7605   92.0174    9.7924 O   0  0  0  0  0  0  0  0  0  0  0  0
   -4.2365   92.4980   10.2483 C   0  0  0  0  0  0  0  0  0  0  0  0
   -4.1998   91.8997    8.8445 C   0  0  0  0  0  0  0  0  0  0  0  0
   -2.7418   91.5733    8.5393 C   0  0  0  0  0  0  0  0  0  0  0  0
   -2.5783   90.1233    8.1626 C   0  0  0  0  0  0  0  0  0  0  0  0
   -1.2184   89.9224    7.7342 N   0  0  0  0  0  4  0  0  0  0  0  0
   -0.7367   93.9343   10.5064 N   0  0  0  0  0  0  0  0  0  0  0  0
   -0.4416   94.6779   11.7334 C   0  0  2  0  0  0  0  0  0  0  0  0
   -1.3368   94.2847   12.8304 C   0  0  0  0  0  0  0  0  0  0  0  0
   -1.5235   92.9935   12.8070 O   0  0  0  0  0  0  0  0  0  0  0  0
   -0.3533   96.1287   11.4232 C   0  0  0  0  0  0  0  0  0  0  0  0
   -1.5587   96.6913   11.9392 O   0  0  0  0  0  0  0  0  0  0  0  0
   -1.9896   94.9682   13.8285 N   0  0  0  0  0  0  0  0  0  0  0  0
   -1.4944   95.6614   15.0243 C   0  0  2  0  0  0  0  0  0  0  0  0
   -1.2186   97.0758   14.7609 C   0  0  0  0  0  0  0  0  0  0  0  0
   -2.0062   97.5555   13.8374 O   0  0  0  0  0  0  0  0  0  0  0  0
   -0.5932   94.8978   15.8835 C   0  0  0  0  0  0  0  0  0  0  0  0
    0.5167   94.1043   15.3520 C   0  0  0  0  0  0  0  0  0  0  0  0
    0.6494   93.9728   13.8766 C   0  0  0  0  0  0  0  0  0  0  0  0
   -0.6705   94.3022   13.3127 N   0  0  0  0  0  0  0  0  0  0  0  0
   -0.8629   94.3287   11.9024 C   0  0  0  0  0  0  0  0  0  0  0  0
    0.1281   94.7139   11.1374 N   0  0  0  0  0  0  0  0  0  0  0  0
   -2.1079   93.9404   11.3562 N   0  0  0  0  0  0  0  0  0  0  0  0
   -0.3052   97.9813   15.2911 N   0  0  0  0  0  0  0  0  0  0  0  0
   -0.1357   98.3943   16.6665 C   0  0  2  0  0  0  0  0  0  0  0  0
   -1.3322   98.5767   17.4745 C   0  0  0  0  0  0  0  0  0  0  0  0
   -2.0448   97.5121   17.6304 O   0  0  0  0  0  0  0  0  0  0  0  0
    0.8156   99.5709   16.6862 C   0  0  0  0  0  0  0  0  0  0  0  0
    1.7607   99.1058   15.5602 C   0  0  0  0  0  0  0  0  0  0  0  0
    0.6884   98.7598   14.5483 C   0  0  0  0  0  0  0  0  0  0  0  0
   -1.8790   99.6870   18.1323 N   0  0  0  0  0  0  0  0  0  0  0  0
   -2.2816  100.9824   17.6307 C   0  0  2  0  0  0  0  0  0  0  0  0
   -2.3542  101.1785   16.2159 C   0  0  0  0  0  0  0  0  0  0  0  0
   -2.3659  100.2021   15.3807 O   0  0  0  0  0  0  0  0  0  0  0  0
   -1.4037  101.8817   18.4425 C   0  0  0  0  0  0  0  0  0  0  0  0
   -1.3654  101.1370   19.7832 C   0  0  0  0  0  0  0  0  0  0  0  0
   -2.2445   99.9227   19.5669 C   0  0  0  0  0  0  0  0  0  0  0  0
   -2.4184  102.4536   15.6354 N   0  0  0  0  0  0  0  0  0  0  0  0
   -3.4308  103.4856   15.9151 C   0  0  2  0  0  0  0  0  0  0  0  0
   -4.7535  103.1549   15.4430 C   0  0  0  0  0  0  0  0  0  0  0  0
   -5.6302  102.8013   16.3827 O   0  0  0  0  0  0  0  0  0  0  0  0
   -2.9100  104.8724   15.8664 C   0  0  2  0  0  0  0  0  0  0  0  0
   -2.0167  105.2769   17.0009 C   0  0  0  0  0  0  0  0  0  0  0  0
   -4.0513  105.9125   15.8793 C   0  0  0  0  0  0  0  0  0  0  0  0
   -2.8138  105.8986   18.1399 C   0  0  0  0  0  0  0  0  0  0  0  0
   -5.3635  103.1090   14.1902 N   0  0  0  0  0  0  0  0  0  0  0  0
   -5.4700  104.0041   13.1076 C   0  0  2  0  0  0  0  0  0  0  0  0
   -6.7713  104.1067   12.4177 C   0  0  0  0  0  0  0  0  0  0  0  0
   -6.6314  104.2875   11.1462 O   0  0  0  0  0  0  0  0  0  0  0  0
   -4.4473  103.4809   12.0602 C   0  0  0  0  0  0  0  0  0  0  0  0
   -5.1181  101.9748   11.3194 S   0  0  0  0  0  0  0  0  0  0  0  0
   -8.0796  104.0451   12.8704 N   0  0  0  0  0  0  0  0  0  0  0  0
   -8.8008  104.7880   13.8538 C   0  0  2  0  0  0  0  0  0  0  0  0
   -9.6882  105.8683   13.4318 C   0  0  0  0  0  0  0  0  0  0  0  0
  -10.6291  106.1191   14.3198 O   0  0  0  0  0  0  0  0  0  0  0  0
   -7.8668  105.3053   14.9510 C   0  0  0  0  0  0  0  0  0  0  0  0
   -7.0834  106.4723   14.5031 C   0  0  0  0  0  0  0  0  0  0  0  0
   -6.4041  106.4283   13.3128 C   0  0  0  0  0  0  0  0  0  0  0  0
   -7.0252  107.6145   15.2608 C   0  0  0  0  0  0  0  0  0  0  0  0
   -5.6677  107.5060   12.8663 C   0  0  0  0  0  0  0  0  0  0  0  0
   -6.2896  108.6868   14.8111 C   0  0  0  0  0  0  0  0  0  0  0  0
   -5.5923  108.6644   13.6062 C   0  0  0  0  0  0  0  0  0  0  0  0
   -9.7734  106.6907   12.3264 N   0  0  0  0  0  0  0  0  0  0  0  0
  -10.0673  106.3498   10.9260 C   0  0  2  0  0  0  0  0  0  0  0  0
  -10.3934  104.9522   10.7344 C   0  0  0  0  0  0  0  0  0  0  0  0
  -10.9947  104.4589   11.7956 O   0  0  0  0  0  0  0  0  0  0  0  0
   -8.9261  106.9434   10.2080 C   0  0  0  0  0  0  0  0  0  0  0  0
   -8.4594  108.0716   11.1476 C   0  0  0  0  0  0  0  0  0  0  0  0
   -9.6287  108.1695   12.1466 C   0  0  0  0  0  0  0  0  0  0  0  0
  -10.1857  104.0716    9.6584 N   0  0  0  0  0  0  0  0  0  0  0  0
  -10.8001  103.9283    8.3982 C   0  0  2  0  0  0  0  0  0  0  0  0
  -10.0191  102.8806    7.5773 C   0  0  0  0  0  0  0  0  0  0  0  0
   -8.7987  102.8334    7.8847 O   0  0  0  0  0  0  0  0  0  0  0  0
  -10.9984  105.1325    7.5464 C   0  0  0  0  0  0  0  0  0  0  0  0
  -11.1014  104.8998    6.1044 C   0  0  0  0  0  0  0  0  0  0  0  0
  -11.2119  105.8543    5.3184 O   0  0  0  0  0  0  0  0  0  0  0  0
  -11.0752  103.5829    5.5993 N   0  0  0  0  0  0  0  0  0  0  0  0
  -11.0205  101.8779    5.2361 O   0  0  0  0  0  0  0  0  0  0  0  0
   -7.1666   99.3533    0.3408 H   0  0  0  0  0  0  0  0  0  0  0  0
    0.4397   94.1293   10.3335 H   0  0  0  0  0  0  0  0  0  0  0  0
  1  2  1  0
  1108  1  0
  1114  1  0
  2  3  1  0
  2114  1  6
  3  4  2  0
  3  5  1  0
  5  6  1  0
  6  7  1  0
  6  9  1  6
  7  8  2  0
  7 16  1  0
  9 10  1  0
 10 11  1  0
 11 12  1  0
 12 13  1  0
 13 14  2  0
 13 15  1  0
 17 16  1  1
 17 18  1  0
 17 20  1  0
 18 19  2  0
 18 22  1  0
 20 21  1  0
 21 87  1  0
 22 23  1  0
 23 24  1  0
 23 26  1  6
 24 25  2  0
 24 34  1  0
 26 27  1  0
 27 28  2  0
 27 29  1  0
 28 30  1  0
 29 31  2  0
 30 32  2  0
 31 32  1  0
 32 33  1  0
 34 35  1  0
 35 36  1  0
 35 38  1  6
 36 37  2  0
 36 43  1  0
 38 39  1  0
 39 40  1  0
 40 41  1  0
 41 42  1  0
 43 44  1  0
 44 45  1  0
 44 47  1  6
 45 46  2  0
 45 49  1  0
 47 48  1  0
 49 50  1  0
 50 51  1  0
 50 53  1  6
 51 52  2  0
 51 60  1  0
 53 54  1  0
 54 55  1  0
 55 56  1  0
 56 57  1  0
 57 58  2  0
 57 59  1  0
 60 61  1  0
 60 66  1  0
 61 62  1  0
 61 64  1  6
 62 63  2  0
 62 67  1  0
 64 65  1  0
 65 66  1  0
 67 68  1  0
 67 73  1  0
 68 69  1  0
 68 71  1  6
 69 70  2  0
 69 74  1  0
 71 72  1  0
 72 73  1  0
 75 74  1  6
 75 76  1  0
 75 78  1  0
 76 77  2  0
 76 82  1  0
 78 79  1  0
 78 80  1  1
 79 81  1  0
 83 82  1  1
 83 84  1  0
 83 86  1  0
 84 85  2  0
 84 88  1  0
 86 87  1  0
 88 89  1  0
 89 90  1  0
 89 92  1  1
 90 91  2  0
 90 99  1  0
 92 93  1  0
 93 94  2  0
 93 95  1  0
 94 96  1  0
 95 97  2  0
 96 98  2  0
 97 98  1  0
 99100  1  0
 99105  1  0
100101  1  0
100103  1  6
101102  2  0
101106  1  0
103104  1  0
104105  1  0
106107  1  0
107108  1  0
107110  1  6
108109  2  0
110111  1  0
111112  2  0
111113  1  0
 14115  1  0
 58116  1  0
M  CHG  1  42   1
M  END
$$$$
