
     RDKit          3D

 26 28  0  0  0  0  0  0  0  0999 V2000
   19.7608   41.7272   69.6349 O   0  0  0  0  0  0  0  0  0  0  0  0
   20.6131   40.8824   70.5152 S   0  0  1  0  0  6  0  0  0  0  0  0
   22.1694   40.6735   69.7565 C   0  0  0  0  0  0  0  0  0  0  0  0
   22.7439   39.4155   69.6467 C   0  0  0  0  0  0  0  0  0  0  0  0
   23.9649   39.2020   69.0597 C   0  0  0  0  0  0  0  0  0  0  0  0
   24.6725   40.2631   68.5491 C   0  0  0  0  0  0  0  0  0  0  0  0
   25.9828   40.0255   67.9204 C   0  0  0  0  0  0  0  0  0  0  0  0
   27.0271   40.9326   68.1654 C   0  0  0  0  0  0  0  0  0  0  0  0
   28.2597   40.7849   67.6267 C   0  0  0  0  0  0  0  0  0  0  0  0
   29.3629   41.7255   67.8663 C   0  0  1  0  0  0  0  0  0  0  0  0
   30.5263   41.1307   68.5654 C   0  0  0  0  0  0  0  0  0  0  0  0
   30.5585   41.1333   69.9874 N   0  0  0  0  0  0  0  0  0  0  0  0
   31.4886   40.6199   67.9217 N   0  0  0  0  0  4  0  0  0  0  0  0
   29.6894   42.6227   66.6863 C   0  0  0  0  0  0  0  0  0  0  0  0
   30.1130   43.6545   67.7479 C   0  0  0  0  0  0  0  0  0  0  0  0
   28.9753   43.0033   68.5912 C   0  0  0  0  0  0  0  0  0  0  0  0
   28.4654   39.6773   66.8015 C   0  0  0  0  0  0  0  0  0  0  0  0
   27.4442   38.7896   66.5618 C   0  0  0  0  0  0  0  0  0  0  0  0
   27.7207   37.4122   65.5280 Cl  0  0  0  0  0  0  0  0  0  0  0  0
   26.1868   38.9359   67.1080 C   0  0  0  0  0  0  0  0  0  0  0  0
   24.1252   41.5163   68.6457 C   0  0  0  0  0  0  0  0  0  0  0  0
   22.8977   41.7235   69.2370 C   0  0  0  0  0  0  0  0  0  0  0  0
   20.7445   41.5466   72.0900 N   0  0  0  0  0  0  0  0  0  0  0  0
   21.3244   40.6039   73.0302 C   0  0  0  0  0  0  0  0  0  0  0  0
   21.1620   41.0605   74.4548 C   0  0  0  0  0  0  0  0  0  0  0  0
   19.9839   39.5155   70.6432 O   0  0  0  0  0  0  0  0  0  0  0  0
  1  2  2  0
  2  3  1  0
  2 23  1  1
  2 26  2  0
  3 22  2  0
  3  4  1  0
  4  5  2  0
  5  6  1  0
  6  7  1  0
  6 21  2  0
  7 20  1  0
  7  8  2  0
  8  9  1  0
 10  9  1  6
  9 17  2  0
 10 16  1  0
 10 11  1  0
 14 10  1  6
 11 12  1  0
 11 13  2  3
 15 14  1  6
 16 15  1  1
 17 18  1  0
 18 19  1  0
 18 20  2  0
 21 22  1  0
 24 23  1  6
 25 24  1  1
M  CHG  1  13   1
M  END
$$$$
