
     RDKit          3D

 26 28  0  0  0  0  0  0  0  0999 V2000
   28.0521   44.0001   37.7216 O   0  0  0  0  0  0  0  0  0  0  0  0
   26.9885   43.7878   38.7408 S   0  0  1  0  0  6  0  0  0  0  0  0
   27.5639   44.3680   40.2815 C   0  0  0  0  0  0  0  0  0  0  0  0
   27.5110   43.5623   41.4097 C   0  0  0  0  0  0  0  0  0  0  0  0
   27.9502   43.9747   42.6417 C   0  0  0  0  0  0  0  0  0  0  0  0
   28.4705   45.2369   42.7944 C   0  0  0  0  0  0  0  0  0  0  0  0
   28.9400   45.6721   44.1206 C   0  0  0  0  0  0  0  0  0  0  0  0
   28.8094   47.0249   44.4760 C   0  0  0  0  0  0  0  0  0  0  0  0
   29.2150   47.5040   45.6749 C   0  0  0  0  0  0  0  0  0  0  0  0
   29.0921   48.9160   46.0629 C   0  0  1  0  0  0  0  0  0  0  0  0
   29.8586   49.8499   45.2048 C   0  0  0  0  0  0  0  0  0  0  0  0
   29.6947   49.7903   43.7931 N   0  0  0  0  0  0  0  0  0  0  0  0
   30.6529   50.6990   45.7040 N   0  0  0  0  0  4  0  0  0  0  0  0
   27.6804   49.3492   46.4139 C   0  0  0  0  0  0  0  0  0  0  0  0
   28.3580   50.3424   47.3760 C   0  0  0  0  0  0  0  0  0  0  0  0
   29.4290   49.2182   47.5133 C   0  0  0  0  0  0  0  0  0  0  0  0
   29.7797   46.5906   46.5676 C   0  0  0  0  0  0  0  0  0  0  0  0
   29.9074   45.2673   46.2204 C   0  0  0  0  0  0  0  0  0  0  0  0
   30.6155   44.1417   47.3492 Cl  0  0  0  0  0  0  0  0  0  0  0  0
   29.4960   44.7745   45.0002 C   0  0  0  0  0  0  0  0  0  0  0  0
   28.5334   46.0518   41.6936 C   0  0  0  0  0  0  0  0  0  0  0  0
   28.0901   45.6308   40.4585 C   0  0  0  0  0  0  0  0  0  0  0  0
   25.5153   44.5319   38.2780 N   0  0  0  0  0  0  0  0  0  0  0  0
   24.3955   44.0606   39.0735 C   0  0  0  0  0  0  0  0  0  0  0  0
   23.1309   43.9687   38.2631 C   0  0  0  0  0  0  0  0  0  0  0  0
   26.7315   42.3063   38.8814 O   0  0  0  0  0  0  0  0  0  0  0  0
  1  2  2  0
  2  3  1  0
  2 23  1  6
  2 26  2  0
  3 22  2  0
  3  4  1  0
  4  5  2  0
  5  6  1  0
  6  7  1  0
  6 21  2  0
  7 20  1  0
  7  8  2  0
  8  9  1  0
 10  9  1  6
  9 17  2  0
 10 16  1  0
 10 11  1  0
 14 10  1  6
 11 12  1  0
 11 13  2  3
 15 14  1  6
 16 15  1  1
 17 18  1  0
 18 19  1  0
 18 20  2  0
 21 22  1  0
 24 23  1  6
 25 24  1  1
M  CHG  1  13   1
M  END
$$$$
