
     RDKit          3D

 26 28  0  0  0  0  0  0  0  0999 V2000
   21.2068   39.3864   60.9714 O   0  0  0  0  0  0  0  0  0  0  0  0
   20.3928   40.6235   60.8231 S   0  0  1  0  0  6  0  0  0  0  0  0
   19.2784   40.4067   59.4993 C   0  0  0  0  0  0  0  0  0  0  0  0
   18.4808   41.4543   59.0622 C   0  0  0  0  0  0  0  0  0  0  0  0
   17.5899   41.3313   58.0267 C   0  0  0  0  0  0  0  0  0  0  0  0
   17.4608   40.1287   57.3754 C   0  0  0  0  0  0  0  0  0  0  0  0
   16.5020   40.0050   56.2646 C   0  0  0  0  0  0  0  0  0  0  0  0
   15.5853   41.0456   56.0409 C   0  0  0  0  0  0  0  0  0  0  0  0
   14.6735   41.0089   55.0415 C   0  0  0  0  0  0  0  0  0  0  0  0
   13.7030   42.0844   54.7950 C   0  0  1  0  0  0  0  0  0  0  0  0
   12.3018   41.7221   55.1135 C   0  0  0  0  0  0  0  0  0  0  0  0
   11.7326   42.1599   56.3414 N   0  0  0  0  0  0  0  0  0  0  0  0
   11.6034   41.0336   54.3139 N   0  0  0  0  0  4  0  0  0  0  0  0
   14.1537   43.4556   55.2649 C   0  0  0  0  0  0  0  0  0  0  0  0
   13.3054   43.9963   54.0992 C   0  0  0  0  0  0  0  0  0  0  0  0
   13.7348   42.6738   53.3949 C   0  0  0  0  0  0  0  0  0  0  0  0
   14.6729   39.8788   54.2213 C   0  0  0  0  0  0  0  0  0  0  0  0
   15.5696   38.8608   54.4397 C   0  0  0  0  0  0  0  0  0  0  0  0
   15.5532   37.4571   53.4043 Cl  0  0  0  0  0  0  0  0  0  0  0  0
   16.5002   38.8934   55.4565 C   0  0  0  0  0  0  0  0  0  0  0  0
   18.2387   39.0784   57.7893 C   0  0  0  0  0  0  0  0  0  0  0  0
   19.1319   39.2090   58.8307 C   0  0  0  0  0  0  0  0  0  0  0  0
   19.5923   41.0295   62.2834 N   0  0  0  0  0  0  0  0  0  0  0  0
   18.6910   39.9774   62.7192 C   0  0  0  0  0  0  0  0  0  0  0  0
   17.9387   40.3630   63.9640 C   0  0  0  0  0  0  0  0  0  0  0  0
   21.3055   41.7719   60.4640 O   0  0  0  0  0  0  0  0  0  0  0  0
  1  2  2  0
  2  3  1  0
  2 23  1  1
  2 26  2  0
  3 22  2  0
  3  4  1  0
  4  5  2  0
  5  6  1  0
  6  7  1  0
  6 21  2  0
  7 20  1  0
  7  8  2  0
  8  9  1  0
 10  9  1  6
  9 17  2  0
 10 16  1  0
 10 11  1  0
 14 10  1  6
 11 12  1  0
 11 13  2  3
 15 14  1  6
 16 15  1  1
 17 18  1  0
 18 19  1  0
 18 20  2  0
 21 22  1  0
 24 23  1  6
 25 24  1  1
M  CHG  1  13   1
M  END
$$$$
