
     RDKit          3D

 26 28  0  0  0  0  0  0  0  0999 V2000
   21.2868   39.5290   70.7854 O   0  0  0  0  0  0  0  0  0  0  0  0
   21.7523   40.7256   70.0328 S   0  0  1  0  0  6  0  0  0  0  0  0
   23.2935   40.3638   69.3013 C   0  0  0  0  0  0  0  0  0  0  0  0
   23.7015   39.0510   69.1145 C   0  0  0  0  0  0  0  0  0  0  0  0
   24.9039   38.7177   68.5452 C   0  0  0  0  0  0  0  0  0  0  0  0
   25.7623   39.7075   68.1322 C   0  0  0  0  0  0  0  0  0  0  0  0
   27.0514   39.3413   67.5219 C   0  0  0  0  0  0  0  0  0  0  0  0
   28.1987   40.0734   67.8695 C   0  0  0  0  0  0  0  0  0  0  0  0
   29.4197   39.7996   67.3542 C   0  0  0  0  0  0  0  0  0  0  0  0
   30.6302   40.5571   67.7009 C   0  0  1  0  0  0  0  0  0  0  0  0
   31.4968   40.8793   66.5428 C   0  0  0  0  0  0  0  0  0  0  0  0
   32.6527   40.0873   66.2980 N   0  0  0  0  0  0  0  0  0  0  0  0
   31.2267   41.8428   65.7683 N   0  0  0  0  0  4  0  0  0  0  0  0
   30.4015   41.6864   68.6891 C   0  0  0  0  0  0  0  0  0  0  0  0
   31.8428   41.4052   69.1528 C   0  0  0  0  0  0  0  0  0  0  0  0
   31.4951   39.9317   68.7822 C   0  0  0  0  0  0  0  0  0  0  0  0
   29.5050   38.7423   66.4459 C   0  0  0  0  0  0  0  0  0  0  0  0
   28.3829   38.0258   66.1058 C   0  0  0  0  0  0  0  0  0  0  0  0
   28.5097   36.7086   64.9692 Cl  0  0  0  0  0  0  0  0  0  0  0  0
   27.1369   38.3011   66.6278 C   0  0  0  0  0  0  0  0  0  0  0  0
   25.3811   41.0130   68.3062 C   0  0  0  0  0  0  0  0  0  0  0  0
   24.1712   41.3407   68.8791 C   0  0  0  0  0  0  0  0  0  0  0  0
   20.5916   41.2347   68.8789 N   0  0  0  0  0  0  0  0  0  0  0  0
   20.0446   40.1175   68.1296 C   0  0  0  0  0  0  0  0  0  0  0  0
   19.2664   40.5762   66.9261 C   0  0  0  0  0  0  0  0  0  0  0  0
   21.9667   41.8632   71.0028 O   0  0  0  0  0  0  0  0  0  0  0  0
  1  2  2  0
  2  3  1  0
  2 23  1  6
  2 26  2  0
  3 22  2  0
  3  4  1  0
  4  5  2  0
  5  6  1  0
  6  7  1  0
  6 21  2  0
  7 20  1  0
  7  8  2  0
  8  9  1  0
 10  9  1  6
  9 17  2  0
 10 16  1  0
 10 11  1  0
 14 10  1  6
 11 12  1  0
 11 13  2  3
 15 14  1  6
 16 15  1  1
 17 18  1  0
 18 19  1  0
 18 20  2  0
 21 22  1  0
 24 23  1  6
 25 24  1  1
M  CHG  1  13   1
M  END
$$$$
