
     RDKit          3D

 26 28  0  0  0  0  0  0  0  0999 V2000
   36.0260   51.9237   48.0839 O   0  0  0  0  0  0  0  0  0  0  0  0
   34.8922   51.9156   49.0479 S   0  0  1  0  0  6  0  0  0  0  0  0
   33.6441   50.8615   48.4375 C   0  0  0  0  0  0  0  0  0  0  0  0
   33.9671   49.6972   47.7559 C   0  0  0  0  0  0  0  0  0  0  0  0
   33.0212   48.8383   47.2571 C   0  0  0  0  0  0  0  0  0  0  0  0
   31.6870   49.1187   47.4255 C   0  0  0  0  0  0  0  0  0  0  0  0
   30.6776   48.1915   46.8870 C   0  0  0  0  0  0  0  0  0  0  0  0
   29.6049   48.7131   46.1449 C   0  0  0  0  0  0  0  0  0  0  0  0
   28.6375   47.9286   45.6159 C   0  0  0  0  0  0  0  0  0  0  0  0
   27.5050   48.4555   44.8419 C   0  0  1  0  0  0  0  0  0  0  0  0
   27.8941   49.1401   43.5866 C   0  0  0  0  0  0  0  0  0  0  0  0
   28.3491   48.3648   42.4842 N   0  0  0  0  0  0  0  0  0  0  0  0
   27.8273   50.3989   43.4770 N   0  0  0  0  0  4  0  0  0  0  0  0
   26.3218   47.5101   44.7391 C   0  0  0  0  0  0  0  0  0  0  0  0
   25.4655   48.7883   44.6758 C   0  0  0  0  0  0  0  0  0  0  0  0
   26.5677   49.3708   45.6115 C   0  0  0  0  0  0  0  0  0  0  0  0
   28.7418   46.5535   45.8355 C   0  0  0  0  0  0  0  0  0  0  0  0
   29.7910   46.0429   46.5612 C   0  0  0  0  0  0  0  0  0  0  0  0
   29.9037   44.3223   46.8249 Cl  0  0  0  0  0  0  0  0  0  0  0  0
   30.7788   46.8380   47.1023 C   0  0  0  0  0  0  0  0  0  0  0  0
   31.3429   50.2640   48.0961 C   0  0  0  0  0  0  0  0  0  0  0  0
   32.2987   51.1225   48.5947 C   0  0  0  0  0  0  0  0  0  0  0  0
   35.4059   51.4678   50.6206 N   0  0  0  0  0  0  0  0  0  0  0  0
   36.2310   50.2728   50.6026 C   0  0  0  0  0  0  0  0  0  0  0  0
   37.2353   50.2674   51.7232 C   0  0  0  0  0  0  0  0  0  0  0  0
   34.3096   53.3064   49.1326 O   0  0  0  0  0  0  0  0  0  0  0  0
  1  2  2  0
  2  3  1  0
  2 23  1  1
  2 26  2  0
  3 22  2  0
  3  4  1  0
  4  5  2  0
  5  6  1  0
  6  7  1  0
  6 21  2  0
  7 20  1  0
  7  8  2  0
  8  9  1  0
 10  9  1  1
  9 17  2  0
 10 16  1  0
 10 11  1  0
 14 10  1  6
 11 12  1  0
 11 13  2  3
 15 14  1  6
 16 15  1  1
 17 18  1  0
 18 19  1  0
 18 20  2  0
 21 22  1  0
 24 23  1  6
 25 24  1  1
M  CHG  1  13   1
M  END
$$$$
