
     RDKit          3D

 26 28  0  0  0  0  0  0  0  0999 V2000
   29.8819   49.0764   48.5604 O   0  0  0  0  0  0  0  0  0  0  0  0
   30.4329   48.4825   47.3119 S   0  0  1  0  0  6  0  0  0  0  0  0
   30.6096   46.7625   47.5392 C   0  0  0  0  0  0  0  0  0  0  0  0
   31.5105   46.0332   46.7768 C   0  0  0  0  0  0  0  0  0  0  0  0
   31.6835   44.6800   46.9188 C   0  0  0  0  0  0  0  0  0  0  0  0
   30.9450   43.9906   47.8498 C   0  0  0  0  0  0  0  0  0  0  0  0
   31.1367   42.5380   47.9960 C   0  0  0  0  0  0  0  0  0  0  0  0
   30.4452   41.8618   49.0148 C   0  0  0  0  0  0  0  0  0  0  0  0
   30.5660   40.5287   49.2145 C   0  0  0  0  0  0  0  0  0  0  0  0
   29.8557   39.8046   50.2776 C   0  0  1  0  0  0  0  0  0  0  0  0
   30.7457   39.1587   51.2709 C   0  0  0  0  0  0  0  0  0  0  0  0
   31.0534   39.8448   52.4784 N   0  0  0  0  0  0  0  0  0  0  0  0
   31.2343   38.0096   51.0659 N   0  0  0  0  0  4  0  0  0  0  0  0
   28.6572   40.5425   50.8461 C   0  0  0  0  0  0  0  0  0  0  0  0
   28.0671   39.1411   51.0891 C   0  0  0  0  0  0  0  0  0  0  0  0
   28.8528   38.7704   49.7949 C   0  0  0  0  0  0  0  0  0  0  0  0
   31.4186   39.8311   48.3564 C   0  0  0  0  0  0  0  0  0  0  0  0
   32.0951   40.4921   47.3597 C   0  0  0  0  0  0  0  0  0  0  0  0
   33.1558   39.6031   46.2980 Cl  0  0  0  0  0  0  0  0  0  0  0  0
   31.9755   41.8499   47.1524 C   0  0  0  0  0  0  0  0  0  0  0  0
   30.0480   44.6898   48.6154 C   0  0  0  0  0  0  0  0  0  0  0  0
   29.8793   46.0496   48.4673 C   0  0  0  0  0  0  0  0  0  0  0  0
   29.4595   48.8593   45.9523 N   0  0  0  0  0  0  0  0  0  0  0  0
   28.0565   48.5715   46.1925 C   0  0  0  0  0  0  0  0  0  0  0  0
   27.2015   48.9158   45.0030 C   0  0  0  0  0  0  0  0  0  0  0  0
   31.8100   49.0508   47.0638 O   0  0  0  0  0  0  0  0  0  0  0  0
  1  2  2  0
  2  3  1  0
  2 23  1  6
  2 26  2  0
  3 22  2  0
  3  4  1  0
  4  5  2  0
  5  6  1  0
  6  7  1  0
  6 21  2  0
  7 20  1  0
  7  8  2  0
  8  9  1  0
 10  9  1  6
  9 17  2  0
 10 16  1  0
 10 11  1  0
 14 10  1  6
 11 12  1  0
 11 13  2  3
 15 14  1  6
 16 15  1  1
 17 18  1  0
 18 19  1  0
 18 20  2  0
 21 22  1  0
 24 23  1  6
 25 24  1  1
M  CHG  1  13   1
M  END
$$$$
