
     RDKit          3D

 26 28  0  0  0  0  0  0  0  0999 V2000
   23.9216   42.6961   70.4935 O   0  0  0  0  0  0  0  0  0  0  0  0
   23.5196   41.3395   70.0321 S   0  0  1  0  0  6  0  0  0  0  0  0
   24.7841   40.6937   69.0194 C   0  0  0  0  0  0  0  0  0  0  0  0
   24.4808   40.0240   67.8429 C   0  0  0  0  0  0  0  0  0  0  0  0
   25.4401   39.4986   67.0155 C   0  0  0  0  0  0  0  0  0  0  0  0
   26.7685   39.6265   67.3415 C   0  0  0  0  0  0  0  0  0  0  0  0
   27.7923   39.0596   66.4478 C   0  0  0  0  0  0  0  0  0  0  0  0
   28.7882   38.2337   66.9950 C   0  0  0  0  0  0  0  0  0  0  0  0
   29.7632   37.6737   66.2419 C   0  0  0  0  0  0  0  0  0  0  0  0
   30.8164   36.8120   66.7963 C   0  0  1  0  0  0  0  0  0  0  0  0
   32.0338   37.5406   67.2240 C   0  0  0  0  0  0  0  0  0  0  0  0
   32.9712   37.9646   66.2417 N   0  0  0  0  0  0  0  0  0  0  0  0
   32.2532   37.7938   68.4442 N   0  0  0  0  0  4  0  0  0  0  0  0
   30.3150   35.7453   67.7528 C   0  0  0  0  0  0  0  0  0  0  0  0
   31.5042   34.9086   67.2458 C   0  0  0  0  0  0  0  0  0  0  0  0
   31.2420   35.6580   65.9044 C   0  0  0  0  0  0  0  0  0  0  0  0
   29.7473   37.9486   64.8729 C   0  0  0  0  0  0  0  0  0  0  0  0
   28.7732   38.7563   64.3372 C   0  0  0  0  0  0  0  0  0  0  0  0
   28.7704   39.0881   62.6247 Cl  0  0  0  0  0  0  0  0  0  0  0  0
   27.7782   39.3293   65.1003 C   0  0  0  0  0  0  0  0  0  0  0  0
   27.0932   40.2847   68.4996 C   0  0  0  0  0  0  0  0  0  0  0  0
   26.1239   40.8102   69.3264 C   0  0  0  0  0  0  0  0  0  0  0  0
   23.1563   40.3074   71.3515 N   0  0  0  0  0  0  0  0  0  0  0  0
   22.3367   39.1785   70.9482 C   0  0  0  0  0  0  0  0  0  0  0  0
   21.3093   38.8301   71.9909 C   0  0  0  0  0  0  0  0  0  0  0  0
   22.2756   41.4577   69.1840 O   0  0  0  0  0  0  0  0  0  0  0  0
  1  2  2  0
  2  3  1  0
  2 23  1  1
  2 26  2  0
  3 22  2  0
  3  4  1  0
  4  5  2  0
  5  6  1  0
  6  7  1  0
  6 21  2  0
  7 20  1  0
  7  8  2  0
  8  9  1  0
 10  9  1  6
  9 17  2  0
 10 16  1  0
 10 11  1  0
 14 10  1  6
 11 12  1  0
 11 13  2  3
 15 14  1  6
 16 15  1  1
 17 18  1  0
 18 19  1  0
 18 20  2  0
 21 22  1  0
 24 23  1  6
 25 24  1  1
M  CHG  1  13   1
M  END
$$$$
