
     RDKit          3D

 26 28  0  0  0  0  0  0  0  0999 V2000
   24.9191   39.1449   70.9315 O   0  0  0  0  0  0  0  0  0  0  0  0
   24.8486   40.3513   70.0628 S   0  0  1  0  0  6  0  0  0  0  0  0
   26.0089   40.1818   68.7719 C   0  0  0  0  0  0  0  0  0  0  0  0
   26.0778   41.1175   67.7500 C   0  0  0  0  0  0  0  0  0  0  0  0
   26.9721   41.0260   66.7142 C   0  0  0  0  0  0  0  0  0  0  0  0
   27.8505   39.9712   66.6610 C   0  0  0  0  0  0  0  0  0  0  0  0
   28.8076   39.8802   65.5455 C   0  0  0  0  0  0  0  0  0  0  0  0
   30.1561   39.6079   65.8294 C   0  0  0  0  0  0  0  0  0  0  0  0
   31.0969   39.5074   64.8618 C   0  0  0  0  0  0  0  0  0  0  0  0
   32.5128   39.2289   65.1389 C   0  0  1  0  0  0  0  0  0  0  0  0
   33.2497   40.3677   65.7357 C   0  0  0  0  0  0  0  0  0  0  0  0
   33.5347   40.3574   67.1292 N   0  0  0  0  0  0  0  0  0  0  0  0
   33.6310   41.3459   65.0294 N   0  0  0  0  0  4  0  0  0  0  0  0
   32.7737   37.8717   65.7666 C   0  0  0  0  0  0  0  0  0  0  0  0
   34.1245   37.9295   65.0296 C   0  0  0  0  0  0  0  0  0  0  0  0
   33.3128   38.7137   63.9544 C   0  0  0  0  0  0  0  0  0  0  0  0
   30.6751   39.6868   63.5427 C   0  0  0  0  0  0  0  0  0  0  0  0
   29.3561   39.9530   63.2646 C   0  0  0  0  0  0  0  0  0  0  0  0
   28.8487   40.1740   61.6104 Cl  0  0  0  0  0  0  0  0  0  0  0  0
   28.3941   40.0565   64.2468 C   0  0  0  0  0  0  0  0  0  0  0  0
   27.8017   39.0334   67.6599 C   0  0  0  0  0  0  0  0  0  0  0  0
   26.9004   39.1316   68.6978 C   0  0  0  0  0  0  0  0  0  0  0  0
   23.2598   40.6122   69.4750 N   0  0  0  0  0  0  0  0  0  0  0  0
   22.5069   39.3742   69.3772 C   0  0  0  0  0  0  0  0  0  0  0  0
   21.0874   39.6138   68.9389 C   0  0  0  0  0  0  0  0  0  0  0  0
   25.2447   41.5633   70.8722 O   0  0  0  0  0  0  0  0  0  0  0  0
  1  2  2  0
  2  3  1  0
  2 23  1  6
  2 26  2  0
  3 22  2  0
  3  4  1  0
  4  5  2  0
  5  6  1  0
  6  7  1  0
  6 21  2  0
  7 20  1  0
  7  8  2  0
  8  9  1  0
 10  9  1  6
  9 17  2  0
 10 16  1  0
 10 11  1  0
 14 10  1  6
 11 12  1  0
 11 13  2  3
 15 14  1  6
 16 15  1  1
 17 18  1  0
 18 19  1  0
 18 20  2  0
 21 22  1  0
 24 23  1  6
 25 24  1  1
M  CHG  1  13   1
M  END
$$$$
