
     RDKit          3D

 26 28  0  0  0  0  0  0  0  0999 V2000
   24.2361   37.8522   55.7137 O   0  0  0  0  0  0  0  0  0  0  0  0
   23.1112   38.8154   55.8619 S   0  0  1  0  0  6  0  0  0  0  0  0
   21.9137   38.4716   54.6417 C   0  0  0  0  0  0  0  0  0  0  0  0
   21.3180   37.2211   54.5621 C   0  0  0  0  0  0  0  0  0  0  0  0
   20.3730   36.9039   53.6200 C   0  0  0  0  0  0  0  0  0  0  0  0
   19.9799   37.8472   52.7018 C   0  0  0  0  0  0  0  0  0  0  0  0
   18.9648   37.4987   51.6936 C   0  0  0  0  0  0  0  0  0  0  0  0
   17.9249   38.4073   51.4361 C   0  0  0  0  0  0  0  0  0  0  0  0
   16.9545   38.1625   50.5251 C   0  0  0  0  0  0  0  0  0  0  0  0
   15.8558   39.0974   50.2456 C   0  0  1  0  0  0  0  0  0  0  0  0
   16.2999   40.4559   49.8540 C   0  0  0  0  0  0  0  0  0  0  0  0
   16.9530   40.6402   48.6039 N   0  0  0  0  0  0  0  0  0  0  0  0
   16.1072   41.4530   50.6088 N   0  0  0  0  0  4  0  0  0  0  0  0
   14.7260   38.5085   49.4206 C   0  0  0  0  0  0  0  0  0  0  0  0
   13.8199   39.4848   50.1933 C   0  0  0  0  0  0  0  0  0  0  0  0
   14.8277   39.2352   51.3558 C   0  0  0  0  0  0  0  0  0  0  0  0
   17.0214   36.9512   49.8335 C   0  0  0  0  0  0  0  0  0  0  0  0
   18.0386   36.0622   50.0850 C   0  0  0  0  0  0  0  0  0  0  0  0
   18.1049   34.5542   49.2109 Cl  0  0  0  0  0  0  0  0  0  0  0  0
   19.0292   36.3070   51.0122 C   0  0  0  0  0  0  0  0  0  0  0  0
   20.5544   39.0906   52.7605 C   0  0  0  0  0  0  0  0  0  0  0  0
   21.5035   39.4024   53.7099 C   0  0  0  0  0  0  0  0  0  0  0  0
   22.4530   38.7762   57.4441 N   0  0  0  0  0  0  0  0  0  0  0  0
   21.6458   39.9502   57.7256 C   0  0  0  0  0  0  0  0  0  0  0  0
   20.3280   39.5872   58.3550 C   0  0  0  0  0  0  0  0  0  0  0  0
   23.6252   40.2132   55.6117 O   0  0  0  0  0  0  0  0  0  0  0  0
  1  2  2  0
  2  3  1  0
  2 23  1  1
  2 26  2  0
  3 22  2  0
  3  4  1  0
  4  5  2  0
  5  6  1  0
  6  7  1  0
  6 21  2  0
  7 20  1  0
  7  8  2  0
  8  9  1  0
 10  9  1  1
  9 17  2  0
 10 16  1  0
 10 11  1  0
 14 10  1  6
 11 12  1  0
 11 13  2  3
 15 14  1  6
 16 15  1  1
 17 18  1  0
 18 19  1  0
 18 20  2  0
 21 22  1  0
 24 23  1  6
 25 24  1  1
M  CHG  1  13   1
M  END
$$$$
