
     RDKit          3D

 26 28  0  0  0  0  0  0  0  0999 V2000
   21.8779   38.6046   71.2640 O   0  0  0  0  0  0  0  0  0  0  0  0
   23.1721   39.2495   71.6164 S   0  0  1  0  0  6  0  0  0  0  0  0
   24.1341   39.4043   70.1700 C   0  0  0  0  0  0  0  0  0  0  0  0
   25.3555   38.7564   70.0555 C   0  0  0  0  0  0  0  0  0  0  0  0
   26.1468   38.8490   68.9391 C   0  0  0  0  0  0  0  0  0  0  0  0
   25.7364   39.6102   67.8717 C   0  0  0  0  0  0  0  0  0  0  0  0
   26.5918   39.7043   66.6768 C   0  0  0  0  0  0  0  0  0  0  0  0
   27.9855   39.7621   66.8432 C   0  0  0  0  0  0  0  0  0  0  0  0
   28.8396   39.8485   65.7971 C   0  0  0  0  0  0  0  0  0  0  0  0
   30.2994   39.9156   65.9509 C   0  0  1  0  0  0  0  0  0  0  0  0
   30.7979   41.2197   66.4479 C   0  0  0  0  0  0  0  0  0  0  0  0
   30.9227   42.3077   65.5402 N   0  0  0  0  0  0  0  0  0  0  0  0
   31.1117   41.3832   67.6628 N   0  0  0  0  0  4  0  0  0  0  0  0
   30.9201   38.6853   66.5875 C   0  0  0  0  0  0  0  0  0  0  0  0
   32.1545   39.0172   65.7289 C   0  0  0  0  0  0  0  0  0  0  0  0
   31.0965   39.5431   64.7122 C   0  0  0  0  0  0  0  0  0  0  0  0
   28.2793   39.8787   64.5184 C   0  0  0  0  0  0  0  0  0  0  0  0
   26.9161   39.8220   64.3552 C   0  0  0  0  0  0  0  0  0  0  0  0
   26.2351   39.8612   62.7498 Cl  0  0  0  0  0  0  0  0  0  0  0  0
   26.0419   39.7342   65.4177 C   0  0  0  0  0  0  0  0  0  0  0  0
   24.5325   40.2600   67.9613 C   0  0  0  0  0  0  0  0  0  0  0  0
   23.7424   40.1626   69.0863 C   0  0  0  0  0  0  0  0  0  0  0  0
   22.9327   40.7556   72.3990 N   0  0  0  0  0  0  0  0  0  0  0  0
   24.1902   41.4139   72.7062 C   0  0  0  0  0  0  0  0  0  0  0  0
   24.3924   41.5736   74.1888 C   0  0  0  0  0  0  0  0  0  0  0  0
   23.9257   38.3510   72.5681 O   0  0  0  0  0  0  0  0  0  0  0  0
  1  2  2  0
  2  3  1  0
  2 23  1  1
  2 26  2  0
  3 22  2  0
  3  4  1  0
  4  5  2  0
  5  6  1  0
  6  7  1  0
  6 21  2  0
  7 20  1  0
  7  8  2  0
  8  9  1  0
 10  9  1  6
  9 17  2  0
 10 16  1  0
 10 11  1  0
 14 10  1  6
 11 12  1  0
 11 13  2  3
 15 14  1  6
 16 15  1  1
 17 18  1  0
 18 19  1  0
 18 20  2  0
 21 22  1  0
 24 23  1  6
 25 24  1  1
M  CHG  1  13   1
M  END
$$$$
