
     RDKit          3D

 26 28  0  0  0  0  0  0  0  0999 V2000
   31.6456   40.8108   61.8046 O   0  0  0  0  0  0  0  0  0  0  0  0
   31.9942   40.8011   63.2515 S   0  0  1  0  0  6  0  0  0  0  0  0
   30.5362   40.5638   64.1784 C   0  0  0  0  0  0  0  0  0  0  0  0
   30.1483   41.4835   65.1419 C   0  0  0  0  0  0  0  0  0  0  0  0
   29.0117   41.3392   65.8957 C   0  0  0  0  0  0  0  0  0  0  0  0
   28.2025   40.2448   65.7094 C   0  0  0  0  0  0  0  0  0  0  0  0
   26.9838   40.0973   66.5228 C   0  0  0  0  0  0  0  0  0  0  0  0
   27.0556   40.3463   67.9035 C   0  0  0  0  0  0  0  0  0  0  0  0
   25.9817   40.2340   68.7193 C   0  0  0  0  0  0  0  0  0  0  0  0
   26.0380   40.4846   70.1661 C   0  0  1  0  0  0  0  0  0  0  0  0
   26.3202   39.2790   70.9802 C   0  0  0  0  0  0  0  0  0  0  0  0
   27.6495   39.0353   71.4237 N   0  0  0  0  0  0  0  0  0  0  0  0
   25.4017   38.4652   71.2891 N   0  0  0  0  0  4  0  0  0  0  0  0
   26.7999   41.7381   70.5562 C   0  0  0  0  0  0  0  0  0  0  0  0
   25.8321   41.8037   71.7521 C   0  0  0  0  0  0  0  0  0  0  0  0
   24.8173   41.1765   70.7489 C   0  0  0  0  0  0  0  0  0  0  0  0
   24.7729   39.8546   68.1320 C   0  0  0  0  0  0  0  0  0  0  0  0
   24.7023   39.6111   66.7815 C   0  0  0  0  0  0  0  0  0  0  0  0
   23.1832   39.1380   66.0666 Cl  0  0  0  0  0  0  0  0  0  0  0  0
   25.7934   39.7239   65.9464 C   0  0  0  0  0  0  0  0  0  0  0  0
   28.5650   39.3218   64.7626 C   0  0  0  0  0  0  0  0  0  0  0  0
   29.7087   39.4732   64.0088 C   0  0  0  0  0  0  0  0  0  0  0  0
   33.1853   39.6201   63.6044 N   0  0  0  0  0  0  0  0  0  0  0  0
   33.8688   39.8952   64.8558 C   0  0  0  0  0  0  0  0  0  0  0  0
   34.0078   38.6593   65.7028 C   0  0  0  0  0  0  0  0  0  0  0  0
   32.5575   42.1503   63.6300 O   0  0  0  0  0  0  0  0  0  0  0  0
  1  2  2  0
  2  3  1  0
  2 23  1  6
  2 26  2  0
  3 22  2  0
  3  4  1  0
  4  5  2  0
  5  6  1  0
  6  7  1  0
  6 21  2  0
  7 20  1  0
  7  8  2  0
  8  9  1  0
 10  9  1  6
  9 17  2  0
 10 16  1  0
 10 11  1  0
 14 10  1  6
 11 12  1  0
 11 13  2  3
 15 14  1  6
 16 15  1  1
 17 18  1  0
 18 19  1  0
 18 20  2  0
 21 22  1  0
 24 23  1  6
 25 24  1  1
M  CHG  1  13   1
M  END
$$$$
