
     RDKit          3D

 26 28  0  0  0  0  0  0  0  0999 V2000
   25.8077   24.7513   54.3695 O   0  0  0  0  0  0  0  0  0  0  0  0
   27.0618   24.6326   55.1622 S   0  0  1  0  0  6  0  0  0  0  0  0
   28.4234   24.8429   54.0931 C   0  0  0  0  0  0  0  0  0  0  0  0
   28.2508   25.3472   52.8123 C   0  0  0  0  0  0  0  0  0  0  0  0
   29.2902   25.5291   51.9362 C   0  0  0  0  0  0  0  0  0  0  0  0
   30.5699   25.2061   52.3175 C   0  0  0  0  0  0  0  0  0  0  0  0
   31.6804   25.4044   51.3710 C   0  0  0  0  0  0  0  0  0  0  0  0
   32.6434   24.3910   51.2333 C   0  0  0  0  0  0  0  0  0  0  0  0
   33.6928   24.4956   50.3852 C   0  0  0  0  0  0  0  0  0  0  0  0
   34.7131   23.4495   50.2313 C   0  0  1  0  0  0  0  0  0  0  0  0
   35.2714   22.9535   51.5112 C   0  0  0  0  0  0  0  0  0  0  0  0
   36.1887   23.7679   52.2314 N   0  0  0  0  0  0  0  0  0  0  0  0
   34.9462   21.8221   51.9751 N   0  0  0  0  0  4  0  0  0  0  0  0
   34.3706   22.3859   49.2039 C   0  0  0  0  0  0  0  0  0  0  0  0
   35.8916   22.2838   48.9862 C   0  0  0  0  0  0  0  0  0  0  0  0
   35.8709   23.8073   49.3147 C   0  0  0  0  0  0  0  0  0  0  0  0
   33.7900   25.6690   49.6343 C   0  0  0  0  0  0  0  0  0  0  0  0
   32.8481   26.6604   49.7685 C   0  0  0  0  0  0  0  0  0  0  0  0
   32.9869   28.1189   48.8218 Cl  0  0  0  0  0  0  0  0  0  0  0  0
   31.7775   26.5586   50.6312 C   0  0  0  0  0  0  0  0  0  0  0  0
   30.7657   24.7059   53.5789 C   0  0  0  0  0  0  0  0  0  0  0  0
   29.7165   24.5257   54.4541 C   0  0  0  0  0  0  0  0  0  0  0  0
   27.0877   25.7411   56.4694 N   0  0  0  0  0  0  0  0  0  0  0  0
   26.4197   26.9873   56.1380 C   0  0  0  0  0  0  0  0  0  0  0  0
   27.2038   28.1849   56.6021 C   0  0  0  0  0  0  0  0  0  0  0  0
   27.1486   23.2393   55.7384 O   0  0  0  0  0  0  0  0  0  0  0  0
  1  2  2  0
  2  3  1  0
  2 23  1  1
  2 26  2  0
  3 22  2  0
  3  4  1  0
  4  5  2  0
  5  6  1  0
  6  7  1  0
  6 21  2  0
  7 20  1  0
  7  8  2  0
  8  9  1  0
 10  9  1  1
  9 17  2  0
 10 16  1  0
 10 11  1  0
 14 10  1  6
 11 12  1  0
 11 13  2  3
 15 14  1  6
 16 15  1  1
 17 18  1  0
 18 19  1  0
 18 20  2  0
 21 22  1  0
 24 23  1  6
 25 24  1  1
M  CHG  1  13   1
M  END
$$$$
