
     RDKit          3D

 26 28  0  0  0  0  0  0  0  0999 V2000
   26.4489   53.6931   50.2851 O   0  0  0  0  0  0  0  0  0  0  0  0
   25.7732   52.3712   50.1809 S   0  0  1  0  0  6  0  0  0  0  0  0
   26.8419   51.2572   49.3695 C   0  0  0  0  0  0  0  0  0  0  0  0
   26.3414   50.2887   48.5114 C   0  0  0  0  0  0  0  0  0  0  0  0
   27.1419   49.3910   47.8523 C   0  0  0  0  0  0  0  0  0  0  0  0
   28.5034   49.4297   48.0310 C   0  0  0  0  0  0  0  0  0  0  0  0
   29.3559   48.4624   47.3196 C   0  0  0  0  0  0  0  0  0  0  0  0
   30.3410   48.9439   46.4415 C   0  0  0  0  0  0  0  0  0  0  0  0
   31.1648   48.1212   45.7515 C   0  0  0  0  0  0  0  0  0  0  0  0
   32.1971   48.6052   44.8245 C   0  0  1  0  0  0  0  0  0  0  0  0
   33.5010   48.8952   45.4662 C   0  0  0  0  0  0  0  0  0  0  0  0
   33.7541   48.4065   46.7779 N   0  0  0  0  0  0  0  0  0  0  0  0
   34.3922   49.5663   44.8691 N   0  0  0  0  0  4  0  0  0  0  0  0
   32.2617   47.8510   43.5088 C   0  0  0  0  0  0  0  0  0  0  0  0
   32.7360   49.1878   42.9093 C   0  0  0  0  0  0  0  0  0  0  0  0
   31.8001   49.8106   43.9891 C   0  0  0  0  0  0  0  0  0  0  0  0
   31.0010   46.7480   45.9446 C   0  0  0  0  0  0  0  0  0  0  0  0
   30.0376   46.2766   46.8035 C   0  0  0  0  0  0  0  0  0  0  0  0
   29.8484   44.5576   47.0312 Cl  0  0  0  0  0  0  0  0  0  0  0  0
   29.1960   47.1106   47.5085 C   0  0  0  0  0  0  0  0  0  0  0  0
   29.0217   50.3784   48.8743 C   0  0  0  0  0  0  0  0  0  0  0  0
   28.2114   51.2774   49.5335 C   0  0  0  0  0  0  0  0  0  0  0  0
   25.2805   51.7929   51.7174 N   0  0  0  0  0  0  0  0  0  0  0  0
   24.4304   50.6204   51.6093 C   0  0  0  0  0  0  0  0  0  0  0  0
   24.5387   49.7351   52.8213 C   0  0  0  0  0  0  0  0  0  0  0  0
   24.5368   52.5175   49.3261 O   0  0  0  0  0  0  0  0  0  0  0  0
  1  2  2  0
  2  3  1  0
  2 23  1  1
  2 26  2  0
  3 22  2  0
  3  4  1  0
  4  5  2  0
  5  6  1  0
  6  7  1  0
  6 21  2  0
  7 20  1  0
  7  8  2  0
  8  9  1  0
 10  9  1  1
  9 17  2  0
 10 16  1  0
 10 11  1  0
 14 10  1  6
 11 12  1  0
 11 13  2  3
 15 14  1  6
 16 15  1  1
 17 18  1  0
 18 19  1  0
 18 20  2  0
 21 22  1  0
 24 23  1  6
 25 24  1  1
M  CHG  1  13   1
M  END
$$$$
