
     RDKit          3D

 26 28  0  0  0  0  0  0  0  0999 V2000
   21.4245   42.5182   62.8948 O   0  0  0  0  0  0  0  0  0  0  0  0
   20.7742   41.2759   63.3937 S   0  0  1  0  0  6  0  0  0  0  0  0
   19.1606   41.6637   63.9296 C   0  0  0  0  0  0  0  0  0  0  0  0
   18.4143   40.7492   64.6587 C   0  0  0  0  0  0  0  0  0  0  0  0
   17.1420   41.0085   65.1005 C   0  0  0  0  0  0  0  0  0  0  0  0
   16.5559   42.2196   64.8233 C   0  0  0  0  0  0  0  0  0  0  0  0
   15.1896   42.4902   65.3013 C   0  0  0  0  0  0  0  0  0  0  0  0
   14.2906   43.1505   64.4473 C   0  0  0  0  0  0  0  0  0  0  0  0
   13.0184   43.4351   64.8106 C   0  0  0  0  0  0  0  0  0  0  0  0
   12.0653   44.1297   63.9341 C   0  0  1  0  0  0  0  0  0  0  0  0
   11.3588   43.2414   62.9813 C   0  0  0  0  0  0  0  0  0  0  0  0
    9.9806   43.4673   62.7115 N   0  0  0  0  0  0  0  0  0  0  0  0
   11.9585   42.2890   62.4029 N   0  0  0  0  0  4  0  0  0  0  0  0
   11.2032   45.1617   64.6383 C   0  0  0  0  0  0  0  0  0  0  0  0
   11.2094   45.9043   63.2893 C   0  0  0  0  0  0  0  0  0  0  0  0
   12.6402   45.3007   63.1552 C   0  0  0  0  0  0  0  0  0  0  0  0
   12.6186   43.0425   66.0897 C   0  0  0  0  0  0  0  0  0  0  0  0
   13.4976   42.3965   66.9252 C   0  0  0  0  0  0  0  0  0  0  0  0
   12.9794   41.9142   68.5195 Cl  0  0  0  0  0  0  0  0  0  0  0  0
   14.7946   42.1046   66.5598 C   0  0  0  0  0  0  0  0  0  0  0  0
   17.2739   43.1400   64.1042 C   0  0  0  0  0  0  0  0  0  0  0  0
   18.5519   42.8727   63.6633 C   0  0  0  0  0  0  0  0  0  0  0  0
   20.7824   40.0401   62.2060 N   0  0  0  0  0  0  0  0  0  0  0  0
   20.3172   40.5221   60.9175 C   0  0  0  0  0  0  0  0  0  0  0  0
   19.7753   39.4077   60.0639 C   0  0  0  0  0  0  0  0  0  0  0  0
   21.5401   40.7678   64.5920 O   0  0  0  0  0  0  0  0  0  0  0  0
  1  2  2  0
  2  3  1  0
  2 23  1  6
  2 26  2  0
  3 22  2  0
  3  4  1  0
  4  5  2  0
  5  6  1  0
  6  7  1  0
  6 21  2  0
  7 20  1  0
  7  8  2  0
  8  9  1  0
 10  9  1  1
  9 17  2  0
 10 16  1  0
 10 11  1  0
 14 10  1  6
 11 12  1  0
 11 13  2  3
 15 14  1  6
 16 15  1  1
 17 18  1  0
 18 19  1  0
 18 20  2  0
 21 22  1  0
 24 23  1  6
 25 24  1  1
M  CHG  1  13   1
M  END
$$$$
