
     RDKit          3D

 26 28  0  0  0  0  0  0  0  0999 V2000
   29.2351   32.7417   36.1508 O   0  0  0  0  0  0  0  0  0  0  0  0
   29.5534   33.7468   37.2012 S   0  0  1  0  0  6  0  0  0  0  0  0
   28.5553   35.1549   36.9513 C   0  0  0  0  0  0  0  0  0  0  0  0
   29.0816   36.4319   37.0812 C   0  0  0  0  0  0  0  0  0  0  0  0
   28.3362   37.5681   36.8955 C   0  0  0  0  0  0  0  0  0  0  0  0
   27.0065   37.4667   36.5655 C   0  0  0  0  0  0  0  0  0  0  0  0
   26.2131   38.6914   36.3678 C   0  0  0  0  0  0  0  0  0  0  0  0
   24.8179   38.5831   36.2445 C   0  0  0  0  0  0  0  0  0  0  0  0
   24.0185   39.6597   36.0619 C   0  0  0  0  0  0  0  0  0  0  0  0
   22.5584   39.5665   35.9252 C   0  0  1  0  0  0  0  0  0  0  0  0
   21.8033   40.2697   36.9887 C   0  0  0  0  0  0  0  0  0  0  0  0
   21.6242   41.6780   36.8989 N   0  0  0  0  0  0  0  0  0  0  0  0
   21.3141   39.6414   37.9722 N   0  0  0  0  0  4  0  0  0  0  0  0
   22.0472   39.7661   34.5100 C   0  0  0  0  0  0  0  0  0  0  0  0
   20.9108   38.8109   34.9190 C   0  0  0  0  0  0  0  0  0  0  0  0
   22.0103   38.1543   35.8077 C   0  0  0  0  0  0  0  0  0  0  0  0
   24.6382   40.9095   35.9989 C   0  0  0  0  0  0  0  0  0  0  0  0
   26.0028   41.0158   36.1196 C   0  0  0  0  0  0  0  0  0  0  0  0
   26.7583   42.5859   36.0380 Cl  0  0  0  0  0  0  0  0  0  0  0  0
   26.8214   39.9221   36.3055 C   0  0  0  0  0  0  0  0  0  0  0  0
   26.4635   36.2149   36.4313 C   0  0  0  0  0  0  0  0  0  0  0  0
   27.2185   35.0775   36.6195 C   0  0  0  0  0  0  0  0  0  0  0  0
   29.3685   33.0932   38.7750 N   0  0  0  0  0  0  0  0  0  0  0  0
   29.9001   33.9780   39.7964 C   0  0  0  0  0  0  0  0  0  0  0  0
   29.8402   33.3552   41.1649 C   0  0  0  0  0  0  0  0  0  0  0  0
   30.9926   34.1783   37.0482 O   0  0  0  0  0  0  0  0  0  0  0  0
  1  2  2  0
  2  3  1  0
  2 23  1  1
  2 26  2  0
  3 22  2  0
  3  4  1  0
  4  5  2  0
  5  6  1  0
  6  7  1  0
  6 21  2  0
  7 20  1  0
  7  8  2  0
  8  9  1  0
 10  9  1  6
  9 17  2  0
 10 16  1  0
 10 11  1  0
 14 10  1  6
 11 12  1  0
 11 13  2  3
 15 14  1  6
 16 15  1  1
 17 18  1  0
 18 19  1  0
 18 20  2  0
 21 22  1  0
 24 23  1  6
 25 24  1  1
M  CHG  1  13   1
M  END
$$$$
