
     RDKit          3D

 26 28  0  0  0  0  0  0  0  0999 V2000
   17.0903   41.3220   66.5466 O   0  0  0  0  0  0  0  0  0  0  0  0
   16.4283   41.6046   65.2440 S   0  0  1  0  0  6  0  0  0  0  0  0
   15.0277   42.6031   65.5313 C   0  0  0  0  0  0  0  0  0  0  0  0
   15.1661   43.9323   65.9040 C   0  0  0  0  0  0  0  0  0  0  0  0
   14.0952   44.7555   66.1415 C   0  0  0  0  0  0  0  0  0  0  0  0
   12.8171   44.2687   66.0121 C   0  0  0  0  0  0  0  0  0  0  0  0
   11.6726   45.1591   66.2688 C   0  0  0  0  0  0  0  0  0  0  0  0
   10.5838   45.1371   65.3815 C   0  0  0  0  0  0  0  0  0  0  0  0
    9.4946   45.9229   65.5476 C   0  0  0  0  0  0  0  0  0  0  0  0
    8.3487   45.9185   64.6277 C   0  0  1  0  0  0  0  0  0  0  0  0
    8.5957   46.6226   63.3474 C   0  0  0  0  0  0  0  0  0  0  0  0
    8.5110   48.0420   63.3071 N   0  0  0  0  0  0  0  0  0  0  0  0
    8.8821   45.9858   62.2921 N   0  0  0  0  0  4  0  0  0  0  0  0
    7.6364   44.5825   64.5200 C   0  0  0  0  0  0  0  0  0  0  0  0
    6.3722   45.4195   64.2511 C   0  0  0  0  0  0  0  0  0  0  0  0
    7.0484   46.4414   65.2144 C   0  0  0  0  0  0  0  0  0  0  0  0
    9.4871   46.7751   66.6538 C   0  0  0  0  0  0  0  0  0  0  0  0
   10.5519   46.7968   67.5221 C   0  0  0  0  0  0  0  0  0  0  0  0
   10.5238   47.8683   68.8982 Cl  0  0  0  0  0  0  0  0  0  0  0  0
   11.6637   45.9984   67.3570 C   0  0  0  0  0  0  0  0  0  0  0  0
   12.6548   42.9579   65.6445 C   0  0  0  0  0  0  0  0  0  0  0  0
   13.7355   42.1363   65.4075 C   0  0  0  0  0  0  0  0  0  0  0  0
   17.5148   42.3193   64.1274 N   0  0  0  0  0  0  0  0  0  0  0  0
   17.1026   42.0999   62.7523 C   0  0  0  0  0  0  0  0  0  0  0  0
   18.1914   42.4559   61.7765 C   0  0  0  0  0  0  0  0  0  0  0  0
   15.9437   40.3048   64.6470 O   0  0  0  0  0  0  0  0  0  0  0  0
  1  2  2  0
  2  3  1  0
  2 23  1  6
  2 26  2  0
  3 22  2  0
  3  4  1  0
  4  5  2  0
  5  6  1  0
  6  7  1  0
  6 21  2  0
  7 20  1  0
  7  8  2  0
  8  9  1  0
 10  9  1  1
  9 17  2  0
 10 16  1  0
 10 11  1  0
 14 10  1  6
 11 12  1  0
 11 13  2  3
 15 14  1  6
 16 15  1  1
 17 18  1  0
 18 19  1  0
 18 20  2  0
 21 22  1  0
 24 23  1  6
 25 24  1  1
M  CHG  1  13   1
M  END
$$$$
