
     RDKit          3D

 26 28  0  0  0  0  0  0  0  0999 V2000
   39.1438   34.5054   43.9215 O   0  0  0  0  0  0  0  0  0  0  0  0
   38.0845   34.9719   42.9859 S   0  0  1  0  0  6  0  0  0  0  0  0
   36.5827   35.1087   43.8618 C   0  0  0  0  0  0  0  0  0  0  0  0
   36.5747   35.3952   45.2192 C   0  0  0  0  0  0  0  0  0  0  0  0
   35.4198   35.5115   45.9499 C   0  0  0  0  0  0  0  0  0  0  0  0
   34.2027   35.3415   45.3360 C   0  0  0  0  0  0  0  0  0  0  0  0
   32.9674   35.4680   46.1275 C   0  0  0  0  0  0  0  0  0  0  0  0
   33.0401   36.0301   47.4129 C   0  0  0  0  0  0  0  0  0  0  0  0
   31.9517   36.1820   48.2026 C   0  0  0  0  0  0  0  0  0  0  0  0
   32.0081   36.7622   49.5514 C   0  0  1  0  0  0  0  0  0  0  0  0
   31.6925   35.8047   50.6375 C   0  0  0  0  0  0  0  0  0  0  0  0
   30.3340   35.4756   50.9010 N   0  0  0  0  0  0  0  0  0  0  0  0
   32.6076   35.2739   51.3318 N   0  0  0  0  0  4  0  0  0  0  0  0
   33.2021   37.6673   49.7952 C   0  0  0  0  0  0  0  0  0  0  0  0
   32.2735   38.4228   50.7637 C   0  0  0  0  0  0  0  0  0  0  0  0
   31.1609   38.0070   49.7544 C   0  0  0  0  0  0  0  0  0  0  0  0
   30.7266   35.7532   47.6876 C   0  0  0  0  0  0  0  0  0  0  0  0
   30.6550   35.2035   46.4303 C   0  0  0  0  0  0  0  0  0  0  0  0
   29.1154   34.6735   45.8046 Cl  0  0  0  0  0  0  0  0  0  0  0  0
   31.7610   35.0464   45.6222 C   0  0  0  0  0  0  0  0  0  0  0  0
   34.1850   35.0577   43.9948 C   0  0  0  0  0  0  0  0  0  0  0  0
   35.3494   34.9423   43.2667 C   0  0  0  0  0  0  0  0  0  0  0  0
   38.5233   36.4411   42.2198 N   0  0  0  0  0  0  0  0  0  0  0  0
   38.6184   37.5393   43.1653 C   0  0  0  0  0  0  0  0  0  0  0  0
   39.3962   38.6982   42.6030 C   0  0  0  0  0  0  0  0  0  0  0  0
   37.8880   33.9319   41.9086 O   0  0  0  0  0  0  0  0  0  0  0  0
  1  2  2  0
  2  3  1  0
  2 23  1  6
  2 26  2  0
  3 22  2  0
  3  4  1  0
  4  5  2  0
  5  6  1  0
  6  7  1  0
  6 21  2  0
  7 20  1  0
  7  8  2  0
  8  9  1  0
 10  9  1  6
  9 17  2  0
 10 16  1  0
 10 11  1  0
 14 10  1  6
 11 12  1  0
 11 13  2  3
 15 14  1  6
 16 15  1  1
 17 18  1  0
 18 19  1  0
 18 20  2  0
 21 22  1  0
 24 23  1  6
 25 24  1  1
M  CHG  1  13   1
M  END
$$$$
