
     RDKit          3D

 76 78  0  0  0  0  0  0  0  0999 V2000
   54.4420  -30.2934   -6.9338 N   0  0  0  0  0  4  0  0  0  0  0  0
   54.6340  -31.4830   -6.1965 C   0  0  2  0  0  0  0  0  0  0  0  0
   53.4967  -32.0189   -5.4284 C   0  0  0  0  0  0  0  0  0  0  0  0
   53.9052  -32.9714   -4.6349 O   0  0  0  0  0  0  0  0  0  0  0  0
   55.8241  -31.2009   -5.2467 C   0  0  0  0  0  0  0  0  0  0  0  0
   57.1100  -31.7576   -5.7554 C   0  0  0  0  0  0  0  0  0  0  0  0
   57.2379  -33.2525   -5.6533 C   0  0  0  0  0  0  0  0  0  0  0  0
   57.5049  -33.7542   -4.2686 C   0  0  0  0  0  0  0  0  0  0  0  0
   56.5002  -34.6673   -3.8006 N   0  0  0  0  0  0  0  0  0  0  0  0
   52.1507  -31.7316   -5.3785 N   0  0  0  0  0  0  0  0  0  0  0  0
   51.0716  -31.8115   -6.3180 C   0  0  2  0  0  0  0  0  0  0  0  0
   51.4086  -32.2429   -7.6872 C   0  0  0  0  0  0  0  0  0  0  0  0
   52.6135  -32.5935   -7.9265 O   0  0  0  0  0  0  0  0  0  0  0  0
   50.0711  -30.7215   -6.2121 C   0  0  0  0  0  0  0  0  0  0  0  0
   50.1961  -29.7033   -5.1640 C   0  0  0  0  0  0  0  0  0  0  0  0
   50.0221  -30.1980   -3.7555 C   0  0  0  0  0  0  0  0  0  0  0  0
   51.1379  -31.0648   -3.3655 N   0  0  0  0  0  0  0  0  0  0  0  0
   51.1456  -31.6207   -2.0620 C   0  0  0  0  0  0  0  0  0  0  0  0
   50.6214  -32.7891   -1.8073 N   0  0  0  0  0  0  0  0  0  0  0  0
   51.7480  -30.8715   -0.9972 N   0  0  0  0  0  0  0  0  0  0  0  0
   50.5052  -32.3054   -8.7769 N   0  0  0  0  0  0  0  0  0  0  0  0
   49.3219  -33.1445   -8.8622 C   0  0  2  0  0  0  0  0  0  0  0  0
   49.6704  -34.3535   -9.6302 C   0  0  0  0  0  0  0  0  0  0  0  0
   50.8646  -34.4686  -10.1140 O   0  0  0  0  0  0  0  0  0  0  0  0
   48.1345  -32.4434   -9.3902 C   0  0  0  0  0  0  0  0  0  0  0  0
   48.2984  -31.3264  -10.3406 C   0  0  0  0  0  0  0  0  0  0  0  0
   48.2509  -31.6834  -11.7938 C   0  0  0  0  0  0  0  0  0  0  0  0
   48.0923  -30.4521  -12.5729 N   0  0  0  0  0  0  0  0  0  0  0  0
   47.9895  -30.5078  -14.0023 C   0  0  0  0  0  0  0  0  0  0  0  0
   47.0975  -29.6081  -14.6413 N   0  0  0  0  0  0  0  0  0  0  0  0
   48.7067  -31.3672  -14.6421 N   0  0  0  0  0  0  0  0  0  0  0  0
   48.7595  -35.4339   -9.8823 N   0  0  0  0  0  0  0  0  0  0  0  0
   48.0244  -36.1228   -8.8130 C   0  0  1  0  0  0  0  0  0  0  0  0
   46.9800  -36.9480   -9.4623 C   0  0  1  0  0  0  0  0  0  0  0  0
   47.2718  -37.3403  -10.8928 C   0  0  0  0  0  0  0  0  0  0  0  0
   46.5779  -38.1572   -8.6319 C   0  0  0  0  0  0  0  0  0  0  0  0
   45.7042  -36.1001   -9.5098 C   0  0  0  0  0  0  0  0  0  0  0  0
   48.9442  -36.7417   -7.8690 C   0  0  0  0  0  0  0  0  0  0  0  0
   50.1152  -36.1609   -7.8647 O   0  0  0  0  0  0  0  0  0  0  0  0
   48.8086  -37.8128   -6.9848 N   0  0  0  0  0  0  0  0  0  0  0  0
   48.6520  -39.2300   -7.2144 C   0  0  2  0  0  0  0  0  0  0  0  0
   47.8954  -39.8755   -6.0833 C   0  0  0  0  0  0  0  0  0  0  0  0
   48.1673  -39.6132   -4.9056 O   0  0  0  0  0  0  0  0  0  0  0  0
   50.0262  -39.8612   -7.3131 C   0  0  0  0  0  0  0  0  0  0  0  0
   50.8041  -39.8810   -6.0434 C   0  0  0  0  0  0  0  0  0  0  0  0
   52.3129  -39.7701   -6.2984 C   0  0  0  0  0  0  0  0  0  0  0  0
   52.9509  -41.1397   -6.4561 C   0  0  0  0  0  0  0  0  0  0  0  0
   54.3837  -40.9249   -6.4774 N   0  0  0  0  0  0  0  0  0  0  0  0
   46.8748  -40.7867   -6.3999 N   0  0  0  0  0  0  0  0  0  0  0  0
   46.5716  -41.1587   -7.7418 C   0  0  0  0  0  0  0  0  0  0  0  0
   46.2842  -42.6133   -7.8596 C   0  0  0  0  0  0  0  0  0  0  0  0
   46.9251  -43.5813   -7.1388 C   0  0  0  0  0  0  0  0  0  0  0  0
   46.5981  -44.9040   -7.3271 C   0  0  0  0  0  0  0  0  0  0  0  0
   45.6381  -45.2758   -8.2277 C   0  0  0  0  0  0  0  0  0  0  0  0
   45.3109  -46.6908   -8.4122 C   0  0  0  0  0  0  0  0  0  0  0  0
   44.4681  -47.0893   -9.2945 N   0  0  0  0  0  0  0  0  0  0  0  0
   45.9579  -47.6276   -7.5626 N   0  0  0  0  0  0  0  0  0  0  0  0
   44.9554  -44.3168   -8.9874 C   0  0  0  0  0  0  0  0  0  0  0  0
   45.2960  -43.0119   -8.7835 C   0  0  0  0  0  0  0  0  0  0  0  0
   56.4198  -35.1779   -2.4834 C   0  0  0  0  0  0  0  0  0  0  0  0
   57.6248  -35.8008   -1.8426 C   0  0  0  0  0  0  0  0  0  0  0  0
   57.9052  -37.1659   -2.4486 C   0  0  0  0  0  0  0  0  0  0  0  0
   57.7563  -39.3412   -1.5986 C   0  0  0  0  0  0  0  0  0  0  0  0
   56.8529  -40.5486   -1.4651 C   0  0  0  0  0  0  0  0  0  0  0  0
   56.1789  -41.8889   -3.3398 C   0  0  0  0  0  0  0  0  0  0  0  0
   55.0238  -42.1070   -4.2959 C   0  0  0  0  0  0  0  0  0  0  0  0
   55.3169  -41.6123   -5.6650 C   0  0  0  0  0  0  0  0  0  0  0  0
   56.0051  -39.5289   -3.4222 C   0  0  0  0  0  0  0  0  0  0  0  0
   55.8105  -38.2910   -2.5479 C   0  0  0  0  0  0  0  0  0  0  0  0
   57.0166  -38.1145   -1.7959 N   0  0  2  0  0  4  0  0  0  0  0  0
   55.9346  -40.6805   -2.5732 N   0  0  2  0  0  4  0  0  0  0  0  0
   55.3373  -35.1288   -1.8018 O   0  0  0  0  0  0  0  0  0  0  0  0
   56.5027  -41.8485   -6.0855 O   0  0  0  0  0  0  0  0  0  0  0  0
   51.2157  -33.5273   -1.3624 H   0  0  0  0  0  0  0  0  0  0  0  0
   48.7199  -32.3431  -14.3082 H   0  0  0  0  0  0  0  0  0  0  0  0
   44.2295  -48.0811   -9.4724 H   0  0  0  0  0  0  0  0  0  0  0  0
  2  1  1  1
  2  3  1  0
  5  2  1  0
  3  4  2  0
  3 10  1  0
  6  5  1  0
  7  6  1  0
  8  7  1  0
  9  8  1  0
 60  9  1  0
 10 11  1  0
 11 12  1  0
 11 14  1  6
 12 13  2  0
 21 12  1  0
 14 15  1  0
 15 16  1  0
 16 17  1  0
 17 18  1  0
 18 19  2  0
 18 20  1  0
 22 21  1  0
 23 22  1  0
 22 25  1  6
 23 24  2  0
 32 23  1  0
 25 26  1  0
 26 27  1  0
 27 28  1  0
 28 29  1  0
 29 30  1  0
 29 31  2  0
 33 32  1  6
 33 34  1  0
 38 33  1  0
 34 35  1  6
 34 36  1  0
 34 37  1  0
 38 39  2  0
 40 38  1  0
 41 40  1  0
 41 42  1  1
 44 41  1  0
 42 43  2  0
 42 49  1  0
 45 44  1  0
 46 45  1  0
 47 46  1  0
 48 47  1  0
 67 48  1  0
 49 50  1  0
 50 51  1  0
 51 52  2  0
 51 59  1  0
 52 53  1  0
 53 54  2  0
 54 55  1  0
 58 54  1  0
 55 56  2  0
 55 57  1  0
 59 58  2  0
 61 60  1  0
 60 72  2  0
 62 61  1  0
 70 62  1  6
 64 63  1  0
 63 70  1  0
 71 64  1  1
 65 66  1  0
 71 65  1  0
 66 67  1  0
 67 73  2  0
 68 69  1  0
 68 71  1  0
 69 70  1  0
 19 74  1  0
 31 75  1  0
 56 76  1  0
M  CHG  3   1   1  70   1  71   1
M  END
$$$$
