
     RDKit          3D

 76 78  0  0  0  0  0  0  0  0999 V2000
   50.2397  -32.3674   -1.9641 N   0  0  0  0  0  4  0  0  0  0  0  0
   51.4204  -33.0502   -2.3319 C   0  0  2  0  0  0  0  0  0  0  0  0
   51.3403  -34.5011   -2.5745 C   0  0  0  0  0  0  0  0  0  0  0  0
   52.5414  -35.0029   -2.6723 O   0  0  0  0  0  0  0  0  0  0  0  0
   52.4416  -32.7609   -1.2042 C   0  0  0  0  0  0  0  0  0  0  0  0
   53.4055  -31.6823   -1.5644 C   0  0  0  0  0  0  0  0  0  0  0  0
   54.4550  -32.0788   -2.5660 C   0  0  0  0  0  0  0  0  0  0  0  0
   55.5436  -32.9412   -2.0080 C   0  0  0  0  0  0  0  0  0  0  0  0
   55.6518  -34.2081   -2.6755 N   0  0  0  0  0  0  0  0  0  0  0  0
   50.3027  -35.3963   -2.7119 N   0  0  0  0  0  0  0  0  0  0  0  0
   49.2342  -35.5579   -3.6531 C   0  0  2  0  0  0  0  0  0  0  0  0
   49.1232  -34.5440   -4.7181 C   0  0  0  0  0  0  0  0  0  0  0  0
   50.0246  -33.6413   -4.7837 O   0  0  0  0  0  0  0  0  0  0  0  0
   47.9530  -36.0227   -3.0677 C   0  0  0  0  0  0  0  0  0  0  0  0
   47.1099  -36.9753   -3.7975 C   0  0  0  0  0  0  0  0  0  0  0  0
   47.6733  -38.3612   -3.9419 C   0  0  0  0  0  0  0  0  0  0  0  0
   47.8654  -38.9856   -2.6298 N   0  0  0  0  0  0  0  0  0  0  0  0
   48.4106  -40.2922   -2.5701 C   0  0  0  0  0  0  0  0  0  0  0  0
   49.3561  -40.6829   -3.3814 N   0  0  0  0  0  0  0  0  0  0  0  0
   47.9031  -41.2061   -1.5878 N   0  0  0  0  0  0  0  0  0  0  0  0
   48.0937  -34.4792   -5.6894 N   0  0  0  0  0  0  0  0  0  0  0  0
   47.7976  -35.4872   -6.6932 C   0  0  2  0  0  0  0  0  0  0  0  0
   48.4356  -35.0779   -7.9575 C   0  0  0  0  0  0  0  0  0  0  0  0
   49.0782  -33.9561   -8.0031 O   0  0  0  0  0  0  0  0  0  0  0  0
   46.3567  -35.7759   -6.8368 C   0  0  0  0  0  0  0  0  0  0  0  0
   45.4992  -34.8770   -7.6335 C   0  0  0  0  0  0  0  0  0  0  0  0
   45.6174  -34.9984   -9.1210 C   0  0  0  0  0  0  0  0  0  0  0  0
   44.7975  -33.9541   -9.7420 N   0  0  0  0  0  0  0  0  0  0  0  0
   45.4144  -32.9035  -10.4988 C   0  0  0  0  0  0  0  0  0  0  0  0
   46.6756  -33.1640  -11.0944 N   0  0  0  0  0  0  0  0  0  0  0  0
   44.8013  -31.7743  -10.6051 N   0  0  0  0  0  0  0  0  0  0  0  0
   48.3940  -35.8533   -9.1648 N   0  0  0  0  0  0  0  0  0  0  0  0
   48.8033  -37.2631   -9.2212 C   0  0  1  0  0  0  0  0  0  0  0  0
   48.3435  -37.7998  -10.5227 C   0  0  1  0  0  0  0  0  0  0  0  0
   48.3637  -36.8108  -11.6659 C   0  0  0  0  0  0  0  0  0  0  0  0
   49.0361  -39.0983  -10.9070 C   0  0  0  0  0  0  0  0  0  0  0  0
   46.8772  -38.2093  -10.3458 C   0  0  0  0  0  0  0  0  0  0  0  0
   50.1997  -37.4119   -8.8366 C   0  0  0  0  0  0  0  0  0  0  0  0
   50.6116  -36.4317   -8.0762 O   0  0  0  0  0  0  0  0  0  0  0  0
   51.1568  -38.3874   -9.1192 N   0  0  0  0  0  0  0  0  0  0  0  0
   51.8270  -38.7436  -10.3480 C   0  0  2  0  0  0  0  0  0  0  0  0
   52.2225  -40.1969  -10.3405 C   0  0  0  0  0  0  0  0  0  0  0  0
   52.8624  -40.6765   -9.3970 O   0  0  0  0  0  0  0  0  0  0  0  0
   53.0737  -37.8931  -10.4858 C   0  0  0  0  0  0  0  0  0  0  0  0
   54.1502  -38.1872   -9.4998 C   0  0  0  0  0  0  0  0  0  0  0  0
   54.9598  -36.9318   -9.1496 C   0  0  0  0  0  0  0  0  0  0  0  0
   56.1530  -36.7653  -10.0749 C   0  0  0  0  0  0  0  0  0  0  0  0
   56.9508  -35.6875   -9.5258 N   0  0  0  0  0  0  0  0  0  0  0  0
   51.8492  -40.9937  -11.4350 N   0  0  0  0  0  0  0  0  0  0  0  0
   51.8687  -40.5092  -12.7751 C   0  0  0  0  0  0  0  0  0  0  0  0
   53.1545  -39.8354  -13.0995 C   0  0  0  0  0  0  0  0  0  0  0  0
   54.2136  -39.7521  -12.2400 C   0  0  0  0  0  0  0  0  0  0  0  0
   55.3588  -39.0959  -12.6267 C   0  0  0  0  0  0  0  0  0  0  0  0
   55.4624  -38.5190  -13.8626 C   0  0  0  0  0  0  0  0  0  0  0  0
   56.6910  -37.8229  -14.2490 C   0  0  0  0  0  0  0  0  0  0  0  0
   56.8134  -37.2260  -15.3788 N   0  0  0  0  0  0  0  0  0  0  0  0
   57.7687  -37.8364  -13.3236 N   0  0  0  0  0  0  0  0  0  0  0  0
   54.4016  -38.5807  -14.7757 C   0  0  0  0  0  0  0  0  0  0  0  0
   53.2765  -39.2367  -14.3705 C   0  0  0  0  0  0  0  0  0  0  0  0
   56.4887  -35.2721   -2.2636 C   0  0  0  0  0  0  0  0  0  0  0  0
   57.9423  -35.0231   -1.9880 C   0  0  0  0  0  0  0  0  0  0  0  0
   58.7025  -34.8115   -3.2867 C   0  0  0  0  0  0  0  0  0  0  0  0
   60.3162  -36.0835   -4.4071 C   0  0  0  0  0  0  0  0  0  0  0  0
   60.5261  -37.1423   -5.4685 C   0  0  0  0  0  0  0  0  0  0  0  0
   60.0914  -36.7597   -7.7986 C   0  0  0  0  0  0  0  0  0  0  0  0
   59.0511  -37.0023   -8.8732 C   0  0  0  0  0  0  0  0  0  0  0  0
   58.3408  -35.7597   -9.2688 C   0  0  0  0  0  0  0  0  0  0  0  0
   58.4876  -36.1658   -6.1611 C   0  0  0  0  0  0  0  0  0  0  0  0
   57.9790  -36.5290   -4.7668 C   0  0  0  0  0  0  0  0  0  0  0  0
   58.9894  -36.1283   -3.8340 N   0  0  2  0  0  4  0  0  0  0  0  0
   59.5215  -37.0952   -6.5063 N   0  0  2  0  0  4  0  0  0  0  0  0
   56.0464  -36.4639   -2.1134 O   0  0  0  0  0  0  0  0  0  0  0  0
   59.0800  -34.7193   -9.3670 O   0  0  0  0  0  0  0  0  0  0  0  0
   50.3440  -40.7103   -3.0358 H   0  0  0  0  0  0  0  0  0  0  0  0
   43.7807  -31.7525  -10.4569 H   0  0  0  0  0  0  0  0  0  0  0  0
   57.6201  -36.6341  -15.6453 H   0  0  0  0  0  0  0  0  0  0  0  0
  2  1  1  1
  2  3  1  0
  5  2  1  0
  3  4  2  0
  3 10  1  0
  6  5  1  0
  7  6  1  0
  8  7  1  0
  9  8  1  0
 60  9  1  0
 10 11  1  0
 11 12  1  0
 11 14  1  1
 12 13  2  0
 21 12  1  0
 14 15  1  0
 15 16  1  0
 16 17  1  0
 17 18  1  0
 18 19  2  0
 18 20  1  0
 22 21  1  0
 23 22  1  0
 22 25  1  6
 23 24  2  0
 32 23  1  0
 25 26  1  0
 26 27  1  0
 27 28  1  0
 28 29  1  0
 29 30  1  0
 29 31  2  0
 33 32  1  6
 33 34  1  0
 38 33  1  0
 34 35  1  6
 34 36  1  0
 34 37  1  0
 38 39  2  0
 40 38  1  0
 41 40  1  0
 41 42  1  1
 44 41  1  0
 42 43  2  0
 42 49  1  0
 45 44  1  0
 46 45  1  0
 47 46  1  0
 48 47  1  0
 67 48  1  0
 49 50  1  0
 50 51  1  0
 51 52  2  0
 51 59  1  0
 52 53  1  0
 53 54  2  0
 54 55  1  0
 58 54  1  0
 55 56  2  0
 55 57  1  0
 59 58  2  0
 61 60  1  0
 60 72  2  0
 62 61  1  0
 70 62  1  6
 64 63  1  0
 63 70  1  0
 71 64  1  1
 65 66  1  0
 71 65  1  0
 66 67  1  0
 67 73  2  0
 68 69  1  0
 68 71  1  0
 69 70  1  0
 19 74  1  0
 31 75  1  0
 56 76  1  0
M  CHG  3   1   1  70   1  71   1
M  END
$$$$
