
     RDKit          3D

 76 78  0  0  0  0  0  0  0  0999 V2000
   55.3920  -33.2500   -0.9940 N   0  0  0  0  0  4  0  0  0  0  0  0
   55.8315  -33.7656   -2.2336 C   0  0  2  0  0  0  0  0  0  0  0  0
   55.2981  -35.0653   -2.6771 C   0  0  0  0  0  0  0  0  0  0  0  0
   55.9730  -35.4946   -3.7086 O   0  0  0  0  0  0  0  0  0  0  0  0
   57.3753  -33.8363   -2.1355 C   0  0  0  0  0  0  0  0  0  0  0  0
   58.0472  -32.6869   -2.8062 C   0  0  0  0  0  0  0  0  0  0  0  0
   58.0289  -32.7314   -4.3093 C   0  0  0  0  0  0  0  0  0  0  0  0
   58.9881  -33.7123   -4.9076 C   0  0  0  0  0  0  0  0  0  0  0  0
   58.3414  -34.7002   -5.7251 N   0  0  0  0  0  0  0  0  0  0  0  0
   54.2786  -35.8837   -2.2437 N   0  0  0  0  0  0  0  0  0  0  0  0
   52.8545  -35.7518   -2.1541 C   0  0  2  0  0  0  0  0  0  0  0  0
   52.2778  -34.4537   -2.5502 C   0  0  0  0  0  0  0  0  0  0  0  0
   53.0658  -33.5654   -3.0210 O   0  0  0  0  0  0  0  0  0  0  0  0
   52.2426  -36.3948   -0.9656 C   0  0  0  0  0  0  0  0  0  0  0  0
   52.9674  -37.4403   -0.2361 C   0  0  0  0  0  0  0  0  0  0  0  0
   52.3162  -38.7948   -0.2271 C   0  0  0  0  0  0  0  0  0  0  0  0
   51.1173  -38.8027   -1.0702 N   0  0  0  0  0  0  0  0  0  0  0  0
   50.3911  -40.0114   -1.2109 C   0  0  0  0  0  0  0  0  0  0  0  0
   50.9568  -41.1780   -1.0567 N   0  0  0  0  0  0  0  0  0  0  0  0
   48.9949  -39.9426   -1.5329 N   0  0  0  0  0  0  0  0  0  0  0  0
   50.9098  -34.0970   -2.4554 N   0  0  0  0  0  0  0  0  0  0  0  0
   49.8067  -34.7378   -3.1512 C   0  0  2  0  0  0  0  0  0  0  0  0
   49.4947  -33.9401   -4.3508 C   0  0  0  0  0  0  0  0  0  0  0  0
   50.1606  -32.8537   -4.5743 O   0  0  0  0  0  0  0  0  0  0  0  0
   48.6290  -34.9843   -2.2953 C   0  0  0  0  0  0  0  0  0  0  0  0
   48.5488  -34.3717   -0.9551 C   0  0  0  0  0  0  0  0  0  0  0  0
   49.5062  -33.2536   -0.6817 C   0  0  0  0  0  0  0  0  0  0  0  0
   49.5516  -32.3791   -1.8571 N   0  0  0  0  0  0  0  0  0  0  0  0
   50.4125  -31.2321   -1.8734 C   0  0  0  0  0  0  0  0  0  0  0  0
   50.9634  -30.7954   -0.6409 N   0  0  0  0  0  0  0  0  0  0  0  0
   50.6478  -30.6500   -2.9995 N   0  0  0  0  0  0  0  0  0  0  0  0
   48.4847  -34.2926   -5.3081 N   0  0  0  0  0  0  0  0  0  0  0  0
   48.4316  -35.6061   -5.9638 C   0  0  1  0  0  0  0  0  0  0  0  0
   47.1140  -35.7076   -6.6325 C   0  0  1  0  0  0  0  0  0  0  0  0
   46.8254  -34.6234   -7.6458 C   0  0  0  0  0  0  0  0  0  0  0  0
   46.8486  -37.0879   -7.2138 C   0  0  0  0  0  0  0  0  0  0  0  0
   46.0461  -35.5613   -5.5431 C   0  0  0  0  0  0  0  0  0  0  0  0
   49.6457  -35.8515   -6.7292 C   0  0  0  0  0  0  0  0  0  0  0  0
   50.6606  -35.1583   -6.2844 O   0  0  0  0  0  0  0  0  0  0  0  0
   49.9212  -36.6744   -7.8220 N   0  0  0  0  0  0  0  0  0  0  0  0
   49.4905  -36.6135   -9.1992 C   0  0  2  0  0  0  0  0  0  0  0  0
   49.4613  -37.9888   -9.8126 C   0  0  0  0  0  0  0  0  0  0  0  0
   50.2154  -38.8815   -9.4075 O   0  0  0  0  0  0  0  0  0  0  0  0
   50.4628  -35.7474   -9.9746 C   0  0  0  0  0  0  0  0  0  0  0  0
   51.8244  -36.3256  -10.1462 C   0  0  0  0  0  0  0  0  0  0  0  0
   52.9037  -35.2361  -10.1923 C   0  0  0  0  0  0  0  0  0  0  0  0
   53.1601  -34.7691  -11.6149 C   0  0  0  0  0  0  0  0  0  0  0  0
   54.3266  -33.9113  -11.5613 N   0  0  0  0  0  0  0  0  0  0  0  0
   48.5577  -38.2310  -10.8600 N   0  0  0  0  0  0  0  0  0  0  0  0
   47.4736  -37.3536  -11.1524 C   0  0  0  0  0  0  0  0  0  0  0  0
   47.6826  -36.6257  -12.4326 C   0  0  0  0  0  0  0  0  0  0  0  0
   47.2938  -37.0983  -13.6544 C   0  0  0  0  0  0  0  0  0  0  0  0
   47.5427  -36.3568  -14.7858 C   0  0  0  0  0  0  0  0  0  0  0  0
   48.1768  -35.1468  -14.7153 C   0  0  0  0  0  0  0  0  0  0  0  0
   48.4333  -34.3785  -15.9347 C   0  0  0  0  0  0  0  0  0  0  0  0
   47.5072  -34.1086  -16.7815 N   0  0  0  0  0  0  0  0  0  0  0  0
   49.7652  -33.9406  -16.1634 N   0  0  0  0  0  0  0  0  0  0  0  0
   48.5920  -34.6238  -13.4837 C   0  0  0  0  0  0  0  0  0  0  0  0
   48.3342  -35.3763  -12.3757 C   0  0  0  0  0  0  0  0  0  0  0  0
   58.9806  -35.8292   -6.2899 C   0  0  0  0  0  0  0  0  0  0  0  0
   60.2475  -35.6620   -7.0758 C   0  0  0  0  0  0  0  0  0  0  0  0
   59.9561  -35.0394   -8.4310 C   0  0  0  0  0  0  0  0  0  0  0  0
   60.0676  -35.8690  -10.6164 C   0  0  0  0  0  0  0  0  0  0  0  0
   59.2725  -36.5333  -11.7202 C   0  0  0  0  0  0  0  0  0  0  0  0
   57.4786  -35.4362  -12.8791 C   0  0  0  0  0  0  0  0  0  0  0  0
   55.9670  -35.3384  -12.9173 C   0  0  0  0  0  0  0  0  0  0  0  0
   55.4668  -34.0436  -12.3895 C   0  0  0  0  0  0  0  0  0  0  0  0
   57.5758  -35.4135  -10.5134 C   0  0  0  0  0  0  0  0  0  0  0  0
   58.0768  -36.2071   -9.3077 C   0  0  0  0  0  0  0  0  0  0  0  0
   59.5059  -36.1104   -9.3061 N   0  0  2  0  0  4  0  0  0  0  0  0
   57.8735  -36.1719  -11.6916 N   0  0  2  0  0  4  0  0  0  0  0  0
   58.5116  -37.0126   -6.1546 O   0  0  0  0  0  0  0  0  0  0  0  0
   56.1480  -33.0165  -12.7353 O   0  0  0  0  0  0  0  0  0  0  0  0
   51.9142  -41.2277   -0.6358 H   0  0  0  0  0  0  0  0  0  0  0  0
   51.5141  -30.0986   -3.0970 H   0  0  0  0  0  0  0  0  0  0  0  0
   47.6197  -33.4735  -17.5915 H   0  0  0  0  0  0  0  0  0  0  0  0
  2  1  1  1
  2  3  1  0
  5  2  1  0
  3  4  2  0
  3 10  1  0
  6  5  1  0
  7  6  1  0
  8  7  1  0
  9  8  1  0
 60  9  1  0
 10 11  1  0
 11 12  1  0
 11 14  1  1
 12 13  2  0
 21 12  1  0
 14 15  1  0
 15 16  1  0
 16 17  1  0
 17 18  1  0
 18 19  2  0
 18 20  1  0
 22 21  1  0
 23 22  1  0
 22 25  1  1
 23 24  2  0
 32 23  1  0
 25 26  1  0
 26 27  1  0
 27 28  1  0
 28 29  1  0
 29 30  1  0
 29 31  2  0
 33 32  1  6
 33 34  1  0
 38 33  1  0
 34 35  1  6
 34 36  1  0
 34 37  1  0
 38 39  2  0
 40 38  1  0
 41 40  1  0
 41 42  1  6
 44 41  1  0
 42 43  2  0
 42 49  1  0
 45 44  1  0
 46 45  1  0
 47 46  1  0
 48 47  1  0
 67 48  1  0
 49 50  1  0
 50 51  1  0
 51 52  2  0
 51 59  1  0
 52 53  1  0
 53 54  2  0
 54 55  1  0
 58 54  1  0
 55 56  2  0
 55 57  1  0
 59 58  2  0
 61 60  1  0
 60 72  2  0
 62 61  1  0
 70 62  1  1
 64 63  1  0
 63 70  1  0
 71 64  1  6
 65 66  1  0
 71 65  1  0
 66 67  1  0
 67 73  2  0
 68 69  1  0
 68 71  1  0
 69 70  1  0
 19 74  1  0
 31 75  1  0
 56 76  1  0
M  CHG  3   1   1  70   1  71   1
M  END
$$$$
