
     RDKit          3D

 76 78  0  0  0  0  0  0  0  0999 V2000
   55.5156  -33.8102   -2.9701 N   0  0  0  0  0  4  0  0  0  0  0  0
   55.8702  -34.1598   -4.2921 C   0  0  2  0  0  0  0  0  0  0  0  0
   55.3983  -35.4506   -4.8228 C   0  0  0  0  0  0  0  0  0  0  0  0
   56.0002  -35.7148   -5.9505 O   0  0  0  0  0  0  0  0  0  0  0  0
   57.4170  -34.1048   -4.3406 C   0  0  0  0  0  0  0  0  0  0  0  0
   57.9287  -32.8402   -4.9417 C   0  0  0  0  0  0  0  0  0  0  0  0
   57.7667  -32.7366   -6.4333 C   0  0  0  0  0  0  0  0  0  0  0  0
   58.7358  -33.5657   -7.2166 C   0  0  0  0  0  0  0  0  0  0  0  0
   58.0908  -34.5202   -8.0740 N   0  0  0  0  0  0  0  0  0  0  0  0
   54.4929  -36.3939   -4.3901 N   0  0  0  0  0  0  0  0  0  0  0  0
   53.0785  -36.3964   -4.1599 C   0  0  2  0  0  0  0  0  0  0  0  0
   52.3667  -35.1208   -4.3615 C   0  0  0  0  0  0  0  0  0  0  0  0
   53.0336  -34.1247   -4.8030 O   0  0  0  0  0  0  0  0  0  0  0  0
   52.6377  -37.2052   -2.9972 C   0  0  0  0  0  0  0  0  0  0  0  0
   52.3220  -36.5541   -1.7216 C   0  0  0  0  0  0  0  0  0  0  0  0
   52.8674  -35.1641   -1.5508 C   0  0  0  0  0  0  0  0  0  0  0  0
   54.0476  -35.1699   -0.6816 N   0  0  0  0  0  0  0  0  0  0  0  0
   54.5820  -33.9305   -0.2498 C   0  0  0  0  0  0  0  0  0  0  0  0
   54.1959  -33.3621    0.8605 N   0  0  0  0  0  0  0  0  0  0  0  0
   55.5748  -33.2880   -1.0619 N   0  0  0  0  0  0  0  0  0  0  0  0
   50.9911  -34.8961   -4.1071 N   0  0  0  0  0  0  0  0  0  0  0  0
   49.8782  -35.5585   -4.7660 C   0  0  2  0  0  0  0  0  0  0  0  0
   49.3892  -34.6759   -5.8407 C   0  0  0  0  0  0  0  0  0  0  0  0
   49.9436  -33.5187   -6.0051 O   0  0  0  0  0  0  0  0  0  0  0  0
   48.8127  -35.9907   -3.8397 C   0  0  0  0  0  0  0  0  0  0  0  0
   48.8767  -35.6153   -2.4139 C   0  0  0  0  0  0  0  0  0  0  0  0
   50.0330  -34.7551   -2.0087 C   0  0  0  0  0  0  0  0  0  0  0  0
   49.7389  -34.1619   -0.7010 N   0  0  0  0  0  0  0  0  0  0  0  0
   49.0963  -34.9392    0.3187 C   0  0  0  0  0  0  0  0  0  0  0  0
   47.6788  -34.9179    0.3781 N   0  0  0  0  0  0  0  0  0  0  0  0
   49.8285  -35.6196    1.1330 N   0  0  0  0  0  0  0  0  0  0  0  0
   48.3207  -35.0184   -6.7360 N   0  0  0  0  0  0  0  0  0  0  0  0
   48.3056  -36.2599   -7.5212 C   0  0  1  0  0  0  0  0  0  0  0  0
   46.9408  -36.4092   -8.0765 C   0  0  1  0  0  0  0  0  0  0  0  0
   46.8264  -37.3589   -9.2471 C   0  0  0  0  0  0  0  0  0  0  0  0
   45.8984  -36.7194   -7.0131 C   0  0  0  0  0  0  0  0  0  0  0  0
   46.5199  -35.0342   -8.6068 C   0  0  0  0  0  0  0  0  0  0  0  0
   49.4542  -36.3211   -8.4140 C   0  0  0  0  0  0  0  0  0  0  0  0
   50.4510  -35.5895   -7.9900 O   0  0  0  0  0  0  0  0  0  0  0  0
   49.6844  -37.0042   -9.6089 N   0  0  0  0  0  0  0  0  0  0  0  0
   49.1174  -36.8446  -10.9275 C   0  0  2  0  0  0  0  0  0  0  0  0
   49.1350  -38.1495  -11.6797 C   0  0  0  0  0  0  0  0  0  0  0  0
   50.0735  -38.9446  -11.5508 O   0  0  0  0  0  0  0  0  0  0  0  0
   49.9389  -35.8242  -11.6895 C   0  0  0  0  0  0  0  0  0  0  0  0
   51.3178  -36.2613  -12.0431 C   0  0  0  0  0  0  0  0  0  0  0  0
   52.2996  -35.0826  -12.0686 C   0  0  0  0  0  0  0  0  0  0  0  0
   52.3783  -34.4560  -13.4502 C   0  0  0  0  0  0  0  0  0  0  0  0
   53.4744  -33.5092  -13.4096 N   0  0  0  0  0  0  0  0  0  0  0  0
   48.0594  -38.4390  -12.5348 N   0  0  0  0  0  0  0  0  0  0  0  0
   46.8793  -37.6411  -12.5759 C   0  0  0  0  0  0  0  0  0  0  0  0
   45.7375  -38.3094  -11.8962 C   0  0  0  0  0  0  0  0  0  0  0  0
   45.3704  -38.0701  -10.6019 C   0  0  0  0  0  0  0  0  0  0  0  0
   44.3056  -38.7483  -10.0560 C   0  0  0  0  0  0  0  0  0  0  0  0
   43.5998  -39.6653  -10.7854 C   0  0  0  0  0  0  0  0  0  0  0  0
   42.4725  -40.3766  -10.1801 C   0  0  0  0  0  0  0  0  0  0  0  0
   42.0045  -40.0628   -9.0268 N   0  0  0  0  0  0  0  0  0  0  0  0
   41.9072  -41.4523  -10.9159 N   0  0  0  0  0  0  0  0  0  0  0  0
   43.9408  -39.9413  -12.1159 C   0  0  0  0  0  0  0  0  0  0  0  0
   44.9997  -39.2567  -12.6359 C   0  0  0  0  0  0  0  0  0  0  0  0
   58.7573  -35.5273   -8.8113 C   0  0  0  0  0  0  0  0  0  0  0  0
   59.9243  -35.1729   -9.6849 C   0  0  0  0  0  0  0  0  0  0  0  0
   59.4540  -34.4466  -10.9342 C   0  0  0  0  0  0  0  0  0  0  0  0
   59.4149  -35.0422  -13.1970 C   0  0  0  0  0  0  0  0  0  0  0  0
   58.5694  -35.6604  -14.2900 C   0  0  0  0  0  0  0  0  0  0  0  0
   56.5908  -34.6145  -15.1597 C   0  0  0  0  0  0  0  0  0  0  0  0
   55.0798  -34.6458  -15.0519 C   0  0  0  0  0  0  0  0  0  0  0  0
   54.5347  -33.4585  -14.3458 C   0  0  0  0  0  0  0  0  0  0  0  0
   56.9173  -34.8185  -12.8234 C   0  0  0  0  0  0  0  0  0  0  0  0
   57.5942  -35.6812  -11.7593 C   0  0  0  0  0  0  0  0  0  0  0  0
   59.0047  -35.4607  -11.8751 N   0  0  2  0  0  4  0  0  0  0  0  0
   57.1561  -35.4272  -14.0980 N   0  0  2  0  0  4  0  0  0  0  0  0
   58.3971  -36.7547   -8.7621 O   0  0  0  0  0  0  0  0  0  0  0  0
   55.0970  -32.3466  -14.6392 O   0  0  0  0  0  0  0  0  0  0  0  0
   54.9012  -32.8544    1.4442 H   0  0  0  0  0  0  0  0  0  0  0  0
   50.7994  -35.8351    0.8591 H   0  0  0  0  0  0  0  0  0  0  0  0
   42.5199  -39.5179   -8.3128 H   0  0  0  0  0  0  0  0  0  0  0  0
  2  1  1  1
  2  3  1  0
  5  2  1  0
  3  4  2  0
  3 10  1  0
  6  5  1  0
  7  6  1  0
  8  7  1  0
  9  8  1  0
 60  9  1  0
 10 11  1  0
 11 12  1  0
 11 14  1  1
 12 13  2  0
 21 12  1  0
 14 15  1  0
 15 16  1  0
 16 17  1  0
 17 18  1  0
 18 19  2  0
 18 20  1  0
 22 21  1  0
 23 22  1  0
 22 25  1  1
 23 24  2  0
 32 23  1  0
 25 26  1  0
 26 27  1  0
 27 28  1  0
 28 29  1  0
 29 30  1  0
 29 31  2  0
 33 32  1  6
 33 34  1  0
 38 33  1  0
 34 35  1  6
 34 36  1  0
 34 37  1  0
 38 39  2  0
 40 38  1  0
 41 40  1  0
 41 42  1  6
 44 41  1  0
 42 43  2  0
 42 49  1  0
 45 44  1  0
 46 45  1  0
 47 46  1  0
 48 47  1  0
 67 48  1  0
 49 50  1  0
 50 51  1  0
 51 52  2  0
 51 59  1  0
 52 53  1  0
 53 54  2  0
 54 55  1  0
 58 54  1  0
 55 56  2  0
 55 57  1  0
 59 58  2  0
 61 60  1  0
 60 72  2  0
 62 61  1  0
 70 62  1  1
 64 63  1  0
 63 70  1  0
 71 64  1  6
 65 66  1  0
 71 65  1  0
 66 67  1  0
 67 73  2  0
 68 69  1  0
 68 71  1  0
 69 70  1  0
 19 74  1  0
 31 75  1  0
 56 76  1  0
M  CHG  3   1   1  70   1  71   1
M  END
$$$$
