
     RDKit          3D

 76 78  0  0  0  0  0  0  0  0999 V2000
   51.8054  -34.1129   -2.8436 N   0  0  0  0  0  4  0  0  0  0  0  0
   52.7247  -34.5878   -3.8055 C   0  0  2  0  0  0  0  0  0  0  0  0
   52.5656  -35.9659   -4.3015 C   0  0  0  0  0  0  0  0  0  0  0  0
   53.6163  -36.3136   -4.9937 O   0  0  0  0  0  0  0  0  0  0  0  0
   54.1256  -34.4164   -3.1682 C   0  0  0  0  0  0  0  0  0  0  0  0
   54.8315  -33.1956   -3.6516 C   0  0  0  0  0  0  0  0  0  0  0  0
   55.3586  -33.2832   -5.0574 C   0  0  0  0  0  0  0  0  0  0  0  0
   56.5911  -34.1200   -5.2014 C   0  0  0  0  0  0  0  0  0  0  0  0
   56.4193  -35.2178   -6.1112 N   0  0  0  0  0  0  0  0  0  0  0  0
   51.5788  -36.9199   -4.1877 N   0  0  0  0  0  0  0  0  0  0  0  0
   50.2132  -37.0074   -4.6129 C   0  0  2  0  0  0  0  0  0  0  0  0
   49.6471  -35.8252   -5.2887 C   0  0  0  0  0  0  0  0  0  0  0  0
   50.4241  -34.8389   -5.5239 O   0  0  0  0  0  0  0  0  0  0  0  0
   49.3091  -37.7046   -3.6660 C   0  0  0  0  0  0  0  0  0  0  0  0
   49.3491  -37.3850   -2.2352 C   0  0  0  0  0  0  0  0  0  0  0  0
   49.6459  -35.9504   -1.8996 C   0  0  0  0  0  0  0  0  0  0  0  0
   50.9226  -35.8343   -1.1891 N   0  0  0  0  0  0  0  0  0  0  0  0
   50.9448  -35.1866    0.0711 C   0  0  0  0  0  0  0  0  0  0  0  0
   51.0292  -35.8557    1.1892 N   0  0  0  0  0  0  0  0  0  0  0  0
   50.8713  -33.7545    0.1110 N   0  0  0  0  0  0  0  0  0  0  0  0
   48.3011  -35.6818   -5.7075 N   0  0  0  0  0  0  0  0  0  0  0  0
   47.6172  -36.5041   -6.6912 C   0  0  2  0  0  0  0  0  0  0  0  0
   47.6508  -35.7971   -7.9842 C   0  0  0  0  0  0  0  0  0  0  0  0
   48.1997  -34.6273   -8.0472 O   0  0  0  0  0  0  0  0  0  0  0  0
   46.2560  -36.9063   -6.2845 C   0  0  0  0  0  0  0  0  0  0  0  0
   45.6139  -36.2668   -5.1197 C   0  0  0  0  0  0  0  0  0  0  0  0
   45.8833  -36.8969   -3.7886 C   0  0  0  0  0  0  0  0  0  0  0  0
   44.9344  -37.9966   -3.5913 N   0  0  0  0  0  0  0  0  0  0  0  0
   44.7679  -38.5854   -2.2941 C   0  0  0  0  0  0  0  0  0  0  0  0
   43.6161  -38.2312   -1.5450 N   0  0  0  0  0  0  0  0  0  0  0  0
   45.6658  -39.4058   -1.8663 N   0  0  0  0  0  0  0  0  0  0  0  0
   47.1077  -36.3273   -9.2026 N   0  0  0  0  0  0  0  0  0  0  0  0
   47.4703  -37.6506   -9.7276 C   0  0  1  0  0  0  0  0  0  0  0  0
   46.5059  -37.9726  -10.8045 C   0  0  1  0  0  0  0  0  0  0  0  0
   45.4524  -38.9924  -10.4363 C   0  0  0  0  0  0  0  0  0  0  0  0
   45.8788  -36.7355  -11.4288 C   0  0  0  0  0  0  0  0  0  0  0  0
   47.3083  -38.5920  -11.9540 C   0  0  0  0  0  0  0  0  0  0  0  0
   48.8991  -37.7261   -9.9976 C   0  0  0  0  0  0  0  0  0  0  0  0
   49.5843  -36.8725   -9.2831 O   0  0  0  0  0  0  0  0  0  0  0  0
   49.6557  -38.5259  -10.8550 N   0  0  0  0  0  0  0  0  0  0  0  0
   49.7424  -38.5697  -12.2960 C   0  0  2  0  0  0  0  0  0  0  0  0
   50.1203  -39.9491  -12.7682 C   0  0  0  0  0  0  0  0  0  0  0  0
   51.1176  -40.5245  -12.3164 O   0  0  0  0  0  0  0  0  0  0  0  0
   50.8016  -37.5851  -12.7492 C   0  0  0  0  0  0  0  0  0  0  0  0
   52.1990  -37.9503  -12.3866 C   0  0  0  0  0  0  0  0  0  0  0  0
   53.0660  -36.7088  -12.1397 C   0  0  0  0  0  0  0  0  0  0  0  0
   53.7490  -36.2466  -13.4154 C   0  0  0  0  0  0  0  0  0  0  0  0
   54.6922  -35.2177  -13.0263 N   0  0  0  0  0  0  0  0  0  0  0  0
   49.3128  -40.5647  -13.7383 N   0  0  0  0  0  0  0  0  0  0  0  0
   48.9835  -39.9320  -14.9721 C   0  0  0  0  0  0  0  0  0  0  0  0
   48.1445  -38.7214  -14.7648 C   0  0  0  0  0  0  0  0  0  0  0  0
   47.5521  -38.0181  -15.7755 C   0  0  0  0  0  0  0  0  0  0  0  0
   46.8035  -36.9015  -15.4849 C   0  0  0  0  0  0  0  0  0  0  0  0
   46.6376  -36.4748  -14.1960 C   0  0  0  0  0  0  0  0  0  0  0  0
   45.8389  -35.2810  -13.9132 C   0  0  0  0  0  0  0  0  0  0  0  0
   44.7783  -35.3219  -13.1913 N   0  0  0  0  0  0  0  0  0  0  0  0
   46.2741  -34.0536  -14.4807 N   0  0  0  0  0  0  0  0  0  0  0  0
   47.2263  -37.1658  -13.1288 C   0  0  0  0  0  0  0  0  0  0  0  0
   47.9636  -38.2700  -13.4410 C   0  0  0  0  0  0  0  0  0  0  0  0
   57.3642  -36.2493   -6.3239 C   0  0  0  0  0  0  0  0  0  0  0  0
   58.7935  -35.9098   -6.6277 C   0  0  0  0  0  0  0  0  0  0  0  0
   58.9254  -35.3767   -8.0447 C   0  0  0  0  0  0  0  0  0  0  0  0
   59.9224  -36.2382   -9.9788 C   0  0  0  0  0  0  0  0  0  0  0  0
   59.6722  -37.0471  -11.2337 C   0  0  0  0  0  0  0  0  0  0  0  0
   58.2816  -36.2723  -13.0312 C   0  0  0  0  0  0  0  0  0  0  0  0
   56.8855  -36.4104  -13.6034 C   0  0  0  0  0  0  0  0  0  0  0  0
   56.0599  -35.1947  -13.3899 C   0  0  0  0  0  0  0  0  0  0  0  0
   57.5217  -36.1707  -10.7909 C   0  0  0  0  0  0  0  0  0  0  0  0
   57.6601  -36.8442   -9.4264 C   0  0  0  0  0  0  0  0  0  0  0  0
   58.9669  -36.5278   -8.9328 N   0  0  2  0  0  4  0  0  0  0  0  0
   58.3207  -36.9056  -11.7255 N   0  0  2  0  0  4  0  0  0  0  0  0
   57.0419  -37.4869   -6.2665 O   0  0  0  0  0  0  0  0  0  0  0  0
   56.6747  -34.0844  -13.5570 O   0  0  0  0  0  0  0  0  0  0  0  0
   51.7857  -36.5712    1.2981 H   0  0  0  0  0  0  0  0  0  0  0  0
   46.4394  -39.6624   -2.4985 H   0  0  0  0  0  0  0  0  0  0  0  0
   44.0783  -34.5611  -13.1331 H   0  0  0  0  0  0  0  0  0  0  0  0
  2  1  1  1
  2  3  1  0
  5  2  1  0
  3  4  2  0
  3 10  1  0
  6  5  1  0
  7  6  1  0
  8  7  1  0
  9  8  1  0
 60  9  1  0
 10 11  1  0
 11 12  1  0
 11 14  1  1
 12 13  2  0
 21 12  1  0
 14 15  1  0
 15 16  1  0
 16 17  1  0
 17 18  1  0
 18 19  2  0
 18 20  1  0
 22 21  1  0
 23 22  1  0
 22 25  1  1
 23 24  2  0
 32 23  1  0
 25 26  1  0
 26 27  1  0
 27 28  1  0
 28 29  1  0
 29 30  1  0
 29 31  2  0
 33 32  1  6
 33 34  1  0
 38 33  1  0
 34 35  1  1
 34 36  1  0
 34 37  1  0
 38 39  2  0
 40 38  1  0
 41 40  1  0
 41 42  1  1
 44 41  1  0
 42 43  2  0
 42 49  1  0
 45 44  1  0
 46 45  1  0
 47 46  1  0
 48 47  1  0
 67 48  1  0
 49 50  1  0
 50 51  1  0
 51 52  2  0
 51 59  1  0
 52 53  1  0
 53 54  2  0
 54 55  1  0
 58 54  1  0
 55 56  2  0
 55 57  1  0
 59 58  2  0
 61 60  1  0
 60 72  2  0
 62 61  1  0
 70 62  1  1
 64 63  1  0
 63 70  1  0
 71 64  1  1
 65 66  1  0
 71 65  1  0
 66 67  1  0
 67 73  2  0
 68 69  1  0
 68 71  1  0
 69 70  1  0
 19 74  1  0
 31 75  1  0
 56 76  1  0
M  CHG  3   1   1  70   1  71   1
M  END
$$$$
