
     RDKit          3D

 76 78  0  0  0  0  0  0  0  0999 V2000
   51.1670  -33.7291   -3.7277 N   0  0  0  0  0  4  0  0  0  0  0  0
   52.1340  -34.2390   -4.6225 C   0  0  2  0  0  0  0  0  0  0  0  0
   52.0295  -35.6502   -5.0324 C   0  0  0  0  0  0  0  0  0  0  0  0
   53.1143  -36.0121   -5.6619 O   0  0  0  0  0  0  0  0  0  0  0  0
   53.5048  -33.9873   -3.9476 C   0  0  0  0  0  0  0  0  0  0  0  0
   54.1968  -32.7808   -4.4842 C   0  0  0  0  0  0  0  0  0  0  0  0
   54.7789  -32.9441   -5.8613 C   0  0  0  0  0  0  0  0  0  0  0  0
   56.0372  -33.7533   -5.9055 C   0  0  0  0  0  0  0  0  0  0  0  0
   55.9284  -34.9121   -6.7469 N   0  0  0  0  0  0  0  0  0  0  0  0
   51.0641  -36.6224   -4.8921 N   0  0  0  0  0  0  0  0  0  0  0  0
   49.7182  -36.7756   -5.3596 C   0  0  2  0  0  0  0  0  0  0  0  0
   49.1478  -35.6561   -6.1315 C   0  0  0  0  0  0  0  0  0  0  0  0
   49.9074  -34.6655   -6.4027 O   0  0  0  0  0  0  0  0  0  0  0  0
   48.7972  -37.4356   -4.4023 C   0  0  0  0  0  0  0  0  0  0  0  0
   49.2616  -38.5641   -3.5889 C   0  0  0  0  0  0  0  0  0  0  0  0
   49.9805  -38.1970   -2.3212 C   0  0  0  0  0  0  0  0  0  0  0  0
   50.5884  -39.3798   -1.7050 N   0  0  0  0  0  0  0  0  0  0  0  0
   51.8897  -39.2689   -1.1550 C   0  0  0  0  0  0  0  0  0  0  0  0
   52.6034  -38.1834   -1.2851 N   0  0  0  0  0  0  0  0  0  0  0  0
   52.4313  -40.3862   -0.4366 N   0  0  0  0  0  0  0  0  0  0  0  0
   47.8154  -35.5781   -6.6072 N   0  0  0  0  0  0  0  0  0  0  0  0
   47.1908  -36.4812   -7.5589 C   0  0  2  0  0  0  0  0  0  0  0  0
   47.2551  -35.8585   -8.8935 C   0  0  0  0  0  0  0  0  0  0  0  0
   47.7755  -34.6802   -9.0132 O   0  0  0  0  0  0  0  0  0  0  0  0
   45.8259  -36.8946   -7.1762 C   0  0  0  0  0  0  0  0  0  0  0  0
   44.9804  -35.9936   -6.3691 C   0  0  0  0  0  0  0  0  0  0  0  0
   45.6131  -35.4193   -5.1398 C   0  0  0  0  0  0  0  0  0  0  0  0
   45.3660  -36.3298   -4.0179 N   0  0  0  0  0  0  0  0  0  0  0  0
   45.7754  -35.9715   -2.6909 C   0  0  0  0  0  0  0  0  0  0  0  0
   45.7936  -36.9890   -1.7022 N   0  0  0  0  0  0  0  0  0  0  0  0
   46.1072  -34.7484   -2.4539 N   0  0  0  0  0  0  0  0  0  0  0  0
   46.7724  -36.4814  -10.0933 N   0  0  0  0  0  0  0  0  0  0  0  0
   47.1886  -37.8251  -10.5169 C   0  0  1  0  0  0  0  0  0  0  0  0
   46.2744  -38.2431  -11.6045 C   0  0  1  0  0  0  0  0  0  0  0  0
   46.5275  -37.5849  -12.9417 C   0  0  0  0  0  0  0  0  0  0  0  0
   46.1728  -39.7541  -11.7461 C   0  0  0  0  0  0  0  0  0  0  0  0
   44.8608  -37.8219  -11.1883 C   0  0  0  0  0  0  0  0  0  0  0  0
   48.6281  -37.8775  -10.7295 C   0  0  0  0  0  0  0  0  0  0  0  0
   49.2635  -36.9605  -10.0483 O   0  0  0  0  0  0  0  0  0  0  0  0
   49.4371  -38.7093  -11.5048 N   0  0  0  0  0  0  0  0  0  0  0  0
   49.5795  -38.8437  -12.9357 C   0  0  2  0  0  0  0  0  0  0  0  0
   50.0105  -40.2395  -13.3024 C   0  0  0  0  0  0  0  0  0  0  0  0
   50.7626  -40.8869  -12.5643 O   0  0  0  0  0  0  0  0  0  0  0  0
   50.6293  -37.8609  -13.4140 C   0  0  0  0  0  0  0  0  0  0  0  0
   52.0209  -38.1623  -12.9779 C   0  0  0  0  0  0  0  0  0  0  0  0
   52.8456  -36.8834  -12.7819 C   0  0  0  0  0  0  0  0  0  0  0  0
   53.5643  -36.4855  -14.0596 C   0  0  0  0  0  0  0  0  0  0  0  0
   54.4651  -35.4074  -13.7050 N   0  0  0  0  0  0  0  0  0  0  0  0
   49.5391  -40.7865  -14.5069 N   0  0  0  0  0  0  0  0  0  0  0  0
   48.1928  -40.6241  -14.9449 C   0  0  0  0  0  0  0  0  0  0  0  0
   47.5174  -39.4977  -14.2466 C   0  0  0  0  0  0  0  0  0  0  0  0
   47.5301  -38.2048  -14.6888 C   0  0  0  0  0  0  0  0  0  0  0  0
   46.8858  -37.2280  -13.9660 C   0  0  0  0  0  0  0  0  0  0  0  0
   46.2274  -37.5237  -12.8040 C   0  0  0  0  0  0  0  0  0  0  0  0
   45.5523  -36.4652  -12.0510 C   0  0  0  0  0  0  0  0  0  0  0  0
   46.0613  -35.2956  -11.9075 N   0  0  0  0  0  0  0  0  0  0  0  0
   44.2978  -36.7794  -11.4631 N   0  0  0  0  0  0  0  0  0  0  0  0
   46.1882  -38.8357  -12.3141 C   0  0  0  0  0  0  0  0  0  0  0  0
   46.8336  -39.7874  -13.0477 C   0  0  0  0  0  0  0  0  0  0  0  0
   56.9070  -35.9281   -6.8572 C   0  0  0  0  0  0  0  0  0  0  0  0
   58.3376  -35.5686   -7.1308 C   0  0  0  0  0  0  0  0  0  0  0  0
   58.5092  -35.1246   -8.5740 C   0  0  0  0  0  0  0  0  0  0  0  0
   59.6007  -36.0808  -10.4101 C   0  0  0  0  0  0  0  0  0  0  0  0
   59.4193  -36.9758  -11.6175 C   0  0  0  0  0  0  0  0  0  0  0  0
   58.0782  -36.3584  -13.5110 C   0  0  0  0  0  0  0  0  0  0  0  0
   56.7088  -36.5725  -14.1230 C   0  0  0  0  0  0  0  0  0  0  0  0
   55.8446  -35.3693  -14.0196 C   0  0  0  0  0  0  0  0  0  0  0  0
   57.2316  -36.1337  -11.3111 C   0  0  0  0  0  0  0  0  0  0  0  0
   57.3356  -36.7136   -9.9013 C   0  0  0  0  0  0  0  0  0  0  0  0
   58.6141  -36.3292   -9.3826 N   0  0  2  0  0  4  0  0  0  0  0  0
   58.0841  -36.9046  -12.1660 N   0  0  2  0  0  4  0  0  0  0  0  0
   56.6149  -37.1679   -6.7305 O   0  0  0  0  0  0  0  0  0  0  0  0
   56.4364  -34.2552  -14.2369 O   0  0  0  0  0  0  0  0  0  0  0  0
   53.6446  -38.2450   -1.1943 H   0  0  0  0  0  0  0  0  0  0  0  0
   46.0600  -34.0670   -3.2268 H   0  0  0  0  0  0  0  0  0  0  0  0
   45.5411  -34.4667  -11.5692 H   0  0  0  0  0  0  0  0  0  0  0  0
  2  1  1  1
  2  3  1  0
  5  2  1  0
  3  4  2  0
  3 10  1  0
  6  5  1  0
  7  6  1  0
  8  7  1  0
  9  8  1  0
 60  9  1  0
 10 11  1  0
 11 12  1  0
 11 14  1  1
 12 13  2  0
 21 12  1  0
 14 15  1  0
 15 16  1  0
 16 17  1  0
 17 18  1  0
 18 19  2  0
 18 20  1  0
 22 21  1  0
 23 22  1  0
 22 25  1  1
 23 24  2  0
 32 23  1  0
 25 26  1  0
 26 27  1  0
 27 28  1  0
 28 29  1  0
 29 30  1  0
 29 31  2  0
 33 32  1  6
 33 34  1  0
 38 33  1  0
 34 35  1  6
 34 36  1  0
 34 37  1  0
 38 39  2  0
 40 38  1  0
 41 40  1  0
 41 42  1  1
 44 41  1  0
 42 43  2  0
 42 49  1  0
 45 44  1  0
 46 45  1  0
 47 46  1  0
 48 47  1  0
 67 48  1  0
 49 50  1  0
 50 51  1  0
 51 52  2  0
 51 59  1  0
 52 53  1  0
 53 54  2  0
 54 55  1  0
 58 54  1  0
 55 56  2  0
 55 57  1  0
 59 58  2  0
 61 60  1  0
 60 72  2  0
 62 61  1  0
 70 62  1  6
 64 63  1  0
 63 70  1  0
 71 64  1  1
 65 66  1  0
 71 65  1  0
 66 67  1  0
 67 73  2  0
 68 69  1  0
 68 71  1  0
 69 70  1  0
 19 74  1  0
 31 75  1  0
 56 76  1  0
M  CHG  3   1   1  70   1  71   1
M  END
$$$$
