
     RDKit          3D

 76 78  0  0  0  0  0  0  0  0999 V2000
   52.3112  -33.9758   -2.9921 N   0  0  0  0  0  4  0  0  0  0  0  0
   53.1634  -34.5774   -3.9448 C   0  0  2  0  0  0  0  0  0  0  0  0
   52.8267  -35.9280   -4.4275 C   0  0  0  0  0  0  0  0  0  0  0  0
   53.8250  -36.4178   -5.1111 O   0  0  0  0  0  0  0  0  0  0  0  0
   54.5725  -34.5841   -3.3027 C   0  0  0  0  0  0  0  0  0  0  0  0
   55.4339  -33.4716   -3.7953 C   0  0  0  0  0  0  0  0  0  0  0  0
   55.9496  -33.6426   -5.1977 C   0  0  0  0  0  0  0  0  0  0  0  0
   57.0623  -34.6351   -5.3274 C   0  0  0  0  0  0  0  0  0  0  0  0
   56.7511  -35.7107   -6.2267 N   0  0  0  0  0  0  0  0  0  0  0  0
   51.7230  -36.7432   -4.3086 N   0  0  0  0  0  0  0  0  0  0  0  0
   50.3591  -36.6555   -4.7391 C   0  0  2  0  0  0  0  0  0  0  0  0
   49.9550  -35.4168   -5.4296 C   0  0  0  0  0  0  0  0  0  0  0  0
   50.8553  -34.5433   -5.6712 O   0  0  0  0  0  0  0  0  0  0  0  0
   49.3683  -37.2182   -3.7894 C   0  0  0  0  0  0  0  0  0  0  0  0
   49.8144  -38.0200   -2.6453 C   0  0  0  0  0  0  0  0  0  0  0  0
   51.0605  -37.5342   -1.9598 C   0  0  0  0  0  0  0  0  0  0  0  0
   51.0108  -36.0839   -1.7536 N   0  0  0  0  0  0  0  0  0  0  0  0
   51.0423  -35.5825   -0.4286 C   0  0  0  0  0  0  0  0  0  0  0  0
   51.0907  -34.3023   -0.1764 N   0  0  0  0  0  0  0  0  0  0  0  0
   51.0208  -36.5149    0.6614 N   0  0  0  0  0  0  0  0  0  0  0  0
   48.6408  -35.1027   -5.8561 N   0  0  0  0  0  0  0  0  0  0  0  0
   47.8583  -35.8388   -6.8345 C   0  0  2  0  0  0  0  0  0  0  0  0
   47.9885  -35.1562   -8.1345 C   0  0  0  0  0  0  0  0  0  0  0  0
   48.6861  -34.0692   -8.2069 O   0  0  0  0  0  0  0  0  0  0  0  0
   46.4548  -36.0548   -6.4301 C   0  0  0  0  0  0  0  0  0  0  0  0
   45.7926  -35.0991   -5.5212 C   0  0  0  0  0  0  0  0  0  0  0  0
   45.7027  -33.6843   -6.0022 C   0  0  0  0  0  0  0  0  0  0  0  0
   44.9525  -32.9017   -5.0156 N   0  0  0  0  0  0  0  0  0  0  0  0
   45.4288  -31.6149   -4.5983 C   0  0  0  0  0  0  0  0  0  0  0  0
   46.8194  -31.4649   -4.3596 N   0  0  0  0  0  0  0  0  0  0  0  0
   44.5792  -30.6553   -4.4583 N   0  0  0  0  0  0  0  0  0  0  0  0
   47.3846  -35.6237   -9.3499 N   0  0  0  0  0  0  0  0  0  0  0  0
   47.5723  -36.9886   -9.8597 C   0  0  1  0  0  0  0  0  0  0  0  0
   46.5776  -37.1931  -10.9378 C   0  0  1  0  0  0  0  0  0  0  0  0
   45.8923  -38.5406  -10.9291 C   0  0  0  0  0  0  0  0  0  0  0  0
   45.5650  -36.0621  -11.0329 C   0  0  0  0  0  0  0  0  0  0  0  0
   47.3354  -37.1143  -12.2676 C   0  0  0  0  0  0  0  0  0  0  0  0
   48.9798  -37.2535  -10.1223 C   0  0  0  0  0  0  0  0  0  0  0  0
   49.7686  -36.4895   -9.4133 O   0  0  0  0  0  0  0  0  0  0  0  0
   49.6279  -38.1548  -10.9680 N   0  0  0  0  0  0  0  0  0  0  0  0
   49.7128  -38.2250  -12.4080 C   0  0  2  0  0  0  0  0  0  0  0  0
   49.9082  -39.6470  -12.8644 C   0  0  0  0  0  0  0  0  0  0  0  0
   50.9965  -40.2167  -12.7208 O   0  0  0  0  0  0  0  0  0  0  0  0
   50.8934  -37.3926  -12.8663 C   0  0  0  0  0  0  0  0  0  0  0  0
   52.2297  -37.9338  -12.4935 C   0  0  0  0  0  0  0  0  0  0  0  0
   53.2511  -36.8140  -12.2553 C   0  0  0  0  0  0  0  0  0  0  0  0
   53.9930  -36.4590  -13.5324 C   0  0  0  0  0  0  0  0  0  0  0  0
   55.0615  -35.5585  -13.1495 N   0  0  0  0  0  0  0  0  0  0  0  0
   48.8231  -40.3093  -13.4611 N   0  0  0  0  0  0  0  0  0  0  0  0
   47.5537  -39.6873  -13.6418 C   0  0  0  0  0  0  0  0  0  0  0  0
   46.4778  -40.4055  -12.9076 C   0  0  0  0  0  0  0  0  0  0  0  0
   46.6855  -41.5145  -12.1368 C   0  0  0  0  0  0  0  0  0  0  0  0
   45.6230  -42.1179  -11.5055 C   0  0  0  0  0  0  0  0  0  0  0  0
   44.3517  -41.6294  -11.6333 C   0  0  0  0  0  0  0  0  0  0  0  0
   43.2370  -42.2920  -10.9540 C   0  0  0  0  0  0  0  0  0  0  0  0
   43.3917  -43.3728  -10.2789 N   0  0  0  0  0  0  0  0  0  0  0  0
   41.9521  -41.6986  -11.0747 N   0  0  0  0  0  0  0  0  0  0  0  0
   44.0931  -40.4945  -12.4130 C   0  0  0  0  0  0  0  0  0  0  0  0
   45.1620  -39.9128  -13.0291 C   0  0  0  0  0  0  0  0  0  0  0  0
   57.5534  -36.8593   -6.4245 C   0  0  0  0  0  0  0  0  0  0  0  0
   59.0159  -36.7132   -6.7252 C   0  0  0  0  0  0  0  0  0  0  0  0
   59.2211  -36.2172   -8.1468 C   0  0  0  0  0  0  0  0  0  0  0  0
   60.1029  -37.2226  -10.0674 C   0  0  0  0  0  0  0  0  0  0  0  0
   59.7530  -38.0052  -11.3151 C   0  0  0  0  0  0  0  0  0  0  0  0
   58.4818  -37.0742  -13.1269 C   0  0  0  0  0  0  0  0  0  0  0  0
   57.0815  -37.0343  -13.7042 C   0  0  0  0  0  0  0  0  0  0  0  0
   56.4217  -35.7187  -13.5068 C   0  0  0  0  0  0  0  0  0  0  0  0
   57.7345  -36.8499  -10.8913 C   0  0  0  0  0  0  0  0  0  0  0  0
   57.7789  -37.5211   -9.5194 C   0  0  0  0  0  0  0  0  0  0  0  0
   59.1143  -37.3734   -9.0230 N   0  0  2  0  0  4  0  0  0  0  0  0
   58.4333  -37.6932  -11.8146 N   0  0  2  0  0  4  0  0  0  0  0  0
   57.0715  -38.0433   -6.3560 O   0  0  0  0  0  0  0  0  0  0  0  0
   57.1772  -34.7004  -13.6824 O   0  0  0  0  0  0  0  0  0  0  0  0
   51.1367  -33.9811    0.8190 H   0  0  0  0  0  0  0  0  0  0  0  0
   43.5954  -30.8275   -4.7159 H   0  0  0  0  0  0  0  0  0  0  0  0
   44.3023  -43.8383  -10.1169 H   0  0  0  0  0  0  0  0  0  0  0  0
  2  1  1  1
  2  3  1  0
  5  2  1  0
  3  4  2  0
  3 10  1  0
  6  5  1  0
  7  6  1  0
  8  7  1  0
  9  8  1  0
 60  9  1  0
 10 11  1  0
 11 12  1  0
 11 14  1  1
 12 13  2  0
 21 12  1  0
 14 15  1  0
 15 16  1  0
 16 17  1  0
 17 18  1  0
 18 19  2  0
 18 20  1  0
 22 21  1  0
 23 22  1  0
 22 25  1  1
 23 24  2  0
 32 23  1  0
 25 26  1  0
 26 27  1  0
 27 28  1  0
 28 29  1  0
 29 30  1  0
 29 31  2  0
 33 32  1  6
 33 34  1  0
 38 33  1  0
 34 35  1  1
 34 36  1  0
 34 37  1  0
 38 39  2  0
 40 38  1  0
 41 40  1  0
 41 42  1  1
 44 41  1  0
 42 43  2  0
 42 49  1  0
 45 44  1  0
 46 45  1  0
 47 46  1  0
 48 47  1  0
 67 48  1  0
 49 50  1  0
 50 51  1  0
 51 52  2  0
 51 59  1  0
 52 53  1  0
 53 54  2  0
 54 55  1  0
 58 54  1  0
 55 56  2  0
 55 57  1  0
 59 58  2  0
 61 60  1  0
 60 72  2  0
 62 61  1  0
 70 62  1  1
 64 63  1  0
 63 70  1  0
 71 64  1  1
 65 66  1  0
 71 65  1  0
 66 67  1  0
 67 73  2  0
 68 69  1  0
 68 71  1  0
 69 70  1  0
 19 74  1  0
 31 75  1  0
 56 76  1  0
M  CHG  3   1   1  70   1  71   1
M  END
$$$$
