
     RDKit          3D

 76 78  0  0  0  0  0  0  0  0999 V2000
   56.8600  -32.9450   -3.3603 N   0  0  0  0  0  4  0  0  0  0  0  0
   57.0082  -33.5184   -4.6428 C   0  0  2  0  0  0  0  0  0  0  0  0
   56.4267  -34.8505   -4.8829 C   0  0  0  0  0  0  0  0  0  0  0  0
   56.8502  -35.3218   -6.0241 O   0  0  0  0  0  0  0  0  0  0  0  0
   58.5325  -33.5531   -4.9138 C   0  0  0  0  0  0  0  0  0  0  0  0
   58.9881  -32.4287   -5.7802 C   0  0  0  0  0  0  0  0  0  0  0  0
   58.6141  -32.5551   -7.2313 C   0  0  0  0  0  0  0  0  0  0  0  0
   59.4344  -33.5479   -7.9940 C   0  0  0  0  0  0  0  0  0  0  0  0
   58.6439  -34.5914   -8.5845 N   0  0  0  0  0  0  0  0  0  0  0  0
   55.5666  -35.6642   -4.1793 N   0  0  0  0  0  0  0  0  0  0  0  0
   54.2012  -35.5558   -3.7579 C   0  0  2  0  0  0  0  0  0  0  0  0
   53.5053  -34.2928   -4.0663 C   0  0  0  0  0  0  0  0  0  0  0  0
   54.1297  -33.4160   -4.7541 O   0  0  0  0  0  0  0  0  0  0  0  0
   53.9107  -36.1453   -2.4281 C   0  0  0  0  0  0  0  0  0  0  0  0
   52.5295  -36.2263   -1.9418 C   0  0  0  0  0  0  0  0  0  0  0  0
   52.1155  -37.5595   -1.3849 C   0  0  0  0  0  0  0  0  0  0  0  0
   50.6968  -37.5531   -1.0166 N   0  0  0  0  0  0  0  0  0  0  0  0
   50.1665  -38.6724   -0.3281 C   0  0  0  0  0  0  0  0  0  0  0  0
   49.1081  -38.5775    0.4308 N   0  0  0  0  0  0  0  0  0  0  0  0
   50.8173  -39.9424   -0.4737 N   0  0  0  0  0  0  0  0  0  0  0  0
   52.1884  -33.9586   -3.6641 N   0  0  0  0  0  0  0  0  0  0  0  0
   50.9727  -34.6580   -4.0441 C   0  0  2  0  0  0  0  0  0  0  0  0
   50.3586  -33.9329   -5.1711 C   0  0  0  0  0  0  0  0  0  0  0  0
   50.9169  -32.8473   -5.5993 O   0  0  0  0  0  0  0  0  0  0  0  0
   50.0410  -34.8809   -2.9204 C   0  0  0  0  0  0  0  0  0  0  0  0
   50.1070  -34.0190   -1.7243 C   0  0  0  0  0  0  0  0  0  0  0  0
   50.9671  -32.7988   -1.8362 C   0  0  0  0  0  0  0  0  0  0  0  0
   51.3078  -32.3414   -0.4860 N   0  0  0  0  0  0  0  0  0  0  0  0
   52.1091  -31.1665   -0.3001 C   0  0  0  0  0  0  0  0  0  0  0  0
   52.6198  -30.5193   -1.4549 N   0  0  0  0  0  0  0  0  0  0  0  0
   52.3304  -30.7510    0.9002 N   0  0  0  0  0  0  0  0  0  0  0  0
   49.1618  -34.3568   -5.8407 N   0  0  0  0  0  0  0  0  0  0  0  0
   48.9964  -35.7047   -6.4008 C   0  0  1  0  0  0  0  0  0  0  0  0
   47.5615  -35.8685   -6.7292 C   0  0  1  0  0  0  0  0  0  0  0  0
   46.8288  -34.5864   -7.0530 C   0  0  0  0  0  0  0  0  0  0  0  0
   47.3134  -36.9271   -7.7927 C   0  0  0  0  0  0  0  0  0  0  0  0
   46.8788  -36.4404   -5.4819 C   0  0  0  0  0  0  0  0  0  0  0  0
   50.0007  -35.9673   -7.4219 C   0  0  0  0  0  0  0  0  0  0  0  0
   51.0695  -35.2310   -7.2667 O   0  0  0  0  0  0  0  0  0  0  0  0
   50.0346  -36.8427   -8.5081 N   0  0  0  0  0  0  0  0  0  0  0  0
   49.2868  -36.8652   -9.7435 C   0  0  2  0  0  0  0  0  0  0  0  0
   49.1567  -38.2720  -10.2653 C   0  0  0  0  0  0  0  0  0  0  0  0
   50.1185  -38.8473  -10.7884 O   0  0  0  0  0  0  0  0  0  0  0  0
   50.0183  -36.0234  -10.7697 C   0  0  0  0  0  0  0  0  0  0  0  0
   51.3178  -36.5830  -11.2342 C   0  0  0  0  0  0  0  0  0  0  0  0
   52.3195  -35.4765  -11.5895 C   0  0  0  0  0  0  0  0  0  0  0  0
   52.2147  -35.0825  -13.0528 C   0  0  0  0  0  0  0  0  0  0  0  0
   53.3323  -34.2001  -13.3213 N   0  0  0  0  0  0  0  0  0  0  0  0
   47.9131  -38.9135  -10.1462 N   0  0  0  0  0  0  0  0  0  0  0  0
   46.6861  -38.2700  -10.4799 C   0  0  0  0  0  0  0  0  0  0  0  0
   45.6500  -38.4812   -9.4339 C   0  0  0  0  0  0  0  0  0  0  0  0
   44.6135  -37.6224   -9.1983 C   0  0  0  0  0  0  0  0  0  0  0  0
   43.7106  -37.8976   -8.1979 C   0  0  0  0  0  0  0  0  0  0  0  0
   43.8279  -39.0208   -7.4262 C   0  0  0  0  0  0  0  0  0  0  0  0
   42.8558  -39.2893   -6.3651 C   0  0  0  0  0  0  0  0  0  0  0  0
   41.8609  -38.5115   -6.1351 N   0  0  0  0  0  0  0  0  0  0  0  0
   43.0552  -40.4527   -5.5747 N   0  0  0  0  0  0  0  0  0  0  0  0
   44.8745  -39.9290   -7.6333 C   0  0  0  0  0  0  0  0  0  0  0  0
   45.7572  -39.6356   -8.6308 C   0  0  0  0  0  0  0  0  0  0  0  0
   59.1663  -35.7365   -9.2310 C   0  0  0  0  0  0  0  0  0  0  0  0
   60.2037  -35.5872  -10.3044 C   0  0  0  0  0  0  0  0  0  0  0  0
   59.5783  -35.0449  -11.5788 C   0  0  0  0  0  0  0  0  0  0  0  0
   59.1931  -35.9897  -13.6850 C   0  0  0  0  0  0  0  0  0  0  0  0
   58.1800  -36.7285  -14.5331 C   0  0  0  0  0  0  0  0  0  0  0  0
   56.1274  -35.7316  -15.2804 C   0  0  0  0  0  0  0  0  0  0  0  0
   54.6479  -35.6660  -14.9603 C   0  0  0  0  0  0  0  0  0  0  0  0
   54.2463  -34.3546  -14.3909 C   0  0  0  0  0  0  0  0  0  0  0  0
   56.7841  -35.5786  -13.0106 C   0  0  0  0  0  0  0  0  0  0  0  0
   57.5830  -36.2955  -11.9231 C   0  0  0  0  0  0  0  0  0  0  0  0
   58.9674  -36.1706  -12.2682 N   0  0  2  0  0  4  0  0  0  0  0  0
   56.8171  -36.3938  -14.1880 N   0  0  2  0  0  4  0  0  0  0  0  0
   58.7813  -36.9198   -8.9308 O   0  0  0  0  0  0  0  0  0  0  0  0
   54.7922  -33.3345  -14.9386 O   0  0  0  0  0  0  0  0  0  0  0  0
   48.4725  -37.7535    0.3167 H   0  0  0  0  0  0  0  0  0  0  0  0
   52.8141  -31.3814    1.5580 H   0  0  0  0  0  0  0  0  0  0  0  0
   41.7489  -37.9393   -5.2794 H   0  0  0  0  0  0  0  0  0  0  0  0
  2  1  1  1
  2  3  1  0
  5  2  1  0
  3  4  2  0
  3 10  1  0
  6  5  1  0
  7  6  1  0
  8  7  1  0
  9  8  1  0
 60  9  1  0
 10 11  1  0
 11 12  1  0
 11 14  1  1
 12 13  2  0
 21 12  1  0
 14 15  1  0
 15 16  1  0
 16 17  1  0
 17 18  1  0
 18 19  2  0
 18 20  1  0
 22 21  1  0
 23 22  1  0
 22 25  1  1
 23 24  2  0
 32 23  1  0
 25 26  1  0
 26 27  1  0
 27 28  1  0
 28 29  1  0
 29 30  1  0
 29 31  2  0
 33 32  1  6
 33 34  1  0
 38 33  1  0
 34 35  1  6
 34 36  1  0
 34 37  1  0
 38 39  2  0
 40 38  1  0
 41 40  1  0
 41 42  1  6
 44 41  1  0
 42 43  2  0
 42 49  1  0
 45 44  1  0
 46 45  1  0
 47 46  1  0
 48 47  1  0
 67 48  1  0
 49 50  1  0
 50 51  1  0
 51 52  2  0
 51 59  1  0
 52 53  1  0
 53 54  2  0
 54 55  1  0
 58 54  1  0
 55 56  2  0
 55 57  1  0
 59 58  2  0
 61 60  1  0
 60 72  2  0
 62 61  1  0
 70 62  1  1
 64 63  1  0
 63 70  1  0
 71 64  1  6
 65 66  1  0
 71 65  1  0
 66 67  1  0
 67 73  2  0
 68 69  1  0
 68 71  1  0
 69 70  1  0
 19 74  1  0
 31 75  1  0
 56 76  1  0
M  CHG  3   1   1  70   1  71   1
M  END
$$$$
