
     RDKit          3D

 76 78  0  0  0  0  0  0  0  0999 V2000
   53.7564  -31.0468   -5.5432 N   0  0  0  0  0  4  0  0  0  0  0  0
   54.3179  -32.3421   -5.4916 C   0  0  2  0  0  0  0  0  0  0  0  0
   53.5143  -33.4278   -4.9035 C   0  0  0  0  0  0  0  0  0  0  0  0
   54.2584  -34.4852   -4.7243 O   0  0  0  0  0  0  0  0  0  0  0  0
   55.6489  -32.1922   -4.7143 C   0  0  0  0  0  0  0  0  0  0  0  0
   56.8357  -32.1260   -5.6141 C   0  0  0  0  0  0  0  0  0  0  0  0
   57.2237  -33.4331   -6.2485 C   0  0  0  0  0  0  0  0  0  0  0  0
   57.9105  -34.3870   -5.3219 C   0  0  0  0  0  0  0  0  0  0  0  0
   57.2178  -35.6382   -5.1922 N   0  0  0  0  0  0  0  0  0  0  0  0
   52.1970  -33.5486   -4.5202 N   0  0  0  0  0  0  0  0  0  0  0  0
   50.9420  -33.4987   -5.2101 C   0  0  2  0  0  0  0  0  0  0  0  0
   50.9852  -33.2042   -6.6544 C   0  0  0  0  0  0  0  0  0  0  0  0
   52.1299  -33.0945   -7.2106 O   0  0  0  0  0  0  0  0  0  0  0  0
   49.8395  -32.8573   -4.4528 C   0  0  0  0  0  0  0  0  0  0  0  0
   50.0811  -32.3188   -3.1103 C   0  0  0  0  0  0  0  0  0  0  0  0
   50.8737  -33.2039   -2.1898 C   0  0  0  0  0  0  0  0  0  0  0  0
   52.1714  -32.5998   -1.8745 N   0  0  0  0  0  0  0  0  0  0  0  0
   52.4555  -32.2591   -0.5287 C   0  0  0  0  0  0  0  0  0  0  0  0
   53.5113  -31.5642   -0.2011 N   0  0  0  0  0  0  0  0  0  0  0  0
   51.5526  -32.6946    0.4975 N   0  0  0  0  0  0  0  0  0  0  0  0
   49.8568  -33.0299   -7.4935 N   0  0  0  0  0  0  0  0  0  0  0  0
   48.8413  -34.0283   -7.7827 C   0  0  2  0  0  0  0  0  0  0  0  0
   49.1729  -34.6607   -9.0723 C   0  0  0  0  0  0  0  0  0  0  0  0
   50.2076  -34.2456   -9.7285 O   0  0  0  0  0  0  0  0  0  0  0  0
   47.4622  -33.5035   -7.7309 C   0  0  0  0  0  0  0  0  0  0  0  0
   46.9464  -32.6719   -8.8357 C   0  0  0  0  0  0  0  0  0  0  0  0
   46.6754  -33.3818  -10.1256 C   0  0  0  0  0  0  0  0  0  0  0  0
   47.4804  -32.7588  -11.1803 N   0  0  0  0  0  0  0  0  0  0  0  0
   47.7695  -31.3547  -11.1365 C   0  0  0  0  0  0  0  0  0  0  0  0
   49.1085  -30.9581  -10.8851 N   0  0  0  0  0  0  0  0  0  0  0  0
   46.8073  -30.5178  -11.3260 N   0  0  0  0  0  0  0  0  0  0  0  0
   48.4137  -35.7270   -9.6614 N   0  0  0  0  0  0  0  0  0  0  0  0
   48.0947  -36.9690   -8.9447 C   0  0  1  0  0  0  0  0  0  0  0  0
   47.0662  -37.6799   -9.7386 C   0  0  1  0  0  0  0  0  0  0  0  0
   46.8110  -39.1102   -9.3211 C   0  0  0  0  0  0  0  0  0  0  0  0
   45.7650  -36.9012   -9.8567 C   0  0  0  0  0  0  0  0  0  0  0  0
   47.5808  -37.7473  -11.1807 C   0  0  0  0  0  0  0  0  0  0  0  0
   49.3111  -37.6684   -8.5555 C   0  0  0  0  0  0  0  0  0  0  0  0
   50.3358  -36.8630   -8.4564 O   0  0  0  0  0  0  0  0  0  0  0  0
   49.5784  -39.0081   -8.2707 N   0  0  0  0  0  0  0  0  0  0  0  0
   49.5983  -40.1807   -9.1136 C   0  0  2  0  0  0  0  0  0  0  0  0
   49.2676  -41.4170   -8.3194 C   0  0  0  0  0  0  0  0  0  0  0  0
   49.5926  -41.5141   -7.1300 O   0  0  0  0  0  0  0  0  0  0  0  0
   50.9854  -40.3302   -9.7055 C   0  0  0  0  0  0  0  0  0  0  0  0
   52.0529  -40.6850   -8.7296 C   0  0  0  0  0  0  0  0  0  0  0  0
   53.4095  -40.0895   -9.1285 C   0  0  0  0  0  0  0  0  0  0  0  0
   54.1979  -41.0453  -10.0073 C   0  0  0  0  0  0  0  0  0  0  0  0
   55.5246  -40.4787  -10.1426 N   0  0  0  0  0  0  0  0  0  0  0  0
   48.5834  -42.4595   -8.9653 N   0  0  0  0  0  0  0  0  0  0  0  0
   47.6808  -42.2286  -10.0436 C   0  0  0  0  0  0  0  0  0  0  0  0
   46.2647  -42.4093   -9.6262 C   0  0  0  0  0  0  0  0  0  0  0  0
   45.8543  -43.3022   -8.6766 C   0  0  0  0  0  0  0  0  0  0  0  0
   44.5182  -43.4061   -8.3669 C   0  0  0  0  0  0  0  0  0  0  0  0
   43.5826  -42.6297   -8.9937 C   0  0  0  0  0  0  0  0  0  0  0  0
   42.1661  -42.7618   -8.6486 C   0  0  0  0  0  0  0  0  0  0  0  0
   41.7601  -43.5317   -7.7051 N   0  0  0  0  0  0  0  0  0  0  0  0
   41.2345  -42.0068   -9.4101 N   0  0  0  0  0  0  0  0  0  0  0  0
   43.9587  -41.7007   -9.9727 C   0  0  0  0  0  0  0  0  0  0  0  0
   45.2887  -41.6150  -10.2629 C   0  0  0  0  0  0  0  0  0  0  0  0
   57.5575  -36.6613   -4.2756 C   0  0  0  0  0  0  0  0  0  0  0  0
   58.9696  -37.1614   -4.1953 C   0  0  0  0  0  0  0  0  0  0  0  0
   59.3025  -38.0156   -5.4072 C   0  0  0  0  0  0  0  0  0  0  0  0
   59.7257  -40.3023   -5.6699 C   0  0  0  0  0  0  0  0  0  0  0  0
   59.0919  -41.6405   -5.9849 C   0  0  0  0  0  0  0  0  0  0  0  0
   58.1884  -42.1820   -8.1426 C   0  0  0  0  0  0  0  0  0  0  0  0
   56.8789  -42.2645   -8.9005 C   0  0  0  0  0  0  0  0  0  0  0  0
   56.7314  -41.1781   -9.9020 C   0  0  0  0  0  0  0  0  0  0  0  0
   57.6226  -40.1447   -7.0768 C   0  0  0  0  0  0  0  0  0  0  0  0
   57.4601  -39.4924   -5.7046 C   0  0  0  0  0  0  0  0  0  0  0  0
   58.7730  -39.3461   -5.1514 N   0  0  2  0  0  4  0  0  0  0  0  0
   57.9559  -41.5224   -6.8704 N   0  0  2  0  0  4  0  0  0  0  0  0
   56.6902  -37.1886   -3.4956 O   0  0  0  0  0  0  0  0  0  0  0  0
   57.7935  -40.8972  -10.5590 O   0  0  0  0  0  0  0  0  0  0  0  0
   53.7263  -31.4124    0.8122 H   0  0  0  0  0  0  0  0  0  0  0  0
   46.1964  -30.2815  -10.5292 H   0  0  0  0  0  0  0  0  0  0  0  0
   42.0363  -44.5238   -7.5974 H   0  0  0  0  0  0  0  0  0  0  0  0
  2  1  1  1
  2  3  1  0
  5  2  1  0
  3  4  2  0
  3 10  1  0
  6  5  1  0
  7  6  1  0
  8  7  1  0
  9  8  1  0
 60  9  1  0
 10 11  1  0
 11 12  1  0
 11 14  1  1
 12 13  2  0
 21 12  1  0
 14 15  1  0
 15 16  1  0
 16 17  1  0
 17 18  1  0
 18 19  2  0
 18 20  1  0
 22 21  1  0
 23 22  1  0
 22 25  1  6
 23 24  2  0
 32 23  1  0
 25 26  1  0
 26 27  1  0
 27 28  1  0
 28 29  1  0
 29 30  1  0
 29 31  2  0
 33 32  1  6
 33 34  1  0
 38 33  1  0
 34 35  1  1
 34 36  1  0
 34 37  1  0
 38 39  2  0
 40 38  1  0
 41 40  1  0
 41 42  1  1
 44 41  1  0
 42 43  2  0
 42 49  1  0
 45 44  1  0
 46 45  1  0
 47 46  1  0
 48 47  1  0
 67 48  1  0
 49 50  1  0
 50 51  1  0
 51 52  2  0
 51 59  1  0
 52 53  1  0
 53 54  2  0
 54 55  1  0
 58 54  1  0
 55 56  2  0
 55 57  1  0
 59 58  2  0
 61 60  1  0
 60 72  2  0
 62 61  1  0
 70 62  1  6
 64 63  1  0
 63 70  1  0
 71 64  1  1
 65 66  1  0
 71 65  1  0
 66 67  1  0
 67 73  2  0
 68 69  1  0
 68 71  1  0
 69 70  1  0
 19 74  1  0
 31 75  1  0
 56 76  1  0
M  CHG  3   1   1  70   1  71   1
M  END
$$$$
