
     RDKit          3D

 76 78  0  0  0  0  0  0  0  0999 V2000
   55.0650  -41.4763  -11.6824 N   0  0  0  0  0  4  0  0  0  0  0  0
   55.0774  -40.3821  -10.7889 C   0  0  2  0  0  0  0  0  0  0  0  0
   54.4425  -39.1239  -11.2180 C   0  0  0  0  0  0  0  0  0  0  0  0
   54.7447  -38.1661  -10.3842 O   0  0  0  0  0  0  0  0  0  0  0  0
   56.5681  -40.1313  -10.4527 C   0  0  0  0  0  0  0  0  0  0  0  0
   56.9684  -40.7181   -9.1421 C   0  0  0  0  0  0  0  0  0  0  0  0
   56.4565  -39.9813   -7.9351 C   0  0  0  0  0  0  0  0  0  0  0  0
   57.1761  -38.7015   -7.6444 C   0  0  0  0  0  0  0  0  0  0  0  0
   56.3075  -37.5579   -7.6467 N   0  0  0  0  0  0  0  0  0  0  0  0
   53.6320  -38.7679  -12.2732 N   0  0  0  0  0  0  0  0  0  0  0  0
   52.3156  -39.1413  -12.6984 C   0  0  2  0  0  0  0  0  0  0  0  0
   51.6258  -40.1757  -11.9054 C   0  0  0  0  0  0  0  0  0  0  0  0
   52.2047  -40.6104  -10.8529 O   0  0  0  0  0  0  0  0  0  0  0  0
   52.1367  -39.2282  -14.1684 C   0  0  0  0  0  0  0  0  0  0  0  0
   53.2964  -39.4301  -15.0430 C   0  0  0  0  0  0  0  0  0  0  0  0
   54.6350  -39.4081  -14.3600 C   0  0  0  0  0  0  0  0  0  0  0  0
   54.8310  -40.6188  -13.5573 N   0  0  0  0  0  0  0  0  0  0  0  0
   56.0505  -40.7800  -12.8539 C   0  0  0  0  0  0  0  0  0  0  0  0
   56.0820  -40.9715  -11.5627 N   0  0  0  0  0  0  0  0  0  0  0  0
   57.2815  -40.7294  -13.5887 N   0  0  0  0  0  0  0  0  0  0  0  0
   50.3614  -40.7389  -12.2083 N   0  0  0  0  0  0  0  0  0  0  0  0
   49.0981  -40.0239  -12.2738 C   0  0  2  0  0  0  0  0  0  0  0  0
   48.3993  -40.2073  -10.9889 C   0  0  0  0  0  0  0  0  0  0  0  0
   48.9420  -40.9485  -10.0781 O   0  0  0  0  0  0  0  0  0  0  0  0
   48.2710  -40.3873  -13.4417 C   0  0  0  0  0  0  0  0  0  0  0  0
   47.5152  -41.6549  -13.4457 C   0  0  0  0  0  0  0  0  0  0  0  0
   47.9250  -42.6713  -12.4258 C   0  0  0  0  0  0  0  0  0  0  0  0
   46.8303  -42.8378  -11.4654 N   0  0  0  0  0  0  0  0  0  0  0  0
   47.0630  -43.4856  -10.2072 C   0  0  0  0  0  0  0  0  0  0  0  0
   48.2725  -43.1975   -9.5236 N   0  0  0  0  0  0  0  0  0  0  0  0
   46.1697  -44.2971   -9.7535 N   0  0  0  0  0  0  0  0  0  0  0  0
   47.1344  -39.6076  -10.6711 N   0  0  0  0  0  0  0  0  0  0  0  0
   46.8832  -38.1652  -10.7923 C   0  0  1  0  0  0  0  0  0  0  0  0
   45.4201  -37.9655  -10.6782 C   0  0  1  0  0  0  0  0  0  0  0  0
   44.8571  -36.8547  -11.5353 C   0  0  0  0  0  0  0  0  0  0  0  0
   44.6299  -39.2526  -10.8577 C   0  0  0  0  0  0  0  0  0  0  0  0
   45.1345  -37.5639   -9.2270 C   0  0  0  0  0  0  0  0  0  0  0  0
   47.7800  -37.4098   -9.9292 C   0  0  0  0  0  0  0  0  0  0  0  0
   48.8769  -38.0668   -9.6577 O   0  0  0  0  0  0  0  0  0  0  0  0
   47.6896  -36.1412   -9.3548 N   0  0  0  0  0  0  0  0  0  0  0  0
   46.8286  -35.6178   -8.3201 C   0  0  2  0  0  0  0  0  0  0  0  0
   46.6145  -34.1377   -8.4993 C   0  0  0  0  0  0  0  0  0  0  0  0
   47.4096  -33.4556   -9.1568 O   0  0  0  0  0  0  0  0  0  0  0  0
   47.4812  -35.8631   -6.9746 C   0  0  0  0  0  0  0  0  0  0  0  0
   48.7168  -35.0720   -6.7190 C   0  0  0  0  0  0  0  0  0  0  0  0
   49.7082  -35.8357   -5.8314 C   0  0  0  0  0  0  0  0  0  0  0  0
   49.4763  -35.5404   -4.3595 C   0  0  0  0  0  0  0  0  0  0  0  0
   50.5855  -36.1354   -3.6418 N   0  0  0  0  0  0  0  0  0  0  0  0
   45.4900  -33.5503   -7.8970 N   0  0  0  0  0  0  0  0  0  0  0  0
   44.5586  -34.3007   -7.1223 C   0  0  0  0  0  0  0  0  0  0  0  0
   44.8546  -34.2137   -5.6672 C   0  0  0  0  0  0  0  0  0  0  0  0
   44.2258  -34.9614   -4.7118 C   0  0  0  0  0  0  0  0  0  0  0  0
   44.5599  -34.8008   -3.3874 C   0  0  0  0  0  0  0  0  0  0  0  0
   45.5153  -33.9013   -3.0012 C   0  0  0  0  0  0  0  0  0  0  0  0
   45.8504  -33.7465   -1.5845 C   0  0  0  0  0  0  0  0  0  0  0  0
   46.0645  -32.5978   -1.0531 N   0  0  0  0  0  0  0  0  0  0  0  0
   45.9440  -34.9283   -0.8019 N   0  0  0  0  0  0  0  0  0  0  0  0
   46.1858  -33.1146   -3.9469 C   0  0  0  0  0  0  0  0  0  0  0  0
   45.8382  -33.2913   -5.2539 C   0  0  0  0  0  0  0  0  0  0  0  0
   56.7378  -36.2134   -7.5495 C   0  0  0  0  0  0  0  0  0  0  0  0
   57.6731  -35.7999   -6.4519 C   0  0  0  0  0  0  0  0  0  0  0  0
   56.9444  -35.7551   -5.1191 C   0  0  0  0  0  0  0  0  0  0  0  0
   56.3392  -33.9962   -3.6989 C   0  0  0  0  0  0  0  0  0  0  0  0
   55.2325  -33.0237   -3.3509 C   0  0  0  0  0  0  0  0  0  0  0  0
   53.1445  -33.7125   -2.3859 C   0  0  0  0  0  0  0  0  0  0  0  0
   51.7038  -34.0099   -2.7486 C   0  0  0  0  0  0  0  0  0  0  0  0
   51.3907  -35.4605   -2.6934 C   0  0  0  0  0  0  0  0  0  0  0  0
   54.0154  -34.8203   -4.2887 C   0  0  0  0  0  0  0  0  0  0  0  0
   54.8947  -34.6146   -5.5213 C   0  0  0  0  0  0  0  0  0  0  0  0
   56.2432  -34.4822   -5.0574 N   0  0  2  0  0  4  0  0  0  0  0  0
   53.9170  -33.5648   -3.6061 N   0  0  2  0  0  4  0  0  0  0  0  0
   56.3530  -35.3165   -8.3780 O   0  0  0  0  0  0  0  0  0  0  0  0
   51.9082  -36.0907   -1.7067 O   0  0  0  0  0  0  0  0  0  0  0  0
   55.2335  -41.3552  -11.0843 H   0  0  0  0  0  0  0  0  0  0  0  0
   46.4761  -45.0888   -9.1676 H   0  0  0  0  0  0  0  0  0  0  0  0
   46.4675  -31.7857   -1.5533 H   0  0  0  0  0  0  0  0  0  0  0  0
  2  1  1  6
  2  3  1  0
  5  2  1  0
  3  4  2  0
  3 10  1  0
  6  5  1  0
  7  6  1  0
  8  7  1  0
  9  8  1  0
 60  9  1  0
 10 11  1  0
 11 12  1  0
 11 14  1  6
 12 13  2  0
 21 12  1  0
 14 15  1  0
 15 16  1  0
 16 17  1  0
 17 18  1  0
 18 19  2  0
 18 20  1  0
 22 21  1  0
 23 22  1  0
 22 25  1  6
 23 24  2  0
 32 23  1  0
 25 26  1  0
 26 27  1  0
 27 28  1  0
 28 29  1  0
 29 30  1  0
 29 31  2  0
 33 32  1  1
 33 34  1  0
 38 33  1  0
 34 35  1  6
 34 36  1  0
 34 37  1  0
 38 39  2  0
 40 38  1  0
 41 40  1  0
 41 42  1  6
 44 41  1  0
 42 43  2  0
 42 49  1  0
 45 44  1  0
 46 45  1  0
 47 46  1  0
 48 47  1  0
 67 48  1  0
 49 50  1  0
 50 51  1  0
 51 52  2  0
 51 59  1  0
 52 53  1  0
 53 54  2  0
 54 55  1  0
 58 54  1  0
 55 56  2  0
 55 57  1  0
 59 58  2  0
 61 60  1  0
 60 72  2  0
 62 61  1  0
 70 62  1  1
 64 63  1  0
 63 70  1  0
 71 64  1  1
 65 66  1  0
 71 65  1  0
 66 67  1  0
 67 73  2  0
 68 69  1  0
 68 71  1  0
 69 70  1  0
 19 74  1  0
 31 75  1  0
 56 76  1  0
M  CHG  3   1   1  70   1  71   1
M  END
$$$$
