
     RDKit          3D

 76 78  0  0  0  0  0  0  0  0999 V2000
   52.1007  -35.1333   -2.4021 N   0  0  0  0  0  4  0  0  0  0  0  0
   52.8678  -35.3759   -3.5633 C   0  0  2  0  0  0  0  0  0  0  0  0
   52.6726  -36.6513   -4.2744 C   0  0  0  0  0  0  0  0  0  0  0  0
   53.6088  -36.8089   -5.1703 O   0  0  0  0  0  0  0  0  0  0  0  0
   54.3469  -35.2384   -3.1259 C   0  0  0  0  0  0  0  0  0  0  0  0
   54.9295  -33.9121   -3.4780 C   0  0  0  0  0  0  0  0  0  0  0  0
   55.2270  -33.7184   -4.9393 C   0  0  0  0  0  0  0  0  0  0  0  0
   56.4451  -34.4429   -5.4207 C   0  0  0  0  0  0  0  0  0  0  0  0
   56.1626  -35.3705   -6.4800 N   0  0  0  0  0  0  0  0  0  0  0  0
   51.7457  -37.6664   -4.1895 N   0  0  0  0  0  0  0  0  0  0  0  0
   50.3328  -37.7569   -4.4108 C   0  0  2  0  0  0  0  0  0  0  0  0
   49.6308  -36.5090   -4.7634 C   0  0  0  0  0  0  0  0  0  0  0  0
   50.3302  -35.4529   -4.9284 O   0  0  0  0  0  0  0  0  0  0  0  0
   49.6133  -38.6625   -3.4821 C   0  0  0  0  0  0  0  0  0  0  0  0
   49.8262  -38.5575   -2.0349 C   0  0  0  0  0  0  0  0  0  0  0  0
   50.1353  -37.1785   -1.5235 C   0  0  0  0  0  0  0  0  0  0  0  0
   50.8041  -37.2430   -0.2208 N   0  0  0  0  0  0  0  0  0  0  0  0
   50.9416  -36.0518    0.5343 C   0  0  0  0  0  0  0  0  0  0  0  0
   51.5029  -36.0433    1.7132 N   0  0  0  0  0  0  0  0  0  0  0  0
   50.4467  -34.8244   -0.0191 N   0  0  0  0  0  0  0  0  0  0  0  0
   48.2314  -36.3726   -4.9390 N   0  0  0  0  0  0  0  0  0  0  0  0
   47.4237  -37.0463   -5.9416 C   0  0  2  0  0  0  0  0  0  0  0  0
   47.2286  -36.1208   -7.0722 C   0  0  0  0  0  0  0  0  0  0  0  0
   47.7251  -34.9283   -7.0016 O   0  0  0  0  0  0  0  0  0  0  0  0
   46.1578  -37.5931   -5.4138 C   0  0  0  0  0  0  0  0  0  0  0  0
   45.5051  -36.9562   -4.2535 C   0  0  0  0  0  0  0  0  0  0  0  0
   44.9347  -37.8832   -3.2255 C   0  0  0  0  0  0  0  0  0  0  0  0
   44.4520  -37.0864   -2.0939 N   0  0  0  0  0  0  0  0  0  0  0  0
   45.0611  -37.2199   -0.8022 C   0  0  0  0  0  0  0  0  0  0  0  0
   45.1702  -36.0585    0.0057 N   0  0  0  0  0  0  0  0  0  0  0  0
   45.4810  -38.3813   -0.4323 N   0  0  0  0  0  0  0  0  0  0  0  0
   46.5135  -36.4577   -8.2704 N   0  0  0  0  0  0  0  0  0  0  0  0
   46.8267  -37.6436   -9.0789 C   0  0  1  0  0  0  0  0  0  0  0  0
   45.7123  -37.8258  -10.0373 C   0  0  1  0  0  0  0  0  0  0  0  0
   45.7057  -39.1498  -10.7670 C   0  0  0  0  0  0  0  0  0  0  0  0
   44.3510  -37.5272   -9.4280 C   0  0  0  0  0  0  0  0  0  0  0  0
   45.8701  -36.7501  -11.1176 C   0  0  0  0  0  0  0  0  0  0  0  0
   48.1954  -37.5864   -9.5722 C   0  0  0  0  0  0  0  0  0  0  0  0
   48.9604  -36.8343   -8.8255 O   0  0  0  0  0  0  0  0  0  0  0  0
   48.8285  -38.1762  -10.6672 N   0  0  0  0  0  0  0  0  0  0  0  0
   48.6846  -37.9590  -12.0877 C   0  0  2  0  0  0  0  0  0  0  0  0
   49.0230  -39.2085  -12.8576 C   0  0  0  0  0  0  0  0  0  0  0  0
   50.1677  -39.6764  -12.8383 O   0  0  0  0  0  0  0  0  0  0  0  0
   49.6276  -36.8495  -12.5077 C   0  0  0  0  0  0  0  0  0  0  0  0
   51.0753  -37.1908  -12.4353 C   0  0  0  0  0  0  0  0  0  0  0  0
   51.9332  -35.9640  -12.0988 C   0  0  0  0  0  0  0  0  0  0  0  0
   52.3890  -35.2442  -13.3564 C   0  0  0  0  0  0  0  0  0  0  0  0
   53.3511  -34.2470  -12.9326 N   0  0  0  0  0  0  0  0  0  0  0  0
   48.0056  -39.8275  -13.6019 N   0  0  0  0  0  0  0  0  0  0  0  0
   47.4350  -39.2284  -14.7622 C   0  0  0  0  0  0  0  0  0  0  0  0
   48.2030  -38.0322  -15.2000 C   0  0  0  0  0  0  0  0  0  0  0  0
   49.5318  -37.8401  -14.9457 C   0  0  0  0  0  0  0  0  0  0  0  0
   50.1531  -36.6930  -15.3813 C   0  0  0  0  0  0  0  0  0  0  0  0
   49.4650  -35.7312  -16.0688 C   0  0  0  0  0  0  0  0  0  0  0  0
   50.1485  -34.5173  -16.5185 C   0  0  0  0  0  0  0  0  0  0  0  0
   49.5902  -33.6674  -17.3019 N   0  0  0  0  0  0  0  0  0  0  0  0
   51.4776  -34.3082  -16.0626 N   0  0  0  0  0  0  0  0  0  0  0  0
   48.1018  -35.8870  -16.3521 C   0  0  0  0  0  0  0  0  0  0  0  0
   47.5071  -37.0324  -15.9107 C   0  0  0  0  0  0  0  0  0  0  0  0
   57.0917  -36.2910   -7.0202 C   0  0  0  0  0  0  0  0  0  0  0  0
   58.4431  -35.8200   -7.4701 C   0  0  0  0  0  0  0  0  0  0  0  0
   58.3304  -35.0376   -8.7680 C   0  0  0  0  0  0  0  0  0  0  0  0
   59.0300  -35.4833  -10.9563 C   0  0  0  0  0  0  0  0  0  0  0  0
   58.6064  -36.0704  -12.2858 C   0  0  0  0  0  0  0  0  0  0  0  0
   56.9233  -35.0723  -13.6772 C   0  0  0  0  0  0  0  0  0  0  0  0
   55.4583  -35.1883  -14.0460 C   0  0  0  0  0  0  0  0  0  0  0  0
   54.6416  -34.0800  -13.4893 C   0  0  0  0  0  0  0  0  0  0  0  0
   56.5294  -35.4136  -11.3675 C   0  0  0  0  0  0  0  0  0  0  0  0
   56.9045  -36.3088  -10.1875 C   0  0  0  0  0  0  0  0  0  0  0  0
   58.2635  -36.0089   -9.8486 N   0  0  2  0  0  4  0  0  0  0  0  0
   57.1899  -35.9234  -12.5318 N   0  0  2  0  0  4  0  0  0  0  0  0
   56.8198  -37.5358   -7.1432 O   0  0  0  0  0  0  0  0  0  0  0  0
   55.1883  -32.9237  -13.5407 O   0  0  0  0  0  0  0  0  0  0  0  0
   51.6678  -36.9528    2.2048 H   0  0  0  0  0  0  0  0  0  0  0  0
   45.4058  -39.1666   -1.0969 H   0  0  0  0  0  0  0  0  0  0  0  0
   48.6065  -33.7213  -17.6208 H   0  0  0  0  0  0  0  0  0  0  0  0
  2  1  1  1
  2  3  1  0
  5  2  1  0
  3  4  2  0
  3 10  1  0
  6  5  1  0
  7  6  1  0
  8  7  1  0
  9  8  1  0
 60  9  1  0
 10 11  1  0
 11 12  1  0
 11 14  1  1
 12 13  2  0
 21 12  1  0
 14 15  1  0
 15 16  1  0
 16 17  1  0
 17 18  1  0
 18 19  2  0
 18 20  1  0
 22 21  1  0
 23 22  1  0
 22 25  1  1
 23 24  2  0
 32 23  1  0
 25 26  1  0
 26 27  1  0
 27 28  1  0
 28 29  1  0
 29 30  1  0
 29 31  2  0
 33 32  1  6
 33 34  1  0
 38 33  1  0
 34 35  1  6
 34 36  1  0
 34 37  1  0
 38 39  2  0
 40 38  1  0
 41 40  1  0
 41 42  1  6
 44 41  1  0
 42 43  2  0
 42 49  1  0
 45 44  1  0
 46 45  1  0
 47 46  1  0
 48 47  1  0
 67 48  1  0
 49 50  1  0
 50 51  1  0
 51 52  2  0
 51 59  1  0
 52 53  1  0
 53 54  2  0
 54 55  1  0
 58 54  1  0
 55 56  2  0
 55 57  1  0
 59 58  2  0
 61 60  1  0
 60 72  2  0
 62 61  1  0
 70 62  1  1
 64 63  1  0
 63 70  1  0
 71 64  1  1
 65 66  1  0
 71 65  1  0
 66 67  1  0
 67 73  2  0
 68 69  1  0
 68 71  1  0
 69 70  1  0
 19 74  1  0
 31 75  1  0
 56 76  1  0
M  CHG  3   1   1  70   1  71   1
M  END
$$$$
