
     RDKit          3D

 76 78  0  0  0  0  0  0  0  0999 V2000
   53.4163  -31.4072   -5.9142 N   0  0  0  0  0  4  0  0  0  0  0  0
   53.8592  -32.7487   -5.9114 C   0  0  2  0  0  0  0  0  0  0  0  0
   52.9682  -33.7763   -5.3454 C   0  0  0  0  0  0  0  0  0  0  0  0
   53.6159  -34.9015   -5.2105 O   0  0  0  0  0  0  0  0  0  0  0  0
   55.2077  -32.7442   -5.1500 C   0  0  0  0  0  0  0  0  0  0  0  0
   56.3845  -32.7557   -6.0650 C   0  0  0  0  0  0  0  0  0  0  0  0
   56.6453  -34.0711   -6.7456 C   0  0  0  0  0  0  0  0  0  0  0  0
   57.2545  -35.1123   -5.8595 C   0  0  0  0  0  0  0  0  0  0  0  0
   56.4533  -36.2998   -5.7585 N   0  0  0  0  0  0  0  0  0  0  0  0
   51.6501  -33.7907   -4.9462 N   0  0  0  0  0  0  0  0  0  0  0  0
   50.3964  -33.6060   -5.6154 C   0  0  2  0  0  0  0  0  0  0  0  0
   50.4484  -33.2700   -7.0503 C   0  0  0  0  0  0  0  0  0  0  0  0
   51.5915  -33.2456   -7.6200 O   0  0  0  0  0  0  0  0  0  0  0  0
   49.3656  -32.8931   -4.8220 C   0  0  0  0  0  0  0  0  0  0  0  0
   49.7568  -31.8416   -3.8774 C   0  0  0  0  0  0  0  0  0  0  0  0
   50.6728  -32.2753   -2.7676 C   0  0  0  0  0  0  0  0  0  0  0  0
   50.0266  -32.1084   -1.4626 N   0  0  0  0  0  0  0  0  0  0  0  0
   50.7160  -32.5366   -0.3010 C   0  0  0  0  0  0  0  0  0  0  0  0
   50.6261  -33.7614    0.1424 N   0  0  0  0  0  0  0  0  0  0  0  0
   51.5336  -31.5910    0.4026 N   0  0  0  0  0  0  0  0  0  0  0  0
   49.3302  -32.9680   -7.8665 N   0  0  0  0  0  0  0  0  0  0  0  0
   48.2254  -33.8613   -8.1713 C   0  0  2  0  0  0  0  0  0  0  0  0
   48.4829  -34.4788   -9.4848 C   0  0  0  0  0  0  0  0  0  0  0  0
   49.5427  -34.1374  -10.1433 O   0  0  0  0  0  0  0  0  0  0  0  0
   46.8999  -33.2168   -8.0825 C   0  0  0  0  0  0  0  0  0  0  0  0
   46.6689  -31.9108   -8.7299 C   0  0  0  0  0  0  0  0  0  0  0  0
   45.9223  -31.9398  -10.0272 C   0  0  0  0  0  0  0  0  0  0  0  0
   46.7963  -31.4172  -11.0814 N   0  0  0  0  0  0  0  0  0  0  0  0
   46.3017  -31.2551  -12.4179 C   0  0  0  0  0  0  0  0  0  0  0  0
   47.1433  -30.6190  -13.3668 N   0  0  0  0  0  0  0  0  0  0  0  0
   45.1213  -31.6910  -12.6988 N   0  0  0  0  0  0  0  0  0  0  0  0
   47.6234  -35.4530  -10.0954 N   0  0  0  0  0  0  0  0  0  0  0  0
   47.2024  -36.6840   -9.4129 C   0  0  1  0  0  0  0  0  0  0  0  0
   46.1044  -37.2736  -10.2131 C   0  0  1  0  0  0  0  0  0  0  0  0
   44.8161  -36.4825  -10.2126 C   0  0  0  0  0  0  0  0  0  0  0  0
   46.5287  -37.6322  -11.6290 C   0  0  0  0  0  0  0  0  0  0  0  0
   45.7671  -38.6285   -9.5813 C   0  0  0  0  0  0  0  0  0  0  0  0
   48.3554  -37.5020   -9.0640 C   0  0  0  0  0  0  0  0  0  0  0  0
   49.4497  -36.7955   -8.9553 O   0  0  0  0  0  0  0  0  0  0  0  0
   48.5042  -38.8688   -8.8251 N   0  0  0  0  0  0  0  0  0  0  0  0
   48.4080  -40.0105   -9.7044 C   0  0  2  0  0  0  0  0  0  0  0  0
   47.9768  -41.2372   -8.9442 C   0  0  0  0  0  0  0  0  0  0  0  0
   48.2455  -41.3682   -7.7440 O   0  0  0  0  0  0  0  0  0  0  0  0
   49.7686  -40.2648  -10.3214 C   0  0  0  0  0  0  0  0  0  0  0  0
   50.8115  -40.7453   -9.3732 C   0  0  0  0  0  0  0  0  0  0  0  0
   52.2113  -40.2615   -9.7737 C   0  0  0  0  0  0  0  0  0  0  0  0
   52.8996  -41.2553  -10.6936 C   0  0  0  0  0  0  0  0  0  0  0  0
   54.2703  -40.8060  -10.8311 N   0  0  0  0  0  0  0  0  0  0  0  0
   47.2643  -42.2314   -9.6342 N   0  0  0  0  0  0  0  0  0  0  0  0
   47.5789  -42.6077  -10.9722 C   0  0  0  0  0  0  0  0  0  0  0  0
   48.1421  -43.9827  -11.0407 C   0  0  0  0  0  0  0  0  0  0  0  0
   47.8013  -44.9032  -11.9914 C   0  0  0  0  0  0  0  0  0  0  0  0
   48.3677  -46.1563  -11.9647 C   0  0  0  0  0  0  0  0  0  0  0  0
   49.2717  -46.5054  -10.9993 C   0  0  0  0  0  0  0  0  0  0  0  0
   49.8576  -47.8470  -10.9906 C   0  0  0  0  0  0  0  0  0  0  0  0
   49.5601  -48.7299  -11.8736 N   0  0  0  0  0  0  0  0  0  0  0  0
   50.7749  -48.1530   -9.9500 N   0  0  0  0  0  0  0  0  0  0  0  0
   49.6503  -45.5931  -10.0058 C   0  0  0  0  0  0  0  0  0  0  0  0
   49.0761  -44.3568  -10.0526 C   0  0  0  0  0  0  0  0  0  0  0  0
   56.7105  -37.3784   -4.8794 C   0  0  0  0  0  0  0  0  0  0  0  0
   58.0726  -38.0056   -4.8359 C   0  0  0  0  0  0  0  0  0  0  0  0
   58.3123  -38.8466   -6.0787 C   0  0  0  0  0  0  0  0  0  0  0  0
   58.5242  -41.1524   -6.4188 C   0  0  0  0  0  0  0  0  0  0  0  0
   57.7685  -42.4174   -6.7657 C   0  0  0  0  0  0  0  0  0  0  0  0
   56.7936  -42.8054   -8.9253 C   0  0  0  0  0  0  0  0  0  0  0  0
   55.4729  -42.7455   -9.6657 C   0  0  0  0  0  0  0  0  0  0  0  0
   55.4119  -41.6184  -10.6306 C   0  0  0  0  0  0  0  0  0  0  0  0
   56.4269  -40.7611   -7.7883 C   0  0  0  0  0  0  0  0  0  0  0  0
   56.3406  -40.1416   -6.3942 C   0  0  0  0  0  0  0  0  0  0  0  0
   57.6681  -40.1317   -5.8565 N   0  0  2  0  0  4  0  0  0  0  0  0
   56.6371  -42.1692   -7.6299 N   0  0  2  0  0  4  0  0  0  0  0  0
   55.8087  -37.8506   -4.1032 O   0  0  0  0  0  0  0  0  0  0  0  0
   56.4869  -41.4128  -11.2944 O   0  0  0  0  0  0  0  0  0  0  0  0
   50.6789  -34.5544   -0.5390 H   0  0  0  0  0  0  0  0  0  0  0  0
   44.5590  -32.1111  -11.9430 H   0  0  0  0  0  0  0  0  0  0  0  0
   48.9319  -48.5648  -12.6800 H   0  0  0  0  0  0  0  0  0  0  0  0
  2  1  1  1
  2  3  1  0
  5  2  1  0
  3  4  2  0
  3 10  1  0
  6  5  1  0
  7  6  1  0
  8  7  1  0
  9  8  1  0
 60  9  1  0
 10 11  1  0
 11 12  1  0
 11 14  1  1
 12 13  2  0
 21 12  1  0
 14 15  1  0
 15 16  1  0
 16 17  1  0
 17 18  1  0
 18 19  2  0
 18 20  1  0
 22 21  1  0
 23 22  1  0
 22 25  1  6
 23 24  2  0
 32 23  1  0
 25 26  1  0
 26 27  1  0
 27 28  1  0
 28 29  1  0
 29 30  1  0
 29 31  2  0
 33 32  1  6
 33 34  1  0
 38 33  1  0
 34 35  1  6
 34 36  1  0
 34 37  1  0
 38 39  2  0
 40 38  1  0
 41 40  1  0
 41 42  1  1
 44 41  1  0
 42 43  2  0
 42 49  1  0
 45 44  1  0
 46 45  1  0
 47 46  1  0
 48 47  1  0
 67 48  1  0
 49 50  1  0
 50 51  1  0
 51 52  2  0
 51 59  1  0
 52 53  1  0
 53 54  2  0
 54 55  1  0
 58 54  1  0
 55 56  2  0
 55 57  1  0
 59 58  2  0
 61 60  1  0
 60 72  2  0
 62 61  1  0
 70 62  1  6
 64 63  1  0
 63 70  1  0
 71 64  1  1
 65 66  1  0
 71 65  1  0
 66 67  1  0
 67 73  2  0
 68 69  1  0
 68 71  1  0
 69 70  1  0
 19 74  1  0
 31 75  1  0
 56 76  1  0
M  CHG  3   1   1  70   1  71   1
M  END
$$$$
