
     RDKit          3D

 76 78  0  0  0  0  0  0  0  0999 V2000
   54.2574  -33.0152   -1.2871 N   0  0  0  0  0  4  0  0  0  0  0  0
   55.0373  -33.2593   -2.4395 C   0  0  2  0  0  0  0  0  0  0  0  0
   54.9674  -34.5940   -3.0592 C   0  0  0  0  0  0  0  0  0  0  0  0
   55.9086  -34.7185   -3.9550 O   0  0  0  0  0  0  0  0  0  0  0  0
   56.4979  -32.9440   -2.0327 C   0  0  0  0  0  0  0  0  0  0  0  0
   56.9410  -31.5935   -2.4824 C   0  0  0  0  0  0  0  0  0  0  0  0
   57.2076  -31.4726   -3.9575 C   0  0  0  0  0  0  0  0  0  0  0  0
   58.4894  -32.1028   -4.4048 C   0  0  0  0  0  0  0  0  0  0  0  0
   58.2951  -33.1251   -5.3945 N   0  0  0  0  0  0  0  0  0  0  0  0
   54.1485  -35.6888   -2.8926 N   0  0  0  0  0  0  0  0  0  0  0  0
   52.7505  -35.9358   -3.0879 C   0  0  2  0  0  0  0  0  0  0  0  0
   51.9235  -34.7921   -3.5152 C   0  0  0  0  0  0  0  0  0  0  0  0
   52.5115  -33.6851   -3.7614 O   0  0  0  0  0  0  0  0  0  0  0  0
   52.1324  -36.8426   -2.0899 C   0  0  0  0  0  0  0  0  0  0  0  0
   52.2691  -38.2962   -2.2281 C   0  0  0  0  0  0  0  0  0  0  0  0
   53.6779  -38.8193   -2.2115 C   0  0  0  0  0  0  0  0  0  0  0  0
   54.0236  -39.3450   -0.8876 N   0  0  0  0  0  0  0  0  0  0  0  0
   54.2979  -38.4296    0.1587 C   0  0  0  0  0  0  0  0  0  0  0  0
   55.4799  -37.8983    0.3183 N   0  0  0  0  0  0  0  0  0  0  0  0
   53.2413  -38.0824    1.0648 N   0  0  0  0  0  0  0  0  0  0  0  0
   50.5164  -34.8094   -3.6806 N   0  0  0  0  0  0  0  0  0  0  0  0
   49.7743  -35.6287   -4.6238 C   0  0  2  0  0  0  0  0  0  0  0  0
   49.4790  -34.8079   -5.8122 C   0  0  0  0  0  0  0  0  0  0  0  0
   49.8529  -33.5696   -5.8298 O   0  0  0  0  0  0  0  0  0  0  0  0
   48.5737  -36.2619   -4.0427 C   0  0  0  0  0  0  0  0  0  0  0  0
   48.2230  -36.0220   -2.6294 C   0  0  0  0  0  0  0  0  0  0  0  0
   49.2029  -35.2175   -1.8332 C   0  0  0  0  0  0  0  0  0  0  0  0
   48.4587  -34.3087   -0.9564 N   0  0  0  0  0  0  0  0  0  0  0  0
   49.1163  -33.6619    0.1419 C   0  0  0  0  0  0  0  0  0  0  0  0
   49.3294  -34.4134    1.3264 N   0  0  0  0  0  0  0  0  0  0  0  0
   49.4834  -32.4333    0.0076 N   0  0  0  0  0  0  0  0  0  0  0  0
   48.7936  -35.2971   -6.9747 N   0  0  0  0  0  0  0  0  0  0  0  0
   49.2197  -36.4988   -7.7046 C   0  0  1  0  0  0  0  0  0  0  0  0
   48.1231  -36.8578   -8.6331 C   0  0  1  0  0  0  0  0  0  0  0  0
   48.5303  -37.7331   -9.7964 C   0  0  0  0  0  0  0  0  0  0  0  0
   46.9037  -37.4227   -7.9207 C   0  0  0  0  0  0  0  0  0  0  0  0
   47.6108  -35.5509   -9.2482 C   0  0  0  0  0  0  0  0  0  0  0  0
   50.5723  -36.3387   -8.2193 C   0  0  0  0  0  0  0  0  0  0  0  0
   51.2623  -35.4636   -7.5361 O   0  0  0  0  0  0  0  0  0  0  0  0
   51.2545  -36.9363   -9.2800 N   0  0  0  0  0  0  0  0  0  0  0  0
   51.0798  -36.8336  -10.7099 C   0  0  2  0  0  0  0  0  0  0  0  0
   51.5377  -38.0931  -11.3973 C   0  0  0  0  0  0  0  0  0  0  0  0
   52.6450  -38.5855  -11.1500 O   0  0  0  0  0  0  0  0  0  0  0  0
   51.9030  -35.6667  -11.2174 C   0  0  0  0  0  0  0  0  0  0  0  0
   53.3783  -35.8551  -11.1417 C   0  0  0  0  0  0  0  0  0  0  0  0
   54.1099  -34.5281  -10.9014 C   0  0  0  0  0  0  0  0  0  0  0  0
   54.4822  -33.8549  -12.2113 C   0  0  0  0  0  0  0  0  0  0  0  0
   55.3413  -32.7393  -11.8697 N   0  0  0  0  0  0  0  0  0  0  0  0
   50.6760  -38.6930  -12.3300 N   0  0  0  0  0  0  0  0  0  0  0  0
   50.4764  -38.1625  -13.6375 C   0  0  0  0  0  0  0  0  0  0  0  0
   49.4179  -37.1177  -13.6535 C   0  0  0  0  0  0  0  0  0  0  0  0
   49.4911  -35.9647  -14.3833 C   0  0  0  0  0  0  0  0  0  0  0  0
   48.4652  -35.0505  -14.3232 C   0  0  0  0  0  0  0  0  0  0  0  0
   47.3642  -35.2707  -13.5420 C   0  0  0  0  0  0  0  0  0  0  0  0
   46.2873  -34.2802  -13.4924 C   0  0  0  0  0  0  0  0  0  0  0  0
   45.3268  -34.3549  -12.6440 N   0  0  0  0  0  0  0  0  0  0  0  0
   46.3311  -33.2191  -14.4358 N   0  0  0  0  0  0  0  0  0  0  0  0
   47.2471  -36.4392  -12.7780 C   0  0  0  0  0  0  0  0  0  0  0  0
   48.2761  -37.3312  -12.8537 C   0  0  0  0  0  0  0  0  0  0  0  0
   59.3089  -33.9829   -5.8832 C   0  0  0  0  0  0  0  0  0  0  0  0
   60.6027  -33.4108   -6.3825 C   0  0  0  0  0  0  0  0  0  0  0  0
   60.4028  -32.7355   -7.7291 C   0  0  0  0  0  0  0  0  0  0  0  0
   61.1293  -33.2592   -9.8913 C   0  0  0  0  0  0  0  0  0  0  0  0
   60.7583  -33.9766  -11.1717 C   0  0  0  0  0  0  0  0  0  0  0  0
   58.9737  -33.2513  -12.6049 C   0  0  0  0  0  0  0  0  0  0  0  0
   57.5255  -33.5391  -12.9449 C   0  0  0  0  0  0  0  0  0  0  0  0
   56.6046  -32.4825  -12.4541 C   0  0  0  0  0  0  0  0  0  0  0  0
   58.6317  -33.4695  -10.2721 C   0  0  0  0  0  0  0  0  0  0  0  0
   59.1033  -34.2387   -9.0390 C   0  0  0  0  0  0  0  0  0  0  0  0
   60.4272  -33.7812   -8.7400 N   0  0  2  0  0  4  0  0  0  0  0  0
   59.3326  -33.9899  -11.4078 N   0  0  2  0  0  4  0  0  0  0  0  0
   59.1635  -35.2542   -5.9173 O   0  0  0  0  0  0  0  0  0  0  0  0
   57.0312  -31.2834  -12.5917 O   0  0  0  0  0  0  0  0  0  0  0  0
   55.6774  -37.3481    1.1868 H   0  0  0  0  0  0  0  0  0  0  0  0
   48.7966  -31.6899    0.2067 H   0  0  0  0  0  0  0  0  0  0  0  0
   44.4704  -33.7737  -12.6747 H   0  0  0  0  0  0  0  0  0  0  0  0
  2  1  1  1
  2  3  1  0
  5  2  1  0
  3  4  2  0
  3 10  1  0
  6  5  1  0
  7  6  1  0
  8  7  1  0
  9  8  1  0
 60  9  1  0
 10 11  1  0
 11 12  1  0
 11 14  1  1
 12 13  2  0
 21 12  1  0
 14 15  1  0
 15 16  1  0
 16 17  1  0
 17 18  1  0
 18 19  2  0
 18 20  1  0
 22 21  1  0
 23 22  1  0
 22 25  1  1
 23 24  2  0
 32 23  1  0
 25 26  1  0
 26 27  1  0
 27 28  1  0
 28 29  1  0
 29 30  1  0
 29 31  2  0
 33 32  1  6
 33 34  1  0
 38 33  1  0
 34 35  1  6
 34 36  1  0
 34 37  1  0
 38 39  2  0
 40 38  1  0
 41 40  1  0
 41 42  1  6
 44 41  1  0
 42 43  2  0
 42 49  1  0
 45 44  1  0
 46 45  1  0
 47 46  1  0
 48 47  1  0
 67 48  1  0
 49 50  1  0
 50 51  1  0
 51 52  2  0
 51 59  1  0
 52 53  1  0
 53 54  2  0
 54 55  1  0
 58 54  1  0
 55 56  2  0
 55 57  1  0
 59 58  2  0
 61 60  1  0
 60 72  2  0
 62 61  1  0
 70 62  1  1
 64 63  1  0
 63 70  1  0
 71 64  1  1
 65 66  1  0
 71 65  1  0
 66 67  1  0
 67 73  2  0
 68 69  1  0
 68 71  1  0
 69 70  1  0
 19 74  1  0
 31 75  1  0
 56 76  1  0
M  CHG  3   1   1  70   1  71   1
M  END
$$$$
