
     RDKit          3D

 76 78  0  0  0  0  0  0  0  0999 V2000
   51.6823  -35.2649   -2.9635 N   0  0  0  0  0  4  0  0  0  0  0  0
   52.4302  -35.5800   -4.1198 C   0  0  2  0  0  0  0  0  0  0  0  0
   52.2084  -36.8887   -4.7590 C   0  0  0  0  0  0  0  0  0  0  0  0
   53.1301  -37.1071   -5.6571 O   0  0  0  0  0  0  0  0  0  0  0  0
   53.9169  -35.4401   -3.7095 C   0  0  0  0  0  0  0  0  0  0  0  0
   54.5123  -34.1428   -4.1397 C   0  0  0  0  0  0  0  0  0  0  0  0
   54.7925  -34.0318   -5.6130 C   0  0  0  0  0  0  0  0  0  0  0  0
   55.9941  -34.7980   -6.0704 C   0  0  0  0  0  0  0  0  0  0  0  0
   55.6849  -35.7768   -7.0748 N   0  0  0  0  0  0  0  0  0  0  0  0
   51.2693  -37.8847   -4.6079 N   0  0  0  0  0  0  0  0  0  0  0  0
   49.8524  -37.9670   -4.8058 C   0  0  2  0  0  0  0  0  0  0  0  0
   49.1624  -36.7300   -5.2158 C   0  0  0  0  0  0  0  0  0  0  0  0
   49.8736  -35.6942   -5.4462 O   0  0  0  0  0  0  0  0  0  0  0  0
   49.1335  -38.8115   -3.8207 C   0  0  0  0  0  0  0  0  0  0  0  0
   49.7664  -39.1586   -2.5441 C   0  0  0  0  0  0  0  0  0  0  0  0
   49.8065  -38.0591   -1.5203 C   0  0  0  0  0  0  0  0  0  0  0  0
   51.1887  -37.7392   -1.1522 N   0  0  0  0  0  0  0  0  0  0  0  0
   51.4182  -36.8563   -0.0678 C   0  0  0  0  0  0  0  0  0  0  0  0
   50.8763  -37.0481    1.1045 N   0  0  0  0  0  0  0  0  0  0  0  0
   52.2712  -35.7212   -0.2724 N   0  0  0  0  0  0  0  0  0  0  0  0
   47.7627  -36.5836   -5.3805 N   0  0  0  0  0  0  0  0  0  0  0  0
   46.9325  -37.2985   -6.3351 C   0  0  2  0  0  0  0  0  0  0  0  0
   46.7345  -36.4321   -7.5111 C   0  0  0  0  0  0  0  0  0  0  0  0
   47.2478  -35.2446   -7.5109 O   0  0  0  0  0  0  0  0  0  0  0  0
   45.6667  -37.7984   -5.7624 C   0  0  0  0  0  0  0  0  0  0  0  0
   45.6842  -38.9028   -4.7836 C   0  0  0  0  0  0  0  0  0  0  0  0
   46.0159  -38.5293   -3.3724 C   0  0  0  0  0  0  0  0  0  0  0  0
   44.9173  -37.7237   -2.8314 N   0  0  0  0  0  0  0  0  0  0  0  0
   44.9987  -37.1865   -1.5040 C   0  0  0  0  0  0  0  0  0  0  0  0
   46.1656  -37.4613   -0.7449 N   0  0  0  0  0  0  0  0  0  0  0  0
   44.0150  -36.4817   -1.0595 N   0  0  0  0  0  0  0  0  0  0  0  0
   45.9987  -36.8225   -8.6802 N   0  0  0  0  0  0  0  0  0  0  0  0
   46.2850  -38.0542   -9.4278 C   0  0  1  0  0  0  0  0  0  0  0  0
   45.1554  -38.2716  -10.3607 C   0  0  1  0  0  0  0  0  0  0  0  0
   45.3117  -39.4534  -11.2905 C   0  0  0  0  0  0  0  0  0  0  0  0
   43.8050  -38.2973   -9.6613 C   0  0  0  0  0  0  0  0  0  0  0  0
   45.0739  -37.0345  -11.2617 C   0  0  0  0  0  0  0  0  0  0  0  0
   47.6476  -38.0427   -9.9411 C   0  0  0  0  0  0  0  0  0  0  0  0
   48.4326  -37.2625   -9.2456 O   0  0  0  0  0  0  0  0  0  0  0  0
   48.2578  -38.6990  -11.0108 N   0  0  0  0  0  0  0  0  0  0  0  0
   48.0975  -38.5560  -12.4390 C   0  0  2  0  0  0  0  0  0  0  0  0
   48.4087  -39.8496  -13.1451 C   0  0  0  0  0  0  0  0  0  0  0  0
   49.2077  -40.6609  -12.6622 O   0  0  0  0  0  0  0  0  0  0  0  0
   49.0495  -37.4839  -12.9300 C   0  0  0  0  0  0  0  0  0  0  0  0
   50.4934  -37.8412  -12.8579 C   0  0  0  0  0  0  0  0  0  0  0  0
   51.3720  -36.6104  -12.5988 C   0  0  0  0  0  0  0  0  0  0  0  0
   51.8203  -35.9652  -13.8990 C   0  0  0  0  0  0  0  0  0  0  0  0
   52.8013  -34.9605  -13.5417 N   0  0  0  0  0  0  0  0  0  0  0  0
   47.7709  -40.1097  -14.3688 N   0  0  0  0  0  0  0  0  0  0  0  0
   46.8036  -39.2261  -14.9296 C   0  0  0  0  0  0  0  0  0  0  0  0
   47.4258  -37.9688  -15.4240 C   0  0  0  0  0  0  0  0  0  0  0  0
   47.0689  -36.7197  -15.0003 C   0  0  0  0  0  0  0  0  0  0  0  0
   47.6946  -35.6137  -15.5267 C   0  0  0  0  0  0  0  0  0  0  0  0
   48.6742  -35.7367  -16.4734 C   0  0  0  0  0  0  0  0  0  0  0  0
   49.3224  -34.5437  -17.0207 C   0  0  0  0  0  0  0  0  0  0  0  0
   49.1551  -33.3781  -16.5097 N   0  0  0  0  0  0  0  0  0  0  0  0
   50.1498  -34.7149  -18.1627 N   0  0  0  0  0  0  0  0  0  0  0  0
   49.0721  -36.9978  -16.9361 C   0  0  0  0  0  0  0  0  0  0  0  0
   48.4381  -38.0798  -16.3997 C   0  0  0  0  0  0  0  0  0  0  0  0
   56.5942  -36.7378   -7.5767 C   0  0  0  0  0  0  0  0  0  0  0  0
   57.9456  -36.3106   -8.0685 C   0  0  0  0  0  0  0  0  0  0  0  0
   57.8256  -35.5973   -9.4049 C   0  0  0  0  0  0  0  0  0  0  0  0
   58.4895  -36.1691  -11.5750 C   0  0  0  0  0  0  0  0  0  0  0  0
   58.0401  -36.8204  -12.8655 C   0  0  0  0  0  0  0  0  0  0  0  0
   56.3518  -35.8746  -14.2867 C   0  0  0  0  0  0  0  0  0  0  0  0
   54.8804  -35.9895  -14.6300 C   0  0  0  0  0  0  0  0  0  0  0  0
   54.0863  -34.8416  -14.1231 C   0  0  0  0  0  0  0  0  0  0  0  0
   55.9846  -36.0863  -11.9572 C   0  0  0  0  0  0  0  0  0  0  0  0
   56.3638  -36.9223  -10.7357 C   0  0  0  0  0  0  0  0  0  0  0  0
   57.7311  -36.6239  -10.4310 N   0  0  2  0  0  4  0  0  0  0  0  0
   56.6225  -36.6669  -13.1008 N   0  0  2  0  0  4  0  0  0  0  0  0
   56.3041  -37.9835   -7.6293 O   0  0  0  0  0  0  0  0  0  0  0  0
   54.6475  -33.6975  -14.2434 O   0  0  0  0  0  0  0  0  0  0  0  0
   49.9640  -36.5843    1.3254 H   0  0  0  0  0  0  0  0  0  0  0  0
   43.3316  -36.1084   -1.7360 H   0  0  0  0  0  0  0  0  0  0  0  0
   48.5428  -33.1749  -15.6998 H   0  0  0  0  0  0  0  0  0  0  0  0
  2  1  1  1
  2  3  1  0
  5  2  1  0
  3  4  2  0
  3 10  1  0
  6  5  1  0
  7  6  1  0
  8  7  1  0
  9  8  1  0
 60  9  1  0
 10 11  1  0
 11 12  1  0
 11 14  1  1
 12 13  2  0
 21 12  1  0
 14 15  1  0
 15 16  1  0
 16 17  1  0
 17 18  1  0
 18 19  2  0
 18 20  1  0
 22 21  1  0
 23 22  1  0
 22 25  1  1
 23 24  2  0
 32 23  1  0
 25 26  1  0
 26 27  1  0
 27 28  1  0
 28 29  1  0
 29 30  1  0
 29 31  2  0
 33 32  1  6
 33 34  1  0
 38 33  1  0
 34 35  1  6
 34 36  1  0
 34 37  1  0
 38 39  2  0
 40 38  1  0
 41 40  1  0
 41 42  1  6
 44 41  1  0
 42 43  2  0
 42 49  1  0
 45 44  1  0
 46 45  1  0
 47 46  1  0
 48 47  1  0
 67 48  1  0
 49 50  1  0
 50 51  1  0
 51 52  2  0
 51 59  1  0
 52 53  1  0
 53 54  2  0
 54 55  1  0
 58 54  1  0
 55 56  2  0
 55 57  1  0
 59 58  2  0
 61 60  1  0
 60 72  2  0
 62 61  1  0
 70 62  1  1
 64 63  1  0
 63 70  1  0
 71 64  1  1
 65 66  1  0
 71 65  1  0
 66 67  1  0
 67 73  2  0
 68 69  1  0
 68 71  1  0
 69 70  1  0
 19 74  1  0
 31 75  1  0
 56 76  1  0
M  CHG  3   1   1  70   1  71   1
M  END
$$$$
