
     RDKit          3D

 76 78  0  0  0  0  0  0  0  0999 V2000
   54.9392  -34.0095   -3.1071 N   0  0  0  0  0  4  0  0  0  0  0  0
   55.4291  -34.4449   -4.3586 C   0  0  2  0  0  0  0  0  0  0  0  0
   54.9428  -35.7304   -4.8891 C   0  0  0  0  0  0  0  0  0  0  0  0
   55.6594  -36.0857   -5.9206 O   0  0  0  0  0  0  0  0  0  0  0  0
   56.9706  -34.4841   -4.2157 C   0  0  0  0  0  0  0  0  0  0  0  0
   57.6328  -33.2835   -4.8010 C   0  0  0  0  0  0  0  0  0  0  0  0
   57.6612  -33.2451   -6.3041 C   0  0  0  0  0  0  0  0  0  0  0  0
   58.6628  -34.1682   -6.9244 C   0  0  0  0  0  0  0  0  0  0  0  0
   58.0667  -35.1244   -7.8147 N   0  0  0  0  0  0  0  0  0  0  0  0
   53.9320  -36.5957   -4.5335 N   0  0  0  0  0  0  0  0  0  0  0  0
   52.5029  -36.5030   -4.4820 C   0  0  2  0  0  0  0  0  0  0  0  0
   51.9054  -35.1991   -4.8246 C   0  0  0  0  0  0  0  0  0  0  0  0
   52.6844  -34.2675   -5.2210 O   0  0  0  0  0  0  0  0  0  0  0  0
   51.8719  -37.2253   -3.3504 C   0  0  0  0  0  0  0  0  0  0  0  0
   52.1980  -36.8609   -1.9677 C   0  0  0  0  0  0  0  0  0  0  0  0
   52.3463  -35.3889   -1.7031 C   0  0  0  0  0  0  0  0  0  0  0  0
   53.2574  -35.1501   -0.5799 N   0  0  0  0  0  0  0  0  0  0  0  0
   52.7330  -34.6068    0.6192 C   0  0  0  0  0  0  0  0  0  0  0  0
   51.4825  -34.2460    0.7242 N   0  0  0  0  0  0  0  0  0  0  0  0
   53.6080  -34.4513    1.7454 N   0  0  0  0  0  0  0  0  0  0  0  0
   50.5265  -34.8810   -4.7538 N   0  0  0  0  0  0  0  0  0  0  0  0
   49.4618  -35.5085   -5.5181 C   0  0  2  0  0  0  0  0  0  0  0  0
   49.1659  -34.6532   -6.6817 C   0  0  0  0  0  0  0  0  0  0  0  0
   49.8102  -33.5405   -6.8243 O   0  0  0  0  0  0  0  0  0  0  0  0
   48.2654  -35.8301   -4.7147 C   0  0  0  0  0  0  0  0  0  0  0  0
   48.3714  -35.9506   -3.2477 C   0  0  0  0  0  0  0  0  0  0  0  0
   49.6288  -35.4217   -2.6308 C   0  0  0  0  0  0  0  0  0  0  0  0
   49.4084  -34.0251   -2.2443 N   0  0  0  0  0  0  0  0  0  0  0  0
   50.3566  -33.3467   -1.4089 C   0  0  0  0  0  0  0  0  0  0  0  0
   50.5963  -31.9701   -1.6557 N   0  0  0  0  0  0  0  0  0  0  0  0
   50.9473  -34.0117   -0.4756 N   0  0  0  0  0  0  0  0  0  0  0  0
   48.1948  -34.9761   -7.6882 N   0  0  0  0  0  0  0  0  0  0  0  0
   48.1951  -36.2522   -8.4161 C   0  0  1  0  0  0  0  0  0  0  0  0
   46.9015  -36.3479   -9.1307 C   0  0  1  0  0  0  0  0  0  0  0  0
   46.6305  -35.2336  -10.1158 C   0  0  0  0  0  0  0  0  0  0  0  0
   46.6745  -37.7109   -9.7666 C   0  0  0  0  0  0  0  0  0  0  0  0
   45.7969  -36.2527   -8.0726 C   0  0  0  0  0  0  0  0  0  0  0  0
   49.4377  -36.4257   -9.1549 C   0  0  0  0  0  0  0  0  0  0  0  0
   50.4207  -35.7341   -8.6410 O   0  0  0  0  0  0  0  0  0  0  0  0
   49.7672  -37.1800  -10.2818 N   0  0  0  0  0  0  0  0  0  0  0  0
   49.3770  -37.0532  -11.6666 C   0  0  2  0  0  0  0  0  0  0  0  0
   49.4016  -38.3926  -12.3548 C   0  0  0  0  0  0  0  0  0  0  0  0
   50.4729  -38.9448  -12.6326 O   0  0  0  0  0  0  0  0  0  0  0  0
   50.3499  -36.1224  -12.3623 C   0  0  0  0  0  0  0  0  0  0  0  0
   51.7304  -36.6575  -12.5221 C   0  0  0  0  0  0  0  0  0  0  0  0
   52.7824  -35.5417  -12.4744 C   0  0  0  0  0  0  0  0  0  0  0  0
   53.0696  -34.9906  -13.8605 C   0  0  0  0  0  0  0  0  0  0  0  0
   54.2117  -34.1095  -13.7233 N   0  0  0  0  0  0  0  0  0  0  0  0
   48.1759  -38.9977  -12.6771 N   0  0  0  0  0  0  0  0  0  0  0  0
   46.9509  -38.2705  -12.7137 C   0  0  0  0  0  0  0  0  0  0  0  0
   45.8520  -39.0061  -12.0327 C   0  0  0  0  0  0  0  0  0  0  0  0
   44.5404  -38.6239  -12.0637 C   0  0  0  0  0  0  0  0  0  0  0  0
   43.5960  -39.3634  -11.3907 C   0  0  0  0  0  0  0  0  0  0  0  0
   43.9428  -40.4822  -10.6843 C   0  0  0  0  0  0  0  0  0  0  0  0
   42.9192  -41.2502   -9.9734 C   0  0  0  0  0  0  0  0  0  0  0  0
   41.6833  -40.9032   -9.9680 N   0  0  0  0  0  0  0  0  0  0  0  0
   43.3430  -42.4074   -9.2669 N   0  0  0  0  0  0  0  0  0  0  0  0
   45.2753  -40.9109  -10.6260 C   0  0  0  0  0  0  0  0  0  0  0  0
   46.1941  -40.1623  -11.3011 C   0  0  0  0  0  0  0  0  0  0  0  0
   58.7514  -36.2048   -8.4198 C   0  0  0  0  0  0  0  0  0  0  0  0
   60.0369  -35.9641   -9.1549 C   0  0  0  0  0  0  0  0  0  0  0  0
   59.7708  -35.2744  -10.4826 C   0  0  0  0  0  0  0  0  0  0  0  0
   59.9696  -35.9789  -12.7055 C   0  0  0  0  0  0  0  0  0  0  0  0
   59.2256  -36.5997  -13.8685 C   0  0  0  0  0  0  0  0  0  0  0  0
   57.4401  -35.4833  -15.0220 C   0  0  0  0  0  0  0  0  0  0  0  0
   55.9284  -35.4196  -15.1026 C   0  0  0  0  0  0  0  0  0  0  0  0
   55.3794  -34.1684  -14.5209 C   0  0  0  0  0  0  0  0  0  0  0  0
   57.4650  -35.5894  -12.6567 C   0  0  0  0  0  0  0  0  0  0  0  0
   57.9495  -36.4364  -11.4809 C   0  0  0  0  0  0  0  0  0  0  0  0
   59.3748  -36.3058  -11.4288 N   0  0  2  0  0  4  0  0  0  0  0  0
   57.8176  -36.2740  -13.8646 N   0  0  2  0  0  4  0  0  0  0  0  0
   58.3090  -37.4047   -8.3643 O   0  0  0  0  0  0  0  0  0  0  0  0
   56.0443  -33.1078  -14.7884 O   0  0  0  0  0  0  0  0  0  0  0  0
   51.1309  -33.8909    1.6441 H   0  0  0  0  0  0  0  0  0  0  0  0
   50.7430  -35.0185   -0.3837 H   0  0  0  0  0  0  0  0  0  0  0  0
   41.3348  -39.9787   -9.6582 H   0  0  0  0  0  0  0  0  0  0  0  0
  2  1  1  1
  2  3  1  0
  5  2  1  0
  3  4  2  0
  3 10  1  0
  6  5  1  0
  7  6  1  0
  8  7  1  0
  9  8  1  0
 60  9  1  0
 10 11  1  0
 11 12  1  0
 11 14  1  1
 12 13  2  0
 21 12  1  0
 14 15  1  0
 15 16  1  0
 16 17  1  0
 17 18  1  0
 18 19  2  0
 18 20  1  0
 22 21  1  0
 23 22  1  0
 22 25  1  1
 23 24  2  0
 32 23  1  0
 25 26  1  0
 26 27  1  0
 27 28  1  0
 28 29  1  0
 29 30  1  0
 29 31  2  0
 33 32  1  6
 33 34  1  0
 38 33  1  0
 34 35  1  6
 34 36  1  0
 34 37  1  0
 38 39  2  0
 40 38  1  0
 41 40  1  0
 41 42  1  6
 44 41  1  0
 42 43  2  0
 42 49  1  0
 45 44  1  0
 46 45  1  0
 47 46  1  0
 48 47  1  0
 67 48  1  0
 49 50  1  0
 50 51  1  0
 51 52  2  0
 51 59  1  0
 52 53  1  0
 53 54  2  0
 54 55  1  0
 58 54  1  0
 55 56  2  0
 55 57  1  0
 59 58  2  0
 61 60  1  0
 60 72  2  0
 62 61  1  0
 70 62  1  1
 64 63  1  0
 63 70  1  0
 71 64  1  1
 65 66  1  0
 71 65  1  0
 66 67  1  0
 67 73  2  0
 68 69  1  0
 68 71  1  0
 69 70  1  0
 19 74  1  0
 31 75  1  0
 56 76  1  0
M  CHG  3   1   1  70   1  71   1
M  END
$$$$
