
     RDKit          3D

 76 78  0  0  0  0  0  0  0  0999 V2000
   54.5643  -33.1715   -3.5442 N   0  0  0  0  0  4  0  0  0  0  0  0
   55.0797  -33.9393   -4.6121 C   0  0  2  0  0  0  0  0  0  0  0  0
   54.4480  -35.2374   -4.9064 C   0  0  0  0  0  0  0  0  0  0  0  0
   55.1816  -35.9073   -5.7531 O   0  0  0  0  0  0  0  0  0  0  0  0
   56.5815  -34.1448   -4.2953 C   0  0  0  0  0  0  0  0  0  0  0  0
   57.4613  -33.2048   -5.0467 C   0  0  0  0  0  0  0  0  0  0  0  0
   57.6133  -33.5124   -6.5109 C   0  0  0  0  0  0  0  0  0  0  0  0
   58.5097  -34.6741   -6.8059 C   0  0  0  0  0  0  0  0  0  0  0  0
   57.8478  -35.7217   -7.5317 N   0  0  0  0  0  0  0  0  0  0  0  0
   53.2933  -35.8606   -4.4880 N   0  0  0  0  0  0  0  0  0  0  0  0
   51.8951  -35.5739   -4.6151 C   0  0  2  0  0  0  0  0  0  0  0  0
   51.5301  -34.3155   -5.2917 C   0  0  0  0  0  0  0  0  0  0  0  0
   52.4696  -33.6074   -5.7894 O   0  0  0  0  0  0  0  0  0  0  0  0
   51.0753  -35.9325   -3.4320 C   0  0  0  0  0  0  0  0  0  0  0  0
   50.7245  -34.9114   -2.4395 C   0  0  0  0  0  0  0  0  0  0  0  0
   51.8805  -34.1424   -1.8641 C   0  0  0  0  0  0  0  0  0  0  0  0
   51.4255  -33.2207   -0.8192 N   0  0  0  0  0  0  0  0  0  0  0  0
   52.3844  -32.4148   -0.1566 C   0  0  0  0  0  0  0  0  0  0  0  0
   52.8788  -31.3383   -0.7059 N   0  0  0  0  0  0  0  0  0  0  0  0
   52.8199  -32.8001    1.1548 N   0  0  0  0  0  0  0  0  0  0  0  0
   50.2138  -33.8134   -5.4427 N   0  0  0  0  0  0  0  0  0  0  0  0
   49.1299  -34.4542   -6.1680 C   0  0  2  0  0  0  0  0  0  0  0  0
   49.0590  -33.8542   -7.5126 C   0  0  0  0  0  0  0  0  0  0  0  0
   49.8732  -32.8962   -7.8174 O   0  0  0  0  0  0  0  0  0  0  0  0
   47.8393  -34.4270   -5.4513 C   0  0  0  0  0  0  0  0  0  0  0  0
   47.7790  -33.9482   -4.0566 C   0  0  0  0  0  0  0  0  0  0  0  0
   49.0882  -33.5942   -3.4228 C   0  0  0  0  0  0  0  0  0  0  0  0
   49.2812  -34.4425   -2.2431 N   0  0  0  0  0  0  0  0  0  0  0  0
   50.3576  -34.1816   -1.3319 C   0  0  0  0  0  0  0  0  0  0  0  0
   51.6111  -33.7975   -1.8745 N   0  0  0  0  0  0  0  0  0  0  0  0
   50.1424  -34.3065   -0.0668 N   0  0  0  0  0  0  0  0  0  0  0  0
   48.1324  -34.2681   -8.5278 N   0  0  0  0  0  0  0  0  0  0  0  0
   47.9973  -35.6650   -8.9621 C   0  0  1  0  0  0  0  0  0  0  0  0
   46.7642  -35.7516   -9.7779 C   0  0  1  0  0  0  0  0  0  0  0  0
   46.4320  -34.5074  -10.5697 C   0  0  0  0  0  0  0  0  0  0  0  0
   46.7212  -36.9911  -10.6583 C   0  0  0  0  0  0  0  0  0  0  0  0
   45.5972  -35.9565   -8.8057 C   0  0  0  0  0  0  0  0  0  0  0  0
   49.2536  -36.1615   -9.5054 C   0  0  0  0  0  0  0  0  0  0  0  0
   50.2862  -35.5050   -9.0458 O   0  0  0  0  0  0  0  0  0  0  0  0
   49.5529  -37.1880  -10.4022 N   0  0  0  0  0  0  0  0  0  0  0  0
   49.2964  -37.3290  -11.8164 C   0  0  2  0  0  0  0  0  0  0  0  0
   49.1724  -38.7813  -12.1961 C   0  0  0  0  0  0  0  0  0  0  0  0
   49.6384  -39.2015  -13.2619 O   0  0  0  0  0  0  0  0  0  0  0  0
   50.4503  -36.7148  -12.5833 C   0  0  0  0  0  0  0  0  0  0  0  0
   51.7424  -37.4468  -12.4721 C   0  0  0  0  0  0  0  0  0  0  0  0
   52.9438  -36.4955  -12.5481 C   0  0  0  0  0  0  0  0  0  0  0  0
   53.4190  -36.3153  -13.9796 C   0  0  0  0  0  0  0  0  0  0  0  0
   54.6667  -35.5820  -13.9086 N   0  0  0  0  0  0  0  0  0  0  0  0
   48.5103  -39.6464  -11.3100 N   0  0  0  0  0  0  0  0  0  0  0  0
   47.4603  -39.2058  -10.4531 C   0  0  0  0  0  0  0  0  0  0  0  0
   46.2629  -40.0827  -10.5518 C   0  0  0  0  0  0  0  0  0  0  0  0
   45.9750  -41.0874   -9.6715 C   0  0  0  0  0  0  0  0  0  0  0  0
   44.8481  -41.8546   -9.8534 C   0  0  0  0  0  0  0  0  0  0  0  0
   44.0019  -41.6334  -10.9051 C   0  0  0  0  0  0  0  0  0  0  0  0
   42.8106  -42.4664  -11.0788 C   0  0  0  0  0  0  0  0  0  0  0  0
   42.3246  -43.1738  -10.1243 N   0  0  0  0  0  0  0  0  0  0  0  0
   42.2023  -42.4777  -12.3625 N   0  0  0  0  0  0  0  0  0  0  0  0
   44.2578  -40.6138  -11.8312 C   0  0  0  0  0  0  0  0  0  0  0  0
   45.3806  -39.8658  -11.6304 C   0  0  0  0  0  0  0  0  0  0  0  0
   58.4069  -36.9907   -7.8133 C   0  0  0  0  0  0  0  0  0  0  0  0
   59.7677  -37.0920   -8.4367 C   0  0  0  0  0  0  0  0  0  0  0  0
   59.7140  -36.6930   -9.9020 C   0  0  0  0  0  0  0  0  0  0  0  0
   59.9783  -37.9030  -11.8877 C   0  0  0  0  0  0  0  0  0  0  0  0
   59.2428  -38.6696  -12.9661 C   0  0  0  0  0  0  0  0  0  0  0  0
   57.7426  -37.6218  -14.5207 C   0  0  0  0  0  0  0  0  0  0  0  0
   56.2689  -37.3824  -14.7790 C   0  0  0  0  0  0  0  0  0  0  0  0
   55.8712  -35.9714  -14.5417 C   0  0  0  0  0  0  0  0  0  0  0  0
   57.5652  -37.1909  -12.1992 C   0  0  0  0  0  0  0  0  0  0  0  0
   57.8223  -37.8046  -10.8237 C   0  0  0  0  0  0  0  0  0  0  0  0
   59.2425  -37.8518  -10.6440 N   0  0  2  0  0  4  0  0  0  0  0  0
   57.9042  -38.1715  -13.1869 N   0  0  2  0  0  4  0  0  0  0  0  0
   57.7854  -38.0789   -7.5521 O   0  0  0  0  0  0  0  0  0  0  0  0
   56.7075  -35.0947  -14.9544 O   0  0  0  0  0  0  0  0  0  0  0  0
   52.5595  -31.0635   -1.6642 H   0  0  0  0  0  0  0  0  0  0  0  0
   49.4579  -35.0106    0.2489 H   0  0  0  0  0  0  0  0  0  0  0  0
   42.6982  -43.1925   -9.1588 H   0  0  0  0  0  0  0  0  0  0  0  0
  2  1  1  1
  2  3  1  0
  5  2  1  0
  3  4  2  0
  3 10  1  0
  6  5  1  0
  7  6  1  0
  8  7  1  0
  9  8  1  0
 60  9  1  0
 10 11  1  0
 11 12  1  0
 11 14  1  1
 12 13  2  0
 21 12  1  0
 14 15  1  0
 15 16  1  0
 16 17  1  0
 17 18  1  0
 18 19  2  0
 18 20  1  0
 22 21  1  0
 23 22  1  0
 22 25  1  1
 23 24  2  0
 32 23  1  0
 25 26  1  0
 26 27  1  0
 27 28  1  0
 28 29  1  0
 29 30  1  0
 29 31  2  0
 33 32  1  6
 33 34  1  0
 38 33  1  0
 34 35  1  6
 34 36  1  0
 34 37  1  0
 38 39  2  0
 40 38  1  0
 41 40  1  0
 41 42  1  1
 44 41  1  0
 42 43  2  0
 42 49  1  0
 45 44  1  0
 46 45  1  0
 47 46  1  0
 48 47  1  0
 67 48  1  0
 49 50  1  0
 50 51  1  0
 51 52  2  0
 51 59  1  0
 52 53  1  0
 53 54  2  0
 54 55  1  0
 58 54  1  0
 55 56  2  0
 55 57  1  0
 59 58  2  0
 61 60  1  0
 60 72  2  0
 62 61  1  0
 70 62  1  6
 64 63  1  0
 63 70  1  0
 71 64  1  1
 65 66  1  0
 71 65  1  0
 66 67  1  0
 67 73  2  0
 68 69  1  0
 68 71  1  0
 69 70  1  0
 19 74  1  0
 31 75  1  0
 56 76  1  0
M  CHG  3   1   1  70   1  71   1
M  END
$$$$
