
     RDKit          3D

 76 78  0  0  0  0  0  0  0  0999 V2000
   55.1827  -31.8896   -2.3095 N   0  0  0  0  0  4  0  0  0  0  0  0
   55.7265  -32.6169   -3.3915 C   0  0  2  0  0  0  0  0  0  0  0  0
   55.2488  -33.9921   -3.6180 C   0  0  0  0  0  0  0  0  0  0  0  0
   56.0096  -34.5886   -4.4951 O   0  0  0  0  0  0  0  0  0  0  0  0
   57.2586  -32.6226   -3.1660 C   0  0  0  0  0  0  0  0  0  0  0  0
   57.9648  -31.6014   -3.9911 C   0  0  0  0  0  0  0  0  0  0  0  0
   58.0665  -31.9296   -5.4552 C   0  0  0  0  0  0  0  0  0  0  0  0
   59.0842  -32.9774   -5.7818 C   0  0  0  0  0  0  0  0  0  0  0  0
   58.5188  -34.1204   -6.4422 N   0  0  0  0  0  0  0  0  0  0  0  0
   54.2101  -34.7433   -3.1144 N   0  0  0  0  0  0  0  0  0  0  0  0
   52.7816  -34.6386   -3.1588 C   0  0  2  0  0  0  0  0  0  0  0  0
   52.2194  -33.4562   -3.8373 C   0  0  0  0  0  0  0  0  0  0  0  0
   53.0295  -32.6501   -4.4082 O   0  0  0  0  0  0  0  0  0  0  0  0
   52.0867  -35.0632   -1.9190 C   0  0  0  0  0  0  0  0  0  0  0  0
   51.3809  -36.3478   -1.8708 C   0  0  0  0  0  0  0  0  0  0  0  0
   52.1469  -37.5285   -2.3979 C   0  0  0  0  0  0  0  0  0  0  0  0
   53.3327  -37.7898   -1.5769 N   0  0  0  0  0  0  0  0  0  0  0  0
   54.1236  -38.9297   -1.8653 C   0  0  0  0  0  0  0  0  0  0  0  0
   54.7336  -39.6015   -0.9264 N   0  0  0  0  0  0  0  0  0  0  0  0
   54.2531  -39.3508   -3.2305 N   0  0  0  0  0  0  0  0  0  0  0  0
   50.8432  -33.1282   -3.9154 N   0  0  0  0  0  0  0  0  0  0  0  0
   49.8082  -33.9209   -4.5571 C   0  0  2  0  0  0  0  0  0  0  0  0
   49.5809  -33.3737   -5.9068 C   0  0  0  0  0  0  0  0  0  0  0  0
   50.2466  -32.3301   -6.2826 O   0  0  0  0  0  0  0  0  0  0  0  0
   48.5700  -34.0357   -3.7609 C   0  0  0  0  0  0  0  0  0  0  0  0
   48.5881  -34.7414   -2.4649 C   0  0  0  0  0  0  0  0  0  0  0  0
   49.9241  -34.8703   -1.8017 C   0  0  0  0  0  0  0  0  0  0  0  0
   49.9101  -34.0835   -0.5651 N   0  0  0  0  0  0  0  0  0  0  0  0
   50.5869  -32.8205   -0.5027 C   0  0  0  0  0  0  0  0  0  0  0  0
   51.7582  -32.6533   -1.2858 N   0  0  0  0  0  0  0  0  0  0  0  0
   50.1059  -31.8968    0.2574 N   0  0  0  0  0  0  0  0  0  0  0  0
   48.6553  -33.9300   -6.8524 N   0  0  0  0  0  0  0  0  0  0  0  0
   48.6733  -35.3448   -7.2479 C   0  0  1  0  0  0  0  0  0  0  0  0
   47.4146  -35.6093   -7.9821 C   0  0  1  0  0  0  0  0  0  0  0  0
   46.3097  -36.2277   -7.1561 C   0  0  0  0  0  0  0  0  0  0  0  0
   46.9121  -34.3986   -8.7536 C   0  0  0  0  0  0  0  0  0  0  0  0
   47.7414  -36.6284   -9.0791 C   0  0  0  0  0  0  0  0  0  0  0  0
   49.9477  -35.6947   -7.8590 C   0  0  0  0  0  0  0  0  0  0  0  0
   50.9140  -34.9005   -7.4795 O   0  0  0  0  0  0  0  0  0  0  0  0
   50.3210  -36.7008   -8.7511 N   0  0  0  0  0  0  0  0  0  0  0  0
   50.0001  -36.9137  -10.1431 C   0  0  2  0  0  0  0  0  0  0  0  0
   50.0395  -38.3804  -10.4836 C   0  0  0  0  0  0  0  0  0  0  0  0
   51.1167  -38.9756  -10.6059 O   0  0  0  0  0  0  0  0  0  0  0  0
   51.0182  -36.1816  -10.9940 C   0  0  0  0  0  0  0  0  0  0  0  0
   52.3973  -36.7417  -10.9494 C   0  0  0  0  0  0  0  0  0  0  0  0
   53.4610  -35.6494  -11.1211 C   0  0  0  0  0  0  0  0  0  0  0  0
   53.8226  -35.4523  -12.5833 C   0  0  0  0  0  0  0  0  0  0  0  0
   54.9688  -34.5660  -12.6067 N   0  0  0  0  0  0  0  0  0  0  0  0
   48.8208  -39.0549  -10.6625 N   0  0  0  0  0  0  0  0  0  0  0  0
   47.6852  -38.4356  -11.2606 C   0  0  0  0  0  0  0  0  0  0  0  0
   46.4828  -39.3089  -11.1969 C   0  0  0  0  0  0  0  0  0  0  0  0
   46.2936  -40.4100  -11.9837 C   0  0  0  0  0  0  0  0  0  0  0  0
   45.1405  -41.1494  -11.8602 C   0  0  0  0  0  0  0  0  0  0  0  0
   44.1698  -40.8042  -10.9603 C   0  0  0  0  0  0  0  0  0  0  0  0
   42.9497  -41.6056  -10.8506 C   0  0  0  0  0  0  0  0  0  0  0  0
   41.9663  -41.2569  -10.1029 N   0  0  0  0  0  0  0  0  0  0  0  0
   42.8885  -42.8096  -11.6021 N   0  0  0  0  0  0  0  0  0  0  0  0
   44.3224  -39.6838  -10.1332 C   0  0  0  0  0  0  0  0  0  0  0  0
   45.4739  -38.9662  -10.2730 C   0  0  0  0  0  0  0  0  0  0  0  0
   59.2171  -35.3165   -6.7318 C   0  0  0  0  0  0  0  0  0  0  0  0
   60.5398  -35.2638   -7.4376 C   0  0  0  0  0  0  0  0  0  0  0  0
   60.3478  -34.9171   -8.9047 C   0  0  0  0  0  0  0  0  0  0  0  0
   60.6444  -36.1411  -10.8773 C   0  0  0  0  0  0  0  0  0  0  0  0
   59.9490  -37.0248  -11.8907 C   0  0  0  0  0  0  0  0  0  0  0  0
   58.2370  -36.2194  -13.3691 C   0  0  0  0  0  0  0  0  0  0  0  0
   56.7320  -36.1749  -13.5387 C   0  0  0  0  0  0  0  0  0  0  0  0
   56.1728  -34.8189  -13.3064 C   0  0  0  0  0  0  0  0  0  0  0  0
   58.1459  -35.7475  -11.0505 C   0  0  0  0  0  0  0  0  0  0  0  0
   58.5611  -36.2840   -9.6814 C   0  0  0  0  0  0  0  0  0  0  0  0
   59.9840  -36.1470   -9.5909 N   0  0  2  0  0  4  0  0  0  0  0  0
   58.5471  -36.7057  -12.0368 N   0  0  2  0  0  4  0  0  0  0  0  0
   58.7560  -36.4663   -6.4090 O   0  0  0  0  0  0  0  0  0  0  0  0
   56.8644  -33.8562  -13.7895 O   0  0  0  0  0  0  0  0  0  0  0  0
   54.7889  -40.6443   -1.0008 H   0  0  0  0  0  0  0  0  0  0  0  0
   50.2016  -32.0007    1.2791 H   0  0  0  0  0  0  0  0  0  0  0  0
   41.8700  -40.3281   -9.6554 H   0  0  0  0  0  0  0  0  0  0  0  0
  2  1  1  1
  2  3  1  0
  5  2  1  0
  3  4  2  0
  3 10  1  0
  6  5  1  0
  7  6  1  0
  8  7  1  0
  9  8  1  0
 60  9  1  0
 10 11  1  0
 11 12  1  0
 11 14  1  1
 12 13  2  0
 21 12  1  0
 14 15  1  0
 15 16  1  0
 16 17  1  0
 17 18  1  0
 18 19  2  0
 18 20  1  0
 22 21  1  0
 23 22  1  0
 22 25  1  1
 23 24  2  0
 32 23  1  0
 25 26  1  0
 26 27  1  0
 27 28  1  0
 28 29  1  0
 29 30  1  0
 29 31  2  0
 33 32  1  6
 33 34  1  0
 38 33  1  0
 34 35  1  1
 34 36  1  0
 34 37  1  0
 38 39  2  0
 40 38  1  0
 41 40  1  0
 41 42  1  6
 44 41  1  0
 42 43  2  0
 42 49  1  0
 45 44  1  0
 46 45  1  0
 47 46  1  0
 48 47  1  0
 67 48  1  0
 49 50  1  0
 50 51  1  0
 51 52  2  0
 51 59  1  0
 52 53  1  0
 53 54  2  0
 54 55  1  0
 58 54  1  0
 55 56  2  0
 55 57  1  0
 59 58  2  0
 61 60  1  0
 60 72  2  0
 62 61  1  0
 70 62  1  6
 64 63  1  0
 63 70  1  0
 71 64  1  6
 65 66  1  0
 71 65  1  0
 66 67  1  0
 67 73  2  0
 68 69  1  0
 68 71  1  0
 69 70  1  0
 19 74  1  0
 31 75  1  0
 56 76  1  0
M  CHG  3   1   1  70   1  71   1
M  END
$$$$
