
     RDKit          3D

 76 78  0  0  0  0  0  0  0  0999 V2000
   52.3793  -33.9192   -1.0689 N   0  0  0  0  0  4  0  0  0  0  0  0
   53.2009  -34.2648   -2.1649 C   0  0  2  0  0  0  0  0  0  0  0  0
   52.9471  -35.5437   -2.8510 C   0  0  0  0  0  0  0  0  0  0  0  0
   53.9257  -35.8095   -3.6728 O   0  0  0  0  0  0  0  0  0  0  0  0
   54.6528  -34.2353   -1.6272 C   0  0  0  0  0  0  0  0  0  0  0  0
   55.3690  -32.9750   -1.9751 C   0  0  0  0  0  0  0  0  0  0  0  0
   55.7817  -32.8577   -3.4165 C   0  0  0  0  0  0  0  0  0  0  0  0
   56.9637  -33.6971   -3.7884 C   0  0  0  0  0  0  0  0  0  0  0  0
   56.6767  -34.6344   -4.8380 N   0  0  0  0  0  0  0  0  0  0  0  0
   51.9335  -36.4749   -2.8031 N   0  0  0  0  0  0  0  0  0  0  0  0
   50.5365  -36.4555   -3.1219 C   0  0  2  0  0  0  0  0  0  0  0  0
   49.9692  -35.1667   -3.5597 C   0  0  0  0  0  0  0  0  0  0  0  0
   50.7657  -34.1787   -3.7049 O   0  0  0  0  0  0  0  0  0  0  0  0
   49.6804  -37.2654   -2.2212 C   0  0  0  0  0  0  0  0  0  0  0  0
   48.2917  -36.8681   -1.9675 C   0  0  0  0  0  0  0  0  0  0  0  0
   47.2439  -37.8378   -2.4373 C   0  0  0  0  0  0  0  0  0  0  0  0
   47.3961  -39.1340   -1.7702 N   0  0  0  0  0  0  0  0  0  0  0  0
   46.8368  -39.3061   -0.4797 C   0  0  0  0  0  0  0  0  0  0  0  0
   45.6419  -38.8718   -0.1821 N   0  0  0  0  0  0  0  0  0  0  0  0
   47.6124  -39.9773    0.5233 N   0  0  0  0  0  0  0  0  0  0  0  0
   48.6019  -34.9210   -3.8387 N   0  0  0  0  0  0  0  0  0  0  0  0
   47.8106  -35.5599   -4.8764 C   0  0  2  0  0  0  0  0  0  0  0  0
   47.7731  -34.6614   -6.0444 C   0  0  0  0  0  0  0  0  0  0  0  0
   48.3634  -33.5124   -5.9730 O   0  0  0  0  0  0  0  0  0  0  0  0
   46.4694  -35.9811   -4.4247 C   0  0  0  0  0  0  0  0  0  0  0  0
   46.0441  -35.7253   -3.0348 C   0  0  0  0  0  0  0  0  0  0  0  0
   47.1265  -35.7356   -2.0006 C   0  0  0  0  0  0  0  0  0  0  0  0
   47.2866  -34.3756   -1.4778 N   0  0  0  0  0  0  0  0  0  0  0  0
   47.8693  -34.1608   -0.1850 C   0  0  0  0  0  0  0  0  0  0  0  0
   48.2531  -32.8393    0.1611 N   0  0  0  0  0  0  0  0  0  0  0  0
   48.0191  -35.1704    0.6027 N   0  0  0  0  0  0  0  0  0  0  0  0
   47.1159  -34.9794   -7.2803 N   0  0  0  0  0  0  0  0  0  0  0  0
   47.3817  -36.2147   -8.0297 C   0  0  1  0  0  0  0  0  0  0  0  0
   46.3244  -36.3370   -9.0596 C   0  0  1  0  0  0  0  0  0  0  0  0
   44.9323  -35.9761   -8.5936 C   0  0  0  0  0  0  0  0  0  0  0  0
   46.6730  -35.6214  -10.3556 C   0  0  0  0  0  0  0  0  0  0  0  0
   46.2632  -37.8136   -9.4656 C   0  0  0  0  0  0  0  0  0  0  0  0
   48.7810  -36.2884   -8.4255 C   0  0  0  0  0  0  0  0  0  0  0  0
   49.5541  -35.5767   -7.6482 O   0  0  0  0  0  0  0  0  0  0  0  0
   49.4353  -36.9664   -9.4549 N   0  0  0  0  0  0  0  0  0  0  0  0
   49.4083  -36.7877  -10.8878 C   0  0  2  0  0  0  0  0  0  0  0  0
   49.6911  -38.0870  -11.5951 C   0  0  0  0  0  0  0  0  0  0  0  0
   50.3888  -38.9601  -11.0654 O   0  0  0  0  0  0  0  0  0  0  0  0
   50.4690  -35.7755  -11.2714 C   0  0  0  0  0  0  0  0  0  0  0  0
   51.8740  -36.2330  -11.0859 C   0  0  0  0  0  0  0  0  0  0  0  0
   52.8081  -35.0706  -10.7248 C   0  0  0  0  0  0  0  0  0  0  0  0
   53.4088  -34.4353  -11.9669 C   0  0  0  0  0  0  0  0  0  0  0  0
   54.4210  -33.5072  -11.5046 N   0  0  0  0  0  0  0  0  0  0  0  0
   49.1450  -38.2808  -12.8743 N   0  0  0  0  0  0  0  0  0  0  0  0
   48.6953  -37.1987  -13.6853 C   0  0  0  0  0  0  0  0  0  0  0  0
   49.4521  -37.1152  -14.9631 C   0  0  0  0  0  0  0  0  0  0  0  0
   48.9194  -37.4011  -16.1886 C   0  0  0  0  0  0  0  0  0  0  0  0
   49.7037  -37.3070  -17.3145 C   0  0  0  0  0  0  0  0  0  0  0  0
   51.0165  -36.9311  -17.2348 C   0  0  0  0  0  0  0  0  0  0  0  0
   51.8313  -36.8420  -18.4478 C   0  0  0  0  0  0  0  0  0  0  0  0
   51.3220  -36.9304  -19.6228 N   0  0  0  0  0  0  0  0  0  0  0  0
   53.2308  -36.6621  -18.2835 N   0  0  0  0  0  0  0  0  0  0  0  0
   51.6035  -36.6282  -15.9993 C   0  0  0  0  0  0  0  0  0  0  0  0
   50.8066  -36.7281  -14.8969 C   0  0  0  0  0  0  0  0  0  0  0  0
   57.5589  -35.6470   -5.2836 C   0  0  0  0  0  0  0  0  0  0  0  0
   58.9732  -35.3057   -5.6493 C   0  0  0  0  0  0  0  0  0  0  0  0
   59.0169  -34.5624   -6.9740 C   0  0  0  0  0  0  0  0  0  0  0  0
   59.8248  -35.1405   -9.0930 C   0  0  0  0  0  0  0  0  0  0  0  0
   59.4450  -35.7365  -10.4317 C   0  0  0  0  0  0  0  0  0  0  0  0
   57.9526  -34.6514  -11.9681 C   0  0  0  0  0  0  0  0  0  0  0  0
   56.5119  -34.6582  -12.4370 C   0  0  0  0  0  0  0  0  0  0  0  0
   55.7563  -33.4673  -11.9724 C   0  0  0  0  0  0  0  0  0  0  0  0
   57.3733  -34.8780   -9.6835 C   0  0  0  0  0  0  0  0  0  0  0  0
   57.5889  -35.7597   -8.4543 C   0  0  0  0  0  0  0  0  0  0  0  0
   58.9420  -35.5619   -8.0281 N   0  0  2  0  0  4  0  0  0  0  0  0
   58.0665  -35.4812  -10.7824 N   0  0  2  0  0  4  0  0  0  0  0  0
   57.1911  -36.8685   -5.3896 O   0  0  0  0  0  0  0  0  0  0  0  0
   56.4016  -32.3628  -12.0181 O   0  0  0  0  0  0  0  0  0  0  0  0
   45.2807  -39.0030    0.7917 H   0  0  0  0  0  0  0  0  0  0  0  0
   48.0428  -35.0018    1.6200 H   0  0  0  0  0  0  0  0  0  0  0  0
   51.6795  -36.4308  -20.4563 H   0  0  0  0  0  0  0  0  0  0  0  0
  2  1  1  1
  2  3  1  0
  5  2  1  0
  3  4  2  0
  3 10  1  0
  6  5  1  0
  7  6  1  0
  8  7  1  0
  9  8  1  0
 60  9  1  0
 10 11  1  0
 11 12  1  0
 11 14  1  1
 12 13  2  0
 21 12  1  0
 14 15  1  0
 15 16  1  0
 16 17  1  0
 17 18  1  0
 18 19  2  0
 18 20  1  0
 22 21  1  0
 23 22  1  0
 22 25  1  1
 23 24  2  0
 32 23  1  0
 25 26  1  0
 26 27  1  0
 27 28  1  0
 28 29  1  0
 29 30  1  0
 29 31  2  0
 33 32  1  6
 33 34  1  0
 38 33  1  0
 34 35  1  1
 34 36  1  0
 34 37  1  0
 38 39  2  0
 40 38  1  0
 41 40  1  0
 41 42  1  6
 44 41  1  0
 42 43  2  0
 42 49  1  0
 45 44  1  0
 46 45  1  0
 47 46  1  0
 48 47  1  0
 67 48  1  0
 49 50  1  0
 50 51  1  0
 51 52  2  0
 51 59  1  0
 52 53  1  0
 53 54  2  0
 54 55  1  0
 58 54  1  0
 55 56  2  0
 55 57  1  0
 59 58  2  0
 61 60  1  0
 60 72  2  0
 62 61  1  0
 70 62  1  1
 64 63  1  0
 63 70  1  0
 71 64  1  1
 65 66  1  0
 71 65  1  0
 66 67  1  0
 67 73  2  0
 68 69  1  0
 68 71  1  0
 69 70  1  0
 19 74  1  0
 31 75  1  0
 56 76  1  0
M  CHG  3   1   1  70   1  71   1
M  END
$$$$
