
     RDKit          3D

 20 22  0  0  0  0  0  0  0  0999 V2000
   64.5831   35.1179   23.0012 C   0  0  0  0  0  0  0  0  0  0  0  0
   64.5561   34.2363   24.1571 C   0  0  0  0  0  0  0  0  0  0  0  0
   64.9998   36.8035   21.6496 N   0  0  0  0  0  0  0  0  0  0  0  0
   65.7088   33.7969   24.7763 C   0  0  0  0  0  0  0  0  0  0  0  0
   63.3611   33.7966   24.6754 C   0  0  0  0  0  0  0  0  0  0  0  0
   64.2303   35.9620   20.9209 C   0  0  0  0  0  0  0  0  0  0  0  0
   65.3798   37.7338   24.8215 C   0  0  0  0  0  0  0  0  0  0  0  0
   67.3818   36.9792   23.7849 C   0  0  0  0  0  0  0  0  0  0  0  0
   65.6831   32.9519   25.8705 C   0  0  0  0  0  0  0  0  0  0  0  0
   63.3108   32.9473   25.7745 C   0  0  0  0  0  0  0  0  0  0  0  0
   66.1653   38.4085   25.7419 C   0  0  0  0  0  0  0  0  0  0  0  0
   68.1426   37.6622   24.7168 C   0  0  0  0  0  0  0  0  0  0  0  0
   64.4843   32.5387   26.3547 C   0  0  0  0  0  0  0  0  0  0  0  0
   65.2027   36.3004   22.8705 N   0  0  0  0  0  0  0  0  0  0  0  0
   63.9738   34.9102   21.7728 C   0  0  0  0  0  0  0  0  0  0  0  0
   65.9923   37.0031   23.8211 C   0  0  0  0  0  0  0  0  0  0  0  0
   67.5391   38.3902   25.7136 C   0  0  0  0  0  0  0  0  0  0  0  0
   68.1861   36.0617   22.5287 Cl  0  0  0  0  0  0  0  0  0  0  0  0
   62.1287   34.1704   24.1356 O   0  0  0  0  0  0  0  0  0  0  0  0
   64.4644   31.6780   27.4700 O   0  0  0  0  0  0  0  0  0  0  0  0
  1  2  1  0
 14  1  1  0
  1 15  2  0
  2  4  2  0
  2  5  1  0
  3  6  2  0
 14  3  1  0
  4  9  1  0
  5 10  2  0
  5 19  1  0
  6 15  1  0
  7 11  2  0
 16  7  1  0
  8 12  1  0
 16  8  2  0
  8 18  1  0
  9 13  2  0
 10 13  1  0
 11 17  1  0
 12 17  2  0
 13 20  1  0
 14 16  1  0
M  END
$$$$
