
     RDKit          3D

 20 22  0  0  0  0  0  0  0  0999 V2000
   64.5839   35.0677   22.9652 C   0  0  0  0  0  0  0  0  0  0  0  0
   64.4969   34.1802   24.1136 C   0  0  0  0  0  0  0  0  0  0  0  0
   65.2067   36.6562   21.5757 N   0  0  0  0  0  0  0  0  0  0  0  0
   65.6169   33.6554   24.7262 C   0  0  0  0  0  0  0  0  0  0  0  0
   63.2748   33.8212   24.6309 C   0  0  0  0  0  0  0  0  0  0  0  0
   64.1835   36.0325   20.9469 C   0  0  0  0  0  0  0  0  0  0  0  0
   67.7947   36.3130   23.2855 C   0  0  0  0  0  0  0  0  0  0  0  0
   66.2058   37.2839   24.7635 C   0  0  0  0  0  0  0  0  0  0  0  0
   65.5337   32.8049   25.8133 C   0  0  0  0  0  0  0  0  0  0  0  0
   63.1668   32.9680   25.7228 C   0  0  0  0  0  0  0  0  0  0  0  0
   68.7930   36.7899   24.1194 C   0  0  0  0  0  0  0  0  0  0  0  0
   67.2220   37.7487   25.5789 C   0  0  0  0  0  0  0  0  0  0  0  0
   64.3096   32.4729   26.2968 C   0  0  0  0  0  0  0  0  0  0  0  0
   65.4359   36.0834   22.7607 N   0  0  0  0  0  0  0  0  0  0  0  0
   63.7993   35.0402   21.8219 C   0  0  0  0  0  0  0  0  0  0  0  0
   66.4736   36.5606   23.6069 C   0  0  0  0  0  0  0  0  0  0  0  0
   68.5372   37.5055   25.2644 C   0  0  0  0  0  0  0  0  0  0  0  0
   64.5412   37.6132   25.1966 Cl  0  0  0  0  0  0  0  0  0  0  0  0
   62.0709   34.2854   24.0973 O   0  0  0  0  0  0  0  0  0  0  0  0
   64.2312   31.6060   27.4047 O   0  0  0  0  0  0  0  0  0  0  0  0
  1  2  1  0
 14  1  1  0
  1 15  2  0
  2  4  2  0
  2  5  1  0
  3  6  2  0
 14  3  1  0
  4  9  1  0
  5 10  2  0
  5 19  1  0
  6 15  1  0
  7 11  2  0
 16  7  1  0
  8 12  1  0
 16  8  2  0
  8 18  1  0
  9 13  2  0
 10 13  1  0
 11 17  1  0
 12 17  2  0
 13 20  1  0
 14 16  1  0
M  END
$$$$
