
     RDKit          3D

 20 22  0  0  0  0  0  0  0  0999 V2000
   64.6467   35.0215   22.9294 C   0  0  0  0  0  0  0  0  0  0  0  0
   64.6126   34.1360   24.0702 C   0  0  0  0  0  0  0  0  0  0  0  0
   65.0351   36.6867   21.6178 N   0  0  0  0  0  0  0  0  0  0  0  0
   65.7745   33.6358   24.6588 C   0  0  0  0  0  0  0  0  0  0  0  0
   63.4104   33.7707   24.6205 C   0  0  0  0  0  0  0  0  0  0  0  0
   64.2646   35.8682   20.9145 C   0  0  0  0  0  0  0  0  0  0  0  0
   65.4165   37.5331   24.8350 C   0  0  0  0  0  0  0  0  0  0  0  0
   67.4399   36.9343   23.7739 C   0  0  0  0  0  0  0  0  0  0  0  0
   65.7174   32.8028   25.7551 C   0  0  0  0  0  0  0  0  0  0  0  0
   63.3579   32.9226   25.7361 C   0  0  0  0  0  0  0  0  0  0  0  0
   66.1168   38.2341   25.8059 C   0  0  0  0  0  0  0  0  0  0  0  0
   68.1592   37.6287   24.7334 C   0  0  0  0  0  0  0  0  0  0  0  0
   64.5114   32.4337   26.3099 C   0  0  0  0  0  0  0  0  0  0  0  0
   65.2723   36.1814   22.8425 N   0  0  0  0  0  0  0  0  0  0  0  0
   63.9952   34.8006   21.7082 C   0  0  0  0  0  0  0  0  0  0  0  0
   66.0599   36.8680   23.7981 C   0  0  0  0  0  0  0  0  0  0  0  0
   67.5046   38.2838   25.7565 C   0  0  0  0  0  0  0  0  0  0  0  0
   68.2739   36.1040   22.4767 Cl  0  0  0  0  0  0  0  0  0  0  0  0
   62.2240   34.2349   24.0846 O   0  0  0  0  0  0  0  0  0  0  0  0
   64.4964   31.5856   27.4232 O   0  0  0  0  0  0  0  0  0  0  0  0
  1  2  1  0
 14  1  1  0
  1 15  2  0
  2  4  2  0
  2  5  1  0
  3  6  2  0
 14  3  1  0
  4  9  1  0
  5 10  2  0
  5 19  1  0
  6 15  1  0
  7 11  2  0
 16  7  1  0
  8 12  1  0
 16  8  2  0
  8 18  1  0
  9 13  2  0
 10 13  1  0
 11 17  1  0
 12 17  2  0
 13 20  1  0
 14 16  1  0
M  END
$$$$
