
     RDKit          3D

 20 22  0  0  0  0  0  0  0  0999 V2000
   64.7838   35.1407   22.7800 C   0  0  0  0  0  0  0  0  0  0  0  0
   64.7270   34.2601   23.9237 C   0  0  0  0  0  0  0  0  0  0  0  0
   65.1941   36.8025   21.4708 N   0  0  0  0  0  0  0  0  0  0  0  0
   65.8771   33.7747   24.5469 C   0  0  0  0  0  0  0  0  0  0  0  0
   63.5137   33.8847   24.4420 C   0  0  0  0  0  0  0  0  0  0  0  0
   64.4465   35.9760   20.7524 C   0  0  0  0  0  0  0  0  0  0  0  0
   65.4895   37.6898   24.6758 C   0  0  0  0  0  0  0  0  0  0  0  0
   67.5440   37.0526   23.7001 C   0  0  0  0  0  0  0  0  0  0  0  0
   65.7980   32.9462   25.6452 C   0  0  0  0  0  0  0  0  0  0  0  0
   63.4389   33.0412   25.5598 C   0  0  0  0  0  0  0  0  0  0  0  0
   66.1611   38.4012   25.6593 C   0  0  0  0  0  0  0  0  0  0  0  0
   68.2349   37.7570   24.6731 C   0  0  0  0  0  0  0  0  0  0  0  0
   64.5809   32.5670   26.1679 C   0  0  0  0  0  0  0  0  0  0  0  0
   65.4041   36.3042   22.7033 N   0  0  0  0  0  0  0  0  0  0  0  0
   64.1642   34.9102   21.5441 C   0  0  0  0  0  0  0  0  0  0  0  0
   66.1633   37.0001   23.6750 C   0  0  0  0  0  0  0  0  0  0  0  0
   67.5502   38.4366   25.6599 C   0  0  0  0  0  0  0  0  0  0  0  0
   68.4160   36.1912   22.4491 Cl  0  0  0  0  0  0  0  0  0  0  0  0
   62.3380   34.3340   23.8710 O   0  0  0  0  0  0  0  0  0  0  0  0
   64.5435   31.7238   27.2844 O   0  0  0  0  0  0  0  0  0  0  0  0
  1  2  1  0
 14  1  1  0
  1 15  2  0
  2  4  2  0
  2  5  1  0
  3  6  2  0
 14  3  1  0
  4  9  1  0
  5 10  2  0
  5 19  1  0
  6 15  1  0
  7 11  2  0
 16  7  1  0
  8 12  1  0
 16  8  2  0
  8 18  1  0
  9 13  2  0
 10 13  1  0
 11 17  1  0
 12 17  2  0
 13 20  1  0
 14 16  1  0
M  END
$$$$
