
     RDKit          3D

 20 22  0  0  0  0  0  0  0  0999 V2000
   64.5726   35.1029   22.8813 C   0  0  0  0  0  0  0  0  0  0  0  0
   64.4937   34.2050   24.0101 C   0  0  0  0  0  0  0  0  0  0  0  0
   65.1323   36.7004   21.5477 N   0  0  0  0  0  0  0  0  0  0  0  0
   65.6313   33.6773   24.6221 C   0  0  0  0  0  0  0  0  0  0  0  0
   63.2717   33.8547   24.5253 C   0  0  0  0  0  0  0  0  0  0  0  0
   64.1382   36.0733   20.9340 C   0  0  0  0  0  0  0  0  0  0  0  0
   67.7430   36.3412   23.2723 C   0  0  0  0  0  0  0  0  0  0  0  0
   66.1833   37.3266   24.7471 C   0  0  0  0  0  0  0  0  0  0  0  0
   65.5315   32.8329   25.7064 C   0  0  0  0  0  0  0  0  0  0  0  0
   63.1758   32.9948   25.6289 C   0  0  0  0  0  0  0  0  0  0  0  0
   68.7922   36.7769   24.0684 C   0  0  0  0  0  0  0  0  0  0  0  0
   67.2162   37.7714   25.5567 C   0  0  0  0  0  0  0  0  0  0  0  0
   64.3055   32.4788   26.2258 C   0  0  0  0  0  0  0  0  0  0  0  0
   65.4031   36.1187   22.7308 N   0  0  0  0  0  0  0  0  0  0  0  0
   63.7540   35.0546   21.7446 C   0  0  0  0  0  0  0  0  0  0  0  0
   66.4165   36.6051   23.5919 C   0  0  0  0  0  0  0  0  0  0  0  0
   68.5280   37.5007   25.2247 C   0  0  0  0  0  0  0  0  0  0  0  0
   64.5195   37.6719   25.1713 Cl  0  0  0  0  0  0  0  0  0  0  0  0
   62.1077   34.3461   23.9650 O   0  0  0  0  0  0  0  0  0  0  0  0
   64.2470   31.6182   27.3281 O   0  0  0  0  0  0  0  0  0  0  0  0
  1  2  1  0
 14  1  1  0
  1 15  2  0
  2  4  2  0
  2  5  1  0
  3  6  2  0
 14  3  1  0
  4  9  1  0
  5 10  2  0
  5 19  1  0
  6 15  1  0
  7 11  2  0
 16  7  1  0
  8 12  1  0
 16  8  2  0
  8 18  1  0
  9 13  2  0
 10 13  1  0
 11 17  1  0
 12 17  2  0
 13 20  1  0
 14 16  1  0
M  END
$$$$
