
     RDKit          3D

 20 22  0  0  0  0  0  0  0  0999 V2000
   64.7929   35.0122   22.8073 C   0  0  0  0  0  0  0  0  0  0  0  0
   64.7021   34.1558   23.9671 C   0  0  0  0  0  0  0  0  0  0  0  0
   65.3803   36.5479   21.4144 N   0  0  0  0  0  0  0  0  0  0  0  0
   65.8331   33.6519   24.6103 C   0  0  0  0  0  0  0  0  0  0  0  0
   63.4746   33.8234   24.4811 C   0  0  0  0  0  0  0  0  0  0  0  0
   64.3645   35.9262   20.8315 C   0  0  0  0  0  0  0  0  0  0  0  0
   67.9981   36.1858   23.1235 C   0  0  0  0  0  0  0  0  0  0  0  0
   66.4779   37.2510   24.5841 C   0  0  0  0  0  0  0  0  0  0  0  0
   65.7218   32.8474   25.7235 C   0  0  0  0  0  0  0  0  0  0  0  0
   63.3670   33.0040   25.6141 C   0  0  0  0  0  0  0  0  0  0  0  0
   69.0658   36.6215   23.8945 C   0  0  0  0  0  0  0  0  0  0  0  0
   67.5298   37.6965   25.3685 C   0  0  0  0  0  0  0  0  0  0  0  0
   64.4903   32.5112   26.2419 C   0  0  0  0  0  0  0  0  0  0  0  0
   65.6476   36.0004   22.6145 N   0  0  0  0  0  0  0  0  0  0  0  0
   63.9623   34.9462   21.6802 C   0  0  0  0  0  0  0  0  0  0  0  0
   66.6816   36.4894   23.4492 C   0  0  0  0  0  0  0  0  0  0  0  0
   68.8313   37.3860   25.0309 C   0  0  0  0  0  0  0  0  0  0  0  0
   64.8272   37.6469   25.0155 Cl  0  0  0  0  0  0  0  0  0  0  0  0
   62.3166   34.2929   23.8905 O   0  0  0  0  0  0  0  0  0  0  0  0
   64.4202   31.6912   27.3740 O   0  0  0  0  0  0  0  0  0  0  0  0
  1  2  1  0
 14  1  1  0
  1 15  2  0
  2  4  2  0
  2  5  1  0
  3  6  2  0
 14  3  1  0
  4  9  1  0
  5 10  2  0
  5 19  1  0
  6 15  1  0
  7 11  2  0
 16  7  1  0
  8 12  1  0
 16  8  2  0
  8 18  1  0
  9 13  2  0
 10 13  1  0
 11 17  1  0
 12 17  2  0
 13 20  1  0
 14 16  1  0
M  END
$$$$
