
     RDKit          3D

 20 22  0  0  0  0  0  0  0  0999 V2000
   64.8888   35.2579   23.0834 C   0  0  0  0  0  0  0  0  0  0  0  0
   64.6606   34.4047   24.2265 C   0  0  0  0  0  0  0  0  0  0  0  0
   65.7913   36.5752   21.6364 N   0  0  0  0  0  0  0  0  0  0  0  0
   65.5559   34.3365   25.2945 C   0  0  0  0  0  0  0  0  0  0  0  0
   63.5265   33.6362   24.2947 C   0  0  0  0  0  0  0  0  0  0  0  0
   64.5390   36.4229   21.2279 C   0  0  0  0  0  0  0  0  0  0  0  0
   68.2067   34.9122   23.0538 C   0  0  0  0  0  0  0  0  0  0  0  0
   67.6405   36.7693   24.3991 C   0  0  0  0  0  0  0  0  0  0  0  0
   65.3103   33.5249   26.3808 C   0  0  0  0  0  0  0  0  0  0  0  0
   63.2815   32.8118   25.4024 C   0  0  0  0  0  0  0  0  0  0  0  0
   69.4574   34.8440   23.6498 C   0  0  0  0  0  0  0  0  0  0  0  0
   68.8845   36.7191   25.0076 C   0  0  0  0  0  0  0  0  0  0  0  0
   64.1723   32.7515   26.4520 C   0  0  0  0  0  0  0  0  0  0  0  0
   66.0130   35.8720   22.7623 N   0  0  0  0  0  0  0  0  0  0  0  0
   63.9320   35.5957   22.1165 C   0  0  0  0  0  0  0  0  0  0  0  0
   67.2704   35.8743   23.4134 C   0  0  0  0  0  0  0  0  0  0  0  0
   69.8026   35.7572   24.6387 C   0  0  0  0  0  0  0  0  0  0  0  0
   66.4776   37.9914   24.8697 Cl  0  0  0  0  0  0  0  0  0  0  0  0
   62.5997   33.6615   23.2697 O   0  0  0  0  0  0  0  0  0  0  0  0
   63.9600   31.9403   27.5727 O   0  0  0  0  0  0  0  0  0  0  0  0
  1  2  1  0
 14  1  1  0
  1 15  2  0
  2  4  2  0
  2  5  1  0
  3  6  2  0
 14  3  1  0
  4  9  1  0
  5 10  2  0
  5 19  1  0
  6 15  1  0
  7 11  2  0
 16  7  1  0
  8 12  1  0
 16  8  2  0
  8 18  1  0
  9 13  2  0
 10 13  1  0
 11 17  1  0
 12 17  2  0
 13 20  1  0
 14 16  1  0
M  END
$$$$
