
     RDKit          3D

 20 22  0  0  0  0  0  0  0  0999 V2000
   64.4438   35.0136   22.9478 C   0  0  0  0  0  0  0  0  0  0  0  0
   64.4170   34.1091   24.0738 C   0  0  0  0  0  0  0  0  0  0  0  0
   64.8173   36.7040   21.6645 N   0  0  0  0  0  0  0  0  0  0  0  0
   65.5830   33.6521   24.6890 C   0  0  0  0  0  0  0  0  0  0  0  0
   63.2173   33.6811   24.5828 C   0  0  0  0  0  0  0  0  0  0  0  0
   64.0557   35.8898   20.9467 C   0  0  0  0  0  0  0  0  0  0  0  0
   65.1846   37.5531   24.8607 C   0  0  0  0  0  0  0  0  0  0  0  0
   67.2191   36.8907   23.8601 C   0  0  0  0  0  0  0  0  0  0  0  0
   65.5322   32.7998   25.7705 C   0  0  0  0  0  0  0  0  0  0  0  0
   63.1713   32.8134   25.6835 C   0  0  0  0  0  0  0  0  0  0  0  0
   65.8770   38.2482   25.8413 C   0  0  0  0  0  0  0  0  0  0  0  0
   67.9305   37.5786   24.8301 C   0  0  0  0  0  0  0  0  0  0  0  0
   64.3288   32.3677   26.2838 C   0  0  0  0  0  0  0  0  0  0  0  0
   65.0580   36.1808   22.8810 N   0  0  0  0  0  0  0  0  0  0  0  0
   63.7958   34.8065   21.7223 C   0  0  0  0  0  0  0  0  0  0  0  0
   65.8377   36.8592   23.8489 C   0  0  0  0  0  0  0  0  0  0  0  0
   67.2665   38.2625   25.8278 C   0  0  0  0  0  0  0  0  0  0  0  0
   68.0651   36.0237   22.5952 Cl  0  0  0  0  0  0  0  0  0  0  0  0
   62.0270   34.0999   24.0190 O   0  0  0  0  0  0  0  0  0  0  0  0
   64.3202   31.5018   27.3834 O   0  0  0  0  0  0  0  0  0  0  0  0
  1  2  1  0
 14  1  1  0
  1 15  2  0
  2  4  2  0
  2  5  1  0
  3  6  2  0
 14  3  1  0
  4  9  1  0
  5 10  2  0
  5 19  1  0
  6 15  1  0
  7 11  2  0
 16  7  1  0
  8 12  1  0
 16  8  2  0
  8 18  1  0
  9 13  2  0
 10 13  1  0
 11 17  1  0
 12 17  2  0
 13 20  1  0
 14 16  1  0
M  END
$$$$
