
     RDKit          3D

 20 22  0  0  0  0  0  0  0  0999 V2000
   64.6937   35.0933   23.0412 C   0  0  0  0  0  0  0  0  0  0  0  0
   64.6196   34.2389   24.2036 C   0  0  0  0  0  0  0  0  0  0  0  0
   65.2153   36.6660   21.6634 N   0  0  0  0  0  0  0  0  0  0  0  0
   65.7563   33.6849   24.7934 C   0  0  0  0  0  0  0  0  0  0  0  0
   63.4040   33.9585   24.7738 C   0  0  0  0  0  0  0  0  0  0  0  0
   64.2859   35.9563   21.0383 C   0  0  0  0  0  0  0  0  0  0  0  0
   67.7607   36.4293   23.5803 C   0  0  0  0  0  0  0  0  0  0  0  0
   66.0986   37.5809   24.8011 C   0  0  0  0  0  0  0  0  0  0  0  0
   65.6620   32.8831   25.9102 C   0  0  0  0  0  0  0  0  0  0  0  0
   63.3136   33.1418   25.9102 C   0  0  0  0  0  0  0  0  0  0  0  0
   68.7473   36.9520   24.4035 C   0  0  0  0  0  0  0  0  0  0  0  0
   67.0680   38.1142   25.6353 C   0  0  0  0  0  0  0  0  0  0  0  0
   64.4424   32.5993   26.4849 C   0  0  0  0  0  0  0  0  0  0  0  0
   65.4694   36.1501   22.8802 N   0  0  0  0  0  0  0  0  0  0  0  0
   63.9278   34.9502   21.8761 C   0  0  0  0  0  0  0  0  0  0  0  0
   66.4157   36.7306   23.7590 C   0  0  0  0  0  0  0  0  0  0  0  0
   68.3992   37.8047   25.4440 C   0  0  0  0  0  0  0  0  0  0  0  0
   64.4100   37.9757   25.0468 Cl  0  0  0  0  0  0  0  0  0  0  0  0
   62.2413   34.4791   24.2377 O   0  0  0  0  0  0  0  0  0  0  0  0
   64.3893   31.7803   27.6187 O   0  0  0  0  0  0  0  0  0  0  0  0
  1  2  1  0
 14  1  1  0
  1 15  2  0
  2  4  2  0
  2  5  1  0
  3  6  2  0
 14  3  1  0
  4  9  1  0
  5 10  2  0
  5 19  1  0
  6 15  1  0
  7 11  2  0
 16  7  1  0
  8 12  1  0
 16  8  2  0
  8 18  1  0
  9 13  2  0
 10 13  1  0
 11 17  1  0
 12 17  2  0
 13 20  1  0
 14 16  1  0
M  END
$$$$
