
     RDKit          3D

 20 22  0  0  0  0  0  0  0  0999 V2000
   64.3973   34.9526   22.8753 C   0  0  0  0  0  0  0  0  0  0  0  0
   64.3851   34.0624   24.0247 C   0  0  0  0  0  0  0  0  0  0  0  0
   64.8106   36.6400   21.5248 N   0  0  0  0  0  0  0  0  0  0  0  0
   65.5457   33.5947   24.6074 C   0  0  0  0  0  0  0  0  0  0  0  0
   63.1965   33.6425   24.5735 C   0  0  0  0  0  0  0  0  0  0  0  0
   64.0020   35.8212   20.8127 C   0  0  0  0  0  0  0  0  0  0  0  0
   65.3068   37.4603   24.7430 C   0  0  0  0  0  0  0  0  0  0  0  0
   67.2545   36.8212   23.5389 C   0  0  0  0  0  0  0  0  0  0  0  0
   65.5338   32.7415   25.6955 C   0  0  0  0  0  0  0  0  0  0  0  0
   63.1601   32.7855   25.6670 C   0  0  0  0  0  0  0  0  0  0  0  0
   66.1336   38.1115   25.6440 C   0  0  0  0  0  0  0  0  0  0  0  0
   68.0572   37.4794   24.4533 C   0  0  0  0  0  0  0  0  0  0  0  0
   64.3410   32.3486   26.2105 C   0  0  0  0  0  0  0  0  0  0  0  0
   65.0383   36.1226   22.7354 N   0  0  0  0  0  0  0  0  0  0  0  0
   63.7479   34.7681   21.6638 C   0  0  0  0  0  0  0  0  0  0  0  0
   65.8704   36.8004   23.6675 C   0  0  0  0  0  0  0  0  0  0  0  0
   67.5024   38.1371   25.5245 C   0  0  0  0  0  0  0  0  0  0  0  0
   67.9974   35.9937   22.1860 Cl  0  0  0  0  0  0  0  0  0  0  0  0
   61.9572   34.0455   24.0719 O   0  0  0  0  0  0  0  0  0  0  0  0
   64.3352   31.4793   27.3193 O   0  0  0  0  0  0  0  0  0  0  0  0
  1  2  1  0
 14  1  1  0
  1 15  2  0
  2  4  2  0
  2  5  1  0
  3  6  2  0
 14  3  1  0
  4  9  1  0
  5 10  2  0
  5 19  1  0
  6 15  1  0
  7 11  2  0
 16  7  1  0
  8 12  1  0
 16  8  2  0
  8 18  1  0
  9 13  2  0
 10 13  1  0
 11 17  1  0
 12 17  2  0
 13 20  1  0
 14 16  1  0
M  END
$$$$
