
     RDKit          3D

 20 22  0  0  0  0  0  0  0  0999 V2000
   67.2194   34.0362   25.5247 C   0  0  0  0  0  0  0  0  0  0  0  0
   65.8633   33.7449   25.0888 C   0  0  0  0  0  0  0  0  0  0  0  0
   69.4088   34.0182   25.7443 N   0  0  0  0  0  0  0  0  0  0  0  0
   65.4619   33.8970   23.7769 C   0  0  0  0  0  0  0  0  0  0  0  0
   64.9171   33.3091   25.9859 C   0  0  0  0  0  0  0  0  0  0  0  0
   68.9858   34.9729   26.6051 C   0  0  0  0  0  0  0  0  0  0  0  0
   68.9160   32.7747   22.8546 C   0  0  0  0  0  0  0  0  0  0  0  0
   68.4019   31.1017   24.4635 C   0  0  0  0  0  0  0  0  0  0  0  0
   64.1699   33.6277   23.3642 C   0  0  0  0  0  0  0  0  0  0  0  0
   63.6127   33.0322   25.5939 C   0  0  0  0  0  0  0  0  0  0  0  0
   69.1043   31.7613   21.9289 C   0  0  0  0  0  0  0  0  0  0  0  0
   68.5961   30.1093   23.5195 C   0  0  0  0  0  0  0  0  0  0  0  0
   63.2630   33.1989   24.2785 C   0  0  0  0  0  0  0  0  0  0  0  0
   68.3651   33.4727   25.1133 N   0  0  0  0  0  0  0  0  0  0  0  0
   67.6156   34.9784   26.4621 C   0  0  0  0  0  0  0  0  0  0  0  0
   68.5579   32.4467   24.1485 C   0  0  0  0  0  0  0  0  0  0  0  0
   68.9521   30.4295   22.2317 C   0  0  0  0  0  0  0  0  0  0  0  0
   67.9486   30.6555   26.0951 Cl  0  0  0  0  0  0  0  0  0  0  0  0
   65.2014   33.1183   27.3397 O   0  0  0  0  0  0  0  0  0  0  0  0
   61.9481   32.9260   23.8519 O   0  0  0  0  0  0  0  0  0  0  0  0
  1  2  1  0
 14  1  1  0
  1 15  2  0
  2  4  2  0
  2  5  1  0
  3  6  2  0
 14  3  1  0
  4  9  1  0
  5 10  2  0
  5 19  1  0
  6 15  1  0
  7 11  2  0
 16  7  1  0
  8 12  1  0
 16  8  2  0
  8 18  1  0
  9 13  2  0
 10 13  1  0
 11 17  1  0
 12 17  2  0
 13 20  1  0
 14 16  1  0
M  END
$$$$
