
     RDKit          3D

 20 22  0  0  0  0  0  0  0  0999 V2000
   64.6475   35.0229   23.0816 C   0  0  0  0  0  0  0  0  0  0  0  0
   64.6058   34.1184   24.2072 C   0  0  0  0  0  0  0  0  0  0  0  0
   65.0351   36.7147   21.8044 N   0  0  0  0  0  0  0  0  0  0  0  0
   65.7641   33.6162   24.8015 C   0  0  0  0  0  0  0  0  0  0  0  0
   63.3997   33.7359   24.7368 C   0  0  0  0  0  0  0  0  0  0  0  0
   64.2893   35.8971   21.0742 C   0  0  0  0  0  0  0  0  0  0  0  0
   65.3453   37.5545   25.0139 C   0  0  0  0  0  0  0  0  0  0  0  0
   67.3988   36.9226   24.0328 C   0  0  0  0  0  0  0  0  0  0  0  0
   65.6995   32.7649   25.8831 C   0  0  0  0  0  0  0  0  0  0  0  0
   63.3397   32.8690   25.8375 C   0  0  0  0  0  0  0  0  0  0  0  0
   66.0180   38.2520   26.0065 C   0  0  0  0  0  0  0  0  0  0  0  0
   68.0908   37.6133   25.0148 C   0  0  0  0  0  0  0  0  0  0  0  0
   64.4896   32.3784   26.4170 C   0  0  0  0  0  0  0  0  0  0  0  0
   65.2577   36.1928   23.0249 N   0  0  0  0  0  0  0  0  0  0  0  0
   64.0211   34.8128   21.8455 C   0  0  0  0  0  0  0  0  0  0  0  0
   66.0181   36.8747   24.0056 C   0  0  0  0  0  0  0  0  0  0  0  0
   67.4072   38.2831   26.0089 C   0  0  0  0  0  0  0  0  0  0  0  0
   68.2695   36.0735   22.7725 Cl  0  0  0  0  0  0  0  0  0  0  0  0
   62.2166   34.2008   24.1943 O   0  0  0  0  0  0  0  0  0  0  0  0
   64.4671   31.5119   27.5160 O   0  0  0  0  0  0  0  0  0  0  0  0
  1  2  1  0
 14  1  1  0
  1 15  2  0
  2  4  2  0
  2  5  1  0
  3  6  2  0
 14  3  1  0
  4  9  1  0
  5 10  2  0
  5 19  1  0
  6 15  1  0
  7 11  2  0
 16  7  1  0
  8 12  1  0
 16  8  2  0
  8 18  1  0
  9 13  2  0
 10 13  1  0
 11 17  1  0
 12 17  2  0
 13 20  1  0
 14 16  1  0
M  END
$$$$
