
     RDKit          3D

 20 22  0  0  0  0  0  0  0  0999 V2000
   64.9285   35.1775   22.9124 C   0  0  0  0  0  0  0  0  0  0  0  0
   64.8213   34.3051   24.0705 C   0  0  0  0  0  0  0  0  0  0  0  0
   65.5856   36.7377   21.5068 N   0  0  0  0  0  0  0  0  0  0  0  0
   65.9307   33.7984   24.7169 C   0  0  0  0  0  0  0  0  0  0  0  0
   63.5902   33.9425   24.5634 C   0  0  0  0  0  0  0  0  0  0  0  0
   64.5520   36.1269   20.8821 C   0  0  0  0  0  0  0  0  0  0  0  0
   68.1577   36.3107   23.2624 C   0  0  0  0  0  0  0  0  0  0  0  0
   66.5930   37.4346   24.6555 C   0  0  0  0  0  0  0  0  0  0  0  0
   65.8284   32.9620   25.8134 C   0  0  0  0  0  0  0  0  0  0  0  0
   63.4632   33.1034   25.6641 C   0  0  0  0  0  0  0  0  0  0  0  0
   69.1631   36.7783   24.0929 C   0  0  0  0  0  0  0  0  0  0  0  0
   67.6161   37.8883   25.4685 C   0  0  0  0  0  0  0  0  0  0  0  0
   64.5959   32.6260   26.2720 C   0  0  0  0  0  0  0  0  0  0  0  0
   65.8006   36.1741   22.6988 N   0  0  0  0  0  0  0  0  0  0  0  0
   64.1464   35.1523   21.7673 C   0  0  0  0  0  0  0  0  0  0  0  0
   66.8452   36.6408   23.5424 C   0  0  0  0  0  0  0  0  0  0  0  0
   68.9228   37.5633   25.1950 C   0  0  0  0  0  0  0  0  0  0  0  0
   64.9397   37.8692   25.0355 Cl  0  0  0  0  0  0  0  0  0  0  0  0
   62.3956   34.3890   23.9948 O   0  0  0  0  0  0  0  0  0  0  0  0
   64.4982   31.7736   27.3896 O   0  0  0  0  0  0  0  0  0  0  0  0
  1  2  1  0
 14  1  1  0
  1 15  2  0
  2  4  2  0
  2  5  1  0
  3  6  2  0
 14  3  1  0
  4  9  1  0
  5 10  2  0
  5 19  1  0
  6 15  1  0
  7 11  2  0
 16  7  1  0
  8 12  1  0
 16  8  2  0
  8 18  1  0
  9 13  2  0
 10 13  1  0
 11 17  1  0
 12 17  2  0
 13 20  1  0
 14 16  1  0
M  END
$$$$
