
     RDKit          3D

 20 22  0  0  0  0  0  0  0  0999 V2000
   64.7634   34.9099   23.1656 C   0  0  0  0  0  0  0  0  0  0  0  0
   64.7122   34.0108   24.3070 C   0  0  0  0  0  0  0  0  0  0  0  0
   65.1970   36.6223   21.8536 N   0  0  0  0  0  0  0  0  0  0  0  0
   65.8524   33.5455   24.9307 C   0  0  0  0  0  0  0  0  0  0  0  0
   63.5060   33.5797   24.8062 C   0  0  0  0  0  0  0  0  0  0  0  0
   64.4668   35.7795   21.0869 C   0  0  0  0  0  0  0  0  0  0  0  0
   65.5829   37.9380   24.6490 C   0  0  0  0  0  0  0  0  0  0  0  0
   67.3736   36.3850   24.4662 C   0  0  0  0  0  0  0  0  0  0  0  0
   65.8036   32.6838   26.0111 C   0  0  0  0  0  0  0  0  0  0  0  0
   63.4326   32.7140   25.8910 C   0  0  0  0  0  0  0  0  0  0  0  0
   66.3213   38.6058   25.6124 C   0  0  0  0  0  0  0  0  0  0  0  0
   68.0899   37.0707   25.4308 C   0  0  0  0  0  0  0  0  0  0  0  0
   64.5942   32.2799   26.4765 C   0  0  0  0  0  0  0  0  0  0  0  0
   65.3671   36.1043   23.0732 N   0  0  0  0  0  0  0  0  0  0  0  0
   64.1994   34.7109   21.9144 C   0  0  0  0  0  0  0  0  0  0  0  0
   66.1122   36.8054   24.0601 C   0  0  0  0  0  0  0  0  0  0  0  0
   67.5687   38.1973   26.0197 C   0  0  0  0  0  0  0  0  0  0  0  0
   68.0704   34.9530   23.7377 Cl  0  0  0  0  0  0  0  0  0  0  0  0
   62.2845   33.9792   24.2600 O   0  0  0  0  0  0  0  0  0  0  0  0
   64.5510   31.4020   27.5777 O   0  0  0  0  0  0  0  0  0  0  0  0
  1  2  1  0
 14  1  1  0
  1 15  2  0
  2  4  2  0
  2  5  1  0
  3  6  2  0
 14  3  1  0
  4  9  1  0
  5 10  2  0
  5 19  1  0
  6 15  1  0
  7 11  2  0
 16  7  1  0
  8 12  1  0
 16  8  2  0
  8 18  1  0
  9 13  2  0
 10 13  1  0
 11 17  1  0
 12 17  2  0
 13 20  1  0
 14 16  1  0
M  END
$$$$
