
     RDKit          3D

 20 22  0  0  0  0  0  0  0  0999 V2000
   64.8075   35.0933   22.7146 C   0  0  0  0  0  0  0  0  0  0  0  0
   64.6911   34.2352   23.8825 C   0  0  0  0  0  0  0  0  0  0  0  0
   65.4825   36.6289   21.2904 N   0  0  0  0  0  0  0  0  0  0  0  0
   65.7951   33.7242   24.5348 C   0  0  0  0  0  0  0  0  0  0  0  0
   63.4563   33.8912   24.3793 C   0  0  0  0  0  0  0  0  0  0  0  0
   64.4393   36.0254   20.6749 C   0  0  0  0  0  0  0  0  0  0  0  0
   68.0578   36.2400   23.0087 C   0  0  0  0  0  0  0  0  0  0  0  0
   66.5015   37.2933   24.4649 C   0  0  0  0  0  0  0  0  0  0  0  0
   65.6841   32.9014   25.6406 C   0  0  0  0  0  0  0  0  0  0  0  0
   63.3204   33.0660   25.4894 C   0  0  0  0  0  0  0  0  0  0  0  0
   69.0713   36.7022   23.8325 C   0  0  0  0  0  0  0  0  0  0  0  0
   67.5326   37.7424   25.2705 C   0  0  0  0  0  0  0  0  0  0  0  0
   64.4481   32.5836   26.1028 C   0  0  0  0  0  0  0  0  0  0  0  0
   65.6926   36.0755   22.4881 N   0  0  0  0  0  0  0  0  0  0  0  0
   64.0225   35.0662   21.5716 C   0  0  0  0  0  0  0  0  0  0  0  0
   66.7455   36.5370   23.3242 C   0  0  0  0  0  0  0  0  0  0  0  0
   68.8391   37.4502   24.9618 C   0  0  0  0  0  0  0  0  0  0  0  0
   64.8486   37.6855   24.8902 Cl  0  0  0  0  0  0  0  0  0  0  0  0
   62.2664   34.3437   23.8055 O   0  0  0  0  0  0  0  0  0  0  0  0
   64.3413   31.7450   27.2300 O   0  0  0  0  0  0  0  0  0  0  0  0
  1  2  1  0
 14  1  1  0
  1 15  2  0
  2  4  2  0
  2  5  1  0
  3  6  2  0
 14  3  1  0
  4  9  1  0
  5 10  2  0
  5 19  1  0
  6 15  1  0
  7 11  2  0
 16  7  1  0
  8 12  1  0
 16  8  2  0
  8 18  1  0
  9 13  2  0
 10 13  1  0
 11 17  1  0
 12 17  2  0
 13 20  1  0
 14 16  1  0
M  END
$$$$
