
     RDKit          3D

 20 22  0  0  0  0  0  0  0  0999 V2000
   64.6894   35.0292   23.1009 C   0  0  0  0  0  0  0  0  0  0  0  0
   64.6191   34.1371   24.2468 C   0  0  0  0  0  0  0  0  0  0  0  0
   65.2769   36.6380   21.7194 N   0  0  0  0  0  0  0  0  0  0  0  0
   65.7489   33.6322   24.8584 C   0  0  0  0  0  0  0  0  0  0  0  0
   63.4041   33.7532   24.7627 C   0  0  0  0  0  0  0  0  0  0  0  0
   64.2768   35.9867   21.0815 C   0  0  0  0  0  0  0  0  0  0  0  0
   67.8567   36.2827   23.5018 C   0  0  0  0  0  0  0  0  0  0  0  0
   66.2378   37.3681   24.8630 C   0  0  0  0  0  0  0  0  0  0  0  0
   65.6818   32.7773   25.9431 C   0  0  0  0  0  0  0  0  0  0  0  0
   63.3122   32.8951   25.8522 C   0  0  0  0  0  0  0  0  0  0  0  0
   68.8349   36.7872   24.3431 C   0  0  0  0  0  0  0  0  0  0  0  0
   67.2344   37.8591   25.6872 C   0  0  0  0  0  0  0  0  0  0  0  0
   64.4642   32.4205   26.4252 C   0  0  0  0  0  0  0  0  0  0  0  0
   65.5135   36.0693   22.9050 N   0  0  0  0  0  0  0  0  0  0  0  0
   63.9145   34.9819   21.9516 C   0  0  0  0  0  0  0  0  0  0  0  0
   66.5307   36.5742   23.7600 C   0  0  0  0  0  0  0  0  0  0  0  0
   68.5543   37.5726   25.4354 C   0  0  0  0  0  0  0  0  0  0  0  0
   64.5664   37.7543   25.2155 Cl  0  0  0  0  0  0  0  0  0  0  0  0
   62.1915   34.1956   24.2299 O   0  0  0  0  0  0  0  0  0  0  0  0
   64.4021   31.5491   27.5307 O   0  0  0  0  0  0  0  0  0  0  0  0
  1  2  1  0
 14  1  1  0
  1 15  2  0
  2  4  2  0
  2  5  1  0
  3  6  2  0
 14  3  1  0
  4  9  1  0
  5 10  2  0
  5 19  1  0
  6 15  1  0
  7 11  2  0
 16  7  1  0
  8 12  1  0
 16  8  2  0
  8 18  1  0
  9 13  2  0
 10 13  1  0
 11 17  1  0
 12 17  2  0
 13 20  1  0
 14 16  1  0
M  END
$$$$
