
     RDKit          3D

 20 22  0  0  0  0  0  0  0  0999 V2000
   64.6217   35.1002   23.0174 C   0  0  0  0  0  0  0  0  0  0  0  0
   64.5831   34.1952   24.1547 C   0  0  0  0  0  0  0  0  0  0  0  0
   65.0396   36.8200   21.7099 N   0  0  0  0  0  0  0  0  0  0  0  0
   65.7301   33.7140   24.7532 C   0  0  0  0  0  0  0  0  0  0  0  0
   63.3823   33.7745   24.6752 C   0  0  0  0  0  0  0  0  0  0  0  0
   64.3035   35.9797   20.9461 C   0  0  0  0  0  0  0  0  0  0  0  0
   65.3324   37.5865   24.9783 C   0  0  0  0  0  0  0  0  0  0  0  0
   67.3600   37.0998   23.8362 C   0  0  0  0  0  0  0  0  0  0  0  0
   65.6932   32.8468   25.8296 C   0  0  0  0  0  0  0  0  0  0  0  0
   63.3208   32.9035   25.7565 C   0  0  0  0  0  0  0  0  0  0  0  0
   66.0833   38.2581   25.9294 C   0  0  0  0  0  0  0  0  0  0  0  0
   68.0858   37.7765   24.8000 C   0  0  0  0  0  0  0  0  0  0  0  0
   64.4888   32.4535   26.3166 C   0  0  0  0  0  0  0  0  0  0  0  0
   65.2224   36.2961   22.9253 N   0  0  0  0  0  0  0  0  0  0  0  0
   64.0461   34.9064   21.7706 C   0  0  0  0  0  0  0  0  0  0  0  0
   65.9757   36.9935   23.9085 C   0  0  0  0  0  0  0  0  0  0  0  0
   67.4517   38.3679   25.8657 C   0  0  0  0  0  0  0  0  0  0  0  0
   68.2028   36.3585   22.4920 Cl  0  0  0  0  0  0  0  0  0  0  0  0
   62.1548   34.1903   24.1554 O   0  0  0  0  0  0  0  0  0  0  0  0
   64.4576   31.5699   27.4137 O   0  0  0  0  0  0  0  0  0  0  0  0
  1  2  1  0
 14  1  1  0
  1 15  2  0
  2  4  2  0
  2  5  1  0
  3  6  2  0
 14  3  1  0
  4  9  1  0
  5 10  2  0
  5 19  1  0
  6 15  1  0
  7 11  2  0
 16  7  1  0
  8 12  1  0
 16  8  2  0
  8 18  1  0
  9 13  2  0
 10 13  1  0
 11 17  1  0
 12 17  2  0
 13 20  1  0
 14 16  1  0
M  END
$$$$
