
     RDKit          3D

 20 22  0  0  0  0  0  0  0  0999 V2000
   64.6044   34.9809   22.9529 C   0  0  0  0  0  0  0  0  0  0  0  0
   64.5609   34.0799   24.0811 C   0  0  0  0  0  0  0  0  0  0  0  0
   65.0046   36.6633   21.6671 N   0  0  0  0  0  0  0  0  0  0  0  0
   65.7176   33.5590   24.6623 C   0  0  0  0  0  0  0  0  0  0  0  0
   63.3550   33.7197   24.6266 C   0  0  0  0  0  0  0  0  0  0  0  0
   64.2375   35.8560   20.9473 C   0  0  0  0  0  0  0  0  0  0  0  0
   65.3656   37.4637   24.8988 C   0  0  0  0  0  0  0  0  0  0  0  0
   67.3951   36.8777   23.8421 C   0  0  0  0  0  0  0  0  0  0  0  0
   65.6517   32.7113   25.7467 C   0  0  0  0  0  0  0  0  0  0  0  0
   63.2936   32.8566   25.7301 C   0  0  0  0  0  0  0  0  0  0  0  0
   66.0604   38.1499   25.8840 C   0  0  0  0  0  0  0  0  0  0  0  0
   68.1089   37.5575   24.8160 C   0  0  0  0  0  0  0  0  0  0  0  0
   64.4419   32.3473   26.2966 C   0  0  0  0  0  0  0  0  0  0  0  0
   65.2326   36.1408   22.8863 N   0  0  0  0  0  0  0  0  0  0  0  0
   63.9608   34.7781   21.7244 C   0  0  0  0  0  0  0  0  0  0  0  0
   66.0148   36.8127   23.8566 C   0  0  0  0  0  0  0  0  0  0  0  0
   67.4485   38.1986   25.8442 C   0  0  0  0  0  0  0  0  0  0  0  0
   68.2363   36.0651   22.5385 Cl  0  0  0  0  0  0  0  0  0  0  0  0
   62.1736   34.2041   24.0976 O   0  0  0  0  0  0  0  0  0  0  0  0
   64.4179   31.4838   27.3979 O   0  0  0  0  0  0  0  0  0  0  0  0
  1  2  1  0
 14  1  1  0
  1 15  2  0
  2  4  2  0
  2  5  1  0
  3  6  2  0
 14  3  1  0
  4  9  1  0
  5 10  2  0
  5 19  1  0
  6 15  1  0
  7 11  2  0
 16  7  1  0
  8 12  1  0
 16  8  2  0
  8 18  1  0
  9 13  2  0
 10 13  1  0
 11 17  1  0
 12 17  2  0
 13 20  1  0
 14 16  1  0
M  END
$$$$
