
     RDKit          3D

 20 22  0  0  0  0  0  0  0  0999 V2000
   64.7146   34.8659   22.9632 C   0  0  0  0  0  0  0  0  0  0  0  0
   64.6379   33.9949   24.1131 C   0  0  0  0  0  0  0  0  0  0  0  0
   65.2688   36.4341   21.5930 N   0  0  0  0  0  0  0  0  0  0  0  0
   65.7760   33.4686   24.7251 C   0  0  0  0  0  0  0  0  0  0  0  0
   63.4176   33.6701   24.6487 C   0  0  0  0  0  0  0  0  0  0  0  0
   64.2796   35.7870   20.9922 C   0  0  0  0  0  0  0  0  0  0  0  0
   67.8786   36.1860   23.2969 C   0  0  0  0  0  0  0  0  0  0  0  0
   66.3077   37.0907   24.8111 C   0  0  0  0  0  0  0  0  0  0  0  0
   65.6786   32.6502   25.8294 C   0  0  0  0  0  0  0  0  0  0  0  0
   63.3240   32.8366   25.7726 C   0  0  0  0  0  0  0  0  0  0  0  0
   68.9238   36.6500   24.0821 C   0  0  0  0  0  0  0  0  0  0  0  0
   67.3366   37.5630   25.6102 C   0  0  0  0  0  0  0  0  0  0  0  0
   64.4543   32.3218   26.3695 C   0  0  0  0  0  0  0  0  0  0  0  0
   65.5399   35.8824   22.7904 N   0  0  0  0  0  0  0  0  0  0  0  0
   63.8990   34.7859   21.8262 C   0  0  0  0  0  0  0  0  0  0  0  0
   66.5486   36.3948   23.6418 C   0  0  0  0  0  0  0  0  0  0  0  0
   68.6519   37.3470   25.2530 C   0  0  0  0  0  0  0  0  0  0  0  0
   64.6394   37.3666   25.2673 Cl  0  0  0  0  0  0  0  0  0  0  0  0
   62.2532   34.1615   24.0894 O   0  0  0  0  0  0  0  0  0  0  0  0
   64.3981   31.4872   27.4917 O   0  0  0  0  0  0  0  0  0  0  0  0
  1  2  1  0
 14  1  1  0
  1 15  2  0
  2  4  2  0
  2  5  1  0
  3  6  2  0
 14  3  1  0
  4  9  1  0
  5 10  2  0
  5 19  1  0
  6 15  1  0
  7 11  2  0
 16  7  1  0
  8 12  1  0
 16  8  2  0
  8 18  1  0
  9 13  2  0
 10 13  1  0
 11 17  1  0
 12 17  2  0
 13 20  1  0
 14 16  1  0
M  END
$$$$
