
     RDKit          3D

 20 22  0  0  0  0  0  0  0  0999 V2000
   64.5412   34.9300   22.9474 C   0  0  0  0  0  0  0  0  0  0  0  0
   64.4676   34.0384   24.0935 C   0  0  0  0  0  0  0  0  0  0  0  0
   65.1413   36.5301   21.5612 N   0  0  0  0  0  0  0  0  0  0  0  0
   65.5948   33.5143   24.6934 C   0  0  0  0  0  0  0  0  0  0  0  0
   63.2515   33.6747   24.6215 C   0  0  0  0  0  0  0  0  0  0  0  0
   64.1250   35.8951   20.9324 C   0  0  0  0  0  0  0  0  0  0  0  0
   67.7364   36.2111   23.2683 C   0  0  0  0  0  0  0  0  0  0  0  0
   66.1379   37.1662   24.7464 C   0  0  0  0  0  0  0  0  0  0  0  0
   65.5243   32.6598   25.7784 C   0  0  0  0  0  0  0  0  0  0  0  0
   63.1562   32.8175   25.7115 C   0  0  0  0  0  0  0  0  0  0  0  0
   68.7299   36.6985   24.1017 C   0  0  0  0  0  0  0  0  0  0  0  0
   67.1496   37.6417   25.5613 C   0  0  0  0  0  0  0  0  0  0  0  0
   64.3058   32.3232   26.2726 C   0  0  0  0  0  0  0  0  0  0  0  0
   65.3799   35.9570   22.7443 N   0  0  0  0  0  0  0  0  0  0  0  0
   63.7551   34.8956   21.8054 C   0  0  0  0  0  0  0  0  0  0  0  0
   66.4129   36.4452   23.5899 C   0  0  0  0  0  0  0  0  0  0  0  0
   68.4671   37.4119   25.2465 C   0  0  0  0  0  0  0  0  0  0  0  0
   64.4702   37.4785   25.1798 Cl  0  0  0  0  0  0  0  0  0  0  0  0
   62.0413   34.1378   24.1012 O   0  0  0  0  0  0  0  0  0  0  0  0
   64.2403   31.4523   27.3783 O   0  0  0  0  0  0  0  0  0  0  0  0
  1  2  1  0
 14  1  1  0
  1 15  2  0
  2  4  2  0
  2  5  1  0
  3  6  2  0
 14  3  1  0
  4  9  1  0
  5 10  2  0
  5 19  1  0
  6 15  1  0
  7 11  2  0
 16  7  1  0
  8 12  1  0
 16  8  2  0
  8 18  1  0
  9 13  2  0
 10 13  1  0
 11 17  1  0
 12 17  2  0
 13 20  1  0
 14 16  1  0
M  END
$$$$
