
     RDKit          3D

 20 22  0  0  0  0  0  0  0  0999 V2000
   64.6442   35.0372   23.2804 C   0  0  0  0  0  0  0  0  0  0  0  0
   64.6159   34.1488   24.4191 C   0  0  0  0  0  0  0  0  0  0  0  0
   65.0209   36.7084   21.9731 N   0  0  0  0  0  0  0  0  0  0  0  0
   65.7809   33.6475   25.0008 C   0  0  0  0  0  0  0  0  0  0  0  0
   63.4166   33.7816   24.9742 C   0  0  0  0  0  0  0  0  0  0  0  0
   64.2574   35.8857   21.2672 C   0  0  0  0  0  0  0  0  0  0  0  0
   65.3934   37.5434   25.1972 C   0  0  0  0  0  0  0  0  0  0  0  0
   67.4214   36.9759   24.1277 C   0  0  0  0  0  0  0  0  0  0  0  0
   65.7293   32.8118   26.0952 C   0  0  0  0  0  0  0  0  0  0  0  0
   63.3698   32.9306   26.0878 C   0  0  0  0  0  0  0  0  0  0  0  0
   66.0874   38.2470   26.1707 C   0  0  0  0  0  0  0  0  0  0  0  0
   68.1344   37.6732   25.0897 C   0  0  0  0  0  0  0  0  0  0  0  0
   64.5262   32.4407   26.6548 C   0  0  0  0  0  0  0  0  0  0  0  0
   65.2610   36.2021   23.1968 N   0  0  0  0  0  0  0  0  0  0  0  0
   63.9955   34.8142   22.0581 C   0  0  0  0  0  0  0  0  0  0  0  0
   66.0424   36.8925   24.1548 C   0  0  0  0  0  0  0  0  0  0  0  0
   67.4743   38.3140   26.1183 C   0  0  0  0  0  0  0  0  0  0  0  0
   68.2623   36.1637   22.8235 Cl  0  0  0  0  0  0  0  0  0  0  0  0
   62.2274   34.2466   24.4452 O   0  0  0  0  0  0  0  0  0  0  0  0
   64.5168   31.5897   27.7660 O   0  0  0  0  0  0  0  0  0  0  0  0
  1  2  1  0
 14  1  1  0
  1 15  2  0
  2  4  2  0
  2  5  1  0
  3  6  2  0
 14  3  1  0
  4  9  1  0
  5 10  2  0
  5 19  1  0
  6 15  1  0
  7 11  2  0
 16  7  1  0
  8 12  1  0
 16  8  2  0
  8 18  1  0
  9 13  2  0
 10 13  1  0
 11 17  1  0
 12 17  2  0
 13 20  1  0
 14 16  1  0
M  END
$$$$
