
     RDKit          3D

 20 22  0  0  0  0  0  0  0  0999 V2000
   64.5351   35.0891   22.7381 C   0  0  0  0  0  0  0  0  0  0  0  0
   64.4714   34.1847   23.8746 C   0  0  0  0  0  0  0  0  0  0  0  0
   64.9972   36.7996   21.4332 N   0  0  0  0  0  0  0  0  0  0  0  0
   65.6050   33.6932   24.4901 C   0  0  0  0  0  0  0  0  0  0  0  0
   63.2592   33.7750   24.3772 C   0  0  0  0  0  0  0  0  0  0  0  0
   64.2451   35.9767   20.6661 C   0  0  0  0  0  0  0  0  0  0  0  0
   65.2909   37.6284   24.6573 C   0  0  0  0  0  0  0  0  0  0  0  0
   67.3185   36.9556   23.6140 C   0  0  0  0  0  0  0  0  0  0  0  0
   65.5442   32.8265   25.5658 C   0  0  0  0  0  0  0  0  0  0  0  0
   63.1737   32.9047   25.4576 C   0  0  0  0  0  0  0  0  0  0  0  0
   66.0530   38.2811   25.6127 C   0  0  0  0  0  0  0  0  0  0  0  0
   68.0555   37.6157   24.5809 C   0  0  0  0  0  0  0  0  0  0  0  0
   64.3292   32.4442   26.0349 C   0  0  0  0  0  0  0  0  0  0  0  0
   65.1632   36.2710   22.6490 N   0  0  0  0  0  0  0  0  0  0  0  0
   63.9600   34.9092   21.4889 C   0  0  0  0  0  0  0  0  0  0  0  0
   65.9284   36.9506   23.6355 C   0  0  0  0  0  0  0  0  0  0  0  0
   67.4271   38.2912   25.5990 C   0  0  0  0  0  0  0  0  0  0  0  0
   68.1542   36.1053   22.3314 Cl  0  0  0  0  0  0  0  0  0  0  0  0
   62.0434   34.2018   23.8393 O   0  0  0  0  0  0  0  0  0  0  0  0
   64.2737   31.5610   27.1314 O   0  0  0  0  0  0  0  0  0  0  0  0
  1  2  1  0
 14  1  1  0
  1 15  2  0
  2  4  2  0
  2  5  1  0
  3  6  2  0
 14  3  1  0
  4  9  1  0
  5 10  2  0
  5 19  1  0
  6 15  1  0
  7 11  2  0
 16  7  1  0
  8 12  1  0
 16  8  2  0
  8 18  1  0
  9 13  2  0
 10 13  1  0
 11 17  1  0
 12 17  2  0
 13 20  1  0
 14 16  1  0
M  END
$$$$
