
     RDKit          3D

 20 22  0  0  0  0  0  0  0  0999 V2000
   64.8272   34.8836   22.9780 C   0  0  0  0  0  0  0  0  0  0  0  0
   64.6985   34.0061   24.1301 C   0  0  0  0  0  0  0  0  0  0  0  0
   65.5035   36.4568   21.5962 N   0  0  0  0  0  0  0  0  0  0  0  0
   65.7956   33.5103   24.8054 C   0  0  0  0  0  0  0  0  0  0  0  0
   63.4587   33.6275   24.5877 C   0  0  0  0  0  0  0  0  0  0  0  0
   64.4965   35.8345   20.9405 C   0  0  0  0  0  0  0  0  0  0  0  0
   68.0349   36.1188   23.3844 C   0  0  0  0  0  0  0  0  0  0  0  0
   66.4059   37.0970   24.8132 C   0  0  0  0  0  0  0  0  0  0  0  0
   65.6731   32.6692   25.8961 C   0  0  0  0  0  0  0  0  0  0  0  0
   63.3113   32.7832   25.6820 C   0  0  0  0  0  0  0  0  0  0  0  0
   69.0097   36.5961   24.2455 C   0  0  0  0  0  0  0  0  0  0  0  0
   67.3991   37.5621   25.6563 C   0  0  0  0  0  0  0  0  0  0  0  0
   64.4325   32.3172   26.3195 C   0  0  0  0  0  0  0  0  0  0  0  0
   65.6918   35.8923   22.7923 N   0  0  0  0  0  0  0  0  0  0  0  0
   64.0786   34.8518   21.8110 C   0  0  0  0  0  0  0  0  0  0  0  0
   66.7056   36.3699   23.6668 C   0  0  0  0  0  0  0  0  0  0  0  0
   68.7223   37.3155   25.3806 C   0  0  0  0  0  0  0  0  0  0  0  0
   64.7302   37.4308   25.1971 Cl  0  0  0  0  0  0  0  0  0  0  0  0
   62.2750   34.0617   23.9877 O   0  0  0  0  0  0  0  0  0  0  0  0
   64.3140   31.4600   27.4314 O   0  0  0  0  0  0  0  0  0  0  0  0
  1  2  1  0
 14  1  1  0
  1 15  2  0
  2  4  2  0
  2  5  1  0
  3  6  2  0
 14  3  1  0
  4  9  1  0
  5 10  2  0
  5 19  1  0
  6 15  1  0
  7 11  2  0
 16  7  1  0
  8 12  1  0
 16  8  2  0
  8 18  1  0
  9 13  2  0
 10 13  1  0
 11 17  1  0
 12 17  2  0
 13 20  1  0
 14 16  1  0
M  END
$$$$
