
     RDKit          3D

 20 22  0  0  0  0  0  0  0  0999 V2000
   64.5187   35.1540   22.8878 C   0  0  0  0  0  0  0  0  0  0  0  0
   64.4865   34.2610   24.0346 C   0  0  0  0  0  0  0  0  0  0  0  0
   64.9345   36.8571   21.5578 N   0  0  0  0  0  0  0  0  0  0  0  0
   65.6368   33.7795   24.6266 C   0  0  0  0  0  0  0  0  0  0  0  0
   63.2887   33.8525   24.5714 C   0  0  0  0  0  0  0  0  0  0  0  0
   64.1829   36.0149   20.8114 C   0  0  0  0  0  0  0  0  0  0  0  0
   65.2697   37.6760   24.8006 C   0  0  0  0  0  0  0  0  0  0  0  0
   67.2840   37.1190   23.6674 C   0  0  0  0  0  0  0  0  0  0  0  0
   65.6059   32.9236   25.7122 C   0  0  0  0  0  0  0  0  0  0  0  0
   63.2332   32.9930   25.6623 C   0  0  0  0  0  0  0  0  0  0  0  0
   66.0369   38.3509   25.7362 C   0  0  0  0  0  0  0  0  0  0  0  0
   68.0264   37.7999   24.6155 C   0  0  0  0  0  0  0  0  0  0  0  0
   64.4043   32.5422   26.2153 C   0  0  0  0  0  0  0  0  0  0  0  0
   65.1275   36.3441   22.7762 N   0  0  0  0  0  0  0  0  0  0  0  0
   63.9268   34.9521   21.6499 C   0  0  0  0  0  0  0  0  0  0  0  0
   65.8979   37.0456   23.7433 C   0  0  0  0  0  0  0  0  0  0  0  0
   67.4073   38.4285   25.6688 C   0  0  0  0  0  0  0  0  0  0  0  0
   68.1079   36.3299   22.3387 Cl  0  0  0  0  0  0  0  0  0  0  0  0
   62.0583   34.2699   24.0597 O   0  0  0  0  0  0  0  0  0  0  0  0
   64.3792   31.6701   27.3217 O   0  0  0  0  0  0  0  0  0  0  0  0
  1  2  1  0
 14  1  1  0
  1 15  2  0
  2  4  2  0
  2  5  1  0
  3  6  2  0
 14  3  1  0
  4  9  1  0
  5 10  2  0
  5 19  1  0
  6 15  1  0
  7 11  2  0
 16  7  1  0
  8 12  1  0
 16  8  2  0
  8 18  1  0
  9 13  2  0
 10 13  1  0
 11 17  1  0
 12 17  2  0
 13 20  1  0
 14 16  1  0
M  END
$$$$
