
     RDKit          3D

 20 22  0  0  0  0  0  0  0  0999 V2000
   64.7892   34.9443   23.0511 C   0  0  0  0  0  0  0  0  0  0  0  0
   64.7562   34.0498   24.1968 C   0  0  0  0  0  0  0  0  0  0  0  0
   65.1954   36.6549   21.7279 N   0  0  0  0  0  0  0  0  0  0  0  0
   65.9061   33.5868   24.8040 C   0  0  0  0  0  0  0  0  0  0  0  0
   63.5581   33.6211   24.7170 C   0  0  0  0  0  0  0  0  0  0  0  0
   64.4669   35.8016   20.9712 C   0  0  0  0  0  0  0  0  0  0  0  0
   65.4709   37.6032   24.8861 C   0  0  0  0  0  0  0  0  0  0  0  0
   67.5166   36.8269   23.9564 C   0  0  0  0  0  0  0  0  0  0  0  0
   65.8746   32.7296   25.8886 C   0  0  0  0  0  0  0  0  0  0  0  0
   63.5020   32.7598   25.8065 C   0  0  0  0  0  0  0  0  0  0  0  0
   66.2146   38.2874   25.8338 C   0  0  0  0  0  0  0  0  0  0  0  0
   68.2352   37.5197   24.9142 C   0  0  0  0  0  0  0  0  0  0  0  0
   64.6728   32.3279   26.3750 C   0  0  0  0  0  0  0  0  0  0  0  0
   65.3806   36.1440   22.9484 N   0  0  0  0  0  0  0  0  0  0  0  0
   64.2168   34.7342   21.8055 C   0  0  0  0  0  0  0  0  0  0  0  0
   66.1271   36.8566   23.9259 C   0  0  0  0  0  0  0  0  0  0  0  0
   67.5882   38.2635   25.8712 C   0  0  0  0  0  0  0  0  0  0  0  0
   68.3758   35.8893   22.7524 Cl  0  0  0  0  0  0  0  0  0  0  0  0
   62.3281   34.0187   24.1889 O   0  0  0  0  0  0  0  0  0  0  0  0
   64.6470   31.4545   27.4803 O   0  0  0  0  0  0  0  0  0  0  0  0
  1  2  1  0
 14  1  1  0
  1 15  2  0
  2  4  2  0
  2  5  1  0
  3  6  2  0
 14  3  1  0
  4  9  1  0
  5 10  2  0
  5 19  1  0
  6 15  1  0
  7 11  2  0
 16  7  1  0
  8 12  1  0
 16  8  2  0
  8 18  1  0
  9 13  2  0
 10 13  1  0
 11 17  1  0
 12 17  2  0
 13 20  1  0
 14 16  1  0
M  END
$$$$
