
     RDKit          3D

 20 22  0  0  0  0  0  0  0  0999 V2000
   64.8015   35.3155   22.8400 C   0  0  0  0  0  0  0  0  0  0  0  0
   64.7312   34.4291   23.9904 C   0  0  0  0  0  0  0  0  0  0  0  0
   65.2755   37.0027   21.5094 N   0  0  0  0  0  0  0  0  0  0  0  0
   65.8610   33.9440   24.6176 C   0  0  0  0  0  0  0  0  0  0  0  0
   63.5160   34.0308   24.4949 C   0  0  0  0  0  0  0  0  0  0  0  0
   64.5191   36.1727   20.7543 C   0  0  0  0  0  0  0  0  0  0  0  0
   65.5712   37.8878   24.7147 C   0  0  0  0  0  0  0  0  0  0  0  0
   67.5956   37.1697   23.6959 C   0  0  0  0  0  0  0  0  0  0  0  0
   65.7939   33.0945   25.7065 C   0  0  0  0  0  0  0  0  0  0  0  0
   63.4241   33.1777   25.5884 C   0  0  0  0  0  0  0  0  0  0  0  0
   66.3363   38.5504   25.6608 C   0  0  0  0  0  0  0  0  0  0  0  0
   68.3358   37.8402   24.6532 C   0  0  0  0  0  0  0  0  0  0  0  0
   64.5762   32.7230   26.1771 C   0  0  0  0  0  0  0  0  0  0  0  0
   65.4371   36.4919   22.7334 N   0  0  0  0  0  0  0  0  0  0  0  0
   64.2266   35.1198   21.5932 C   0  0  0  0  0  0  0  0  0  0  0  0
   66.2055   37.1820   23.7101 C   0  0  0  0  0  0  0  0  0  0  0  0
   67.7105   38.5435   25.6542 C   0  0  0  0  0  0  0  0  0  0  0  0
   68.4274   36.2837   22.4350 Cl  0  0  0  0  0  0  0  0  0  0  0  0
   62.3033   34.4526   23.9460 O   0  0  0  0  0  0  0  0  0  0  0  0
   64.5141   31.8573   27.2870 O   0  0  0  0  0  0  0  0  0  0  0  0
  1  2  1  0
 14  1  1  0
  1 15  2  0
  2  4  2  0
  2  5  1  0
  3  6  2  0
 14  3  1  0
  4  9  1  0
  5 10  2  0
  5 19  1  0
  6 15  1  0
  7 11  2  0
 16  7  1  0
  8 12  1  0
 16  8  2  0
  8 18  1  0
  9 13  2  0
 10 13  1  0
 11 17  1  0
 12 17  2  0
 13 20  1  0
 14 16  1  0
M  END
$$$$
