
     RDKit          3D

 20 22  0  0  0  0  0  0  0  0999 V2000
   64.7467   35.2398   22.9209 C   0  0  0  0  0  0  0  0  0  0  0  0
   64.6604   34.3462   24.0645 C   0  0  0  0  0  0  0  0  0  0  0  0
   65.2252   36.9433   21.6128 N   0  0  0  0  0  0  0  0  0  0  0  0
   65.7812   33.8299   24.6829 C   0  0  0  0  0  0  0  0  0  0  0  0
   63.4383   33.9724   24.5713 C   0  0  0  0  0  0  0  0  0  0  0  0
   64.5087   36.1020   20.8316 C   0  0  0  0  0  0  0  0  0  0  0  0
   65.4111   37.9030   24.7670 C   0  0  0  0  0  0  0  0  0  0  0  0
   67.4713   37.0622   23.9299 C   0  0  0  0  0  0  0  0  0  0  0  0
   65.6988   32.9736   25.7655 C   0  0  0  0  0  0  0  0  0  0  0  0
   63.3311   33.1131   25.6585 C   0  0  0  0  0  0  0  0  0  0  0  0
   66.1336   38.5748   25.7396 C   0  0  0  0  0  0  0  0  0  0  0  0
   68.1684   37.7434   24.9115 C   0  0  0  0  0  0  0  0  0  0  0  0
   64.4747   32.6269   26.2385 C   0  0  0  0  0  0  0  0  0  0  0  0
   65.3608   36.4296   22.8386 N   0  0  0  0  0  0  0  0  0  0  0  0
   64.2131   35.0390   21.6567 C   0  0  0  0  0  0  0  0  0  0  0  0
   66.0856   37.1300   23.8410 C   0  0  0  0  0  0  0  0  0  0  0  0
   67.5032   38.5134   25.8347 C   0  0  0  0  0  0  0  0  0  0  0  0
   68.3532   36.0905   22.7702 Cl  0  0  0  0  0  0  0  0  0  0  0  0
   62.2336   34.4269   24.0310 O   0  0  0  0  0  0  0  0  0  0  0  0
   64.3970   31.7541   27.3418 O   0  0  0  0  0  0  0  0  0  0  0  0
  1  2  1  0
 14  1  1  0
  1 15  2  0
  2  4  2  0
  2  5  1  0
  3  6  2  0
 14  3  1  0
  4  9  1  0
  5 10  2  0
  5 19  1  0
  6 15  1  0
  7 11  2  0
 16  7  1  0
  8 12  1  0
 16  8  2  0
  8 18  1  0
  9 13  2  0
 10 13  1  0
 11 17  1  0
 12 17  2  0
 13 20  1  0
 14 16  1  0
M  END
$$$$
