
     RDKit          3D

 20 22  0  0  0  0  0  0  0  0999 V2000
   64.4359   35.0664   23.0411 C   0  0  0  0  0  0  0  0  0  0  0  0
   64.4173   34.1525   24.1717 C   0  0  0  0  0  0  0  0  0  0  0  0
   64.8451   36.7883   21.7337 N   0  0  0  0  0  0  0  0  0  0  0  0
   65.5746   33.6671   24.7464 C   0  0  0  0  0  0  0  0  0  0  0  0
   63.2258   33.7272   24.7096 C   0  0  0  0  0  0  0  0  0  0  0  0
   64.0651   35.9705   20.9892 C   0  0  0  0  0  0  0  0  0  0  0  0
   65.2649   37.5436   24.9812 C   0  0  0  0  0  0  0  0  0  0  0  0
   67.2454   36.9768   23.7946 C   0  0  0  0  0  0  0  0  0  0  0  0
   65.5566   32.7915   25.8164 C   0  0  0  0  0  0  0  0  0  0  0  0
   63.1833   32.8477   25.7850 C   0  0  0  0  0  0  0  0  0  0  0  0
   66.0624   38.1904   25.9113 C   0  0  0  0  0  0  0  0  0  0  0  0
   68.0185   37.6297   24.7379 C   0  0  0  0  0  0  0  0  0  0  0  0
   64.3610   32.3938   26.3211 C   0  0  0  0  0  0  0  0  0  0  0  0
   65.0585   36.2500   22.9376 N   0  0  0  0  0  0  0  0  0  0  0  0
   63.8133   34.8958   21.8136 C   0  0  0  0  0  0  0  0  0  0  0  0
   65.8602   36.9227   23.8996 C   0  0  0  0  0  0  0  0  0  0  0  0
   67.4321   38.2488   25.8152 C   0  0  0  0  0  0  0  0  0  0  0  0
   68.0282   36.1991   22.4347 Cl  0  0  0  0  0  0  0  0  0  0  0  0
   61.9893   34.1465   24.2145 O   0  0  0  0  0  0  0  0  0  0  0  0
   64.3491   31.5016   27.4116 O   0  0  0  0  0  0  0  0  0  0  0  0
  1  2  1  0
 14  1  1  0
  1 15  2  0
  2  4  2  0
  2  5  1  0
  3  6  2  0
 14  3  1  0
  4  9  1  0
  5 10  2  0
  5 19  1  0
  6 15  1  0
  7 11  2  0
 16  7  1  0
  8 12  1  0
 16  8  2  0
  8 18  1  0
  9 13  2  0
 10 13  1  0
 11 17  1  0
 12 17  2  0
 13 20  1  0
 14 16  1  0
M  END
$$$$
