
     RDKit          3D

 20 22  0  0  0  0  0  0  0  0999 V2000
   64.5582   35.4168   22.7666 C   0  0  0  0  0  0  0  0  0  0  0  0
   64.3068   34.4200   23.7814 C   0  0  0  0  0  0  0  0  0  0  0  0
   65.4634   36.9628   21.5690 N   0  0  0  0  0  0  0  0  0  0  0  0
   64.0521   34.7592   25.1107 C   0  0  0  0  0  0  0  0  0  0  0  0
   64.2993   33.0889   23.4500 C   0  0  0  0  0  0  0  0  0  0  0  0
   64.2722   36.7592   21.0235 C   0  0  0  0  0  0  0  0  0  0  0  0
   67.8397   35.2675   23.1003 C   0  0  0  0  0  0  0  0  0  0  0  0
   67.0711   37.0525   24.4427 C   0  0  0  0  0  0  0  0  0  0  0  0
   63.8018   33.7911   26.0588 C   0  0  0  0  0  0  0  0  0  0  0  0
   64.0442   32.1077   24.4190 C   0  0  0  0  0  0  0  0  0  0  0  0
   69.0295   35.2259   23.8124 C   0  0  0  0  0  0  0  0  0  0  0  0
   68.2521   37.0282   25.1670 C   0  0  0  0  0  0  0  0  0  0  0  0
   63.7940   32.4533   25.7292 C   0  0  0  0  0  0  0  0  0  0  0  0
   65.6461   36.1526   22.6281 N   0  0  0  0  0  0  0  0  0  0  0  0
   63.6655   35.7875   21.7516 C   0  0  0  0  0  0  0  0  0  0  0  0
   66.8343   36.1798   23.3978 C   0  0  0  0  0  0  0  0  0  0  0  0
   69.2403   36.1158   24.8585 C   0  0  0  0  0  0  0  0  0  0  0  0
   65.8189   38.2119   24.8369 Cl  0  0  0  0  0  0  0  0  0  0  0  0
   64.5423   32.6888   22.1497 O   0  0  0  0  0  0  0  0  0  0  0  0
   63.5357   31.5010   26.7218 O   0  0  0  0  0  0  0  0  0  0  0  0
  1  2  1  0
 14  1  1  0
  1 15  2  0
  2  4  2  0
  2  5  1  0
  3  6  2  0
 14  3  1  0
  4  9  1  0
  5 10  2  0
  5 19  1  0
  6 15  1  0
  7 11  2  0
 16  7  1  0
  8 12  1  0
 16  8  2  0
  8 18  1  0
  9 13  2  0
 10 13  1  0
 11 17  1  0
 12 17  2  0
 13 20  1  0
 14 16  1  0
M  END
$$$$
