
     RDKit          3D

 20 22  0  0  0  0  0  0  0  0999 V2000
   64.7839   35.0037   22.9869 C   0  0  0  0  0  0  0  0  0  0  0  0
   64.7454   34.1149   24.1250 C   0  0  0  0  0  0  0  0  0  0  0  0
   65.1515   36.6858   21.6911 N   0  0  0  0  0  0  0  0  0  0  0  0
   65.9055   33.6300   24.7299 C   0  0  0  0  0  0  0  0  0  0  0  0
   63.5405   33.7309   24.6563 C   0  0  0  0  0  0  0  0  0  0  0  0
   64.4380   35.8396   20.9610 C   0  0  0  0  0  0  0  0  0  0  0  0
   65.3906   37.6839   24.8142 C   0  0  0  0  0  0  0  0  0  0  0  0
   67.4699   36.8865   24.0269 C   0  0  0  0  0  0  0  0  0  0  0  0
   65.8440   32.7935   25.8232 C   0  0  0  0  0  0  0  0  0  0  0  0
   63.4836   32.8792   25.7690 C   0  0  0  0  0  0  0  0  0  0  0  0
   66.0305   38.4189   25.8014 C   0  0  0  0  0  0  0  0  0  0  0  0
   68.1292   37.6130   25.0054 C   0  0  0  0  0  0  0  0  0  0  0  0
   64.6353   32.4055   26.3589 C   0  0  0  0  0  0  0  0  0  0  0  0
   65.3664   36.1873   22.9227 N   0  0  0  0  0  0  0  0  0  0  0  0
   64.1835   34.7605   21.7440 C   0  0  0  0  0  0  0  0  0  0  0  0
   66.0935   36.9018   23.9054 C   0  0  0  0  0  0  0  0  0  0  0  0
   67.4161   38.3846   25.9001 C   0  0  0  0  0  0  0  0  0  0  0  0
   68.3780   35.9082   22.8930 Cl  0  0  0  0  0  0  0  0  0  0  0  0
   62.3557   34.1792   24.1037 O   0  0  0  0  0  0  0  0  0  0  0  0
   64.6157   31.5544   27.4699 O   0  0  0  0  0  0  0  0  0  0  0  0
  1  2  1  0
 14  1  1  0
  1 15  2  0
  2  4  2  0
  2  5  1  0
  3  6  2  0
 14  3  1  0
  4  9  1  0
  5 10  2  0
  5 19  1  0
  6 15  1  0
  7 11  2  0
 16  7  1  0
  8 12  1  0
 16  8  2  0
  8 18  1  0
  9 13  2  0
 10 13  1  0
 11 17  1  0
 12 17  2  0
 13 20  1  0
 14 16  1  0
M  END
$$$$
