
     RDKit          3D

 20 22  0  0  0  0  0  0  0  0999 V2000
   65.3006   36.2022   24.6311 C   0  0  0  0  0  0  0  0  0  0  0  0
   65.1186   34.7847   24.8983 C   0  0  0  0  0  0  0  0  0  0  0  0
   65.7302   38.1182   23.6379 N   0  0  0  0  0  0  0  0  0  0  0  0
   66.1751   33.9506   25.2040 C   0  0  0  0  0  0  0  0  0  0  0  0
   63.8679   34.2166   24.8461 C   0  0  0  0  0  0  0  0  0  0  0  0
   65.3606   38.4588   24.8944 C   0  0  0  0  0  0  0  0  0  0  0  0
   67.2988   35.6706   22.0571 C   0  0  0  0  0  0  0  0  0  0  0  0
   65.1223   36.0987   21.2017 C   0  0  0  0  0  0  0  0  0  0  0  0
   66.0028   32.6008   25.4500 C   0  0  0  0  0  0  0  0  0  0  0  0
   63.6707   32.8625   25.0899 C   0  0  0  0  0  0  0  0  0  0  0  0
   67.6111   35.0844   20.8413 C   0  0  0  0  0  0  0  0  0  0  0  0
   65.4603   35.5080   19.9973 C   0  0  0  0  0  0  0  0  0  0  0  0
   64.7528   32.0753   25.3897 C   0  0  0  0  0  0  0  0  0  0  0  0
   65.6922   36.7908   23.4911 N   0  0  0  0  0  0  0  0  0  0  0  0
   65.0934   37.2553   25.5094 C   0  0  0  0  0  0  0  0  0  0  0  0
   66.0325   36.1899   22.2486 C   0  0  0  0  0  0  0  0  0  0  0  0
   66.7177   34.9901   19.8013 C   0  0  0  0  0  0  0  0  0  0  0  0
   63.5099   36.7480   21.4150 Cl  0  0  0  0  0  0  0  0  0  0  0  0
   62.7221   34.9562   24.5460 O   0  0  0  0  0  0  0  0  0  0  0  0
   64.5836   30.6993   25.6415 O   0  0  0  0  0  0  0  0  0  0  0  0
  1  2  1  0
 14  1  1  0
  1 15  2  0
  2  4  2  0
  2  5  1  0
  3  6  2  0
 14  3  1  0
  4  9  1  0
  5 10  2  0
  5 19  1  0
  6 15  1  0
  7 11  2  0
 16  7  1  0
  8 12  1  0
 16  8  2  0
  8 18  1  0
  9 13  2  0
 10 13  1  0
 11 17  1  0
 12 17  2  0
 13 20  1  0
 14 16  1  0
M  END
$$$$
