
     RDKit          3D

 20 22  0  0  0  0  0  0  0  0999 V2000
   64.5905   35.1003   23.0962 C   0  0  0  0  0  0  0  0  0  0  0  0
   64.5561   34.1981   24.2358 C   0  0  0  0  0  0  0  0  0  0  0  0
   65.0125   36.8119   21.7792 N   0  0  0  0  0  0  0  0  0  0  0  0
   65.7052   33.7273   24.8384 C   0  0  0  0  0  0  0  0  0  0  0  0
   63.3572   33.7696   24.7545 C   0  0  0  0  0  0  0  0  0  0  0  0
   64.2547   35.9799   21.0277 C   0  0  0  0  0  0  0  0  0  0  0  0
   65.3575   37.6272   25.0118 C   0  0  0  0  0  0  0  0  0  0  0  0
   67.3699   37.0196   23.9014 C   0  0  0  0  0  0  0  0  0  0  0  0
   65.6723   32.8628   25.9170 C   0  0  0  0  0  0  0  0  0  0  0  0
   63.2997   32.9011   25.8381 C   0  0  0  0  0  0  0  0  0  0  0  0
   66.1303   38.2899   25.9514 C   0  0  0  0  0  0  0  0  0  0  0  0
   68.1179   37.6889   24.8533 C   0  0  0  0  0  0  0  0  0  0  0  0
   64.4698   32.4616   26.4022 C   0  0  0  0  0  0  0  0  0  0  0  0
   65.2055   36.2879   22.9930 N   0  0  0  0  0  0  0  0  0  0  0  0
   63.9948   34.9117   21.8580 C   0  0  0  0  0  0  0  0  0  0  0  0
   65.9817   36.9773   23.9640 C   0  0  0  0  0  0  0  0  0  0  0  0
   67.5027   38.3367   25.8971 C   0  0  0  0  0  0  0  0  0  0  0  0
   68.1890   36.2053   22.5850 Cl  0  0  0  0  0  0  0  0  0  0  0  0
   62.1278   34.1747   24.2307 O   0  0  0  0  0  0  0  0  0  0  0  0
   64.4426   31.5807   27.5016 O   0  0  0  0  0  0  0  0  0  0  0  0
  1  2  1  0
 14  1  1  0
  1 15  2  0
  2  4  2  0
  2  5  1  0
  3  6  2  0
 14  3  1  0
  4  9  1  0
  5 10  2  0
  5 19  1  0
  6 15  1  0
  7 11  2  0
 16  7  1  0
  8 12  1  0
 16  8  2  0
  8 18  1  0
  9 13  2  0
 10 13  1  0
 11 17  1  0
 12 17  2  0
 13 20  1  0
 14 16  1  0
M  END
$$$$
