
     RDKit          3D

 20 22  0  0  0  0  0  0  0  0999 V2000
   64.5595   35.0855   22.9539 C   0  0  0  0  0  0  0  0  0  0  0  0
   64.5470   34.1827   24.0815 C   0  0  0  0  0  0  0  0  0  0  0  0
   64.9076   36.7786   21.6670 N   0  0  0  0  0  0  0  0  0  0  0  0
   65.7209   33.7145   24.6728 C   0  0  0  0  0  0  0  0  0  0  0  0
   63.3539   33.7678   24.6161 C   0  0  0  0  0  0  0  0  0  0  0  0
   64.1562   35.9527   20.9519 C   0  0  0  0  0  0  0  0  0  0  0  0
   65.2691   37.6151   24.8770 C   0  0  0  0  0  0  0  0  0  0  0  0
   67.3091   37.0242   23.8437 C   0  0  0  0  0  0  0  0  0  0  0  0
   65.6840   32.8641   25.7564 C   0  0  0  0  0  0  0  0  0  0  0  0
   63.3220   32.9020   25.7189 C   0  0  0  0  0  0  0  0  0  0  0  0
   65.9532   38.3200   25.8566 C   0  0  0  0  0  0  0  0  0  0  0  0
   68.0124   37.7225   24.8121 C   0  0  0  0  0  0  0  0  0  0  0  0
   64.4871   32.4452   26.2954 C   0  0  0  0  0  0  0  0  0  0  0  0
   65.1574   36.2610   22.8840 N   0  0  0  0  0  0  0  0  0  0  0  0
   63.9126   34.8674   21.7298 C   0  0  0  0  0  0  0  0  0  0  0  0
   65.9292   36.9519   23.8495 C   0  0  0  0  0  0  0  0  0  0  0  0
   67.3413   38.3756   25.8257 C   0  0  0  0  0  0  0  0  0  0  0  0
   68.1639   36.1963   22.5586 Cl  0  0  0  0  0  0  0  0  0  0  0  0
   62.1564   34.1983   24.0768 O   0  0  0  0  0  0  0  0  0  0  0  0
   64.4927   31.5807   27.3963 O   0  0  0  0  0  0  0  0  0  0  0  0
  1  2  1  0
 14  1  1  0
  1 15  2  0
  2  4  2  0
  2  5  1  0
  3  6  2  0
 14  3  1  0
  4  9  1  0
  5 10  2  0
  5 19  1  0
  6 15  1  0
  7 11  2  0
 16  7  1  0
  8 12  1  0
 16  8  2  0
  8 18  1  0
  9 13  2  0
 10 13  1  0
 11 17  1  0
 12 17  2  0
 13 20  1  0
 14 16  1  0
M  END
$$$$
