
     RDKit          3D

 26 29  0  0  0  0  0  0  0  0999 V2000
   -6.9154   -4.1801   16.2675 C   0  0  0  0  0  0  0  0  0  0  0  0
   -6.5379   -5.3105   15.5788 C   0  0  0  0  0  0  0  0  0  0  0  0
  -10.3987   -0.2425   13.3239 C   0  0  0  0  0  0  0  0  0  0  0  0
   -6.4933   -5.3298   14.2148 C   0  0  0  0  0  0  0  0  0  0  0  0
   -6.8352   -4.1933   13.5325 C   0  0  0  0  0  0  0  0  0  0  0  0
   -7.2188   -3.0433   14.1982 C   0  0  0  0  0  0  0  0  0  0  0  0
   -7.6036   -1.8309   13.8099 N   0  0  0  0  0  0  0  0  0  0  0  0
  -11.7640   -0.3580   13.0935 C   0  0  0  0  0  0  0  0  0  0  0  0
  -12.1563    0.3018   15.2845 C   0  0  0  0  0  0  0  0  0  0  0  0
   -7.7537   -1.2708   17.3464 C   0  0  0  0  0  0  0  0  0  0  0  0
  -10.3191   -1.7036   20.1381 C   0  0  0  0  0  0  0  0  0  0  0  0
   -8.8384   -1.7845   18.2109 C   0  0  0  0  0  0  0  0  0  0  0  0
   -9.2022   -1.2411   19.4313 C   0  0  0  0  0  0  0  0  0  0  0  0
  -11.1030   -2.7239   19.6496 C   0  0  0  0  0  0  0  0  0  0  0  0
   -9.6473   -2.8055   17.7555 C   0  0  0  0  0  0  0  0  0  0  0  0
  -11.5797   -4.3829   17.8883 C   0  0  0  0  0  0  0  0  0  0  0  0
   -7.9956    1.0530   13.7160 O   0  0  0  0  0  0  0  0  0  0  0  0
   -8.4097    0.2777   14.7398 C   0  0  1  0  0  0  0  0  0  0  0  0
   -9.9110    0.1560   14.5679 C   0  0  0  0  0  0  0  0  0  0  0  0
  -12.6040   -0.0797   14.0887 N   0  0  0  0  0  0  0  0  0  0  0  0
  -10.8061    0.4280   15.5506 C   0  0  0  0  0  0  0  0  0  0  0  0
   -7.8784   -1.0731   14.8896 C   0  0  0  0  0  0  0  0  0  0  0  0
   -7.6605   -1.8174   16.0320 N   0  0  0  0  0  0  0  0  0  0  0  0
   -7.2665   -3.0115   15.6057 C   0  0  0  0  0  0  0  0  0  0  0  0
   -8.4089   -0.2148   20.1324 C   0  0  0  0  0  0  0  0  0  0  0  0
  -10.7596   -3.2781   18.4467 C   0  0  0  0  0  0  0  0  0  0  0  0
  1  2  2  0
 24  1  1  0
  4  2  1  0
  3  8  2  0
 19  3  1  0
  5  4  2  0
  6  5  1  0
  7  6  1  0
  6 24  2  0
 22  7  2  0
  8 20  1  0
  9 20  2  0
 21  9  1  0
 10 12  1  0
 10 23  1  6
 13 11  2  0
 11 14  1  0
 12 13  1  0
 12 15  2  0
 25 13  1  6
 26 14  2  0
 15 26  1  0
 16 26  1  6
 18 17  1  6
 18 19  1  0
 22 18  1  0
 19 21  2  0
 22 23  1  0
 23 24  1  0
M  END
$$$$
