
     RDKit          3D

 26 29  0  0  0  0  0  0  0  0999 V2000
   -7.1520   -0.4050   18.5594 C   0  0  0  0  0  0  0  0  0  0  0  0
   -6.4426    0.1204   19.6154 C   0  0  0  0  0  0  0  0  0  0  0  0
  -12.0813    1.3061   16.9813 C   0  0  0  0  0  0  0  0  0  0  0  0
   -7.0700    0.5551   20.7468 C   0  0  0  0  0  0  0  0  0  0  0  0
   -8.4339    0.4606   20.8164 C   0  0  0  0  0  0  0  0  0  0  0  0
   -9.1725   -0.0625   19.7706 C   0  0  0  0  0  0  0  0  0  0  0  0
  -10.4704   -0.2619   19.5598 N   0  0  0  0  0  0  0  0  0  0  0  0
  -12.2959    2.2684   16.0022 C   0  0  0  0  0  0  0  0  0  0  0  0
  -12.7977    0.5754   14.4948 C   0  0  0  0  0  0  0  0  0  0  0  0
   -9.2685   -1.6278   16.4722 C   0  0  0  0  0  0  0  0  0  0  0  0
   -6.8476   -4.5576   16.1292 C   0  0  0  0  0  0  0  0  0  0  0  0
   -8.6581   -2.9750   16.4905 C   0  0  0  0  0  0  0  0  0  0  0  0
   -7.4150   -3.2877   15.9671 C   0  0  0  0  0  0  0  0  0  0  0  0
   -7.5055   -5.5531   16.8151 C   0  0  0  0  0  0  0  0  0  0  0  0
   -9.2865   -3.9989   17.1693 C   0  0  0  0  0  0  0  0  0  0  0  0
   -9.4789   -6.3163   18.0818 C   0  0  0  0  0  0  0  0  0  0  0  0
  -13.0657   -0.9131   18.6392 O   0  0  0  0  0  0  0  0  0  0  0  0
  -11.9989   -1.0424   17.8232 C   0  0  1  0  0  0  0  0  0  0  0  0
  -12.2317   -0.0513   16.7001 C   0  0  0  0  0  0  0  0  0  0  0  0
  -12.6500    1.8683   14.7823 N   0  0  0  0  0  0  0  0  0  0  0  0
  -12.5930   -0.4095   15.4422 C   0  0  0  0  0  0  0  0  0  0  0  0
  -10.6552   -0.8053   18.3407 C   0  0  0  0  0  0  0  0  0  0  0  0
   -9.4284   -0.9731   17.7295 N   0  0  0  0  0  0  0  0  0  0  0  0
   -8.5352   -0.5159   18.5990 C   0  0  0  0  0  0  0  0  0  0  0  0
   -6.6328   -2.3645   15.1244 C   0  0  0  0  0  0  0  0  0  0  0  0
   -8.7372   -5.2670   17.3377 C   0  0  0  0  0  0  0  0  0  0  0  0
  1  2  2  0
 24  1  1  0
  4  2  1  0
  3  8  2  0
 19  3  1  0
  5  4  2  0
  6  5  1  0
  7  6  1  0
  6 24  2  0
 22  7  2  0
  8 20  1  0
  9 20  2  0
 21  9  1  0
 10 12  1  0
 10 23  1  6
 13 11  2  0
 11 14  1  0
 12 13  1  0
 12 15  2  0
 25 13  1  6
 26 14  2  0
 15 26  1  0
 16 26  1  6
 18 17  1  1
 18 19  1  0
 22 18  1  0
 19 21  2  0
 22 23  1  0
 23 24  1  0
M  END
$$$$
