
     RDKit          3D

 26 29  0  0  0  0  0  0  0  0999 V2000
   -8.3932   -4.3023   16.3202 C   0  0  0  0  0  0  0  0  0  0  0  0
   -8.0543   -5.6293   16.5044 C   0  0  0  0  0  0  0  0  0  0  0  0
   -6.7845   -1.2519   12.4302 C   0  0  0  0  0  0  0  0  0  0  0  0
   -6.7858   -6.0348   16.2052 C   0  0  0  0  0  0  0  0  0  0  0  0
   -5.8289   -5.1701   15.7253 C   0  0  0  0  0  0  0  0  0  0  0  0
   -6.1709   -3.8272   15.5386 C   0  0  0  0  0  0  0  0  0  0  0  0
   -5.4783   -2.7939   15.0708 N   0  0  0  0  0  0  0  0  0  0  0  0
   -6.9492   -1.2328   11.0630 C   0  0  0  0  0  0  0  0  0  0  0  0
   -5.4621    0.5801   10.9235 C   0  0  0  0  0  0  0  0  0  0  0  0
   -8.6370   -1.2415   15.6308 C   0  0  0  0  0  0  0  0  0  0  0  0
  -10.3417    0.6379   18.4763 C   0  0  0  0  0  0  0  0  0  0  0  0
   -9.0141   -0.6568   16.9056 C   0  0  0  0  0  0  0  0  0  0  0  0
  -10.1045    0.1078   17.1963 C   0  0  0  0  0  0  0  0  0  0  0  0
   -9.4651    0.4029   19.5112 C   0  0  0  0  0  0  0  0  0  0  0  0
   -8.1442   -0.8739   17.9820 C   0  0  0  0  0  0  0  0  0  0  0  0
   -7.4134   -0.6210   20.3450 C   0  0  0  0  0  0  0  0  0  0  0  0
   -4.5367   -0.0721   14.9207 O   0  0  0  0  0  0  0  0  0  0  0  0
   -5.8083   -0.4138   14.5696 C   0  0  1  0  0  0  0  0  0  0  0  0
   -5.9564   -0.3606   13.0974 C   0  0  0  0  0  0  0  0  0  0  0  0
   -6.2813   -0.3127   10.3331 N   0  0  0  0  0  0  0  0  0  0  0  0
   -5.3017    0.5557   12.2912 C   0  0  0  0  0  0  0  0  0  0  0  0
   -6.2978   -1.7001   15.0652 C   0  0  0  0  0  0  0  0  0  0  0  0
   -7.4883   -2.0790   15.5349 N   0  0  0  0  0  0  0  0  0  0  0  0
   -7.4490   -3.4144   15.8410 C   0  0  0  0  0  0  0  0  0  0  0  0
  -11.0893    0.4348   16.1700 C   0  0  0  0  0  0  0  0  0  0  0  0
   -8.3694   -0.3607   19.2313 C   0  0  0  0  0  0  0  0  0  0  0  0
  1  2  2  0
 24  1  1  0
  4  2  1  0
  3  8  2  0
 19  3  1  0
  5  4  2  0
  6  5  1  0
  7  6  1  0
  6 24  2  0
 22  7  2  0
  8 20  1  0
  9 20  2  0
 21  9  1  0
 10 12  1  0
 23 10  1  0
 13 11  2  0
 11 14  1  0
 12 13  1  0
 12 15  2  0
 13 25  1  0
 26 14  2  0
 15 26  1  0
 26 16  1  0
 18 17  1  6
 18 19  1  0
 22 18  1  0
 19 21  2  0
 22 23  1  0
 23 24  1  0
M  END
$$$$
