
     RDKit          3D

 26 29  0  0  0  0  0  0  0  0999 V2000
   -7.4933   -0.2849   20.2293 C   0  0  0  0  0  0  0  0  0  0  0  0
   -7.2332    0.9146   20.8644 C   0  0  0  0  0  0  0  0  0  0  0  0
   -8.2848   -1.6747   13.3998 C   0  0  0  0  0  0  0  0  0  0  0  0
   -7.5041    2.0812   20.2095 C   0  0  0  0  0  0  0  0  0  0  0  0
   -8.0272    2.1084   18.9369 C   0  0  0  0  0  0  0  0  0  0  0  0
   -8.2906    0.8951   18.2935 C   0  0  0  0  0  0  0  0  0  0  0  0
   -8.7568    0.6194   17.0799 N   0  0  0  0  0  0  0  0  0  0  0  0
   -7.2399   -1.8097   12.5129 C   0  0  0  0  0  0  0  0  0  0  0  0
   -5.7206   -1.5635   14.2873 C   0  0  0  0  0  0  0  0  0  0  0  0
   -8.1811   -2.6775   18.3044 C   0  0  0  0  0  0  0  0  0  0  0  0
  -11.4268   -4.3481   19.4041 C   0  0  0  0  0  0  0  0  0  0  0  0
   -9.3376   -3.5421   18.4600 C   0  0  0  0  0  0  0  0  0  0  0  0
  -10.3729   -3.4203   19.3382 C   0  0  0  0  0  0  0  0  0  0  0  0
  -11.4584   -5.4410   18.5680 C   0  0  0  0  0  0  0  0  0  0  0  0
   -9.4026   -4.6661   17.6263 C   0  0  0  0  0  0  0  0  0  0  0  0
  -10.4507   -6.7539   16.7752 C   0  0  0  0  0  0  0  0  0  0  0  0
  -10.2721   -0.7103   15.0427 O   0  0  0  0  0  0  0  0  0  0  0  0
   -9.2436   -1.3371   15.6801 C   0  0  1  0  0  0  0  0  0  0  0  0
   -8.0923   -1.4794   14.7600 C   0  0  0  0  0  0  0  0  0  0  0  0
   -5.9722   -1.7512   12.9765 N   0  0  0  0  0  0  0  0  0  0  0  0
   -6.7700   -1.4291   15.1692 C   0  0  0  0  0  0  0  0  0  0  0  0
   -8.7951   -0.7393   16.9375 C   0  0  0  0  0  0  0  0  0  0  0  0
   -8.3517   -1.2819   18.0734 N   0  0  0  0  0  0  0  0  0  0  0  0
   -8.0203   -0.2834   18.9519 C   0  0  0  0  0  0  0  0  0  0  0  0
  -10.4312   -2.3097   20.2833 C   0  0  0  0  0  0  0  0  0  0  0  0
  -10.4263   -5.5735   17.6851 C   0  0  0  0  0  0  0  0  0  0  0  0
  1  2  2  0
 24  1  1  0
  4  2  1  0
  3  8  2  0
 19  3  1  0
  5  4  2  0
  6  5  1  0
  7  6  1  0
  6 24  2  0
 22  7  2  0
  8 20  1  0
  9 20  2  0
 21  9  1  0
 10 12  1  0
 23 10  1  0
 13 11  2  0
 11 14  1  0
 12 13  1  0
 12 15  2  0
 13 25  1  0
 26 14  2  0
 15 26  1  0
 26 16  1  0
 18 17  1  6
 18 19  1  0
 22 18  1  0
 19 21  2  0
 22 23  1  0
 23 24  1  0
M  END
$$$$
