
     RDKit          3D

 26 29  0  0  0  0  0  0  0  0999 V2000
  -11.6761    0.4415   16.8791 C   0  0  0  0  0  0  0  0  0  0  0  0
  -12.1200    1.4135   16.0029 C   0  0  0  0  0  0  0  0  0  0  0  0
   -6.5204   -1.8503   15.2276 C   0  0  0  0  0  0  0  0  0  0  0  0
  -11.6090    1.4455   14.7376 C   0  0  0  0  0  0  0  0  0  0  0  0
  -10.6655    0.5443   14.3002 C   0  0  0  0  0  0  0  0  0  0  0  0
  -10.2157   -0.4397   15.1862 C   0  0  0  0  0  0  0  0  0  0  0  0
   -9.3091   -1.4025   15.0541 N   0  0  0  0  0  0  0  0  0  0  0  0
   -5.5066   -1.6930   14.3087 C   0  0  0  0  0  0  0  0  0  0  0  0
   -5.7672   -3.9350   13.6585 C   0  0  0  0  0  0  0  0  0  0  0  0
  -10.2612   -1.8867   18.4541 C   0  0  0  0  0  0  0  0  0  0  0  0
   -8.1644    0.2064   20.8537 C   0  0  0  0  0  0  0  0  0  0  0  0
   -9.7801   -1.0229   19.5179 C   0  0  0  0  0  0  0  0  0  0  0  0
   -8.5026   -0.6171   19.7659 C   0  0  0  0  0  0  0  0  0  0  0  0
   -9.1281    0.6464   21.7324 C   0  0  0  0  0  0  0  0  0  0  0  0
  -10.7332   -0.5569   20.4328 C   0  0  0  0  0  0  0  0  0  0  0  0
  -11.4620    0.7162   22.4402 C   0  0  0  0  0  0  0  0  0  0  0  0
   -8.8020   -4.4360   16.3602 O   0  0  0  0  0  0  0  0  0  0  0  0
   -8.2796   -3.1780   16.4003 C   0  0  1  0  0  0  0  0  0  0  0  0
   -7.1960   -3.0501   15.3994 C   0  0  0  0  0  0  0  0  0  0  0  0
   -5.1484   -2.7436   13.5385 N   0  0  0  0  0  0  0  0  0  0  0  0
   -6.7803   -4.0859   14.5793 C   0  0  0  0  0  0  0  0  0  0  0  0
   -9.2261   -2.0740   16.2416 C   0  0  0  0  0  0  0  0  0  0  0  0
  -10.0897   -1.5124   17.0901 N   0  0  0  0  0  0  0  0  0  0  0  0
  -10.7303   -0.4759   16.4626 C   0  0  0  0  0  0  0  0  0  0  0  0
   -7.3994   -1.0392   18.9087 C   0  0  0  0  0  0  0  0  0  0  0  0
  -10.4106    0.2455   21.4943 C   0  0  0  0  0  0  0  0  0  0  0  0
  1  2  2  0
 24  1  1  0
  4  2  1  0
  3  8  2  0
 19  3  1  0
  5  4  2  0
  6  5  1  0
  7  6  1  0
  6 24  2  0
 22  7  2  0
  8 20  1  0
  9 20  2  0
 21  9  1  0
 10 12  1  0
 23 10  1  0
 13 11  2  0
 11 14  1  0
 12 13  1  0
 12 15  2  0
 13 25  1  0
 26 14  2  0
 15 26  1  0
 26 16  1  0
 18 17  1  6
 18 19  1  0
 22 18  1  0
 19 21  2  0
 22 23  1  0
 23 24  1  0
M  END
$$$$
