
     RDKit          3D

 26 29  0  0  0  0  0  0  0  0999 V2000
   -8.7671    0.2592   11.5085 C   0  0  0  0  0  0  0  0  0  0  0  0
   -9.6060    1.3392   11.3098 C   0  0  0  0  0  0  0  0  0  0  0  0
   -2.7653    1.4752   12.5018 C   0  0  0  0  0  0  0  0  0  0  0  0
   -9.0728    2.5193   10.8781 C   0  0  0  0  0  0  0  0  0  0  0  0
   -7.7276    2.6750   10.6331 C   0  0  0  0  0  0  0  0  0  0  0  0
   -6.8780    1.5826   10.8339 C   0  0  0  0  0  0  0  0  0  0  0  0
   -5.5613    1.4506   10.7107 N   0  0  0  0  0  0  0  0  0  0  0  0
   -2.1524    1.9010   13.6593 C   0  0  0  0  0  0  0  0  0  0  0  0
   -2.3042   -0.2776   14.5243 C   0  0  0  0  0  0  0  0  0  0  0  0
   -6.4208   -1.8052   11.8776 C   0  0  0  0  0  0  0  0  0  0  0  0
   -6.5469   -1.7148   15.6869 C   0  0  0  0  0  0  0  0  0  0  0  0
   -6.2931   -2.0804   13.2979 C   0  0  0  0  0  0  0  0  0  0  0  0
   -6.7626   -1.3481   14.3472 C   0  0  0  0  0  0  0  0  0  0  0  0
   -5.8379   -2.8516   16.0022 C   0  0  0  0  0  0  0  0  0  0  0  0
   -5.5758   -3.2291   13.6565 C   0  0  0  0  0  0  0  0  0  0  0  0
   -4.5927   -4.8253   15.2898 C   0  0  0  0  0  0  0  0  0  0  0  0
   -3.0814    0.1452    9.9814 O   0  0  0  0  0  0  0  0  0  0  0  0
   -3.8284   -0.2544   11.0488 C   0  0  1  0  0  0  0  0  0  0  0  0
   -3.1710    0.1624   12.3083 C   0  0  0  0  0  0  0  0  0  0  0  0
   -1.9329    1.0118   14.6525 N   0  0  0  0  0  0  0  0  0  0  0  0
   -2.9166   -0.6972   13.3642 C   0  0  0  0  0  0  0  0  0  0  0  0
   -5.2274    0.1727   11.0616 C   0  0  0  0  0  0  0  0  0  0  0  0
   -6.3506   -0.4665   11.3948 N   0  0  0  0  0  0  0  0  0  0  0  0
   -7.4128    0.3905   11.2676 C   0  0  0  0  0  0  0  0  0  0  0  0
   -7.5116   -0.1147   14.1286 C   0  0  0  0  0  0  0  0  0  0  0  0
   -5.3623   -3.5922   14.9594 C   0  0  0  0  0  0  0  0  0  0  0  0
  1  2  2  0
 24  1  1  0
  4  2  1  0
  3  8  2  0
 19  3  1  0
  5  4  2  0
  6  5  1  0
  7  6  1  0
  6 24  2  0
 22  7  2  0
  8 20  1  0
  9 20  2  0
 21  9  1  0
 10 12  1  0
 23 10  1  0
 13 11  2  0
 11 14  1  0
 12 13  1  0
 12 15  2  0
 13 25  1  0
 26 14  2  0
 15 26  1  0
 26 16  1  0
 18 17  1  6
 18 19  1  0
 22 18  1  0
 19 21  2  0
 22 23  1  0
 23 24  1  0
M  END
$$$$
