
     RDKit          3D

 26 29  0  0  0  0  0  0  0  0999 V2000
  -11.4200   -3.5050   19.8972 C   0  0  0  0  0  0  0  0  0  0  0  0
  -11.9465   -4.7712   20.0679 C   0  0  0  0  0  0  0  0  0  0  0  0
   -7.6417   -3.2129   15.0924 C   0  0  0  0  0  0  0  0  0  0  0  0
  -11.3558   -5.8237   19.4304 C   0  0  0  0  0  0  0  0  0  0  0  0
  -10.2530   -5.6714   18.6214 C   0  0  0  0  0  0  0  0  0  0  0  0
   -9.7196   -4.3905   18.4481 C   0  0  0  0  0  0  0  0  0  0  0  0
   -8.7016   -3.9466   17.7180 N   0  0  0  0  0  0  0  0  0  0  0  0
   -7.0573   -4.0207   14.1423 C   0  0  0  0  0  0  0  0  0  0  0  0
   -5.0061   -3.8428   15.2730 C   0  0  0  0  0  0  0  0  0  0  0  0
   -9.8866   -0.8782   19.0897 C   0  0  0  0  0  0  0  0  0  0  0  0
  -11.0866    1.7724   16.6261 C   0  0  0  0  0  0  0  0  0  0  0  0
  -10.6614   -0.0214   18.2094 C   0  0  0  0  0  0  0  0  0  0  0  0
  -10.2217    0.9975   17.4180 C   0  0  0  0  0  0  0  0  0  0  0  0
  -12.4415    1.5305   16.6163 C   0  0  0  0  0  0  0  0  0  0  0  0
  -12.0452   -0.2378   18.1749 C   0  0  0  0  0  0  0  0  0  0  0  0
  -14.3591    0.2429   17.4026 C   0  0  0  0  0  0  0  0  0  0  0  0
   -6.6665   -1.1958   17.9331 O   0  0  0  0  0  0  0  0  0  0  0  0
   -7.6021   -1.8228   17.1658 C   0  0  1  0  0  0  0  0  0  0  0  0
   -6.9364   -2.6890   16.1665 C   0  0  0  0  0  0  0  0  0  0  0  0
   -5.7447   -4.3212   14.2520 N   0  0  0  0  0  0  0  0  0  0  0  0
   -5.5964   -3.0354   16.2199 C   0  0  0  0  0  0  0  0  0  0  0  0
   -8.6214   -2.5919   17.8795 C   0  0  0  0  0  0  0  0  0  0  0  0
   -9.5953   -2.2212   18.7134 N   0  0  0  0  0  0  0  0  0  0  0  0
  -10.3118   -3.3269   19.0911 C   0  0  0  0  0  0  0  0  0  0  0  0
   -8.8071    1.3527   17.3656 C   0  0  0  0  0  0  0  0  0  0  0  0
  -12.8932    0.5131   17.4056 C   0  0  0  0  0  0  0  0  0  0  0  0
  1  2  2  0
 24  1  1  0
  4  2  1  0
  3  8  2  0
 19  3  1  0
  5  4  2  0
  6  5  1  0
  7  6  1  0
  6 24  2  0
 22  7  2  0
  8 20  1  0
  9 20  2  0
 21  9  1  0
 10 12  1  0
 23 10  1  0
 13 11  2  0
 11 14  1  0
 12 13  1  0
 12 15  2  0
 13 25  1  0
 26 14  2  0
 15 26  1  0
 26 16  1  0
 18 17  1  1
 18 19  1  0
 22 18  1  0
 19 21  2  0
 22 23  1  0
 23 24  1  0
M  END
$$$$
