
     RDKit          3D

 26 29  0  0  0  0  0  0  0  0999 V2000
   -2.3757    0.5166    9.2808 C   0  0  0  0  0  0  0  0  0  0  0  0
   -2.1817    0.3056    7.9346 C   0  0  0  0  0  0  0  0  0  0  0  0
   -8.0115   -1.1972   13.0125 C   0  0  0  0  0  0  0  0  0  0  0  0
   -3.2310    0.0722    7.0935 C   0  0  0  0  0  0  0  0  0  0  0  0
   -4.4961    0.0496    7.6158 C   0  0  0  0  0  0  0  0  0  0  0  0
   -4.7209    0.2579    8.9645 C   0  0  0  0  0  0  0  0  0  0  0  0
   -5.8071    0.2819    9.7314 N   0  0  0  0  0  0  0  0  0  0  0  0
   -8.4003   -2.5005   13.2973 C   0  0  0  0  0  0  0  0  0  0  0  0
   -6.4727   -3.2682   12.2557 C   0  0  0  0  0  0  0  0  0  0  0  0
   -3.4053    1.0448   12.2795 C   0  0  0  0  0  0  0  0  0  0  0  0
   -2.1888   -1.8485   14.4500 C   0  0  0  0  0  0  0  0  0  0  0  0
   -3.2833    0.0135   13.3327 C   0  0  0  0  0  0  0  0  0  0  0  0
   -2.3206   -0.9814   13.3584 C   0  0  0  0  0  0  0  0  0  0  0  0
   -3.0159   -1.7506   15.5457 C   0  0  0  0  0  0  0  0  0  0  0  0
   -4.0936    0.0787   14.4477 C   0  0  0  0  0  0  0  0  0  0  0  0
   -4.8900   -0.6417   16.7031 C   0  0  0  0  0  0  0  0  0  0  0  0
   -7.6293    1.1542   11.9004 O   0  0  0  0  0  0  0  0  0  0  0  0
   -6.4546    0.5135   12.0741 C   0  0  1  0  0  0  0  0  0  0  0  0
   -6.8227   -0.9341   12.3330 C   0  0  0  0  0  0  0  0  0  0  0  0
   -7.6121   -3.5003   12.9068 N   0  0  0  0  0  0  0  0  0  0  0  0
   -6.0536   -1.9861   11.9552 C   0  0  0  0  0  0  0  0  0  0  0  0
   -5.4565    0.5245   11.0096 C   0  0  0  0  0  0  0  0  0  0  0  0
   -4.0852    0.6698   11.0828 N   0  0  0  0  0  0  0  0  0  0  0  0
   -3.6456    0.5016    9.8414 C   0  0  0  0  0  0  0  0  0  0  0  0
   -1.4284   -1.2778   12.2225 C   0  0  0  0  0  0  0  0  0  0  0  0
   -3.9770   -0.7768   15.5399 C   0  0  0  0  0  0  0  0  0  0  0  0
  1  2  2  0
 24  1  1  0
  4  2  1  0
  3  8  2  0
 19  3  1  0
  5  4  2  0
  6  5  1  0
  7  6  1  0
  6 24  2  0
 22  7  2  0
  8 20  1  0
  9 20  2  0
 21  9  1  0
 10 12  1  0
 10 23  1  6
 13 11  2  0
 11 14  1  0
 12 13  1  0
 12 15  2  0
 25 13  1  6
 26 14  2  0
 15 26  1  0
 16 26  1  6
 18 17  1  6
 18 19  1  0
 22 18  1  0
 19 21  2  0
 22 23  1  0
 23 24  1  0
M  END
$$$$
