
     RDKit          3D

 26 29  0  0  0  0  0  0  0  0999 V2000
  -10.6177    0.6302   16.0402 C   0  0  0  0  0  0  0  0  0  0  0  0
  -11.6295    1.2483   15.3304 C   0  0  0  0  0  0  0  0  0  0  0  0
   -5.4869   -1.0404   14.5199 C   0  0  0  0  0  0  0  0  0  0  0  0
  -11.8355    0.8931   14.0287 C   0  0  0  0  0  0  0  0  0  0  0  0
  -11.0715   -0.0595   13.3942 C   0  0  0  0  0  0  0  0  0  0  0  0
  -10.0474   -0.6855   14.1117 C   0  0  0  0  0  0  0  0  0  0  0  0
   -9.1497   -1.5996   13.7585 N   0  0  0  0  0  0  0  0  0  0  0  0
   -4.4316   -0.4270   13.8819 C   0  0  0  0  0  0  0  0  0  0  0  0
   -4.5473   -2.0357   12.1742 C   0  0  0  0  0  0  0  0  0  0  0  0
   -8.1587   -1.0039   17.1295 C   0  0  0  0  0  0  0  0  0  0  0  0
   -9.9295   -3.4716   19.4337 C   0  0  0  0  0  0  0  0  0  0  0  0
   -8.7329   -1.7120   18.2600 C   0  0  0  0  0  0  0  0  0  0  0  0
   -9.3962   -2.9028   18.2641 C   0  0  0  0  0  0  0  0  0  0  0  0
   -9.8023   -2.8374   20.6486 C   0  0  0  0  0  0  0  0  0  0  0  0
   -8.6238   -1.0952   19.5131 C   0  0  0  0  0  0  0  0  0  0  0  0
   -8.9976   -0.9485   21.9668 C   0  0  0  0  0  0  0  0  0  0  0  0
   -7.5344   -4.0088   14.1718 O   0  0  0  0  0  0  0  0  0  0  0  0
   -7.2439   -2.8011   14.7325 C   0  0  1  0  0  0  0  0  0  0  0  0
   -6.1129   -2.1709   14.0144 C   0  0  0  0  0  0  0  0  0  0  0  0
   -3.9805   -0.9394   12.7160 N   0  0  0  0  0  0  0  0  0  0  0  0
   -5.6024   -2.6445   12.8171 C   0  0  0  0  0  0  0  0  0  0  0  0
   -8.3492   -1.8488   14.8378 C   0  0  0  0  0  0  0  0  0  0  0  0
   -8.7709   -1.0817   15.8453 N   0  0  0  0  0  0  0  0  0  0  0  0
   -9.8380   -0.3309   15.4254 C   0  0  0  0  0  0  0  0  0  0  0  0
   -9.6048   -3.6521   17.0292 C   0  0  0  0  0  0  0  0  0  0  0  0
   -9.1407   -1.6439   20.6561 C   0  0  0  0  0  0  0  0  0  0  0  0
  1  2  2  0
 24  1  1  0
  4  2  1  0
  3  8  2  0
 19  3  1  0
  5  4  2  0
  6  5  1  0
  7  6  1  0
  6 24  2  0
 22  7  2  0
  8 20  1  0
  9 20  2  0
 21  9  1  0
 10 12  1  0
 23 10  1  0
 13 11  2  0
 11 14  1  0
 12 13  1  0
 12 15  2  0
 13 25  1  0
 26 14  2  0
 15 26  1  0
 26 16  1  0
 18 17  1  6
 18 19  1  0
 22 18  1  0
 19 21  2  0
 22 23  1  0
 23 24  1  0
M  END
$$$$
