
     RDKit          3D

 26 29  0  0  0  0  0  0  0  0999 V2000
   -6.9991   -4.6670   16.2286 C   0  0  0  0  0  0  0  0  0  0  0  0
   -5.9593   -5.5686   16.1036 C   0  0  0  0  0  0  0  0  0  0  0  0
   -7.2667   -0.4501   12.3557 C   0  0  0  0  0  0  0  0  0  0  0  0
   -4.7981   -5.1601   15.5137 C   0  0  0  0  0  0  0  0  0  0  0  0
   -4.6232   -3.8811   15.0368 C   0  0  0  0  0  0  0  0  0  0  0  0
   -5.6749   -2.9682   15.1629 C   0  0  0  0  0  0  0  0  0  0  0  0
   -5.8003   -1.7030   14.7757 N   0  0  0  0  0  0  0  0  0  0  0  0
   -7.7060   -0.4403   11.0504 C   0  0  0  0  0  0  0  0  0  0  0  0
   -9.6421    0.7058   11.7254 C   0  0  0  0  0  0  0  0  0  0  0  0
   -9.0333   -2.2668   16.1650 C   0  0  0  0  0  0  0  0  0  0  0  0
   -9.3212   -0.7166   19.6362 C   0  0  0  0  0  0  0  0  0  0  0  0
   -9.4035   -1.4865   17.3327 C   0  0  0  0  0  0  0  0  0  0  0  0
   -8.8484   -1.5110   18.5774 C   0  0  0  0  0  0  0  0  0  0  0  0
  -10.3865    0.1365   19.4575 C   0  0  0  0  0  0  0  0  0  0  0  0
  -10.4853   -0.6082   17.1883 C   0  0  0  0  0  0  0  0  0  0  0  0
  -12.1053    1.0889   18.0112 C   0  0  0  0  0  0  0  0  0  0  0  0
   -6.5686    1.0725   14.9683 O   0  0  0  0  0  0  0  0  0  0  0  0
   -7.4857    0.0813   14.7852 C   0  0  1  0  0  0  0  0  0  0  0  0
   -7.9930    0.1145   13.3946 C   0  0  0  0  0  0  0  0  0  0  0  0
   -8.8907    0.1404   10.7596 N   0  0  0  0  0  0  0  0  0  0  0  0
   -9.1972    0.6927   13.0288 C   0  0  0  0  0  0  0  0  0  0  0  0
   -7.0531   -1.2762   15.1166 C   0  0  0  0  0  0  0  0  0  0  0  0
   -7.6820   -2.2905   15.7141 N   0  0  0  0  0  0  0  0  0  0  0  0
   -6.8468   -3.3764   15.7589 C   0  0  0  0  0  0  0  0  0  0  0  0
   -7.7258   -2.3920   18.8833 C   0  0  0  0  0  0  0  0  0  0  0  0
  -10.9507    0.1686   18.2154 C   0  0  0  0  0  0  0  0  0  0  0  0
  1  2  2  0
 24  1  1  0
  4  2  1  0
  3  8  2  0
 19  3  1  0
  5  4  2  0
  6  5  1  0
  7  6  1  0
  6 24  2  0
 22  7  2  0
  8 20  1  0
  9 20  2  0
 21  9  1  0
 10 12  1  0
 23 10  1  0
 13 11  2  0
 11 14  1  0
 12 13  1  0
 12 15  2  0
 13 25  1  0
 26 14  2  0
 15 26  1  0
 26 16  1  0
 18 17  1  6
 18 19  1  0
 22 18  1  0
 19 21  2  0
 22 23  1  0
 23 24  1  0
M  END
$$$$
