
     RDKit          3D

 26 29  0  0  0  0  0  0  0  0999 V2000
   -2.3828   -0.3666    9.8752 C   0  0  0  0  0  0  0  0  0  0  0  0
   -2.2250   -0.2851    8.5103 C   0  0  0  0  0  0  0  0  0  0  0  0
   -5.0771   -3.1848   12.9962 C   0  0  0  0  0  0  0  0  0  0  0  0
   -3.2936   -0.3670    7.6653 C   0  0  0  0  0  0  0  0  0  0  0  0
   -4.5415   -0.5348    8.2024 C   0  0  0  0  0  0  0  0  0  0  0  0
   -4.7300   -0.6204    9.5699 C   0  0  0  0  0  0  0  0  0  0  0  0
   -5.7928   -0.7887   10.3515 N   0  0  0  0  0  0  0  0  0  0  0  0
   -4.9599   -4.5465   13.2469 C   0  0  0  0  0  0  0  0  0  0  0  0
   -7.2631   -4.6622   13.5143 C   0  0  0  0  0  0  0  0  0  0  0  0
   -3.3329   -0.5082   12.9425 C   0  0  0  0  0  0  0  0  0  0  0  0
   -4.0438    2.1590   15.5775 C   0  0  0  0  0  0  0  0  0  0  0  0
   -3.4735    0.7783   13.6587 C   0  0  0  0  0  0  0  0  0  0  0  0
   -4.0555    0.9303   14.9059 C   0  0  0  0  0  0  0  0  0  0  0  0
   -3.4545    3.2722   15.0229 C   0  0  0  0  0  0  0  0  0  0  0  0
   -2.8949    1.9165   13.1355 C   0  0  0  0  0  0  0  0  0  0  0  0
   -2.2331    4.3252   13.1572 C   0  0  0  0  0  0  0  0  0  0  0  0
   -7.6800   -0.7935   12.5115 O   0  0  0  0  0  0  0  0  0  0  0  0
   -6.3741   -1.0719   12.7058 C   0  0  1  0  0  0  0  0  0  0  0  0
   -6.3219   -2.5567   13.0066 C   0  0  0  0  0  0  0  0  0  0  0  0
   -6.0650   -5.2454   13.4993 N   0  0  0  0  0  0  0  0  0  0  0  0
   -7.4187   -3.3110   13.2694 C   0  0  0  0  0  0  0  0  0  0  0  0
   -5.4092   -0.8095   11.6430 C   0  0  0  0  0  0  0  0  0  0  0  0
   -4.0401   -0.6434   11.7110 N   0  0  0  0  0  0  0  0  0  0  0  0
   -3.6345   -0.5351   10.4514 C   0  0  0  0  0  0  0  0  0  0  0  0
   -4.8113   -0.1380   15.5852 C   0  0  0  0  0  0  0  0  0  0  0  0
   -2.8764    3.1456   13.7892 C   0  0  0  0  0  0  0  0  0  0  0  0
  1  2  2  0
 24  1  1  0
  4  2  1  0
  3  8  2  0
 19  3  1  0
  5  4  2  0
  6  5  1  0
  7  6  1  0
  6 24  2  0
 22  7  2  0
  8 20  1  0
  9 20  2  0
 21  9  1  0
 10 12  1  0
 10 23  1  6
 13 11  2  0
 11 14  1  0
 12 13  1  0
 12 15  2  0
 25 13  1  6
 26 14  2  0
 15 26  1  0
 16 26  1  6
 18 17  1  6
 18 19  1  0
 22 18  1  0
 19 21  2  0
 22 23  1  0
 23 24  1  0
M  END
$$$$
