
     RDKit          3D

 26 29  0  0  0  0  0  0  0  0999 V2000
  -10.5164   -4.0412   19.3868 C   0  0  0  0  0  0  0  0  0  0  0  0
  -11.0090   -5.3239   19.3049 C   0  0  0  0  0  0  0  0  0  0  0  0
  -11.2230    0.8643   16.2515 C   0  0  0  0  0  0  0  0  0  0  0  0
  -11.2267   -5.9259   18.0996 C   0  0  0  0  0  0  0  0  0  0  0  0
  -10.9453   -5.2253   16.9576 C   0  0  0  0  0  0  0  0  0  0  0  0
  -10.4500   -3.9351   17.0096 C   0  0  0  0  0  0  0  0  0  0  0  0
  -10.1054   -3.0357   16.0924 N   0  0  0  0  0  0  0  0  0  0  0  0
  -12.4184    1.4691   15.8829 C   0  0  0  0  0  0  0  0  0  0  0  0
  -12.4265    0.1949   13.9422 C   0  0  0  0  0  0  0  0  0  0  0  0
   -9.2667   -1.1062   18.9936 C   0  0  0  0  0  0  0  0  0  0  0  0
  -10.9495    0.9616   21.7239 C   0  0  0  0  0  0  0  0  0  0  0  0
  -10.2563   -0.5146   19.9202 C   0  0  0  0  0  0  0  0  0  0  0  0
   -9.9499    0.3425   20.9636 C   0  0  0  0  0  0  0  0  0  0  0  0
  -12.2836    0.7407   21.4677 C   0  0  0  0  0  0  0  0  0  0  0  0
  -11.6034   -0.7119   19.6956 C   0  0  0  0  0  0  0  0  0  0  0  0
  -14.0381   -0.3711   20.1384 C   0  0  0  0  0  0  0  0  0  0  0  0
   -8.5684   -0.8572   14.8090 O   0  0  0  0  0  0  0  0  0  0  0  0
   -9.3298   -0.7275   15.9154 C   0  0  1  0  0  0  0  0  0  0  0  0
  -10.6237   -0.0975   15.4391 C   0  0  0  0  0  0  0  0  0  0  0  0
  -12.9850    1.1116   14.7320 N   0  0  0  0  0  0  0  0  0  0  0  0
  -11.2388   -0.4279   14.2757 C   0  0  0  0  0  0  0  0  0  0  0  0
   -9.6830   -1.9080   16.6970 C   0  0  0  0  0  0  0  0  0  0  0  0
   -9.7489   -2.0767   18.0659 N   0  0  0  0  0  0  0  0  0  0  0  0
  -10.2196   -3.3047   18.2482 C   0  0  0  0  0  0  0  0  0  0  0  0
   -8.5734    0.6010   21.4249 C   0  0  0  0  0  0  0  0  0  0  0  0
  -12.6093   -0.1058   20.4433 C   0  0  0  0  0  0  0  0  0  0  0  0
  1  2  2  0
 24  1  1  0
  4  2  1  0
  3  8  2  0
 19  3  1  0
  5  4  2  0
  6  5  1  0
  7  6  1  0
  6 24  2  0
 22  7  2  0
  8 20  1  0
  9 20  2  0
 21  9  1  0
 10 12  1  0
 10 23  1  6
 13 11  2  0
 11 14  1  0
 12 13  1  0
 12 15  2  0
 25 13  1  6
 26 14  2  0
 15 26  1  0
 16 26  1  6
 18 17  1  6
 18 19  1  0
 22 18  1  0
 19 21  2  0
 22 23  1  0
 23 24  1  0
M  END
$$$$
