
     RDKit          3D

 26 29  0  0  0  0  0  0  0  0999 V2000
  -10.2533    0.8750   17.1859 C   0  0  0  0  0  0  0  0  0  0  0  0
  -10.9433    1.9720   16.7062 C   0  0  0  0  0  0  0  0  0  0  0  0
   -5.9959   -3.9852   14.9098 C   0  0  0  0  0  0  0  0  0  0  0  0
  -11.2233    2.0448   15.3723 C   0  0  0  0  0  0  0  0  0  0  0  0
  -10.8430    1.0647   14.4842 C   0  0  0  0  0  0  0  0  0  0  0  0
  -10.1448   -0.0457   14.9688 C   0  0  0  0  0  0  0  0  0  0  0  0
   -9.6353   -1.1084   14.3544 N   0  0  0  0  0  0  0  0  0  0  0  0
   -4.6277   -3.8298   14.9356 C   0  0  0  0  0  0  0  0  0  0  0  0
   -4.9079   -1.4985   15.0003 C   0  0  0  0  0  0  0  0  0  0  0  0
   -8.6043   -1.7547   17.7041 C   0  0  0  0  0  0  0  0  0  0  0  0
  -10.5485   -4.3828   19.6659 C   0  0  0  0  0  0  0  0  0  0  0  0
   -9.4300   -2.4759   18.6567 C   0  0  0  0  0  0  0  0  0  0  0  0
   -9.7059   -3.8101   18.6974 C   0  0  0  0  0  0  0  0  0  0  0  0
  -11.1429   -3.6048   20.6334 C   0  0  0  0  0  0  0  0  0  0  0  0
  -10.0526   -1.7158   19.6553 C   0  0  0  0  0  0  0  0  0  0  0  0
  -11.5132   -1.4155   21.6449 C   0  0  0  0  0  0  0  0  0  0  0  0
   -8.7042   -3.6582   13.7003 O   0  0  0  0  0  0  0  0  0  0  0  0
   -8.3376   -3.1199   14.8974 C   0  0  1  0  0  0  0  0  0  0  0  0
   -6.8724   -2.9096   14.9280 C   0  0  0  0  0  0  0  0  0  0  0  0
   -4.1082   -2.5834   14.9806 N   0  0  0  0  0  0  0  0  0  0  0  0
   -6.2754   -1.6607   14.9743 C   0  0  0  0  0  0  0  0  0  0  0  0
   -9.0180   -1.8868   15.2930 C   0  0  0  0  0  0  0  0  0  0  0  0
   -9.1603   -1.2890   16.4777 N   0  0  0  0  0  0  0  0  0  0  0  0
   -9.8623   -0.1232   16.3140 C   0  0  0  0  0  0  0  0  0  0  0  0
   -9.1440   -4.7252   17.7090 C   0  0  0  0  0  0  0  0  0  0  0  0
  -10.8743   -2.2673   20.6017 C   0  0  0  0  0  0  0  0  0  0  0  0
  1  2  2  0
 24  1  1  0
  4  2  1  0
  3  8  2  0
 19  3  1  0
  5  4  2  0
  6  5  1  0
  7  6  1  0
  6 24  2  0
 22  7  2  0
  8 20  1  0
  9 20  2  0
 21  9  1  0
 10 12  1  0
 23 10  1  0
 13 11  2  0
 11 14  1  0
 12 13  1  0
 12 15  2  0
 13 25  1  0
 26 14  2  0
 15 26  1  0
 26 16  1  0
 18 17  1  6
 18 19  1  0
 22 18  1  0
 19 21  2  0
 22 23  1  0
 23 24  1  0
M  END
$$$$
