
     RDKit          3D

 26 29  0  0  0  0  0  0  0  0999 V2000
  -10.5059    0.9525   16.9416 C   0  0  0  0  0  0  0  0  0  0  0  0
  -11.4333    1.8516   16.4659 C   0  0  0  0  0  0  0  0  0  0  0  0
   -6.5700   -1.3262   13.6239 C   0  0  0  0  0  0  0  0  0  0  0  0
  -11.9069    1.7750   15.1882 C   0  0  0  0  0  0  0  0  0  0  0  0
  -11.4389    0.7780   14.3753 C   0  0  0  0  0  0  0  0  0  0  0  0
  -10.5068   -0.1390   14.8260 C   0  0  0  0  0  0  0  0  0  0  0  0
   -9.8832   -1.1760   14.2742 N   0  0  0  0  0  0  0  0  0  0  0  0
   -5.3115   -0.7791   13.4054 C   0  0  0  0  0  0  0  0  0  0  0  0
   -4.4803   -2.0827   15.1374 C   0  0  0  0  0  0  0  0  0  0  0  0
   -8.4550   -1.4464   17.5500 C   0  0  0  0  0  0  0  0  0  0  0  0
  -10.1522   -4.0680   19.7430 C   0  0  0  0  0  0  0  0  0  0  0  0
   -9.2668   -2.1209   18.5864 C   0  0  0  0  0  0  0  0  0  0  0  0
   -9.4741   -3.4876   18.6640 C   0  0  0  0  0  0  0  0  0  0  0  0
  -10.6461   -3.3013   20.7737 C   0  0  0  0  0  0  0  0  0  0  0  0
   -9.7777   -1.3864   19.6369 C   0  0  0  0  0  0  0  0  0  0  0  0
  -10.9765   -1.0871   21.8079 C   0  0  0  0  0  0  0  0  0  0  0  0
   -8.4164   -3.5310   13.6597 O   0  0  0  0  0  0  0  0  0  0  0  0
   -8.1738   -2.8402   14.7930 C   0  0  1  0  0  0  0  0  0  0  0  0
   -6.7776   -2.2739   14.6254 C   0  0  0  0  0  0  0  0  0  0  0  0
   -4.3007   -1.1786   14.1749 N   0  0  0  0  0  0  0  0  0  0  0  0
   -5.7167   -2.6486   15.3838 C   0  0  0  0  0  0  0  0  0  0  0  0
   -9.0484   -1.7353   15.1719 C   0  0  0  0  0  0  0  0  0  0  0  0
   -9.1316   -1.0396   16.3618 N   0  0  0  0  0  0  0  0  0  0  0  0
  -10.0126   -0.0705   16.1435 C   0  0  0  0  0  0  0  0  0  0  0  0
   -9.0957   -4.4287   17.5938 C   0  0  0  0  0  0  0  0  0  0  0  0
  -10.4556   -1.9477   20.7157 C   0  0  0  0  0  0  0  0  0  0  0  0
  1  2  2  0
 24  1  1  0
  4  2  1  0
  3  8  2  0
 19  3  1  0
  5  4  2  0
  6  5  1  0
  7  6  1  0
  6 24  2  0
 22  7  2  0
  8 20  1  0
  9 20  2  0
 21  9  1  0
 10 12  1  0
 10 23  1  6
 13 11  2  0
 11 14  1  0
 12 13  1  0
 12 15  2  0
 25 13  1  6
 26 14  2  0
 15 26  1  0
 16 26  1  6
 18 17  1  6
 18 19  1  0
 22 18  1  0
 19 21  2  0
 22 23  1  0
 23 24  1  0
M  END
$$$$
