
     RDKit          3D

 26 29  0  0  0  0  0  0  0  0999 V2000
   -7.6650   -5.3106   16.1286 C   0  0  0  0  0  0  0  0  0  0  0  0
   -6.9465   -6.4845   16.1053 C   0  0  0  0  0  0  0  0  0  0  0  0
   -8.3036    0.2585   13.4239 C   0  0  0  0  0  0  0  0  0  0  0  0
   -5.6420   -6.5113   15.7049 C   0  0  0  0  0  0  0  0  0  0  0  0
   -5.0510   -5.3378   15.3205 C   0  0  0  0  0  0  0  0  0  0  0  0
   -5.7486   -4.1437   15.3333 C   0  0  0  0  0  0  0  0  0  0  0  0
   -5.4459   -2.8887   15.0139 N   0  0  0  0  0  0  0  0  0  0  0  0
   -8.9878    0.4170   12.2250 C   0  0  0  0  0  0  0  0  0  0  0  0
   -7.4487   -0.9860   11.1991 C   0  0  0  0  0  0  0  0  0  0  0  0
   -8.8149   -2.3094   16.0896 C   0  0  0  0  0  0  0  0  0  0  0  0
   -9.4989   -0.9236   19.5787 C   0  0  0  0  0  0  0  0  0  0  0  0
   -9.0427   -2.1762   17.5450 C   0  0  0  0  0  0  0  0  0  0  0  0
   -9.1611   -0.9735   18.2207 C   0  0  0  0  0  0  0  0  0  0  0  0
   -9.7247   -2.0721   20.3027 C   0  0  0  0  0  0  0  0  0  0  0  0
   -9.2748   -3.3046   18.3047 C   0  0  0  0  0  0  0  0  0  0  0  0
   -9.8429   -4.5333   20.4041 C   0  0  0  0  0  0  0  0  0  0  0  0
   -5.2964   -0.0563   14.7117 O   0  0  0  0  0  0  0  0  0  0  0  0
   -6.4827   -0.6845   14.8474 C   0  0  1  0  0  0  0  0  0  0  0  0
   -7.1661   -0.5442   13.5015 C   0  0  0  0  0  0  0  0  0  0  0  0
   -8.5346   -0.2155   11.1442 N   0  0  0  0  0  0  0  0  0  0  0  0
   -6.7427   -1.1675   12.3731 C   0  0  0  0  0  0  0  0  0  0  0  0
   -6.5195   -2.0980   15.2082 C   0  0  0  0  0  0  0  0  0  0  0  0
   -7.5670   -2.8650   15.6785 N   0  0  0  0  0  0  0  0  0  0  0  0
   -7.0948   -4.1040   15.7465 C   0  0  0  0  0  0  0  0  0  0  0  0
   -8.8532    0.3338   17.6122 C   0  0  0  0  0  0  0  0  0  0  0  0
   -9.6095   -3.2722   19.6557 C   0  0  0  0  0  0  0  0  0  0  0  0
  1  2  2  0
 24  1  1  0
  4  2  1  0
  3  8  2  0
 19  3  1  0
  5  4  2  0
  6  5  1  0
  7  6  1  0
  6 24  2  0
 22  7  2  0
  8 20  1  0
  9 20  2  0
 21  9  1  0
 10 12  1  0
 10 23  1  6
 13 11  2  0
 11 14  1  0
 12 13  1  0
 12 15  2  0
 25 13  1  6
 26 14  2  0
 15 26  1  0
 16 26  1  6
 18 17  1  6
 18 19  1  0
 22 18  1  0
 19 21  2  0
 22 23  1  0
 23 24  1  0
M  END
$$$$
