
     RDKit          3D

 26 29  0  0  0  0  0  0  0  0999 V2000
   -6.5446   -0.0868   18.8951 C   0  0  0  0  0  0  0  0  0  0  0  0
   -6.4344    0.3266   20.2091 C   0  0  0  0  0  0  0  0  0  0  0  0
  -10.8825   -0.0646   14.3145 C   0  0  0  0  0  0  0  0  0  0  0  0
   -7.5457    0.3126   21.0015 C   0  0  0  0  0  0  0  0  0  0  0  0
   -8.7754   -0.0983   20.5402 C   0  0  0  0  0  0  0  0  0  0  0  0
   -8.8878   -0.5168   19.2107 C   0  0  0  0  0  0  0  0  0  0  0  0
   -9.9308   -0.9286   18.4973 N   0  0  0  0  0  0  0  0  0  0  0  0
  -11.5038    1.0194   13.7351 C   0  0  0  0  0  0  0  0  0  0  0  0
  -12.6845    1.3917   15.7313 C   0  0  0  0  0  0  0  0  0  0  0  0
   -7.3801   -1.0269   16.0104 C   0  0  0  0  0  0  0  0  0  0  0  0
   -6.4842   -3.9548   13.7388 C   0  0  0  0  0  0  0  0  0  0  0  0
   -7.0403   -2.3242   15.4527 C   0  0  0  0  0  0  0  0  0  0  0  0
   -6.7775   -2.6444   14.1541 C   0  0  0  0  0  0  0  0  0  0  0  0
   -6.4497   -4.9911   14.6440 C   0  0  0  0  0  0  0  0  0  0  0  0
   -6.9974   -3.4035   16.3448 C   0  0  0  0  0  0  0  0  0  0  0  0
   -6.6778   -5.7974   16.9355 C   0  0  0  0  0  0  0  0  0  0  0  0
  -11.3635   -2.5675   16.5911 O   0  0  0  0  0  0  0  0  0  0  0  0
  -10.4465   -1.6365   16.2044 C   0  0  1  0  0  0  0  0  0  0  0  0
  -11.1350   -0.4636   15.6193 C   0  0  0  0  0  0  0  0  0  0  0  0
  -12.3969    1.7296   14.4586 N   0  0  0  0  0  0  0  0  0  0  0  0
  -12.0598    0.3065   16.3050 C   0  0  0  0  0  0  0  0  0  0  0  0
   -9.5004   -1.1898   17.2267 C   0  0  0  0  0  0  0  0  0  0  0  0
   -8.1911   -0.9357   17.1783 N   0  0  0  0  0  0  0  0  0  0  0  0
   -7.7686   -0.5056   18.4092 C   0  0  0  0  0  0  0  0  0  0  0  0
   -6.8049   -1.6270   13.1080 C   0  0  0  0  0  0  0  0  0  0  0  0
   -6.7122   -4.6822   15.9470 C   0  0  0  0  0  0  0  0  0  0  0  0
  1  2  2  0
 24  1  1  0
  4  2  1  0
  3  8  2  0
 19  3  1  0
  5  4  2  0
  6  5  1  0
  7  6  1  0
  6 24  2  0
 22  7  2  0
  8 20  1  0
  9 20  2  0
 21  9  1  0
 10 12  1  0
 23 10  1  0
 13 11  2  0
 11 14  1  0
 12 13  1  0
 12 15  2  0
 13 25  1  0
 26 14  2  0
 15 26  1  0
 26 16  1  0
 18 17  1  1
 18 19  1  0
 22 18  1  0
 19 21  2  0
 22 23  1  0
 23 24  1  0
M  END
$$$$
