
     RDKit          3D

 26 29  0  0  0  0  0  0  0  0999 V2000
   -9.0620    0.3948   18.8056 C   0  0  0  0  0  0  0  0  0  0  0  0
   -9.2847    0.2572   20.1625 C   0  0  0  0  0  0  0  0  0  0  0  0
   -5.2165   -4.4134   15.3457 C   0  0  0  0  0  0  0  0  0  0  0  0
   -8.5969   -0.6998   20.8511 C   0  0  0  0  0  0  0  0  0  0  0  0
   -7.6879   -1.5356   20.2437 C   0  0  0  0  0  0  0  0  0  0  0  0
   -7.4619   -1.3970   18.8707 C   0  0  0  0  0  0  0  0  0  0  0  0
   -6.6823   -2.0686   18.0295 N   0  0  0  0  0  0  0  0  0  0  0  0
   -5.3169   -5.7870   15.3375 C   0  0  0  0  0  0  0  0  0  0  0  0
   -7.5876   -5.6102   15.9124 C   0  0  0  0  0  0  0  0  0  0  0  0
   -8.2440    0.2050   15.7728 C   0  0  0  0  0  0  0  0  0  0  0  0
  -10.8445   -1.1732   13.3494 C   0  0  0  0  0  0  0  0  0  0  0  0
   -9.4637   -0.1985   15.0955 C   0  0  0  0  0  0  0  0  0  0  0  0
   -9.5946   -0.8630   13.9126 C   0  0  0  0  0  0  0  0  0  0  0  0
  -12.0128   -0.8115   13.9810 C   0  0  0  0  0  0  0  0  0  0  0  0
  -10.6729    0.1543   15.7088 C   0  0  0  0  0  0  0  0  0  0  0  0
  -13.1528    0.2517   15.8579 C   0  0  0  0  0  0  0  0  0  0  0  0
   -4.8243   -1.7808   15.5201 O   0  0  0  0  0  0  0  0  0  0  0  0
   -6.1410   -2.1126   15.6359 C   0  0  1  0  0  0  0  0  0  0  0  0
   -6.2915   -3.5855   15.6361 C   0  0  0  0  0  0  0  0  0  0  0  0
   -6.5063   -6.3610   15.6224 N   0  0  0  0  0  0  0  0  0  0  0  0
   -7.4806   -4.2371   15.9190 C   0  0  0  0  0  0  0  0  0  0  0  0
   -6.8575   -1.5466   16.7787 C   0  0  0  0  0  0  0  0  0  0  0  0
   -7.7454   -0.5543   16.8705 N   0  0  0  0  0  0  0  0  0  0  0  0
   -8.1526   -0.4316   18.1735 C   0  0  0  0  0  0  0  0  0  0  0  0
   -8.4221   -1.2780   13.1491 C   0  0  0  0  0  0  0  0  0  0  0  0
  -11.8937   -0.1449   15.1657 C   0  0  0  0  0  0  0  0  0  0  0  0
  1  2  2  0
 24  1  1  0
  4  2  1  0
  3  8  2  0
 19  3  1  0
  5  4  2  0
  6  5  1  0
  7  6  1  0
  6 24  2  0
 22  7  2  0
  8 20  1  0
  9 20  2  0
 21  9  1  0
 10 12  1  0
 23 10  1  0
 13 11  2  0
 11 14  1  0
 12 13  1  0
 12 15  2  0
 13 25  1  0
 26 14  2  0
 15 26  1  0
 26 16  1  0
 18 17  1  1
 18 19  1  0
 22 18  1  0
 19 21  2  0
 22 23  1  0
 23 24  1  0
M  END
$$$$
