
     RDKit          3D

 26 29  0  0  0  0  0  0  0  0999 V2000
   -8.2578   -1.7691   18.4532 C   0  0  0  0  0  0  0  0  0  0  0  0
   -8.2999   -0.9031   19.5292 C   0  0  0  0  0  0  0  0  0  0  0  0
   -6.2561   -0.8114   13.2426 C   0  0  0  0  0  0  0  0  0  0  0  0
   -8.5387    0.4215   19.3022 C   0  0  0  0  0  0  0  0  0  0  0  0
   -8.7393    0.9289   18.0389 C   0  0  0  0  0  0  0  0  0  0  0  0
   -8.6970    0.0533   16.9494 C   0  0  0  0  0  0  0  0  0  0  0  0
   -8.8216    0.2594   15.6424 N   0  0  0  0  0  0  0  0  0  0  0  0
   -5.1255   -0.2222   12.7217 C   0  0  0  0  0  0  0  0  0  0  0  0
   -6.4737    1.3429   11.6034 C   0  0  0  0  0  0  0  0  0  0  0  0
   -8.1785   -3.2457   15.6753 C   0  0  0  0  0  0  0  0  0  0  0  0
   -5.0036   -5.3554   15.6077 C   0  0  0  0  0  0  0  0  0  0  0  0
   -6.8096   -3.7297   15.6406 C   0  0  0  0  0  0  0  0  0  0  0  0
   -6.3684   -5.0191   15.6139 C   0  0  0  0  0  0  0  0  0  0  0  0
   -4.0354   -4.3774   15.6290 C   0  0  0  0  0  0  0  0  0  0  0  0
   -5.7969   -2.7619   15.6628 C   0  0  0  0  0  0  0  0  0  0  0  0
   -3.4253   -2.0155   15.6801 C   0  0  0  0  0  0  0  0  0  0  0  0
   -9.8573   -0.5317   12.9597 O   0  0  0  0  0  0  0  0  0  0  0  0
   -8.7258   -1.0141   13.5463 C   0  0  1  0  0  0  0  0  0  0  0  0
   -7.5356   -0.3507   12.9670 C   0  0  0  0  0  0  0  0  0  0  0  0
   -5.2573    0.8486   11.9085 N   0  0  0  0  0  0  0  0  0  0  0  0
   -7.6004    0.7491   12.1276 C   0  0  0  0  0  0  0  0  0  0  0  0
   -8.6662   -0.9401   15.0061 C   0  0  0  0  0  0  0  0  0  0  0  0
   -8.4496   -1.8716   15.9369 N   0  0  0  0  0  0  0  0  0  0  0  0
   -8.4580   -1.2837   17.1750 C   0  0  0  0  0  0  0  0  0  0  0  0
   -7.3081   -6.1358   15.6080 C   0  0  0  0  0  0  0  0  0  0  0  0
   -4.4657   -3.0827   15.6566 C   0  0  0  0  0  0  0  0  0  0  0  0
  1  2  2  0
 24  1  1  0
  4  2  1  0
  3  8  2  0
 19  3  1  0
  5  4  2  0
  6  5  1  0
  7  6  1  0
  6 24  2  0
 22  7  2  0
  8 20  1  0
  9 20  2  0
 21  9  1  0
 10 12  1  0
 23 10  1  0
 13 11  2  0
 11 14  1  0
 12 13  1  0
 12 15  2  0
 13 25  1  0
 26 14  2  0
 15 26  1  0
 26 16  1  0
 18 17  1  6
 18 19  1  0
 22 18  1  0
 19 21  2  0
 22 23  1  0
 23 24  1  0
M  END
$$$$
