
     RDKit          3D

 26 29  0  0  0  0  0  0  0  0999 V2000
   -2.3472   -1.8931   15.2236 C   0  0  0  0  0  0  0  0  0  0  0  0
   -1.4441   -2.7525   15.8070 C   0  0  0  0  0  0  0  0  0  0  0  0
   -1.1808   -0.6241   10.2877 C   0  0  0  0  0  0  0  0  0  0  0  0
   -0.1361   -2.7799   15.4183 C   0  0  0  0  0  0  0  0  0  0  0  0
    0.2697   -1.9294   14.4254 C   0  0  0  0  0  0  0  0  0  0  0  0
   -0.6157   -1.0556   13.8210 C   0  0  0  0  0  0  0  0  0  0  0  0
   -0.5105   -0.1497   12.8530 N   0  0  0  0  0  0  0  0  0  0  0  0
   -0.9959   -1.3554    9.1208 C   0  0  0  0  0  0  0  0  0  0  0  0
   -1.8921    0.4115    7.9105 C   0  0  0  0  0  0  0  0  0  0  0  0
   -3.9749    0.3627   13.6134 C   0  0  0  0  0  0  0  0  0  0  0  0
   -6.7647   -1.2064   11.5355 C   0  0  0  0  0  0  0  0  0  0  0  0
   -5.0452   -0.5288   13.1159 C   0  0  0  0  0  0  0  0  0  0  0  0
   -5.8544   -0.2615   12.0246 C   0  0  0  0  0  0  0  0  0  0  0  0
   -6.8967   -2.4439   12.1234 C   0  0  0  0  0  0  0  0  0  0  0  0
   -5.2079   -1.7783   13.6784 C   0  0  0  0  0  0  0  0  0  0  0  0
   -6.2252   -4.0519   13.8684 C   0  0  0  0  0  0  0  0  0  0  0  0
   -1.0611    2.4615   11.4712 O   0  0  0  0  0  0  0  0  0  0  0  0
   -1.8890    1.4002   11.5652 C   0  0  1  0  0  0  0  0  0  0  0  0
   -1.7349    0.6550   10.2541 C   0  0  0  0  0  0  0  0  0  0  0  0
   -1.3601   -0.8093    7.9621 N   0  0  0  0  0  0  0  0  0  0  0  0
   -2.0908    1.1683    9.0496 C   0  0  0  0  0  0  0  0  0  0  0  0
   -1.7080    0.4303   12.6403 C   0  0  0  0  0  0  0  0  0  0  0  0
   -2.6347   -0.1142   13.5073 N   0  0  0  0  0  0  0  0  0  0  0  0
   -1.9675   -1.0175   14.2156 C   0  0  0  0  0  0  0  0  0  0  0  0
   -5.9028    1.0493   11.3510 C   0  0  0  0  0  0  0  0  0  0  0  0
   -6.1094   -2.7281   13.2057 C   0  0  0  0  0  0  0  0  0  0  0  0
  1  2  2  0
 24  1  1  0
  4  2  1  0
  3  8  2  0
 19  3  1  0
  5  4  2  0
  6  5  1  0
  7  6  1  0
  6 24  2  0
 22  7  2  0
  8 20  1  0
  9 20  2  0
 21  9  1  0
 10 12  1  0
 10 23  1  6
 13 11  2  0
 11 14  1  0
 12 13  1  0
 12 15  2  0
 25 13  1  6
 26 14  2  0
 15 26  1  0
 16 26  1  6
 18 17  1  1
 18 19  1  0
 22 18  1  0
 19 21  2  0
 22 23  1  0
 23 24  1  0
M  END
$$$$
