
     RDKit          3D

 26 29  0  0  0  0  0  0  0  0999 V2000
   -3.5240   -3.4822   14.5339 C   0  0  0  0  0  0  0  0  0  0  0  0
   -2.6493   -3.9008   15.5108 C   0  0  0  0  0  0  0  0  0  0  0  0
   -2.0242    0.4563   10.7611 C   0  0  0  0  0  0  0  0  0  0  0  0
   -1.7191   -3.0548   16.0416 C   0  0  0  0  0  0  0  0  0  0  0  0
   -1.6673   -1.7668   15.5810 C   0  0  0  0  0  0  0  0  0  0  0  0
   -2.5332   -1.3187   14.6000 C   0  0  0  0  0  0  0  0  0  0  0  0
   -2.7025   -0.1595   13.9706 N   0  0  0  0  0  0  0  0  0  0  0  0
   -1.3874    0.1994    9.5532 C   0  0  0  0  0  0  0  0  0  0  0  0
   -3.4629    0.1012    8.5176 C   0  0  0  0  0  0  0  0  0  0  0  0
   -5.3625   -1.9600   12.3813 C   0  0  0  0  0  0  0  0  0  0  0  0
   -8.9518   -1.0300   13.2838 C   0  0  0  0  0  0  0  0  0  0  0  0
   -6.6744   -1.8513   13.0558 C   0  0  0  0  0  0  0  0  0  0  0  0
   -7.6911   -0.9919   12.6755 C   0  0  0  0  0  0  0  0  0  0  0  0
   -9.2333   -1.9240   14.2916 C   0  0  0  0  0  0  0  0  0  0  0  0
   -6.9945   -2.7311   14.0696 C   0  0  0  0  0  0  0  0  0  0  0  0
   -8.5070   -3.7576   15.7721 C   0  0  0  0  0  0  0  0  0  0  0  0
   -3.6369    2.0898   12.4919 O   0  0  0  0  0  0  0  0  0  0  0  0
   -4.0376    0.8381   12.1865 C   0  0  1  0  0  0  0  0  0  0  0  0
   -3.4141    0.5362   10.8381 C   0  0  0  0  0  0  0  0  0  0  0  0
   -2.1333    0.0293    8.4631 N   0  0  0  0  0  0  0  0  0  0  0  0
   -4.1309    0.3551    9.7003 C   0  0  0  0  0  0  0  0  0  0  0  0
   -3.7050   -0.2690   13.0769 C   0  0  0  0  0  0  0  0  0  0  0  0
   -4.2166   -1.5507   13.1259 N   0  0  0  0  0  0  0  0  0  0  0  0
   -3.4985   -2.1827   14.0465 C   0  0  0  0  0  0  0  0  0  0  0  0
   -7.5155    0.0859   11.6846 C   0  0  0  0  0  0  0  0  0  0  0  0
   -8.2419   -2.7804   14.6859 C   0  0  0  0  0  0  0  0  0  0  0  0
  1  2  2  0
 24  1  1  0
  4  2  1  0
  3  8  2  0
 19  3  1  0
  5  4  2  0
  6  5  1  0
  7  6  1  0
  6 24  2  0
 22  7  2  0
  8 20  1  0
  9 20  2  0
 21  9  1  0
 10 12  1  0
 10 23  1  6
 13 11  2  0
 11 14  1  0
 12 13  1  0
 12 15  2  0
 25 13  1  6
 26 14  2  0
 15 26  1  0
 16 26  1  6
 18 17  1  1
 18 19  1  0
 22 18  1  0
 19 21  2  0
 22 23  1  0
 23 24  1  0
M  END
$$$$
