
     RDKit          3D

 26 29  0  0  0  0  0  0  0  0999 V2000
   -6.0664   -3.5535   13.1848 C   0  0  0  0  0  0  0  0  0  0  0  0
   -6.1152   -4.7639   13.8385 C   0  0  0  0  0  0  0  0  0  0  0  0
   -2.4083    0.9473   11.7004 C   0  0  0  0  0  0  0  0  0  0  0  0
   -5.3508   -5.0064   14.9429 C   0  0  0  0  0  0  0  0  0  0  0  0
   -4.5228   -4.0151   15.3964 C   0  0  0  0  0  0  0  0  0  0  0  0
   -4.4529   -2.7894   14.7595 C   0  0  0  0  0  0  0  0  0  0  0  0
   -3.7534   -1.6767   14.9625 N   0  0  0  0  0  0  0  0  0  0  0  0
   -1.4204    0.8384   10.7294 C   0  0  0  0  0  0  0  0  0  0  0  0
   -0.1307   -0.3817   12.2254 C   0  0  0  0  0  0  0  0  0  0  0  0
   -5.6386   -0.5470   12.1318 C   0  0  0  0  0  0  0  0  0  0  0  0
   -9.3843   -0.1918   11.4949 C   0  0  0  0  0  0  0  0  0  0  0  0
   -7.0843   -0.2714   12.2800 C   0  0  0  0  0  0  0  0  0  0  0  0
   -8.0132   -0.3459   11.2560 C   0  0  0  0  0  0  0  0  0  0  0  0
   -9.8679    0.0447   12.7616 C   0  0  0  0  0  0  0  0  0  0  0  0
   -7.6073   -0.0316   13.5342 C   0  0  0  0  0  0  0  0  0  0  0  0
   -9.4507    0.3826   15.1685 C   0  0  0  0  0  0  0  0  0  0  0  0
   -2.7989    1.0237   15.0745 O   0  0  0  0  0  0  0  0  0  0  0  0
   -3.3721    0.5178   13.9626 C   0  0  1  0  0  0  0  0  0  0  0  0
   -2.2437    0.3739   12.9606 C   0  0  0  0  0  0  0  0  0  0  0  0
   -0.3060    0.1723   11.0261 N   0  0  0  0  0  0  0  0  0  0  0  0
   -1.0906   -0.2942   13.2156 C   0  0  0  0  0  0  0  0  0  0  0  0
   -4.0669   -0.7640   14.0221 C   0  0  0  0  0  0  0  0  0  0  0  0
   -5.0136   -1.2986   13.1708 N   0  0  0  0  0  0  0  0  0  0  0  0
   -5.2387   -2.5276   13.6200 C   0  0  0  0  0  0  0  0  0  0  0  0
   -7.6462   -0.4928    9.8355 C   0  0  0  0  0  0  0  0  0  0  0  0
   -8.9672    0.1258   13.7882 C   0  0  0  0  0  0  0  0  0  0  0  0
  1  2  2  0
 24  1  1  0
  4  2  1  0
  3  8  2  0
 19  3  1  0
  5  4  2  0
  6  5  1  0
  7  6  1  0
  6 24  2  0
 22  7  2  0
  8 20  1  0
  9 20  2  0
 21  9  1  0
 10 12  1  0
 10 23  1  6
 13 11  2  0
 11 14  1  0
 12 13  1  0
 12 15  2  0
 25 13  1  6
 26 14  2  0
 15 26  1  0
 16 26  1  6
 18 17  1  1
 18 19  1  0
 22 18  1  0
 19 21  2  0
 22 23  1  0
 23 24  1  0
M  END
$$$$
