
     RDKit          3D

 26 29  0  0  0  0  0  0  0  0999 V2000
  -11.1277    1.1332   16.0489 C   0  0  0  0  0  0  0  0  0  0  0  0
  -11.9857    1.6260   15.0843 C   0  0  0  0  0  0  0  0  0  0  0  0
   -6.8099   -1.7603   14.7685 C   0  0  0  0  0  0  0  0  0  0  0  0
  -12.2028    0.8904   13.9552 C   0  0  0  0  0  0  0  0  0  0  0  0
  -11.5976   -0.3268   13.7401 C   0  0  0  0  0  0  0  0  0  0  0  0
  -10.7293   -0.8262   14.7158 C   0  0  0  0  0  0  0  0  0  0  0  0
   -9.9964   -1.9338   14.7655 N   0  0  0  0  0  0  0  0  0  0  0  0
   -5.7274   -1.6639   13.9226 C   0  0  0  0  0  0  0  0  0  0  0  0
   -5.3469   -3.9686   14.1698 C   0  0  0  0  0  0  0  0  0  0  0  0
   -9.0422   -0.4009   17.8380 C   0  0  0  0  0  0  0  0  0  0  0  0
   -9.3430   -1.6459   21.4289 C   0  0  0  0  0  0  0  0  0  0  0  0
   -9.4418   -1.0471   19.0757 C   0  0  0  0  0  0  0  0  0  0  0  0
   -8.8701   -0.9409   20.3086 C   0  0  0  0  0  0  0  0  0  0  0  0
  -10.4249   -2.4907   21.3263 C   0  0  0  0  0  0  0  0  0  0  0  0
  -10.5388   -1.9159   19.0090 C   0  0  0  0  0  0  0  0  0  0  0  0
  -12.1769   -3.5180   19.9742 C   0  0  0  0  0  0  0  0  0  0  0  0
   -8.8988   -4.2762   16.2493 O   0  0  0  0  0  0  0  0  0  0  0  0
   -8.3734   -3.0188   16.2532 C   0  0  1  0  0  0  0  0  0  0  0  0
   -7.2039   -2.9583   15.3473 C   0  0  0  0  0  0  0  0  0  0  0  0
   -5.0138   -2.7755   13.6385 N   0  0  0  0  0  0  0  0  0  0  0  0
   -6.4307   -4.0584   15.0151 C   0  0  0  0  0  0  0  0  0  0  0  0
   -9.2943   -1.9268   15.9381 C   0  0  0  0  0  0  0  0  0  0  0  0
   -9.6099   -0.8098   16.5968 N   0  0  0  0  0  0  0  0  0  0  0  0
  -10.5094   -0.0876   15.8566 C   0  0  0  0  0  0  0  0  0  0  0  0
   -7.7065   -0.0877   20.5273 C   0  0  0  0  0  0  0  0  0  0  0  0
  -11.0046   -2.6054   20.0963 C   0  0  0  0  0  0  0  0  0  0  0  0
  1  2  2  0
 24  1  1  0
  4  2  1  0
  3  8  2  0
 19  3  1  0
  5  4  2  0
  6  5  1  0
  7  6  1  0
  6 24  2  0
 22  7  2  0
  8 20  1  0
  9 20  2  0
 21  9  1  0
 10 12  1  0
 23 10  1  0
 13 11  2  0
 11 14  1  0
 12 13  1  0
 12 15  2  0
 13 25  1  0
 26 14  2  0
 15 26  1  0
 26 16  1  0
 18 17  1  6
 18 19  1  0
 22 18  1  0
 19 21  2  0
 22 23  1  0
 23 24  1  0
M  END
$$$$
