
     RDKit          3D

 26 29  0  0  0  0  0  0  0  0999 V2000
  -16.2340   -0.5579    2.9876 C   0  0  0  0  0  0  0  0  0  0  0  0
  -14.9558   -1.0586    3.0882 C   0  0  0  0  0  0  0  0  0  0  0  0
  -21.3108   -4.4083    0.2346 C   0  0  0  0  0  0  0  0  0  0  0  0
  -14.5828   -2.1926    2.4266 C   0  0  0  0  0  0  0  0  0  0  0  0
  -15.5115   -2.8340    1.6519 C   0  0  0  0  0  0  0  0  0  0  0  0
  -16.8031   -2.3541    1.5327 C   0  0  0  0  0  0  0  0  0  0  0  0
  -17.8877   -2.7612    0.8796 N   0  0  0  0  0  0  0  0  0  0  0  0
  -21.7451   -5.6597    0.6543 C   0  0  0  0  0  0  0  0  0  0  0  0
  -20.9267   -5.1955    2.7767 C   0  0  0  0  0  0  0  0  0  0  0  0
  -19.2810    0.2126    2.3144 C   0  0  0  0  0  0  0  0  0  0  0  0
  -21.9577    0.6102    5.0051 C   0  0  0  0  0  0  0  0  0  0  0  0
  -20.0675    0.1017    3.5622 C   0  0  0  0  0  0  0  0  0  0  0  0
  -21.1911    0.8544    3.8590 C   0  0  0  0  0  0  0  0  0  0  0  0
  -21.6234   -0.3896    5.8899 C   0  0  0  0  0  0  0  0  0  0  0  0
  -19.7642   -0.8892    4.4733 C   0  0  0  0  0  0  0  0  0  0  0  0
  -20.1205   -2.2297    6.5509 C   0  0  0  0  0  0  0  0  0  0  0  0
  -20.4385   -2.2361   -0.7428 O   0  0  0  0  0  0  0  0  0  0  0  0
  -20.2416   -2.1810    0.5909 C   0  0  1  0  0  0  0  0  0  0  0  0
  -20.6708   -3.5371    1.1152 C   0  0  0  0  0  0  0  0  0  0  0  0
  -21.5374   -6.0145    1.9209 N   0  0  0  0  0  0  0  0  0  0  0  0
  -20.4815   -3.9440    2.3957 C   0  0  0  0  0  0  0  0  0  0  0  0
  -18.9076   -1.9135    1.1181 C   0  0  0  0  0  0  0  0  0  0  0  0
  -18.4725   -0.9073    1.9579 N   0  0  0  0  0  0  0  0  0  0  0  0
  -17.1984   -1.1835    2.2095 C   0  0  0  0  0  0  0  0  0  0  0  0
  -21.6199    2.0213    3.0660 C   0  0  0  0  0  0  0  0  0  0  0  0
  -20.5146   -1.1436    5.6181 C   0  0  0  0  0  0  0  0  0  0  0  0
  1  2  2  0
 24  1  1  0
  4  2  1  0
  3  8  2  0
 19  3  1  0
  5  4  2  0
  6  5  1  0
  7  6  1  0
  6 24  2  0
 22  7  2  0
  8 20  1  0
  9 20  2  0
 21  9  1  0
 10 12  1  0
 10 23  1  6
 13 11  2  0
 11 14  1  0
 12 13  1  0
 12 15  2  0
 25 13  1  6
 26 14  2  0
 15 26  1  0
 16 26  1  6
 18 17  1  6
 18 19  1  0
 22 18  1  0
 19 21  2  0
 22 23  1  0
 23 24  1  0
M  END
$$$$
