
     RDKit          3D

 26 29  0  0  0  0  0  0  0  0999 V2000
    0.6536   -2.1706    9.5947 C   0  0  0  0  0  0  0  0  0  0  0  0
    0.1967   -3.4627    9.7219 C   0  0  0  0  0  0  0  0  0  0  0  0
   -1.8840    1.7474   14.0191 C   0  0  0  0  0  0  0  0  0  0  0  0
   -0.8106   -3.7783   10.5870 C   0  0  0  0  0  0  0  0  0  0  0  0
   -1.3667   -2.7774   11.3374 C   0  0  0  0  0  0  0  0  0  0  0  0
   -0.9275   -1.4703   11.2307 C   0  0  0  0  0  0  0  0  0  0  0  0
   -1.2629   -0.3274   11.8224 N   0  0  0  0  0  0  0  0  0  0  0  0
   -3.0449    1.7765   14.7820 C   0  0  0  0  0  0  0  0  0  0  0  0
   -4.2197    2.4816   12.9078 C   0  0  0  0  0  0  0  0  0  0  0  0
    1.2433    0.9889    9.6248 C   0  0  0  0  0  0  0  0  0  0  0  0
    1.2703    0.6264    5.8261 C   0  0  0  0  0  0  0  0  0  0  0  0
    1.5287    0.5461    8.2427 C   0  0  0  0  0  0  0  0  0  0  0  0
    0.8648    0.9966    7.1143 C   0  0  0  0  0  0  0  0  0  0  0  0
    2.3475   -0.2067    5.6267 C   0  0  0  0  0  0  0  0  0  0  0  0
    2.6015   -0.2878    8.0020 C   0  0  0  0  0  0  0  0  0  0  0  0
    4.1819   -1.5699    6.5532 C   0  0  0  0  0  0  0  0  0  0  0  0
   -0.6181    3.0857   11.0665 O   0  0  0  0  0  0  0  0  0  0  0  0
   -0.6006    2.0214   11.8957 C   0  0  1  0  0  0  0  0  0  0  0  0
   -1.9024    2.0949   12.6689 C   0  0  0  0  0  0  0  0  0  0  0  0
   -4.1829    2.1452   14.1968 N   0  0  0  0  0  0  0  0  0  0  0  0
   -3.0860    2.4643   12.1178 C   0  0  0  0  0  0  0  0  0  0  0  0
   -0.4970    0.6736   11.3460 C   0  0  0  0  0  0  0  0  0  0  0  0
    0.3726    0.1672   10.4004 N   0  0  0  0  0  0  0  0  0  0  0  0
    0.1102   -1.1329   10.3397 C   0  0  0  0  0  0  0  0  0  0  0  0
   -0.3637    1.8104    7.1653 C   0  0  0  0  0  0  0  0  0  0  0  0
    3.0162   -0.6668    6.7281 C   0  0  0  0  0  0  0  0  0  0  0  0
  1  2  2  0
 24  1  1  0
  4  2  1  0
  3  8  2  0
 19  3  1  0
  5  4  2  0
  6  5  1  0
  7  6  1  0
  6 24  2  0
 22  7  2  0
  8 20  1  0
  9 20  2  0
 21  9  1  0
 10 12  1  0
 10 23  1  6
 13 11  2  0
 11 14  1  0
 12 13  1  0
 12 15  2  0
 25 13  1  6
 26 14  2  0
 15 26  1  0
 16 26  1  6
 18 17  1  6
 18 19  1  0
 22 18  1  0
 19 21  2  0
 22 23  1  0
 23 24  1  0
M  END
$$$$
