
     RDKit          3D

 26 29  0  0  0  0  0  0  0  0999 V2000
   -6.9720   -0.6401   13.1959 C   0  0  0  0  0  0  0  0  0  0  0  0
   -7.0720   -0.6437   11.8231 C   0  0  0  0  0  0  0  0  0  0  0  0
  -11.3655   -1.1655   16.4995 C   0  0  0  0  0  0  0  0  0  0  0  0
   -8.1575   -0.1132   11.1883 C   0  0  0  0  0  0  0  0  0  0  0  0
   -9.1594    0.4290   11.9473 C   0  0  0  0  0  0  0  0  0  0  0  0
   -9.0861    0.4461   13.3283 C   0  0  0  0  0  0  0  0  0  0  0  0
   -9.8884    0.8829   14.2949 N   0  0  0  0  0  0  0  0  0  0  0  0
  -12.5502   -1.8868   16.4164 C   0  0  0  0  0  0  0  0  0  0  0  0
  -13.7352    0.0945   16.6615 C   0  0  0  0  0  0  0  0  0  0  0  0
   -7.2107   -0.2690   16.3796 C   0  0  0  0  0  0  0  0  0  0  0  0
   -7.7594   -3.2918   18.6432 C   0  0  0  0  0  0  0  0  0  0  0  0
   -7.2495   -1.6402   16.9328 C   0  0  0  0  0  0  0  0  0  0  0  0
   -7.6281   -1.9619   18.2252 C   0  0  0  0  0  0  0  0  0  0  0  0
   -7.5132   -4.3393   17.7850 C   0  0  0  0  0  0  0  0  0  0  0  0
   -7.0101   -2.7168   16.1035 C   0  0  0  0  0  0  0  0  0  0  0  0
   -6.8571   -5.1478   15.5495 C   0  0  0  0  0  0  0  0  0  0  0  0
  -10.3480    2.2193   17.0372 O   0  0  0  0  0  0  0  0  0  0  0  0
  -10.0456    0.9406   16.7306 C   0  0  1  0  0  0  0  0  0  0  0  0
  -11.3770    0.2187   16.6670 C   0  0  0  0  0  0  0  0  0  0  0  0
  -13.7045   -1.2281   16.5005 N   0  0  0  0  0  0  0  0  0  0  0  0
  -12.5780    0.8449   16.7480 C   0  0  0  0  0  0  0  0  0  0  0  0
   -9.3284    0.6394   15.4960 C   0  0  0  0  0  0  0  0  0  0  0  0
   -8.1074    0.0221   15.3090 N   0  0  0  0  0  0  0  0  0  0  0  0
   -7.9696   -0.0970   13.9939 C   0  0  0  0  0  0  0  0  0  0  0  0
   -7.8284   -0.9580   19.2865 C   0  0  0  0  0  0  0  0  0  0  0  0
   -7.1342   -4.0445   16.5038 C   0  0  0  0  0  0  0  0  0  0  0  0
  1  2  2  0
 24  1  1  0
  4  2  1  0
  3  8  2  0
 19  3  1  0
  5  4  2  0
  6  5  1  0
  7  6  1  0
  6 24  2  0
 22  7  2  0
  8 20  1  0
  9 20  2  0
 21  9  1  0
 10 12  1  0
 10 23  1  6
 13 11  2  0
 11 14  1  0
 12 13  1  0
 12 15  2  0
 25 13  1  6
 26 14  2  0
 15 26  1  0
 16 26  1  6
 18 17  1  6
 18 19  1  0
 22 18  1  0
 19 21  2  0
 22 23  1  0
 23 24  1  0
M  END
$$$$
