
     RDKit          3D

 26 29  0  0  0  0  0  0  0  0999 V2000
   -4.1502    1.8648   13.8430 C   0  0  0  0  0  0  0  0  0  0  0  0
   -2.8120    2.1165   14.0442 C   0  0  0  0  0  0  0  0  0  0  0  0
   -5.5647   -3.4339   13.1707 C   0  0  0  0  0  0  0  0  0  0  0  0
   -1.8498    1.2932   13.5354 C   0  0  0  0  0  0  0  0  0  0  0  0
   -2.2404    0.1979   12.8131 C   0  0  0  0  0  0  0  0  0  0  0  0
   -3.5777   -0.0800   12.5954 C   0  0  0  0  0  0  0  0  0  0  0  0
   -4.2330   -1.0477   11.9607 N   0  0  0  0  0  0  0  0  0  0  0  0
   -5.0564   -4.6727   13.5414 C   0  0  0  0  0  0  0  0  0  0  0  0
   -5.3767   -5.4183   11.3662 C   0  0  0  0  0  0  0  0  0  0  0  0
   -7.0830    0.8691   12.9839 C   0  0  0  0  0  0  0  0  0  0  0  0
   -9.9687   -0.4809   15.0846 C   0  0  0  0  0  0  0  0  0  0  0  0
   -7.8974    0.3065   14.0830 C   0  0  0  0  0  0  0  0  0  0  0  0
   -9.2754    0.1736   14.0590 C   0  0  0  0  0  0  0  0  0  0  0  0
   -9.3076   -1.0183   16.1655 C   0  0  0  0  0  0  0  0  0  0  0  0
   -7.2712   -0.2434   15.1828 C   0  0  0  0  0  0  0  0  0  0  0  0
   -7.1977   -1.4600   17.3633 C   0  0  0  0  0  0  0  0  0  0  0  0
   -6.7692   -1.8387   10.2041 O   0  0  0  0  0  0  0  0  0  0  0  0
   -6.5118   -1.8101   11.5283 C   0  0  1  0  0  0  0  0  0  0  0  0
   -5.9858   -3.1917   11.8637 C   0  0  0  0  0  0  0  0  0  0  0  0
   -4.9783   -5.6311   12.6201 N   0  0  0  0  0  0  0  0  0  0  0  0
   -5.8871   -4.1998   10.9609 C   0  0  0  0  0  0  0  0  0  0  0  0
   -5.5606   -0.8412   12.0629 C   0  0  0  0  0  0  0  0  0  0  0  0
   -5.7845    0.3112   12.7902 N   0  0  0  0  0  0  0  0  0  0  0  0
   -4.5792    0.7640   13.1143 C   0  0  0  0  0  0  0  0  0  0  0  0
  -10.1321    0.7810   13.0240 C   0  0  0  0  0  0  0  0  0  0  0  0
   -7.9457   -0.8953   16.2116 C   0  0  0  0  0  0  0  0  0  0  0  0
  1  2  2  0
 24  1  1  0
  4  2  1  0
  3  8  2  0
 19  3  1  0
  5  4  2  0
  6  5  1  0
  7  6  1  0
  6 24  2  0
 22  7  2  0
  8 20  1  0
  9 20  2  0
 21  9  1  0
 10 12  1  0
 10 23  1  6
 13 11  2  0
 11 14  1  0
 12 13  1  0
 12 15  2  0
 25 13  1  6
 26 14  2  0
 15 26  1  0
 16 26  1  6
 18 17  1  6
 18 19  1  0
 22 18  1  0
 19 21  2  0
 22 23  1  0
 23 24  1  0
M  END
$$$$
