
     RDKit          3D

 26 29  0  0  0  0  0  0  0  0999 V2000
   -4.0635   -2.2726   14.9647 C   0  0  0  0  0  0  0  0  0  0  0  0
   -2.7390   -1.9796   15.1980 C   0  0  0  0  0  0  0  0  0  0  0  0
   -6.6694   -1.1816   10.8603 C   0  0  0  0  0  0  0  0  0  0  0  0
   -2.1929   -0.7937   14.8005 C   0  0  0  0  0  0  0  0  0  0  0  0
   -2.9924    0.1119   14.1565 C   0  0  0  0  0  0  0  0  0  0  0  0
   -4.3263   -0.1557   13.9081 C   0  0  0  0  0  0  0  0  0  0  0  0
   -5.3111    0.5104   13.3121 N   0  0  0  0  0  0  0  0  0  0  0  0
   -6.4981   -1.5639    9.5355 C   0  0  0  0  0  0  0  0  0  0  0  0
   -7.9980    0.0898    8.8987 C   0  0  0  0  0  0  0  0  0  0  0  0
   -7.1987   -2.3831   14.2649 C   0  0  0  0  0  0  0  0  0  0  0  0
  -10.2724   -1.7804   16.4447 C   0  0  0  0  0  0  0  0  0  0  0  0
   -8.0971   -2.0874   15.4022 C   0  0  0  0  0  0  0  0  0  0  0  0
   -9.4702   -1.9372   15.3077 C   0  0  0  0  0  0  0  0  0  0  0  0
   -9.7274   -1.7652   17.7084 C   0  0  0  0  0  0  0  0  0  0  0  0
   -7.5885   -2.0653   16.6847 C   0  0  0  0  0  0  0  0  0  0  0  0
   -7.7467   -1.8944   19.1719 C   0  0  0  0  0  0  0  0  0  0  0  0
   -7.9610    1.5493   12.6738 O   0  0  0  0  0  0  0  0  0  0  0  0
   -7.6495    0.2365   12.6658 C   0  0  1  0  0  0  0  0  0  0  0  0
   -7.5275   -0.1369   11.2016 C   0  0  0  0  0  0  0  0  0  0  0  0
   -7.1728   -0.9106    8.5914 N   0  0  0  0  0  0  0  0  0  0  0  0
   -8.1935    0.4979   10.2044 C   0  0  0  0  0  0  0  0  0  0  0  0
   -6.4385   -0.2272   13.3350 C   0  0  0  0  0  0  0  0  0  0  0  0
   -6.1836   -1.4233   13.9762 N   0  0  0  0  0  0  0  0  0  0  0  0
   -4.9009   -1.3756   14.3157 C   0  0  0  0  0  0  0  0  0  0  0  0
  -10.1895   -1.8317   14.0248 C   0  0  0  0  0  0  0  0  0  0  0  0
   -8.3717   -1.9084   17.8250 C   0  0  0  0  0  0  0  0  0  0  0  0
  1  2  2  0
 24  1  1  0
  4  2  1  0
  3  8  2  0
 19  3  1  0
  5  4  2  0
  6  5  1  0
  7  6  1  0
  6 24  2  0
 22  7  2  0
  8 20  1  0
  9 20  2  0
 21  9  1  0
 10 12  1  0
 10 23  1  6
 13 11  2  0
 11 14  1  0
 12 13  1  0
 12 15  2  0
 25 13  1  6
 26 14  2  0
 15 26  1  0
 16 26  1  6
 18 17  1  6
 18 19  1  0
 22 18  1  0
 19 21  2  0
 22 23  1  0
 23 24  1  0
M  END
$$$$
