
     RDKit          3D

 26 29  0  0  0  0  0  0  0  0999 V2000
   -6.6940   -0.3204   19.3988 C   0  0  0  0  0  0  0  0  0  0  0  0
   -6.9722    0.7031   20.2847 C   0  0  0  0  0  0  0  0  0  0  0  0
   -7.3685    0.2714   14.1474 C   0  0  0  0  0  0  0  0  0  0  0  0
   -8.0057    1.5515   20.0105 C   0  0  0  0  0  0  0  0  0  0  0  0
   -8.7832    1.4264   18.8819 C   0  0  0  0  0  0  0  0  0  0  0  0
   -8.5024    0.3910   17.9849 C   0  0  0  0  0  0  0  0  0  0  0  0
   -9.0526    0.0521   16.8236 N   0  0  0  0  0  0  0  0  0  0  0  0
   -6.6178    0.8904   13.1727 C   0  0  0  0  0  0  0  0  0  0  0  0
   -6.9728   -0.9467   11.7526 C   0  0  0  0  0  0  0  0  0  0  0  0
   -6.4534   -2.3774   17.0294 C   0  0  0  0  0  0  0  0  0  0  0  0
   -6.9237   -5.9298   15.7278 C   0  0  0  0  0  0  0  0  0  0  0  0
   -6.8806   -3.7448   16.7905 C   0  0  0  0  0  0  0  0  0  0  0  0
   -6.4006   -4.6335   15.8752 C   0  0  0  0  0  0  0  0  0  0  0  0
   -7.9640   -6.3653   16.5169 C   0  0  0  0  0  0  0  0  0  0  0  0
   -7.9391   -4.2218   17.5745 C   0  0  0  0  0  0  0  0  0  0  0  0
   -9.5801   -5.9448   18.2958 C   0  0  0  0  0  0  0  0  0  0  0  0
  -10.0716   -1.5712   14.7178 O   0  0  0  0  0  0  0  0  0  0  0  0
   -8.7482   -1.6075   15.0410 C   0  0  1  0  0  0  0  0  0  0  0  0
   -7.9494   -0.9757   13.9664 C   0  0  0  0  0  0  0  0  0  0  0  0
   -6.4340    0.2661   11.9888 N   0  0  0  0  0  0  0  0  0  0  0  0
   -7.7225   -1.5604   12.7315 C   0  0  0  0  0  0  0  0  0  0  0  0
   -8.3767   -1.0294   16.3323 C   0  0  0  0  0  0  0  0  0  0  0  0
   -7.4171   -1.3427   17.2054 N   0  0  0  0  0  0  0  0  0  0  0  0
   -7.4618   -0.4676   18.2593 C   0  0  0  0  0  0  0  0  0  0  0  0
   -5.3111   -4.2712   14.9743 C   0  0  0  0  0  0  0  0  0  0  0  0
   -8.4532   -5.4834   17.4362 C   0  0  0  0  0  0  0  0  0  0  0  0
  1  2  2  0
 24  1  1  0
  4  2  1  0
  3  8  2  0
 19  3  1  0
  5  4  2  0
  6  5  1  0
  7  6  1  0
  6 24  2  0
 22  7  2  0
  8 20  1  0
  9 20  2  0
 21  9  1  0
 10 12  1  0
 23 10  1  0
 13 11  2  0
 11 14  1  0
 12 13  1  0
 12 15  2  0
 13 25  1  0
 26 14  2  0
 15 26  1  0
 26 16  1  0
 18 17  1  6
 18 19  1  0
 22 18  1  0
 19 21  2  0
 22 23  1  0
 23 24  1  0
M  END
$$$$
