
     RDKit          3D

 26 29  0  0  0  0  0  0  0  0999 V2000
   -8.0961   -3.2808   16.1460 C   0  0  0  0  0  0  0  0  0  0  0  0
   -7.1056   -3.7470   15.3116 C   0  0  0  0  0  0  0  0  0  0  0  0
  -13.2190    0.6648   16.0883 C   0  0  0  0  0  0  0  0  0  0  0  0
   -6.6501   -3.0011   14.2634 C   0  0  0  0  0  0  0  0  0  0  0  0
   -7.2010   -1.7662   14.0505 C   0  0  0  0  0  0  0  0  0  0  0  0
   -8.1979   -1.2724   14.8722 C   0  0  0  0  0  0  0  0  0  0  0  0
   -8.9048   -0.1462   14.8998 N   0  0  0  0  0  0  0  0  0  0  0  0
  -14.4233    0.3111   15.4923 C   0  0  0  0  0  0  0  0  0  0  0  0
  -13.2557   -0.3351   13.5926 C   0  0  0  0  0  0  0  0  0  0  0  0
  -10.3224   -1.6727   17.8159 C   0  0  0  0  0  0  0  0  0  0  0  0
   -9.2096   -1.5028   21.4621 C   0  0  0  0  0  0  0  0  0  0  0  0
   -9.6629   -1.2880   19.0827 C   0  0  0  0  0  0  0  0  0  0  0  0
   -9.9590   -1.8252   20.3240 C   0  0  0  0  0  0  0  0  0  0  0  0
   -8.1457   -0.6323   21.3954 C   0  0  0  0  0  0  0  0  0  0  0  0
   -8.5913   -0.4190   19.0568 C   0  0  0  0  0  0  0  0  0  0  0  0
   -6.6981    0.8590   20.0680 C   0  0  0  0  0  0  0  0  0  0  0  0
  -10.4473    2.1456   15.7000 O   0  0  0  0  0  0  0  0  0  0  0  0
  -10.7343    0.9001   16.1324 C   0  0  1  0  0  0  0  0  0  0  0  0
  -12.0096    0.5102   15.4117 C   0  0  0  0  0  0  0  0  0  0  0  0
  -14.4018   -0.1811   14.2551 N   0  0  0  0  0  0  0  0  0  0  0  0
  -12.0391    0.0052   14.1527 C   0  0  0  0  0  0  0  0  0  0  0  0
   -9.7731   -0.1790   15.9296 C   0  0  0  0  0  0  0  0  0  0  0  0
   -9.6261   -1.3731   16.6074 N   0  0  0  0  0  0  0  0  0  0  0  0
   -8.6743   -2.0329   15.9582 C   0  0  0  0  0  0  0  0  0  0  0  0
  -11.1254   -2.6910   20.5771 C   0  0  0  0  0  0  0  0  0  0  0  0
   -7.8375   -0.0866   20.1792 C   0  0  0  0  0  0  0  0  0  0  0  0
  1  2  2  0
 24  1  1  0
  4  2  1  0
  3  8  2  0
 19  3  1  0
  5  4  2  0
  6  5  1  0
  7  6  1  0
  6 24  2  0
 22  7  2  0
  8 20  1  0
  9 20  2  0
 21  9  1  0
 10 12  1  0
 10 23  1  6
 13 11  2  0
 11 14  1  0
 12 13  1  0
 12 15  2  0
 25 13  1  6
 26 14  2  0
 15 26  1  0
 16 26  1  6
 18 17  1  6
 18 19  1  0
 22 18  1  0
 19 21  2  0
 22 23  1  0
 23 24  1  0
M  END
$$$$
