
     RDKit          3D

 26 29  0  0  0  0  0  0  0  0999 V2000
   -9.7631   -3.2426   17.1493 C   0  0  0  0  0  0  0  0  0  0  0  0
  -10.5840   -4.2749   16.7366 C   0  0  0  0  0  0  0  0  0  0  0  0
   -5.5792    0.5276   14.0105 C   0  0  0  0  0  0  0  0  0  0  0  0
  -10.1965   -5.0441   15.6778 C   0  0  0  0  0  0  0  0  0  0  0  0
   -9.0162   -4.8300   15.0033 C   0  0  0  0  0  0  0  0  0  0  0  0
   -8.1850   -3.7857   15.4202 C   0  0  0  0  0  0  0  0  0  0  0  0
   -7.0264   -3.3348   14.9503 N   0  0  0  0  0  0  0  0  0  0  0  0
   -5.7040    1.1978   12.8138 C   0  0  0  0  0  0  0  0  0  0  0  0
   -5.7846   -0.8609   11.6855 C   0  0  0  0  0  0  0  0  0  0  0  0
   -7.5898   -1.0102   17.5922 C   0  0  0  0  0  0  0  0  0  0  0  0
  -10.6204    0.5365   19.3123 C   0  0  0  0  0  0  0  0  0  0  0  0
   -8.8262   -0.3198   17.9147 C   0  0  0  0  0  0  0  0  0  0  0  0
   -9.3971   -0.1337   19.1383 C   0  0  0  0  0  0  0  0  0  0  0  0
  -11.3076    1.0431   18.2327 C   0  0  0  0  0  0  0  0  0  0  0  0
   -9.5538    0.2078   16.8399 C   0  0  0  0  0  0  0  0  0  0  0  0
  -11.4819    1.4064   15.8263 C   0  0  0  0  0  0  0  0  0  0  0  0
   -4.2626   -2.2667   15.4260 O   0  0  0  0  0  0  0  0  0  0  0  0
   -5.4147   -1.5393   15.4011 C   0  0  1  0  0  0  0  0  0  0  0  0
   -5.5520   -0.8572   14.0941 C   0  0  0  0  0  0  0  0  0  0  0  0
   -5.8048    0.4868   11.6694 N   0  0  0  0  0  0  0  0  0  0  0  0
   -5.6596   -1.5252   12.8855 C   0  0  0  0  0  0  0  0  0  0  0  0
   -6.6486   -2.2622   15.7085 C   0  0  0  0  0  0  0  0  0  0  0  0
   -7.5847   -2.0703   16.6403 N   0  0  0  0  0  0  0  0  0  0  0  0
   -8.5720   -3.0089   16.4889 C   0  0  0  0  0  0  0  0  0  0  0  0
   -8.7640   -0.6456   20.3496 C   0  0  0  0  0  0  0  0  0  0  0  0
  -10.7456    0.8618   17.0024 C   0  0  0  0  0  0  0  0  0  0  0  0
  1  2  2  0
 24  1  1  0
  4  2  1  0
  3  8  2  0
 19  3  1  0
  5  4  2  0
  6  5  1  0
  7  6  1  0
  6 24  2  0
 22  7  2  0
  8 20  1  0
  9 20  2  0
 21  9  1  0
 10 12  1  0
 23 10  1  0
 13 11  2  0
 11 14  1  0
 12 13  1  0
 12 15  2  0
 13 25  1  0
 26 14  2  0
 15 26  1  0
 26 16  1  0
 18 17  1  6
 18 19  1  0
 22 18  1  0
 19 21  2  0
 22 23  1  0
 23 24  1  0
M  END
$$$$
