
     RDKit          3D

 20 22  0  0  0  0  0  0  0  0999 V2000
    6.6252  -16.2230   14.2291 N   0  0  0  0  0  4  0  0  0  0  0  0
    7.0102  -15.0019   14.2885 C   0  0  0  0  0  0  0  0  0  0  0  0
    6.6375  -14.1433   15.3598 N   0  0  0  0  0  0  0  0  0  0  0  0
    7.8850  -14.3543   13.2539 C   0  0  2  0  0  0  0  0  0  0  0  0
    8.8644  -15.3853   12.7426 C   0  0  0  0  0  0  0  0  0  0  0  0
    9.6888  -15.0687   14.0020 C   0  0  0  0  0  0  0  0  0  0  0  0
    9.0695  -13.6672   13.8849 C   0  0  0  0  0  0  0  0  0  0  0  0
    7.1470  -13.5895   12.2576 C   0  0  0  0  0  0  0  0  0  0  0  0
    7.4161  -12.2875   11.9719 C   0  0  0  0  0  0  0  0  0  0  0  0
    6.6989  -11.5690   11.0151 C   0  0  0  0  0  0  0  0  0  0  0  0
    7.1106   -9.8928   10.7076 Cl  0  0  0  0  0  0  0  0  0  0  0  0
    5.6865  -12.2002   10.3395 C   0  0  0  0  0  0  0  0  0  0  0  0
    5.3825  -13.5218   10.6010 C   0  0  0  0  0  0  0  0  0  0  0  0
    4.3121  -14.1384    9.8662 C   0  0  0  0  0  0  0  0  0  0  0  0
    3.3838  -14.9095   10.5099 C   0  0  0  0  0  0  0  0  0  0  0  0
    2.3386  -15.5125    9.7925 C   0  0  0  0  0  0  0  0  0  0  0  0
    2.2515  -15.3234    8.4319 C   0  0  0  0  0  0  0  0  0  0  0  0
    3.1861  -14.5493    7.7959 C   0  0  0  0  0  0  0  0  0  0  0  0
    4.2137  -13.9590    8.5145 C   0  0  0  0  0  0  0  0  0  0  0  0
    6.1257  -14.2087   11.5688 C   0  0  0  0  0  0  0  0  0  0  0  0
  1  2  2  3
  2  3  1  0
  2  4  1  0
  7  4  1  6
  4  5  1  0
  4  8  1  6
  5  6  1  1
  6  7  1  1
  8 20  1  0
  8  9  2  0
  9 10  1  0
 10 11  1  0
 10 12  2  0
 12 13  1  0
 13 14  1  0
 13 20  2  0
 14 19  1  0
 14 15  2  0
 15 16  1  0
 16 17  2  0
 17 18  1  0
 18 19  2  0
M  CHG  1   1   1
M  END
$$$$
