
     RDKit          3D

 20 22  0  0  0  0  0  0  0  0999 V2000
    8.3290  -16.5621   11.2349 N   0  0  0  0  0  4  0  0  0  0  0  0
    7.4754  -15.9243   11.9472 C   0  0  0  0  0  0  0  0  0  0  0  0
    7.0242  -16.4139   13.2044 N   0  0  0  0  0  0  0  0  0  0  0  0
    6.8702  -14.6109   11.5428 C   0  0  2  0  0  0  0  0  0  0  0  0
    7.9446  -13.7685   10.8951 C   0  0  0  0  0  0  0  0  0  0  0  0
    8.3789  -13.4142   12.3275 C   0  0  0  0  0  0  0  0  0  0  0  0
    6.8966  -13.6186   12.6777 C   0  0  0  0  0  0  0  0  0  0  0  0
    5.6088  -14.7424   10.8261 C   0  0  0  0  0  0  0  0  0  0  0  0
    4.7690  -15.7996   10.9887 C   0  0  0  0  0  0  0  0  0  0  0  0
    3.5646  -15.9106   10.2935 C   0  0  0  0  0  0  0  0  0  0  0  0
    2.5392  -17.3072   10.5621 Cl  0  0  0  0  0  0  0  0  0  0  0  0
    3.2170  -14.9170    9.4151 C   0  0  0  0  0  0  0  0  0  0  0  0
    4.0430  -13.8271    9.2220 C   0  0  0  0  0  0  0  0  0  0  0  0
    3.6340  -12.8122    8.2902 C   0  0  0  0  0  0  0  0  0  0  0  0
    3.7128  -11.4891    8.6277 C   0  0  0  0  0  0  0  0  0  0  0  0
    3.3128  -10.4975    7.7180 C   0  0  0  0  0  0  0  0  0  0  0  0
    2.8387  -10.8642    6.4789 C   0  0  0  0  0  0  0  0  0  0  0  0
    2.7635  -12.1921    6.1499 C   0  0  0  0  0  0  0  0  0  0  0  0
    3.1612  -13.1623    7.0561 C   0  0  0  0  0  0  0  0  0  0  0  0
    5.2437  -13.7523    9.9388 C   0  0  0  0  0  0  0  0  0  0  0  0
  1  2  2  3
  2  3  1  0
  2  4  1  0
  7  4  1  6
  4  5  1  0
  4  8  1  6
  5  6  1  1
  6  7  1  1
  8 20  1  0
  8  9  2  0
  9 10  1  0
 10 11  1  0
 10 12  2  0
 12 13  1  0
 13 14  1  0
 13 20  2  0
 14 19  1  0
 14 15  2  0
 15 16  1  0
 16 17  2  0
 17 18  1  0
 18 19  2  0
M  CHG  1   1   1
M  END
$$$$
