
     RDKit          3D

 20 22  0  0  0  0  0  0  0  0999 V2000
    8.0353  -17.1306   10.9484 N   0  0  0  0  0  4  0  0  0  0  0  0
    7.9941  -15.9648   11.4795 C   0  0  0  0  0  0  0  0  0  0  0  0
    8.5069  -15.7091   12.7817 N   0  0  0  0  0  0  0  0  0  0  0  0
    7.4135  -14.7598   10.7970 C   0  0  2  0  0  0  0  0  0  0  0  0
    7.8245  -14.7893    9.3431 C   0  0  0  0  0  0  0  0  0  0  0  0
    9.1581  -14.1893    9.8199 C   0  0  0  0  0  0  0  0  0  0  0  0
    8.3137  -13.5586   10.9383 C   0  0  0  0  0  0  0  0  0  0  0  0
    6.0008  -14.5481   11.0825 C   0  0  0  0  0  0  0  0  0  0  0  0
    5.0172  -14.7713   10.1703 C   0  0  0  0  0  0  0  0  0  0  0  0
    3.6686  -14.5626   10.4598 C   0  0  0  0  0  0  0  0  0  0  0  0
    2.4631  -14.8751    9.2256 Cl  0  0  0  0  0  0  0  0  0  0  0  0
    3.3245  -14.1163   11.7096 C   0  0  0  0  0  0  0  0  0  0  0  0
    4.2940  -13.8778   12.6638 C   0  0  0  0  0  0  0  0  0  0  0  0
    3.8824  -13.4104   13.9591 C   0  0  0  0  0  0  0  0  0  0  0  0
    4.1902  -14.1253   15.0838 C   0  0  0  0  0  0  0  0  0  0  0  0
    3.7877  -13.6694   16.3492 C   0  0  0  0  0  0  0  0  0  0  0  0
    3.0785  -12.4944   16.4535 C   0  0  0  0  0  0  0  0  0  0  0  0
    2.7749  -11.7853   15.3212 C   0  0  0  0  0  0  0  0  0  0  0  0
    3.1775  -12.2450   14.0773 C   0  0  0  0  0  0  0  0  0  0  0  0
    5.6370  -14.0994   12.3344 C   0  0  0  0  0  0  0  0  0  0  0  0
  1  2  2  3
  2  3  1  0
  2  4  1  0
  7  4  1  6
  4  5  1  0
  4  8  1  6
  5  6  1  1
  6  7  1  1
  8 20  1  0
  8  9  2  0
  9 10  1  0
 10 11  1  0
 10 12  2  0
 12 13  1  0
 13 14  1  0
 13 20  2  0
 14 19  1  0
 14 15  2  0
 15 16  1  0
 16 17  2  0
 17 18  1  0
 18 19  2  0
M  CHG  1   1   1
M  END
$$$$
