
     RDKit          3D

 20 22  0  0  0  0  0  0  0  0999 V2000
    7.4896  -16.2674   14.3905 N   0  0  0  0  0  4  0  0  0  0  0  0
    7.2656  -15.0793   13.9651 C   0  0  0  0  0  0  0  0  0  0  0  0
    8.2249  -14.0369   14.0948 N   0  0  0  0  0  0  0  0  0  0  0  0
    5.9895  -14.6637   13.2914 C   0  0  2  0  0  0  0  0  0  0  0  0
    5.4452  -13.4485   14.0059 C   0  0  0  0  0  0  0  0  0  0  0  0
    4.8748  -14.4417   15.0326 C   0  0  0  0  0  0  0  0  0  0  0  0
    4.8041  -15.4136   13.8443 C   0  0  0  0  0  0  0  0  0  0  0  0
    6.0900  -14.5898   11.8399 C   0  0  0  0  0  0  0  0  0  0  0  0
    6.7710  -13.6073   11.1917 C   0  0  0  0  0  0  0  0  0  0  0  0
    6.8567  -13.5506    9.8005 C   0  0  0  0  0  0  0  0  0  0  0  0
    7.7554  -12.2491    9.0439 Cl  0  0  0  0  0  0  0  0  0  0  0  0
    6.2309  -14.5214    9.0618 C   0  0  0  0  0  0  0  0  0  0  0  0
    5.5293  -15.5360    9.6829 C   0  0  0  0  0  0  0  0  0  0  0  0
    4.8906  -16.5299    8.8644 C   0  0  0  0  0  0  0  0  0  0  0  0
    5.6014  -17.2012    7.9079 C   0  0  0  0  0  0  0  0  0  0  0  0
    4.9778  -18.1716    7.1077 C   0  0  0  0  0  0  0  0  0  0  0  0
    3.6415  -18.4460    7.2908 C   0  0  0  0  0  0  0  0  0  0  0  0
    2.9378  -17.7684    8.2514 C   0  0  0  0  0  0  0  0  0  0  0  0
    3.5640  -16.8124    9.0355 C   0  0  0  0  0  0  0  0  0  0  0  0
    5.4667  -15.5580   11.0817 C   0  0  0  0  0  0  0  0  0  0  0  0
  1  2  2  3
  2  3  1  0
  2  4  1  0
  7  4  1  6
  4  5  1  0
  4  8  1  6
  5  6  1  1
  6  7  1  1
  8 20  1  0
  8  9  2  0
  9 10  1  0
 10 11  1  0
 10 12  2  0
 12 13  1  0
 13 14  1  0
 13 20  2  0
 14 19  1  0
 14 15  2  0
 15 16  1  0
 16 17  2  0
 17 18  1  0
 18 19  2  0
M  CHG  1   1   1
M  END
$$$$
