
     RDKit          3D

 20 22  0  0  0  0  0  0  0  0999 V2000
    4.1985  -17.7867   10.0825 N   0  0  0  0  0  4  0  0  0  0  0  0
    4.9841  -16.9277    9.5460 C   0  0  0  0  0  0  0  0  0  0  0  0
    6.1906  -17.3096    8.8961 N   0  0  0  0  0  0  0  0  0  0  0  0
    4.7211  -15.4493    9.5407 C   0  0  2  0  0  0  0  0  0  0  0  0
    3.2262  -15.2295    9.5218 C   0  0  0  0  0  0  0  0  0  0  0  0
    3.3184  -15.4734    8.0059 C   0  0  0  0  0  0  0  0  0  0  0  0
    4.7345  -14.8916    8.1399 C   0  0  0  0  0  0  0  0  0  0  0  0
    5.4868  -14.7140   10.5383 C   0  0  0  0  0  0  0  0  0  0  0  0
    6.7072  -14.1701   10.2852 C   0  0  0  0  0  0  0  0  0  0  0  0
    7.4279  -13.4694   11.2525 C   0  0  0  0  0  0  0  0  0  0  0  0
    8.9955  -12.7993   10.8432 Cl  0  0  0  0  0  0  0  0  0  0  0  0
    6.8845  -13.3251   12.5030 C   0  0  0  0  0  0  0  0  0  0  0  0
    5.6474  -13.8629   12.7994 C   0  0  0  0  0  0  0  0  0  0  0  0
    5.1210  -13.6846   14.1248 C   0  0  0  0  0  0  0  0  0  0  0  0
    4.5619  -14.7371   14.7959 C   0  0  0  0  0  0  0  0  0  0  0  0
    4.0470  -14.5632   16.0904 C   0  0  0  0  0  0  0  0  0  0  0  0
    4.1075  -13.3229   16.6841 C   0  0  0  0  0  0  0  0  0  0  0  0
    4.6694  -12.2746   16.0040 C   0  0  0  0  0  0  0  0  0  0  0  0
    5.1745  -12.4582   14.7265 C   0  0  0  0  0  0  0  0  0  0  0  0
    4.9552  -14.5594   11.8010 C   0  0  0  0  0  0  0  0  0  0  0  0
  1  2  2  3
  2  3  1  0
  2  4  1  0
  7  4  1  6
  4  5  1  0
  4  8  1  1
  5  6  1  1
  6  7  1  1
  8 20  1  0
  8  9  2  0
  9 10  1  0
 10 11  1  0
 10 12  2  0
 12 13  1  0
 13 14  1  0
 13 20  2  0
 14 19  1  0
 14 15  2  0
 15 16  1  0
 16 17  2  0
 17 18  1  0
 18 19  2  0
M  CHG  1   1   1
M  END
$$$$
