
     RDKit          3D

 20 22  0  0  0  0  0  0  0  0999 V2000
    7.2702  -10.9875   12.6677 N   0  0  0  0  0  4  0  0  0  0  0  0
    7.7139  -12.1734   12.8670 C   0  0  0  0  0  0  0  0  0  0  0  0
    8.1618  -12.6076   14.1456 N   0  0  0  0  0  0  0  0  0  0  0  0
    7.8053  -13.2188   11.7930 C   0  0  2  0  0  0  0  0  0  0  0  0
    9.0865  -13.9957   11.9895 C   0  0  0  0  0  0  0  0  0  0  0  0
    9.7781  -12.8291   11.2636 C   0  0  0  0  0  0  0  0  0  0  0  0
    8.4331  -12.6671   10.5380 C   0  0  0  0  0  0  0  0  0  0  0  0
    6.5819  -13.9906   11.6203 C   0  0  0  0  0  0  0  0  0  0  0  0
    6.0493  -14.7676   12.6010 C   0  0  0  0  0  0  0  0  0  0  0  0
    4.8769  -15.5014   12.4188 C   0  0  0  0  0  0  0  0  0  0  0  0
    4.2575  -16.4787   13.7360 Cl  0  0  0  0  0  0  0  0  0  0  0  0
    4.2402  -15.4354   11.2064 C   0  0  0  0  0  0  0  0  0  0  0  0
    4.7494  -14.6575   10.1851 C   0  0  0  0  0  0  0  0  0  0  0  0
    4.0451  -14.6218    8.9327 C   0  0  0  0  0  0  0  0  0  0  0  0
    2.6970  -14.3928    8.9021 C   0  0  0  0  0  0  0  0  0  0  0  0
    2.0085  -14.3584    7.6790 C   0  0  0  0  0  0  0  0  0  0  0  0
    2.6994  -14.5570    6.5053 C   0  0  0  0  0  0  0  0  0  0  0  0
    4.0497  -14.7857    6.5461 C   0  0  0  0  0  0  0  0  0  0  0  0
    4.7188  -14.8175    7.7594 C   0  0  0  0  0  0  0  0  0  0  0  0
    5.9286  -13.9357   10.4073 C   0  0  0  0  0  0  0  0  0  0  0  0
  1  2  2  3
  2  3  1  0
  2  4  1  0
  7  4  1  6
  4  5  1  0
  4  8  1  6
  5  6  1  1
  6  7  1  1
  8 20  1  0
  8  9  2  0
  9 10  1  0
 10 11  1  0
 10 12  2  0
 12 13  1  0
 13 14  1  0
 13 20  2  0
 14 19  1  0
 14 15  2  0
 15 16  1  0
 16 17  2  0
 17 18  1  0
 18 19  2  0
M  CHG  1   1   1
M  END
$$$$
