
     RDKit          3D

 20 22  0  0  0  0  0  0  0  0999 V2000
    9.2980  -15.9291    9.0617 N   0  0  0  0  0  4  0  0  0  0  0  0
    9.1245  -15.5604   10.2769 C   0  0  0  0  0  0  0  0  0  0  0  0
    9.5887  -16.3360   11.3754 N   0  0  0  0  0  0  0  0  0  0  0  0
    8.4275  -14.2895   10.6691 C   0  0  2  0  0  0  0  0  0  0  0  0
    8.4882  -13.3310    9.5024 C   0  0  0  0  0  0  0  0  0  0  0  0
    9.9090  -12.9985    9.9890 C   0  0  0  0  0  0  0  0  0  0  0  0
    9.3619  -13.3455   11.3826 C   0  0  0  0  0  0  0  0  0  0  0  0
    7.1249  -14.5014   11.2859 C   0  0  0  0  0  0  0  0  0  0  0  0
    6.0678  -15.0410   10.6221 C   0  0  0  0  0  0  0  0  0  0  0  0
    4.8263  -15.2364   11.2277 C   0  0  0  0  0  0  0  0  0  0  0  0
    3.5150  -15.9388   10.2998 Cl  0  0  0  0  0  0  0  0  0  0  0  0
    4.6683  -14.8705   12.5395 C   0  0  0  0  0  0  0  0  0  0  0  0
    5.7178  -14.3191   13.2480 C   0  0  0  0  0  0  0  0  0  0  0  0
    5.5018  -13.9519   14.6206 C   0  0  0  0  0  0  0  0  0  0  0  0
    4.3497  -13.3168   14.9950 C   0  0  0  0  0  0  0  0  0  0  0  0
    4.1385  -12.9574   16.3356 C   0  0  0  0  0  0  0  0  0  0  0  0
    5.1005  -13.2482   17.2761 C   0  0  0  0  0  0  0  0  0  0  0  0
    6.2513  -13.8845   16.8915 C   0  0  0  0  0  0  0  0  0  0  0  0
    6.4488  -14.2346   15.5651 C   0  0  0  0  0  0  0  0  0  0  0  0
    6.9485  -14.1391   12.6045 C   0  0  0  0  0  0  0  0  0  0  0  0
  1  2  2  3
  2  3  1  0
  2  4  1  0
  7  4  1  6
  4  5  1  0
  4  8  1  1
  5  6  1  1
  6  7  1  1
  8 20  1  0
  8  9  2  0
  9 10  1  0
 10 11  1  0
 10 12  2  0
 12 13  1  0
 13 14  1  0
 13 20  2  0
 14 19  1  0
 14 15  2  0
 15 16  1  0
 16 17  2  0
 17 18  1  0
 18 19  2  0
M  CHG  1   1   1
M  END
$$$$
