
     RDKit          3D

 20 22  0  0  0  0  0  0  0  0999 V2000
    8.5043  -12.1831    9.3010 N   0  0  0  0  0  4  0  0  0  0  0  0
    8.7098  -12.8189   10.3947 C   0  0  0  0  0  0  0  0  0  0  0  0
    9.3966  -12.2307   11.4930 N   0  0  0  0  0  0  0  0  0  0  0  0
    8.2533  -14.2290   10.6356 C   0  0  2  0  0  0  0  0  0  0  0  0
    9.2500  -14.9051   11.5482 C   0  0  0  0  0  0  0  0  0  0  0  0
   10.0949  -15.1276   10.2823 C   0  0  0  0  0  0  0  0  0  0  0  0
    8.7419  -15.1593    9.5543 C   0  0  0  0  0  0  0  0  0  0  0  0
    6.8458  -14.3363   10.9956 C   0  0  0  0  0  0  0  0  0  0  0  0
    5.8890  -14.7688   10.1314 C   0  0  0  0  0  0  0  0  0  0  0  0
    4.5449  -14.8647   10.4920 C   0  0  0  0  0  0  0  0  0  0  0  0
    3.3747  -15.4324    9.3162 Cl  0  0  0  0  0  0  0  0  0  0  0  0
    4.1772  -14.5098   11.7642 C   0  0  0  0  0  0  0  0  0  0  0  0
    5.1192  -14.0657   12.6714 C   0  0  0  0  0  0  0  0  0  0  0  0
    4.6835  -13.7053   13.9927 C   0  0  0  0  0  0  0  0  0  0  0  0
    3.6398  -12.8383   14.1659 C   0  0  0  0  0  0  0  0  0  0  0  0
    3.2143  -12.4856   15.4564 C   0  0  0  0  0  0  0  0  0  0  0  0
    3.8549  -13.0185   16.5519 C   0  0  0  0  0  0  0  0  0  0  0  0
    4.8993  -13.8861   16.3683 C   0  0  0  0  0  0  0  0  0  0  0  0
    5.3107  -14.2271   15.0896 C   0  0  0  0  0  0  0  0  0  0  0  0
    6.4585  -13.9834   12.2709 C   0  0  0  0  0  0  0  0  0  0  0  0
  1  2  2  3
  2  3  1  0
  2  4  1  0
  7  4  1  6
  4  5  1  0
  4  8  1  1
  5  6  1  1
  6  7  1  1
  8 20  1  0
  8  9  2  0
  9 10  1  0
 10 11  1  0
 10 12  2  0
 12 13  1  0
 13 14  1  0
 13 20  2  0
 14 19  1  0
 14 15  2  0
 15 16  1  0
 16 17  2  0
 17 18  1  0
 18 19  2  0
M  CHG  1   1   1
M  END
$$$$
