
     RDKit          3D

 20 22  0  0  0  0  0  0  0  0999 V2000
    6.4685  -17.6359    9.2657 N   0  0  0  0  0  4  0  0  0  0  0  0
    7.2323  -17.4701   10.2814 C   0  0  0  0  0  0  0  0  0  0  0  0
    8.6323  -17.2560   10.1471 N   0  0  0  0  0  0  0  0  0  0  0  0
    6.7426  -17.4795   11.7009 C   0  0  2  0  0  0  0  0  0  0  0  0
    7.9391  -17.5723   12.6191 C   0  0  0  0  0  0  0  0  0  0  0  0
    7.9060  -19.0831   12.3323 C   0  0  0  0  0  0  0  0  0  0  0  0
    6.3939  -18.8743   12.1550 C   0  0  0  0  0  0  0  0  0  0  0  0
    5.7638  -16.4400   11.9904 C   0  0  0  0  0  0  0  0  0  0  0  0
    4.5976  -16.3061   11.3040 C   0  0  0  0  0  0  0  0  0  0  0  0
    3.6712  -15.3041   11.5935 C   0  0  0  0  0  0  0  0  0  0  0  0
    2.1910  -15.2018   10.6594 Cl  0  0  0  0  0  0  0  0  0  0  0  0
    3.9484  -14.4235   12.6071 C   0  0  0  0  0  0  0  0  0  0  0  0
    5.1221  -14.5262   13.3277 C   0  0  0  0  0  0  0  0  0  0  0  0
    5.3666  -13.5788   14.3804 C   0  0  0  0  0  0  0  0  0  0  0  0
    6.4746  -12.7776   14.3482 C   0  0  0  0  0  0  0  0  0  0  0  0
    6.7141  -11.8524   15.3766 C   0  0  0  0  0  0  0  0  0  0  0  0
    5.8248  -11.7547   16.4226 C   0  0  0  0  0  0  0  0  0  0  0  0
    4.7177  -12.5615   16.4461 C   0  0  0  0  0  0  0  0  0  0  0  0
    4.4916  -13.4712   15.4253 C   0  0  0  0  0  0  0  0  0  0  0  0
    6.0266  -15.5459   13.0065 C   0  0  0  0  0  0  0  0  0  0  0  0
  1  2  2  3
  2  3  1  0
  2  4  1  0
  7  4  1  6
  4  5  1  0
  4  8  1  1
  5  6  1  1
  6  7  1  1
  8 20  1  0
  8  9  2  0
  9 10  1  0
 10 11  1  0
 10 12  2  0
 12 13  1  0
 13 14  1  0
 13 20  2  0
 14 19  1  0
 14 15  2  0
 15 16  1  0
 16 17  2  0
 17 18  1  0
 18 19  2  0
M  CHG  1   1   1
M  END
$$$$
