
     RDKit          3D

 20 22  0  0  0  0  0  0  0  0999 V2000
   10.7370  -16.6006   10.3422 N   0  0  0  0  0  4  0  0  0  0  0  0
   10.0321  -15.6090   10.7456 C   0  0  0  0  0  0  0  0  0  0  0  0
   10.4296  -14.7964   11.8437 N   0  0  0  0  0  0  0  0  0  0  0  0
    8.7333  -15.1996   10.1129 C   0  0  2  0  0  0  0  0  0  0  0  0
    8.8882  -15.2741    8.6116 C   0  0  0  0  0  0  0  0  0  0  0  0
    9.5597  -13.8946    8.7210 C   0  0  0  0  0  0  0  0  0  0  0  0
    8.6491  -13.7037    9.9441 C   0  0  0  0  0  0  0  0  0  0  0  0
    7.5672  -15.8530   10.6923 C   0  0  0  0  0  0  0  0  0  0  0  0
    7.1880  -17.1184   10.3695 C   0  0  0  0  0  0  0  0  0  0  0  0
    6.0677  -17.7293   10.9331 C   0  0  0  0  0  0  0  0  0  0  0  0
    5.6482  -19.3650   10.4616 Cl  0  0  0  0  0  0  0  0  0  0  0  0
    5.3233  -17.0268   11.8453 C   0  0  0  0  0  0  0  0  0  0  0  0
    5.6757  -15.7392   12.1995 C   0  0  0  0  0  0  0  0  0  0  0  0
    4.8630  -15.0446   13.1601 C   0  0  0  0  0  0  0  0  0  0  0  0
    5.1368  -15.1389   14.4969 C   0  0  0  0  0  0  0  0  0  0  0  0
    4.3428  -14.4611   15.4355 C   0  0  0  0  0  0  0  0  0  0  0  0
    3.2825  -13.6975   15.0027 C   0  0  0  0  0  0  0  0  0  0  0  0
    3.0161  -13.6091   13.6616 C   0  0  0  0  0  0  0  0  0  0  0  0
    3.8068  -14.2827   12.7441 C   0  0  0  0  0  0  0  0  0  0  0  0
    6.8074  -15.1610   11.6113 C   0  0  0  0  0  0  0  0  0  0  0  0
  1  2  2  3
  2  3  1  0
  2  4  1  0
  7  4  1  6
  4  5  1  0
  4  8  1  1
  5  6  1  1
  6  7  1  1
  8 20  1  0
  8  9  2  0
  9 10  1  0
 10 11  1  0
 10 12  2  0
 12 13  1  0
 13 14  1  0
 13 20  2  0
 14 19  1  0
 14 15  2  0
 15 16  1  0
 16 17  2  0
 17 18  1  0
 18 19  2  0
M  CHG  1   1   1
M  END
$$$$
