
     RDKit          3D

 20 22  0  0  0  0  0  0  0  0999 V2000
    8.7499  -15.4539   12.1513 N   0  0  0  0  0  4  0  0  0  0  0  0
    8.1133  -14.3431   12.0922 C   0  0  0  0  0  0  0  0  0  0  0  0
    7.8367  -13.5679   13.2526 N   0  0  0  0  0  0  0  0  0  0  0  0
    7.6008  -13.7450   10.8136 C   0  0  2  0  0  0  0  0  0  0  0  0
    8.6492  -13.9362    9.7423 C   0  0  0  0  0  0  0  0  0  0  0  0
    9.3335  -12.6963   10.3426 C   0  0  0  0  0  0  0  0  0  0  0  0
    7.9088  -12.2714   10.7315 C   0  0  0  0  0  0  0  0  0  0  0  0
    6.2379  -14.1415   10.4858 C   0  0  0  0  0  0  0  0  0  0  0  0
    5.2182  -13.2522   10.3491 C   0  0  0  0  0  0  0  0  0  0  0  0
    3.9181  -13.6488   10.0357 C   0  0  0  0  0  0  0  0  0  0  0  0
    2.6610  -12.4370    9.8776 Cl  0  0  0  0  0  0  0  0  0  0  0  0
    3.6611  -14.9840    9.8593 C   0  0  0  0  0  0  0  0  0  0  0  0
    4.6697  -15.9184    9.9895 C   0  0  0  0  0  0  0  0  0  0  0  0
    4.3495  -17.3059    9.7952 C   0  0  0  0  0  0  0  0  0  0  0  0
    3.1449  -17.6708    9.2597 C   0  0  0  0  0  0  0  0  0  0  0  0
    2.8315  -19.0261    9.0703 C   0  0  0  0  0  0  0  0  0  0  0  0
    3.7459  -19.9908    9.4274 C   0  0  0  0  0  0  0  0  0  0  0  0
    4.9499  -19.6155    9.9631 C   0  0  0  0  0  0  0  0  0  0  0  0
    5.2484  -18.2745   10.1455 C   0  0  0  0  0  0  0  0  0  0  0  0
    5.9618  -15.4802   10.3051 C   0  0  0  0  0  0  0  0  0  0  0  0
  1  2  2  3
  2  3  1  0
  2  4  1  0
  7  4  1  6
  4  5  1  0
  4  8  1  6
  5  6  1  1
  6  7  1  1
  8 20  1  0
  8  9  2  0
  9 10  1  0
 10 11  1  0
 10 12  2  0
 12 13  1  0
 13 14  1  0
 13 20  2  0
 14 19  1  0
 14 15  2  0
 15 16  1  0
 16 17  2  0
 17 18  1  0
 18 19  2  0
M  CHG  1   1   1
M  END
$$$$
