
     RDKit          3D

 20 22  0  0  0  0  0  0  0  0999 V2000
   10.5466  -15.1091    9.8026 N   0  0  0  0  0  4  0  0  0  0  0  0
    9.4715  -14.5684    9.3615 C   0  0  0  0  0  0  0  0  0  0  0  0
    9.0977  -14.6388    7.9906 N   0  0  0  0  0  0  0  0  0  0  0  0
    8.5023  -13.8169   10.2279 C   0  0  2  0  0  0  0  0  0  0  0  0
    8.4850  -12.3724    9.7846 C   0  0  0  0  0  0  0  0  0  0  0  0
    9.7580  -12.2096   10.6325 C   0  0  0  0  0  0  0  0  0  0  0  0
    9.1579  -13.3306   11.4956 C   0  0  0  0  0  0  0  0  0  0  0  0
    7.2138  -14.4799   10.3778 C   0  0  0  0  0  0  0  0  0  0  0  0
    7.0523  -15.6428   11.0639 C   0  0  0  0  0  0  0  0  0  0  0  0
    5.8110  -16.2653   11.1972 C   0  0  0  0  0  0  0  0  0  0  0  0
    5.6900  -17.7639   12.0990 Cl  0  0  0  0  0  0  0  0  0  0  0  0
    4.7156  -15.6819   10.6147 C   0  0  0  0  0  0  0  0  0  0  0  0
    4.8383  -14.5008    9.9095 C   0  0  0  0  0  0  0  0  0  0  0  0
    3.6602  -13.9291    9.3172 C   0  0  0  0  0  0  0  0  0  0  0  0
    3.3766  -12.6012    9.4813 C   0  0  0  0  0  0  0  0  0  0  0  0
    2.2255  -12.0425    8.9034 C   0  0  0  0  0  0  0  0  0  0  0  0
    1.3795  -12.8407    8.1675 C   0  0  0  0  0  0  0  0  0  0  0  0
    1.6720  -14.1699    8.0087 C   0  0  0  0  0  0  0  0  0  0  0  0
    2.8112  -14.7104    8.5838 C   0  0  0  0  0  0  0  0  0  0  0  0
    6.1017  -13.9069    9.7983 C   0  0  0  0  0  0  0  0  0  0  0  0
  1  2  2  3
  2  3  1  0
  2  4  1  0
  7  4  1  6
  4  5  1  0
  4  8  1  1
  5  6  1  1
  6  7  1  1
  8 20  1  0
  8  9  2  0
  9 10  1  0
 10 11  1  0
 10 12  2  0
 12 13  1  0
 13 14  1  0
 13 20  2  0
 14 19  1  0
 14 15  2  0
 15 16  1  0
 16 17  2  0
 17 18  1  0
 18 19  2  0
M  CHG  1   1   1
M  END
$$$$
