
     RDKit          3D

 20 22  0  0  0  0  0  0  0  0999 V2000
    9.7199   -3.4617    0.5183 N   0  0  0  0  0  4  0  0  0  0  0  0
    9.2895   -3.9835   -0.5704 C   0  0  0  0  0  0  0  0  0  0  0  0
    7.9524   -4.4494   -0.7081 N   0  0  0  0  0  0  0  0  0  0  0  0
   10.1328   -4.1547   -1.8011 C   0  0  2  0  0  0  0  0  0  0  0  0
   11.1404   -3.0296   -1.8507 C   0  0  0  0  0  0  0  0  0  0  0  0
   10.0022   -2.1810   -2.4425 C   0  0  0  0  0  0  0  0  0  0  0  0
    9.4881   -3.5156   -3.0049 C   0  0  0  0  0  0  0  0  0  0  0  0
   10.6410   -5.5082   -1.9800 C   0  0  0  0  0  0  0  0  0  0  0  0
   11.1429   -6.2540   -0.9597 C   0  0  0  0  0  0  0  0  0  0  0  0
   11.6266   -7.5488   -1.1485 C   0  0  0  0  0  0  0  0  0  0  0  0
   12.2571   -8.4424    0.2218 Cl  0  0  0  0  0  0  0  0  0  0  0  0
   11.5938   -8.0870   -2.4090 C   0  0  0  0  0  0  0  0  0  0  0  0
   11.0918   -7.3615   -3.4716 C   0  0  0  0  0  0  0  0  0  0  0  0
   11.0793   -7.9699   -4.7736 C   0  0  0  0  0  0  0  0  0  0  0  0
   11.0831   -9.3317   -4.9023 C   0  0  0  0  0  0  0  0  0  0  0  0
   11.0716   -9.9264   -6.1739 C   0  0  0  0  0  0  0  0  0  0  0  0
   11.0565   -9.1295   -7.2960 C   0  0  0  0  0  0  0  0  0  0  0  0
   11.0529   -7.7665   -7.1571 C   0  0  0  0  0  0  0  0  0  0  0  0
   11.0643   -7.1904   -5.8966 C   0  0  0  0  0  0  0  0  0  0  0  0
   10.6156   -6.0649   -3.2412 C   0  0  0  0  0  0  0  0  0  0  0  0
  1  2  2  3
  2  3  1  0
  2  4  1  0
  7  4  1  6
  4  5  1  0
  4  8  1  6
  5  6  1  1
  6  7  1  1
  8 20  1  0
  8  9  2  0
  9 10  1  0
 10 11  1  0
 10 12  2  0
 12 13  1  0
 13 14  1  0
 13 20  2  0
 14 19  1  0
 14 15  2  0
 15 16  1  0
 16 17  2  0
 17 18  1  0
 18 19  2  0
M  CHG  1   1   1
M  END
$$$$
