
     RDKit          3D

 20 22  0  0  0  0  0  0  0  0999 V2000
    8.4414  -10.9681    9.1264 N   0  0  0  0  0  4  0  0  0  0  0  0
    8.5073  -12.1861    9.5199 C   0  0  0  0  0  0  0  0  0  0  0  0
    9.3923  -13.1263    8.9227 N   0  0  0  0  0  0  0  0  0  0  0  0
    7.6751  -12.7453   10.6378 C   0  0  2  0  0  0  0  0  0  0  0  0
    7.4215  -11.6449   11.6419 C   0  0  0  0  0  0  0  0  0  0  0  0
    8.8232  -11.9673   12.1871 C   0  0  0  0  0  0  0  0  0  0  0  0
    8.5340  -13.3937   11.6939 C   0  0  0  0  0  0  0  0  0  0  0  0
    6.5198  -13.5079   10.1839 C   0  0  0  0  0  0  0  0  0  0  0  0
    5.3461  -12.9288    9.8148 C   0  0  0  0  0  0  0  0  0  0  0  0
    4.2487  -13.6740    9.3832 C   0  0  0  0  0  0  0  0  0  0  0  0
    2.7715  -12.8481    8.9250 Cl  0  0  0  0  0  0  0  0  0  0  0  0
    4.3594  -15.0395    9.3300 C   0  0  0  0  0  0  0  0  0  0  0  0
    5.5347  -15.6654    9.6966 C   0  0  0  0  0  0  0  0  0  0  0  0
    5.6008  -17.0993    9.6235 C   0  0  0  0  0  0  0  0  0  0  0  0
    5.2506  -17.8650   10.7013 C   0  0  0  0  0  0  0  0  0  0  0  0
    5.3155  -19.2656   10.6305 C   0  0  0  0  0  0  0  0  0  0  0  0
    5.7351  -19.8678    9.4662 C   0  0  0  0  0  0  0  0  0  0  0  0
    6.0839  -19.0924    8.3918 C   0  0  0  0  0  0  0  0  0  0  0  0
    6.0158  -17.7105    8.4733 C   0  0  0  0  0  0  0  0  0  0  0  0
    6.6139  -14.8822   10.1244 C   0  0  0  0  0  0  0  0  0  0  0  0
  1  2  2  3
  2  3  1  0
  2  4  1  0
  7  4  1  6
  4  5  1  0
  4  8  1  6
  5  6  1  1
  6  7  1  1
  8 20  1  0
  8  9  2  0
  9 10  1  0
 10 11  1  0
 10 12  2  0
 12 13  1  0
 13 14  1  0
 13 20  2  0
 14 19  1  0
 14 15  2  0
 15 16  1  0
 16 17  2  0
 17 18  1  0
 18 19  2  0
M  CHG  1   1   1
M  END
$$$$
