
     RDKit          3D

 20 22  0  0  0  0  0  0  0  0999 V2000
    9.2436  -14.6780   12.0803 N   0  0  0  0  0  4  0  0  0  0  0  0
    9.0197  -14.3382   10.8649 C   0  0  0  0  0  0  0  0  0  0  0  0
    9.3617  -13.0510   10.3648 N   0  0  0  0  0  0  0  0  0  0  0  0
    8.3861  -15.2463    9.8506 C   0  0  2  0  0  0  0  0  0  0  0  0
    9.1628  -16.5421    9.8173 C   0  0  0  0  0  0  0  0  0  0  0  0
   10.1535  -15.7992    8.9049 C   0  0  0  0  0  0  0  0  0  0  0  0
    8.9244  -14.9878    8.4661 C   0  0  0  0  0  0  0  0  0  0  0  0
    6.9379  -15.3444    9.9750 C   0  0  0  0  0  0  0  0  0  0  0  0
    6.3232  -16.0361   10.9714 C   0  0  0  0  0  0  0  0  0  0  0  0
    4.9347  -16.1209   11.0755 C   0  0  0  0  0  0  0  0  0  0  0  0
    4.2225  -17.0338   12.3921 Cl  0  0  0  0  0  0  0  0  0  0  0  0
    4.1637  -15.4830   10.1383 C   0  0  0  0  0  0  0  0  0  0  0  0
    4.7501  -14.7702    9.1110 C   0  0  0  0  0  0  0  0  0  0  0  0
    3.8985  -14.1194    8.1535 C   0  0  0  0  0  0  0  0  0  0  0  0
    2.9857  -13.1854    8.5599 C   0  0  0  0  0  0  0  0  0  0  0  0
    2.1532  -12.5498    7.6250 C   0  0  0  0  0  0  0  0  0  0  0  0
    2.2601  -12.8722    6.2912 C   0  0  0  0  0  0  0  0  0  0  0  0
    3.1774  -13.8090    5.8936 C   0  0  0  0  0  0  0  0  0  0  0  0
    3.9940  -14.4300    6.8255 C   0  0  0  0  0  0  0  0  0  0  0  0
    6.1474  -14.7089    9.0410 C   0  0  0  0  0  0  0  0  0  0  0  0
  1  2  2  3
  2  3  1  0
  2  4  1  0
  7  4  1  6
  4  5  1  0
  4  8  1  6
  5  6  1  1
  6  7  1  1
  8 20  1  0
  8  9  2  0
  9 10  1  0
 10 11  1  0
 10 12  2  0
 12 13  1  0
 13 14  1  0
 13 20  2  0
 14 19  1  0
 14 15  2  0
 15 16  1  0
 16 17  2  0
 17 18  1  0
 18 19  2  0
M  CHG  1   1   1
M  END
$$$$
