
     RDKit          3D

 20 22  0  0  0  0  0  0  0  0999 V2000
    7.1380  -18.2521   10.0971 N   0  0  0  0  0  4  0  0  0  0  0  0
    6.5767  -17.4143    9.3061 C   0  0  0  0  0  0  0  0  0  0  0  0
    5.7493  -17.8318    8.2267 N   0  0  0  0  0  0  0  0  0  0  0  0
    6.7243  -15.9251    9.4308 C   0  0  2  0  0  0  0  0  0  0  0  0
    7.1797  -15.3765    8.0984 C   0  0  0  0  0  0  0  0  0  0  0  0
    8.5933  -15.8056    8.5271 C   0  0  0  0  0  0  0  0  0  0  0  0
    8.0868  -15.5478    9.9549 C   0  0  0  0  0  0  0  0  0  0  0  0
    5.5841  -15.2736   10.0613 C   0  0  0  0  0  0  0  0  0  0  0  0
    4.4992  -14.8388    9.3661 C   0  0  0  0  0  0  0  0  0  0  0  0
    3.4157  -14.2157    9.9855 C   0  0  0  0  0  0  0  0  0  0  0  0
    2.0555  -13.6849    9.0148 Cl  0  0  0  0  0  0  0  0  0  0  0  0
    3.4476  -14.0360   11.3443 C   0  0  0  0  0  0  0  0  0  0  0  0
    4.5315  -14.4636   12.0858 C   0  0  0  0  0  0  0  0  0  0  0  0
    4.5173  -14.2521   13.5073 C   0  0  0  0  0  0  0  0  0  0  0  0
    4.7371  -15.2943   14.3653 C   0  0  0  0  0  0  0  0  0  0  0  0
    4.7227  -15.0882   15.7539 C   0  0  0  0  0  0  0  0  0  0  0  0
    4.4853  -13.8267   16.2506 C   0  0  0  0  0  0  0  0  0  0  0  0
    4.2662  -12.7889   15.3833 C   0  0  0  0  0  0  0  0  0  0  0  0
    4.2828  -13.0043   14.0143 C   0  0  0  0  0  0  0  0  0  0  0  0
    5.5997  -15.0849   11.4270 C   0  0  0  0  0  0  0  0  0  0  0  0
  1  2  2  3
  2  3  1  0
  2  4  1  0
  7  4  1  6
  4  5  1  0
  4  8  1  1
  5  6  1  1
  6  7  1  1
  8 20  1  0
  8  9  2  0
  9 10  1  0
 10 11  1  0
 10 12  2  0
 12 13  1  0
 13 14  1  0
 13 20  2  0
 14 19  1  0
 14 15  2  0
 15 16  1  0
 16 17  2  0
 17 18  1  0
 18 19  2  0
M  CHG  1   1   1
M  END
$$$$
