
     RDKit          3D

 20 22  0  0  0  0  0  0  0  0999 V2000
    9.0425  -16.0174    6.7238 N   0  0  0  0  0  4  0  0  0  0  0  0
    8.9636  -15.1924    7.7015 C   0  0  0  0  0  0  0  0  0  0  0  0
    9.3102  -13.8197    7.5618 N   0  0  0  0  0  0  0  0  0  0  0  0
    8.5013  -15.5754    9.0779 C   0  0  2  0  0  0  0  0  0  0  0  0
    9.0532  -14.5723   10.0642 C   0  0  0  0  0  0  0  0  0  0  0  0
   10.3553  -15.3886   10.0007 C   0  0  0  0  0  0  0  0  0  0  0  0
    9.4293  -16.5805    9.7118 C   0  0  0  0  0  0  0  0  0  0  0  0
    7.0765  -15.8686    9.1575 C   0  0  0  0  0  0  0  0  0  0  0  0
    6.5622  -17.1122    8.9627 C   0  0  0  0  0  0  0  0  0  0  0  0
    5.1946  -17.3758    9.0416 C   0  0  0  0  0  0  0  0  0  0  0  0
    4.6141  -19.0089    8.7768 Cl  0  0  0  0  0  0  0  0  0  0  0  0
    4.3398  -16.3422    9.3260 C   0  0  0  0  0  0  0  0  0  0  0  0
    4.8232  -15.0647    9.5304 C   0  0  0  0  0  0  0  0  0  0  0  0
    3.8866  -14.0153    9.8255 C   0  0  0  0  0  0  0  0  0  0  0  0
    3.9461  -12.8245    9.1553 C   0  0  0  0  0  0  0  0  0  0  0  0
    3.0318  -11.7989    9.4437 C   0  0  0  0  0  0  0  0  0  0  0  0
    2.0706  -11.9979   10.4085 C   0  0  0  0  0  0  0  0  0  0  0  0
    2.0188  -13.1941   11.0746 C   0  0  0  0  0  0  0  0  0  0  0  0
    2.9267  -14.1993   10.7814 C   0  0  0  0  0  0  0  0  0  0  0  0
    6.2027  -14.8408    9.4426 C   0  0  0  0  0  0  0  0  0  0  0  0
  1  2  2  3
  2  3  1  0
  2  4  1  0
  7  4  1  6
  4  5  1  0
  4  8  1  6
  5  6  1  1
  6  7  1  1
  8 20  1  0
  8  9  2  0
  9 10  1  0
 10 11  1  0
 10 12  2  0
 12 13  1  0
 13 14  1  0
 13 20  2  0
 14 19  1  0
 14 15  2  0
 15 16  1  0
 16 17  2  0
 17 18  1  0
 18 19  2  0
M  CHG  1   1   1
M  END
$$$$
