
     RDKit          3D

 20 22  0  0  0  0  0  0  0  0999 V2000
   -5.0555   -9.7429   -6.4084 N   0  0  0  0  0  4  0  0  0  0  0  0
   -6.1995   -9.5726   -5.8562 C   0  0  0  0  0  0  0  0  0  0  0  0
   -6.9852  -10.6646   -5.3934 N   0  0  0  0  0  0  0  0  0  0  0  0
   -6.8250   -8.2252   -5.6368 C   0  0  2  0  0  0  0  0  0  0  0  0
   -8.2709   -8.2928   -6.0708 C   0  0  0  0  0  0  0  0  0  0  0  0
   -7.7387   -8.0927   -7.5000 C   0  0  0  0  0  0  0  0  0  0  0  0
   -6.6024   -7.3148   -6.8179 C   0  0  0  0  0  0  0  0  0  0  0  0
   -6.5531   -7.6596   -4.3222 C   0  0  0  0  0  0  0  0  0  0  0  0
   -7.5254   -7.1609   -3.5127 C   0  0  0  0  0  0  0  0  0  0  0  0
   -7.2477   -6.6217   -2.2564 C   0  0  0  0  0  0  0  0  0  0  0  0
   -8.5609   -5.9997   -1.2753 Cl  0  0  0  0  0  0  0  0  0  0  0  0
   -5.9469   -6.5944   -1.8241 C   0  0  0  0  0  0  0  0  0  0  0  0
   -4.9309   -7.0911   -2.6169 C   0  0  0  0  0  0  0  0  0  0  0  0
   -3.5837   -7.0395   -2.1188 C   0  0  0  0  0  0  0  0  0  0  0  0
   -3.3128   -7.3650   -0.8183 C   0  0  0  0  0  0  0  0  0  0  0  0
   -1.9970   -7.3141   -0.3312 C   0  0  0  0  0  0  0  0  0  0  0  0
   -0.9760   -6.9334   -1.1720 C   0  0  0  0  0  0  0  0  0  0  0  0
   -1.2573   -6.6091   -2.4731 C   0  0  0  0  0  0  0  0  0  0  0  0
   -2.5601   -6.6630   -2.9430 C   0  0  0  0  0  0  0  0  0  0  0  0
   -5.2505   -7.6242   -3.8718 C   0  0  0  0  0  0  0  0  0  0  0  0
  1  2  2  3
  2  3  1  0
  2  4  1  0
  7  4  1  6
  4  5  1  0
  4  8  1  1
  5  6  1  1
  6  7  1  1
  8 20  1  0
  8  9  2  0
  9 10  1  0
 10 11  1  0
 10 12  2  0
 12 13  1  0
 13 14  1  0
 13 20  2  0
 14 19  1  0
 14 15  2  0
 15 16  1  0
 16 17  2  0
 17 18  1  0
 18 19  2  0
M  CHG  1   1   1
M  END
$$$$
