
     RDKit          3D

 23 24  0  0  0  0  0  0  0  0999 V2000
   -7.3067  -34.5173  -13.9763 C   0  0  1  0  0  0  0  0  0  0  0  0
   -6.8800  -33.6106  -12.8509 C   0  0  1  0  0  0  0  0  0  0  0  0
   -5.4697  -34.0178  -12.4306 C   0  0  2  0  0  0  0  0  0  0  0  0
   -4.6102  -33.9058  -13.6563 C   0  0  1  0  0  0  0  0  0  0  0  0
   -5.1549  -34.6430  -14.8347 C   0  0  1  0  0  0  0  0  0  0  0  0
   -4.6954  -36.0943  -14.7158 C   0  0  0  0  0  0  0  0  0  0  0  0
   -8.5673  -34.0351  -14.4025 O   0  0  0  0  0  0  0  0  0  0  0  0
   -6.7971  -32.2836  -13.2622 O   0  0  0  0  0  0  0  0  0  0  0  0
   -5.4465  -35.2755  -11.8619 O   0  0  0  0  0  0  0  0  0  0  0  0
   -4.4368  -32.5459  -13.9586 O   0  0  0  0  0  0  0  0  0  0  0  0
   -6.4830  -34.5061  -15.0590 O   0  0  0  0  0  0  0  0  0  0  0  0
   -4.1598  -36.4155  -15.9851 O   0  0  0  0  0  0  0  0  0  0  0  0
   -8.0620  -32.1613  -17.8390 C   0  0  1  0  0  0  0  0  0  0  0  0
   -7.4920  -31.3713  -16.6785 C   0  0  1  0  0  0  0  0  0  0  0  0
   -8.0474  -31.8979  -15.3717 C   0  0  2  0  0  0  0  0  0  0  0  0
   -8.4870  -33.3514  -15.5934 C   0  0  1  0  0  0  0  0  0  0  0  0
   -7.4633  -33.9512  -16.5378 C   0  0  1  0  0  0  0  0  0  0  0  0
   -7.4767  -35.4571  -16.4977 C   0  0  0  0  0  0  0  0  0  0  0  0
   -7.6294  -31.5887  -19.0299 O   0  0  0  0  0  0  0  0  0  0  0  0
   -6.0985  -31.3707  -16.6953 O   0  0  0  0  0  0  0  0  0  0  0  0
   -9.1235  -31.1473  -14.9580 O   0  0  0  0  0  0  0  0  0  0  0  0
   -7.6801  -33.4810  -17.8094 O   0  0  0  0  0  0  0  0  0  0  0  0
   -7.7249  -36.0115  -17.7435 O   0  0  0  0  0  0  0  0  0  0  0  0
  1  2  1  0
  1  7  1  6
  1 11  1  0
  2  3  1  0
  2  8  1  6
  3  4  1  0
  3  9  1  6
  5  4  1  0
  4 10  1  6
  5  6  1  0
  5 11  1  1
  6 12  1  6
 16  7  1  1
 13 14  1  0
 13 19  1  6
 22 13  1  0
 15 14  1  0
 14 20  1  1
 16 15  1  0
 15 21  1  6
 17 16  1  0
 18 17  1  0
 17 22  1  6
 18 23  1  6
M  END
$$$$
