
     RDKit          3D

 23 24  0  0  0  0  0  0  0  0999 V2000
   -7.3445  -31.7894  -14.4481 C   0  0  1  0  0  0  0  0  0  0  0  0
   -8.3642  -30.9600  -13.7112 C   0  0  1  0  0  0  0  0  0  0  0  0
   -7.6558  -29.7215  -13.1675 C   0  0  2  0  0  0  0  0  0  0  0  0
   -7.0491  -29.0234  -14.3501 C   0  0  1  0  0  0  0  0  0  0  0  0
   -6.2016  -29.9142  -15.1969 C   0  0  1  0  0  0  0  0  0  0  0  0
   -4.8082  -29.9443  -14.5730 C   0  0  0  0  0  0  0  0  0  0  0  0
   -8.0647  -32.8638  -15.0230 O   0  0  0  0  0  0  0  0  0  0  0  0
   -9.3630  -30.4965  -14.5624 O   0  0  0  0  0  0  0  0  0  0  0  0
   -6.7329  -30.0442  -12.1929 O   0  0  0  0  0  0  0  0  0  0  0  0
   -8.0815  -28.4515  -15.1103 O   0  0  0  0  0  0  0  0  0  0  0  0
   -6.7092  -31.1411  -15.4615 O   0  0  0  0  0  0  0  0  0  0  0  0
   -4.1344  -31.0010  -15.2291 O   0  0  0  0  0  0  0  0  0  0  0  0
   -5.9071  -35.8679  -16.3999 C   0  0  1  0  0  0  0  0  0  0  0  0
   -6.8492  -36.3103  -15.2988 C   0  0  1  0  0  0  0  0  0  0  0  0
   -7.3492  -35.1049  -14.5304 C   0  0  2  0  0  0  0  0  0  0  0  0
   -7.2369  -33.8779  -15.4453 C   0  0  1  0  0  0  0  0  0  0  0  0
   -7.5860  -34.3691  -16.8368 C   0  0  1  0  0  0  0  0  0  0  0  0
   -7.9676  -33.2359  -17.7531 C   0  0  0  0  0  0  0  0  0  0  0  0
   -5.3731  -36.9942  -17.0160 O   0  0  0  0  0  0  0  0  0  0  0  0
   -7.8937  -37.0850  -15.7995 O   0  0  0  0  0  0  0  0  0  0  0  0
   -6.6020  -34.9036  -13.3929 O   0  0  0  0  0  0  0  0  0  0  0  0
   -6.5363  -35.0938  -17.3451 O   0  0  0  0  0  0  0  0  0  0  0  0
   -6.8620  -32.6490  -18.3480 O   0  0  0  0  0  0  0  0  0  0  0  0
  1  2  1  0
  1  7  1  6
  1 11  1  0
  2  3  1  0
  2  8  1  6
  3  4  1  0
  3  9  1  1
  5  4  1  0
  4 10  1  6
  5  6  1  0
  5 11  1  1
  6 12  1  6
 16  7  1  1
 13 14  1  0
 13 19  1  6
 22 13  1  0
 15 14  1  0
 14 20  1  6
 16 15  1  0
 15 21  1  1
 17 16  1  0
 18 17  1  0
 17 22  1  6
 18 23  1  6
M  END
$$$$
