
     RDKit          3D

 23 24  0  0  0  0  0  0  0  0999 V2000
   -7.7950  -34.3310  -15.6581 C   0  0  1  0  0  0  0  0  0  0  0  0
   -8.1181  -33.4049  -14.5142 C   0  0  1  0  0  0  0  0  0  0  0  0
   -7.4866  -33.9840  -13.2503 C   0  0  2  0  0  0  0  0  0  0  0  0
   -6.0169  -34.1122  -13.5279 C   0  0  1  0  0  0  0  0  0  0  0  0
   -5.7112  -34.8580  -14.7846 C   0  0  1  0  0  0  0  0  0  0  0  0
   -5.7177  -36.3464  -14.4434 C   0  0  0  0  0  0  0  0  0  0  0  0
   -8.3044  -33.7013  -16.8190 O   0  0  0  0  0  0  0  0  0  0  0  0
   -7.5496  -32.1473  -14.6937 O   0  0  0  0  0  0  0  0  0  0  0  0
   -8.0773  -35.1758  -12.8810 O   0  0  0  0  0  0  0  0  0  0  0  0
   -5.4546  -32.8264  -13.5650 O   0  0  0  0  0  0  0  0  0  0  0  0
   -6.4664  -34.5404  -15.8624 O   0  0  0  0  0  0  0  0  0  0  0  0
   -4.8945  -36.9514  -15.4219 O   0  0  0  0  0  0  0  0  0  0  0  0
   -5.4276  -31.5014  -18.3873 C   0  0  1  0  0  0  0  0  0  0  0  0
   -5.8528  -30.9850  -17.0278 C   0  0  1  0  0  0  0  0  0  0  0  0
   -7.1934  -31.5770  -16.6457 C   0  0  2  0  0  0  0  0  0  0  0  0
   -7.3721  -32.8890  -17.4215 C   0  0  1  0  0  0  0  0  0  0  0  0
   -5.9970  -33.5259  -17.4748 C   0  0  1  0  0  0  0  0  0  0  0  0
   -6.0716  -34.9981  -17.7855 C   0  0  0  0  0  0  0  0  0  0  0  0
   -4.2545  -30.8587  -18.7669 O   0  0  0  0  0  0  0  0  0  0  0  0
   -4.8777  -31.2245  -16.0615 O   0  0  0  0  0  0  0  0  0  0  0  0
   -8.2178  -30.7128  -16.9563 O   0  0  0  0  0  0  0  0  0  0  0  0
   -5.2169  -32.8593  -18.3871 O   0  0  0  0  0  0  0  0  0  0  0  0
   -5.6869  -35.2784  -19.0871 O   0  0  0  0  0  0  0  0  0  0  0  0
  1  2  1  0
  1  7  1  6
  1 11  1  0
  2  3  1  0
  2  8  1  6
  3  4  1  0
  3  9  1  6
  5  4  1  0
  4 10  1  6
  5  6  1  0
  5 11  1  6
  6 12  1  6
 16  7  1  1
 13 14  1  0
 13 19  1  1
 22 13  1  0
 15 14  1  0
 14 20  1  1
 16 15  1  0
 15 21  1  6
 17 16  1  0
 18 17  1  0
 17 22  1  6
 18 23  1  6
M  END
$$$$
