
     RDKit          3D

 23 24  0  0  0  0  0  0  0  0999 V2000
   -7.4714  -33.8060  -15.5850 C   0  0  1  0  0  0  0  0  0  0  0  0
   -8.3467  -34.9154  -16.1084 C   0  0  1  0  0  0  0  0  0  0  0  0
   -7.4468  -35.9313  -16.8079 C   0  0  2  0  0  0  0  0  0  0  0  0
   -6.4416  -36.3839  -15.7888 C   0  0  1  0  0  0  0  0  0  0  0  0
   -5.7227  -35.2586  -15.1212 C   0  0  1  0  0  0  0  0  0  0  0  0
   -4.5507  -34.8705  -16.0197 C   0  0  0  0  0  0  0  0  0  0  0  0
   -8.3303  -32.9497  -14.8553 O   0  0  0  0  0  0  0  0  0  0  0  0
   -8.9811  -35.6008  -15.0766 O   0  0  0  0  0  0  0  0  0  0  0  0
   -6.8694  -35.4072  -17.9471 O   0  0  0  0  0  0  0  0  0  0  0  0
   -7.0958  -37.1866  -14.8409 O   0  0  0  0  0  0  0  0  0  0  0  0
   -6.4879  -34.2100  -14.7364 O   0  0  0  0  0  0  0  0  0  0  0  0
   -3.4165  -35.4702  -15.4239 O   0  0  0  0  0  0  0  0  0  0  0  0
   -6.7109  -29.5384  -13.7079 C   0  0  1  0  0  0  0  0  0  0  0  0
   -8.1904  -29.3889  -13.9986 C   0  0  1  0  0  0  0  0  0  0  0  0
   -8.6810  -30.5723  -14.8063 C   0  0  2  0  0  0  0  0  0  0  0  0
   -7.7310  -31.7499  -14.5493 C   0  0  1  0  0  0  0  0  0  0  0  0
   -7.3421  -31.6529  -13.0868 C   0  0  1  0  0  0  0  0  0  0  0  0
   -6.7990  -32.9566  -12.5625 C   0  0  0  0  0  0  0  0  0  0  0  0
   -6.2591  -28.3900  -13.0671 O   0  0  0  0  0  0  0  0  0  0  0  0
   -8.9261  -29.2094  -12.8288 O   0  0  0  0  0  0  0  0  0  0  0  0
   -8.6978  -30.2763  -16.1497 O   0  0  0  0  0  0  0  0  0  0  0  0
   -6.4421  -30.6299  -12.9175 O   0  0  0  0  0  0  0  0  0  0  0  0
   -5.5022  -32.8309  -12.0899 O   0  0  0  0  0  0  0  0  0  0  0  0
  1  2  1  0
  1  7  1  1
  1 11  1  0
  2  3  1  0
  2  8  1  1
  3  4  1  0
  3  9  1  6
  5  4  1  0
  4 10  1  1
  5  6  1  0
  5 11  1  6
  6 12  1  6
 16  7  1  1
 13 14  1  0
 13 19  1  1
 22 13  1  0
 15 14  1  0
 14 20  1  1
 16 15  1  0
 15 21  1  6
 17 16  1  0
 18 17  1  0
 17 22  1  6
 18 23  1  6
M  END
$$$$
