
     RDKit          3D

 23 24  0  0  0  0  0  0  0  0999 V2000
   -8.0850  -32.8391  -15.6177 C   0  0  1  0  0  0  0  0  0  0  0  0
   -8.1690  -31.4100  -15.1473 C   0  0  1  0  0  0  0  0  0  0  0  0
   -8.1775  -31.4194  -13.6205 C   0  0  2  0  0  0  0  0  0  0  0  0
   -6.9236  -32.1244  -13.1912 C   0  0  1  0  0  0  0  0  0  0  0  0
   -6.7446  -33.4622  -13.8293 C   0  0  1  0  0  0  0  0  0  0  0  0
   -7.5291  -34.4727  -12.9956 C   0  0  0  0  0  0  0  0  0  0  0  0
   -7.9706  -32.7745  -17.0270 O   0  0  0  0  0  0  0  0  0  0  0  0
   -7.0491  -30.6763  -15.5271 O   0  0  0  0  0  0  0  0  0  0  0  0
   -9.3263  -31.9959  -13.1170 O   0  0  0  0  0  0  0  0  0  0  0  0
   -5.8263  -31.2930  -13.4658 O   0  0  0  0  0  0  0  0  0  0  0  0
   -7.0059  -33.5271  -15.1562 O   0  0  0  0  0  0  0  0  0  0  0  0
   -7.3249  -35.7165  -13.6379 O   0  0  0  0  0  0  0  0  0  0  0  0
   -4.7208  -34.7507  -18.0803 C   0  0  1  0  0  0  0  0  0  0  0  0
   -4.4045  -33.3280  -17.6663 C   0  0  1  0  0  0  0  0  0  0  0  0
   -5.6700  -32.4960  -17.6648 C   0  0  2  0  0  0  0  0  0  0  0  0
   -6.8629  -33.4457  -17.4902 C   0  0  1  0  0  0  0  0  0  0  0  0
   -6.3945  -34.5222  -16.5304 C   0  0  1  0  0  0  0  0  0  0  0  0
   -7.5504  -35.2567  -15.9028 C   0  0  0  0  0  0  0  0  0  0  0  0
   -3.5323  -35.4645  -18.1855 O   0  0  0  0  0  0  0  0  0  0  0  0
   -3.7466  -33.2866  -16.4385 O   0  0  0  0  0  0  0  0  0  0  0  0
   -5.8013  -31.8006  -18.8444 O   0  0  0  0  0  0  0  0  0  0  0  0
   -5.5478  -35.3835  -17.1835 O   0  0  0  0  0  0  0  0  0  0  0  0
   -7.4617  -36.6274  -16.0874 O   0  0  0  0  0  0  0  0  0  0  0  0
  1  2  1  0
  1  7  1  6
  1 11  1  0
  2  3  1  0
  2  8  1  1
  3  4  1  0
  3  9  1  6
  5  4  1  0
  4 10  1  6
  5  6  1  0
  5 11  1  6
  6 12  1  6
 16  7  1  1
 13 14  1  0
 13 19  1  1
 22 13  1  0
 15 14  1  0
 14 20  1  1
 16 15  1  0
 15 21  1  6
 17 16  1  0
 18 17  1  0
 17 22  1  6
 18 23  1  6
M  END
$$$$
