
     RDKit          3D

 23 24  0  0  0  0  0  0  0  0999 V2000
   -7.7758  -32.6150  -14.9973 C   0  0  1  0  0  0  0  0  0  0  0  0
   -8.3740  -31.3032  -14.5593 C   0  0  1  0  0  0  0  0  0  0  0  0
   -7.8386  -30.9869  -13.1648 C   0  0  2  0  0  0  0  0  0  0  0  0
   -6.3418  -30.9610  -13.2781 C   0  0  1  0  0  0  0  0  0  0  0  0
   -5.7714  -32.1877  -13.9097 C   0  0  1  0  0  0  0  0  0  0  0  0
   -5.6122  -33.2342  -12.8092 C   0  0  0  0  0  0  0  0  0  0  0  0
   -8.2121  -32.8115  -16.3294 O   0  0  0  0  0  0  0  0  0  0  0  0
   -7.9704  -30.2539  -15.3798 O   0  0  0  0  0  0  0  0  0  0  0  0
   -8.2982  -31.8850  -12.2225 O   0  0  0  0  0  0  0  0  0  0  0  0
   -5.9671  -29.8138  -13.9951 O   0  0  0  0  0  0  0  0  0  0  0  0
   -6.4157  -32.6439  -15.0096 O   0  0  0  0  0  0  0  0  0  0  0  0
   -4.8187  -34.2545  -13.3842 O   0  0  0  0  0  0  0  0  0  0  0  0
   -6.6643  -35.9504  -18.1534 C   0  0  1  0  0  0  0  0  0  0  0  0
   -8.0829  -35.6774  -18.6102 C   0  0  1  0  0  0  0  0  0  0  0  0
   -8.7739  -34.7541  -17.6285 C   0  0  2  0  0  0  0  0  0  0  0  0
   -7.6937  -33.9593  -16.8825 C   0  0  1  0  0  0  0  0  0  0  0  0
   -6.6133  -33.6718  -17.9071 C   0  0  1  0  0  0  0  0  0  0  0  0
   -5.7214  -32.5358  -17.4790 C   0  0  0  0  0  0  0  0  0  0  0  0
   -6.0890  -36.8874  -19.0045 O   0  0  0  0  0  0  0  0  0  0  0  0
   -8.1147  -35.1800  -19.9116 O   0  0  0  0  0  0  0  0  0  0  0  0
   -9.5261  -35.4710  -16.7270 O   0  0  0  0  0  0  0  0  0  0  0  0
   -5.8908  -34.8146  -18.1460 O   0  0  0  0  0  0  0  0  0  0  0  0
   -4.4497  -32.9688  -17.1380 O   0  0  0  0  0  0  0  0  0  0  0  0
  1  2  1  0
  1  7  1  6
  1 11  1  0
  2  3  1  0
  2  8  1  6
  3  4  1  0
  3  9  1  1
  5  4  1  0
  4 10  1  6
  5  6  1  0
  5 11  1  6
  6 12  1  6
 16  7  1  6
 13 14  1  0
 13 19  1  6
 22 13  1  0
 15 14  1  0
 14 20  1  6
 16 15  1  0
 15 21  1  1
 17 16  1  0
 18 17  1  0
 17 22  1  1
 18 23  1  6
M  END
$$$$
