
     RDKit          3D

 23 24  0  0  0  0  0  0  0  0999 V2000
   -7.4557  -33.5343  -14.9627 C   0  0  1  0  0  0  0  0  0  0  0  0
   -7.6711  -34.8248  -14.2150 C   0  0  1  0  0  0  0  0  0  0  0  0
   -7.7009  -35.9587  -15.2372 C   0  0  2  0  0  0  0  0  0  0  0  0
   -6.3965  -35.8996  -15.9780 C   0  0  1  0  0  0  0  0  0  0  0  0
   -6.0921  -34.5507  -16.5408 C   0  0  1  0  0  0  0  0  0  0  0  0
   -6.7974  -34.4514  -17.8915 C   0  0  0  0  0  0  0  0  0  0  0  0
   -7.3270  -32.5320  -13.9716 O   0  0  0  0  0  0  0  0  0  0  0  0
   -6.6142  -35.1032  -13.3536 O   0  0  0  0  0  0  0  0  0  0  0  0
   -8.8021  -35.8745  -16.0654 O   0  0  0  0  0  0  0  0  0  0  0  0
   -5.3722  -36.3198  -15.1149 O   0  0  0  0  0  0  0  0  0  0  0  0
   -6.3274  -33.4986  -15.7219 O   0  0  0  0  0  0  0  0  0  0  0  0
   -6.3332  -33.2422  -18.4604 O   0  0  0  0  0  0  0  0  0  0  0  0
   -7.6375  -28.8088  -15.2431 C   0  0  1  0  0  0  0  0  0  0  0  0
   -8.4999  -29.0601  -14.0230 C   0  0  1  0  0  0  0  0  0  0  0  0
   -8.6765  -30.5494  -13.8121 C   0  0  2  0  0  0  0  0  0  0  0  0
   -7.4991  -31.2676  -14.4853 C   0  0  1  0  0  0  0  0  0  0  0  0
   -6.2909  -30.3802  -14.2567 C   0  0  1  0  0  0  0  0  0  0  0  0
   -4.9987  -31.1321  -14.4414 C   0  0  0  0  0  0  0  0  0  0  0  0
   -7.5841  -27.4403  -15.4833 O   0  0  0  0  0  0  0  0  0  0  0  0
   -7.9854  -28.4265  -12.8934 O   0  0  0  0  0  0  0  0  0  0  0  0
   -9.8597  -30.9858  -14.3617 O   0  0  0  0  0  0  0  0  0  0  0  0
   -6.3592  -29.2883  -15.0864 O   0  0  0  0  0  0  0  0  0  0  0  0
   -3.9669  -30.3053  -14.8566 O   0  0  0  0  0  0  0  0  0  0  0  0
  1  2  1  0
  1  7  1  1
  1 11  1  0
  2  3  1  0
  2  8  1  1
  3  4  1  0
  3  9  1  6
  5  4  1  0
  4 10  1  1
  5  6  1  0
  5 11  1  1
  6 12  1  6
 16  7  1  1
 13 14  1  0
 13 19  1  1
 22 13  1  0
 15 14  1  0
 14 20  1  1
 16 15  1  0
 15 21  1  6
 17 16  1  0
 18 17  1  0
 17 22  1  6
 18 23  1  6
M  END
$$$$
