
     RDKit          3D

 23 24  0  0  0  0  0  0  0  0999 V2000
   -7.6327  -33.0637  -14.2624 C   0  0  1  0  0  0  0  0  0  0  0  0
   -8.5052  -31.8831  -13.9223 C   0  0  1  0  0  0  0  0  0  0  0  0
   -7.6232  -30.8220  -13.2684 C   0  0  2  0  0  0  0  0  0  0  0  0
   -6.5350  -30.5058  -14.2530 C   0  0  1  0  0  0  0  0  0  0  0  0
   -5.8088  -31.7135  -14.7459 C   0  0  1  0  0  0  0  0  0  0  0  0
   -4.7159  -32.0340  -13.7288 C   0  0  0  0  0  0  0  0  0  0  0  0
   -8.4663  -33.9704  -14.9598 O   0  0  0  0  0  0  0  0  0  0  0  0
   -9.0430  -31.2949  -15.0632 O   0  0  0  0  0  0  0  0  0  0  0  0
   -7.1445  -31.2370  -12.0419 O   0  0  0  0  0  0  0  0  0  0  0  0
   -7.0945  -29.7918  -15.3244 O   0  0  0  0  0  0  0  0  0  0  0  0
   -6.5794  -32.7771  -15.0744 O   0  0  0  0  0  0  0  0  0  0  0  0
   -3.8918  -32.9921  -14.3644 O   0  0  0  0  0  0  0  0  0  0  0  0
   -6.3913  -35.5718  -17.9103 C   0  0  1  0  0  0  0  0  0  0  0  0
   -7.4554  -34.6223  -18.4218 C   0  0  1  0  0  0  0  0  0  0  0  0
   -8.4725  -34.3502  -17.3331 C   0  0  2  0  0  0  0  0  0  0  0  0
   -7.8001  -34.6111  -15.9785 C   0  0  1  0  0  0  0  0  0  0  0  0
   -6.3704  -34.1285  -16.1293 C   0  0  1  0  0  0  0  0  0  0  0  0
   -5.7154  -33.8873  -14.7943 C   0  0  0  0  0  0  0  0  0  0  0  0
   -5.5359  -35.8965  -18.9572 O   0  0  0  0  0  0  0  0  0  0  0  0
   -6.8958  -33.4489  -18.9237 O   0  0  0  0  0  0  0  0  0  0  0  0
   -9.5692  -35.1692  -17.4705 O   0  0  0  0  0  0  0  0  0  0  0  0
   -5.6584  -35.0292  -16.8822 O   0  0  0  0  0  0  0  0  0  0  0  0
   -5.1433  -35.0385  -14.2765 O   0  0  0  0  0  0  0  0  0  0  0  0
  1  2  1  0
  1  7  1  6
  1 11  1  0
  2  3  1  0
  2  8  1  6
  3  4  1  0
  3  9  1  1
  5  4  1  0
  4 10  1  6
  5  6  1  0
  5 11  1  1
  6 12  1  6
 16  7  1  1
 13 14  1  0
 13 19  1  6
 22 13  1  0
 15 14  1  0
 14 20  1  1
 16 15  1  0
 15 21  1  6
 17 16  1  0
 18 17  1  0
 17 22  1  1
 18 23  1  6
M  END
$$$$
