
     RDKit          3D

 23 24  0  0  0  0  0  0  0  0999 V2000
   -7.5092  -32.4180  -14.4004 C   0  0  1  0  0  0  0  0  0  0  0  0
   -8.5601  -31.4494  -13.9227 C   0  0  1  0  0  0  0  0  0  0  0  0
   -7.8535  -30.3285  -13.1640 C   0  0  2  0  0  0  0  0  0  0  0  0
   -6.8642  -29.7250  -14.1183 C   0  0  1  0  0  0  0  0  0  0  0  0
   -5.9572  -30.7290  -14.7494 C   0  0  1  0  0  0  0  0  0  0  0  0
   -4.7966  -30.9634  -13.7851 C   0  0  0  0  0  0  0  0  0  0  0  0
   -8.1959  -33.3746  -15.1858 O   0  0  0  0  0  0  0  0  0  0  0  0
   -9.2232  -30.8437  -14.9858 O   0  0  0  0  0  0  0  0  0  0  0  0
   -7.2757  -30.7841  -11.9960 O   0  0  0  0  0  0  0  0  0  0  0  0
   -7.5681  -29.0073  -15.0981 O   0  0  0  0  0  0  0  0  0  0  0  0
   -6.5443  -31.8681  -15.1862 O   0  0  0  0  0  0  0  0  0  0  0  0
   -3.8723  -29.9295  -14.0642 O   0  0  0  0  0  0  0  0  0  0  0  0
   -5.9227  -36.1137  -16.8906 C   0  0  1  0  0  0  0  0  0  0  0  0
   -7.2211  -36.7011  -16.3760 C   0  0  1  0  0  0  0  0  0  0  0  0
   -7.8675  -35.7466  -15.3938 C   0  0  2  0  0  0  0  0  0  0  0  0
   -7.3505  -34.3332  -15.6944 C   0  0  1  0  0  0  0  0  0  0  0  0
   -7.2253  -34.2533  -17.2035 C   0  0  1  0  0  0  0  0  0  0  0  0
   -7.1761  -32.8278  -17.6883 C   0  0  0  0  0  0  0  0  0  0  0  0
   -5.2922  -37.0528  -17.6991 O   0  0  0  0  0  0  0  0  0  0  0  0
   -8.0785  -37.0411  -17.4206 O   0  0  0  0  0  0  0  0  0  0  0  0
   -7.5535  -36.0882  -14.0987 O   0  0  0  0  0  0  0  0  0  0  0  0
   -6.1212  -34.9605  -17.6111 O   0  0  0  0  0  0  0  0  0  0  0  0
   -6.3299  -32.6736  -18.7750 O   0  0  0  0  0  0  0  0  0  0  0  0
  1  2  1  0
  1  7  1  6
  1 11  1  0
  2  3  1  0
  2  8  1  6
  3  4  1  0
  3  9  1  1
  5  4  1  0
  4 10  1  6
  5  6  1  0
  5 11  1  1
  6 12  1  6
 16  7  1  6
 13 14  1  0
 13 19  1  6
 22 13  1  0
 15 14  1  0
 14 20  1  6
 16 15  1  0
 15 21  1  1
 17 16  1  0
 18 17  1  0
 17 22  1  1
 18 23  1  6
M  END
$$$$
