
     RDKit          3D

 23 24  0  0  0  0  0  0  0  0999 V2000
   -7.9888  -34.1730  -15.2450 C   0  0  1  0  0  0  0  0  0  0  0  0
   -7.4905  -35.1324  -14.1952 C   0  0  1  0  0  0  0  0  0  0  0  0
   -6.6118  -36.1706  -14.8891 C   0  0  2  0  0  0  0  0  0  0  0  0
   -5.5180  -35.4099  -15.5809 C   0  0  1  0  0  0  0  0  0  0  0  0
   -6.0203  -34.3165  -16.4646 C   0  0  1  0  0  0  0  0  0  0  0  0
   -6.3598  -34.9428  -17.8153 C   0  0  0  0  0  0  0  0  0  0  0  0
   -8.7046  -33.1730  -14.5441 O   0  0  0  0  0  0  0  0  0  0  0  0
   -6.6794  -34.4965  -13.2601 O   0  0  0  0  0  0  0  0  0  0  0  0
   -7.3417  -36.9728  -15.7431 O   0  0  0  0  0  0  0  0  0  0  0  0
   -4.6437  -34.8994  -14.6083 O   0  0  0  0  0  0  0  0  0  0  0  0
   -7.0105  -33.5474  -15.9538 O   0  0  0  0  0  0  0  0  0  0  0  0
   -5.1288  -35.0102  -18.5090 O   0  0  0  0  0  0  0  0  0  0  0  0
   -7.6664  -29.6143  -15.8982 C   0  0  1  0  0  0  0  0  0  0  0  0
   -7.5826  -29.6875  -14.3872 C   0  0  1  0  0  0  0  0  0  0  0  0
   -8.3558  -30.8885  -13.8837 C   0  0  2  0  0  0  0  0  0  0  0  0
   -8.4409  -31.9114  -15.0245 C   0  0  1  0  0  0  0  0  0  0  0  0
   -7.1100  -31.8332  -15.7472 C   0  0  1  0  0  0  0  0  0  0  0  0
   -6.8516  -33.0599  -16.5825 C   0  0  0  0  0  0  0  0  0  0  0  0
   -7.0487  -28.4451  -16.3280 O   0  0  0  0  0  0  0  0  0  0  0  0
   -6.2602  -29.6916  -13.9477 O   0  0  0  0  0  0  0  0  0  0  0  0
   -9.6238  -30.5264  -13.4917 O   0  0  0  0  0  0  0  0  0  0  0  0
   -7.0661  -30.6903  -16.5069 O   0  0  0  0  0  0  0  0  0  0  0  0
   -7.0992  -32.8384  -17.9280 O   0  0  0  0  0  0  0  0  0  0  0  0
  1  2  1  0
  1  7  1  1
  1 11  1  0
  2  3  1  0
  2  8  1  1
  3  4  1  0
  3  9  1  6
  5  4  1  0
  4 10  1  1
  5  6  1  0
  5 11  1  1
  6 12  1  6
 16  7  1  1
 13 14  1  0
 13 19  1  6
 22 13  1  0
 15 14  1  0
 14 20  1  6
 16 15  1  0
 15 21  1  6
 17 16  1  0
 18 17  1  0
 17 22  1  6
 18 23  1  6
M  END
$$$$
