
     RDKit          3D

 23 24  0  0  0  0  0  0  0  0999 V2000
   -6.7442  -32.7796  -14.4821 C   0  0  1  0  0  0  0  0  0  0  0  0
   -7.0836  -32.2052  -13.1310 C   0  0  1  0  0  0  0  0  0  0  0  0
   -7.0420  -30.6831  -13.2455 C   0  0  2  0  0  0  0  0  0  0  0  0
   -8.0176  -30.3096  -14.3237 C   0  0  1  0  0  0  0  0  0  0  0  0
   -7.7995  -31.0449  -15.6046 C   0  0  1  0  0  0  0  0  0  0  0  0
   -6.7312  -30.2861  -16.3887 C   0  0  0  0  0  0  0  0  0  0  0  0
   -6.9010  -34.1806  -14.3553 O   0  0  0  0  0  0  0  0  0  0  0  0
   -8.3795  -32.5323  -12.7433 O   0  0  0  0  0  0  0  0  0  0  0  0
   -5.7632  -30.2209  -13.4839 O   0  0  0  0  0  0  0  0  0  0  0  0
   -9.3191  -30.5246  -13.8437 O   0  0  0  0  0  0  0  0  0  0  0  0
   -7.5575  -32.3723  -15.4938 O   0  0  0  0  0  0  0  0  0  0  0  0
   -6.5852  -31.0031  -17.5994 O   0  0  0  0  0  0  0  0  0  0  0  0
   -5.7776  -36.3269  -17.4709 C   0  0  1  0  0  0  0  0  0  0  0  0
   -5.1895  -36.8590  -16.1799 C   0  0  1  0  0  0  0  0  0  0  0  0
   -5.2955  -35.8105  -15.0923 C   0  0  2  0  0  0  0  0  0  0  0  0
   -6.4407  -34.8576  -15.4607 C   0  0  1  0  0  0  0  0  0  0  0  0
   -7.5100  -35.7256  -16.0952 C   0  0  1  0  0  0  0  0  0  0  0  0
   -8.8560  -35.0491  -16.0945 C   0  0  0  0  0  0  0  0  0  0  0  0
   -5.5664  -37.2592  -18.4805 O   0  0  0  0  0  0  0  0  0  0  0  0
   -5.7803  -38.0648  -15.8072 O   0  0  0  0  0  0  0  0  0  0  0  0
   -4.1222  -35.1012  -14.9785 O   0  0  0  0  0  0  0  0  0  0  0  0
   -7.1244  -36.0747  -17.3659 O   0  0  0  0  0  0  0  0  0  0  0  0
   -9.6055  -35.3740  -17.2141 O   0  0  0  0  0  0  0  0  0  0  0  0
  1  2  1  0
  1  7  1  1
  1 11  1  0
  2  3  1  0
  2  8  1  6
  3  4  1  0
  3  9  1  6
  5  4  1  0
  4 10  1  1
  5  6  1  0
  5 11  1  1
  6 12  1  6
 16  7  1  1
 13 14  1  0
 13 19  1  6
 22 13  1  0
 15 14  1  0
 14 20  1  1
 16 15  1  0
 15 21  1  6
 17 16  1  0
 18 17  1  0
 17 22  1  6
 18 23  1  6
M  END
$$$$
