
     RDKit          3D

 23 24  0  0  0  0  0  0  0  0999 V2000
   -7.5997  -32.1040  -15.4253 C   0  0  1  0  0  0  0  0  0  0  0  0
   -7.7369  -30.6278  -15.1555 C   0  0  1  0  0  0  0  0  0  0  0  0
   -8.3530  -30.4607  -13.7684 C   0  0  2  0  0  0  0  0  0  0  0  0
   -7.4413  -31.1687  -12.8085 C   0  0  1  0  0  0  0  0  0  0  0  0
   -7.1426  -32.5779  -13.2006 C   0  0  1  0  0  0  0  0  0  0  0  0
   -8.2803  -33.4483  -12.6717 C   0  0  0  0  0  0  0  0  0  0  0  0
   -6.9288  -32.2076  -16.6673 O   0  0  0  0  0  0  0  0  0  0  0  0
   -6.4980  -29.9953  -15.1113 O   0  0  0  0  0  0  0  0  0  0  0  0
   -9.6535  -30.9217  -13.7254 O   0  0  0  0  0  0  0  0  0  0  0  0
   -6.2564  -30.4259  -12.6863 O   0  0  0  0  0  0  0  0  0  0  0  0
   -6.8590  -32.7832  -14.5084 O   0  0  0  0  0  0  0  0  0  0  0  0
   -7.7128  -34.7332  -12.5042 O   0  0  0  0  0  0  0  0  0  0  0  0
   -6.2816  -35.8819  -17.9545 C   0  0  1  0  0  0  0  0  0  0  0  0
   -6.7626  -34.9727  -19.0671 C   0  0  1  0  0  0  0  0  0  0  0  0
   -7.3783  -33.7192  -18.4812 C   0  0  2  0  0  0  0  0  0  0  0  0
   -6.7929  -33.5136  -17.0776 C   0  0  1  0  0  0  0  0  0  0  0  0
   -5.3417  -33.9437  -17.1701 C   0  0  1  0  0  0  0  0  0  0  0  0
   -4.5180  -33.3880  -16.0377 C   0  0  0  0  0  0  0  0  0  0  0  0
   -5.8264  -37.0724  -18.5102 O   0  0  0  0  0  0  0  0  0  0  0  0
   -5.7409  -34.6842  -19.9698 O   0  0  0  0  0  0  0  0  0  0  0  0
   -8.7465  -33.8370  -18.3990 O   0  0  0  0  0  0  0  0  0  0  0  0
   -5.2707  -35.3141  -17.2169 O   0  0  0  0  0  0  0  0  0  0  0  0
   -3.3176  -34.0634  -15.8833 O   0  0  0  0  0  0  0  0  0  0  0  0
  1  2  1  0
  1  7  1  6
  1 11  1  0
  2  3  1  0
  2  8  1  1
  3  4  1  0
  3  9  1  6
  5  4  1  0
  4 10  1  6
  5  6  1  0
  5 11  1  6
  6 12  1  6
 16  7  1  6
 13 14  1  0
 13 19  1  6
 22 13  1  0
 15 14  1  0
 14 20  1  6
 16 15  1  0
 15 21  1  1
 17 16  1  0
 18 17  1  0
 17 22  1  1
 18 23  1  6
M  END
$$$$
