
     RDKit          3D

 37 42  0  0  0  0  0  0  0  0999 V2000
   25.6937  -12.6237   11.4552 N   0  0  0  0  0  0  0  0  0  0  0  0
   21.3826  -14.9854    9.8324 N   0  0  0  0  0  0  0  0  0  0  0  0
   27.9886   -1.7041   10.1573 C   0  0  0  0  0  0  0  0  0  0  0  0
   21.4616  -15.6285   11.8803 N   0  0  0  0  0  0  0  0  0  0  0  0
   23.3276  -14.1642   11.1144 N   0  0  0  0  0  0  0  0  0  0  0  0
   27.9815   -7.4203    8.2734 C   0  0  0  0  0  0  0  0  0  0  0  0
   27.6719   -8.5488    9.1126 C   0  0  0  0  0  0  0  0  0  0  0  0
   29.1912   -4.8309    7.1457 O   0  0  0  0  0  0  0  0  0  0  0  0
   26.9745   -3.6224   11.1995 C   0  0  0  0  0  0  0  0  0  0  0  0
   27.2579   -2.2863   11.1724 C   0  0  0  0  0  0  0  0  0  0  0  0
   28.0620   -9.8415    8.7343 C   0  0  0  0  0  0  0  0  0  0  0  0
   28.4519   -2.5145    9.1242 C   0  0  0  0  0  0  0  0  0  0  0  0
   28.1658   -3.8760    9.1474 C   0  0  0  0  0  0  0  0  0  0  0  0
   28.5214   -4.9520    8.2055 C   0  0  0  0  0  0  0  0  0  0  0  0
   27.9551   -6.1762    8.7350 C   0  0  0  0  0  0  0  0  0  0  0  0
   27.1716  -10.7780   10.7381 C   0  0  0  0  0  0  0  0  0  0  0  0
   27.8166  -10.9314    9.5308 C   0  0  0  0  0  0  0  0  0  0  0  0
   27.6520  -12.1493   12.5610 O   0  0  0  0  0  0  0  0  0  0  0  0
   26.8750  -11.8665   11.6309 C   0  0  0  0  0  0  0  0  0  0  0  0
   25.7599  -14.0582   11.2721 C   0  0  0  0  0  0  0  0  0  0  0  0
   24.5519  -14.5619   10.4708 C   0  0  0  0  0  0  0  0  0  0  0  0
   22.1203  -14.8867   10.9461 C   0  0  0  0  0  0  0  0  0  0  0  0
   20.3495  -16.1670   11.3517 C   0  0  0  0  0  0  0  0  0  0  0  0
   19.3375  -16.9824   11.8303 C   0  0  0  0  0  0  0  0  0  0  0  0
   18.3041  -17.3702   11.0069 C   0  0  0  0  0  0  0  0  0  0  0  0
   18.2316  -16.9730    9.6964 C   0  0  0  0  0  0  0  0  0  0  0  0
   19.2603  -16.1515    9.2315 C   0  0  0  0  0  0  0  0  0  0  0  0
   20.3038  -15.7548   10.0482 C   0  0  0  0  0  0  0  0  0  0  0  0
   23.3771  -12.9852   11.9494 C   0  0  0  0  0  0  0  0  0  0  0  0
   24.3763  -11.9784   11.4528 C   0  0  0  0  0  0  0  0  0  0  0  0
   26.7914   -9.5068   11.1048 C   0  0  0  0  0  0  0  0  0  0  0  0
   27.0294   -8.3882   10.3158 C   0  0  0  0  0  0  0  0  0  0  0  0
   27.3062   -5.7990    9.9325 O   0  0  0  0  0  0  0  0  0  0  0  0
   27.4329   -4.4432   10.1711 C   0  0  0  0  0  0  0  0  0  0  0  0
   26.2020   -4.1775   12.2913 C   0  0  0  0  0  0  0  0  0  0  0  0
   25.7567   -3.4264   13.2254 O   0  0  0  0  0  0  0  0  0  0  0  0
   25.8914   -5.5466   12.4042 N   0  0  0  0  0  0  0  0  0  0  0  0
  1 19  1  0
 20  1  1  0
  1 30  1  0
 22  2  1  0
  2 28  1  0
  3 10  2  0
 12  3  1  0
 22  4  2  0
  4 23  1  0
 21  5  1  0
  5 22  1  0
  5 29  1  0
  7  6  1  0
  6 15  2  3
 11  7  2  0
  7 32  1  0
 14  8  2  0
  9 10  1  0
 34  9  2  0
  9 35  1  0
 17 11  1  0
 13 12  2  0
 14 13  1  0
 13 34  1  0
 15 14  1  0
 15 33  1  0
 16 17  2  0
 19 16  1  0
 16 31  1  0
 19 18  2  0
 20 21  1  0
 23 24  1  0
 23 28  2  0
 24 25  2  0
 25 26  1  0
 26 27  2  0
 27 28  1  0
 29 30  1  0
 31 32  2  0
 33 34  1  0
 35 36  2  0
 35 37  1  0
M  END
$$$$
