
     RDKit          3D

 37 42  0  0  0  0  0  0  0  0999 V2000
   24.5842  -12.7836    9.5298 N   0  0  0  0  0  0  0  0  0  0  0  0
   21.3944  -14.9609    5.9674 N   0  0  0  0  0  0  0  0  0  0  0  0
   28.2175   -1.7764    9.6602 C   0  0  0  0  0  0  0  0  0  0  0  0
   23.4060  -14.6594    5.2371 N   0  0  0  0  0  0  0  0  0  0  0  0
   23.0713  -13.9670    7.5500 N   0  0  0  0  0  0  0  0  0  0  0  0
   24.8458   -6.4866   11.2396 C   0  0  0  0  0  0  0  0  0  0  0  0
   25.0644   -7.8901   11.0064 C   0  0  0  0  0  0  0  0  0  0  0  0
   25.0113   -3.5604   12.1657 O   0  0  0  0  0  0  0  0  0  0  0  0
   28.2669   -4.0404    8.7793 C   0  0  0  0  0  0  0  0  0  0  0  0
   28.7232   -2.7413    8.8077 C   0  0  0  0  0  0  0  0  0  0  0  0
   26.0870   -8.3610   10.2284 C   0  0  0  0  0  0  0  0  0  0  0  0
   27.1958   -2.1346   10.5340 C   0  0  0  0  0  0  0  0  0  0  0  0
   26.7262   -3.4259   10.5209 C   0  0  0  0  0  0  0  0  0  0  0  0
   25.6782   -4.1367   11.2920 C   0  0  0  0  0  0  0  0  0  0  0  0
   25.6255   -5.5084   10.8371 C   0  0  0  0  0  0  0  0  0  0  0  0
   25.4194  -10.6716   10.5159 C   0  0  0  0  0  0  0  0  0  0  0  0
   26.2511   -9.7049    9.9958 C   0  0  0  0  0  0  0  0  0  0  0  0
   26.5347  -12.6835   10.7584 O   0  0  0  0  0  0  0  0  0  0  0  0
   25.5561  -12.0961   10.2830 C   0  0  0  0  0  0  0  0  0  0  0  0
   23.3315  -12.1784    9.1672 C   0  0  0  0  0  0  0  0  0  0  0  0
   22.9393  -12.5671    7.7819 C   0  0  0  0  0  0  0  0  0  0  0  0
   22.6183  -14.5111    6.3201 C   0  0  0  0  0  0  0  0  0  0  0  0
   22.7111  -15.1833    4.2325 C   0  0  0  0  0  0  0  0  0  0  0  0
   23.0268  -15.5278    2.9409 C   0  0  0  0  0  0  0  0  0  0  0  0
   22.1163  -16.0648    2.0680 C   0  0  0  0  0  0  0  0  0  0  0  0
   20.8120  -16.2643    2.5301 C   0  0  0  0  0  0  0  0  0  0  0  0
   20.5154  -15.9125    3.8292 C   0  0  0  0  0  0  0  0  0  0  0  0
   21.4266  -15.3765    4.6976 C   0  0  0  0  0  0  0  0  0  0  0  0
   23.6560  -14.8324    8.5522 C   0  0  0  0  0  0  0  0  0  0  0  0
   24.8629  -14.1437    9.1212 C   0  0  0  0  0  0  0  0  0  0  0  0
   24.3802  -10.1951   11.3083 C   0  0  0  0  0  0  0  0  0  0  0  0
   24.1999   -8.8551   11.5512 C   0  0  0  0  0  0  0  0  0  0  0  0
   26.6142   -5.5861    9.8359 O   0  0  0  0  0  0  0  0  0  0  0  0
   27.2358   -4.3795    9.6689 C   0  0  0  0  0  0  0  0  0  0  0  0
   28.8064   -5.0513    7.8872 C   0  0  0  0  0  0  0  0  0  0  0  0
   29.7072   -4.7648    7.0726 O   0  0  0  0  0  0  0  0  0  0  0  0
   28.3119   -6.3687    7.9368 N   0  0  0  0  0  0  0  0  0  0  0  0
  1 19  1  0
 20  1  1  1
 30  1  1  1
 22  2  1  0
  2 28  1  0
  3 10  2  0
 12  3  1  0
 22  4  2  0
  4 23  1  0
 21  5  1  1
  5 22  1  0
 29  5  1  1
  7  6  1  0
  6 15  2  3
 11  7  2  0
  7 32  1  0
 14  8  2  0
  9 10  1  0
 34  9  2  0
  9 35  1  0
 17 11  1  0
 13 12  2  0
 14 13  1  0
 13 34  1  0
 15 14  1  0
 15 33  1  0
 16 17  2  0
 19 16  1  0
 16 31  1  0
 19 18  2  0
 20 21  1  0
 23 24  1  0
 23 28  2  0
 24 25  2  0
 25 26  1  0
 26 27  2  0
 27 28  1  0
 29 30  1  0
 31 32  2  0
 33 34  1  0
 35 36  2  0
 35 37  1  0
M  END
$$$$
