
     RDKit          3D

 37 42  0  0  0  0  0  0  0  0999 V2000
   25.2486  -13.0407   11.5441 N   0  0  0  0  0  0  0  0  0  0  0  0
   21.3374  -15.6526    9.9779 N   0  0  0  0  0  0  0  0  0  0  0  0
   28.3395   -2.1612   10.1041 C   0  0  0  0  0  0  0  0  0  0  0  0
   20.5695  -15.1789   11.9417 N   0  0  0  0  0  0  0  0  0  0  0  0
   22.7379  -14.1795   11.4519 N   0  0  0  0  0  0  0  0  0  0  0  0
   27.5342   -7.8276    8.2895 C   0  0  0  0  0  0  0  0  0  0  0  0
   27.2735   -9.0065    9.0730 C   0  0  0  0  0  0  0  0  0  0  0  0
   29.0632   -5.4111    7.1622 O   0  0  0  0  0  0  0  0  0  0  0  0
   27.0596   -3.9286   11.1728 C   0  0  0  0  0  0  0  0  0  0  0  0
   27.5351   -2.6371   11.1239 C   0  0  0  0  0  0  0  0  0  0  0  0
   27.5048   -9.0661   10.4206 C   0  0  0  0  0  0  0  0  0  0  0  0
   28.6870   -3.0302    9.0745 C   0  0  0  0  0  0  0  0  0  0  0  0
   28.2230   -4.3232    9.1051 C   0  0  0  0  0  0  0  0  0  0  0  0
   28.3890   -5.4868    8.2015 C   0  0  0  0  0  0  0  0  0  0  0  0
   27.6582   -6.6051    8.7552 C   0  0  0  0  0  0  0  0  0  0  0  0
   26.8082  -11.3810   10.5727 C   0  0  0  0  0  0  0  0  0  0  0  0
   27.2784  -10.2161   11.1371 C   0  0  0  0  0  0  0  0  0  0  0  0
   27.5399  -13.2732   11.6838 O   0  0  0  0  0  0  0  0  0  0  0  0
   26.5682  -12.6148   11.2955 C   0  0  0  0  0  0  0  0  0  0  0  0
   24.1149  -12.1881   11.3097 C   0  0  0  0  0  0  0  0  0  0  0  0
   22.9773  -12.9673   10.7418 C   0  0  0  0  0  0  0  0  0  0  0  0
   21.6099  -14.9704   11.1114 C   0  0  0  0  0  0  0  0  0  0  0  0
   19.6684  -15.9640   11.3602 C   0  0  0  0  0  0  0  0  0  0  0  0
   18.4565  -16.4723   11.7598 C   0  0  0  0  0  0  0  0  0  0  0  0
   17.6884  -17.2825   10.9644 C   0  0  0  0  0  0  0  0  0  0  0  0
   18.1755  -17.5953    9.6919 C   0  0  0  0  0  0  0  0  0  0  0  0
   19.3932  -17.0752    9.3096 C   0  0  0  0  0  0  0  0  0  0  0  0
   20.1574  -16.2670   10.1062 C   0  0  0  0  0  0  0  0  0  0  0  0
   23.6271  -14.6056   12.5116 C   0  0  0  0  0  0  0  0  0  0  0  0
   25.0405  -14.3770   12.0594 C   0  0  0  0  0  0  0  0  0  0  0  0
   26.5710  -11.3221    9.2034 C   0  0  0  0  0  0  0  0  0  0  0  0
   26.7923  -10.1815    8.4704 C   0  0  0  0  0  0  0  0  0  0  0  0
   27.0869   -6.1007    9.9406 O   0  0  0  0  0  0  0  0  0  0  0  0
   27.4227   -4.7879   10.1242 C   0  0  0  0  0  0  0  0  0  0  0  0
   26.2094   -4.4209   12.2423 C   0  0  0  0  0  0  0  0  0  0  0  0
   25.7827   -3.6464   13.1226 O   0  0  0  0  0  0  0  0  0  0  0  0
   25.8604   -5.7841   12.2917 N   0  0  0  0  0  0  0  0  0  0  0  0
  1 19  1  0
 20  1  1  1
 30  1  1  1
 22  2  1  0
  2 28  1  0
  3 10  2  0
 12  3  1  0
 22  4  2  0
  4 23  1  0
 21  5  1  1
  5 22  1  0
 29  5  1  1
  7  6  1  0
  6 15  2  3
 11  7  2  0
  7 32  1  0
 14  8  2  0
  9 10  1  0
 34  9  2  0
  9 35  1  0
 17 11  1  0
 13 12  2  0
 14 13  1  0
 13 34  1  0
 15 14  1  0
 15 33  1  0
 16 17  2  0
 19 16  1  0
 16 31  1  0
 19 18  2  0
 20 21  1  0
 23 24  1  0
 23 28  2  0
 24 25  2  0
 25 26  1  0
 26 27  2  0
 27 28  1  0
 29 30  1  0
 31 32  2  0
 33 34  1  0
 35 36  2  0
 35 37  1  0
M  END
$$$$
