
     RDKit          3D

 37 42  0  0  0  0  0  0  0  0999 V2000
   25.3735  -13.3288   10.4786 N   0  0  0  0  0  0  0  0  0  0  0  0
   21.7769  -16.6102    8.5031 N   0  0  0  0  0  0  0  0  0  0  0  0
   28.1435   -2.0690   10.5710 C   0  0  0  0  0  0  0  0  0  0  0  0
   23.8018  -17.3299    8.2740 N   0  0  0  0  0  0  0  0  0  0  0  0
   23.6348  -15.1512    9.3540 N   0  0  0  0  0  0  0  0  0  0  0  0
   27.8870   -7.6551    8.3851 C   0  0  0  0  0  0  0  0  0  0  0  0
   27.5078   -8.8778    9.0433 C   0  0  0  0  0  0  0  0  0  0  0  0
   29.3692   -5.0933    7.5558 O   0  0  0  0  0  0  0  0  0  0  0  0
   26.8737   -3.9663   11.4028 C   0  0  0  0  0  0  0  0  0  0  0  0
   27.2697   -2.6492   11.4729 C   0  0  0  0  0  0  0  0  0  0  0  0
   27.2495   -8.9469   10.3855 C   0  0  0  0  0  0  0  0  0  0  0  0
   28.6491   -2.8546    9.5399 C   0  0  0  0  0  0  0  0  0  0  0  0
   28.2666   -4.1714    9.4528 C   0  0  0  0  0  0  0  0  0  0  0  0
   28.5977   -5.2684    8.5120 C   0  0  0  0  0  0  0  0  0  0  0  0
   27.8853   -6.4572    8.9251 C   0  0  0  0  0  0  0  0  0  0  0  0
   26.8272  -11.3311   10.3169 C   0  0  0  0  0  0  0  0  0  0  0  0
   26.9224  -10.1349   10.9928 C   0  0  0  0  0  0  0  0  0  0  0  0
   27.2131  -13.0296   11.8388 O   0  0  0  0  0  0  0  0  0  0  0  0
   26.4954  -12.6040   10.9265 C   0  0  0  0  0  0  0  0  0  0  0  0
   24.6313  -12.9406    9.3101 C   0  0  0  0  0  0  0  0  0  0  0  0
   24.2092  -14.1397    8.5306 C   0  0  0  0  0  0  0  0  0  0  0  0
   23.0695  -16.3017    8.7451 C   0  0  0  0  0  0  0  0  0  0  0  0
   23.0069  -18.2580    7.7514 C   0  0  0  0  0  0  0  0  0  0  0  0
   23.2357  -19.4721    7.1512 C   0  0  0  0  0  0  0  0  0  0  0  0
   22.2282  -20.2722    6.6778 C   0  0  0  0  0  0  0  0  0  0  0  0
   20.9143  -19.8164    6.8210 C   0  0  0  0  0  0  0  0  0  0  0  0
   20.7057  -18.5959    7.4262 C   0  0  0  0  0  0  0  0  0  0  0  0
   21.7137  -17.7999    7.8973 C   0  0  0  0  0  0  0  0  0  0  0  0
   23.6202  -15.0142   10.7949 C   0  0  0  0  0  0  0  0  0  0  0  0
   24.9595  -14.4937   11.2309 C   0  0  0  0  0  0  0  0  0  0  0  0
   27.0879  -11.2627    8.9522 C   0  0  0  0  0  0  0  0  0  0  0  0
   27.4173  -10.0842    8.3279 C   0  0  0  0  0  0  0  0  0  0  0  0
   27.1643   -6.0569   10.0679 O   0  0  0  0  0  0  0  0  0  0  0  0
   27.3963   -4.7402   10.3551 C   0  0  0  0  0  0  0  0  0  0  0  0
   25.9504   -4.5685   12.3483 C   0  0  0  0  0  0  0  0  0  0  0  0
   25.3739   -3.8697   13.2064 O   0  0  0  0  0  0  0  0  0  0  0  0
   25.7000   -5.9532   12.3015 N   0  0  0  0  0  0  0  0  0  0  0  0
  1 19  1  0
 20  1  1  1
 30  1  1  1
 22  2  1  0
  2 28  1  0
  3 10  2  0
 12  3  1  0
 22  4  2  0
  4 23  1  0
 21  5  1  1
  5 22  1  0
 29  5  1  1
  7  6  1  0
  6 15  2  3
 11  7  2  0
  7 32  1  0
 14  8  2  0
  9 10  1  0
 34  9  2  0
  9 35  1  0
 17 11  1  0
 13 12  2  0
 14 13  1  0
 13 34  1  0
 15 14  1  0
 15 33  1  0
 16 17  2  0
 19 16  1  0
 16 31  1  0
 19 18  2  0
 20 21  1  0
 23 24  1  0
 23 28  2  0
 24 25  2  0
 25 26  1  0
 26 27  2  0
 27 28  1  0
 29 30  1  0
 31 32  2  0
 33 34  1  0
 35 36  2  0
 35 37  1  0
M  END
$$$$
