
     RDKit          3D

 37 42  0  0  0  0  0  0  0  0999 V2000
   24.0988  -13.0964   10.9702 N   0  0  0  0  0  0  0  0  0  0  0  0
   22.9308  -16.5171    7.2778 N   0  0  0  0  0  0  0  0  0  0  0  0
   28.6052   -2.8882   10.9030 C   0  0  0  0  0  0  0  0  0  0  0  0
   25.0764  -16.5504    7.1842 N   0  0  0  0  0  0  0  0  0  0  0  0
   24.0723  -14.9949    8.8529 N   0  0  0  0  0  0  0  0  0  0  0  0
   23.8689   -6.6013   10.8338 C   0  0  0  0  0  0  0  0  0  0  0  0
   23.9364   -8.0010   11.1652 C   0  0  0  0  0  0  0  0  0  0  0  0
   24.1514   -3.5491   11.0440 O   0  0  0  0  0  0  0  0  0  0  0  0
   28.5875   -5.2885   10.7223 C   0  0  0  0  0  0  0  0  0  0  0  0
   29.2560   -4.0988   10.7830 C   0  0  0  0  0  0  0  0  0  0  0  0
   22.7622   -8.7582   11.2857 C   0  0  0  0  0  0  0  0  0  0  0  0
   27.2141   -2.8858   10.9641 C   0  0  0  0  0  0  0  0  0  0  0  0
   26.5288   -4.0952   10.9026 C   0  0  0  0  0  0  0  0  0  0  0  0
   25.0852   -4.3883   10.9432 C   0  0  0  0  0  0  0  0  0  0  0  0
   24.9469   -5.8271   10.8414 C   0  0  0  0  0  0  0  0  0  0  0  0
   24.0006  -10.7469   11.7289 C   0  0  0  0  0  0  0  0  0  0  0  0
   22.7951  -10.1018   11.5615 C   0  0  0  0  0  0  0  0  0  0  0  0
   24.2514  -12.5415   13.1954 O   0  0  0  0  0  0  0  0  0  0  0  0
   24.1233  -12.1503   12.0209 C   0  0  0  0  0  0  0  0  0  0  0  0
   24.8676  -12.8758    9.7636 C   0  0  0  0  0  0  0  0  0  0  0  0
   24.2243  -13.5923    8.5687 C   0  0  0  0  0  0  0  0  0  0  0  0
   24.0237  -15.9697    7.8256 C   0  0  0  0  0  0  0  0  0  0  0  0
   24.6387  -17.4305    6.2677 C   0  0  0  0  0  0  0  0  0  0  0  0
   25.2498  -18.2773    5.3578 C   0  0  0  0  0  0  0  0  0  0  0  0
   24.4937  -19.0792    4.5325 C   0  0  0  0  0  0  0  0  0  0  0  0
   23.1230  -19.0757    4.5734 C   0  0  0  0  0  0  0  0  0  0  0  0
   22.5246  -18.2161    5.4965 C   0  0  0  0  0  0  0  0  0  0  0  0
   23.2726  -17.4055    6.3312 C   0  0  0  0  0  0  0  0  0  0  0  0
   23.9697  -15.3761   10.2436 C   0  0  0  0  0  0  0  0  0  0  0  0
   23.2965  -14.3201   11.0744 C   0  0  0  0  0  0  0  0  0  0  0  0
   25.1500   -9.9990   11.6090 C   0  0  0  0  0  0  0  0  0  0  0  0
   25.1420   -8.6381   11.3297 C   0  0  0  0  0  0  0  0  0  0  0  0
   26.2672   -6.3224   10.7457 O   0  0  0  0  0  0  0  0  0  0  0  0
   27.1954   -5.2985   10.7824 C   0  0  0  0  0  0  0  0  0  0  0  0
   29.3246   -6.5286   10.5969 C   0  0  0  0  0  0  0  0  0  0  0  0
   30.6020   -6.5269   10.5384 O   0  0  0  0  0  0  0  0  0  0  0  0
   28.7090   -7.7936   10.5316 N   0  0  0  0  0  0  0  0  0  0  0  0
  1 19  1  0
 20  1  1  0
  1 30  1  0
 22  2  1  0
  2 28  1  0
  3 10  2  0
 12  3  1  0
 22  4  2  0
  4 23  1  0
 21  5  1  0
  5 22  1  0
  5 29  1  0
  7  6  1  0
  6 15  2  3
 11  7  2  0
  7 32  1  0
 14  8  2  0
  9 10  1  0
 34  9  2  0
  9 35  1  0
 17 11  1  0
 13 12  2  0
 14 13  1  0
 13 34  1  0
 15 14  1  0
 15 33  1  0
 16 17  2  0
 19 16  1  0
 16 31  1  0
 19 18  2  0
 20 21  1  0
 23 24  1  0
 23 28  2  0
 24 25  2  0
 25 26  1  0
 26 27  2  0
 27 28  1  0
 29 30  1  0
 31 32  2  0
 33 34  1  0
 35 36  2  0
 35 37  1  0
M  END
$$$$
