
     RDKit          3D

 37 42  0  0  0  0  0  0  0  0999 V2000
   26.2128  -12.6617    9.7206 N   0  0  0  0  0  0  0  0  0  0  0  0
   21.7146  -14.1181   11.1830 N   0  0  0  0  0  0  0  0  0  0  0  0
   28.1741   -2.1810   11.1969 C   0  0  0  0  0  0  0  0  0  0  0  0
   22.4562  -13.5983   13.1453 N   0  0  0  0  0  0  0  0  0  0  0  0
   24.0721  -13.2702   11.3503 N   0  0  0  0  0  0  0  0  0  0  0  0
   28.1896   -6.8615    7.4364 C   0  0  0  0  0  0  0  0  0  0  0  0
   27.9055   -8.2478    7.7001 C   0  0  0  0  0  0  0  0  0  0  0  0
   29.4439   -4.0561    7.3743 O   0  0  0  0  0  0  0  0  0  0  0  0
   27.0854   -4.3378   11.4554 C   0  0  0  0  0  0  0  0  0  0  0  0
   27.3922   -3.0737   11.9076 C   0  0  0  0  0  0  0  0  0  0  0  0
   26.8917   -8.9268    7.0804 C   0  0  0  0  0  0  0  0  0  0  0  0
   28.6772   -2.5787    9.9621 C   0  0  0  0  0  0  0  0  0  0  0  0
   28.3829   -3.8363    9.4934 C   0  0  0  0  0  0  0  0  0  0  0  0
   28.7386   -4.5714    8.2559 C   0  0  0  0  0  0  0  0  0  0  0  0
   28.1335   -5.8837    8.3124 C   0  0  0  0  0  0  0  0  0  0  0  0
   27.3348  -10.9710    8.3017 C   0  0  0  0  0  0  0  0  0  0  0  0
   26.6221  -10.2408    7.3768 C   0  0  0  0  0  0  0  0  0  0  0  0
   27.6157  -13.2449    7.9840 O   0  0  0  0  0  0  0  0  0  0  0  0
   27.0718  -12.3544    8.6471 C   0  0  0  0  0  0  0  0  0  0  0  0
   25.7241  -11.6519   10.6197 C   0  0  0  0  0  0  0  0  0  0  0  0
   24.3014  -11.9125   10.9827 C   0  0  0  0  0  0  0  0  0  0  0  0
   22.7959  -13.6484   11.8424 C   0  0  0  0  0  0  0  0  0  0  0  0
   21.2067  -14.0201   13.3103 C   0  0  0  0  0  0  0  0  0  0  0  0
   20.3936  -14.1663   14.4077 C   0  0  0  0  0  0  0  0  0  0  0  0
   19.1078  -14.6346   14.3267 C   0  0  0  0  0  0  0  0  0  0  0  0
   18.6178  -14.9737   13.0621 C   0  0  0  0  0  0  0  0  0  0  0  0
   19.4490  -14.8196   11.9736 C   0  0  0  0  0  0  0  0  0  0  0  0
   20.7320  -14.3521   12.0582 C   0  0  0  0  0  0  0  0  0  0  0  0
   25.1230  -14.2582   11.2299 C   0  0  0  0  0  0  0  0  0  0  0  0
   25.8239  -14.0414    9.9198 C   0  0  0  0  0  0  0  0  0  0  0  0
   28.3668  -10.2832    8.9317 C   0  0  0  0  0  0  0  0  0  0  0  0
   28.6504   -8.9691    8.6488 C   0  0  0  0  0  0  0  0  0  0  0  0
   27.4487   -5.9035    9.5439 O   0  0  0  0  0  0  0  0  0  0  0  0
   27.6037   -4.7181   10.2078 C   0  0  0  0  0  0  0  0  0  0  0  0
   26.2580   -5.2685   12.2025 C   0  0  0  0  0  0  0  0  0  0  0  0
   25.7127   -4.9192   13.2691 O   0  0  0  0  0  0  0  0  0  0  0  0
   26.0662   -6.5787   11.7242 N   0  0  0  0  0  0  0  0  0  0  0  0
  1 19  1  0
 20  1  1  1
 30  1  1  1
 22  2  1  0
  2 28  1  0
  3 10  2  0
 12  3  1  0
 22  4  2  0
  4 23  1  0
 21  5  1  1
  5 22  1  0
 29  5  1  1
  7  6  1  0
  6 15  2  3
 11  7  2  0
  7 32  1  0
 14  8  2  0
  9 10  1  0
 34  9  2  0
  9 35  1  0
 17 11  1  0
 13 12  2  0
 14 13  1  0
 13 34  1  0
 15 14  1  0
 15 33  1  0
 16 17  2  0
 19 16  1  0
 16 31  1  0
 19 18  2  0
 20 21  1  0
 23 24  1  0
 23 28  2  0
 24 25  2  0
 25 26  1  0
 26 27  2  0
 27 28  1  0
 29 30  1  0
 31 32  2  0
 33 34  1  0
 35 36  2  0
 35 37  1  0
M  END
$$$$
