
     RDKit          3D

 37 42  0  0  0  0  0  0  0  0999 V2000
   25.5774  -12.5291    8.7611 N   0  0  0  0  0  0  0  0  0  0  0  0
   22.1788  -14.4118   11.8264 N   0  0  0  0  0  0  0  0  0  0  0  0
   28.2927   -2.0825   10.8362 C   0  0  0  0  0  0  0  0  0  0  0  0
   23.8636  -14.6282   13.1626 N   0  0  0  0  0  0  0  0  0  0  0  0
   24.4186  -13.6186   11.0147 N   0  0  0  0  0  0  0  0  0  0  0  0
   28.2148   -6.7417    7.0501 C   0  0  0  0  0  0  0  0  0  0  0  0
   27.6116   -8.0395    7.2040 C   0  0  0  0  0  0  0  0  0  0  0  0
   29.7724   -4.0943    7.1615 O   0  0  0  0  0  0  0  0  0  0  0  0
   26.9485   -4.1036   10.9459 C   0  0  0  0  0  0  0  0  0  0  0  0
   27.3406   -2.8810   11.4439 C   0  0  0  0  0  0  0  0  0  0  0  0
   27.8372   -8.8364    8.2935 C   0  0  0  0  0  0  0  0  0  0  0  0
   28.8856   -2.5361    9.6620 C   0  0  0  0  0  0  0  0  0  0  0  0
   28.5084   -3.7537    9.1491 C   0  0  0  0  0  0  0  0  0  0  0  0
   28.9185   -4.5260    7.9518 C   0  0  0  0  0  0  0  0  0  0  0  0
   28.1686   -5.7623    7.9249 C   0  0  0  0  0  0  0  0  0  0  0  0
   26.4518  -10.6289    7.4362 C   0  0  0  0  0  0  0  0  0  0  0  0
   27.2744  -10.0852    8.3977 C   0  0  0  0  0  0  0  0  0  0  0  0
   25.5874  -12.5362    6.4537 O   0  0  0  0  0  0  0  0  0  0  0  0
   25.8499  -11.9460    7.5079 C   0  0  0  0  0  0  0  0  0  0  0  0
   25.5839  -11.7619    9.9769 C   0  0  0  0  0  0  0  0  0  0  0  0
   24.4843  -12.2010   10.8836 C   0  0  0  0  0  0  0  0  0  0  0  0
   23.5058  -14.1868   11.9409 C   0  0  0  0  0  0  0  0  0  0  0  0
   22.8056  -15.1162   13.8023 C   0  0  0  0  0  0  0  0  0  0  0  0
   22.6249  -15.6779   15.0426 C   0  0  0  0  0  0  0  0  0  0  0  0
   21.4073  -16.1197   15.4915 C   0  0  0  0  0  0  0  0  0  0  0  0
   20.3105  -15.9844   14.6352 C   0  0  0  0  0  0  0  0  0  0  0  0
   20.5125  -15.4180   13.3951 C   0  0  0  0  0  0  0  0  0  0  0  0
   21.7292  -14.9784   12.9503 C   0  0  0  0  0  0  0  0  0  0  0  0
   25.2709  -14.4767   10.2196 C   0  0  0  0  0  0  0  0  0  0  0  0
   25.2918  -13.9468    8.8148 C   0  0  0  0  0  0  0  0  0  0  0  0
   26.2200   -9.8199    6.3286 C   0  0  0  0  0  0  0  0  0  0  0  0
   26.7747   -8.5691    6.2067 C   0  0  0  0  0  0  0  0  0  0  0  0
   27.3503   -5.7032    9.0706 O   0  0  0  0  0  0  0  0  0  0  0  0
   27.5597   -4.5415    9.7609 C   0  0  0  0  0  0  0  0  0  0  0  0
   25.9430   -4.9347   11.5843 C   0  0  0  0  0  0  0  0  0  0  0  0
   25.2942   -4.5096   12.5616 O   0  0  0  0  0  0  0  0  0  0  0  0
   25.6941   -6.2333   11.1006 N   0  0  0  0  0  0  0  0  0  0  0  0
  1 19  1  0
 20  1  1  1
 30  1  1  1
 22  2  1  0
  2 28  1  0
  3 10  2  0
 12  3  1  0
 22  4  2  0
  4 23  1  0
 21  5  1  1
  5 22  1  0
 29  5  1  1
  7  6  1  0
  6 15  2  3
 11  7  2  0
  7 32  1  0
 14  8  2  0
  9 10  1  0
 34  9  2  0
  9 35  1  0
 17 11  1  0
 13 12  2  0
 14 13  1  0
 13 34  1  0
 15 14  1  0
 15 33  1  0
 16 17  2  0
 19 16  1  0
 16 31  1  0
 19 18  2  0
 20 21  1  0
 23 24  1  0
 23 28  2  0
 24 25  2  0
 25 26  1  0
 26 27  2  0
 27 28  1  0
 29 30  1  0
 31 32  2  0
 33 34  1  0
 35 36  2  0
 35 37  1  0
M  END
$$$$
