
     RDKit          3D

 37 42  0  0  0  0  0  0  0  0999 V2000
   24.7665  -12.8698   11.0505 N   0  0  0  0  0  0  0  0  0  0  0  0
   21.5596  -16.6935   12.6844 N   0  0  0  0  0  0  0  0  0  0  0  0
   28.2106   -1.6692    9.9023 C   0  0  0  0  0  0  0  0  0  0  0  0
   20.9295  -15.8021   10.8192 N   0  0  0  0  0  0  0  0  0  0  0  0
   22.9268  -14.7904   11.7825 N   0  0  0  0  0  0  0  0  0  0  0  0
   25.0791   -6.3562   11.9697 C   0  0  0  0  0  0  0  0  0  0  0  0
   25.1543   -7.7458   11.6019 C   0  0  0  0  0  0  0  0  0  0  0  0
   25.4100   -3.4346   12.8654 O   0  0  0  0  0  0  0  0  0  0  0  0
   28.1048   -3.9305    9.0198 C   0  0  0  0  0  0  0  0  0  0  0  0
   28.5714   -2.6354    8.9806 C   0  0  0  0  0  0  0  0  0  0  0  0
   25.0748   -8.7595   12.5179 C   0  0  0  0  0  0  0  0  0  0  0  0
   27.3315   -2.0217   10.9215 C   0  0  0  0  0  0  0  0  0  0  0  0
   26.8541   -3.3089   10.9778 C   0  0  0  0  0  0  0  0  0  0  0  0
   25.9302   -4.0135   11.8988 C   0  0  0  0  0  0  0  0  0  0  0  0
   25.7966   -5.3833   11.4546 C   0  0  0  0  0  0  0  0  0  0  0  0
   25.3763  -10.4794   10.8391 C   0  0  0  0  0  0  0  0  0  0  0  0
   25.1837  -10.0763   12.1418 C   0  0  0  0  0  0  0  0  0  0  0  0
   26.2746  -12.1171    9.4748 O   0  0  0  0  0  0  0  0  0  0  0  0
   25.5062  -11.8576   10.4080 C   0  0  0  0  0  0  0  0  0  0  0  0
   23.8736  -12.5865   12.1411 C   0  0  0  0  0  0  0  0  0  0  0  0
   22.6401  -13.4189   12.0430 C   0  0  0  0  0  0  0  0  0  0  0  0
   21.8656  -15.7325   11.7858 C   0  0  0  0  0  0  0  0  0  0  0  0
   20.0600  -16.7698   11.0912 C   0  0  0  0  0  0  0  0  0  0  0  0
   18.9427  -17.2467   10.4502 C   0  0  0  0  0  0  0  0  0  0  0  0
   18.1866  -18.2807   10.9384 C   0  0  0  0  0  0  0  0  0  0  0  0
   18.5853  -18.8648   12.1444 C   0  0  0  0  0  0  0  0  0  0  0  0
   19.7092  -18.3723   12.7718 C   0  0  0  0  0  0  0  0  0  0  0  0
   20.4613  -17.3399   12.2817 C   0  0  0  0  0  0  0  0  0  0  0  0
   24.2816  -15.2275   11.5202 C   0  0  0  0  0  0  0  0  0  0  0  0
   24.9249  -14.2345   10.5956 C   0  0  0  0  0  0  0  0  0  0  0  0
   25.4559   -9.4506    9.9063 C   0  0  0  0  0  0  0  0  0  0  0  0
   25.3501   -8.1284   10.2638 C   0  0  0  0  0  0  0  0  0  0  0  0
   26.6197   -5.4658   10.3137 O   0  0  0  0  0  0  0  0  0  0  0  0
   27.2189   -4.2640   10.0560 C   0  0  0  0  0  0  0  0  0  0  0  0
   28.4926   -4.9430    8.0535 C   0  0  0  0  0  0  0  0  0  0  0  0
   29.2368   -4.6543    7.0945 O   0  0  0  0  0  0  0  0  0  0  0  0
   28.0269   -6.2642    8.1947 N   0  0  0  0  0  0  0  0  0  0  0  0
  1 19  1  0
 20  1  1  1
 30  1  1  1
 22  2  1  0
  2 28  1  0
  3 10  2  0
 12  3  1  0
 22  4  2  0
  4 23  1  0
 21  5  1  1
  5 22  1  0
 29  5  1  1
  7  6  1  0
  6 15  2  3
 11  7  2  0
  7 32  1  0
 14  8  2  0
  9 10  1  0
 34  9  2  0
  9 35  1  0
 17 11  1  0
 13 12  2  0
 14 13  1  0
 13 34  1  0
 15 14  1  0
 15 33  1  0
 16 17  2  0
 19 16  1  0
 16 31  1  0
 19 18  2  0
 20 21  1  0
 23 24  1  0
 23 28  2  0
 24 25  2  0
 25 26  1  0
 26 27  2  0
 27 28  1  0
 29 30  1  0
 31 32  2  0
 33 34  1  0
 35 36  2  0
 35 37  1  0
M  END
$$$$
