
     RDKit          3D

 37 42  0  0  0  0  0  0  0  0999 V2000
   24.1873  -11.8825    8.0632 N   0  0  0  0  0  0  0  0  0  0  0  0
   23.0982  -13.7203   12.7673 N   0  0  0  0  0  0  0  0  0  0  0  0
   28.1556   -2.5381   11.4217 C   0  0  0  0  0  0  0  0  0  0  0  0
   23.3068  -15.5527   11.6662 N   0  0  0  0  0  0  0  0  0  0  0  0
   23.6065  -13.4477   10.3655 N   0  0  0  0  0  0  0  0  0  0  0  0
   28.1142   -6.7579    7.1303 C   0  0  0  0  0  0  0  0  0  0  0  0
   27.2055   -7.8745    7.1003 C   0  0  0  0  0  0  0  0  0  0  0  0
   30.0724   -4.5021    7.8494 O   0  0  0  0  0  0  0  0  0  0  0  0
   26.5095   -4.2479   11.0194 C   0  0  0  0  0  0  0  0  0  0  0  0
   26.9741   -3.1793   11.7325 C   0  0  0  0  0  0  0  0  0  0  0  0
   25.9219   -7.7588    7.6531 C   0  0  0  0  0  0  0  0  0  0  0  0
   28.8977   -3.0025   10.3390 C   0  0  0  0  0  0  0  0  0  0  0  0
   28.4284   -4.0906    9.6096 C   0  0  0  0  0  0  0  0  0  0  0  0
   28.9950   -4.7826    8.4384 C   0  0  0  0  0  0  0  0  0  0  0  0
   28.0759   -5.8496    8.0973 C   0  0  0  0  0  0  0  0  0  0  0  0
   25.3597   -9.9830    7.0037 C   0  0  0  0  0  0  0  0  0  0  0  0
   25.0197   -8.7913    7.6051 C   0  0  0  0  0  0  0  0  0  0  0  0
   23.9581  -11.4235    5.8228 O   0  0  0  0  0  0  0  0  0  0  0  0
   24.4751  -11.1138    6.9117 C   0  0  0  0  0  0  0  0  0  0  0  0
   23.2262  -12.9634    8.0048 C   0  0  0  0  0  0  0  0  0  0  0  0
   22.5874  -13.1999    9.3800 C   0  0  0  0  0  0  0  0  0  0  0  0
   23.3500  -14.1965   11.5409 C   0  0  0  0  0  0  0  0  0  0  0  0
   23.0357  -15.8972   12.9366 C   0  0  0  0  0  0  0  0  0  0  0  0
   22.8793  -17.0972   13.6102 C   0  0  0  0  0  0  0  0  0  0  0  0
   22.5961  -17.1105   14.9577 C   0  0  0  0  0  0  0  0  0  0  0  0
   22.4582  -15.9544   15.6821 C   0  0  0  0  0  0  0  0  0  0  0  0
   22.6191  -14.7546   14.9866 C   0  0  0  0  0  0  0  0  0  0  0  0
   22.9038  -14.7275   13.6333 C   0  0  0  0  0  0  0  0  0  0  0  0
   24.9178  -12.8967   10.1075 C   0  0  0  0  0  0  0  0  0  0  0  0
   24.8513  -11.6054    9.3416 C   0  0  0  0  0  0  0  0  0  0  0  0
   26.6207  -10.0909    6.4622 C   0  0  0  0  0  0  0  0  0  0  0  0
   27.5508   -9.0596    6.4980 C   0  0  0  0  0  0  0  0  0  0  0  0
   27.0316   -5.7591    9.0454 O   0  0  0  0  0  0  0  0  0  0  0  0
   27.2437   -4.7214    9.9339 C   0  0  0  0  0  0  0  0  0  0  0  0
   25.2615   -4.8806   11.3922 C   0  0  0  0  0  0  0  0  0  0  0  0
   24.5436   -4.4044   12.3371 O   0  0  0  0  0  0  0  0  0  0  0  0
   24.7582   -6.0348   10.7612 N   0  0  0  0  0  0  0  0  0  0  0  0
  1 19  1  0
 20  1  1  0
  1 30  1  0
 22  2  1  0
  2 28  1  0
  3 10  2  0
 12  3  1  0
 22  4  2  0
  4 23  1  0
 21  5  1  0
  5 22  1  0
  5 29  1  0
  7  6  1  0
  6 15  2  3
 11  7  2  0
  7 32  1  0
 14  8  2  0
  9 10  1  0
 34  9  2  0
  9 35  1  0
 17 11  1  0
 13 12  2  0
 14 13  1  0
 13 34  1  0
 15 14  1  0
 15 33  1  0
 16 17  2  0
 19 16  1  0
 16 31  1  0
 19 18  2  0
 20 21  1  0
 23 24  1  0
 23 28  2  0
 24 25  2  0
 25 26  1  0
 26 27  2  0
 27 28  1  0
 29 30  1  0
 31 32  2  0
 33 34  1  0
 35 36  2  0
 35 37  1  0
M  END
$$$$
