
     RDKit          3D

 37 42  0  0  0  0  0  0  0  0999 V2000
   25.9381  -12.9347   10.6990 N   0  0  0  0  0  0  0  0  0  0  0  0
   22.9158  -15.8977    7.7462 N   0  0  0  0  0  0  0  0  0  0  0  0
   28.3205   -1.7876   10.7764 C   0  0  0  0  0  0  0  0  0  0  0  0
   22.5806  -16.8007    9.6661 N   0  0  0  0  0  0  0  0  0  0  0  0
   24.1566  -14.8703    9.6186 N   0  0  0  0  0  0  0  0  0  0  0  0
   28.1885   -7.2898    8.3407 C   0  0  0  0  0  0  0  0  0  0  0  0
   27.8172   -8.4819    9.0581 C   0  0  0  0  0  0  0  0  0  0  0  0
   29.7254   -4.7186    7.6573 O   0  0  0  0  0  0  0  0  0  0  0  0
   27.0357   -3.7014   11.4704 C   0  0  0  0  0  0  0  0  0  0  0  0
   27.4122   -2.3965   11.6177 C   0  0  0  0  0  0  0  0  0  0  0  0
   28.4630   -9.6983    8.7938 C   0  0  0  0  0  0  0  0  0  0  0  0
   28.8708   -2.5370    9.7399 C   0  0  0  0  0  0  0  0  0  0  0  0
   28.4904   -3.8666    9.5859 C   0  0  0  0  0  0  0  0  0  0  0  0
   28.9028   -4.8789    8.5975 C   0  0  0  0  0  0  0  0  0  0  0  0
   28.1823   -6.0947    8.9178 C   0  0  0  0  0  0  0  0  0  0  0  0
   27.1984  -10.8213   10.4744 C   0  0  0  0  0  0  0  0  0  0  0  0
   28.1592  -10.8422    9.4876 C   0  0  0  0  0  0  0  0  0  0  0  0
   27.2627  -12.1354   12.3988 O   0  0  0  0  0  0  0  0  0  0  0  0
   26.8197  -11.9744   11.2470 C   0  0  0  0  0  0  0  0  0  0  0  0
   25.6222  -14.1443   11.4289 C   0  0  0  0  0  0  0  0  0  0  0  0
   25.2451  -15.2788   10.4667 C   0  0  0  0  0  0  0  0  0  0  0  0
   23.2652  -15.8052    9.0360 C   0  0  0  0  0  0  0  0  0  0  0  0
   21.8316  -17.4847    8.7844 C   0  0  0  0  0  0  0  0  0  0  0  0
   20.9646  -18.5614    8.8686 C   0  0  0  0  0  0  0  0  0  0  0  0
   20.3328  -19.0397    7.7424 C   0  0  0  0  0  0  0  0  0  0  0  0
   20.5305  -18.4804    6.5061 C   0  0  0  0  0  0  0  0  0  0  0  0
   21.4076  -17.3962    6.4404 C   0  0  0  0  0  0  0  0  0  0  0  0
   22.0485  -16.9061    7.5640 C   0  0  0  0  0  0  0  0  0  0  0  0
   24.0054  -13.4524    9.3806 C   0  0  0  0  0  0  0  0  0  0  0  0
   25.3243  -12.7319    9.3822 C   0  0  0  0  0  0  0  0  0  0  0  0
   26.5681   -9.6246   10.7301 C   0  0  0  0  0  0  0  0  0  0  0  0
   26.8589   -8.4535   10.0416 C   0  0  0  0  0  0  0  0  0  0  0  0
   27.3950   -5.7746   10.0471 O   0  0  0  0  0  0  0  0  0  0  0  0
   27.5798   -4.4612   10.4367 C   0  0  0  0  0  0  0  0  0  0  0  0
   26.0770   -4.2868   12.3841 C   0  0  0  0  0  0  0  0  0  0  0  0
   25.5226   -3.5781   13.2927 O   0  0  0  0  0  0  0  0  0  0  0  0
   25.6934   -5.6413   12.3430 N   0  0  0  0  0  0  0  0  0  0  0  0
  1 19  1  0
 20  1  1  0
  1 30  1  0
 22  2  1  0
  2 28  1  0
  3 10  2  0
 12  3  1  0
 22  4  2  0
  4 23  1  0
 21  5  1  0
  5 22  1  0
  5 29  1  0
  7  6  1  0
  6 15  2  3
 11  7  2  0
  7 32  1  0
 14  8  2  0
  9 10  1  0
 34  9  2  0
  9 35  1  0
 17 11  1  0
 13 12  2  0
 14 13  1  0
 13 34  1  0
 15 14  1  0
 15 33  1  0
 16 17  2  0
 19 16  1  0
 16 31  1  0
 19 18  2  0
 20 21  1  0
 23 24  1  0
 23 28  2  0
 24 25  2  0
 25 26  1  0
 26 27  2  0
 27 28  1  0
 29 30  1  0
 31 32  2  0
 33 34  1  0
 35 36  2  0
 35 37  1  0
M  END
$$$$
