
     RDKit          3D

 37 42  0  0  0  0  0  0  0  0999 V2000
   26.0152  -12.8900    9.8481 N   0  0  0  0  0  0  0  0  0  0  0  0
   21.5241  -14.9269   11.4868 N   0  0  0  0  0  0  0  0  0  0  0  0
   28.0317   -2.0638   10.5093 C   0  0  0  0  0  0  0  0  0  0  0  0
   21.2001  -14.7598    9.3701 N   0  0  0  0  0  0  0  0  0  0  0  0
   23.4291  -14.0186   10.2035 N   0  0  0  0  0  0  0  0  0  0  0  0
   27.8885   -7.1854    7.3514 C   0  0  0  0  0  0  0  0  0  0  0  0
   27.7094   -8.4889    7.9365 C   0  0  0  0  0  0  0  0  0  0  0  0
   29.2396   -4.4642    6.8938 O   0  0  0  0  0  0  0  0  0  0  0  0
   26.9044   -4.1220   11.0457 C   0  0  0  0  0  0  0  0  0  0  0  0
   27.2385   -2.8301   11.3382 C   0  0  0  0  0  0  0  0  0  0  0  0
   27.9655   -9.6446    7.1846 C   0  0  0  0  0  0  0  0  0  0  0  0
   28.5066   -2.6346    9.3315 C   0  0  0  0  0  0  0  0  0  0  0  0
   28.1690   -3.9502    9.0292 C   0  0  0  0  0  0  0  0  0  0  0  0
   28.5227   -4.7953    7.8750 C   0  0  0  0  0  0  0  0  0  0  0  0
   27.8897   -6.0813    8.0879 C   0  0  0  0  0  0  0  0  0  0  0  0
   27.4582  -11.0546    9.0392 C   0  0  0  0  0  0  0  0  0  0  0  0
   27.8422  -10.8994    7.7255 C   0  0  0  0  0  0  0  0  0  0  0  0
   28.2993  -12.9547   10.0958 O   0  0  0  0  0  0  0  0  0  0  0  0
   27.3040  -12.3324    9.6821 C   0  0  0  0  0  0  0  0  0  0  0  0
   25.8379  -14.1294   10.5747 C   0  0  0  0  0  0  0  0  0  0  0  0
   24.5838  -14.8702   10.0913 C   0  0  0  0  0  0  0  0  0  0  0  0
   22.1204  -14.5414   10.3510 C   0  0  0  0  0  0  0  0  0  0  0  0
   20.0700  -15.2659    9.8924 C   0  0  0  0  0  0  0  0  0  0  0  0
   18.8485  -15.6640    9.3750 C   0  0  0  0  0  0  0  0  0  0  0  0
   17.8652  -16.1559   10.2041 C   0  0  0  0  0  0  0  0  0  0  0  0
   18.0481  -16.2721   11.5581 C   0  0  0  0  0  0  0  0  0  0  0  0
   19.2853  -15.8662   12.0617 C   0  0  0  0  0  0  0  0  0  0  0  0
   20.2813  -15.3703   11.2398 C   0  0  0  0  0  0  0  0  0  0  0  0
   23.6581  -12.5919   10.1594 C   0  0  0  0  0  0  0  0  0  0  0  0
   24.8295  -12.2307    9.2900 C   0  0  0  0  0  0  0  0  0  0  0  0
   27.2087   -9.9169    9.7728 C   0  0  0  0  0  0  0  0  0  0  0  0
   27.3273   -8.6362    9.2475 C   0  0  0  0  0  0  0  0  0  0  0  0
   27.2065   -5.9609    9.3193 O   0  0  0  0  0  0  0  0  0  0  0  0
   27.3739   -4.7039    9.8697 C   0  0  0  0  0  0  0  0  0  0  0  0
   26.0673   -4.8777   11.9540 C   0  0  0  0  0  0  0  0  0  0  0  0
   25.5661   -4.3264   12.9932 O   0  0  0  0  0  0  0  0  0  0  0  0
   25.7509   -6.2373   11.7676 N   0  0  0  0  0  0  0  0  0  0  0  0
  1 19  1  0
 20  1  1  0
  1 30  1  0
 22  2  1  0
  2 28  1  0
  3 10  2  0
 12  3  1  0
 22  4  2  0
  4 23  1  0
 21  5  1  0
  5 22  1  0
  5 29  1  0
  7  6  1  0
  6 15  2  3
 11  7  2  0
  7 32  1  0
 14  8  2  0
  9 10  1  0
 34  9  2  0
  9 35  1  0
 17 11  1  0
 13 12  2  0
 14 13  1  0
 13 34  1  0
 15 14  1  0
 15 33  1  0
 16 17  2  0
 19 16  1  0
 16 31  1  0
 19 18  2  0
 20 21  1  0
 23 24  1  0
 23 28  2  0
 24 25  2  0
 25 26  1  0
 26 27  2  0
 27 28  1  0
 29 30  1  0
 31 32  2  0
 33 34  1  0
 35 36  2  0
 35 37  1  0
M  END
$$$$
