
     RDKit          3D

 37 42  0  0  0  0  0  0  0  0999 V2000
   23.8720  -12.1611    8.4934 N   0  0  0  0  0  0  0  0  0  0  0  0
   23.3200  -14.8413   12.9051 N   0  0  0  0  0  0  0  0  0  0  0  0
   28.2898   -2.4766   10.8016 C   0  0  0  0  0  0  0  0  0  0  0  0
   24.0692  -16.3434   11.5649 N   0  0  0  0  0  0  0  0  0  0  0  0
   23.8040  -14.0546   10.6142 N   0  0  0  0  0  0  0  0  0  0  0  0
   28.0680   -7.3474    7.2732 C   0  0  0  0  0  0  0  0  0  0  0  0
   27.0008   -8.3140    7.2914 C   0  0  0  0  0  0  0  0  0  0  0  0
   30.0664   -5.0292    7.5427 O   0  0  0  0  0  0  0  0  0  0  0  0
   26.6183   -4.2079   10.7434 C   0  0  0  0  0  0  0  0  0  0  0  0
   27.1153   -3.0422   11.2536 C   0  0  0  0  0  0  0  0  0  0  0  0
   27.1951   -9.5945    6.7537 C   0  0  0  0  0  0  0  0  0  0  0  0
   28.9903   -3.1233    9.7868 C   0  0  0  0  0  0  0  0  0  0  0  0
   28.4880   -4.3109    9.2640 C   0  0  0  0  0  0  0  0  0  0  0  0
   29.0083   -5.1944    8.2056 C   0  0  0  0  0  0  0  0  0  0  0  0
   28.0700   -6.2912    8.0769 C   0  0  0  0  0  0  0  0  0  0  0  0
   24.9918  -10.2684    7.3669 C   0  0  0  0  0  0  0  0  0  0  0  0
   26.2112  -10.5499    6.7914 C   0  0  0  0  0  0  0  0  0  0  0  0
   22.9970  -11.1984    6.5986 O   0  0  0  0  0  0  0  0  0  0  0  0
   23.9079  -11.2111    7.4466 C   0  0  0  0  0  0  0  0  0  0  0  0
   24.7651  -12.0415    9.6263 C   0  0  0  0  0  0  0  0  0  0  0  0
   25.0413  -13.4161   10.2503 C   0  0  0  0  0  0  0  0  0  0  0  0
   23.7329  -15.0253   11.6441 C   0  0  0  0  0  0  0  0  0  0  0  0
   23.8674  -16.9500   12.7470 C   0  0  0  0  0  0  0  0  0  0  0  0
   24.0346  -18.2399   13.2231 C   0  0  0  0  0  0  0  0  0  0  0  0
   23.7256  -18.5483   14.5291 C   0  0  0  0  0  0  0  0  0  0  0  0
   23.2460  -17.6071   15.4035 C   0  0  0  0  0  0  0  0  0  0  0  0
   23.0840  -16.3127   14.9061 C   0  0  0  0  0  0  0  0  0  0  0  0
   23.3906  -15.9898   13.5964 C   0  0  0  0  0  0  0  0  0  0  0  0
   22.6218  -13.6632    9.8799 C   0  0  0  0  0  0  0  0  0  0  0  0
   22.9337  -13.2882    8.4584 C   0  0  0  0  0  0  0  0  0  0  0  0
   24.8067   -9.0101    7.8936 C   0  0  0  0  0  0  0  0  0  0  0  0
   25.7877   -8.0268    7.8678 C   0  0  0  0  0  0  0  0  0  0  0  0
   27.0602   -6.0315    9.0310 O   0  0  0  0  0  0  0  0  0  0  0  0
   27.3107   -4.8640    9.7276 C   0  0  0  0  0  0  0  0  0  0  0  0
   25.3796   -4.7541   11.2573 C   0  0  0  0  0  0  0  0  0  0  0  0
   24.7140   -4.1333   12.1554 O   0  0  0  0  0  0  0  0  0  0  0  0
   24.8297   -5.9748   10.8200 N   0  0  0  0  0  0  0  0  0  0  0  0
  1 19  1  0
 20  1  1  0
  1 30  1  0
 22  2  1  0
  2 28  1  0
  3 10  2  0
 12  3  1  0
 22  4  2  0
  4 23  1  0
 21  5  1  0
  5 22  1  0
  5 29  1  0
  7  6  1  0
  6 15  2  3
 11  7  2  0
  7 32  1  0
 14  8  2  0
  9 10  1  0
 34  9  2  0
  9 35  1  0
 17 11  1  0
 13 12  2  0
 14 13  1  0
 13 34  1  0
 15 14  1  0
 15 33  1  0
 16 17  2  0
 19 16  1  0
 16 31  1  0
 19 18  2  0
 20 21  1  0
 23 24  1  0
 23 28  2  0
 24 25  2  0
 25 26  1  0
 26 27  2  0
 27 28  1  0
 29 30  1  0
 31 32  2  0
 33 34  1  0
 35 36  2  0
 35 37  1  0
M  END
$$$$
