
     RDKit          3D

 37 42  0  0  0  0  0  0  0  0999 V2000
   24.5230  -12.6323    9.9212 N   0  0  0  0  0  0  0  0  0  0  0  0
   21.9797  -17.0697   11.1288 N   0  0  0  0  0  0  0  0  0  0  0  0
   28.5586   -1.6015   10.8145 C   0  0  0  0  0  0  0  0  0  0  0  0
   23.9592  -17.4112   10.3316 N   0  0  0  0  0  0  0  0  0  0  0  0
   23.3426  -15.0588   10.4939 N   0  0  0  0  0  0  0  0  0  0  0  0
   24.8483   -6.2646   11.5475 C   0  0  0  0  0  0  0  0  0  0  0  0
   24.9350   -7.5989   11.0145 C   0  0  0  0  0  0  0  0  0  0  0  0
   25.2470   -3.5904   13.0094 O   0  0  0  0  0  0  0  0  0  0  0  0
   28.4256   -3.6522    9.5180 C   0  0  0  0  0  0  0  0  0  0  0  0
   28.9808   -2.4200    9.7824 C   0  0  0  0  0  0  0  0  0  0  0  0
   23.9824   -8.5532   11.2487 C   0  0  0  0  0  0  0  0  0  0  0  0
   27.5201   -2.0439   11.6280 C   0  0  0  0  0  0  0  0  0  0  0  0
   26.9524   -3.2704   11.3804 C   0  0  0  0  0  0  0  0  0  0  0  0
   25.8597   -4.0363   12.0265 C   0  0  0  0  0  0  0  0  0  0  0  0
   25.6974   -5.2878   11.3203 C   0  0  0  0  0  0  0  0  0  0  0  0
   25.1799  -10.2463    9.9972 C   0  0  0  0  0  0  0  0  0  0  0  0
   24.1083   -9.8288   10.7548 C   0  0  0  0  0  0  0  0  0  0  0  0
   26.2317  -11.7824    8.6244 O   0  0  0  0  0  0  0  0  0  0  0  0
   25.3507  -11.5858    9.4693 C   0  0  0  0  0  0  0  0  0  0  0  0
   23.2926  -12.9717    9.2595 C   0  0  0  0  0  0  0  0  0  0  0  0
   23.1008  -14.4502    9.2281 C   0  0  0  0  0  0  0  0  0  0  0  0
   23.0802  -16.4437   10.6580 C   0  0  0  0  0  0  0  0  0  0  0  0
   23.4391  -18.6080   10.5842 C   0  0  0  0  0  0  0  0  0  0  0  0
   23.9030  -19.8924   10.4367 C   0  0  0  0  0  0  0  0  0  0  0  0
   23.1635  -20.9962   10.7743 C   0  0  0  0  0  0  0  0  0  0  0  0
   21.8815  -20.7868   11.2911 C   0  0  0  0  0  0  0  0  0  0  0  0
   21.4347  -19.4907   11.4318 C   0  0  0  0  0  0  0  0  0  0  0  0
   22.1753  -18.3913   11.0934 C   0  0  0  0  0  0  0  0  0  0  0  0
   23.8463  -14.2811   11.6059 C   0  0  0  0  0  0  0  0  0  0  0  0
   24.9299  -13.3764   11.0940 C   0  0  0  0  0  0  0  0  0  0  0  0
   26.1486   -9.2774    9.7567 C   0  0  0  0  0  0  0  0  0  0  0  0
   26.0401   -7.9972   10.2430 C   0  0  0  0  0  0  0  0  0  0  0  0
   26.6682   -5.2451   10.2997 O   0  0  0  0  0  0  0  0  0  0  0  0
   27.3793   -4.0783   10.3508 C   0  0  0  0  0  0  0  0  0  0  0  0
   28.8776   -4.5106    8.4374 C   0  0  0  0  0  0  0  0  0  0  0  0
   29.7895   -4.1401    7.6704 O   0  0  0  0  0  0  0  0  0  0  0  0
   28.2847   -5.7735    8.2480 N   0  0  0  0  0  0  0  0  0  0  0  0
  1 19  1  0
 20  1  1  1
 30  1  1  1
 22  2  1  0
  2 28  1  0
  3 10  2  0
 12  3  1  0
 22  4  2  0
  4 23  1  0
 21  5  1  1
  5 22  1  0
 29  5  1  1
  7  6  1  0
  6 15  2  3
 11  7  2  0
  7 32  1  0
 14  8  2  0
  9 10  1  0
 34  9  2  0
  9 35  1  0
 17 11  1  0
 13 12  2  0
 14 13  1  0
 13 34  1  0
 15 14  1  0
 15 33  1  0
 16 17  2  0
 19 16  1  0
 16 31  1  0
 19 18  2  0
 20 21  1  0
 23 24  1  0
 23 28  2  0
 24 25  2  0
 25 26  1  0
 26 27  2  0
 27 28  1  0
 29 30  1  0
 31 32  2  0
 33 34  1  0
 35 36  2  0
 35 37  1  0
M  END
$$$$
