
     RDKit          3D

 37 42  0  0  0  0  0  0  0  0999 V2000
   24.9946  -13.5577   11.0387 N   0  0  0  0  0  0  0  0  0  0  0  0
   24.2907  -15.9196    6.7474 N   0  0  0  0  0  0  0  0  0  0  0  0
   28.2523   -2.3091   10.9120 C   0  0  0  0  0  0  0  0  0  0  0  0
   22.5553  -16.7199    7.7566 N   0  0  0  0  0  0  0  0  0  0  0  0
   23.8909  -15.2048    9.1209 N   0  0  0  0  0  0  0  0  0  0  0  0
   27.9202   -8.0166    9.0782 C   0  0  0  0  0  0  0  0  0  0  0  0
   27.3329   -9.1570    9.7312 C   0  0  0  0  0  0  0  0  0  0  0  0
   29.5463   -5.5670    8.1822 O   0  0  0  0  0  0  0  0  0  0  0  0
   26.8630   -4.1030   11.7813 C   0  0  0  0  0  0  0  0  0  0  0  0
   27.3034   -2.7982   11.7916 C   0  0  0  0  0  0  0  0  0  0  0  0
   26.0960   -9.1199   10.3158 C   0  0  0  0  0  0  0  0  0  0  0  0
   28.7905   -3.1782    9.9680 C   0  0  0  0  0  0  0  0  0  0  0  0
   28.3645   -4.4843    9.9415 C   0  0  0  0  0  0  0  0  0  0  0  0
   28.7113   -5.6520    9.0964 C   0  0  0  0  0  0  0  0  0  0  0  0
   27.9304   -6.7860    9.5388 C   0  0  0  0  0  0  0  0  0  0  0  0
   26.2375  -11.4166   11.0722 C   0  0  0  0  0  0  0  0  0  0  0  0
   25.5747  -10.2145   10.9617 C   0  0  0  0  0  0  0  0  0  0  0  0
   25.9367  -12.7094   12.9665 O   0  0  0  0  0  0  0  0  0  0  0  0
   25.7231  -12.5877   11.7549 C   0  0  0  0  0  0  0  0  0  0  0  0
   23.6176  -13.3624   10.6743 C   0  0  0  0  0  0  0  0  0  0  0  0
   23.3522  -13.8987    9.3084 C   0  0  0  0  0  0  0  0  0  0  0  0
   23.6139  -15.9018    7.9162 C   0  0  0  0  0  0  0  0  0  0  0  0
   22.5572  -17.2396    6.5333 C   0  0  0  0  0  0  0  0  0  0  0  0
   21.7259  -18.1114    5.8734 C   0  0  0  0  0  0  0  0  0  0  0  0
   21.9400  -18.5123    4.5801 C   0  0  0  0  0  0  0  0  0  0  0  0
   23.0597  -18.0006    3.9176 C   0  0  0  0  0  0  0  0  0  0  0  0
   23.8812  -17.1270    4.5968 C   0  0  0  0  0  0  0  0  0  0  0  0
   23.6646  -16.7292    5.8878 C   0  0  0  0  0  0  0  0  0  0  0  0
   24.7091  -15.8227   10.1426 C   0  0  0  0  0  0  0  0  0  0  0  0
   25.6610  -14.7888   10.6712 C   0  0  0  0  0  0  0  0  0  0  0  0
   27.4943  -11.4570   10.4773 C   0  0  0  0  0  0  0  0  0  0  0  0
   28.0321  -10.3723    9.8280 C   0  0  0  0  0  0  0  0  0  0  0  0
   27.1562   -6.2865   10.6050 O   0  0  0  0  0  0  0  0  0  0  0  0
   27.4195   -4.9621   10.8211 C   0  0  0  0  0  0  0  0  0  0  0  0
   25.8612   -4.6095   12.7026 C   0  0  0  0  0  0  0  0  0  0  0  0
   25.3394   -3.8572   13.5505 O   0  0  0  0  0  0  0  0  0  0  0  0
   25.4715   -5.9611   12.6437 N   0  0  0  0  0  0  0  0  0  0  0  0
  1 19  1  0
 20  1  1  1
 30  1  1  1
 22  2  1  0
  2 28  1  0
  3 10  2  0
 12  3  1  0
 22  4  2  0
  4 23  1  0
 21  5  1  1
  5 22  1  0
 29  5  1  1
  7  6  1  0
  6 15  2  3
 11  7  2  0
  7 32  1  0
 14  8  2  0
  9 10  1  0
 34  9  2  0
  9 35  1  0
 17 11  1  0
 13 12  2  0
 14 13  1  0
 13 34  1  0
 15 14  1  0
 15 33  1  0
 16 17  2  0
 19 16  1  0
 16 31  1  0
 19 18  2  0
 20 21  1  0
 23 24  1  0
 23 28  2  0
 24 25  2  0
 25 26  1  0
 26 27  2  0
 27 28  1  0
 29 30  1  0
 31 32  2  0
 33 34  1  0
 35 36  2  0
 35 37  1  0
M  END
$$$$
