
     RDKit          3D

 37 42  0  0  0  0  0  0  0  0999 V2000
   24.1675  -11.4138    7.6808 N   0  0  0  0  0  0  0  0  0  0  0  0
   23.5337  -16.2607    9.4561 N   0  0  0  0  0  0  0  0  0  0  0  0
   28.4730   -1.9209   11.4336 C   0  0  0  0  0  0  0  0  0  0  0  0
   24.9323  -15.4345   10.8614 N   0  0  0  0  0  0  0  0  0  0  0  0
   24.1563  -13.9046    9.0532 N   0  0  0  0  0  0  0  0  0  0  0  0
   28.4748   -6.5218    7.5534 C   0  0  0  0  0  0  0  0  0  0  0  0
   27.4007   -7.4719    7.4223 C   0  0  0  0  0  0  0  0  0  0  0  0
   30.3881   -4.1654    8.0296 O   0  0  0  0  0  0  0  0  0  0  0  0
   26.8629   -3.6973   11.2174 C   0  0  0  0  0  0  0  0  0  0  0  0
   27.3115   -2.5568   11.8209 C   0  0  0  0  0  0  0  0  0  0  0  0
   26.3999   -7.5497    8.4016 C   0  0  0  0  0  0  0  0  0  0  0  0
   29.2114   -2.4673   10.3872 C   0  0  0  0  0  0  0  0  0  0  0  0
   28.7585   -3.6288    9.7694 C   0  0  0  0  0  0  0  0  0  0  0  0
   29.3257   -4.4140    8.6588 C   0  0  0  0  0  0  0  0  0  0  0  0
   28.4278   -5.5285    8.4325 C   0  0  0  0  0  0  0  0  0  0  0  0
   25.2393   -9.2426    7.1883 C   0  0  0  0  0  0  0  0  0  0  0  0
   25.3428   -8.4167    8.2857 C   0  0  0  0  0  0  0  0  0  0  0  0
   23.2307   -9.9130    6.2136 O   0  0  0  0  0  0  0  0  0  0  0  0
   24.1657  -10.1797    6.9905 C   0  0  0  0  0  0  0  0  0  0  0  0
   22.9602  -12.2072    7.7723 C   0  0  0  0  0  0  0  0  0  0  0  0
   22.9763  -13.0809    9.0339 C   0  0  0  0  0  0  0  0  0  0  0  0
   24.2016  -15.1375    9.7502 C   0  0  0  0  0  0  0  0  0  0  0  0
   24.7168  -16.7066   11.2374 C   0  0  0  0  0  0  0  0  0  0  0  0
   25.1810  -17.5131   12.2632 C   0  0  0  0  0  0  0  0  0  0  0  0
   24.7522  -18.8168   12.3759 C   0  0  0  0  0  0  0  0  0  0  0  0
   23.8602  -19.3668   11.4915 C   0  0  0  0  0  0  0  0  0  0  0  0
   23.4032  -18.5392   10.4642 C   0  0  0  0  0  0  0  0  0  0  0  0
   23.8260  -17.2281   10.3398 C   0  0  0  0  0  0  0  0  0  0  0  0
   25.3076  -13.4204    8.3254 C   0  0  0  0  0  0  0  0  0  0  0  0
   25.3870  -11.9196    8.3203 C   0  0  0  0  0  0  0  0  0  0  0  0
   26.2241   -9.1617    6.2299 C   0  0  0  0  0  0  0  0  0  0  0  0
   27.3032   -8.2917    6.3248 C   0  0  0  0  0  0  0  0  0  0  0  0
   27.3945   -5.3736    9.3842 O   0  0  0  0  0  0  0  0  0  0  0  0
   27.5936   -4.2532   10.1692 C   0  0  0  0  0  0  0  0  0  0  0  0
   25.6355   -4.3205   11.6667 C   0  0  0  0  0  0  0  0  0  0  0  0
   24.9498   -3.8055   12.6151 O   0  0  0  0  0  0  0  0  0  0  0  0
   25.1187   -5.5064   11.1097 N   0  0  0  0  0  0  0  0  0  0  0  0
  1 19  1  0
 20  1  1  0
  1 30  1  0
 22  2  1  0
  2 28  1  0
  3 10  2  0
 12  3  1  0
 22  4  2  0
  4 23  1  0
 21  5  1  0
  5 22  1  0
  5 29  1  0
  7  6  1  0
  6 15  2  3
 11  7  2  0
  7 32  1  0
 14  8  2  0
  9 10  1  0
 34  9  2  0
  9 35  1  0
 17 11  1  0
 13 12  2  0
 14 13  1  0
 13 34  1  0
 15 14  1  0
 15 33  1  0
 16 17  2  0
 19 16  1  0
 16 31  1  0
 19 18  2  0
 20 21  1  0
 23 24  1  0
 23 28  2  0
 24 25  2  0
 25 26  1  0
 26 27  2  0
 27 28  1  0
 29 30  1  0
 31 32  2  0
 33 34  1  0
 35 36  2  0
 35 37  1  0
M  END
$$$$
