
     RDKit          3D

 37 42  0  0  0  0  0  0  0  0999 V2000
   26.1362  -12.6867    8.6058 N   0  0  0  0  0  0  0  0  0  0  0  0
   22.1890  -13.2084   11.5465 N   0  0  0  0  0  0  0  0  0  0  0  0
   27.7818   -2.4887   11.5617 C   0  0  0  0  0  0  0  0  0  0  0  0
   23.6482  -13.9570   12.9540 N   0  0  0  0  0  0  0  0  0  0  0  0
   24.5807  -13.3278   10.7917 N   0  0  0  0  0  0  0  0  0  0  0  0
   28.2610   -6.6573    7.2673 C   0  0  0  0  0  0  0  0  0  0  0  0
   27.9006   -8.0505    7.2996 C   0  0  0  0  0  0  0  0  0  0  0  0
   29.5464   -3.9053    7.7381 O   0  0  0  0  0  0  0  0  0  0  0  0
   26.6412   -4.6273   11.3899 C   0  0  0  0  0  0  0  0  0  0  0  0
   26.8979   -3.4399   12.0385 C   0  0  0  0  0  0  0  0  0  0  0  0
   28.4189   -8.9698    6.4282 C   0  0  0  0  0  0  0  0  0  0  0  0
   28.4464   -2.7429   10.3660 C   0  0  0  0  0  0  0  0  0  0  0  0
   28.2045   -3.9221    9.7036 C   0  0  0  0  0  0  0  0  0  0  0  0
   28.7193   -4.5060    8.4418 C   0  0  0  0  0  0  0  0  0  0  0  0
   28.0961   -5.7962    8.2461 C   0  0  0  0  0  0  0  0  0  0  0  0
   27.1085  -10.7843    7.3545 C   0  0  0  0  0  0  0  0  0  0  0  0
   28.0309  -10.2872    6.4607 C   0  0  0  0  0  0  0  0  0  0  0  0
   26.7721  -12.8617    6.3947 O   0  0  0  0  0  0  0  0  0  0  0  0
   26.6681  -12.1645    7.4104 C   0  0  0  0  0  0  0  0  0  0  0  0
   26.5234  -12.1849    9.8962 C   0  0  0  0  0  0  0  0  0  0  0  0
   25.3494  -12.1279   10.8141 C   0  0  0  0  0  0  0  0  0  0  0  0
   23.5034  -13.4772   11.7033 C   0  0  0  0  0  0  0  0  0  0  0  0
   22.4714  -13.9931   13.5708 C   0  0  0  0  0  0  0  0  0  0  0  0
   22.0708  -14.3876   14.8240 C   0  0  0  0  0  0  0  0  0  0  0  0
   20.7665  -14.3322   15.2424 C   0  0  0  0  0  0  0  0  0  0  0  0
   19.8142  -13.8493   14.3399 C   0  0  0  0  0  0  0  0  0  0  0  0
   20.2363  -13.4583   13.0876 C   0  0  0  0  0  0  0  0  0  0  0  0
   21.5389  -13.5152   12.6733 C   0  0  0  0  0  0  0  0  0  0  0  0
   24.8895  -14.3885    9.8565 C   0  0  0  0  0  0  0  0  0  0  0  0
   25.1775  -13.7675    8.5201 C   0  0  0  0  0  0  0  0  0  0  0  0
   26.5817   -9.8518    8.2421 C   0  0  0  0  0  0  0  0  0  0  0  0
   26.9570   -8.5304    8.2240 C   0  0  0  0  0  0  0  0  0  0  0  0
   27.2468   -5.9502    9.3601 O   0  0  0  0  0  0  0  0  0  0  0  0
   27.3228   -4.8629   10.1859 C   0  0  0  0  0  0  0  0  0  0  0  0
   25.7067   -5.6193   11.8914 C   0  0  0  0  0  0  0  0  0  0  0  0
   25.0635   -5.4133   12.9406 O   0  0  0  0  0  0  0  0  0  0  0  0
   25.5210   -6.8270   11.1919 N   0  0  0  0  0  0  0  0  0  0  0  0
  1 19  1  0
 20  1  1  1
 30  1  1  1
 22  2  1  0
  2 28  1  0
  3 10  2  0
 12  3  1  0
 22  4  2  0
  4 23  1  0
 21  5  1  1
  5 22  1  0
 29  5  1  1
  7  6  1  0
  6 15  2  3
 11  7  2  0
  7 32  1  0
 14  8  2  0
  9 10  1  0
 34  9  2  0
  9 35  1  0
 17 11  1  0
 13 12  2  0
 14 13  1  0
 13 34  1  0
 15 14  1  0
 15 33  1  0
 16 17  2  0
 19 16  1  0
 16 31  1  0
 19 18  2  0
 20 21  1  0
 23 24  1  0
 23 28  2  0
 24 25  2  0
 25 26  1  0
 26 27  2  0
 27 28  1  0
 29 30  1  0
 31 32  2  0
 33 34  1  0
 35 36  2  0
 35 37  1  0
M  END
$$$$
