
     RDKit          3D

 37 42  0  0  0  0  0  0  0  0999 V2000
   23.9751  -12.1510    8.3462 N   0  0  0  0  0  0  0  0  0  0  0  0
   24.3170  -16.7735   10.2079 N   0  0  0  0  0  0  0  0  0  0  0  0
   29.3037   -2.1324   11.4611 C   0  0  0  0  0  0  0  0  0  0  0  0
   23.8620  -17.2655    8.1532 N   0  0  0  0  0  0  0  0  0  0  0  0
   24.2343  -14.8896    8.5500 N   0  0  0  0  0  0  0  0  0  0  0  0
   28.1677   -7.1514    8.3678 C   0  0  0  0  0  0  0  0  0  0  0  0
   27.0299   -8.0311    8.4276 C   0  0  0  0  0  0  0  0  0  0  0  0
   30.4500   -5.0926    8.3525 O   0  0  0  0  0  0  0  0  0  0  0  0
   27.3950   -3.6252   11.6404 C   0  0  0  0  0  0  0  0  0  0  0  0
   28.0945   -2.5021   12.0221 C   0  0  0  0  0  0  0  0  0  0  0  0
   26.1512   -8.0349    9.4767 C   0  0  0  0  0  0  0  0  0  0  0  0
   29.8422   -2.9350   10.4602 C   0  0  0  0  0  0  0  0  0  0  0  0
   29.1598   -4.0604   10.0654 C   0  0  0  0  0  0  0  0  0  0  0  0
   29.4290   -5.1140    9.0576 C   0  0  0  0  0  0  0  0  0  0  0  0
   28.3394   -6.0645    9.0861 C   0  0  0  0  0  0  0  0  0  0  0  0
   24.8309   -9.8355    8.5375 C   0  0  0  0  0  0  0  0  0  0  0  0
   25.0928   -8.9094    9.5227 C   0  0  0  0  0  0  0  0  0  0  0  0
   22.5881  -10.3547    8.7624 O   0  0  0  0  0  0  0  0  0  0  0  0
   23.7309  -10.7798    8.5582 C   0  0  0  0  0  0  0  0  0  0  0  0
   25.2960  -12.7124    8.4298 C   0  0  0  0  0  0  0  0  0  0  0  0
   25.2591  -14.0535    9.0809 C   0  0  0  0  0  0  0  0  0  0  0  0
   24.1513  -16.2401    8.9780 C   0  0  0  0  0  0  0  0  0  0  0  0
   23.8435  -18.4086    8.8311 C   0  0  0  0  0  0  0  0  0  0  0  0
   23.6065  -19.7148    8.4788 C   0  0  0  0  0  0  0  0  0  0  0  0
   23.6430  -20.7487    9.3782 C   0  0  0  0  0  0  0  0  0  0  0  0
   23.9365  -20.4418   10.7101 C   0  0  0  0  0  0  0  0  0  0  0  0
   24.1716  -19.1253   11.0434 C   0  0  0  0  0  0  0  0  0  0  0  0
   24.1341  -18.0958   10.1431 C   0  0  0  0  0  0  0  0  0  0  0  0
   23.2870  -14.3776    7.5827 C   0  0  0  0  0  0  0  0  0  0  0  0
   22.8550  -13.0098    8.0267 C   0  0  0  0  0  0  0  0  0  0  0  0
   25.7221   -9.8322    7.4695 C   0  0  0  0  0  0  0  0  0  0  0  0
   26.7864   -8.9658    7.4067 C   0  0  0  0  0  0  0  0  0  0  0  0
   27.4683   -5.5726   10.0786 O   0  0  0  0  0  0  0  0  0  0  0  0
   27.9568   -4.4203   10.6296 C   0  0  0  0  0  0  0  0  0  0  0  0
   26.1222   -4.0048   12.2279 C   0  0  0  0  0  0  0  0  0  0  0  0
   25.5515   -3.2556   13.0464 O   0  0  0  0  0  0  0  0  0  0  0  0
   25.5222   -5.2285   11.8748 N   0  0  0  0  0  0  0  0  0  0  0  0
  1 19  1  0
 20  1  1  1
 30  1  1  1
 22  2  1  0
  2 28  1  0
  3 10  2  0
 12  3  1  0
 22  4  2  0
  4 23  1  0
 21  5  1  1
  5 22  1  0
 29  5  1  1
  7  6  1  0
  6 15  2  3
 11  7  2  0
  7 32  1  0
 14  8  2  0
  9 10  1  0
 34  9  2  0
  9 35  1  0
 17 11  1  0
 13 12  2  0
 14 13  1  0
 13 34  1  0
 15 14  1  0
 15 33  1  0
 16 17  2  0
 19 16  1  0
 16 31  1  0
 19 18  2  0
 20 21  1  0
 23 24  1  0
 23 28  2  0
 24 25  2  0
 25 26  1  0
 26 27  2  0
 27 28  1  0
 29 30  1  0
 31 32  2  0
 33 34  1  0
 35 36  2  0
 35 37  1  0
M  END
$$$$
