
     RDKit          3D

 37 42  0  0  0  0  0  0  0  0999 V2000
   25.6826  -11.7707    8.2306 N   0  0  0  0  0  0  0  0  0  0  0  0
   22.0639  -12.8169   11.8180 N   0  0  0  0  0  0  0  0  0  0  0  0
   27.8901   -2.1923   11.8578 C   0  0  0  0  0  0  0  0  0  0  0  0
   23.4106  -14.4780   12.0203 N   0  0  0  0  0  0  0  0  0  0  0  0
   24.0153  -12.7745   10.3043 N   0  0  0  0  0  0  0  0  0  0  0  0
   27.8308   -5.7440    6.9991 C   0  0  0  0  0  0  0  0  0  0  0  0
   27.5181   -7.1493    7.0295 C   0  0  0  0  0  0  0  0  0  0  0  0
   29.2485   -3.0993    7.6596 O   0  0  0  0  0  0  0  0  0  0  0  0
   26.7026   -4.2604   11.5297 C   0  0  0  0  0  0  0  0  0  0  0  0
   27.0416   -3.1856   12.3017 C   0  0  0  0  0  0  0  0  0  0  0  0
   27.9756   -7.9546    8.0825 C   0  0  0  0  0  0  0  0  0  0  0  0
   28.4173   -2.2951   10.5732 C   0  0  0  0  0  0  0  0  0  0  0  0
   28.0748   -3.3881    9.7831 C   0  0  0  0  0  0  0  0  0  0  0  0
   28.4753   -3.7495    8.4117 C   0  0  0  0  0  0  0  0  0  0  0  0
   27.8110   -4.9983    8.0968 C   0  0  0  0  0  0  0  0  0  0  0  0
   26.8778   -9.8743    7.1912 C   0  0  0  0  0  0  0  0  0  0  0  0
   27.6615   -9.2878    8.1604 C   0  0  0  0  0  0  0  0  0  0  0  0
   26.8979  -12.0268    6.2967 O   0  0  0  0  0  0  0  0  0  0  0  0
   26.5037  -11.2635    7.1971 C   0  0  0  0  0  0  0  0  0  0  0  0
   24.8891  -10.8757    9.0459 C   0  0  0  0  0  0  0  0  0  0  0  0
   24.6354  -11.4822   10.4327 C   0  0  0  0  0  0  0  0  0  0  0  0
   23.2024  -13.3237   11.3268 C   0  0  0  0  0  0  0  0  0  0  0  0
   22.4248  -14.6723   12.9129 C   0  0  0  0  0  0  0  0  0  0  0  0
   22.1371  -15.6488   13.8520 C   0  0  0  0  0  0  0  0  0  0  0  0
   21.0101  -15.5526   14.6374 C   0  0  0  0  0  0  0  0  0  0  0  0
   20.1355  -14.5023   14.5269 C   0  0  0  0  0  0  0  0  0  0  0  0
   20.4416  -13.5278   13.5752 C   0  0  0  0  0  0  0  0  0  0  0  0
   21.5703  -13.6125   12.7801 C   0  0  0  0  0  0  0  0  0  0  0  0
   24.2562  -13.4999    9.0773 C   0  0  0  0  0  0  0  0  0  0  0  0
   25.6146  -13.2106    8.5031 C   0  0  0  0  0  0  0  0  0  0  0  0
   26.4310   -9.0791    6.1602 C   0  0  0  0  0  0  0  0  0  0  0  0
   26.7353   -7.7272    6.0603 C   0  0  0  0  0  0  0  0  0  0  0  0
   27.0657   -5.3254    9.2522 O   0  0  0  0  0  0  0  0  0  0  0  0
   27.2241   -4.3739   10.2426 C   0  0  0  0  0  0  0  0  0  0  0  0
   25.8064   -5.2722   12.0494 C   0  0  0  0  0  0  0  0  0  0  0  0
   25.2406   -5.1230   13.1863 O   0  0  0  0  0  0  0  0  0  0  0  0
   25.4987   -6.4625   11.3624 N   0  0  0  0  0  0  0  0  0  0  0  0
  1 19  1  0
 20  1  1  0
  1 30  1  0
 22  2  1  0
  2 28  1  0
  3 10  2  0
 12  3  1  0
 22  4  2  0
  4 23  1  0
 21  5  1  0
  5 22  1  0
  5 29  1  0
  7  6  1  0
  6 15  2  3
 11  7  2  0
  7 32  1  0
 14  8  2  0
  9 10  1  0
 34  9  2  0
  9 35  1  0
 17 11  1  0
 13 12  2  0
 14 13  1  0
 13 34  1  0
 15 14  1  0
 15 33  1  0
 16 17  2  0
 19 16  1  0
 16 31  1  0
 19 18  2  0
 20 21  1  0
 23 24  1  0
 23 28  2  0
 24 25  2  0
 25 26  1  0
 26 27  2  0
 27 28  1  0
 29 30  1  0
 31 32  2  0
 33 34  1  0
 35 36  2  0
 35 37  1  0
M  END
$$$$
