
     RDKit          3D

 37 42  0  0  0  0  0  0  0  0999 V2000
   23.7013   -9.8957    6.2443 N   0  0  0  0  0  0  0  0  0  0  0  0
   24.7869   -8.0589    1.7749 N   0  0  0  0  0  0  0  0  0  0  0  0
   29.0239   -1.7509   10.8315 C   0  0  0  0  0  0  0  0  0  0  0  0
   26.0815   -9.7857    1.6619 N   0  0  0  0  0  0  0  0  0  0  0  0
   24.7731   -9.6538    3.7141 N   0  0  0  0  0  0  0  0  0  0  0  0
   25.2513   -6.3709   11.5184 C   0  0  0  0  0  0  0  0  0  0  0  0
   24.6636   -7.2335   10.5272 C   0  0  0  0  0  0  0  0  0  0  0  0
   26.5264   -4.3390   13.4401 O   0  0  0  0  0  0  0  0  0  0  0  0
   28.1395   -3.2516    9.1375 C   0  0  0  0  0  0  0  0  0  0  0  0
   28.9162   -2.1811    9.5212 C   0  0  0  0  0  0  0  0  0  0  0  0
   24.5297   -8.5836   10.7062 C   0  0  0  0  0  0  0  0  0  0  0  0
   28.3120   -2.4333   11.8131 C   0  0  0  0  0  0  0  0  0  0  0  0
   27.5309   -3.5040   11.4506 C   0  0  0  0  0  0  0  0  0  0  0  0
   26.6628   -4.4353   12.2103 C   0  0  0  0  0  0  0  0  0  0  0  0
   26.0802   -5.3791   11.2822 C   0  0  0  0  0  0  0  0  0  0  0  0
   23.5574   -8.9128    8.5122 C   0  0  0  0  0  0  0  0  0  0  0  0
   23.9955   -9.3874    9.7286 C   0  0  0  0  0  0  0  0  0  0  0  0
   21.9039  -10.2751    7.6404 O   0  0  0  0  0  0  0  0  0  0  0  0
   22.9991   -9.7323    7.4545 C   0  0  0  0  0  0  0  0  0  0  0  0
   23.2541  -10.7986    5.2188 C   0  0  0  0  0  0  0  0  0  0  0  0
   23.4693  -10.2089    3.8661 C   0  0  0  0  0  0  0  0  0  0  0  0
   25.1747   -9.1669    2.4431 C   0  0  0  0  0  0  0  0  0  0  0  0
   26.2652   -9.0985    0.5392 C   0  0  0  0  0  0  0  0  0  0  0  0
   27.0599   -9.2843   -0.5656 C   0  0  0  0  0  0  0  0  0  0  0  0
   27.0788   -8.4155   -1.6258 C   0  0  0  0  0  0  0  0  0  0  0  0
   26.2451   -7.2951   -1.5633 C   0  0  0  0  0  0  0  0  0  0  0  0
   25.4551   -7.1268   -0.4466 C   0  0  0  0  0  0  0  0  0  0  0  0
   25.4390   -7.9958    0.6100 C   0  0  0  0  0  0  0  0  0  0  0  0
   25.6851   -9.5861    4.8360 C   0  0  0  0  0  0  0  0  0  0  0  0
   24.9140   -9.1321    6.0418 C   0  0  0  0  0  0  0  0  0  0  0  0
   23.6913   -7.5404    8.3288 C   0  0  0  0  0  0  0  0  0  0  0  0
   24.2238   -6.7212    9.2945 C   0  0  0  0  0  0  0  0  0  0  0  0
   26.5983   -5.0041   10.0264 O   0  0  0  0  0  0  0  0  0  0  0  0
   27.4299   -3.9250   10.1438 C   0  0  0  0  0  0  0  0  0  0  0  0
   28.0357   -3.7034    7.7612 C   0  0  0  0  0  0  0  0  0  0  0  0
   28.6322   -3.0988    6.8471 O   0  0  0  0  0  0  0  0  0  0  0  0
   27.2556   -4.8333    7.4493 N   0  0  0  0  0  0  0  0  0  0  0  0
  1 19  1  0
 20  1  1  1
 30  1  1  1
 22  2  1  0
  2 28  1  0
  3 10  2  0
 12  3  1  0
 22  4  2  0
  4 23  1  0
 21  5  1  1
  5 22  1  0
 29  5  1  1
  7  6  1  0
  6 15  2  3
 11  7  2  0
  7 32  1  0
 14  8  2  0
  9 10  1  0
 34  9  2  0
  9 35  1  0
 17 11  1  0
 13 12  2  0
 14 13  1  0
 13 34  1  0
 15 14  1  0
 15 33  1  0
 16 17  2  0
 19 16  1  0
 16 31  1  0
 19 18  2  0
 20 21  1  0
 23 24  1  0
 23 28  2  0
 24 25  2  0
 25 26  1  0
 26 27  2  0
 27 28  1  0
 29 30  1  0
 31 32  2  0
 33 34  1  0
 35 36  2  0
 35 37  1  0
M  END
$$$$
