
     RDKit          3D

 37 42  0  0  0  0  0  0  0  0999 V2000
   25.1917  -13.1197   10.3146 N   0  0  0  0  0  0  0  0  0  0  0  0
   24.1361  -12.6316    5.3818 N   0  0  0  0  0  0  0  0  0  0  0  0
   28.5495   -2.7133    9.7367 C   0  0  0  0  0  0  0  0  0  0  0  0
   22.6140  -14.0027    6.0702 N   0  0  0  0  0  0  0  0  0  0  0  0
   24.3406  -13.5197    7.7214 N   0  0  0  0  0  0  0  0  0  0  0  0
   25.6416   -7.0366   12.7203 C   0  0  0  0  0  0  0  0  0  0  0  0
   25.5432   -8.4441   12.4349 C   0  0  0  0  0  0  0  0  0  0  0  0
   25.8208   -3.9815   13.0057 O   0  0  0  0  0  0  0  0  0  0  0  0
   28.5621   -5.1088    9.3299 C   0  0  0  0  0  0  0  0  0  0  0  0
   28.9639   -3.8267    9.0281 C   0  0  0  0  0  0  0  0  0  0  0  0
   24.4796   -9.2078   12.8330 C   0  0  0  0  0  0  0  0  0  0  0  0
   27.6823   -2.8962   10.8093 C   0  0  0  0  0  0  0  0  0  0  0  0
   27.2692   -4.1677   11.1264 C   0  0  0  0  0  0  0  0  0  0  0  0
   26.3755   -4.7170   12.1742 C   0  0  0  0  0  0  0  0  0  0  0  0
   26.3131   -6.1532   12.0165 C   0  0  0  0  0  0  0  0  0  0  0  0
   25.4212  -11.2390   11.9086 C   0  0  0  0  0  0  0  0  0  0  0  0
   24.4285  -10.5562   12.5759 C   0  0  0  0  0  0  0  0  0  0  0  0
   25.5813  -13.4514   12.5645 O   0  0  0  0  0  0  0  0  0  0  0  0
   25.4057  -12.6617   11.6295 C   0  0  0  0  0  0  0  0  0  0  0  0
   24.3686  -14.2635   10.0297 C   0  0  0  0  0  0  0  0  0  0  0  0
   23.5615  -14.0386    8.7961 C   0  0  0  0  0  0  0  0  0  0  0  0
   23.7438  -13.3701    6.4426 C   0  0  0  0  0  0  0  0  0  0  0  0
   22.2983  -13.6802    4.8200 C   0  0  0  0  0  0  0  0  0  0  0  0
   21.2720  -14.0380    3.9801 C   0  0  0  0  0  0  0  0  0  0  0  0
   21.1560  -13.5634    2.6993 C   0  0  0  0  0  0  0  0  0  0  0  0
   22.1352  -12.6756    2.2437 C   0  0  0  0  0  0  0  0  0  0  0  0
   23.1564  -12.3287    3.1018 C   0  0  0  0  0  0  0  0  0  0  0  0
   23.2692  -12.8047    4.3795 C   0  0  0  0  0  0  0  0  0  0  0  0
   25.7258  -13.1503    7.9212 C   0  0  0  0  0  0  0  0  0  0  0  0
   25.8322  -12.4139    9.2255 C   0  0  0  0  0  0  0  0  0  0  0  0
   26.5025  -10.4643   11.5018 C   0  0  0  0  0  0  0  0  0  0  0  0
   26.5713   -9.1151   11.7508 C   0  0  0  0  0  0  0  0  0  0  0  0
   27.1468   -6.4233   10.9130 O   0  0  0  0  0  0  0  0  0  0  0  0
   27.6871   -5.2699   10.4154 C   0  0  0  0  0  0  0  0  0  0  0  0
   29.0061   -6.2750    8.5869 C   0  0  0  0  0  0  0  0  0  0  0  0
   29.8377   -6.1615    7.6636 O   0  0  0  0  0  0  0  0  0  0  0  0
   28.4965   -7.5479    8.9065 N   0  0  0  0  0  0  0  0  0  0  0  0
  1 19  1  0
 20  1  1  1
 30  1  1  1
 22  2  1  0
  2 28  1  0
  3 10  2  0
 12  3  1  0
 22  4  2  0
  4 23  1  0
 21  5  1  1
  5 22  1  0
 29  5  1  1
  7  6  1  0
  6 15  2  3
 11  7  2  0
  7 32  1  0
 14  8  2  0
  9 10  1  0
 34  9  2  0
  9 35  1  0
 17 11  1  0
 13 12  2  0
 14 13  1  0
 13 34  1  0
 15 14  1  0
 15 33  1  0
 16 17  2  0
 19 16  1  0
 16 31  1  0
 19 18  2  0
 20 21  1  0
 23 24  1  0
 23 28  2  0
 24 25  2  0
 25 26  1  0
 26 27  2  0
 27 28  1  0
 29 30  1  0
 31 32  2  0
 33 34  1  0
 35 36  2  0
 35 37  1  0
M  END
$$$$
