
     RDKit          3D

 37 42  0  0  0  0  0  0  0  0999 V2000
   23.3655  -12.2580    9.9205 N   0  0  0  0  0  0  0  0  0  0  0  0
   21.4987  -16.6837   11.9636 N   0  0  0  0  0  0  0  0  0  0  0  0
   28.9212   -1.8700   10.2972 C   0  0  0  0  0  0  0  0  0  0  0  0
   23.3454  -16.0949   12.9195 N   0  0  0  0  0  0  0  0  0  0  0  0
   22.4893  -14.4685   11.3187 N   0  0  0  0  0  0  0  0  0  0  0  0
   24.6311   -5.9723   11.1999 C   0  0  0  0  0  0  0  0  0  0  0  0
   24.5335   -7.3211   10.7069 C   0  0  0  0  0  0  0  0  0  0  0  0
   25.4283   -3.3575   12.6052 O   0  0  0  0  0  0  0  0  0  0  0  0
   28.4763   -3.9010    9.0400 C   0  0  0  0  0  0  0  0  0  0  0  0
   29.2009   -2.7527    9.2696 C   0  0  0  0  0  0  0  0  0  0  0  0
   25.5601   -7.9466   10.0530 C   0  0  0  0  0  0  0  0  0  0  0  0
   27.8538   -2.1551   11.1430 C   0  0  0  0  0  0  0  0  0  0  0  0
   27.1181   -3.2960   10.9304 C   0  0  0  0  0  0  0  0  0  0  0  0
   25.9486   -3.8965   11.6158 C   0  0  0  0  0  0  0  0  0  0  0  0
   25.5990   -5.1238   10.9354 C   0  0  0  0  0  0  0  0  0  0  0  0
   24.2739   -9.9665    9.6879 C   0  0  0  0  0  0  0  0  0  0  0  0
   25.4267   -9.2232    9.5635 C   0  0  0  0  0  0  0  0  0  0  0  0
   24.5929  -11.5995    8.0811 O   0  0  0  0  0  0  0  0  0  0  0  0
   24.0944  -11.3106    9.1750 C   0  0  0  0  0  0  0  0  0  0  0  0
   22.3745  -13.1059    9.3157 C   0  0  0  0  0  0  0  0  0  0  0  0
   22.4303  -14.4789    9.8948 C   0  0  0  0  0  0  0  0  0  0  0  0
   22.4204  -15.6982   12.0237 C   0  0  0  0  0  0  0  0  0  0  0  0
   23.0260  -17.2876   13.4113 C   0  0  0  0  0  0  0  0  0  0  0  0
   23.6148  -18.1217   14.3301 C   0  0  0  0  0  0  0  0  0  0  0  0
   23.0847  -19.3356   14.6834 C   0  0  0  0  0  0  0  0  0  0  0  0
   21.8902  -19.7265   14.0712 C   0  0  0  0  0  0  0  0  0  0  0  0
   21.3150  -18.8754   13.1523 C   0  0  0  0  0  0  0  0  0  0  0  0
   21.8470  -17.6646   12.8019 C   0  0  0  0  0  0  0  0  0  0  0  0
   22.6142  -13.2234   12.0461 C   0  0  0  0  0  0  0  0  0  0  0  0
   23.6250  -12.3662   11.3402 C   0  0  0  0  0  0  0  0  0  0  0  0
   23.2297   -9.3330   10.3536 C   0  0  0  0  0  0  0  0  0  0  0  0
   23.3444   -8.0569   10.8490 C   0  0  0  0  0  0  0  0  0  0  0  0
   26.5395   -5.2282    9.8912 O   0  0  0  0  0  0  0  0  0  0  0  0
   27.4040   -4.1687    9.9050 C   0  0  0  0  0  0  0  0  0  0  0  0
   28.7789   -4.8281    7.9638 C   0  0  0  0  0  0  0  0  0  0  0  0
   29.7402   -4.6190    7.1963 O   0  0  0  0  0  0  0  0  0  0  0  0
   27.9831   -5.9749    7.7795 N   0  0  0  0  0  0  0  0  0  0  0  0
  1 19  1  0
 20  1  1  1
 30  1  1  1
 22  2  1  0
  2 28  1  0
  3 10  2  0
 12  3  1  0
 22  4  2  0
  4 23  1  0
 21  5  1  1
  5 22  1  0
 29  5  1  1
  7  6  1  0
  6 15  2  3
 11  7  2  0
  7 32  1  0
 14  8  2  0
  9 10  1  0
 34  9  2  0
  9 35  1  0
 17 11  1  0
 13 12  2  0
 14 13  1  0
 13 34  1  0
 15 14  1  0
 15 33  1  0
 16 17  2  0
 19 16  1  0
 16 31  1  0
 19 18  2  0
 20 21  1  0
 23 24  1  0
 23 28  2  0
 24 25  2  0
 25 26  1  0
 26 27  2  0
 27 28  1  0
 29 30  1  0
 31 32  2  0
 33 34  1  0
 35 36  2  0
 35 37  1  0
M  END
$$$$
