
     RDKit          3D

 37 42  0  0  0  0  0  0  0  0999 V2000
   25.6323  -11.8577    7.9756 N   0  0  0  0  0  0  0  0  0  0  0  0
   23.9508  -14.0701   12.3351 N   0  0  0  0  0  0  0  0  0  0  0  0
   28.5128   -2.4610   11.5450 C   0  0  0  0  0  0  0  0  0  0  0  0
   22.1180  -13.2568   11.5649 N   0  0  0  0  0  0  0  0  0  0  0  0
   24.1666  -12.8267   10.2118 N   0  0  0  0  0  0  0  0  0  0  0  0
   28.0915   -5.9637    6.6688 C   0  0  0  0  0  0  0  0  0  0  0  0
   27.6727   -7.3411    6.6966 C   0  0  0  0  0  0  0  0  0  0  0  0
   29.6535   -3.3913    7.2876 O   0  0  0  0  0  0  0  0  0  0  0  0
   27.2203   -4.4707   11.2527 C   0  0  0  0  0  0  0  0  0  0  0  0
   27.6394   -3.4190   12.0172 C   0  0  0  0  0  0  0  0  0  0  0  0
   28.1235   -8.1986    7.7106 C   0  0  0  0  0  0  0  0  0  0  0  0
   28.9811   -2.5761   10.2388 C   0  0  0  0  0  0  0  0  0  0  0  0
   28.5570   -3.6456    9.4563 C   0  0  0  0  0  0  0  0  0  0  0  0
   28.8835   -4.0126    8.0669 C   0  0  0  0  0  0  0  0  0  0  0  0
   28.1510   -5.2275    7.7715 C   0  0  0  0  0  0  0  0  0  0  0  0
   26.8328  -10.0116    6.8549 C   0  0  0  0  0  0  0  0  0  0  0  0
   27.7116   -9.5051    7.7868 C   0  0  0  0  0  0  0  0  0  0  0  0
   26.5670  -12.1179    5.8920 O   0  0  0  0  0  0  0  0  0  0  0  0
   26.3529  -11.3678    6.8618 C   0  0  0  0  0  0  0  0  0  0  0  0
   24.9067  -10.9504    8.8392 C   0  0  0  0  0  0  0  0  0  0  0  0
   24.7837  -11.5273   10.2559 C   0  0  0  0  0  0  0  0  0  0  0  0
   23.4537  -13.3587   11.3148 C   0  0  0  0  0  0  0  0  0  0  0  0
   21.8061  -13.8898   12.7087 C   0  0  0  0  0  0  0  0  0  0  0  0
   20.6368  -14.0990   13.4207 C   0  0  0  0  0  0  0  0  0  0  0  0
   20.6535  -14.8141   14.5974 C   0  0  0  0  0  0  0  0  0  0  0  0
   21.8105  -15.3430   15.1093 C   0  0  0  0  0  0  0  0  0  0  0  0
   22.9791  -15.1220   14.3782 C   0  0  0  0  0  0  0  0  0  0  0  0
   22.9760  -14.4056   13.1949 C   0  0  0  0  0  0  0  0  0  0  0  0
   24.3035  -13.5778    8.9842 C   0  0  0  0  0  0  0  0  0  0  0  0
   25.6023  -13.2915    8.2844 C   0  0  0  0  0  0  0  0  0  0  0  0
   26.3931   -9.1654    5.8621 C   0  0  0  0  0  0  0  0  0  0  0  0
   26.7954   -7.8392    5.7646 C   0  0  0  0  0  0  0  0  0  0  0  0
   27.4401   -5.5309    8.9547 O   0  0  0  0  0  0  0  0  0  0  0  0
   27.6824   -4.5962    9.9441 C   0  0  0  0  0  0  0  0  0  0  0  0
   26.3016   -5.4457   11.8024 C   0  0  0  0  0  0  0  0  0  0  0  0
   25.6827   -5.2163   12.8975 O   0  0  0  0  0  0  0  0  0  0  0  0
   26.0278   -6.6844   11.1908 N   0  0  0  0  0  0  0  0  0  0  0  0
  1 19  1  0
 20  1  1  0
  1 30  1  0
 22  2  1  0
  2 28  1  0
  3 10  2  0
 12  3  1  0
 22  4  2  0
  4 23  1  0
 21  5  1  0
  5 22  1  0
  5 29  1  0
  7  6  1  0
  6 15  2  3
 11  7  2  0
  7 32  1  0
 14  8  2  0
  9 10  1  0
 34  9  2  0
  9 35  1  0
 17 11  1  0
 13 12  2  0
 14 13  1  0
 13 34  1  0
 15 14  1  0
 15 33  1  0
 16 17  2  0
 19 16  1  0
 16 31  1  0
 19 18  2  0
 20 21  1  0
 23 24  1  0
 23 28  2  0
 24 25  2  0
 25 26  1  0
 26 27  2  0
 27 28  1  0
 29 30  1  0
 31 32  2  0
 33 34  1  0
 35 36  2  0
 35 37  1  0
M  END
$$$$
