
     RDKit          3D

 37 42  0  0  0  0  0  0  0  0999 V2000
   23.8807  -12.7134    9.7135 N   0  0  0  0  0  0  0  0  0  0  0  0
   23.6673  -17.8242   10.4096 N   0  0  0  0  0  0  0  0  0  0  0  0
   28.3705   -2.2224   10.3347 C   0  0  0  0  0  0  0  0  0  0  0  0
   25.1391  -17.2942   11.8816 N   0  0  0  0  0  0  0  0  0  0  0  0
   24.2144  -15.4183   10.5257 N   0  0  0  0  0  0  0  0  0  0  0  0
   28.1482   -7.9220    8.4142 C   0  0  0  0  0  0  0  0  0  0  0  0
   27.0243   -8.8000    8.6124 C   0  0  0  0  0  0  0  0  0  0  0  0
   30.0915   -5.5985    7.8990 O   0  0  0  0  0  0  0  0  0  0  0  0
   26.7459   -3.9180   10.8640 C   0  0  0  0  0  0  0  0  0  0  0  0
   27.2299   -2.6463   10.9850 C   0  0  0  0  0  0  0  0  0  0  0  0
   27.2260  -10.1354    8.9902 C   0  0  0  0  0  0  0  0  0  0  0  0
   29.0495   -3.1300    9.5260 C   0  0  0  0  0  0  0  0  0  0  0  0
   28.5603   -4.4264    9.3997 C   0  0  0  0  0  0  0  0  0  0  0  0
   29.0641   -5.5759    8.6272 C   0  0  0  0  0  0  0  0  0  0  0  0
   28.1519   -6.6754    8.8695 C   0  0  0  0  0  0  0  0  0  0  0  0
   24.8785  -10.5398    9.0926 C   0  0  0  0  0  0  0  0  0  0  0  0
   26.1751  -10.9856    9.2249 C   0  0  0  0  0  0  0  0  0  0  0  0
   22.5767  -10.9009    9.1683 O   0  0  0  0  0  0  0  0  0  0  0  0
   23.7217  -11.3649    9.3183 C   0  0  0  0  0  0  0  0  0  0  0  0
   25.1504  -13.1856   10.2238 C   0  0  0  0  0  0  0  0  0  0  0  0
   25.3187  -14.6882    9.9612 C   0  0  0  0  0  0  0  0  0  0  0  0
   24.3306  -16.7759   10.9149 C   0  0  0  0  0  0  0  0  0  0  0  0
   24.9746  -18.6254   11.9655 C   0  0  0  0  0  0  0  0  0  0  0  0
   25.5219  -19.6291   12.7474 C   0  0  0  0  0  0  0  0  0  0  0  0
   25.1277  -20.9380   12.5811 C   0  0  0  0  0  0  0  0  0  0  0  0
   24.1903  -21.3011   11.6485 C   0  0  0  0  0  0  0  0  0  0  0  0
   23.6497  -20.2763   10.8696 C   0  0  0  0  0  0  0  0  0  0  0  0
   24.0369  -18.9577   11.0266 C   0  0  0  0  0  0  0  0  0  0  0  0
   22.9667  -14.7052   10.6825 C   0  0  0  0  0  0  0  0  0  0  0  0
   22.7685  -13.6650    9.6161 C   0  0  0  0  0  0  0  0  0  0  0  0
   24.6862   -9.2281    8.7221 C   0  0  0  0  0  0  0  0  0  0  0  0
   25.7340   -8.3485    8.4798 C   0  0  0  0  0  0  0  0  0  0  0  0
   27.1722   -6.1600    9.7482 O   0  0  0  0  0  0  0  0  0  0  0  0
   27.4170   -4.8350   10.0574 C   0  0  0  0  0  0  0  0  0  0  0  0
   25.5428   -4.3059   11.5704 C   0  0  0  0  0  0  0  0  0  0  0  0
   24.9436   -3.4818   12.3429 O   0  0  0  0  0  0  0  0  0  0  0  0
   24.9584   -5.5829   11.4637 N   0  0  0  0  0  0  0  0  0  0  0  0
  1 19  1  0
 20  1  1  0
  1 30  1  0
 22  2  1  0
  2 28  1  0
  3 10  2  0
 12  3  1  0
 22  4  2  0
  4 23  1  0
 21  5  1  0
  5 22  1  0
  5 29  1  0
  7  6  1  0
  6 15  2  3
 11  7  2  0
  7 32  1  0
 14  8  2  0
  9 10  1  0
 34  9  2  0
  9 35  1  0
 17 11  1  0
 13 12  2  0
 14 13  1  0
 13 34  1  0
 15 14  1  0
 15 33  1  0
 16 17  2  0
 19 16  1  0
 16 31  1  0
 19 18  2  0
 20 21  1  0
 23 24  1  0
 23 28  2  0
 24 25  2  0
 25 26  1  0
 26 27  2  0
 27 28  1  0
 29 30  1  0
 31 32  2  0
 33 34  1  0
 35 36  2  0
 35 37  1  0
M  END
$$$$
