
     RDKit          3D

 37 42  0  0  0  0  0  0  0  0999 V2000
   23.9762  -11.9126    8.0402 N   0  0  0  0  0  0  0  0  0  0  0  0
   25.4265  -16.0745   10.8006 N   0  0  0  0  0  0  0  0  0  0  0  0
   28.6434   -2.6777   11.8602 C   0  0  0  0  0  0  0  0  0  0  0  0
   24.4425  -16.9628    9.1105 N   0  0  0  0  0  0  0  0  0  0  0  0
   24.5548  -14.4729    9.1344 N   0  0  0  0  0  0  0  0  0  0  0  0
   27.7082   -6.6172    7.4071 C   0  0  0  0  0  0  0  0  0  0  0  0
   26.6720   -7.6171    7.4145 C   0  0  0  0  0  0  0  0  0  0  0  0
   30.0435   -4.7496    8.1132 O   0  0  0  0  0  0  0  0  0  0  0  0
   26.7205   -4.0740   11.4761 C   0  0  0  0  0  0  0  0  0  0  0  0
   27.3877   -3.1321   12.2068 C   0  0  0  0  0  0  0  0  0  0  0  0
   26.7203   -8.6944    6.5180 C   0  0  0  0  0  0  0  0  0  0  0  0
   29.2482   -3.2030   10.7213 C   0  0  0  0  0  0  0  0  0  0  0  0
   28.5725   -4.1626    9.9738 C   0  0  0  0  0  0  0  0  0  0  0  0
   28.9626   -4.8792    8.7467 C   0  0  0  0  0  0  0  0  0  0  0  0
   27.8650   -5.7637    8.4113 C   0  0  0  0  0  0  0  0  0  0  0  0
   24.7307   -9.6401    7.4301 C   0  0  0  0  0  0  0  0  0  0  0  0
   25.7696   -9.6836    6.5268 C   0  0  0  0  0  0  0  0  0  0  0  0
   22.5442  -10.3790    7.1019 O   0  0  0  0  0  0  0  0  0  0  0  0
   23.6935  -10.6344    7.5053 C   0  0  0  0  0  0  0  0  0  0  0  0
   25.2117  -12.1542    8.7546 C   0  0  0  0  0  0  0  0  0  0  0  0
   25.6189  -13.6305    8.6557 C   0  0  0  0  0  0  0  0  0  0  0  0
   24.7976  -15.7668    9.6586 C   0  0  0  0  0  0  0  0  0  0  0  0
   24.8440  -17.9760    9.8969 C   0  0  0  0  0  0  0  0  0  0  0  0
   24.7532  -19.3565    9.8324 C   0  0  0  0  0  0  0  0  0  0  0  0
   25.2841  -20.1393   10.8332 C   0  0  0  0  0  0  0  0  0  0  0  0
   25.9166  -19.5959   11.9218 C   0  0  0  0  0  0  0  0  0  0  0  0
   25.9986  -18.2030   11.9698 C   0  0  0  0  0  0  0  0  0  0  0  0
   25.4696  -17.4054   10.9712 C   0  0  0  0  0  0  0  0  0  0  0  0
   23.2122  -13.9423    9.0592 C   0  0  0  0  0  0  0  0  0  0  0  0
   23.0295  -13.0224    7.8848 C   0  0  0  0  0  0  0  0  0  0  0  0
   24.6885   -8.5808    8.3081 C   0  0  0  0  0  0  0  0  0  0  0  0
   25.6395   -7.5680    8.3188 C   0  0  0  0  0  0  0  0  0  0  0  0
   26.8946   -5.5508    9.4165 O   0  0  0  0  0  0  0  0  0  0  0  0
   27.3158   -4.6068   10.3344 C   0  0  0  0  0  0  0  0  0  0  0  0
   25.4034   -4.5122   11.8884 C   0  0  0  0  0  0  0  0  0  0  0  0
   24.7901   -3.9282   12.8465 O   0  0  0  0  0  0  0  0  0  0  0  0
   24.7177   -5.5835   11.2836 N   0  0  0  0  0  0  0  0  0  0  0  0
  1 19  1  0
 20  1  1  0
  1 30  1  0
 22  2  1  0
  2 28  1  0
  3 10  2  0
 12  3  1  0
 22  4  2  0
  4 23  1  0
 21  5  1  0
  5 22  1  0
  5 29  1  0
  7  6  1  0
  6 15  2  3
 11  7  2  0
  7 32  1  0
 14  8  2  0
  9 10  1  0
 34  9  2  0
  9 35  1  0
 17 11  1  0
 13 12  2  0
 14 13  1  0
 13 34  1  0
 15 14  1  0
 15 33  1  0
 16 17  2  0
 19 16  1  0
 16 31  1  0
 19 18  2  0
 20 21  1  0
 23 24  1  0
 23 28  2  0
 24 25  2  0
 25 26  1  0
 26 27  2  0
 27 28  1  0
 29 30  1  0
 31 32  2  0
 33 34  1  0
 35 36  2  0
 35 37  1  0
M  END
$$$$
