
     RDKit          3D

 37 42  0  0  0  0  0  0  0  0999 V2000
   22.8092  -11.2442    8.3103 N   0  0  0  0  0  0  0  0  0  0  0  0
   22.0525  -14.9071   11.9965 N   0  0  0  0  0  0  0  0  0  0  0  0
   28.3254   -2.1993   11.6058 C   0  0  0  0  0  0  0  0  0  0  0  0
   24.1419  -14.5493   11.5755 N   0  0  0  0  0  0  0  0  0  0  0  0
   22.6138  -13.1309   10.3130 N   0  0  0  0  0  0  0  0  0  0  0  0
   27.6537   -6.8764    7.9015 C   0  0  0  0  0  0  0  0  0  0  0  0
   26.5193   -7.7411    7.7080 C   0  0  0  0  0  0  0  0  0  0  0  0
   29.9189   -4.8674    8.4305 O   0  0  0  0  0  0  0  0  0  0  0  0
   26.4066   -3.6677   11.3496 C   0  0  0  0  0  0  0  0  0  0  0  0
   27.0441   -2.5992   11.9399 C   0  0  0  0  0  0  0  0  0  0  0  0
   25.2277   -7.2921    7.7652 C   0  0  0  0  0  0  0  0  0  0  0  0
   29.0065   -2.9116   10.6236 C   0  0  0  0  0  0  0  0  0  0  0  0
   28.3879   -3.9813   10.0228 C   0  0  0  0  0  0  0  0  0  0  0  0
   28.8029   -4.9379    8.9688 C   0  0  0  0  0  0  0  0  0  0  0  0
   27.7184   -5.8669    8.7402 C   0  0  0  0  0  0  0  0  0  0  0  0
   24.3032   -9.4988    7.3871 C   0  0  0  0  0  0  0  0  0  0  0  0
   24.1636   -8.1469    7.6101 C   0  0  0  0  0  0  0  0  0  0  0  0
   22.6317  -10.4938    6.1356 O   0  0  0  0  0  0  0  0  0  0  0  0
   23.2041  -10.4312    7.2297 C   0  0  0  0  0  0  0  0  0  0  0  0
   21.8700  -12.3210    8.1514 C   0  0  0  0  0  0  0  0  0  0  0  0
   22.2689  -13.4955    8.9791 C   0  0  0  0  0  0  0  0  0  0  0  0
   22.8943  -14.1507   11.2592 C   0  0  0  0  0  0  0  0  0  0  0  0
   24.0973  -15.5227   12.4795 C   0  0  0  0  0  0  0  0  0  0  0  0
   25.0593  -16.2627   13.1225 C   0  0  0  0  0  0  0  0  0  0  0  0
   24.7619  -17.2388   14.0380 C   0  0  0  0  0  0  0  0  0  0  0  0
   23.4134  -17.4785   14.3181 C   0  0  0  0  0  0  0  0  0  0  0  0
   22.4634  -16.7252   13.6627 C   0  0  0  0  0  0  0  0  0  0  0  0
   22.7638  -15.7519   12.7493 C   0  0  0  0  0  0  0  0  0  0  0  0
   22.6765  -11.7399   10.7084 C   0  0  0  0  0  0  0  0  0  0  0  0
   23.3664  -10.9721    9.6180 C   0  0  0  0  0  0  0  0  0  0  0  0
   25.6152   -9.9569    7.3272 C   0  0  0  0  0  0  0  0  0  0  0  0
   26.6916   -9.1173    7.4808 C   0  0  0  0  0  0  0  0  0  0  0  0
   26.7088   -5.4570    9.6338 O   0  0  0  0  0  0  0  0  0  0  0  0
   27.1122   -4.3720   10.3619 C   0  0  0  0  0  0  0  0  0  0  0  0
   25.0583   -4.0788   11.6992 C   0  0  0  0  0  0  0  0  0  0  0  0
   24.3945   -3.4346   12.5367 O   0  0  0  0  0  0  0  0  0  0  0  0
   24.4899   -5.2145   11.0913 N   0  0  0  0  0  0  0  0  0  0  0  0
  1 19  1  0
 20  1  1  1
 30  1  1  1
 22  2  1  0
  2 28  1  0
  3 10  2  0
 12  3  1  0
 22  4  2  0
  4 23  1  0
 21  5  1  1
  5 22  1  0
 29  5  1  1
  7  6  1  0
  6 15  2  3
 11  7  2  0
  7 32  1  0
 14  8  2  0
  9 10  1  0
 34  9  2  0
  9 35  1  0
 17 11  1  0
 13 12  2  0
 14 13  1  0
 13 34  1  0
 15 14  1  0
 15 33  1  0
 16 17  2  0
 19 16  1  0
 16 31  1  0
 19 18  2  0
 20 21  1  0
 23 24  1  0
 23 28  2  0
 24 25  2  0
 25 26  1  0
 26 27  2  0
 27 28  1  0
 29 30  1  0
 31 32  2  0
 33 34  1  0
 35 36  2  0
 35 37  1  0
M  END
$$$$
