
     RDKit          3D

 37 42  0  0  0  0  0  0  0  0999 V2000
   23.9927  -11.7434    8.2328 N   0  0  0  0  0  0  0  0  0  0  0  0
   24.1791  -14.5804   12.5403 N   0  0  0  0  0  0  0  0  0  0  0  0
   28.1552   -2.4077   11.6931 C   0  0  0  0  0  0  0  0  0  0  0  0
   23.2641  -15.9830   11.1952 N   0  0  0  0  0  0  0  0  0  0  0  0
   23.8099  -13.7440   10.2456 N   0  0  0  0  0  0  0  0  0  0  0  0
   28.0621   -6.7132    7.4887 C   0  0  0  0  0  0  0  0  0  0  0  0
   27.0474   -7.7303    7.3916 C   0  0  0  0  0  0  0  0  0  0  0  0
   30.0360   -4.4526    8.1472 O   0  0  0  0  0  0  0  0  0  0  0  0
   26.4983   -4.1175   11.3379 C   0  0  0  0  0  0  0  0  0  0  0  0
   26.9733   -3.0369   12.0257 C   0  0  0  0  0  0  0  0  0  0  0  0
   27.4018   -9.0633    7.1391 C   0  0  0  0  0  0  0  0  0  0  0  0
   28.8870   -2.8973   10.6146 C   0  0  0  0  0  0  0  0  0  0  0  0
   28.4073   -3.9978    9.9109 C   0  0  0  0  0  0  0  0  0  0  0  0
   28.9618   -4.7160    8.7498 C   0  0  0  0  0  0  0  0  0  0  0  0
   28.0352   -5.7854    8.4373 C   0  0  0  0  0  0  0  0  0  0  0  0
   25.1289   -9.7715    7.2704 C   0  0  0  0  0  0  0  0  0  0  0  0
   26.4621  -10.0612    7.0800 C   0  0  0  0  0  0  0  0  0  0  0  0
   23.2486  -10.7486    6.2990 O   0  0  0  0  0  0  0  0  0  0  0  0
   24.0815  -10.7566    7.2237 C   0  0  0  0  0  0  0  0  0  0  0  0
   23.0361  -12.8242    8.1226 C   0  0  0  0  0  0  0  0  0  0  0  0
   22.6389  -13.3444    9.5106 C   0  0  0  0  0  0  0  0  0  0  0  0
   23.7560  -14.7148   11.2764 C   0  0  0  0  0  0  0  0  0  0  0  0
   23.3832  -16.6082   12.3789 C   0  0  0  0  0  0  0  0  0  0  0  0
   23.0589  -17.8680   12.8542 C   0  0  0  0  0  0  0  0  0  0  0  0
   23.3193  -18.2098   14.1624 C   0  0  0  0  0  0  0  0  0  0  0  0
   23.9024  -17.3321   15.0400 C   0  0  0  0  0  0  0  0  0  0  0  0
   24.2223  -16.0672   14.5433 C   0  0  0  0  0  0  0  0  0  0  0  0
   23.9660  -15.7113   13.2315 C   0  0  0  0  0  0  0  0  0  0  0  0
   25.0586  -13.1096    9.8877 C   0  0  0  0  0  0  0  0  0  0  0  0
   24.8630  -11.6972    9.4128 C   0  0  0  0  0  0  0  0  0  0  0  0
   24.7867   -8.4615    7.5185 C   0  0  0  0  0  0  0  0  0  0  0  0
   25.7200   -7.4344    7.5836 C   0  0  0  0  0  0  0  0  0  0  0  0
   26.9987   -5.6708    9.3911 O   0  0  0  0  0  0  0  0  0  0  0  0
   27.2222   -4.6163   10.2568 C   0  0  0  0  0  0  0  0  0  0  0  0
   25.2504   -4.7367   11.7329 C   0  0  0  0  0  0  0  0  0  0  0  0
   24.5697   -4.2708   12.7099 O   0  0  0  0  0  0  0  0  0  0  0  0
   24.7073   -5.8659   11.0899 N   0  0  0  0  0  0  0  0  0  0  0  0
  1 19  1  0
 20  1  1  0
  1 30  1  0
 22  2  1  0
  2 28  1  0
  3 10  2  0
 12  3  1  0
 22  4  2  0
  4 23  1  0
 21  5  1  0
  5 22  1  0
  5 29  1  0
  7  6  1  0
  6 15  2  3
 11  7  2  0
  7 32  1  0
 14  8  2  0
  9 10  1  0
 34  9  2  0
  9 35  1  0
 17 11  1  0
 13 12  2  0
 14 13  1  0
 13 34  1  0
 15 14  1  0
 15 33  1  0
 16 17  2  0
 19 16  1  0
 16 31  1  0
 19 18  2  0
 20 21  1  0
 23 24  1  0
 23 28  2  0
 24 25  2  0
 25 26  1  0
 26 27  2  0
 27 28  1  0
 29 30  1  0
 31 32  2  0
 33 34  1  0
 35 36  2  0
 35 37  1  0
M  END
$$$$
