
     RDKit          3D

 37 42  0  0  0  0  0  0  0  0999 V2000
   24.7491  -12.2361    8.9437 N   0  0  0  0  0  0  0  0  0  0  0  0
   22.4184  -15.7030   11.5991 N   0  0  0  0  0  0  0  0  0  0  0  0
   28.6082   -1.9199   11.1631 C   0  0  0  0  0  0  0  0  0  0  0  0
   24.3498  -15.9216   12.5438 N   0  0  0  0  0  0  0  0  0  0  0  0
   24.2680  -14.1877   10.8328 N   0  0  0  0  0  0  0  0  0  0  0  0
   28.4191   -6.9362    7.8693 C   0  0  0  0  0  0  0  0  0  0  0  0
   27.4484   -7.9990    7.8668 C   0  0  0  0  0  0  0  0  0  0  0  0
   30.3095   -4.5153    7.9835 O   0  0  0  0  0  0  0  0  0  0  0  0
   26.9844   -3.7257   11.2419 C   0  0  0  0  0  0  0  0  0  0  0  0
   27.4711   -2.5142   11.6800 C   0  0  0  0  0  0  0  0  0  0  0  0
   26.1687   -7.8341    8.3231 C   0  0  0  0  0  0  0  0  0  0  0  0
   29.2967   -2.5781   10.1489 C   0  0  0  0  0  0  0  0  0  0  0  0
   28.8275   -3.7884    9.6980 C   0  0  0  0  0  0  0  0  0  0  0  0
   29.2944   -4.7398    8.6613 C   0  0  0  0  0  0  0  0  0  0  0  0
   28.3860   -5.8646    8.6290 C   0  0  0  0  0  0  0  0  0  0  0  0
   25.5803  -10.1467    7.9073 C   0  0  0  0  0  0  0  0  0  0  0  0
   25.2733   -8.8758    8.3401 C   0  0  0  0  0  0  0  0  0  0  0  0
   23.8214  -11.3598    7.0214 O   0  0  0  0  0  0  0  0  0  0  0  0
   24.6651  -11.2711    7.9208 C   0  0  0  0  0  0  0  0  0  0  0  0
   24.7898  -11.8723   10.3340 C   0  0  0  0  0  0  0  0  0  0  0  0
   23.9889  -12.8273   11.1529 C   0  0  0  0  0  0  0  0  0  0  0  0
   23.6787  -15.2173   11.6116 C   0  0  0  0  0  0  0  0  0  0  0  0
   23.5483  -16.8220   13.1038 C   0  0  0  0  0  0  0  0  0  0  0  0
   23.7264  -17.7705   14.0811 C   0  0  0  0  0  0  0  0  0  0  0  0
   22.7243  -18.6064   14.5011 C   0  0  0  0  0  0  0  0  0  0  0  0
   21.4707  -18.4735   13.8968 C   0  0  0  0  0  0  0  0  0  0  0  0
   21.3123  -17.5157   12.9186 C   0  0  0  0  0  0  0  0  0  0  0  0
   22.3148  -16.6832   12.5017 C   0  0  0  0  0  0  0  0  0  0  0  0
   25.1434  -14.5252    9.7306 C   0  0  0  0  0  0  0  0  0  0  0  0
   24.8041  -13.6334    8.5711 C   0  0  0  0  0  0  0  0  0  0  0  0
   26.8801  -10.3161    7.4417 C   0  0  0  0  0  0  0  0  0  0  0  0
   27.7893   -9.2865    7.4180 C   0  0  0  0  0  0  0  0  0  0  0  0
   27.4241   -5.5693    9.6157 O   0  0  0  0  0  0  0  0  0  0  0  0
   27.6947   -4.3722   10.2186 C   0  0  0  0  0  0  0  0  0  0  0  0
   25.7859   -4.3418   11.7833 C   0  0  0  0  0  0  0  0  0  0  0  0
   25.1114   -3.7599   12.6571 O   0  0  0  0  0  0  0  0  0  0  0  0
   25.3766   -5.6076   11.3223 N   0  0  0  0  0  0  0  0  0  0  0  0
  1 19  1  0
 20  1  1  1
 30  1  1  1
 22  2  1  0
  2 28  1  0
  3 10  2  0
 12  3  1  0
 22  4  2  0
  4 23  1  0
 21  5  1  1
  5 22  1  0
 29  5  1  1
  7  6  1  0
  6 15  2  3
 11  7  2  0
  7 32  1  0
 14  8  2  0
  9 10  1  0
 34  9  2  0
  9 35  1  0
 17 11  1  0
 13 12  2  0
 14 13  1  0
 13 34  1  0
 15 14  1  0
 15 33  1  0
 16 17  2  0
 19 16  1  0
 16 31  1  0
 19 18  2  0
 20 21  1  0
 23 24  1  0
 23 28  2  0
 24 25  2  0
 25 26  1  0
 26 27  2  0
 27 28  1  0
 29 30  1  0
 31 32  2  0
 33 34  1  0
 35 36  2  0
 35 37  1  0
M  END
$$$$
