
     RDKit          3D

 37 42  0  0  0  0  0  0  0  0999 V2000
   24.0731  -12.3113    8.8966 N   0  0  0  0  0  0  0  0  0  0  0  0
   24.1062  -16.2509   12.2781 N   0  0  0  0  0  0  0  0  0  0  0  0
   28.8736   -2.4533   11.0504 C   0  0  0  0  0  0  0  0  0  0  0  0
   24.6279  -17.2367   10.4425 N   0  0  0  0  0  0  0  0  0  0  0  0
   24.2719  -14.7736   10.3055 N   0  0  0  0  0  0  0  0  0  0  0  0
   24.2174   -6.2637   11.2056 C   0  0  0  0  0  0  0  0  0  0  0  0
   24.1343   -7.4721   10.4269 C   0  0  0  0  0  0  0  0  0  0  0  0
   25.0712   -3.9056   12.9805 O   0  0  0  0  0  0  0  0  0  0  0  0
   28.3671   -4.2601    9.5425 C   0  0  0  0  0  0  0  0  0  0  0  0
   29.1610   -3.2226    9.9418 C   0  0  0  0  0  0  0  0  0  0  0  0
   25.0616   -7.7218    9.4049 C   0  0  0  0  0  0  0  0  0  0  0  0
   27.7295   -2.7508   11.7860 C   0  0  0  0  0  0  0  0  0  0  0  0
   26.9176   -3.8066   11.3832 C   0  0  0  0  0  0  0  0  0  0  0  0
   25.6694   -4.3371   11.9595 C   0  0  0  0  0  0  0  0  0  0  0  0
   25.2612   -5.4481   11.1237 C   0  0  0  0  0  0  0  0  0  0  0  0
   24.0780   -9.8406    8.9272 C   0  0  0  0  0  0  0  0  0  0  0  0
   25.0328   -8.8812    8.6719 C   0  0  0  0  0  0  0  0  0  0  0  0
   23.8058  -11.0820    6.9730 O   0  0  0  0  0  0  0  0  0  0  0  0
   23.9773  -11.0812    8.2057 C   0  0  0  0  0  0  0  0  0  0  0  0
   25.0979  -12.5143    9.8986 C   0  0  0  0  0  0  0  0  0  0  0  0
   25.4532  -14.0021   10.0214 C   0  0  0  0  0  0  0  0  0  0  0  0
   24.3309  -16.0194   10.9781 C   0  0  0  0  0  0  0  0  0  0  0  0
   24.5860  -18.1883   11.3906 C   0  0  0  0  0  0  0  0  0  0  0  0
   24.7956  -19.5573   11.4093 C   0  0  0  0  0  0  0  0  0  0  0  0
   24.6709  -20.2674   12.5824 C   0  0  0  0  0  0  0  0  0  0  0  0
   24.3389  -19.6608   13.7666 C   0  0  0  0  0  0  0  0  0  0  0  0
   24.1315  -18.2807   13.7286 C   0  0  0  0  0  0  0  0  0  0  0  0
   24.2535  -17.5558   12.5569 C   0  0  0  0  0  0  0  0  0  0  0  0
   23.0074  -14.2222    9.8734 C   0  0  0  0  0  0  0  0  0  0  0  0
   23.1415  -13.4093    8.6165 C   0  0  0  0  0  0  0  0  0  0  0  0
   23.1707   -9.5906    9.9318 C   0  0  0  0  0  0  0  0  0  0  0  0
   23.1802   -8.4250   10.6877 C   0  0  0  0  0  0  0  0  0  0  0  0
   26.2459   -5.5359   10.1137 O   0  0  0  0  0  0  0  0  0  0  0  0
   27.2195   -4.5671   10.2709 C   0  0  0  0  0  0  0  0  0  0  0  0
   28.7199   -5.0334    8.3702 C   0  0  0  0  0  0  0  0  0  0  0  0
   29.7425   -4.7253    7.6671 O   0  0  0  0  0  0  0  0  0  0  0  0
   27.9852   -6.1507    7.9281 N   0  0  0  0  0  0  0  0  0  0  0  0
  1 19  1  0
 20  1  1  0
  1 30  1  0
 22  2  1  0
  2 28  1  0
  3 10  2  0
 12  3  1  0
 22  4  2  0
  4 23  1  0
 21  5  1  0
  5 22  1  0
  5 29  1  0
  7  6  1  0
  6 15  2  3
 11  7  2  0
  7 32  1  0
 14  8  2  0
  9 10  1  0
 34  9  2  0
  9 35  1  0
 17 11  1  0
 13 12  2  0
 14 13  1  0
 13 34  1  0
 15 14  1  0
 15 33  1  0
 16 17  2  0
 19 16  1  0
 16 31  1  0
 19 18  2  0
 20 21  1  0
 23 24  1  0
 23 28  2  0
 24 25  2  0
 25 26  1  0
 26 27  2  0
 27 28  1  0
 29 30  1  0
 31 32  2  0
 33 34  1  0
 35 36  2  0
 35 37  1  0
M  END
$$$$
