
     RDKit          3D

 37 42  0  0  0  0  0  0  0  0999 V2000
   24.0999  -11.9057    8.0884 N   0  0  0  0  0  0  0  0  0  0  0  0
   23.6810  -15.4614   11.9343 N   0  0  0  0  0  0  0  0  0  0  0  0
   28.4896   -2.1394   11.4443 C   0  0  0  0  0  0  0  0  0  0  0  0
   22.2444  -13.8553   12.0992 N   0  0  0  0  0  0  0  0  0  0  0  0
   23.7112  -13.6850   10.1601 N   0  0  0  0  0  0  0  0  0  0  0  0
   28.2482   -6.8391    7.7156 C   0  0  0  0  0  0  0  0  0  0  0  0
   27.2411   -7.8591    7.5853 C   0  0  0  0  0  0  0  0  0  0  0  0
   30.2440   -4.5410    8.1436 O   0  0  0  0  0  0  0  0  0  0  0  0
   26.7784   -3.8562   11.2769 C   0  0  0  0  0  0  0  0  0  0  0  0
   27.2971   -2.7142   11.8454 C   0  0  0  0  0  0  0  0  0  0  0  0
   27.2374   -8.7700    6.5639 C   0  0  0  0  0  0  0  0  0  0  0  0
   29.2028   -2.7445   10.4142 C   0  0  0  0  0  0  0  0  0  0  0  0
   28.7024   -3.8850    9.8340 C   0  0  0  0  0  0  0  0  0  0  0  0
   29.1818   -4.7681    8.7438 C   0  0  0  0  0  0  0  0  0  0  0  0
   28.2233   -5.8360    8.5640 C   0  0  0  0  0  0  0  0  0  0  0  0
   25.1912   -9.8175    7.3274 C   0  0  0  0  0  0  0  0  0  0  0  0
   26.2440   -9.7115    6.4460 C   0  0  0  0  0  0  0  0  0  0  0  0
   23.2400  -10.6182    6.3776 O   0  0  0  0  0  0  0  0  0  0  0  0
   24.1209  -10.7905    7.2278 C   0  0  0  0  0  0  0  0  0  0  0  0
   25.2215  -12.2490    8.9196 C   0  0  0  0  0  0  0  0  0  0  0  0
   24.7617  -12.7267   10.2554 C   0  0  0  0  0  0  0  0  0  0  0  0
   23.2512  -14.3278   11.3387 C   0  0  0  0  0  0  0  0  0  0  0  0
   22.0404  -14.6564   13.1399 C   0  0  0  0  0  0  0  0  0  0  0  0
   21.1599  -14.6341   14.1940 C   0  0  0  0  0  0  0  0  0  0  0  0
   21.1406  -15.5959   15.1706 C   0  0  0  0  0  0  0  0  0  0  0  0
   22.0656  -16.6397   15.0736 C   0  0  0  0  0  0  0  0  0  0  0  0
   22.9401  -16.6443   14.0085 C   0  0  0  0  0  0  0  0  0  0  0  0
   22.9568  -15.6825   13.0356 C   0  0  0  0  0  0  0  0  0  0  0  0
   23.1166  -14.0081    8.8805 C   0  0  0  0  0  0  0  0  0  0  0  0
   22.9100  -12.7288    8.1220 C   0  0  0  0  0  0  0  0  0  0  0  0
   25.1938   -8.8936    8.3673 C   0  0  0  0  0  0  0  0  0  0  0  0
   26.1781   -7.9445    8.5008 C   0  0  0  0  0  0  0  0  0  0  0  0
   27.2214   -5.5751    9.5201 O   0  0  0  0  0  0  0  0  0  0  0  0
   27.5144   -4.4499   10.2399 C   0  0  0  0  0  0  0  0  0  0  0  0
   25.5221   -4.4515   11.6971 C   0  0  0  0  0  0  0  0  0  0  0  0
   24.8092   -3.8919   12.5549 O   0  0  0  0  0  0  0  0  0  0  0  0
   25.0997   -5.6714   11.1354 N   0  0  0  0  0  0  0  0  0  0  0  0
  1 19  1  0
 20  1  1  1
 30  1  1  1
 22  2  1  0
  2 28  1  0
  3 10  2  0
 12  3  1  0
 22  4  2  0
  4 23  1  0
 21  5  1  1
  5 22  1  0
 29  5  1  1
  7  6  1  0
  6 15  2  3
 11  7  2  0
  7 32  1  0
 14  8  2  0
  9 10  1  0
 34  9  2  0
  9 35  1  0
 17 11  1  0
 13 12  2  0
 14 13  1  0
 13 34  1  0
 15 14  1  0
 15 33  1  0
 16 17  2  0
 19 16  1  0
 16 31  1  0
 19 18  2  0
 20 21  1  0
 23 24  1  0
 23 28  2  0
 24 25  2  0
 25 26  1  0
 26 27  2  0
 27 28  1  0
 29 30  1  0
 31 32  2  0
 33 34  1  0
 35 36  2  0
 35 37  1  0
M  END
$$$$
