
     RDKit          3D

 37 42  0  0  0  0  0  0  0  0999 V2000
   24.0035  -11.9801    8.0484 N   0  0  0  0  0  0  0  0  0  0  0  0
   25.0073  -16.5371   10.3514 N   0  0  0  0  0  0  0  0  0  0  0  0
   28.5710   -2.1474   11.2360 C   0  0  0  0  0  0  0  0  0  0  0  0
   24.0502  -17.1381    8.5247 N   0  0  0  0  0  0  0  0  0  0  0  0
   24.3135  -14.6841    8.8729 N   0  0  0  0  0  0  0  0  0  0  0  0
   28.2505   -7.0473    7.7559 C   0  0  0  0  0  0  0  0  0  0  0  0
   27.1186   -7.9363    7.7099 C   0  0  0  0  0  0  0  0  0  0  0  0
   30.3312   -4.8064    8.0542 O   0  0  0  0  0  0  0  0  0  0  0  0
   26.8345   -3.8123   11.1515 C   0  0  0  0  0  0  0  0  0  0  0  0
   27.3635   -2.6610   11.6622 C   0  0  0  0  0  0  0  0  0  0  0  0
   27.1127   -9.0316    6.8341 C   0  0  0  0  0  0  0  0  0  0  0  0
   29.2721   -2.8331   10.2476 C   0  0  0  0  0  0  0  0  0  0  0  0
   28.7372   -4.0062    9.7243 C   0  0  0  0  0  0  0  0  0  0  0  0
   29.2501   -4.9220    8.6900 C   0  0  0  0  0  0  0  0  0  0  0  0
   28.2729   -5.9826    8.5479 C   0  0  0  0  0  0  0  0  0  0  0  0
   24.9825   -9.7507    7.6278 C   0  0  0  0  0  0  0  0  0  0  0  0
   26.0668   -9.9186    6.7950 C   0  0  0  0  0  0  0  0  0  0  0  0
   22.7199  -10.2188    7.3182 O   0  0  0  0  0  0  0  0  0  0  0  0
   23.8460  -10.6326    7.6493 C   0  0  0  0  0  0  0  0  0  0  0  0
   24.5116  -12.3027    9.3649 C   0  0  0  0  0  0  0  0  0  0  0  0
   25.2101  -13.6692    9.3598 C   0  0  0  0  0  0  0  0  0  0  0  0
   24.4521  -16.0470    9.2353 C   0  0  0  0  0  0  0  0  0  0  0  0
   24.3520  -18.2667    9.1891 C   0  0  0  0  0  0  0  0  0  0  0  0
   24.1800  -19.6190    8.9442 C   0  0  0  0  0  0  0  0  0  0  0  0
   24.6149  -20.5551    9.8556 C   0  0  0  0  0  0  0  0  0  0  0  0
   25.2284  -20.1964   11.0284 C   0  0  0  0  0  0  0  0  0  0  0  0
   25.3932  -18.8292   11.2582 C   0  0  0  0  0  0  0  0  0  0  0  0
   24.9609  -17.8788   10.3509 C   0  0  0  0  0  0  0  0  0  0  0  0
   23.2531  -14.2549    7.9891 C   0  0  0  0  0  0  0  0  0  0  0  0
   23.6585  -13.0812    7.1426 C   0  0  0  0  0  0  0  0  0  0  0  0
   24.9938   -8.6744    8.4858 C   0  0  0  0  0  0  0  0  0  0  0  0
   26.0412   -7.7635    8.5439 C   0  0  0  0  0  0  0  0  0  0  0  0
   27.2492   -5.6721    9.4715 O   0  0  0  0  0  0  0  0  0  0  0  0
   27.5271   -4.5071   10.1619 C   0  0  0  0  0  0  0  0  0  0  0  0
   25.5619   -4.3032   11.6376 C   0  0  0  0  0  0  0  0  0  0  0  0
   24.9198   -3.6700   12.5441 O   0  0  0  0  0  0  0  0  0  0  0  0
   24.9524   -5.4809   11.1631 N   0  0  0  0  0  0  0  0  0  0  0  0
  1 19  1  0
 20  1  1  0
  1 30  1  0
 22  2  1  0
  2 28  1  0
  3 10  2  0
 12  3  1  0
 22  4  2  0
  4 23  1  0
 21  5  1  0
  5 22  1  0
  5 29  1  0
  7  6  1  0
  6 15  2  3
 11  7  2  0
  7 32  1  0
 14  8  2  0
  9 10  1  0
 34  9  2  0
  9 35  1  0
 17 11  1  0
 13 12  2  0
 14 13  1  0
 13 34  1  0
 15 14  1  0
 15 33  1  0
 16 17  2  0
 19 16  1  0
 16 31  1  0
 19 18  2  0
 20 21  1  0
 23 24  1  0
 23 28  2  0
 24 25  2  0
 25 26  1  0
 26 27  2  0
 27 28  1  0
 29 30  1  0
 31 32  2  0
 33 34  1  0
 35 36  2  0
 35 37  1  0
M  END
$$$$
