
     RDKit          3D

 49 50  0  0  0  0  0  0  0  0999 V2000
   64.9141  116.3018   16.1841 N   0  0  0  0  0  4  0  0  0  0  0  0
   63.9735  116.0696   15.0863 C   0  0  2  0  0  0  0  0  0  0  0  0
   62.5756  116.0708   15.6272 C   0  0  0  0  0  0  0  0  0  0  0  0
   62.3009  115.8367   16.8245 O   0  0  0  0  0  0  0  0  0  0  0  0
   64.3757  114.7917   14.4383 C   0  0  0  0  0  0  0  0  0  0  0  0
   63.7982  114.5352   13.1135 C   0  0  0  0  0  0  0  0  0  0  0  0
   64.1562  115.2460   12.1476 O   0  0  0  0  0  0  0  0  0  0  0  0
   62.8765  113.5390   12.9078 O   0  0  0  0  0  0  0  0  0  0  0  0
   61.4590  116.3481   14.7732 N   0  0  0  0  0  0  0  0  0  0  0  0
   60.0848  116.4350   15.2513 C   0  0  2  0  0  0  0  0  0  0  0  0
   59.5064  115.0830   15.4519 C   0  0  0  0  0  0  0  0  0  0  0  0
   60.1055  114.0883   15.0356 O   0  0  0  0  0  0  0  0  0  0  0  0
   59.2200  117.2282   14.3373 C   0  0  0  0  0  0  0  0  0  0  0  0
   59.6919  118.6154   14.2267 C   0  0  0  0  0  0  0  0  0  0  0  0
   59.9912  119.3576   15.3543 O   0  0  0  0  0  0  0  0  0  0  0  0
   59.8322  119.1543   13.1076 O   0  0  0  0  0  0  0  0  0  0  0  0
   58.2827  114.8867   16.1058 N   0  0  0  0  0  0  0  0  0  0  0  0
   57.6598  113.7146   16.5589 C   0  0  2  0  0  0  0  0  0  0  0  0
   56.3539  114.0024   17.2888 C   0  0  0  0  0  0  0  0  0  0  0  0
   56.3467  114.6696   18.3298 O   0  0  0  0  0  0  0  0  0  0  0  0
   58.4102  112.7220   17.3417 C   0  0  0  0  0  0  0  0  0  0  0  0
   59.5894  112.1513   16.6690 C   0  0  0  0  0  0  0  0  0  0  0  0
   60.8464  112.6140   16.9794 C   0  0  0  0  0  0  0  0  0  0  0  0
   59.5122  111.1631   15.7269 C   0  0  0  0  0  0  0  0  0  0  0  0
   61.9804  112.0906   16.3548 C   0  0  0  0  0  0  0  0  0  0  0  0
   60.6176  110.6270   15.0935 C   0  0  0  0  0  0  0  0  0  0  0  0
   61.8683  111.0973   15.4119 C   0  0  0  0  0  0  0  0  0  0  0  0
   63.0220  110.5786   14.7902 O   0  0  0  0  0  0  0  0  0  0  0  0
   55.1699  113.4897   16.7496 N   0  0  0  0  0  0  0  0  0  0  0  0
   53.8220  113.4840   17.2668 C   0  0  2  0  0  0  0  0  0  0  0  0
   53.6762  113.4469   18.7152 C   0  0  0  0  0  0  0  0  0  0  0  0
   54.2750  112.4149   19.2654 O   0  0  0  0  0  0  0  0  0  0  0  0
   52.8826  112.7302   16.4125 C   0  0  2  0  0  0  0  0  0  0  0  0
   52.9156  113.3969   15.1277 O   0  0  0  0  0  0  0  0  0  0  0  0
   51.4277  112.9615   16.8713 C   0  0  0  0  0  0  0  0  0  0  0  0
   53.0292  114.2792   19.6316 N   0  0  0  0  0  0  0  0  0  0  0  0
   52.7455  114.2630   21.0339 C   0  0  2  0  0  0  0  0  0  0  0  0
   51.3439  114.0642   21.4144 C   0  0  0  0  0  0  0  0  0  0  0  0
   50.4051  114.2476   20.6118 O   0  0  0  0  0  0  0  0  0  0  0  0
   53.1528  115.7011   21.4465 C   0  0  0  0  0  0  0  0  0  0  0  0
   52.9870  116.5210   20.2116 C   0  0  0  0  0  0  0  0  0  0  0  0
   52.4200  115.5751   19.1883 C   0  0  0  0  0  0  0  0  0  0  0  0
   51.0529  113.6469   22.7496 N   0  0  0  0  0  0  0  0  0  0  0  0
   50.0309  112.6848   23.0363 C   0  0  2  0  0  0  0  0  0  0  0  0
   49.0474  113.2567   23.9928 C   0  0  0  0  0  0  0  0  0  0  0  0
   48.9644  114.6304   24.1608 O   0  0  0  0  0  0  0  0  0  0  0  0
   50.6127  111.4323   23.6710 C   0  0  0  0  0  0  0  0  0  0  0  0
   50.9135  110.4873   22.6877 O   0  0  0  0  0  0  0  0  0  0  0  0
   48.2778  112.5236   24.6638 O   0  0  0  0  0  0  0  0  0  0  0  0
  2  1  1  1
  2  3  1  0
  2  5  1  0
  3  4  2  0
  3  9  1  0
  5  6  1  0
  6  7  2  0
  6  8  1  0
  9 10  1  0
 10 11  1  0
 10 13  1  6
 11 12  2  0
 11 17  1  0
 13 14  1  0
 14 15  1  0
 14 16  2  0
 17 18  1  0
 18 19  1  0
 18 21  1  1
 19 20  2  0
 19 29  1  0
 21 22  1  0
 22 23  2  0
 22 24  1  0
 23 25  1  0
 24 26  2  0
 25 27  2  0
 26 27  1  0
 27 28  1  0
 30 29  1  1
 30 31  1  0
 30 33  1  0
 31 32  2  0
 31 36  1  0
 33 34  1  0
 33 35  1  1
 36 37  1  0
 36 42  1  0
 37 38  1  6
 37 40  1  0
 38 39  2  0
 38 43  1  0
 40 41  1  0
 41 42  1  0
 43 44  1  0
 44 45  1  0
 44 47  1  1
 45 46  1  0
 45 49  2  0
 47 48  1  0
M  CHG  1   1   1
M  END
$$$$
