
     RDKit          3D

 49 50  0  0  0  0  0  0  0  0999 V2000
   50.4604  113.9807   22.9840 N   0  0  0  0  0  4  0  0  0  0  0  0
   51.4048  112.8045   22.8726 C   0  0  2  0  0  0  0  0  0  0  0  0
   52.7171  113.3118   22.4356 C   0  0  0  0  0  0  0  0  0  0  0  0
   52.9159  114.5982   22.5448 O   0  0  0  0  0  0  0  0  0  0  0  0
   50.7664  111.7575   22.0397 C   0  0  0  0  0  0  0  0  0  0  0  0
   49.9410  110.8493   22.8523 C   0  0  0  0  0  0  0  0  0  0  0  0
   50.4166  109.8626   23.4320 O   0  0  0  0  0  0  0  0  0  0  0  0
   48.5768  111.1091   22.9750 O   0  0  0  0  0  0  0  0  0  0  0  0
   53.7969  112.6119   21.9182 N   0  0  0  0  0  0  0  0  0  0  0  0
   55.0451  113.2267   21.5795 C   0  0  2  0  0  0  0  0  0  0  0  0
   55.4982  113.0410   20.2133 C   0  0  0  0  0  0  0  0  0  0  0  0
   55.9373  111.8742   19.9088 O   0  0  0  0  0  0  0  0  0  0  0  0
   56.1593  112.9313   22.5309 C   0  0  0  0  0  0  0  0  0  0  0  0
   57.4433  113.5591   22.1810 C   0  0  0  0  0  0  0  0  0  0  0  0
   57.7493  114.0614   20.9337 O   0  0  0  0  0  0  0  0  0  0  0  0
   58.3085  113.6370   23.0859 O   0  0  0  0  0  0  0  0  0  0  0  0
   55.5131  114.0103   19.1784 N   0  0  0  0  0  0  0  0  0  0  0  0
   55.8396  113.6501   17.8121 C   0  0  2  0  0  0  0  0  0  0  0  0
   57.2588  114.0108   17.5439 C   0  0  0  0  0  0  0  0  0  0  0  0
   57.6669  115.1632   17.9105 O   0  0  0  0  0  0  0  0  0  0  0  0
   54.8573  114.0463   16.8033 C   0  0  0  0  0  0  0  0  0  0  0  0
   53.4900  113.5645   16.9144 C   0  0  0  0  0  0  0  0  0  0  0  0
   52.5423  114.1940   17.6770 C   0  0  0  0  0  0  0  0  0  0  0  0
   53.0932  112.4234   16.2503 C   0  0  0  0  0  0  0  0  0  0  0  0
   51.2515  113.7097   17.7773 C   0  0  0  0  0  0  0  0  0  0  0  0
   51.8083  111.9169   16.3320 C   0  0  0  0  0  0  0  0  0  0  0  0
   50.8766  112.5757   17.1107 C   0  0  0  0  0  0  0  0  0  0  0  0
   49.5772  112.0638   17.1951 O   0  0  0  0  0  0  0  0  0  0  0  0
   58.1750  113.1664   16.9180 N   0  0  0  0  0  0  0  0  0  0  0  0
   59.5496  113.5906   16.5212 C   0  0  2  0  0  0  0  0  0  0  0  0
   59.5452  114.9942   16.1678 C   0  0  0  0  0  0  0  0  0  0  0  0
   58.8643  115.1729   15.0312 O   0  0  0  0  0  0  0  0  0  0  0  0
   60.1879  112.5298   15.7867 C   0  0  2  0  0  0  0  0  0  0  0  0
   60.2265  111.3338   16.4789 O   0  0  0  0  0  0  0  0  0  0  0  0
   61.6293  112.8172   15.3778 C   0  0  0  0  0  0  0  0  0  0  0  0
   60.0275  116.1860   16.6577 N   0  0  0  0  0  0  0  0  0  0  0  0
   60.2472  117.4671   15.9714 C   0  0  2  0  0  0  0  0  0  0  0  0
   59.6027  117.7455   14.7508 C   0  0  0  0  0  0  0  0  0  0  0  0
   58.4911  117.3379   14.3835 O   0  0  0  0  0  0  0  0  0  0  0  0
   61.7473  117.5220   16.0641 C   0  0  0  0  0  0  0  0  0  0  0  0
   61.9561  117.1301   17.5364 C   0  0  0  0  0  0  0  0  0  0  0  0
   60.5966  116.4813   17.9397 C   0  0  0  0  0  0  0  0  0  0  0  0
   60.2820  118.5955   13.8012 N   0  0  0  0  0  0  0  0  0  0  0  0
   59.6271  118.9882   12.5737 C   0  0  2  0  0  0  0  0  0  0  0  0
   59.3043  120.4147   12.5197 C   0  0  0  0  0  0  0  0  0  0  0  0
   60.3215  121.3752   12.4797 O   0  0  0  0  0  0  0  0  0  0  0  0
   58.3431  118.1791   12.3914 C   0  0  0  0  0  0  0  0  0  0  0  0
   58.4684  117.2088   11.4068 O   0  0  0  0  0  0  0  0  0  0  0  0
   58.1142  120.8414   12.5077 O   0  0  0  0  0  0  0  0  0  0  0  0
  1  2  1  6
  2  3  1  6
  2  5  1  0
  3  4  2  0
  3  9  1  0
  5  6  1  6
  6  7  2  0
  6  8  1  0
 10  9  1  1
 10 11  1  0
 10 13  1  0
 11 12  2  0
 11 17  1  0
 13 14  1  6
 14 15  1  0
 14 16  2  0
 18 17  1  1
 18 19  1  0
 18 21  1  0
 19 20  2  0
 19 29  1  0
 21 22  1  6
 22 23  2  0
 22 24  1  0
 23 25  1  0
 24 26  2  0
 25 27  2  0
 26 27  1  0
 27 28  1  0
 30 29  1  6
 30 31  1  0
 30 33  1  0
 31 32  2  0
 31 36  1  0
 33 34  1  1
 35 33  1  6
 36 37  1  0
 42 36  1  1
 37 38  1  6
 40 37  1  1
 38 39  2  0
 38 43  1  0
 40 41  1  0
 41 42  1  6
 44 43  1  1
 44 45  1  0
 44 47  1  0
 45 46  1  0
 45 49  2  0
 47 48  1  6
M  CHG  1   1   1
M  END
$$$$
