
     RDKit          3D

 49 50  0  0  0  0  0  0  0  0999 V2000
   59.7600  117.7784   14.8903 N   0  0  0  0  0  4  0  0  0  0  0  0
   60.1387  116.5626   15.6131 C   0  0  2  0  0  0  0  0  0  0  0  0
   58.9351  115.6812   15.7583 C   0  0  0  0  0  0  0  0  0  0  0  0
   57.7676  116.0685   15.5333 O   0  0  0  0  0  0  0  0  0  0  0  0
   60.7354  116.9983   16.9049 C   0  0  0  0  0  0  0  0  0  0  0  0
   61.9865  117.7596   16.8086 C   0  0  0  0  0  0  0  0  0  0  0  0
   62.8413  117.6390   17.7148 O   0  0  0  0  0  0  0  0  0  0  0  0
   62.2418  118.5997   15.7535 O   0  0  0  0  0  0  0  0  0  0  0  0
   59.0711  114.3166   16.1734 N   0  0  0  0  0  0  0  0  0  0  0  0
   57.9555  113.3804   16.2322 C   0  0  2  0  0  0  0  0  0  0  0  0
   57.0594  113.6938   17.3729 C   0  0  0  0  0  0  0  0  0  0  0  0
   57.5217  114.1971   18.3998 O   0  0  0  0  0  0  0  0  0  0  0  0
   58.4109  111.9668   16.3159 C   0  0  0  0  0  0  0  0  0  0  0  0
   59.6533  111.8518   17.0919 C   0  0  0  0  0  0  0  0  0  0  0  0
   60.2482  112.9668   17.6530 O   0  0  0  0  0  0  0  0  0  0  0  0
   60.1995  110.7400   17.2608 O   0  0  0  0  0  0  0  0  0  0  0  0
   55.6829  113.4344   17.3310 N   0  0  0  0  0  0  0  0  0  0  0  0
   54.7014  113.5133   18.3298 C   0  0  2  0  0  0  0  0  0  0  0  0
   54.4925  112.1806   19.0378 C   0  0  0  0  0  0  0  0  0  0  0  0
   53.5607  111.4343   18.7157 O   0  0  0  0  0  0  0  0  0  0  0  0
   53.3795  114.0860   18.0372 C   0  0  0  0  0  0  0  0  0  0  0  0
   52.9461  113.9835   16.6335 C   0  0  0  0  0  0  0  0  0  0  0  0
   51.6954  114.4227   16.2686 C   0  0  0  0  0  0  0  0  0  0  0  0
   53.7298  113.4630   15.6411 C   0  0  0  0  0  0  0  0  0  0  0  0
   51.2600  114.3353   14.9446 C   0  0  0  0  0  0  0  0  0  0  0  0
   53.3245  113.3647   14.3233 C   0  0  0  0  0  0  0  0  0  0  0  0
   52.0727  113.8068   13.9707 C   0  0  0  0  0  0  0  0  0  0  0  0
   51.6196  113.7254   12.6386 O   0  0  0  0  0  0  0  0  0  0  0  0
   55.3808  111.8298   20.0592 N   0  0  0  0  0  0  0  0  0  0  0  0
   55.2830  110.8252   21.0915 C   0  0  2  0  0  0  0  0  0  0  0  0
   54.3534  111.0926   22.1799 C   0  0  0  0  0  0  0  0  0  0  0  0
   53.2817  110.3337   22.1380 O   0  0  0  0  0  0  0  0  0  0  0  0
   56.5723  110.1614   21.3703 C   0  0  2  0  0  0  0  0  0  0  0  0
   57.0732  109.7419   20.0783 O   0  0  0  0  0  0  0  0  0  0  0  0
   56.3448  108.8171   22.0927 C   0  0  0  0  0  0  0  0  0  0  0  0
   54.3688  111.9897   23.2504 N   0  0  0  0  0  0  0  0  0  0  0  0
   53.4795  112.3679   24.3055 C   0  0  2  0  0  0  0  0  0  0  0  0
   52.8861  113.7050   24.2117 C   0  0  0  0  0  0  0  0  0  0  0  0
   52.6582  114.4031   25.2216 O   0  0  0  0  0  0  0  0  0  0  0  0
   54.4310  112.3528   25.5297 C   0  0  0  0  0  0  0  0  0  0  0  0
   55.7882  112.6163   24.9699 C   0  0  0  0  0  0  0  0  0  0  0  0
   55.5646  112.8579   23.5018 C   0  0  0  0  0  0  0  0  0  0  0  0
   52.5617  114.2173   22.9180 N   0  0  0  0  0  0  0  0  0  0  0  0
   51.4878  115.1442   22.7181 C   0  0  2  0  0  0  0  0  0  0  0  0
   50.4949  114.5762   21.7691 C   0  0  0  0  0  0  0  0  0  0  0  0
   49.9094  115.3899   20.8115 O   0  0  0  0  0  0  0  0  0  0  0  0
   51.9889  116.4526   22.1288 C   0  0  0  0  0  0  0  0  0  0  0  0
   53.3199  116.3229   21.7262 O   0  0  0  0  0  0  0  0  0  0  0  0
   50.1646  113.3640   21.8083 O   0  0  0  0  0  0  0  0  0  0  0  0
  2  1  1  1
  2  3  1  0
  2  5  1  0
  3  4  2  0
  3  9  1  0
  5  6  1  0
  6  7  2  0
  6  8  1  0
  9 10  1  0
 10 11  1  0
 10 13  1  1
 11 12  2  0
 11 17  1  0
 13 14  1  0
 14 15  1  0
 14 16  2  0
 17 18  1  0
 18 19  1  0
 18 21  1  6
 19 20  2  0
 19 29  1  0
 21 22  1  0
 22 23  2  0
 22 24  1  0
 23 25  1  0
 24 26  2  0
 25 27  2  0
 26 27  1  0
 27 28  1  0
 30 29  1  1
 30 31  1  0
 30 33  1  0
 31 32  2  0
 31 36  1  0
 33 34  1  0
 33 35  1  1
 36 37  1  0
 36 42  1  0
 37 38  1  6
 37 40  1  0
 38 39  2  0
 38 43  1  0
 40 41  1  0
 41 42  1  0
 43 44  1  0
 44 45  1  0
 44 47  1  6
 45 46  1  0
 45 49  2  0
 47 48  1  0
M  CHG  1   1   1
M  END
$$$$
