
     RDKit          3D

 49 50  0  0  0  0  0  0  0  0999 V2000
   65.2677  115.8946   15.8336 N   0  0  0  0  0  4  0  0  0  0  0  0
   64.2029  115.2061   15.1014 C   0  0  2  0  0  0  0  0  0  0  0  0
   62.8761  115.5980   15.6781 C   0  0  0  0  0  0  0  0  0  0  0  0
   62.7526  116.3184   16.6927 O   0  0  0  0  0  0  0  0  0  0  0  0
   64.4973  113.7496   15.1827 C   0  0  0  0  0  0  0  0  0  0  0  0
   63.5899  112.8696   14.4368 C   0  0  0  0  0  0  0  0  0  0  0  0
   64.0341  112.2302   13.4568 O   0  0  0  0  0  0  0  0  0  0  0  0
   62.2692  112.7315   14.7846 O   0  0  0  0  0  0  0  0  0  0  0  0
   61.6544  115.1526   15.0763 N   0  0  0  0  0  0  0  0  0  0  0  0
   60.3403  115.6488   15.4654 C   0  0  2  0  0  0  0  0  0  0  0  0
   59.2974  114.6157   15.2475 C   0  0  0  0  0  0  0  0  0  0  0  0
   59.4430  113.7701   14.3613 O   0  0  0  0  0  0  0  0  0  0  0  0
   59.9758  116.8996   14.7477 C   0  0  0  0  0  0  0  0  0  0  0  0
   58.7436  117.4871   15.2917 C   0  0  0  0  0  0  0  0  0  0  0  0
   57.5620  116.7694   15.3131 O   0  0  0  0  0  0  0  0  0  0  0  0
   58.7389  118.6512   15.7471 O   0  0  0  0  0  0  0  0  0  0  0  0
   58.1302  114.5619   16.0210 N   0  0  0  0  0  0  0  0  0  0  0  0
   57.6098  113.5418   16.8308 C   0  0  2  0  0  0  0  0  0  0  0  0
   56.3272  113.9648   17.5360 C   0  0  0  0  0  0  0  0  0  0  0  0
   56.3662  114.7028   18.5273 O   0  0  0  0  0  0  0  0  0  0  0  0
   58.4632  112.8545   17.8108 C   0  0  0  0  0  0  0  0  0  0  0  0
   59.2566  111.7342   17.2778 C   0  0  0  0  0  0  0  0  0  0  0  0
   59.2279  111.4531   15.9322 C   0  0  0  0  0  0  0  0  0  0  0  0
   60.0417  110.9311   18.0580 C   0  0  0  0  0  0  0  0  0  0  0  0
   59.9698  110.3955   15.4021 C   0  0  0  0  0  0  0  0  0  0  0  0
   60.7861  109.8783   17.5599 C   0  0  0  0  0  0  0  0  0  0  0  0
   60.7493  109.6071   16.2139 C   0  0  0  0  0  0  0  0  0  0  0  0
   61.4929  108.5434   15.6643 O   0  0  0  0  0  0  0  0  0  0  0  0
   55.1110  113.4938   17.0318 N   0  0  0  0  0  0  0  0  0  0  0  0
   53.7650  113.6265   17.5368 C   0  0  2  0  0  0  0  0  0  0  0  0
   53.4214  112.8267   18.7041 C   0  0  0  0  0  0  0  0  0  0  0  0
   54.4743  112.4278   19.3814 O   0  0  0  0  0  0  0  0  0  0  0  0
   52.7685  113.8342   16.4671 C   0  0  2  0  0  0  0  0  0  0  0  0
   52.8235  112.6364   15.6558 O   0  0  0  0  0  0  0  0  0  0  0  0
   53.2464  114.9246   15.4854 C   0  0  0  0  0  0  0  0  0  0  0  0
   52.2067  112.3972   19.2438 N   0  0  0  0  0  0  0  0  0  0  0  0
   50.9655  112.9982   19.6249 C   0  0  2  0  0  0  0  0  0  0  0  0
   50.6845  113.0609   21.0622 C   0  0  0  0  0  0  0  0  0  0  0  0
   49.5233  113.1715   21.5080 O   0  0  0  0  0  0  0  0  0  0  0  0
   49.9430  112.0268   18.9806 C   0  0  0  0  0  0  0  0  0  0  0  0
   50.6511  110.7167   18.8977 C   0  0  0  0  0  0  0  0  0  0  0  0
   51.9814  110.9494   19.5605 C   0  0  0  0  0  0  0  0  0  0  0  0
   51.7819  112.9924   21.9747 N   0  0  0  0  0  0  0  0  0  0  0  0
   51.6782  113.4716   23.3209 C   0  0  2  0  0  0  0  0  0  0  0  0
   51.2413  114.8922   23.3233 C   0  0  0  0  0  0  0  0  0  0  0  0
   51.8702  115.8078   24.1530 O   0  0  0  0  0  0  0  0  0  0  0  0
   53.0170  113.4025   24.0371 C   0  0  0  0  0  0  0  0  0  0  0  0
   53.7039  112.2441   23.6672 O   0  0  0  0  0  0  0  0  0  0  0  0
   50.3060  115.2952   22.5866 O   0  0  0  0  0  0  0  0  0  0  0  0
  2  1  1  1
  2  3  1  0
  2  5  1  0
  3  4  2  0
  3  9  1  0
  5  6  1  0
  6  7  2  0
  6  8  1  0
  9 10  1  0
 10 11  1  0
 10 13  1  6
 11 12  2  0
 11 17  1  0
 13 14  1  0
 14 15  1  0
 14 16  2  0
 17 18  1  0
 18 19  1  0
 18 21  1  1
 19 20  2  0
 19 29  1  0
 21 22  1  0
 22 23  2  0
 22 24  1  0
 23 25  1  0
 24 26  2  0
 25 27  2  0
 26 27  1  0
 27 28  1  0
 30 29  1  6
 30 31  1  0
 30 33  1  0
 31 32  2  0
 31 36  1  0
 33 34  1  0
 33 35  1  6
 36 37  1  0
 36 42  1  0
 37 38  1  1
 37 40  1  0
 38 39  2  0
 38 43  1  0
 40 41  1  0
 41 42  1  0
 43 44  1  0
 44 45  1  0
 44 47  1  6
 45 46  1  0
 45 49  2  0
 47 48  1  0
M  CHG  1   1   1
M  END
$$$$
