
     RDKit          3D

 49 50  0  0  0  0  0  0  0  0999 V2000
   60.0936  117.6376   19.2391 N   0  0  0  0  0  4  0  0  0  0  0  0
   58.9056  116.7293   19.0129 C   0  0  2  0  0  0  0  0  0  0  0  0
   59.3826  115.5149   18.3287 C   0  0  0  0  0  0  0  0  0  0  0  0
   60.6646  115.2718   18.3885 O   0  0  0  0  0  0  0  0  0  0  0  0
   57.8299  117.5065   18.3524 C   0  0  0  0  0  0  0  0  0  0  0  0
   58.3798  118.5423   17.4630 C   0  0  0  0  0  0  0  0  0  0  0  0
   57.6556  119.2978   16.7992 O   0  0  0  0  0  0  0  0  0  0  0  0
   59.7638  118.6789   17.3649 O   0  0  0  0  0  0  0  0  0  0  0  0
   58.6574  114.5695   17.6186 N   0  0  0  0  0  0  0  0  0  0  0  0
   58.9790  114.1716   16.2811 C   0  0  2  0  0  0  0  0  0  0  0  0
   58.0190  113.3029   15.6253 C   0  0  0  0  0  0  0  0  0  0  0  0
   58.4557  112.1642   15.2260 O   0  0  0  0  0  0  0  0  0  0  0  0
   60.3597  113.6246   16.1127 C   0  0  0  0  0  0  0  0  0  0  0  0
   60.9474  113.8497   14.7825 C   0  0  0  0  0  0  0  0  0  0  0  0
   60.3382  114.5663   13.7741 O   0  0  0  0  0  0  0  0  0  0  0  0
   62.0778  113.3519   14.5638 O   0  0  0  0  0  0  0  0  0  0  0  0
   56.6507  113.5773   15.3732 N   0  0  0  0  0  0  0  0  0  0  0  0
   55.6670  113.5489   16.4384 C   0  0  2  0  0  0  0  0  0  0  0  0
   56.2387  114.2141   17.6412 C   0  0  0  0  0  0  0  0  0  0  0  0
   57.3646  114.8038   17.5253 O   0  0  0  0  0  0  0  0  0  0  0  0
   55.0031  112.2628   16.6499 C   0  0  0  0  0  0  0  0  0  0  0  0
   53.5600  112.1737   16.4966 C   0  0  0  0  0  0  0  0  0  0  0  0
   52.6862  112.5208   17.4925 C   0  0  0  0  0  0  0  0  0  0  0  0
   53.0077  111.7143   15.3199 C   0  0  0  0  0  0  0  0  0  0  0  0
   51.3179  112.4154   17.3277 C   0  0  0  0  0  0  0  0  0  0  0  0
   51.6424  111.5995   15.1273 C   0  0  0  0  0  0  0  0  0  0  0  0
   50.7886  111.9573   16.1527 C   0  0  0  0  0  0  0  0  0  0  0  0
   49.4078  111.8405   15.9594 O   0  0  0  0  0  0  0  0  0  0  0  0
   55.6196  114.2365   18.8904 N   0  0  0  0  0  0  0  0  0  0  0  0
   55.2188  115.4926   19.5895 C   0  0  2  0  0  0  0  0  0  0  0  0
   54.7187  115.1784   20.9109 C   0  0  0  0  0  0  0  0  0  0  0  0
   53.3819  115.1917   20.9041 O   0  0  0  0  0  0  0  0  0  0  0  0
   54.6189  116.3989   18.6454 C   0  0  2  0  0  0  0  0  0  0  0  0
   55.5090  116.8652   17.6961 O   0  0  0  0  0  0  0  0  0  0  0  0
   53.9904  117.6417   19.2682 C   0  0  0  0  0  0  0  0  0  0  0  0
   55.2123  114.8680   22.1571 N   0  0  0  0  0  0  0  0  0  0  0  0
   54.6564  113.9938   23.1999 C   0  0  2  0  0  0  0  0  0  0  0  0
   53.6858  113.0252   22.8801 C   0  0  0  0  0  0  0  0  0  0  0  0
   53.7000  111.8242   23.1869 O   0  0  0  0  0  0  0  0  0  0  0  0
   54.3679  115.0375   24.2436 C   0  0  0  0  0  0  0  0  0  0  0  0
   55.6775  115.8430   24.2103 C   0  0  0  0  0  0  0  0  0  0  0  0
   56.3321  115.4235   22.8585 C   0  0  0  0  0  0  0  0  0  0  0  0
   52.5354  113.4424   22.1130 N   0  0  0  0  0  0  0  0  0  0  0  0
   51.3996  112.5609   21.9622 C   0  0  2  0  0  0  0  0  0  0  0  0
   51.5275  111.6389   20.8328 C   0  0  0  0  0  0  0  0  0  0  0  0
   52.6363  110.7915   20.7258 O   0  0  0  0  0  0  0  0  0  0  0  0
   50.1244  113.3861   21.7903 C   0  0  0  0  0  0  0  0  0  0  0  0
   50.2350  114.3181   20.7677 O   0  0  0  0  0  0  0  0  0  0  0  0
   50.6604  111.5644   19.9157 O   0  0  0  0  0  0  0  0  0  0  0  0
  1  2  1  6
  2  3  1  6
  2  5  1  0
  3  4  2  0
  3  9  1  0
  5  6  1  6
  6  7  2  0
  6  8  1  0
 10  9  1  1
 10 11  1  0
 10 13  1  0
 11 12  2  0
 11 17  1  0
 13 14  1  6
 14 15  1  0
 14 16  2  0
 18 17  1  6
 18 19  1  0
 18 21  1  0
 19 20  2  0
 19 29  1  0
 21 22  1  6
 22 23  2  0
 22 24  1  0
 23 25  1  0
 24 26  2  0
 25 27  2  0
 26 27  1  0
 27 28  1  0
 30 29  1  6
 30 31  1  0
 30 33  1  0
 31 32  2  0
 31 36  1  0
 33 34  1  6
 35 33  1  6
 36 37  1  0
 42 36  1  1
 37 38  1  6
 40 37  1  1
 38 39  2  0
 38 43  1  0
 40 41  1  0
 41 42  1  6
 44 43  1  6
 44 45  1  0
 44 47  1  0
 45 46  1  0
 45 49  2  0
 47 48  1  6
M  CHG  1   1   1
M  END
$$$$
