
     RDKit          3D

 49 50  0  0  0  0  0  0  0  0999 V2000
   61.7899  117.5901   14.7207 N   0  0  0  0  0  4  0  0  0  0  0  0
   60.6920  117.6491   15.6878 C   0  0  2  0  0  0  0  0  0  0  0  0
   59.8950  116.3824   15.6055 C   0  0  0  0  0  0  0  0  0  0  0  0
   59.3005  116.0095   14.5705 O   0  0  0  0  0  0  0  0  0  0  0  0
   59.9144  118.8803   15.3810 C   0  0  0  0  0  0  0  0  0  0  0  0
   58.9876  119.3302   16.4264 C   0  0  0  0  0  0  0  0  0  0  0  0
   58.3306  120.3797   16.2441 O   0  0  0  0  0  0  0  0  0  0  0  0
   58.8246  118.6318   17.5969 O   0  0  0  0  0  0  0  0  0  0  0  0
   59.7743  115.5168   16.7409 N   0  0  0  0  0  0  0  0  0  0  0  0
   58.9617  114.3067   16.7451 C   0  0  2  0  0  0  0  0  0  0  0  0
   57.5209  114.6357   16.8801 C   0  0  0  0  0  0  0  0  0  0  0  0
   57.0816  115.6868   16.4069 O   0  0  0  0  0  0  0  0  0  0  0  0
   59.3700  113.3584   17.8158 C   0  0  0  0  0  0  0  0  0  0  0  0
   60.5461  112.5745   17.4141 C   0  0  0  0  0  0  0  0  0  0  0  0
   61.0220  112.6189   16.1167 O   0  0  0  0  0  0  0  0  0  0  0  0
   61.1418  111.8491   18.2398 O   0  0  0  0  0  0  0  0  0  0  0  0
   56.6219  113.7855   17.5379 N   0  0  0  0  0  0  0  0  0  0  0  0
   55.2298  113.8604   17.6913 C   0  0  2  0  0  0  0  0  0  0  0  0
   54.6974  112.7939   18.6401 C   0  0  0  0  0  0  0  0  0  0  0  0
   53.4969  112.4978   18.6467 O   0  0  0  0  0  0  0  0  0  0  0  0
   54.3481  113.9059   16.5159 C   0  0  0  0  0  0  0  0  0  0  0  0
   52.9393  113.5620   16.7727 C   0  0  0  0  0  0  0  0  0  0  0  0
   52.0443  113.5147   15.7299 C   0  0  0  0  0  0  0  0  0  0  0  0
   52.4494  113.2801   18.0179 C   0  0  0  0  0  0  0  0  0  0  0  0
   50.7030  113.1927   15.9471 C   0  0  0  0  0  0  0  0  0  0  0  0
   51.1273  112.9584   18.2612 C   0  0  0  0  0  0  0  0  0  0  0  0
   50.2425  112.9144   17.2114 C   0  0  0  0  0  0  0  0  0  0  0  0
   48.8859  112.5906   17.4149 O   0  0  0  0  0  0  0  0  0  0  0  0
   55.6026  112.1649   19.5005 N   0  0  0  0  0  0  0  0  0  0  0  0
   55.6949  110.7904   19.9326 C   0  0  2  0  0  0  0  0  0  0  0  0
   54.7917  110.3763   20.9970 C   0  0  0  0  0  0  0  0  0  0  0  0
   54.8320  109.0840   21.2310 O   0  0  0  0  0  0  0  0  0  0  0  0
   57.0755  110.2678   19.8931 C   0  0  2  0  0  0  0  0  0  0  0  0
   57.3373  109.9853   18.4975 O   0  0  0  0  0  0  0  0  0  0  0  0
   57.1432  108.8667   20.5358 C   0  0  0  0  0  0  0  0  0  0  0  0
   53.8938  111.0701   21.8117 N   0  0  0  0  0  0  0  0  0  0  0  0
   52.4957  111.3735   21.7985 C   0  0  2  0  0  0  0  0  0  0  0  0
   52.1332  112.7713   21.5467 C   0  0  0  0  0  0  0  0  0  0  0  0
   50.9517  113.1717   21.6019 O   0  0  0  0  0  0  0  0  0  0  0  0
   52.0932  111.0312   23.2563 C   0  0  0  0  0  0  0  0  0  0  0  0
   53.3394  111.2121   24.0558 C   0  0  0  0  0  0  0  0  0  0  0  0
   54.3601  111.7249   23.0769 C   0  0  0  0  0  0  0  0  0  0  0  0
   53.1729  113.6983   21.2285 N   0  0  0  0  0  0  0  0  0  0  0  0
   52.9216  115.1027   21.0985 C   0  0  2  0  0  0  0  0  0  0  0  0
   51.6338  115.3259   20.3908 C   0  0  0  0  0  0  0  0  0  0  0  0
   50.5593  115.8807   21.0688 O   0  0  0  0  0  0  0  0  0  0  0  0
   54.0127  115.7875   20.2919 C   0  0  0  0  0  0  0  0  0  0  0  0
   54.7683  116.6256   21.1148 O   0  0  0  0  0  0  0  0  0  0  0  0
   51.4862  115.0230   19.1799 O   0  0  0  0  0  0  0  0  0  0  0  0
  2  1  1  6
  2  3  1  0
  2  5  1  0
  3  4  2  0
  3  9  1  0
  5  6  1  0
  6  7  2  0
  6  8  1  0
  9 10  1  0
 10 11  1  0
 10 13  1  1
 11 12  2  0
 11 17  1  0
 13 14  1  0
 14 15  1  0
 14 16  2  0
 17 18  1  0
 18 19  1  0
 18 21  1  6
 19 20  2  0
 19 29  1  0
 21 22  1  0
 22 23  2  0
 22 24  1  0
 23 25  1  0
 24 26  2  0
 25 27  2  0
 26 27  1  0
 27 28  1  0
 30 29  1  1
 30 31  1  0
 30 33  1  0
 31 32  2  0
 31 36  1  0
 33 34  1  0
 33 35  1  1
 36 37  1  0
 36 42  1  0
 37 38  1  1
 37 40  1  0
 38 39  2  0
 38 43  1  0
 40 41  1  0
 41 42  1  0
 43 44  1  0
 44 45  1  0
 44 47  1  6
 45 46  1  0
 45 49  2  0
 47 48  1  0
M  CHG  1   1   1
M  END
$$$$
