
     RDKit          3D

 49 50  0  0  0  0  0  0  0  0999 V2000
   63.7844  112.8911   13.6018 N   0  0  0  0  0  4  0  0  0  0  0  0
   62.6769  113.8488   13.6174 C   0  0  2  0  0  0  0  0  0  0  0  0
   61.8919  113.6730   14.8821 C   0  0  0  0  0  0  0  0  0  0  0  0
   61.5458  112.5570   15.3276 O   0  0  0  0  0  0  0  0  0  0  0  0
   61.8913  113.6181   12.3747 C   0  0  0  0  0  0  0  0  0  0  0  0
   60.7772  114.5441   12.1394 C   0  0  0  0  0  0  0  0  0  0  0  0
   60.1466  114.4731   11.0607 O   0  0  0  0  0  0  0  0  0  0  0  0
   60.4111  115.4850   13.0695 O   0  0  0  0  0  0  0  0  0  0  0  0
   61.4909  114.8073   15.6602 N   0  0  0  0  0  0  0  0  0  0  0  0
   60.7370  114.7024   16.9032 C   0  0  2  0  0  0  0  0  0  0  0  0
   59.3082  114.4052   16.6336 C   0  0  0  0  0  0  0  0  0  0  0  0
   58.5824  115.2689   16.1348 O   0  0  0  0  0  0  0  0  0  0  0  0
   60.8535  115.9284   17.7373 C   0  0  0  0  0  0  0  0  0  0  0  0
   60.2972  115.7146   19.0805 C   0  0  0  0  0  0  0  0  0  0  0  0
   60.1213  116.7712   19.9547 O   0  0  0  0  0  0  0  0  0  0  0  0
   59.9712  114.5693   19.4611 O   0  0  0  0  0  0  0  0  0  0  0  0
   58.7384  113.1598   16.9301 N   0  0  0  0  0  0  0  0  0  0  0  0
   57.4830  112.8253   17.4586 C   0  0  2  0  0  0  0  0  0  0  0  0
   57.1185  113.6837   18.6632 C   0  0  0  0  0  0  0  0  0  0  0  0
   57.9618  114.4150   19.1952 O   0  0  0  0  0  0  0  0  0  0  0  0
   57.1525  111.4288   17.7774 C   0  0  0  0  0  0  0  0  0  0  0  0
   57.4456  110.4541   16.7131 C   0  0  0  0  0  0  0  0  0  0  0  0
   58.5933  109.6994   16.7719 C   0  0  0  0  0  0  0  0  0  0  0  0
   56.6265  110.2466   15.6378 C   0  0  0  0  0  0  0  0  0  0  0  0
   58.8950  108.7696   15.7746 C   0  0  0  0  0  0  0  0  0  0  0  0
   56.9004  109.3332   14.6371 C   0  0  0  0  0  0  0  0  0  0  0  0
   58.0502  108.5850   14.7067 C   0  0  0  0  0  0  0  0  0  0  0  0
   58.3679  107.6425   13.7080 O   0  0  0  0  0  0  0  0  0  0  0  0
   55.8084  113.6183   19.1478 N   0  0  0  0  0  0  0  0  0  0  0  0
   55.0700  114.5223   19.9974 C   0  0  2  0  0  0  0  0  0  0  0  0
   53.6919  114.1605   20.2977 C   0  0  0  0  0  0  0  0  0  0  0  0
   53.3862  114.3111   21.5667 O   0  0  0  0  0  0  0  0  0  0  0  0
   55.4289  115.9378   19.7785 C   0  0  2  0  0  0  0  0  0  0  0  0
   54.5211  116.6957   20.6137 O   0  0  0  0  0  0  0  0  0  0  0  0
   55.0275  116.3853   18.3575 C   0  0  0  0  0  0  0  0  0  0  0  0
   52.6370  113.6849   19.5153 N   0  0  0  0  0  0  0  0  0  0  0  0
   51.3891  114.1900   19.0309 C   0  0  2  0  0  0  0  0  0  0  0  0
   50.1777  113.6134   19.6214 C   0  0  0  0  0  0  0  0  0  0  0  0
   49.6816  112.5441   19.2091 O   0  0  0  0  0  0  0  0  0  0  0  0
   51.4428  113.7646   17.5408 C   0  0  0  0  0  0  0  0  0  0  0  0
   52.3296  112.5657   17.5111 C   0  0  0  0  0  0  0  0  0  0  0  0
   52.6702  112.2963   18.9515 C   0  0  0  0  0  0  0  0  0  0  0  0
   49.5515  114.3049   20.7037 N   0  0  0  0  0  0  0  0  0  0  0  0
   48.2250  113.9850   21.1401 C   0  0  2  0  0  0  0  0  0  0  0  0
   47.3905  115.2144   21.1757 C   0  0  0  0  0  0  0  0  0  0  0  0
   46.2798  115.2727   22.0034 O   0  0  0  0  0  0  0  0  0  0  0  0
   48.2308  113.3942   22.5405 C   0  0  0  0  0  0  0  0  0  0  0  0
   48.6929  114.3373   23.4611 O   0  0  0  0  0  0  0  0  0  0  0  0
   47.6638  116.2170   20.4686 O   0  0  0  0  0  0  0  0  0  0  0  0
  2  1  1  1
  2  3  1  0
  2  5  1  0
  3  4  2  0
  3  9  1  0
  5  6  1  0
  6  7  2  0
  6  8  1  0
  9 10  1  0
 10 11  1  0
 10 13  1  6
 11 12  2  0
 11 17  1  0
 13 14  1  0
 14 15  1  0
 14 16  2  0
 17 18  1  0
 18 19  1  0
 18 21  1  1
 19 20  2  0
 19 29  1  0
 21 22  1  0
 22 23  2  0
 22 24  1  0
 23 25  1  0
 24 26  2  0
 25 27  2  0
 26 27  1  0
 27 28  1  0
 30 29  1  6
 30 31  1  0
 30 33  1  0
 31 32  2  0
 31 36  1  0
 33 34  1  0
 33 35  1  6
 36 37  1  0
 36 42  1  0
 37 38  1  1
 37 40  1  0
 38 39  2  0
 38 43  1  0
 40 41  1  0
 41 42  1  0
 43 44  1  0
 44 45  1  0
 44 47  1  1
 45 46  1  0
 45 49  2  0
 47 48  1  0
M  CHG  1   1   1
M  END
$$$$
