
     RDKit          3D

 49 50  0  0  0  0  0  0  0  0999 V2000
   60.7137  113.1399   17.4065 N   0  0  0  0  0  4  0  0  0  0  0  0
   60.0212  114.2504   16.6481 C   0  0  2  0  0  0  0  0  0  0  0  0
   58.9361  114.7749   17.4954 C   0  0  0  0  0  0  0  0  0  0  0  0
   58.9563  114.4318   18.7556 O   0  0  0  0  0  0  0  0  0  0  0  0
   59.6546  113.7515   15.3012 C   0  0  0  0  0  0  0  0  0  0  0  0
   58.8494  112.5219   15.3811 C   0  0  0  0  0  0  0  0  0  0  0  0
   58.3473  111.9930   14.3792 O   0  0  0  0  0  0  0  0  0  0  0  0
   58.6456  111.9314   16.6275 O   0  0  0  0  0  0  0  0  0  0  0  0
   57.8760  115.5989   17.1478 N   0  0  0  0  0  0  0  0  0  0  0  0
   56.9461  116.1297   18.0987 C   0  0  2  0  0  0  0  0  0  0  0  0
   55.7262  115.3678   18.2923 C   0  0  0  0  0  0  0  0  0  0  0  0
   54.7215  116.0064   18.7715 O   0  0  0  0  0  0  0  0  0  0  0  0
   56.6190  117.5752   17.9047 C   0  0  0  0  0  0  0  0  0  0  0  0
   55.9611  117.8858   16.6257 C   0  0  0  0  0  0  0  0  0  0  0  0
   55.3829  116.9451   15.7997 O   0  0  0  0  0  0  0  0  0  0  0  0
   55.9304  119.0897   16.2746 O   0  0  0  0  0  0  0  0  0  0  0  0
   55.5243  113.9920   18.0139 N   0  0  0  0  0  0  0  0  0  0  0  0
   54.6677  113.1713   18.8480 C   0  0  2  0  0  0  0  0  0  0  0  0
   55.5061  112.1710   19.5638 C   0  0  0  0  0  0  0  0  0  0  0  0
   56.7578  112.1463   19.3157 O   0  0  0  0  0  0  0  0  0  0  0  0
   53.4518  112.6729   18.2056 C   0  0  0  0  0  0  0  0  0  0  0  0
   53.2524  112.9044   16.7841 C   0  0  0  0  0  0  0  0  0  0  0  0
   52.1293  112.4931   16.1168 C   0  0  0  0  0  0  0  0  0  0  0  0
   54.2150  113.5502   16.0379 C   0  0  0  0  0  0  0  0  0  0  0  0
   51.9679  112.7135   14.7617 C   0  0  0  0  0  0  0  0  0  0  0  0
   54.0794  113.7849   14.6811 C   0  0  0  0  0  0  0  0  0  0  0  0
   52.9342  113.3563   14.0381 C   0  0  0  0  0  0  0  0  0  0  0  0
   52.7966  113.5919   12.6658 O   0  0  0  0  0  0  0  0  0  0  0  0
   55.0104  111.2575   20.4934 N   0  0  0  0  0  0  0  0  0  0  0  0
   54.8612  111.5594   21.9472 C   0  0  2  0  0  0  0  0  0  0  0  0
   53.4727  111.8349   22.2493 C   0  0  0  0  0  0  0  0  0  0  0  0
   53.3128  113.1394   22.4943 O   0  0  0  0  0  0  0  0  0  0  0  0
   55.9978  112.3175   22.4008 C   0  0  2  0  0  0  0  0  0  0  0  0
   55.9207  113.6601   22.0806 O   0  0  0  0  0  0  0  0  0  0  0  0
   57.3400  111.8391   21.8556 C   0  0  0  0  0  0  0  0  0  0  0  0
   52.2815  111.1543   22.3516 N   0  0  0  0  0  0  0  0  0  0  0  0
   51.0039  111.5746   22.9447 C   0  0  2  0  0  0  0  0  0  0  0  0
   50.7270  112.9388   23.1565 C   0  0  0  0  0  0  0  0  0  0  0  0
   50.8838  113.8666   22.3493 O   0  0  0  0  0  0  0  0  0  0  0  0
   50.9556  110.6061   24.0943 C   0  0  0  0  0  0  0  0  0  0  0  0
   51.3431  109.2994   23.3820 C   0  0  0  0  0  0  0  0  0  0  0  0
   51.9841  109.7857   22.0462 C   0  0  0  0  0  0  0  0  0  0  0  0
   50.2014  113.3348   24.4421 N   0  0  0  0  0  0  0  0  0  0  0  0
   50.6463  114.5602   25.0668 C   0  0  2  0  0  0  0  0  0  0  0  0
   49.7402  115.6874   24.8423 C   0  0  0  0  0  0  0  0  0  0  0  0
   50.1152  116.9868   25.2027 O   0  0  0  0  0  0  0  0  0  0  0  0
   52.0372  114.9280   24.5505 C   0  0  0  0  0  0  0  0  0  0  0  0
   52.5472  116.0589   25.1731 O   0  0  0  0  0  0  0  0  0  0  0  0
   48.5962  115.5457   24.3229 O   0  0  0  0  0  0  0  0  0  0  0  0
  1  2  1  6
  2  3  1  1
  2  5  1  0
  3  4  2  0
  3  9  1  0
  5  6  1  6
  6  7  2  0
  6  8  1  0
 10  9  1  6
 10 11  1  0
 10 13  1  0
 11 12  2  0
 11 17  1  0
 13 14  1  6
 14 15  1  0
 14 16  2  0
 18 17  1  6
 18 19  1  0
 18 21  1  0
 19 20  2  0
 19 29  1  0
 21 22  1  6
 22 23  2  0
 22 24  1  0
 23 25  1  0
 24 26  2  0
 25 27  2  0
 26 27  1  0
 27 28  1  0
 30 29  1  6
 30 31  1  0
 30 33  1  0
 31 32  2  0
 31 36  1  0
 33 34  1  6
 35 33  1  6
 36 37  1  0
 42 36  1  1
 37 38  1  1
 40 37  1  1
 38 39  2  0
 38 43  1  0
 40 41  1  0
 41 42  1  6
 44 43  1  6
 44 45  1  0
 44 47  1  0
 45 46  1  0
 45 49  2  0
 47 48  1  6
M  CHG  1   1   1
M  END
$$$$
