
     RDKit          3D

 49 50  0  0  0  0  0  0  0  0999 V2000
   61.4949  112.2159   14.6520 N   0  0  0  0  0  4  0  0  0  0  0  0
   61.6805  113.6620   14.7873 C   0  0  2  0  0  0  0  0  0  0  0  0
   60.7364  114.1842   15.8278 C   0  0  0  0  0  0  0  0  0  0  0  0
   60.2738  113.4806   16.7523 O   0  0  0  0  0  0  0  0  0  0  0  0
   61.4831  114.2494   13.4344 C   0  0  0  0  0  0  0  0  0  0  0  0
   62.0050  113.4619   12.3112 C   0  0  0  0  0  0  0  0  0  0  0  0
   61.8356  113.8825   11.1446 O   0  0  0  0  0  0  0  0  0  0  0  0
   62.6712  112.2777   12.5069 O   0  0  0  0  0  0  0  0  0  0  0  0
   60.3089  115.5516   15.8101 N   0  0  0  0  0  0  0  0  0  0  0  0
   59.4195  116.1277   16.8109 C   0  0  2  0  0  0  0  0  0  0  0  0
   58.0195  115.6858   16.5936 C   0  0  0  0  0  0  0  0  0  0  0  0
   57.3022  116.2842   15.7881 O   0  0  0  0  0  0  0  0  0  0  0  0
   59.4866  117.6134   16.8350 C   0  0  0  0  0  0  0  0  0  0  0  0
   58.4562  118.2080   15.9724 C   0  0  0  0  0  0  0  0  0  0  0  0
   57.5017  117.4197   15.3565 O   0  0  0  0  0  0  0  0  0  0  0  0
   58.4221  119.4422   15.7771 O   0  0  0  0  0  0  0  0  0  0  0  0
   57.4677  114.5966   17.2812 N   0  0  0  0  0  0  0  0  0  0  0  0
   56.1968  114.0085   17.2040 C   0  0  2  0  0  0  0  0  0  0  0  0
   56.0023  112.9191   18.2512 C   0  0  0  0  0  0  0  0  0  0  0  0
   56.7069  111.9030   18.2429 O   0  0  0  0  0  0  0  0  0  0  0  0
   55.6805  113.5062   15.9226 C   0  0  0  0  0  0  0  0  0  0  0  0
   54.3407  112.8975   15.9793 C   0  0  0  0  0  0  0  0  0  0  0  0
   53.6855  112.7937   17.1836 C   0  0  0  0  0  0  0  0  0  0  0  0
   53.6880  112.4133   14.8795 C   0  0  0  0  0  0  0  0  0  0  0  0
   52.4152  112.2193   17.2645 C   0  0  0  0  0  0  0  0  0  0  0  0
   52.4311  111.8404   14.9308 C   0  0  0  0  0  0  0  0  0  0  0  0
   51.7864  111.7422   16.1397 C   0  0  0  0  0  0  0  0  0  0  0  0
   50.5041  111.1655   16.2370 O   0  0  0  0  0  0  0  0  0  0  0  0
   55.0065  113.1014   19.2157 N   0  0  0  0  0  0  0  0  0  0  0  0
   54.5898  112.2606   20.3129 C   0  0  2  0  0  0  0  0  0  0  0  0
   53.1726  112.2738   20.6468 C   0  0  0  0  0  0  0  0  0  0  0  0
   52.4796  113.1145   19.9124 O   0  0  0  0  0  0  0  0  0  0  0  0
   55.5990  112.1773   21.3876 C   0  0  2  0  0  0  0  0  0  0  0  0
   55.5143  113.4406   22.0899 O   0  0  0  0  0  0  0  0  0  0  0  0
   57.0241  112.2184   20.7974 C   0  0  0  0  0  0  0  0  0  0  0  0
   52.4062  111.5806   21.5868 N   0  0  0  0  0  0  0  0  0  0  0  0
   51.0289  111.5232   21.9697 C   0  0  2  0  0  0  0  0  0  0  0  0
   50.6896  112.0964   23.2755 C   0  0  0  0  0  0  0  0  0  0  0  0
   49.6227  111.8235   23.8640 O   0  0  0  0  0  0  0  0  0  0  0  0
   50.7943  109.9923   22.0450 C   0  0  0  0  0  0  0  0  0  0  0  0
   52.1342  109.4084   22.3428 C   0  0  0  0  0  0  0  0  0  0  0  0
   53.0464  110.5924   22.5145 C   0  0  0  0  0  0  0  0  0  0  0  0
   51.6166  112.9958   23.8865 N   0  0  0  0  0  0  0  0  0  0  0  0
   51.2016  113.9731   24.8483 C   0  0  2  0  0  0  0  0  0  0  0  0
   51.1566  115.3191   24.2195 C   0  0  0  0  0  0  0  0  0  0  0  0
   50.6718  116.4017   24.9370 O   0  0  0  0  0  0  0  0  0  0  0  0
   52.1705  114.0452   26.0170 C   0  0  0  0  0  0  0  0  0  0  0  0
   52.6205  112.7660   26.3514 O   0  0  0  0  0  0  0  0  0  0  0  0
   51.5496  115.5092   23.0408 O   0  0  0  0  0  0  0  0  0  0  0  0
  2  1  1  6
  2  3  1  0
  2  5  1  0
  3  4  2  0
  3  9  1  0
  5  6  1  0
  6  7  2  0
  6  8  1  0
  9 10  1  0
 10 11  1  0
 10 13  1  6
 11 12  2  0
 11 17  1  0
 13 14  1  0
 14 15  1  0
 14 16  2  0
 17 18  1  0
 18 19  1  0
 18 21  1  6
 19 20  2  0
 19 29  1  0
 21 22  1  0
 22 23  2  0
 22 24  1  0
 23 25  1  0
 24 26  2  0
 25 27  2  0
 26 27  1  0
 27 28  1  0
 30 29  1  1
 30 31  1  0
 30 33  1  0
 31 32  2  0
 31 36  1  0
 33 34  1  0
 33 35  1  6
 36 37  1  0
 36 42  1  0
 37 38  1  1
 37 40  1  0
 38 39  2  0
 38 43  1  0
 40 41  1  0
 41 42  1  0
 43 44  1  0
 44 45  1  0
 44 47  1  1
 45 46  1  0
 45 49  2  0
 47 48  1  0
M  CHG  1   1   1
M  END
$$$$
