
     RDKit          3D

 49 50  0  0  0  0  0  0  0  0999 V2000
   60.2818  113.0504   12.6989 N   0  0  0  0  0  4  0  0  0  0  0  0
   61.1165  113.8845   13.6451 C   0  0  2  0  0  0  0  0  0  0  0  0
   60.2359  114.3759   14.7192 C   0  0  0  0  0  0  0  0  0  0  0  0
   58.9990  114.6384   14.3912 O   0  0  0  0  0  0  0  0  0  0  0  0
   61.8624  114.8954   12.8584 C   0  0  0  0  0  0  0  0  0  0  0  0
   61.0038  116.0315   12.4861 C   0  0  0  0  0  0  0  0  0  0  0  0
   60.5309  116.8080   13.3283 O   0  0  0  0  0  0  0  0  0  0  0  0
   60.7135  116.2418   11.1388 O   0  0  0  0  0  0  0  0  0  0  0  0
   60.5297  114.6028   16.0556 N   0  0  0  0  0  0  0  0  0  0  0  0
   59.6141  115.2151   16.9706 C   0  0  2  0  0  0  0  0  0  0  0  0
   58.2528  114.7130   16.9434 C   0  0  0  0  0  0  0  0  0  0  0  0
   57.4511  115.2749   16.1136 O   0  0  0  0  0  0  0  0  0  0  0  0
   59.6073  116.7093   16.9331 C   0  0  0  0  0  0  0  0  0  0  0  0
   58.8221  117.3431   18.0041 C   0  0  0  0  0  0  0  0  0  0  0  0
   58.8463  116.9475   19.3248 O   0  0  0  0  0  0  0  0  0  0  0  0
   58.0861  118.3064   17.6816 O   0  0  0  0  0  0  0  0  0  0  0  0
   57.7098  113.6712   17.7376 N   0  0  0  0  0  0  0  0  0  0  0  0
   56.2797  113.4395   17.8029 C   0  0  2  0  0  0  0  0  0  0  0  0
   55.9961  112.4796   18.9048 C   0  0  0  0  0  0  0  0  0  0  0  0
   56.1084  111.2319   18.6604 O   0  0  0  0  0  0  0  0  0  0  0  0
   55.6229  113.1838   16.5212 C   0  0  0  0  0  0  0  0  0  0  0  0
   54.2343  112.7534   16.5070 C   0  0  0  0  0  0  0  0  0  0  0  0
   53.3369  113.1767   15.5629 C   0  0  0  0  0  0  0  0  0  0  0  0
   53.7577  111.8934   17.4734 C   0  0  0  0  0  0  0  0  0  0  0  0
   52.0179  112.7634   15.5775 C   0  0  0  0  0  0  0  0  0  0  0  0
   52.4434  111.4629   17.5116 C   0  0  0  0  0  0  0  0  0  0  0  0
   51.5636  111.9095   16.5447 C   0  0  0  0  0  0  0  0  0  0  0  0
   50.2339  111.4759   16.5830 O   0  0  0  0  0  0  0  0  0  0  0  0
   55.6167  112.8574   20.1922 N   0  0  0  0  0  0  0  0  0  0  0  0
   54.8378  111.9789   21.1135 C   0  0  2  0  0  0  0  0  0  0  0  0
   53.4245  112.2604   20.9789 C   0  0  0  0  0  0  0  0  0  0  0  0
   53.2313  113.5809   20.9002 O   0  0  0  0  0  0  0  0  0  0  0  0
   55.5596  111.8156   22.3483 C   0  0  2  0  0  0  0  0  0  0  0  0
   54.8882  111.0383   23.2735 O   0  0  0  0  0  0  0  0  0  0  0  0
   55.8922  113.1193   23.0676 C   0  0  0  0  0  0  0  0  0  0  0  0
   52.2352  111.5728   20.9037 N   0  0  0  0  0  0  0  0  0  0  0  0
   50.9893  111.7593   21.6611 C   0  0  2  0  0  0  0  0  0  0  0  0
   50.7309  112.9726   22.3271 C   0  0  0  0  0  0  0  0  0  0  0  0
   51.1084  113.2960   23.4627 O   0  0  0  0  0  0  0  0  0  0  0  0
   50.9890  110.4631   22.4238 C   0  0  0  0  0  0  0  0  0  0  0  0
   51.3349  109.4716   21.3003 C   0  0  0  0  0  0  0  0  0  0  0  0
   51.9156  110.3809   20.1744 C   0  0  0  0  0  0  0  0  0  0  0  0
   49.9444  113.9710   21.6413 N   0  0  0  0  0  0  0  0  0  0  0  0
   49.3936  115.0927   22.3682 C   0  0  2  0  0  0  0  0  0  0  0  0
   48.5153  114.6949   23.4692 C   0  0  0  0  0  0  0  0  0  0  0  0
   48.8749  113.6484   24.3262 O   0  0  0  0  0  0  0  0  0  0  0  0
   48.6161  115.9966   21.4117 C   0  0  0  0  0  0  0  0  0  0  0  0
   48.1148  117.1253   22.0454 O   0  0  0  0  0  0  0  0  0  0  0  0
   47.4097  115.2649   23.6956 O   0  0  0  0  0  0  0  0  0  0  0  0
  1  2  1  6
  2  3  1  1
  2  5  1  0
  3  4  2  0
  3  9  1  0
  5  6  1  6
  6  7  2  0
  6  8  1  0
 10  9  1  6
 10 11  1  0
 10 13  1  0
 11 12  2  0
 11 17  1  0
 13 14  1  6
 14 15  1  0
 14 16  2  0
 18 17  1  6
 18 19  1  0
 18 21  1  0
 19 20  2  0
 19 29  1  0
 21 22  1  6
 22 23  2  0
 22 24  1  0
 23 25  1  0
 24 26  2  0
 25 27  2  0
 26 27  1  0
 27 28  1  0
 30 29  1  1
 30 31  1  0
 30 33  1  0
 31 32  2  0
 31 36  1  0
 33 34  1  1
 35 33  1  6
 36 37  1  0
 42 36  1  1
 37 38  1  1
 40 37  1  1
 38 39  2  0
 38 43  1  0
 40 41  1  0
 41 42  1  6
 44 43  1  6
 44 45  1  0
 44 47  1  0
 45 46  1  0
 45 49  2  0
 47 48  1  6
M  CHG  1   1   1
M  END
$$$$
