
     RDKit          3D

 49 50  0  0  0  0  0  0  0  0999 V2000
   60.3588  116.7277   12.2517 N   0  0  0  0  0  4  0  0  0  0  0  0
   61.1184  115.4202   12.2196 C   0  0  2  0  0  0  0  0  0  0  0  0
   60.4776  114.4958   13.1711 C   0  0  0  0  0  0  0  0  0  0  0  0
   60.1681  113.3096   12.7202 O   0  0  0  0  0  0  0  0  0  0  0  0
   62.5614  115.7020   12.4092 C   0  0  0  0  0  0  0  0  0  0  0  0
   63.3571  114.4637   12.4190 C   0  0  0  0  0  0  0  0  0  0  0  0
   64.4474  114.3819   13.0023 O   0  0  0  0  0  0  0  0  0  0  0  0
   62.8661  113.3437   11.7495 O   0  0  0  0  0  0  0  0  0  0  0  0
   60.1503  114.7005   14.5033 N   0  0  0  0  0  0  0  0  0  0  0  0
   59.5247  113.7065   15.3226 C   0  0  2  0  0  0  0  0  0  0  0  0
   58.2153  114.0449   15.8490 C   0  0  0  0  0  0  0  0  0  0  0  0
   57.5267  114.8905   15.1725 O   0  0  0  0  0  0  0  0  0  0  0  0
   60.3910  113.1705   16.4163 C   0  0  0  0  0  0  0  0  0  0  0  0
   61.7714  112.8656   16.0077 C   0  0  0  0  0  0  0  0  0  0  0  0
   62.7558  113.8138   15.8249 O   0  0  0  0  0  0  0  0  0  0  0  0
   62.0593  111.6598   15.8163 O   0  0  0  0  0  0  0  0  0  0  0  0
   57.6149  113.5463   17.0331 N   0  0  0  0  0  0  0  0  0  0  0  0
   56.2840  113.9586   17.4352 C   0  0  2  0  0  0  0  0  0  0  0  0
   55.9892  113.3926   18.7801 C   0  0  0  0  0  0  0  0  0  0  0  0
   56.1083  112.1323   18.9424 O   0  0  0  0  0  0  0  0  0  0  0  0
   55.2440  113.8134   16.4169 C   0  0  0  0  0  0  0  0  0  0  0  0
   54.4742  112.5814   16.3573 C   0  0  0  0  0  0  0  0  0  0  0  0
   54.6850  111.5338   17.2141 C   0  0  0  0  0  0  0  0  0  0  0  0
   53.4903  112.4156   15.4060 C   0  0  0  0  0  0  0  0  0  0  0  0
   53.9486  110.3670   17.1298 C   0  0  0  0  0  0  0  0  0  0  0  0
   52.7378  111.2595   15.2994 C   0  0  0  0  0  0  0  0  0  0  0  0
   52.9763  110.2212   16.1790 C   0  0  0  0  0  0  0  0  0  0  0  0
   52.2168  109.0511   16.0713 O   0  0  0  0  0  0  0  0  0  0  0  0
   55.5922  114.1540   19.8787 N   0  0  0  0  0  0  0  0  0  0  0  0
   55.2094  113.5647   21.1952 C   0  0  2  0  0  0  0  0  0  0  0  0
   53.7775  113.3586   21.2408 C   0  0  0  0  0  0  0  0  0  0  0  0
   53.1478  114.5347   21.1544 O   0  0  0  0  0  0  0  0  0  0  0  0
   56.0200  114.1423   22.2354 C   0  0  2  0  0  0  0  0  0  0  0  0
   55.8358  115.5050   22.3768 O   0  0  0  0  0  0  0  0  0  0  0  0
   57.5219  113.9448   22.0548 C   0  0  0  0  0  0  0  0  0  0  0  0
   52.8849  112.3164   21.3406 N   0  0  0  0  0  0  0  0  0  0  0  0
   51.7263  112.1499   22.2297 C   0  0  2  0  0  0  0  0  0  0  0  0
   51.1417  113.2646   22.8608 C   0  0  0  0  0  0  0  0  0  0  0  0
   50.4420  113.2614   23.8841 O   0  0  0  0  0  0  0  0  0  0  0  0
   52.2315  110.9952   23.0503 C   0  0  0  0  0  0  0  0  0  0  0  0
   52.7805  110.0786   21.9442 C   0  0  0  0  0  0  0  0  0  0  0  0
   52.9143  111.0276   20.7140 C   0  0  0  0  0  0  0  0  0  0  0  0
   51.3617  114.5683   22.2797 N   0  0  0  0  0  0  0  0  0  0  0  0
   50.4535  115.6568   22.5629 C   0  0  2  0  0  0  0  0  0  0  0  0
   50.1096  115.7707   23.9808 C   0  0  0  0  0  0  0  0  0  0  0  0
   51.1104  115.9200   24.9478 O   0  0  0  0  0  0  0  0  0  0  0  0
   49.1702  115.4835   21.7508 C   0  0  0  0  0  0  0  0  0  0  0  0
   48.3179  116.5719   21.8756 O   0  0  0  0  0  0  0  0  0  0  0  0
   48.9152  115.7394   24.3943 O   0  0  0  0  0  0  0  0  0  0  0  0
  1  2  1  6
  2  3  1  1
  2  5  1  0
  3  4  2  0
  3  9  1  0
  5  6  1  6
  6  7  2  0
  6  8  1  0
 10  9  1  1
 10 11  1  0
 10 13  1  0
 11 12  2  0
 11 17  1  0
 13 14  1  6
 14 15  1  0
 14 16  2  0
 18 17  1  6
 18 19  1  0
 18 21  1  0
 19 20  2  0
 19 29  1  0
 21 22  1  6
 22 23  2  0
 22 24  1  0
 23 25  1  0
 24 26  2  0
 25 27  2  0
 26 27  1  0
 27 28  1  0
 30 29  1  6
 30 31  1  0
 30 33  1  0
 31 32  2  0
 31 36  1  0
 33 34  1  6
 35 33  1  6
 36 37  1  0
 42 36  1  1
 37 38  1  1
 40 37  1  1
 38 39  2  0
 38 43  1  0
 40 41  1  0
 41 42  1  6
 44 43  1  1
 44 45  1  0
 44 47  1  0
 45 46  1  0
 45 49  2  0
 47 48  1  6
M  CHG  1   1   1
M  END
$$$$
