
     RDKit          3D

 49 50  0  0  0  0  0  0  0  0999 V2000
   63.4561  114.4424   13.3363 N   0  0  0  0  0  4  0  0  0  0  0  0
   62.0007  114.7932   13.1207 C   0  0  2  0  0  0  0  0  0  0  0  0
   61.2773  114.5356   14.3780 C   0  0  0  0  0  0  0  0  0  0  0  0
   61.7959  113.6470   15.1829 O   0  0  0  0  0  0  0  0  0  0  0  0
   61.5185  114.1004   11.9021 C   0  0  0  0  0  0  0  0  0  0  0  0
   61.9810  114.7751   10.6783 C   0  0  0  0  0  0  0  0  0  0  0  0
   62.1907  114.1610    9.6226 O   0  0  0  0  0  0  0  0  0  0  0  0
   62.1895  116.1533   10.7081 O   0  0  0  0  0  0  0  0  0  0  0  0
   60.1051  115.1106   14.8459 N   0  0  0  0  0  0  0  0  0  0  0  0
   59.4944  114.7530   16.0909 C   0  0  2  0  0  0  0  0  0  0  0  0
   58.2293  114.0476   16.0020 C   0  0  0  0  0  0  0  0  0  0  0  0
   58.2740  112.8441   15.5587 O   0  0  0  0  0  0  0  0  0  0  0  0
   59.3846  115.8754   17.0717 C   0  0  0  0  0  0  0  0  0  0  0  0
   60.4587  116.8766   16.9764 C   0  0  0  0  0  0  0  0  0  0  0  0
   61.8045  116.5815   17.0331 O   0  0  0  0  0  0  0  0  0  0  0  0
   60.1146  118.0744   16.8338 O   0  0  0  0  0  0  0  0  0  0  0  0
   56.9470  114.5451   16.3473 N   0  0  0  0  0  0  0  0  0  0  0  0
   55.8960  113.6619   16.8146 C   0  0  2  0  0  0  0  0  0  0  0  0
   55.9197  113.6284   18.3027 C   0  0  0  0  0  0  0  0  0  0  0  0
   56.9880  113.9961   18.8963 O   0  0  0  0  0  0  0  0  0  0  0  0
   55.8029  112.3736   16.1280 C   0  0  0  0  0  0  0  0  0  0  0  0
   54.5932  111.5792   16.2675 C   0  0  0  0  0  0  0  0  0  0  0  0
   54.4528  110.3383   15.7051 C   0  0  0  0  0  0  0  0  0  0  0  0
   53.5151  112.0636   16.9771 C   0  0  0  0  0  0  0  0  0  0  0  0
   53.2877  109.6069   15.8409 C   0  0  0  0  0  0  0  0  0  0  0  0
   52.3377  111.3531   17.1298 C   0  0  0  0  0  0  0  0  0  0  0  0
   52.2285  110.1044   16.5490 C   0  0  0  0  0  0  0  0  0  0  0  0
   51.0380  109.3855   16.7016 O   0  0  0  0  0  0  0  0  0  0  0  0
   54.8450  113.2221   19.0926 N   0  0  0  0  0  0  0  0  0  0  0  0
   54.8827  113.1926   20.5841 C   0  0  2  0  0  0  0  0  0  0  0  0
   53.5877  112.8005   21.0983 C   0  0  0  0  0  0  0  0  0  0  0  0
   53.3337  113.4577   22.2344 O   0  0  0  0  0  0  0  0  0  0  0  0
   55.6977  114.2767   21.0669 C   0  0  2  0  0  0  0  0  0  0  0  0
   55.3209  115.5079   20.5639 O   0  0  0  0  0  0  0  0  0  0  0  0
   57.1852  114.1412   20.7564 C   0  0  0  0  0  0  0  0  0  0  0  0
   52.5509  111.9619   20.7598 N   0  0  0  0  0  0  0  0  0  0  0  0
   51.2543  111.7525   21.4198 C   0  0  2  0  0  0  0  0  0  0  0  0
   50.7427  112.7122   22.3140 C   0  0  0  0  0  0  0  0  0  0  0  0
   49.7758  112.5798   23.0786 O   0  0  0  0  0  0  0  0  0  0  0  0
   51.4530  110.3309   21.8687 C   0  0  0  0  0  0  0  0  0  0  0  0
   52.0334  109.7067   20.5887 C   0  0  0  0  0  0  0  0  0  0  0  0
   52.4946  110.9412   19.7549 C   0  0  0  0  0  0  0  0  0  0  0  0
   51.3914  114.0012   22.3731 N   0  0  0  0  0  0  0  0  0  0  0  0
   50.9306  115.0088   23.3017 C   0  0  2  0  0  0  0  0  0  0  0  0
   51.6303  116.2868   23.1645 C   0  0  0  0  0  0  0  0  0  0  0  0
   51.3168  117.3650   24.0001 O   0  0  0  0  0  0  0  0  0  0  0  0
   51.0926  114.5030   24.7351 C   0  0  0  0  0  0  0  0  0  0  0  0
   52.3607  113.9908   24.9718 O   0  0  0  0  0  0  0  0  0  0  0  0
   52.5339  116.4767   22.3008 O   0  0  0  0  0  0  0  0  0  0  0  0
  1  2  1  6
  2  3  1  1
  2  5  1  0
  3  4  2  0
  3  9  1  0
  5  6  1  6
  6  7  2  0
  6  8  1  0
 10  9  1  6
 10 11  1  0
 10 13  1  0
 11 12  2  0
 11 17  1  0
 13 14  1  6
 14 15  1  0
 14 16  2  0
 18 17  1  6
 18 19  1  0
 18 21  1  0
 19 20  2  0
 19 29  1  0
 21 22  1  6
 22 23  2  0
 22 24  1  0
 23 25  1  0
 24 26  2  0
 25 27  2  0
 26 27  1  0
 27 28  1  0
 30 29  1  6
 30 31  1  0
 30 33  1  0
 31 32  2  0
 31 36  1  0
 33 34  1  6
 35 33  1  6
 36 37  1  0
 42 36  1  1
 37 38  1  1
 40 37  1  1
 38 39  2  0
 38 43  1  0
 40 41  1  0
 41 42  1  6
 44 43  1  6
 44 45  1  0
 44 47  1  0
 45 46  1  0
 45 49  2  0
 47 48  1  6
M  CHG  1   1   1
M  END
$$$$
