
     RDKit          3D

 49 50  0  0  0  0  0  0  0  0999 V2000
   63.2260  114.9896   14.3526 N   0  0  0  0  0  4  0  0  0  0  0  0
   61.7685  115.0935   14.4473 C   0  0  2  0  0  0  0  0  0  0  0  0
   61.3109  114.4505   15.7215 C   0  0  0  0  0  0  0  0  0  0  0  0
   62.0411  113.7163   16.4226 O   0  0  0  0  0  0  0  0  0  0  0  0
   61.2120  114.4709   13.2155 C   0  0  0  0  0  0  0  0  0  0  0  0
   59.8045  114.7695   12.9260 C   0  0  0  0  0  0  0  0  0  0  0  0
   59.5155  115.8556   12.3752 O   0  0  0  0  0  0  0  0  0  0  0  0
   58.7991  113.8909   13.2446 O   0  0  0  0  0  0  0  0  0  0  0  0
   59.9785  114.6532   16.2080 N   0  0  0  0  0  0  0  0  0  0  0  0
   59.4871  114.0922   17.4603 C   0  0  2  0  0  0  0  0  0  0  0  0
   58.0071  113.9826   17.4479 C   0  0  0  0  0  0  0  0  0  0  0  0
   57.3165  114.9131   17.8706 O   0  0  0  0  0  0  0  0  0  0  0  0
   59.9294  114.8801   18.6419 C   0  0  0  0  0  0  0  0  0  0  0  0
   60.3036  116.2490   18.2605 C   0  0  0  0  0  0  0  0  0  0  0  0
   60.7473  117.1553   19.2057 O   0  0  0  0  0  0  0  0  0  0  0  0
   60.2277  116.6229   17.0701 O   0  0  0  0  0  0  0  0  0  0  0  0
   57.3495  112.8420   16.9681 N   0  0  0  0  0  0  0  0  0  0  0  0
   56.1714  112.2119   17.3949 C   0  0  2  0  0  0  0  0  0  0  0  0
   55.2735  113.1497   18.1919 C   0  0  0  0  0  0  0  0  0  0  0  0
   55.2366  113.0902   19.4264 O   0  0  0  0  0  0  0  0  0  0  0  0
   56.2244  110.9231   18.1001 C   0  0  0  0  0  0  0  0  0  0  0  0
   54.9190  110.3690   18.4970 C   0  0  0  0  0  0  0  0  0  0  0  0
   53.7702  111.0881   18.2656 C   0  0  0  0  0  0  0  0  0  0  0  0
   54.7718  109.1504   19.0999 C   0  0  0  0  0  0  0  0  0  0  0  0
   52.5204  110.5857   18.6338 C   0  0  0  0  0  0  0  0  0  0  0  0
   53.5476  108.6291   19.4743 C   0  0  0  0  0  0  0  0  0  0  0  0
   52.4068  109.3568   19.2380 C   0  0  0  0  0  0  0  0  0  0  0  0
   51.1385  108.8627   19.6036 O   0  0  0  0  0  0  0  0  0  0  0  0
   54.4947  114.0738   17.4884 N   0  0  0  0  0  0  0  0  0  0  0  0
   53.4034  114.9132   17.9228 C   0  0  2  0  0  0  0  0  0  0  0  0
   53.2677  115.1209   19.3576 C   0  0  0  0  0  0  0  0  0  0  0  0
   53.9378  114.2430   20.0693 O   0  0  0  0  0  0  0  0  0  0  0  0
   52.1980  114.7682   17.0823 C   0  0  2  0  0  0  0  0  0  0  0  0
   51.5308  113.5806   17.5728 O   0  0  0  0  0  0  0  0  0  0  0  0
   52.5852  114.3638   15.6444 C   0  0  0  0  0  0  0  0  0  0  0  0
   52.5704  116.0565   20.1255 N   0  0  0  0  0  0  0  0  0  0  0  0
   52.3802  116.3278   21.5174 C   0  0  2  0  0  0  0  0  0  0  0  0
   51.0464  116.0534   22.0600 C   0  0  0  0  0  0  0  0  0  0  0  0
   50.7608  116.2604   23.2578 O   0  0  0  0  0  0  0  0  0  0  0  0
   52.6092  117.8606   21.5660 C   0  0  0  0  0  0  0  0  0  0  0  0
   52.2542  118.3496   20.2022 C   0  0  0  0  0  0  0  0  0  0  0  0
   51.7607  117.1329   19.4676 C   0  0  0  0  0  0  0  0  0  0  0  0
   50.0473  115.5324   21.1814 N   0  0  0  0  0  0  0  0  0  0  0  0
   49.2039  114.4375   21.5585 C   0  0  2  0  0  0  0  0  0  0  0  0
   49.1568  114.3176   23.0392 C   0  0  0  0  0  0  0  0  0  0  0  0
   50.2356  114.7382   23.8017 O   0  0  0  0  0  0  0  0  0  0  0  0
   49.7276  113.1209   21.0084 C   0  0  0  0  0  0  0  0  0  0  0  0
   48.7561  112.1251   21.1313 O   0  0  0  0  0  0  0  0  0  0  0  0
   48.1556  113.8400   23.6301 O   0  0  0  0  0  0  0  0  0  0  0  0
  2  1  1  6
  2  3  1  0
  2  5  1  0
  3  4  2  0
  3  9  1  0
  5  6  1  0
  6  7  2  0
  6  8  1  0
  9 10  1  0
 10 11  1  0
 10 13  1  1
 11 12  2  0
 11 17  1  0
 13 14  1  0
 14 15  1  0
 14 16  2  0
 17 18  1  0
 18 19  1  0
 18 21  1  1
 19 20  2  0
 19 29  1  0
 21 22  1  0
 22 23  2  0
 22 24  1  0
 23 25  1  0
 24 26  2  0
 25 27  2  0
 26 27  1  0
 27 28  1  0
 30 29  1  1
 30 31  1  0
 30 33  1  0
 31 32  2  0
 31 36  1  0
 33 34  1  0
 33 35  1  6
 36 37  1  0
 36 42  1  0
 37 38  1  6
 37 40  1  0
 38 39  2  0
 38 43  1  0
 40 41  1  0
 41 42  1  0
 43 44  1  0
 44 45  1  0
 44 47  1  6
 45 46  1  0
 45 49  2  0
 47 48  1  0
M  CHG  1   1   1
M  END
$$$$
