
     RDKit          3D

 49 50  0  0  0  0  0  0  0  0999 V2000
   60.7893  116.4588   13.4361 N   0  0  0  0  0  4  0  0  0  0  0  0
   60.2239  116.3369   14.7813 C   0  0  2  0  0  0  0  0  0  0  0  0
   59.3523  115.1190   14.8404 C   0  0  0  0  0  0  0  0  0  0  0  0
   58.5916  114.7714   13.9107 O   0  0  0  0  0  0  0  0  0  0  0  0
   59.5107  117.6118   15.0653 C   0  0  0  0  0  0  0  0  0  0  0  0
   60.3492  118.8148   15.1296 C   0  0  0  0  0  0  0  0  0  0  0  0
   59.8235  119.9324   14.9271 O   0  0  0  0  0  0  0  0  0  0  0  0
   61.6924  118.7454   15.4040 O   0  0  0  0  0  0  0  0  0  0  0  0
   59.3509  114.2736   15.9972 N   0  0  0  0  0  0  0  0  0  0  0  0
   58.4602  113.1306   16.1553 C   0  0  2  0  0  0  0  0  0  0  0  0
   57.1918  113.5334   16.8120 C   0  0  0  0  0  0  0  0  0  0  0  0
   57.0534  114.6852   17.2314 O   0  0  0  0  0  0  0  0  0  0  0  0
   59.0971  112.0216   16.9149 C   0  0  0  0  0  0  0  0  0  0  0  0
   59.5571  112.4745   18.2349 C   0  0  0  0  0  0  0  0  0  0  0  0
   59.2134  113.7234   18.7188 O   0  0  0  0  0  0  0  0  0  0  0  0
   60.2711  111.7377   18.9491 O   0  0  0  0  0  0  0  0  0  0  0  0
   56.1248  112.6407   16.9803 N   0  0  0  0  0  0  0  0  0  0  0  0
   54.9525  112.7421   17.7436 C   0  0  2  0  0  0  0  0  0  0  0  0
   55.1742  112.3360   19.1951 C   0  0  0  0  0  0  0  0  0  0  0  0
   55.5955  111.2083   19.4775 O   0  0  0  0  0  0  0  0  0  0  0  0
   53.7024  112.1211   17.2825 C   0  0  0  0  0  0  0  0  0  0  0  0
   53.4272  112.2555   15.8420 C   0  0  0  0  0  0  0  0  0  0  0  0
   54.2974  111.7156   14.9246 C   0  0  0  0  0  0  0  0  0  0  0  0
   52.3306  112.9031   15.3437 C   0  0  0  0  0  0  0  0  0  0  0  0
   54.0600  111.8307   13.5533 C   0  0  0  0  0  0  0  0  0  0  0  0
   52.0711  113.0315   13.9921 C   0  0  0  0  0  0  0  0  0  0  0  0
   52.9478  112.4880   13.0851 C   0  0  0  0  0  0  0  0  0  0  0  0
   52.7214  112.5957   11.6981 O   0  0  0  0  0  0  0  0  0  0  0  0
   54.8862  113.2719   20.1934 N   0  0  0  0  0  0  0  0  0  0  0  0
   55.1356  113.2425   21.6151 C   0  0  2  0  0  0  0  0  0  0  0  0
   54.4588  114.2498   22.4199 C   0  0  0  0  0  0  0  0  0  0  0  0
   55.0472  114.4649   23.5748 O   0  0  0  0  0  0  0  0  0  0  0  0
   56.5172  112.8407   21.9473 C   0  0  2  0  0  0  0  0  0  0  0  0
   56.8473  111.7926   21.0046 O   0  0  0  0  0  0  0  0  0  0  0  0
   56.5555  112.0980   23.2992 C   0  0  0  0  0  0  0  0  0  0  0  0
   53.3155  115.0258   22.2153 N   0  0  0  0  0  0  0  0  0  0  0  0
   52.8972  116.3621   22.5089 C   0  0  2  0  0  0  0  0  0  0  0  0
   51.8614  116.5115   23.5354 C   0  0  0  0  0  0  0  0  0  0  0  0
   51.4128  117.6280   23.8691 O   0  0  0  0  0  0  0  0  0  0  0  0
   52.2899  116.7996   21.1509 C   0  0  0  0  0  0  0  0  0  0  0  0
   51.8468  115.5338   20.4980 C   0  0  0  0  0  0  0  0  0  0  0  0
   52.1218  114.4554   21.5105 C   0  0  0  0  0  0  0  0  0  0  0  0
   51.3551  115.3351   24.1689 N   0  0  0  0  0  0  0  0  0  0  0  0
   50.2777  115.3868   25.1117 C   0  0  2  0  0  0  0  0  0  0  0  0
   50.5515  114.4694   26.2485 C   0  0  0  0  0  0  0  0  0  0  0  0
   51.2583  114.9256   27.3505 O   0  0  0  0  0  0  0  0  0  0  0  0
   48.9665  114.9525   24.4775 C   0  0  0  0  0  0  0  0  0  0  0  0
   48.1087  114.4321   25.4491 O   0  0  0  0  0  0  0  0  0  0  0  0
   50.1571  113.2760   26.2419 O   0  0  0  0  0  0  0  0  0  0  0  0
  2  1  1  6
  2  3  1  0
  2  5  1  0
  3  4  2  0
  3  9  1  0
  5  6  1  0
  6  7  2  0
  6  8  1  0
  9 10  1  0
 10 11  1  0
 10 13  1  1
 11 12  2  0
 11 17  1  0
 13 14  1  0
 14 15  1  0
 14 16  2  0
 17 18  1  0
 18 19  1  0
 18 21  1  6
 19 20  2  0
 19 29  1  0
 21 22  1  0
 22 23  2  0
 22 24  1  0
 23 25  1  0
 24 26  2  0
 25 27  2  0
 26 27  1  0
 27 28  1  0
 30 29  1  6
 30 31  1  0
 30 33  1  0
 31 32  2  0
 31 36  1  0
 33 34  1  0
 33 35  1  1
 36 37  1  0
 36 42  1  0
 37 38  1  1
 37 40  1  0
 38 39  2  0
 38 43  1  0
 40 41  1  0
 41 42  1  0
 43 44  1  0
 44 45  1  0
 44 47  1  6
 45 46  1  0
 45 49  2  0
 47 48  1  0
M  CHG  1   1   1
M  END
$$$$
