
     RDKit          3D

 49 50  0  0  0  0  0  0  0  0999 V2000
   63.1610  113.8215   14.9527 N   0  0  0  0  0  4  0  0  0  0  0  0
   61.8906  114.5515   14.5771 C   0  0  2  0  0  0  0  0  0  0  0  0
   60.8744  114.2575   15.6024 C   0  0  0  0  0  0  0  0  0  0  0  0
   60.8554  113.0416   16.0795 O   0  0  0  0  0  0  0  0  0  0  0  0
   61.5533  114.2288   13.1701 C   0  0  0  0  0  0  0  0  0  0  0  0
   60.3259  114.9164   12.7375 C   0  0  0  0  0  0  0  0  0  0  0  0
   59.3127  114.2996   12.3788 O   0  0  0  0  0  0  0  0  0  0  0  0
   60.3023  116.3104   12.7322 O   0  0  0  0  0  0  0  0  0  0  0  0
   59.9171  115.0981   16.1508 N   0  0  0  0  0  0  0  0  0  0  0  0
   58.9439  114.6652   17.1080 C   0  0  2  0  0  0  0  0  0  0  0  0
   57.9930  113.6708   16.6465 C   0  0  0  0  0  0  0  0  0  0  0  0
   57.5129  113.8402   15.4685 O   0  0  0  0  0  0  0  0  0  0  0  0
   58.2239  115.7746   17.8042 C   0  0  0  0  0  0  0  0  0  0  0  0
   59.0954  116.8528   18.2977 C   0  0  0  0  0  0  0  0  0  0  0  0
   60.1140  117.4260   17.5660 O   0  0  0  0  0  0  0  0  0  0  0  0
   58.8876  117.2698   19.4623 O   0  0  0  0  0  0  0  0  0  0  0  0
   57.5323  112.5336   17.3576 N   0  0  0  0  0  0  0  0  0  0  0  0
   56.2386  111.9415   17.0770 C   0  0  2  0  0  0  0  0  0  0  0  0
   55.2239  112.5472   17.9823 C   0  0  0  0  0  0  0  0  0  0  0  0
   55.6251  113.3701   18.8715 O   0  0  0  0  0  0  0  0  0  0  0  0
   56.2253  110.4840   16.9540 C   0  0  0  0  0  0  0  0  0  0  0  0
   57.4687  109.7821   16.6798 C   0  0  0  0  0  0  0  0  0  0  0  0
   58.6611  110.4308   16.4970 C   0  0  0  0  0  0  0  0  0  0  0  0
   57.4896  108.4073   16.5795 C   0  0  0  0  0  0  0  0  0  0  0  0
   59.8284  109.7424   16.2247 C   0  0  0  0  0  0  0  0  0  0  0  0
   58.6431  107.6928   16.3089 C   0  0  0  0  0  0  0  0  0  0  0  0
   59.8291  108.3780   16.1291 C   0  0  0  0  0  0  0  0  0  0  0  0
   60.9960  107.6566   15.8541 O   0  0  0  0  0  0  0  0  0  0  0  0
   53.8581  112.2743   17.9192 N   0  0  0  0  0  0  0  0  0  0  0  0
   52.8065  113.2100   18.4150 C   0  0  2  0  0  0  0  0  0  0  0  0
   52.2473  112.7060   19.6513 C   0  0  0  0  0  0  0  0  0  0  0  0
   50.9757  113.1020   19.7676 O   0  0  0  0  0  0  0  0  0  0  0  0
   52.0666  113.7383   17.2989 C   0  0  2  0  0  0  0  0  0  0  0  0
   51.8550  112.8100   16.2966 O   0  0  0  0  0  0  0  0  0  0  0  0
   52.7141  114.9405   16.6184 C   0  0  0  0  0  0  0  0  0  0  0  0
   52.6366  111.9423   20.7273 N   0  0  0  0  0  0  0  0  0  0  0  0
   52.6815  112.2817   22.1568 C   0  0  2  0  0  0  0  0  0  0  0  0
   51.9359  113.3652   22.6594 C   0  0  0  0  0  0  0  0  0  0  0  0
   51.5727  113.5419   23.8314 O   0  0  0  0  0  0  0  0  0  0  0  0
   54.1712  112.2312   22.3573 C   0  0  0  0  0  0  0  0  0  0  0  0
   54.5117  110.9185   21.6323 C   0  0  0  0  0  0  0  0  0  0  0  0
   53.2532  110.6485   20.7518 C   0  0  0  0  0  0  0  0  0  0  0  0
   51.5353  114.4015   21.7368 N   0  0  0  0  0  0  0  0  0  0  0  0
   50.9223  115.6165   22.2246 C   0  0  2  0  0  0  0  0  0  0  0  0
   49.5078  115.7356   21.8681 C   0  0  0  0  0  0  0  0  0  0  0  0
   48.8530  114.6997   21.1921 O   0  0  0  0  0  0  0  0  0  0  0  0
   51.6772  116.8299   21.6820 C   0  0  0  0  0  0  0  0  0  0  0  0
   53.0399  116.7579   21.9357 O   0  0  0  0  0  0  0  0  0  0  0  0
   48.8214  116.7600   22.1470 O   0  0  0  0  0  0  0  0  0  0  0  0
  1  2  1  6
  2  3  1  1
  2  5  1  0
  3  4  2  0
  3  9  1  0
  5  6  1  6
  6  7  2  0
  6  8  1  0
 10  9  1  6
 10 11  1  0
 10 13  1  0
 11 12  2  0
 11 17  1  0
 13 14  1  6
 14 15  1  0
 14 16  2  0
 18 17  1  1
 18 19  1  0
 18 21  1  0
 19 20  2  0
 19 29  1  0
 21 22  1  6
 22 23  2  0
 22 24  1  0
 23 25  1  0
 24 26  2  0
 25 27  2  0
 26 27  1  0
 27 28  1  0
 30 29  1  6
 30 31  1  0
 30 33  1  0
 31 32  2  0
 31 36  1  0
 33 34  1  6
 35 33  1  6
 36 37  1  0
 42 36  1  1
 37 38  1  6
 40 37  1  1
 38 39  2  0
 38 43  1  0
 40 41  1  0
 41 42  1  6
 44 43  1  6
 44 45  1  0
 44 47  1  0
 45 46  1  0
 45 49  2  0
 47 48  1  6
M  CHG  1   1   1
M  END
$$$$
