
     RDKit          3D

 49 50  0  0  0  0  0  0  0  0999 V2000
   63.2475  116.6877   12.6549 N   0  0  0  0  0  4  0  0  0  0  0  0
   61.8237  116.5868   12.9816 C   0  0  2  0  0  0  0  0  0  0  0  0
   61.6676  115.8615   14.2839 C   0  0  0  0  0  0  0  0  0  0  0  0
   62.6339  115.4436   14.9588 O   0  0  0  0  0  0  0  0  0  0  0  0
   61.1640  115.9176   11.8276 C   0  0  0  0  0  0  0  0  0  0  0  0
   61.9499  115.8518   10.5898 C   0  0  0  0  0  0  0  0  0  0  0  0
   61.6805  116.6421    9.6574 O   0  0  0  0  0  0  0  0  0  0  0  0
   62.9693  114.9468   10.4284 O   0  0  0  0  0  0  0  0  0  0  0  0
   60.3679  115.6066   14.8303 N   0  0  0  0  0  0  0  0  0  0  0  0
   60.1439  114.8146   16.0333 C   0  0  2  0  0  0  0  0  0  0  0  0
   58.7436  114.3269   16.0941 C   0  0  0  0  0  0  0  0  0  0  0  0
   57.9453  114.6320   15.2046 O   0  0  0  0  0  0  0  0  0  0  0  0
   60.4751  115.5675   17.2726 C   0  0  0  0  0  0  0  0  0  0  0  0
   60.3339  114.7206   18.4651 C   0  0  0  0  0  0  0  0  0  0  0  0
   59.2116  114.8037   19.2685 O   0  0  0  0  0  0  0  0  0  0  0  0
   61.2285  113.9056   18.7784 O   0  0  0  0  0  0  0  0  0  0  0  0
   58.2816  113.5197   17.1424 N   0  0  0  0  0  0  0  0  0  0  0  0
   57.0156  112.9692   17.3900 C   0  0  2  0  0  0  0  0  0  0  0  0
   56.9553  112.2443   18.7286 C   0  0  0  0  0  0  0  0  0  0  0  0
   57.9790  111.7735   19.2378 O   0  0  0  0  0  0  0  0  0  0  0  0
   56.3564  112.1241   16.3839 C   0  0  0  0  0  0  0  0  0  0  0  0
   56.9751  110.8054   16.1672 C   0  0  0  0  0  0  0  0  0  0  0  0
   58.0397  110.4118   16.9433 C   0  0  0  0  0  0  0  0  0  0  0  0
   56.5476  109.9220   15.2148 C   0  0  0  0  0  0  0  0  0  0  0  0
   58.6449  109.1672   16.7568 C   0  0  0  0  0  0  0  0  0  0  0  0
   57.1277  108.6844   15.0089 C   0  0  0  0  0  0  0  0  0  0  0  0
   58.1906  108.3023   15.7905 C   0  0  0  0  0  0  0  0  0  0  0  0
   58.8115  107.0493   15.6143 O   0  0  0  0  0  0  0  0  0  0  0  0
   55.7130  112.1261   19.3595 N   0  0  0  0  0  0  0  0  0  0  0  0
   54.9766  113.0611   20.1767 C   0  0  2  0  0  0  0  0  0  0  0  0
   53.5246  112.9557   20.1463 C   0  0  0  0  0  0  0  0  0  0  0  0
   52.9523  113.9351   19.4835 O   0  0  0  0  0  0  0  0  0  0  0  0
   55.6172  114.3897   20.2480 C   0  0  2  0  0  0  0  0  0  0  0  0
   56.6304  114.3812   19.2138 O   0  0  0  0  0  0  0  0  0  0  0  0
   56.4564  114.5184   21.5364 C   0  0  0  0  0  0  0  0  0  0  0  0
   52.6227  112.0317   20.6793 N   0  0  0  0  0  0  0  0  0  0  0  0
   51.2068  111.9472   20.8671 C   0  0  2  0  0  0  0  0  0  0  0  0
   50.7249  112.0349   22.2487 C   0  0  0  0  0  0  0  0  0  0  0  0
   51.3653  111.5557   23.2075 O   0  0  0  0  0  0  0  0  0  0  0  0
   50.9130  110.5155   20.3491 C   0  0  0  0  0  0  0  0  0  0  0  0
   52.1840  109.7613   20.5505 C   0  0  0  0  0  0  0  0  0  0  0  0
   53.1068  110.7287   21.2405 C   0  0  0  0  0  0  0  0  0  0  0  0
   49.4805  112.6922   22.4958 N   0  0  0  0  0  0  0  0  0  0  0  0
   49.3260  114.1070   22.3318 C   0  0  2  0  0  0  0  0  0  0  0  0
   47.9100  114.4948   22.5637 C   0  0  0  0  0  0  0  0  0  0  0  0
   47.5387  115.8289   22.4979 O   0  0  0  0  0  0  0  0  0  0  0  0
   49.6965  114.5444   20.9241 C   0  0  0  0  0  0  0  0  0  0  0  0
   49.6578  115.9369   20.8246 O   0  0  0  0  0  0  0  0  0  0  0  0
   47.0263  113.6390   22.8215 O   0  0  0  0  0  0  0  0  0  0  0  0
  2  1  1  6
  2  3  1  0
  2  5  1  0
  3  4  2  0
  3  9  1  0
  5  6  1  0
  6  7  2  0
  6  8  1  0
  9 10  1  0
 10 11  1  0
 10 13  1  1
 11 12  2  0
 11 17  1  0
 13 14  1  0
 14 15  1  0
 14 16  2  0
 17 18  1  0
 18 19  1  0
 18 21  1  6
 19 20  2  0
 19 29  1  0
 21 22  1  0
 22 23  2  0
 22 24  1  0
 23 25  1  0
 24 26  2  0
 25 27  2  0
 26 27  1  0
 27 28  1  0
 30 29  1  6
 30 31  1  0
 30 33  1  0
 31 32  2  0
 31 36  1  0
 33 34  1  0
 33 35  1  1
 36 37  1  0
 36 42  1  0
 37 38  1  1
 37 40  1  0
 38 39  2  0
 38 43  1  0
 40 41  1  0
 41 42  1  0
 43 44  1  0
 44 45  1  0
 44 47  1  6
 45 46  1  0
 45 49  2  0
 47 48  1  0
M  CHG  1   1   1
M  END
$$$$
