
     RDKit          3D

 49 50  0  0  0  0  0  0  0  0999 V2000
   60.0146  118.8355   12.2536 N   0  0  0  0  0  4  0  0  0  0  0  0
   60.5219  118.2773   13.5646 C   0  0  2  0  0  0  0  0  0  0  0  0
   59.7971  117.0243   13.8389 C   0  0  0  0  0  0  0  0  0  0  0  0
   59.0773  116.5364   12.8642 O   0  0  0  0  0  0  0  0  0  0  0  0
   60.4567  119.3424   14.5936 C   0  0  0  0  0  0  0  0  0  0  0  0
   61.4458  119.1232   15.6615 C   0  0  0  0  0  0  0  0  0  0  0  0
   61.6193  119.9364   16.5804 O   0  0  0  0  0  0  0  0  0  0  0  0
   62.2131  117.9594   15.6388 O   0  0  0  0  0  0  0  0  0  0  0  0
   59.7675  116.2679   15.0010 N   0  0  0  0  0  0  0  0  0  0  0  0
   60.0818  114.8713   15.0403 C   0  0  2  0  0  0  0  0  0  0  0  0
   60.0729  114.2517   16.3526 C   0  0  0  0  0  0  0  0  0  0  0  0
   61.1646  114.3161   17.0241 O   0  0  0  0  0  0  0  0  0  0  0  0
   61.3295  114.4965   14.3078 C   0  0  0  0  0  0  0  0  0  0  0  0
   61.6387  113.0580   14.3251 C   0  0  0  0  0  0  0  0  0  0  0  0
   60.6956  112.0612   14.4606 O   0  0  0  0  0  0  0  0  0  0  0  0
   62.8436  112.7294   14.2076 O   0  0  0  0  0  0  0  0  0  0  0  0
   58.9900  113.5780   16.9725 N   0  0  0  0  0  0  0  0  0  0  0  0
   57.9668  114.3042   17.6998 C   0  0  2  0  0  0  0  0  0  0  0  0
   56.6981  113.5268   17.6536 C   0  0  0  0  0  0  0  0  0  0  0  0
   55.6482  114.1125   17.2251 O   0  0  0  0  0  0  0  0  0  0  0  0
   57.8750  115.7333   17.4014 C   0  0  0  0  0  0  0  0  0  0  0  0
   56.9042  116.5476   18.1143 C   0  0  0  0  0  0  0  0  0  0  0  0
   55.5791  116.2127   18.2035 C   0  0  0  0  0  0  0  0  0  0  0  0
   57.2899  117.7194   18.7297 C   0  0  0  0  0  0  0  0  0  0  0  0
   54.6720  117.0098   18.8763 C   0  0  0  0  0  0  0  0  0  0  0  0
   56.4040  118.5356   19.4104 C   0  0  0  0  0  0  0  0  0  0  0  0
   55.0739  118.1691   19.4808 C   0  0  0  0  0  0  0  0  0  0  0  0
   54.1769  118.9943   20.1678 O   0  0  0  0  0  0  0  0  0  0  0  0
   56.5832  112.1942   18.0473 N   0  0  0  0  0  0  0  0  0  0  0  0
   55.4249  111.6603   18.8220 C   0  0  2  0  0  0  0  0  0  0  0  0
   54.3122  112.5819   18.7352 C   0  0  0  0  0  0  0  0  0  0  0  0
   54.7014  113.7998   19.1258 O   0  0  0  0  0  0  0  0  0  0  0  0
   55.9015  111.0112   20.0152 C   0  0  2  0  0  0  0  0  0  0  0  0
   57.1625  110.4633   19.8713 O   0  0  0  0  0  0  0  0  0  0  0  0
   55.0139  109.8779   20.5205 C   0  0  0  0  0  0  0  0  0  0  0  0
   52.9866  112.5716   18.3668 N   0  0  0  0  0  0  0  0  0  0  0  0
   51.7767  112.5572   19.2013 C   0  0  2  0  0  0  0  0  0  0  0  0
   51.8336  112.9509   20.5520 C   0  0  0  0  0  0  0  0  0  0  0  0
   52.6639  112.5924   21.3999 O   0  0  0  0  0  0  0  0  0  0  0  0
   51.2604  111.1937   18.8324 C   0  0  0  0  0  0  0  0  0  0  0  0
   51.4174  111.2341   17.3031 C   0  0  0  0  0  0  0  0  0  0  0  0
   52.4028  112.4194   17.0666 C   0  0  0  0  0  0  0  0  0  0  0  0
   50.8316  113.8722   21.0349 N   0  0  0  0  0  0  0  0  0  0  0  0
   50.7867  114.2349   22.4336 C   0  0  2  0  0  0  0  0  0  0  0  0
   49.5327  113.8612   23.0892 C   0  0  0  0  0  0  0  0  0  0  0  0
   49.3754  114.0196   24.4710 O   0  0  0  0  0  0  0  0  0  0  0  0
   50.9982  115.7413   22.5837 C   0  0  0  0  0  0  0  0  0  0  0  0
   49.8540  116.4659   22.2797 O   0  0  0  0  0  0  0  0  0  0  0  0
   48.5494  113.3854   22.4527 O   0  0  0  0  0  0  0  0  0  0  0  0
  1  2  1  6
  2  3  1  1
  2  5  1  0
  3  4  2  0
  3  9  1  0
  5  6  1  6
  6  7  2  0
  6  8  1  0
 10  9  1  1
 10 11  1  0
 10 13  1  0
 11 12  2  0
 11 17  1  0
 13 14  1  6
 14 15  1  0
 14 16  2  0
 18 17  1  6
 18 19  1  0
 18 21  1  0
 19 20  2  0
 19 29  1  0
 21 22  1  6
 22 23  2  0
 22 24  1  0
 23 25  1  0
 24 26  2  0
 25 27  2  0
 26 27  1  0
 27 28  1  0
 30 29  1  1
 30 31  1  0
 30 33  1  0
 31 32  2  0
 31 36  1  0
 33 34  1  6
 35 33  1  6
 36 37  1  0
 42 36  1  1
 37 38  1  1
 40 37  1  1
 38 39  2  0
 38 43  1  0
 40 41  1  0
 41 42  1  6
 44 43  1  6
 44 45  1  0
 44 47  1  0
 45 46  1  0
 45 49  2  0
 47 48  1  6
M  CHG  1   1   1
M  END
$$$$
