
     RDKit          3D

 49 50  0  0  0  0  0  0  0  0999 V2000
   61.9107  117.5756   15.5826 N   0  0  0  0  0  4  0  0  0  0  0  0
   60.4481  117.8237   15.2878 C   0  0  2  0  0  0  0  0  0  0  0  0
   59.7393  116.5350   15.3752 C   0  0  0  0  0  0  0  0  0  0  0  0
   58.6063  116.4426   14.7317 O   0  0  0  0  0  0  0  0  0  0  0  0
   60.3390  118.5773   14.0159 C   0  0  0  0  0  0  0  0  0  0  0  0
   58.9377  118.8904   13.6920 C   0  0  0  0  0  0  0  0  0  0  0  0
   58.4170  118.5604   12.6169 O   0  0  0  0  0  0  0  0  0  0  0  0
   58.1692  119.5812   14.6279 O   0  0  0  0  0  0  0  0  0  0  0  0
   60.1053  115.3799   16.0501 N   0  0  0  0  0  0  0  0  0  0  0  0
   59.3709  114.1533   15.9680 C   0  0  2  0  0  0  0  0  0  0  0  0
   58.0273  114.1760   16.5161 C   0  0  0  0  0  0  0  0  0  0  0  0
   57.7471  115.1473   17.3066 O   0  0  0  0  0  0  0  0  0  0  0  0
   60.1077  112.9553   16.4736 C   0  0  0  0  0  0  0  0  0  0  0  0
   59.9496  112.7049   17.9150 C   0  0  0  0  0  0  0  0  0  0  0  0
   60.5967  111.7022   18.6059 O   0  0  0  0  0  0  0  0  0  0  0  0
   59.1722  113.4605   18.5460 O   0  0  0  0  0  0  0  0  0  0  0  0
   56.9905  113.2384   16.2769 N   0  0  0  0  0  0  0  0  0  0  0  0
   55.6692  113.4128   16.8486 C   0  0  2  0  0  0  0  0  0  0  0  0
   55.6042  112.6840   18.1450 C   0  0  0  0  0  0  0  0  0  0  0  0
   55.6575  111.4090   18.1225 O   0  0  0  0  0  0  0  0  0  0  0  0
   54.5516  113.2161   15.9255 C   0  0  0  0  0  0  0  0  0  0  0  0
   53.2277  112.9418   16.4601 C   0  0  0  0  0  0  0  0  0  0  0  0
   52.1329  112.7419   15.6616 C   0  0  0  0  0  0  0  0  0  0  0  0
   53.0202  112.8839   17.8218 C   0  0  0  0  0  0  0  0  0  0  0  0
   50.8812  112.4951   16.1935 C   0  0  0  0  0  0  0  0  0  0  0  0
   51.7790  112.6378   18.3813 C   0  0  0  0  0  0  0  0  0  0  0  0
   50.6952  112.4414   17.5474 C   0  0  0  0  0  0  0  0  0  0  0  0
   49.4392  112.1937   18.1121 O   0  0  0  0  0  0  0  0  0  0  0  0
   55.4910  113.3072   19.3871 N   0  0  0  0  0  0  0  0  0  0  0  0
   55.0991  112.5909   20.6363 C   0  0  2  0  0  0  0  0  0  0  0  0
   53.6562  112.5214   20.7278 C   0  0  0  0  0  0  0  0  0  0  0  0
   53.1405  113.7544   20.6960 O   0  0  0  0  0  0  0  0  0  0  0  0
   56.0034  112.9454   21.6988 C   0  0  2  0  0  0  0  0  0  0  0  0
   57.3137  112.5877   21.4417 O   0  0  0  0  0  0  0  0  0  0  0  0
   55.6654  112.3303   23.0534 C   0  0  0  0  0  0  0  0  0  0  0  0
   52.6710  111.5667   20.8314 N   0  0  0  0  0  0  0  0  0  0  0  0
   51.5659  111.4536   21.7940 C   0  0  2  0  0  0  0  0  0  0  0  0
   51.1435  112.5743   22.5344 C   0  0  0  0  0  0  0  0  0  0  0  0
   50.5425  112.5695   23.6187 O   0  0  0  0  0  0  0  0  0  0  0  0
   52.0063  110.2019   22.5020 C   0  0  0  0  0  0  0  0  0  0  0  0
   52.3806  109.3138   21.3036 C   0  0  0  0  0  0  0  0  0  0  0  0
   52.5249  110.3269   20.1269 C   0  0  0  0  0  0  0  0  0  0  0  0
   51.4256  113.8869   22.0023 N   0  0  0  0  0  0  0  0  0  0  0  0
   50.9630  115.0697   22.6929 C   0  0  2  0  0  0  0  0  0  0  0  0
   51.1838  116.3046   21.9391 C   0  0  0  0  0  0  0  0  0  0  0  0
   50.7810  117.5398   22.4596 O   0  0  0  0  0  0  0  0  0  0  0  0
   51.6597  115.1819   24.0489 C   0  0  0  0  0  0  0  0  0  0  0  0
   52.9297  114.6221   24.0354 O   0  0  0  0  0  0  0  0  0  0  0  0
   51.7375  116.3163   20.8025 O   0  0  0  0  0  0  0  0  0  0  0  0
  1  2  1  6
  2  3  1  6
  2  5  1  0
  3  4  2  0
  3  9  1  0
  5  6  1  6
  6  7  2  0
  6  8  1  0
 10  9  1  1
 10 11  1  0
 10 13  1  0
 11 12  2  0
 11 17  1  0
 13 14  1  6
 14 15  1  0
 14 16  2  0
 18 17  1  6
 18 19  1  0
 18 21  1  0
 19 20  2  0
 19 29  1  0
 21 22  1  6
 22 23  2  0
 22 24  1  0
 23 25  1  0
 24 26  2  0
 25 27  2  0
 26 27  1  0
 27 28  1  0
 30 29  1  6
 30 31  1  0
 30 33  1  0
 31 32  2  0
 31 36  1  0
 33 34  1  6
 35 33  1  6
 36 37  1  0
 42 36  1  1
 37 38  1  1
 40 37  1  1
 38 39  2  0
 38 43  1  0
 40 41  1  0
 41 42  1  6
 44 43  1  6
 44 45  1  0
 44 47  1  0
 45 46  1  0
 45 49  2  0
 47 48  1  6
M  CHG  1   1   1
M  END
$$$$
