
     RDKit          3D

 49 50  0  0  0  0  0  0  0  0999 V2000
   62.9477  114.1084   16.4738 N   0  0  0  0  0  4  0  0  0  0  0  0
   62.1778  115.2836   15.9137 C   0  0  2  0  0  0  0  0  0  0  0  0
   60.9351  115.4285   16.6918 C   0  0  0  0  0  0  0  0  0  0  0  0
   60.8158  116.5115   17.4124 O   0  0  0  0  0  0  0  0  0  0  0  0
   62.0482  115.1135   14.4468 C   0  0  0  0  0  0  0  0  0  0  0  0
   63.2679  114.5349   13.8602 C   0  0  0  0  0  0  0  0  0  0  0  0
   64.2944  115.2036   13.6737 O   0  0  0  0  0  0  0  0  0  0  0  0
   63.2683  113.1872   13.5031 O   0  0  0  0  0  0  0  0  0  0  0  0
   59.8487  114.5700   16.7721 N   0  0  0  0  0  0  0  0  0  0  0  0
   58.5134  115.0122   17.0406 C   0  0  2  0  0  0  0  0  0  0  0  0
   57.4916  113.9818   17.0600 C   0  0  0  0  0  0  0  0  0  0  0  0
   56.5891  114.0525   16.1504 O   0  0  0  0  0  0  0  0  0  0  0  0
   58.0613  116.1629   16.2007 C   0  0  0  0  0  0  0  0  0  0  0  0
   58.2283  117.4818   16.8315 C   0  0  0  0  0  0  0  0  0  0  0  0
   58.2100  117.7008   18.1928 O   0  0  0  0  0  0  0  0  0  0  0  0
   58.3982  118.4639   16.0699 O   0  0  0  0  0  0  0  0  0  0  0  0
   57.3788  112.9069   17.9780 N   0  0  0  0  0  0  0  0  0  0  0  0
   56.2983  111.9443   17.8833 C   0  0  2  0  0  0  0  0  0  0  0  0
   55.0063  112.6436   18.1237 C   0  0  0  0  0  0  0  0  0  0  0  0
   55.0425  113.8571   18.5173 O   0  0  0  0  0  0  0  0  0  0  0  0
   56.5096  110.6863   18.5993 C   0  0  0  0  0  0  0  0  0  0  0  0
   57.6445  109.8490   18.2460 C   0  0  0  0  0  0  0  0  0  0  0  0
   58.5199  110.1719   17.2432 C   0  0  0  0  0  0  0  0  0  0  0  0
   57.8780  108.6667   18.9155 C   0  0  0  0  0  0  0  0  0  0  0  0
   59.5848  109.3532   16.9170 C   0  0  0  0  0  0  0  0  0  0  0  0
   58.9361  107.8289   18.6108 C   0  0  0  0  0  0  0  0  0  0  0  0
   59.8002  108.1838   17.5929 C   0  0  0  0  0  0  0  0  0  0  0  0
   60.8698  107.3368   17.2830 O   0  0  0  0  0  0  0  0  0  0  0  0
   53.7545  112.0566   17.9433 N   0  0  0  0  0  0  0  0  0  0  0  0
   52.4666  112.7849   18.1383 C   0  0  2  0  0  0  0  0  0  0  0  0
   51.9930  112.5868   19.4916 C   0  0  0  0  0  0  0  0  0  0  0  0
   51.5343  113.7418   19.9844 O   0  0  0  0  0  0  0  0  0  0  0  0
   51.6765  112.6960   16.9382 C   0  0  2  0  0  0  0  0  0  0  0  0
   52.3814  113.0252   15.7956 O   0  0  0  0  0  0  0  0  0  0  0  0
   50.4347  113.5821   16.9272 C   0  0  0  0  0  0  0  0  0  0  0  0
   51.8734  111.5666   20.4069 N   0  0  0  0  0  0  0  0  0  0  0  0
   52.0837  111.5764   21.8617 C   0  0  2  0  0  0  0  0  0  0  0  0
   52.0686  112.7877   22.5794 C   0  0  0  0  0  0  0  0  0  0  0  0
   53.0022  113.5940   22.7029 O   0  0  0  0  0  0  0  0  0  0  0  0
   53.2857  110.6748   21.9253 C   0  0  0  0  0  0  0  0  0  0  0  0
   52.8396  109.5392   20.9891 C   0  0  0  0  0  0  0  0  0  0  0  0
   51.6573  110.1665   20.1887 C   0  0  0  0  0  0  0  0  0  0  0  0
   50.8491  113.1624   23.2562 N   0  0  0  0  0  0  0  0  0  0  0  0
   50.7069  114.4829   23.8271 C   0  0  2  0  0  0  0  0  0  0  0  0
   49.4071  114.7026   24.4629 C   0  0  0  0  0  0  0  0  0  0  0  0
   48.3816  113.7587   24.3345 O   0  0  0  0  0  0  0  0  0  0  0  0
   50.9167  115.5399   22.7430 C   0  0  0  0  0  0  0  0  0  0  0  0
   49.8913  116.4749   22.7148 O   0  0  0  0  0  0  0  0  0  0  0  0
   49.1511  115.7356   25.1453 O   0  0  0  0  0  0  0  0  0  0  0  0
  1  2  1  6
  2  3  1  1
  2  5  1  0
  3  4  2  0
  3  9  1  0
  5  6  1  6
  6  7  2  0
  6  8  1  0
 10  9  1  6
 10 11  1  0
 10 13  1  0
 11 12  2  0
 11 17  1  0
 13 14  1  6
 14 15  1  0
 14 16  2  0
 18 17  1  1
 18 19  1  0
 18 21  1  0
 19 20  2  0
 19 29  1  0
 21 22  1  6
 22 23  2  0
 22 24  1  0
 23 25  1  0
 24 26  2  0
 25 27  2  0
 26 27  1  0
 27 28  1  0
 30 29  1  6
 30 31  1  0
 30 33  1  0
 31 32  2  0
 31 36  1  0
 33 34  1  6
 35 33  1  6
 36 37  1  0
 42 36  1  1
 37 38  1  6
 40 37  1  1
 38 39  2  0
 38 43  1  0
 40 41  1  0
 41 42  1  6
 44 43  1  6
 44 45  1  0
 44 47  1  0
 45 46  1  0
 45 49  2  0
 47 48  1  6
M  CHG  1   1   1
M  END
$$$$
