
     RDKit          3D

 49 50  0  0  0  0  0  0  0  0999 V2000
   60.5372  117.9137   12.4580 N   0  0  0  0  0  4  0  0  0  0  0  0
   60.4778  117.5893   13.8846 C   0  0  2  0  0  0  0  0  0  0  0  0
   59.9682  116.1895   14.0504 C   0  0  0  0  0  0  0  0  0  0  0  0
   59.2618  115.6089   13.1973 O   0  0  0  0  0  0  0  0  0  0  0  0
   59.6275  118.6281   14.5269 C   0  0  0  0  0  0  0  0  0  0  0  0
   59.7036  118.7038   15.9907 C   0  0  0  0  0  0  0  0  0  0  0  0
   58.7504  119.2126   16.6223 O   0  0  0  0  0  0  0  0  0  0  0  0
   60.7917  118.2335   16.6828 O   0  0  0  0  0  0  0  0  0  0  0  0
   60.2758  115.4314   15.2267 N   0  0  0  0  0  0  0  0  0  0  0  0
   59.7739  114.0844   15.4678 C   0  0  2  0  0  0  0  0  0  0  0  0
   58.4530  114.1234   16.1433 C   0  0  0  0  0  0  0  0  0  0  0  0
   58.2369  114.9565   17.0270 O   0  0  0  0  0  0  0  0  0  0  0  0
   60.7269  113.2621   16.2603 C   0  0  0  0  0  0  0  0  0  0  0  0
   62.1199  113.5959   15.9326 C   0  0  0  0  0  0  0  0  0  0  0  0
   62.7344  114.7057   16.4827 O   0  0  0  0  0  0  0  0  0  0  0  0
   62.7794  112.8813   15.1470 O   0  0  0  0  0  0  0  0  0  0  0  0
   57.4218  113.2339   15.8132 N   0  0  0  0  0  0  0  0  0  0  0  0
   56.1798  112.9993   16.4211 C   0  0  2  0  0  0  0  0  0  0  0  0
   56.3185  112.6536   17.8984 C   0  0  0  0  0  0  0  0  0  0  0  0
   57.2851  111.9984   18.3050 O   0  0  0  0  0  0  0  0  0  0  0  0
   55.2177  112.0629   15.8223 C   0  0  0  0  0  0  0  0  0  0  0  0
   54.0355  111.7624   16.6474 C   0  0  0  0  0  0  0  0  0  0  0  0
   53.1078  110.8475   16.2082 C   0  0  0  0  0  0  0  0  0  0  0  0
   53.7930  112.3532   17.8566 C   0  0  0  0  0  0  0  0  0  0  0  0
   51.9776  110.5461   16.9710 C   0  0  0  0  0  0  0  0  0  0  0  0
   52.6834  112.0735   18.6319 C   0  0  0  0  0  0  0  0  0  0  0  0
   51.7635  111.1577   18.1827 C   0  0  0  0  0  0  0  0  0  0  0  0
   50.6182  110.8429   18.9415 O   0  0  0  0  0  0  0  0  0  0  0  0
   55.3232  113.0956   18.7756 N   0  0  0  0  0  0  0  0  0  0  0  0
   55.2208  112.9995   20.2125 C   0  0  2  0  0  0  0  0  0  0  0  0
   54.0009  113.5145   20.8182 C   0  0  0  0  0  0  0  0  0  0  0  0
   53.8774  114.8169   20.6968 O   0  0  0  0  0  0  0  0  0  0  0  0
   56.5173  113.1864   20.8942 C   0  0  2  0  0  0  0  0  0  0  0  0
   57.1889  114.2358   20.1567 O   0  0  0  0  0  0  0  0  0  0  0  0
   57.4358  111.9698   20.6549 C   0  0  0  0  0  0  0  0  0  0  0  0
   52.9440  112.9082   21.5013 N   0  0  0  0  0  0  0  0  0  0  0  0
   51.6626  112.3661   21.1678 C   0  0  2  0  0  0  0  0  0  0  0  0
   50.4939  113.1226   21.6269 C   0  0  0  0  0  0  0  0  0  0  0  0
   49.3318  112.6775   21.5237 O   0  0  0  0  0  0  0  0  0  0  0  0
   51.6900  111.0185   21.9342 C   0  0  0  0  0  0  0  0  0  0  0  0
   52.6243  111.2400   23.0757 C   0  0  0  0  0  0  0  0  0  0  0  0
   53.0179  112.6890   22.9823 C   0  0  0  0  0  0  0  0  0  0  0  0
   50.7018  114.4103   22.2100 N   0  0  0  0  0  0  0  0  0  0  0  0
   50.2938  115.6149   21.5506 C   0  0  2  0  0  0  0  0  0  0  0  0
   50.6845  116.7971   22.3623 C   0  0  0  0  0  0  0  0  0  0  0  0
   50.5759  118.0708   21.8258 O   0  0  0  0  0  0  0  0  0  0  0  0
   48.7855  115.6621   21.3685 C   0  0  0  0  0  0  0  0  0  0  0  0
   48.4007  116.8967   20.8410 O   0  0  0  0  0  0  0  0  0  0  0  0
   51.1167  116.6765   23.5364 O   0  0  0  0  0  0  0  0  0  0  0  0
  2  1  1  6
  2  3  1  0
  2  5  1  0
  3  4  2  0
  3  9  1  0
  5  6  1  0
  6  7  2  0
  6  8  1  0
  9 10  1  0
 10 11  1  0
 10 13  1  1
 11 12  2  0
 11 17  1  0
 13 14  1  0
 14 15  1  0
 14 16  2  0
 17 18  1  0
 18 19  1  0
 18 21  1  6
 19 20  2  0
 19 29  1  0
 21 22  1  0
 22 23  2  0
 22 24  1  0
 23 25  1  0
 24 26  2  0
 25 27  2  0
 26 27  1  0
 27 28  1  0
 30 29  1  6
 30 31  1  0
 30 33  1  0
 31 32  2  0
 31 36  1  0
 33 34  1  0
 33 35  1  6
 36 37  1  0
 36 42  1  0
 37 38  1  1
 37 40  1  0
 38 39  2  0
 38 43  1  0
 40 41  1  0
 41 42  1  0
 43 44  1  0
 44 45  1  0
 44 47  1  1
 45 46  1  0
 45 49  2  0
 47 48  1  0
M  CHG  1   1   1
M  END
$$$$
