
     RDKit          3D

 49 50  0  0  0  0  0  0  0  0999 V2000
   61.8806  117.2869   13.3563 N   0  0  0  0  0  4  0  0  0  0  0  0
   60.5302  117.1818   13.9127 C   0  0  2  0  0  0  0  0  0  0  0  0
   60.4639  115.9926   14.8226 C   0  0  0  0  0  0  0  0  0  0  0  0
   61.4762  115.3911   15.2436 O   0  0  0  0  0  0  0  0  0  0  0  0
   59.5930  117.1199   12.7584 C   0  0  0  0  0  0  0  0  0  0  0  0
   59.5699  118.3009   11.8874 C   0  0  0  0  0  0  0  0  0  0  0  0
   58.7979  118.3133   10.9023 O   0  0  0  0  0  0  0  0  0  0  0  0
   60.3726  119.3890   12.1240 O   0  0  0  0  0  0  0  0  0  0  0  0
   59.2024  115.4762   15.2639 N   0  0  0  0  0  0  0  0  0  0  0  0
   59.0182  114.7826   16.5326 C   0  0  2  0  0  0  0  0  0  0  0  0
   57.6147  114.3264   16.6889 C   0  0  0  0  0  0  0  0  0  0  0  0
   56.7777  115.0725   17.2030 O   0  0  0  0  0  0  0  0  0  0  0  0
   59.4133  115.6218   17.6954 C   0  0  0  0  0  0  0  0  0  0  0  0
   59.1278  114.9412   18.9660 C   0  0  0  0  0  0  0  0  0  0  0  0
   58.5386  115.6167   20.0187 O   0  0  0  0  0  0  0  0  0  0  0  0
   59.4130  113.7340   19.1212 O   0  0  0  0  0  0  0  0  0  0  0  0
   57.1938  113.0571   16.2700 N   0  0  0  0  0  0  0  0  0  0  0  0
   56.2790  112.1579   16.8373 C   0  0  2  0  0  0  0  0  0  0  0  0
   55.6119  112.7255   18.0838 C   0  0  0  0  0  0  0  0  0  0  0  0
   55.9672  113.8147   18.5491 O   0  0  0  0  0  0  0  0  0  0  0  0
   56.6715  110.7702   17.1223 C   0  0  0  0  0  0  0  0  0  0  0  0
   55.5595  109.8484   17.4098 C   0  0  0  0  0  0  0  0  0  0  0  0
   55.5166  109.1797   18.6104 C   0  0  0  0  0  0  0  0  0  0  0  0
   54.5381  109.6065   16.5333 C   0  0  0  0  0  0  0  0  0  0  0  0
   54.4740  108.2992   18.9067 C   0  0  0  0  0  0  0  0  0  0  0  0
   53.4942  108.7408   16.8007 C   0  0  0  0  0  0  0  0  0  0  0  0
   53.4622  108.0783   18.0036 C   0  0  0  0  0  0  0  0  0  0  0  0
   52.4163  107.1870   18.3169 O   0  0  0  0  0  0  0  0  0  0  0  0
   54.5922  111.9802   18.6839 N   0  0  0  0  0  0  0  0  0  0  0  0
   53.2921  112.3785   19.1690 C   0  0  2  0  0  0  0  0  0  0  0  0
   53.1052  113.7938   19.4556 C   0  0  0  0  0  0  0  0  0  0  0  0
   54.2373  114.4561   19.5328 O   0  0  0  0  0  0  0  0  0  0  0  0
   52.6682  111.3620   20.0397 C   0  0  2  0  0  0  0  0  0  0  0  0
   53.3541  111.4738   21.3097 O   0  0  0  0  0  0  0  0  0  0  0  0
   53.0532  109.9414   19.5763 C   0  0  0  0  0  0  0  0  0  0  0  0
   51.9730  114.5840   19.6678 N   0  0  0  0  0  0  0  0  0  0  0  0
   51.6997  115.9637   19.9300 C   0  0  2  0  0  0  0  0  0  0  0  0
   51.2164  116.2896   21.2749 C   0  0  0  0  0  0  0  0  0  0  0  0
   50.9123  117.4541   21.6077 O   0  0  0  0  0  0  0  0  0  0  0  0
   50.5500  116.2452   18.9284 C   0  0  0  0  0  0  0  0  0  0  0  0
   49.8904  114.9247   18.7135 C   0  0  0  0  0  0  0  0  0  0  0  0
   50.6025  113.9773   19.6402 C   0  0  0  0  0  0  0  0  0  0  0  0
   51.0924  115.2333   22.2290 N   0  0  0  0  0  0  0  0  0  0  0  0
   50.6791  115.4769   23.5789 C   0  0  2  0  0  0  0  0  0  0  0  0
   50.1436  116.8575   23.7061 C   0  0  0  0  0  0  0  0  0  0  0  0
   49.0671  117.2560   22.9286 O   0  0  0  0  0  0  0  0  0  0  0  0
   51.8441  115.3461   24.5462 C   0  0  0  0  0  0  0  0  0  0  0  0
   52.9195  114.7080   23.9242 O   0  0  0  0  0  0  0  0  0  0  0  0
   50.6432  117.6868   24.5075 O   0  0  0  0  0  0  0  0  0  0  0  0
  2  1  1  6
  2  3  1  0
  2  5  1  0
  3  4  2  0
  3  9  1  0
  5  6  1  0
  6  7  2  0
  6  8  1  0
  9 10  1  0
 10 11  1  0
 10 13  1  1
 11 12  2  0
 11 17  1  0
 13 14  1  0
 14 15  1  0
 14 16  2  0
 17 18  1  0
 18 19  1  0
 18 21  1  1
 19 20  2  0
 19 29  1  0
 21 22  1  0
 22 23  2  0
 22 24  1  0
 23 25  1  0
 24 26  2  0
 25 27  2  0
 26 27  1  0
 27 28  1  0
 30 29  1  1
 30 31  1  0
 30 33  1  0
 31 32  2  0
 31 36  1  0
 33 34  1  0
 33 35  1  6
 36 37  1  0
 36 42  1  0
 37 38  1  1
 37 40  1  0
 38 39  2  0
 38 43  1  0
 40 41  1  0
 41 42  1  0
 43 44  1  0
 44 45  1  0
 44 47  1  1
 45 46  1  0
 45 49  2  0
 47 48  1  0
M  CHG  1   1   1
M  END
$$$$
