
     RDKit          3D

 49 50  0  0  0  0  0  0  0  0999 V2000
   61.7136  111.6190   14.8999 N   0  0  0  0  0  4  0  0  0  0  0  0
   61.3297  113.0362   14.5367 C   0  0  2  0  0  0  0  0  0  0  0  0
   60.1002  113.3794   15.2722 C   0  0  0  0  0  0  0  0  0  0  0  0
   59.4954  112.4028   15.8941 O   0  0  0  0  0  0  0  0  0  0  0  0
   61.2975  113.1580   13.0597 C   0  0  0  0  0  0  0  0  0  0  0  0
   60.9584  114.5268   12.6377 C   0  0  0  0  0  0  0  0  0  0  0  0
   61.7596  115.4673   12.7349 O   0  0  0  0  0  0  0  0  0  0  0  0
   59.6921  114.7733   12.1093 O   0  0  0  0  0  0  0  0  0  0  0  0
   59.4781  114.6115   15.4086 N   0  0  0  0  0  0  0  0  0  0  0  0
   58.8965  115.0690   16.6346 C   0  0  2  0  0  0  0  0  0  0  0  0
   57.4619  114.8929   16.7654 C   0  0  0  0  0  0  0  0  0  0  0  0
   56.8212  115.8320   17.3606 O   0  0  0  0  0  0  0  0  0  0  0  0
   59.2762  116.4628   17.0180 C   0  0  0  0  0  0  0  0  0  0  0  0
   58.6389  116.9519   18.2508 C   0  0  0  0  0  0  0  0  0  0  0  0
   58.7530  116.3396   19.4812 O   0  0  0  0  0  0  0  0  0  0  0  0
   57.9490  117.9959   18.1640 O   0  0  0  0  0  0  0  0  0  0  0  0
   56.6907  113.7931   16.3109 N   0  0  0  0  0  0  0  0  0  0  0  0
   55.6699  113.1909   17.1466 C   0  0  2  0  0  0  0  0  0  0  0  0
   56.0838  113.3054   18.5720 C   0  0  0  0  0  0  0  0  0  0  0  0
   57.3196  113.1574   18.8540 O   0  0  0  0  0  0  0  0  0  0  0  0
   55.1830  111.8842   16.7049 C   0  0  0  0  0  0  0  0  0  0  0  0
   54.4022  111.7926   15.4819 C   0  0  0  0  0  0  0  0  0  0  0  0
   53.9215  110.6053   14.9968 C   0  0  0  0  0  0  0  0  0  0  0  0
   54.1219  112.9225   14.7434 C   0  0  0  0  0  0  0  0  0  0  0  0
   53.1920  110.5416   13.8244 C   0  0  0  0  0  0  0  0  0  0  0  0
   53.3936  112.8881   13.5676 C   0  0  0  0  0  0  0  0  0  0  0  0
   52.9240  111.6739   13.1055 C   0  0  0  0  0  0  0  0  0  0  0  0
   52.1885  111.6377   11.9158 O   0  0  0  0  0  0  0  0  0  0  0  0
   55.2050  113.5674   19.6223 N   0  0  0  0  0  0  0  0  0  0  0  0
   55.5593  113.3803   21.0599 C   0  0  2  0  0  0  0  0  0  0  0  0
   54.3761  113.5354   21.8792 C   0  0  0  0  0  0  0  0  0  0  0  0
   54.0801  114.8330   22.0060 O   0  0  0  0  0  0  0  0  0  0  0  0
   56.8536  113.9562   21.3159 C   0  0  2  0  0  0  0  0  0  0  0  0
   57.7808  113.6734   20.3304 O   0  0  0  0  0  0  0  0  0  0  0  0
   57.4973  113.5162   22.6272 C   0  0  0  0  0  0  0  0  0  0  0  0
   53.4740  112.7455   22.5537 N   0  0  0  0  0  0  0  0  0  0  0  0
   52.5055  113.1036   23.5998 C   0  0  2  0  0  0  0  0  0  0  0  0
   52.1072  114.4422   23.7792 C   0  0  0  0  0  0  0  0  0  0  0  0
   51.1480  114.8524   24.4489 O   0  0  0  0  0  0  0  0  0  0  0  0
   53.1087  112.3346   24.7430 C   0  0  0  0  0  0  0  0  0  0  0  0
   53.3881  110.9845   24.0618 C   0  0  0  0  0  0  0  0  0  0  0  0
   53.3214  111.3203   22.5404 C   0  0  0  0  0  0  0  0  0  0  0  0
   52.8782  115.4746   23.1269 N   0  0  0  0  0  0  0  0  0  0  0  0
   52.6335  116.8677   23.4259 C   0  0  2  0  0  0  0  0  0  0  0  0
   53.0353  117.2490   24.7805 C   0  0  0  0  0  0  0  0  0  0  0  0
   53.5889  118.5096   25.0322 O   0  0  0  0  0  0  0  0  0  0  0  0
   51.1497  117.1835   23.2383 C   0  0  0  0  0  0  0  0  0  0  0  0
   50.8821  118.5405   23.3550 O   0  0  0  0  0  0  0  0  0  0  0  0
   52.9057  116.4735   25.7707 O   0  0  0  0  0  0  0  0  0  0  0  0
  1  2  1  6
  2  3  1  6
  2  5  1  0
  3  4  2  0
  3  9  1  0
  5  6  1  6
  6  7  2  0
  6  8  1  0
 10  9  1  6
 10 11  1  0
 10 13  1  0
 11 12  2  0
 11 17  1  0
 13 14  1  6
 14 15  1  0
 14 16  2  0
 18 17  1  6
 18 19  1  0
 18 21  1  0
 19 20  2  0
 19 29  1  0
 21 22  1  6
 22 23  2  0
 22 24  1  0
 23 25  1  0
 24 26  2  0
 25 27  2  0
 26 27  1  0
 27 28  1  0
 30 29  1  6
 30 31  1  0
 30 33  1  0
 31 32  2  0
 31 36  1  0
 33 34  1  6
 35 33  1  6
 36 37  1  0
 42 36  1  1
 37 38  1  1
 40 37  1  1
 38 39  2  0
 38 43  1  0
 40 41  1  0
 41 42  1  6
 44 43  1  1
 44 45  1  0
 44 47  1  0
 45 46  1  0
 45 49  2  0
 47 48  1  6
M  CHG  1   1   1
M  END
$$$$
