
     RDKit          3D

 49 50  0  0  0  0  0  0  0  0999 V2000
   62.1064  113.5317   12.7826 N   0  0  0  0  0  4  0  0  0  0  0  0
   61.9377  113.1045   14.1730 C   0  0  2  0  0  0  0  0  0  0  0  0
   60.6301  113.6218   14.6916 C   0  0  0  0  0  0  0  0  0  0  0  0
   59.5492  113.5021   14.0743 O   0  0  0  0  0  0  0  0  0  0  0  0
   63.1274  113.5943   14.9209 C   0  0  0  0  0  0  0  0  0  0  0  0
   63.6948  112.6633   15.9035 C   0  0  0  0  0  0  0  0  0  0  0  0
   64.2660  111.6263   15.4974 O   0  0  0  0  0  0  0  0  0  0  0  0
   63.6137  112.8994   17.2533 O   0  0  0  0  0  0  0  0  0  0  0  0
   60.5567  114.2960   15.9538 N   0  0  0  0  0  0  0  0  0  0  0  0
   59.6704  115.4243   16.2110 C   0  0  2  0  0  0  0  0  0  0  0  0
   58.2605  114.9758   16.3264 C   0  0  0  0  0  0  0  0  0  0  0  0
   57.4018  115.7474   16.7610 O   0  0  0  0  0  0  0  0  0  0  0  0
   59.7855  116.4793   15.1687 C   0  0  0  0  0  0  0  0  0  0  0  0
   58.8873  117.6076   15.4505 C   0  0  0  0  0  0  0  0  0  0  0  0
   58.3669  117.8044   16.7163 O   0  0  0  0  0  0  0  0  0  0  0  0
   58.5744  118.4146   14.5486 O   0  0  0  0  0  0  0  0  0  0  0  0
   57.8573  113.6857   15.9566 N   0  0  0  0  0  0  0  0  0  0  0  0
   56.5853  113.0965   15.9140 C   0  0  2  0  0  0  0  0  0  0  0  0
   55.7203  113.5086   17.0985 C   0  0  0  0  0  0  0  0  0  0  0  0
   54.7671  114.2812   16.9451 O   0  0  0  0  0  0  0  0  0  0  0  0
   56.4375  111.6462   15.7246 C   0  0  0  0  0  0  0  0  0  0  0  0
   55.0540  111.1436   15.7695 C   0  0  0  0  0  0  0  0  0  0  0  0
   54.1363  111.5786   14.8426 C   0  0  0  0  0  0  0  0  0  0  0  0
   54.6099  110.2472   16.7019 C   0  0  0  0  0  0  0  0  0  0  0  0
   52.8180  111.1186   14.8645 C   0  0  0  0  0  0  0  0  0  0  0  0
   53.3115  109.7753   16.7466 C   0  0  0  0  0  0  0  0  0  0  0  0
   52.4036  110.2172   15.8153 C   0  0  0  0  0  0  0  0  0  0  0  0
   51.0699  109.7616   15.8245 O   0  0  0  0  0  0  0  0  0  0  0  0
   56.0368  112.9909   18.3583 N   0  0  0  0  0  0  0  0  0  0  0  0
   55.4349  113.2185   19.6507 C   0  0  2  0  0  0  0  0  0  0  0  0
   54.5087  114.3373   19.7542 C   0  0  0  0  0  0  0  0  0  0  0  0
   55.0942  115.5042   19.6058 O   0  0  0  0  0  0  0  0  0  0  0  0
   56.3470  112.9113   20.7707 C   0  0  2  0  0  0  0  0  0  0  0  0
   56.7004  111.5172   20.6042 O   0  0  0  0  0  0  0  0  0  0  0  0
   55.5787  112.9035   22.1088 C   0  0  0  0  0  0  0  0  0  0  0  0
   53.1330  114.4205   19.9819 N   0  0  0  0  0  0  0  0  0  0  0  0
   52.1456  115.4548   20.0289 C   0  0  2  0  0  0  0  0  0  0  0  0
   51.5906  115.7684   21.3489 C   0  0  0  0  0  0  0  0  0  0  0  0
   52.3106  115.8805   22.3629 O   0  0  0  0  0  0  0  0  0  0  0  0
   51.0125  114.8373   19.1692 C   0  0  0  0  0  0  0  0  0  0  0  0
   51.1923  113.3616   19.2920 C   0  0  0  0  0  0  0  0  0  0  0  0
   52.3294  113.1863   20.2612 C   0  0  0  0  0  0  0  0  0  0  0  0
   50.1784  115.9500   21.4687 N   0  0  0  0  0  0  0  0  0  0  0  0
   49.6110  116.8830   22.3959 C   0  0  2  0  0  0  0  0  0  0  0  0
   48.1338  116.9248   22.2365 C   0  0  0  0  0  0  0  0  0  0  0  0
   47.3323  117.2829   23.3096 O   0  0  0  0  0  0  0  0  0  0  0  0
   50.1377  118.2888   22.1582 C   0  0  0  0  0  0  0  0  0  0  0  0
   49.3165  118.9663   21.2543 O   0  0  0  0  0  0  0  0  0  0  0  0
   47.5807  116.6414   21.1440 O   0  0  0  0  0  0  0  0  0  0  0  0
  2  1  1  6
  2  3  1  0
  2  5  1  0
  3  4  2  0
  3  9  1  0
  5  6  1  0
  6  7  2  0
  6  8  1  0
  9 10  1  0
 10 11  1  0
 10 13  1  6
 11 12  2  0
 11 17  1  0
 13 14  1  0
 14 15  1  0
 14 16  2  0
 17 18  1  0
 18 19  1  0
 18 21  1  1
 19 20  2  0
 19 29  1  0
 21 22  1  0
 22 23  2  0
 22 24  1  0
 23 25  1  0
 24 26  2  0
 25 27  2  0
 26 27  1  0
 27 28  1  0
 30 29  1  6
 30 31  1  0
 30 33  1  0
 31 32  2  0
 31 36  1  0
 33 34  1  0
 33 35  1  1
 36 37  1  0
 36 42  1  0
 37 38  1  1
 37 40  1  0
 38 39  2  0
 38 43  1  0
 40 41  1  0
 41 42  1  0
 43 44  1  0
 44 45  1  0
 44 47  1  6
 45 46  1  0
 45 49  2  0
 47 48  1  0
M  CHG  1   1   1
M  END
$$$$
