
     RDKit          3D

 49 50  0  0  0  0  0  0  0  0999 V2000
   60.9832  115.0489   17.7007 N   0  0  0  0  0  4  0  0  0  0  0  0
   59.9166  115.3333   16.6667 C   0  0  2  0  0  0  0  0  0  0  0  0
   58.6936  115.7505   17.3746 C   0  0  0  0  0  0  0  0  0  0  0  0
   58.5201  115.2743   18.5785 O   0  0  0  0  0  0  0  0  0  0  0  0
   59.8135  114.1690   15.7550 C   0  0  0  0  0  0  0  0  0  0  0  0
   61.0351  114.0026   14.9510 C   0  0  0  0  0  0  0  0  0  0  0  0
   61.1931  114.5710   13.8611 O   0  0  0  0  0  0  0  0  0  0  0  0
   62.0503  113.1776   15.4332 O   0  0  0  0  0  0  0  0  0  0  0  0
   57.6798  116.5940   16.9455 N   0  0  0  0  0  0  0  0  0  0  0  0
   56.5186  116.8921   17.7287 C   0  0  2  0  0  0  0  0  0  0  0  0
   55.5127  115.8485   17.8016 C   0  0  0  0  0  0  0  0  0  0  0  0
   54.4715  116.1043   18.5069 O   0  0  0  0  0  0  0  0  0  0  0  0
   55.8731  118.2009   17.4060 C   0  0  0  0  0  0  0  0  0  0  0  0
   56.7413  119.1499   16.6914 C   0  0  0  0  0  0  0  0  0  0  0  0
   58.1154  119.1829   16.8028 O   0  0  0  0  0  0  0  0  0  0  0  0
   56.1827  119.9787   15.9333 O   0  0  0  0  0  0  0  0  0  0  0  0
   55.5568  114.5739   17.1816 N   0  0  0  0  0  0  0  0  0  0  0  0
   54.5687  113.5553   17.4802 C   0  0  2  0  0  0  0  0  0  0  0  0
   54.6667  113.1955   18.9213 C   0  0  0  0  0  0  0  0  0  0  0  0
   55.2139  114.0318   19.7150 O   0  0  0  0  0  0  0  0  0  0  0  0
   54.4974  112.4472   16.5279 C   0  0  0  0  0  0  0  0  0  0  0  0
   53.3175  111.5978   16.5122 C   0  0  0  0  0  0  0  0  0  0  0  0
   52.1617  111.9469   15.8656 C   0  0  0  0  0  0  0  0  0  0  0  0
   53.3164  110.3881   17.1736 C   0  0  0  0  0  0  0  0  0  0  0  0
   51.0480  111.1282   15.8755 C   0  0  0  0  0  0  0  0  0  0  0  0
   52.2169  109.5487   17.1991 C   0  0  0  0  0  0  0  0  0  0  0  0
   51.0662  109.9313   16.5373 C   0  0  0  0  0  0  0  0  0  0  0  0
   49.9532  109.0838   16.5635 O   0  0  0  0  0  0  0  0  0  0  0  0
   54.1949  112.0001   19.4623 N   0  0  0  0  0  0  0  0  0  0  0  0
   53.5817  111.8942   20.8187 C   0  0  2  0  0  0  0  0  0  0  0  0
   53.1857  113.2077   21.2801 C   0  0  0  0  0  0  0  0  0  0  0  0
   54.2465  113.8520   21.7769 O   0  0  0  0  0  0  0  0  0  0  0  0
   54.2804  110.8970   21.5867 C   0  0  2  0  0  0  0  0  0  0  0  0
   54.5265  109.7362   20.8775 O   0  0  0  0  0  0  0  0  0  0  0  0
   53.5649  110.4589   22.8609 C   0  0  0  0  0  0  0  0  0  0  0  0
   52.0495  113.9804   21.3508 N   0  0  0  0  0  0  0  0  0  0  0  0
   51.5588  114.8370   22.4399 C   0  0  2  0  0  0  0  0  0  0  0  0
   52.4329  115.2831   23.4495 C   0  0  0  0  0  0  0  0  0  0  0  0
   52.4301  116.3924   24.0030 O   0  0  0  0  0  0  0  0  0  0  0  0
   50.3205  114.0629   22.7996 C   0  0  0  0  0  0  0  0  0  0  0  0
   49.7376  113.7931   21.4023 C   0  0  0  0  0  0  0  0  0  0  0  0
   50.9407  114.0563   20.4457 C   0  0  0  0  0  0  0  0  0  0  0  0
   53.4549  114.3749   23.9148 N   0  0  0  0  0  0  0  0  0  0  0  0
   54.1682  114.6454   25.1428 C   0  0  2  0  0  0  0  0  0  0  0  0
   55.0989  115.7698   25.0368 C   0  0  0  0  0  0  0  0  0  0  0  0
   55.4396  116.2983   23.7864 O   0  0  0  0  0  0  0  0  0  0  0  0
   54.9390  113.3992   25.5777 C   0  0  0  0  0  0  0  0  0  0  0  0
   55.9966  113.7036   26.4235 O   0  0  0  0  0  0  0  0  0  0  0  0
   55.6314  116.3081   26.0493 O   0  0  0  0  0  0  0  0  0  0  0  0
  1  2  1  6
  2  3  1  1
  2  5  1  0
  3  4  2  0
  3  9  1  0
  5  6  1  6
  6  7  2  0
  6  8  1  0
 10  9  1  6
 10 11  1  0
 10 13  1  0
 11 12  2  0
 11 17  1  0
 13 14  1  6
 14 15  1  0
 14 16  2  0
 18 17  1  6
 18 19  1  0
 18 21  1  0
 19 20  2  0
 19 29  1  0
 21 22  1  6
 22 23  2  0
 22 24  1  0
 23 25  1  0
 24 26  2  0
 25 27  2  0
 26 27  1  0
 27 28  1  0
 30 29  1  6
 30 31  1  0
 30 33  1  0
 31 32  2  0
 31 36  1  0
 33 34  1  6
 35 33  1  6
 36 37  1  0
 42 36  1  1
 37 38  1  1
 40 37  1  1
 38 39  2  0
 38 43  1  0
 40 41  1  0
 41 42  1  6
 44 43  1  6
 44 45  1  0
 44 47  1  0
 45 46  1  0
 45 49  2  0
 47 48  1  6
M  CHG  1   1   1
M  END
$$$$
