
     RDKit          3D

 49 50  0  0  0  0  0  0  0  0999 V2000
   57.7370  119.4872   15.4900 N   0  0  0  0  0  4  0  0  0  0  0  0
   58.0464  118.3326   16.4168 C   0  0  2  0  0  0  0  0  0  0  0  0
   58.5212  117.2037   15.5979 C   0  0  0  0  0  0  0  0  0  0  0  0
   57.7663  116.8483   14.5929 O   0  0  0  0  0  0  0  0  0  0  0  0
   56.8730  118.0951   17.2911 C   0  0  0  0  0  0  0  0  0  0  0  0
   57.2443  117.3444   18.5015 C   0  0  0  0  0  0  0  0  0  0  0  0
   56.4076  116.9931   19.3455 O   0  0  0  0  0  0  0  0  0  0  0  0
   58.5840  117.0162   18.7048 O   0  0  0  0  0  0  0  0  0  0  0  0
   59.6764  116.4486   15.7358 N   0  0  0  0  0  0  0  0  0  0  0  0
   60.0242  115.3731   14.8565 C   0  0  2  0  0  0  0  0  0  0  0  0
   59.3685  114.1035   15.1105 C   0  0  0  0  0  0  0  0  0  0  0  0
   59.8329  113.0835   14.4855 O   0  0  0  0  0  0  0  0  0  0  0  0
   61.4941  115.1628   14.6865 C   0  0  0  0  0  0  0  0  0  0  0  0
   61.8531  114.1313   13.7004 C   0  0  0  0  0  0  0  0  0  0  0  0
   62.1795  112.8301   14.0195 O   0  0  0  0  0  0  0  0  0  0  0  0
   61.8587  114.4704   12.4927 O   0  0  0  0  0  0  0  0  0  0  0  0
   58.2665  113.8676   15.9713 N   0  0  0  0  0  0  0  0  0  0  0  0
   57.8365  112.5209   16.2944 C   0  0  2  0  0  0  0  0  0  0  0  0
   56.6666  112.5949   17.2120 C   0  0  0  0  0  0  0  0  0  0  0  0
   55.5119  112.7825   16.7017 O   0  0  0  0  0  0  0  0  0  0  0  0
   58.9029  111.5890   16.6605 C   0  0  0  0  0  0  0  0  0  0  0  0
   58.5950  110.1748   16.7989 C   0  0  0  0  0  0  0  0  0  0  0  0
   58.5317  109.3221   15.7290 C   0  0  0  0  0  0  0  0  0  0  0  0
   58.3377  109.6322   18.0398 C   0  0  0  0  0  0  0  0  0  0  0  0
   58.2244  107.9833   15.8842 C   0  0  0  0  0  0  0  0  0  0  0  0
   58.0286  108.2962   18.2244 C   0  0  0  0  0  0  0  0  0  0  0  0
   57.9722  107.4632   17.1238 C   0  0  0  0  0  0  0  0  0  0  0  0
   57.6585  106.1123   17.3091 O   0  0  0  0  0  0  0  0  0  0  0  0
   56.7512  112.4693   18.5981 N   0  0  0  0  0  0  0  0  0  0  0  0
   55.5670  112.5225   19.5046 C   0  0  2  0  0  0  0  0  0  0  0  0
   54.8462  113.7601   19.2952 C   0  0  0  0  0  0  0  0  0  0  0  0
   55.6565  114.7995   19.5195 O   0  0  0  0  0  0  0  0  0  0  0  0
   55.9074  111.9402   20.7764 C   0  0  2  0  0  0  0  0  0  0  0  0
   56.4558  110.6760   20.6680 O   0  0  0  0  0  0  0  0  0  0  0  0
   54.7376  111.8013   21.7458 C   0  0  0  0  0  0  0  0  0  0  0  0
   53.5857  114.1743   18.9315 N   0  0  0  0  0  0  0  0  0  0  0  0
   52.6896  115.1443   19.5772 C   0  0  2  0  0  0  0  0  0  0  0  0
   53.1961  116.0917   20.4874 C   0  0  0  0  0  0  0  0  0  0  0  0
   53.1786  117.3255   20.3679 O   0  0  0  0  0  0  0  0  0  0  0  0
   51.5963  114.2010   19.9979 C   0  0  0  0  0  0  0  0  0  0  0  0
   51.4169  113.3806   18.7096 C   0  0  0  0  0  0  0  0  0  0  0  0
   52.7210  113.6706   17.9052 C   0  0  0  0  0  0  0  0  0  0  0  0
   53.8083  115.6080   21.7027 N   0  0  0  0  0  0  0  0  0  0  0  0
   54.0711  116.5136   22.7985 C   0  0  2  0  0  0  0  0  0  0  0  0
   55.3969  116.3356   23.3922 C   0  0  0  0  0  0  0  0  0  0  0  0
   55.9782  117.3531   24.1575 O   0  0  0  0  0  0  0  0  0  0  0  0
   53.0103  116.3327   23.8840 C   0  0  0  0  0  0  0  0  0  0  0  0
   53.0979  115.0937   24.5037 O   0  0  0  0  0  0  0  0  0  0  0  0
   56.0698  115.2754   23.2453 O   0  0  0  0  0  0  0  0  0  0  0  0
  1  2  1  6
  2  3  1  6
  2  5  1  0
  3  4  2  0
  3  9  1  0
  5  6  1  6
  6  7  2  0
  6  8  1  0
 10  9  1  1
 10 11  1  0
 10 13  1  0
 11 12  2  0
 11 17  1  0
 13 14  1  6
 14 15  1  0
 14 16  2  0
 18 17  1  1
 18 19  1  0
 18 21  1  0
 19 20  2  0
 19 29  1  0
 21 22  1  6
 22 23  2  0
 22 24  1  0
 23 25  1  0
 24 26  2  0
 25 27  2  0
 26 27  1  0
 27 28  1  0
 30 29  1  6
 30 31  1  0
 30 33  1  0
 31 32  2  0
 31 36  1  0
 33 34  1  6
 35 33  1  6
 36 37  1  0
 42 36  1  1
 37 38  1  1
 40 37  1  1
 38 39  2  0
 38 43  1  0
 40 41  1  0
 41 42  1  6
 44 43  1  6
 44 45  1  0
 44 47  1  0
 45 46  1  0
 45 49  2  0
 47 48  1  6
M  CHG  1   1   1
M  END
$$$$
