
     RDKit          3D

 49 50  0  0  0  0  0  0  0  0999 V2000
   63.6860  114.3550   17.6547 N   0  0  0  0  0  4  0  0  0  0  0  0
   62.2575  114.0350   17.6843 C   0  0  2  0  0  0  0  0  0  0  0  0
   61.5461  114.8632   16.6574 C   0  0  0  0  0  0  0  0  0  0  0  0
   62.1235  115.4026   15.6882 O   0  0  0  0  0  0  0  0  0  0  0  0
   61.7943  114.2634   19.0799 C   0  0  0  0  0  0  0  0  0  0  0  0
   62.5608  113.5813   20.1295 C   0  0  0  0  0  0  0  0  0  0  0  0
   62.2469  112.4122   20.4474 O   0  0  0  0  0  0  0  0  0  0  0  0
   63.6096  114.1920   20.7708 O   0  0  0  0  0  0  0  0  0  0  0  0
   60.1325  115.0808   16.7417 N   0  0  0  0  0  0  0  0  0  0  0  0
   59.2822  115.2950   15.5773 C   0  0  2  0  0  0  0  0  0  0  0  0
   58.0137  114.5346   15.6996 C   0  0  0  0  0  0  0  0  0  0  0  0
   57.1146  114.6981   14.8710 O   0  0  0  0  0  0  0  0  0  0  0  0
   59.9684  114.9396   14.3063 C   0  0  0  0  0  0  0  0  0  0  0  0
   60.6336  116.1085   13.7143 C   0  0  0  0  0  0  0  0  0  0  0  0
   60.6462  117.3271   14.3675 O   0  0  0  0  0  0  0  0  0  0  0  0
   61.2029  116.0245   12.6046 O   0  0  0  0  0  0  0  0  0  0  0  0
   57.7903  113.6222   16.7394 N   0  0  0  0  0  0  0  0  0  0  0  0
   56.6751  112.8271   17.0416 C   0  0  2  0  0  0  0  0  0  0  0  0
   55.3624  113.5385   16.7391 C   0  0  0  0  0  0  0  0  0  0  0  0
   55.2067  114.1502   15.6759 O   0  0  0  0  0  0  0  0  0  0  0  0
   56.5505  112.1800   18.3557 C   0  0  0  0  0  0  0  0  0  0  0  0
   57.7088  111.3709   18.7709 C   0  0  0  0  0  0  0  0  0  0  0  0
   58.7650  111.1930   17.9087 C   0  0  0  0  0  0  0  0  0  0  0  0
   57.8036  110.7662   19.9938 C   0  0  0  0  0  0  0  0  0  0  0  0
   59.8742  110.4292   18.2777 C   0  0  0  0  0  0  0  0  0  0  0  0
   58.8893  110.0053   20.3848 C   0  0  0  0  0  0  0  0  0  0  0  0
   59.9384  109.8346   19.5149 C   0  0  0  0  0  0  0  0  0  0  0  0
   61.0647  109.0669   19.8732 O   0  0  0  0  0  0  0  0  0  0  0  0
   54.3448  113.4808   17.6965 N   0  0  0  0  0  0  0  0  0  0  0  0
   52.9634  113.8955   17.6320 C   0  0  2  0  0  0  0  0  0  0  0  0
   52.1660  113.7072   18.8358 C   0  0  0  0  0  0  0  0  0  0  0  0
   52.3355  112.5254   19.3844 O   0  0  0  0  0  0  0  0  0  0  0  0
   52.3576  113.6694   16.3044 C   0  0  2  0  0  0  0  0  0  0  0  0
   51.3283  112.6742   16.5187 O   0  0  0  0  0  0  0  0  0  0  0  0
   53.3459  112.9331   15.3760 C   0  0  0  0  0  0  0  0  0  0  0  0
   51.2602  114.5223   19.5186 N   0  0  0  0  0  0  0  0  0  0  0  0
   51.2596  115.3018   20.7184 C   0  0  2  0  0  0  0  0  0  0  0  0
   50.4371  114.7998   21.8230 C   0  0  0  0  0  0  0  0  0  0  0  0
   50.2488  115.4612   22.8652 O   0  0  0  0  0  0  0  0  0  0  0  0
   50.6323  116.6300   20.2216 C   0  0  0  0  0  0  0  0  0  0  0  0
   49.7857  116.2470   19.0548 C   0  0  0  0  0  0  0  0  0  0  0  0
   49.8795  114.7473   18.9801 C   0  0  0  0  0  0  0  0  0  0  0  0
   49.8356  113.5102   21.6932 N   0  0  0  0  0  0  0  0  0  0  0  0
   50.0198  112.4862   22.6781 C   0  0  2  0  0  0  0  0  0  0  0  0
   49.2217  112.7983   23.8924 C   0  0  0  0  0  0  0  0  0  0  0  0
   47.9517  112.2627   24.0418 O   0  0  0  0  0  0  0  0  0  0  0  0
   51.4760  112.3812   23.1009 C   0  0  0  0  0  0  0  0  0  0  0  0
   51.6544  112.9482   24.3647 O   0  0  0  0  0  0  0  0  0  0  0  0
   49.6682  113.5434   24.8009 O   0  0  0  0  0  0  0  0  0  0  0  0
  2  1  1  1
  2  3  1  0
  2  5  1  0
  3  4  2  0
  3  9  1  0
  5  6  1  0
  6  7  2  0
  6  8  1  0
  9 10  1  0
 10 11  1  0
 10 13  1  6
 11 12  2  0
 11 17  1  0
 13 14  1  0
 14 15  1  0
 14 16  2  0
 17 18  1  0
 18 19  1  0
 18 21  1  1
 19 20  2  0
 19 29  1  0
 21 22  1  0
 22 23  2  0
 22 24  1  0
 23 25  1  0
 24 26  2  0
 25 27  2  0
 26 27  1  0
 27 28  1  0
 30 29  1  1
 30 31  1  0
 30 33  1  0
 31 32  2  0
 31 36  1  0
 33 34  1  0
 33 35  1  6
 36 37  1  0
 36 42  1  0
 37 38  1  1
 37 40  1  0
 38 39  2  0
 38 43  1  0
 40 41  1  0
 41 42  1  0
 43 44  1  0
 44 45  1  0
 44 47  1  1
 45 46  1  0
 45 49  2  0
 47 48  1  0
M  CHG  1   1   1
M  END
$$$$
