
     RDKit          3D

 49 50  0  0  0  0  0  0  0  0999 V2000
   61.7151  112.2432   11.1999 N   0  0  0  0  0  4  0  0  0  0  0  0
   62.6629  113.1954   11.8947 C   0  0  2  0  0  0  0  0  0  0  0  0
   62.0418  113.6137   13.1635 C   0  0  0  0  0  0  0  0  0  0  0  0
   62.5888  113.1649   14.2616 O   0  0  0  0  0  0  0  0  0  0  0  0
   63.0516  114.2619   10.9413 C   0  0  0  0  0  0  0  0  0  0  0  0
   63.8918  115.2837   11.5869 C   0  0  0  0  0  0  0  0  0  0  0  0
   63.5837  116.4840   11.5979 O   0  0  0  0  0  0  0  0  0  0  0  0
   65.0750  114.8868   12.2085 O   0  0  0  0  0  0  0  0  0  0  0  0
   60.9420  114.4331   13.3703 N   0  0  0  0  0  0  0  0  0  0  0  0
   60.4234  114.7430   14.6686 C   0  0  2  0  0  0  0  0  0  0  0  0
   59.2783  113.9635   15.1013 C   0  0  0  0  0  0  0  0  0  0  0  0
   58.7280  113.2141   14.2168 O   0  0  0  0  0  0  0  0  0  0  0  0
   60.1684  116.1969   14.9028 C   0  0  0  0  0  0  0  0  0  0  0  0
   60.5316  116.6715   16.2475 C   0  0  0  0  0  0  0  0  0  0  0  0
   60.3012  117.9501   16.7097 O   0  0  0  0  0  0  0  0  0  0  0  0
   61.0867  115.8490   17.0149 O   0  0  0  0  0  0  0  0  0  0  0  0
   58.6976  113.9430   16.3949 N   0  0  0  0  0  0  0  0  0  0  0  0
   57.5602  113.0959   16.6978 C   0  0  2  0  0  0  0  0  0  0  0  0
   57.0748  113.4117   18.0692 C   0  0  0  0  0  0  0  0  0  0  0  0
   57.3091  112.5701   18.9996 O   0  0  0  0  0  0  0  0  0  0  0  0
   57.7215  111.6805   16.3657 C   0  0  0  0  0  0  0  0  0  0  0  0
   56.5476  110.8244   16.3120 C   0  0  0  0  0  0  0  0  0  0  0  0
   55.8811  110.5532   15.1466 C   0  0  0  0  0  0  0  0  0  0  0  0
   56.0450  110.2519   17.4610 C   0  0  0  0  0  0  0  0  0  0  0  0
   54.7592  109.7460   15.1224 C   0  0  0  0  0  0  0  0  0  0  0  0
   54.9249  109.4396   17.4658 C   0  0  0  0  0  0  0  0  0  0  0  0
   54.2754  109.1868   16.2730 C   0  0  0  0  0  0  0  0  0  0  0  0
   53.1419  108.3666   16.2768 O   0  0  0  0  0  0  0  0  0  0  0  0
   56.3804  114.5735   18.4043 N   0  0  0  0  0  0  0  0  0  0  0  0
   55.7694  114.8111   19.7449 C   0  0  2  0  0  0  0  0  0  0  0  0
   54.4922  114.1351   19.8269 C   0  0  0  0  0  0  0  0  0  0  0  0
   53.6214  114.7096   18.9908 O   0  0  0  0  0  0  0  0  0  0  0  0
   56.0486  116.1580   20.1696 C   0  0  2  0  0  0  0  0  0  0  0  0
   57.3762  116.5129   20.0194 O   0  0  0  0  0  0  0  0  0  0  0  0
   55.7055  116.4492   21.6273 C   0  0  0  0  0  0  0  0  0  0  0  0
   53.9205  113.0820   20.5029 N   0  0  0  0  0  0  0  0  0  0  0  0
   52.6899  113.0340   21.3053 C   0  0  2  0  0  0  0  0  0  0  0  0
   51.7006  114.0253   21.1594 C   0  0  0  0  0  0  0  0  0  0  0  0
   50.5453  113.9989   21.6081 O   0  0  0  0  0  0  0  0  0  0  0  0
   53.3053  112.7725   22.6525 C   0  0  0  0  0  0  0  0  0  0  0  0
   54.3084  111.6625   22.2966 C   0  0  0  0  0  0  0  0  0  0  0  0
   54.4362  111.7669   20.7459 C   0  0  0  0  0  0  0  0  0  0  0  0
   52.0349  115.2154   20.4126 N   0  0  0  0  0  0  0  0  0  0  0  0
   51.6090  116.5151   20.8808 C   0  0  2  0  0  0  0  0  0  0  0  0
   51.6964  116.6648   22.3340 C   0  0  0  0  0  0  0  0  0  0  0  0
   50.8474  117.5467   23.0126 O   0  0  0  0  0  0  0  0  0  0  0  0
   50.1697  116.7775   20.4381 C   0  0  0  0  0  0  0  0  0  0  0  0
   49.2458  116.1119   21.2319 O   0  0  0  0  0  0  0  0  0  0  0  0
   52.5273  116.0185   23.0343 O   0  0  0  0  0  0  0  0  0  0  0  0
  1  2  1  6
  2  3  1  1
  2  5  1  0
  3  4  2  0
  3  9  1  0
  5  6  1  6
  6  7  2  0
  6  8  1  0
 10  9  1  6
 10 11  1  0
 10 13  1  0
 11 12  2  0
 11 17  1  0
 13 14  1  6
 14 15  1  0
 14 16  2  0
 18 17  1  1
 18 19  1  0
 18 21  1  0
 19 20  2  0
 19 29  1  0
 21 22  1  6
 22 23  2  0
 22 24  1  0
 23 25  1  0
 24 26  2  0
 25 27  2  0
 26 27  1  0
 27 28  1  0
 30 29  1  6
 30 31  1  0
 30 33  1  0
 31 32  2  0
 31 36  1  0
 33 34  1  1
 35 33  1  6
 36 37  1  0
 42 36  1  1
 37 38  1  1
 40 37  1  1
 38 39  2  0
 38 43  1  0
 40 41  1  0
 41 42  1  6
 44 43  1  1
 44 45  1  0
 44 47  1  0
 45 46  1  0
 45 49  2  0
 47 48  1  6
M  CHG  1   1   1
M  END
$$$$
