
     RDKit          3D

 49 50  0  0  0  0  0  0  0  0999 V2000
   63.4926  115.0827   11.5925 N   0  0  0  0  0  4  0  0  0  0  0  0
   62.5654  115.9483   12.4164 C   0  0  2  0  0  0  0  0  0  0  0  0
   62.1964  115.1973   13.6290 C   0  0  0  0  0  0  0  0  0  0  0  0
   63.1603  114.5682   14.2467 O   0  0  0  0  0  0  0  0  0  0  0  0
   61.4629  116.4269   11.5486 C   0  0  0  0  0  0  0  0  0  0  0  0
   60.6035  117.3938   12.2508 C   0  0  0  0  0  0  0  0  0  0  0  0
   60.8797  118.6002   12.3156 O   0  0  0  0  0  0  0  0  0  0  0  0
   59.4376  116.9364   12.8633 O   0  0  0  0  0  0  0  0  0  0  0  0
   60.9527  115.0589   14.2272 N   0  0  0  0  0  0  0  0  0  0  0  0
   60.7408  114.3393   15.4470 C   0  0  2  0  0  0  0  0  0  0  0  0
   59.3713  114.2800   15.9234 C   0  0  0  0  0  0  0  0  0  0  0  0
   59.1140  114.9149   17.0085 O   0  0  0  0  0  0  0  0  0  0  0  0
   61.6528  114.7319   16.5641 C   0  0  0  0  0  0  0  0  0  0  0  0
   61.4178  114.0119   17.8257 C   0  0  0  0  0  0  0  0  0  0  0  0
   61.3677  112.6385   17.9398 O   0  0  0  0  0  0  0  0  0  0  0  0
   61.2540  114.7043   18.8588 O   0  0  0  0  0  0  0  0  0  0  0  0
   58.2862  113.5924   15.3227 N   0  0  0  0  0  0  0  0  0  0  0  0
   57.6539  112.4631   15.9768 C   0  0  2  0  0  0  0  0  0  0  0  0
   57.1889  112.8854   17.3264 C   0  0  0  0  0  0  0  0  0  0  0  0
   56.5685  112.0316   18.0441 O   0  0  0  0  0  0  0  0  0  0  0  0
   58.3842  111.1982   15.8975 C   0  0  0  0  0  0  0  0  0  0  0  0
   57.7650  109.9863   16.4089 C   0  0  0  0  0  0  0  0  0  0  0  0
   57.1572  109.9252   17.6349 C   0  0  0  0  0  0  0  0  0  0  0  0
   57.7788  108.8252   15.6657 C   0  0  0  0  0  0  0  0  0  0  0  0
   56.5862  108.7575   18.1052 C   0  0  0  0  0  0  0  0  0  0  0  0
   57.2144  107.6432   16.1111 C   0  0  0  0  0  0  0  0  0  0  0  0
   56.6098  107.6155   17.3530 C   0  0  0  0  0  0  0  0  0  0  0  0
   56.0398  106.4203   17.8050 O   0  0  0  0  0  0  0  0  0  0  0  0
   57.3907  114.1576   17.8600 N   0  0  0  0  0  0  0  0  0  0  0  0
   56.7974  114.6139   19.1510 C   0  0  2  0  0  0  0  0  0  0  0  0
   55.3644  114.4110   19.1292 C   0  0  0  0  0  0  0  0  0  0  0  0
   54.8414  114.9909   18.0441 O   0  0  0  0  0  0  0  0  0  0  0  0
   57.4831  115.7953   19.6054 C   0  0  2  0  0  0  0  0  0  0  0  0
   58.8597  115.6826   19.5484 O   0  0  0  0  0  0  0  0  0  0  0  0
   57.1612  116.2057   21.0391 C   0  0  0  0  0  0  0  0  0  0  0  0
   54.3948  113.7975   19.8884 N   0  0  0  0  0  0  0  0  0  0  0  0
   53.2338  114.3754   20.5803 C   0  0  2  0  0  0  0  0  0  0  0  0
   52.7422  115.6439   20.2174 C   0  0  0  0  0  0  0  0  0  0  0  0
   51.6313  115.9033   19.7321 O   0  0  0  0  0  0  0  0  0  0  0  0
   53.6548  114.1051   21.9986 C   0  0  0  0  0  0  0  0  0  0  0  0
   54.1225  112.6446   21.8833 C   0  0  0  0  0  0  0  0  0  0  0  0
   54.3195  112.4424   20.3496 C   0  0  0  0  0  0  0  0  0  0  0  0
   53.5987  116.7890   20.4200 N   0  0  0  0  0  0  0  0  0  0  0  0
   53.0908  117.9743   21.0735 C   0  0  2  0  0  0  0  0  0  0  0  0
   54.0953  119.0277   21.2254 C   0  0  0  0  0  0  0  0  0  0  0  0
   53.7932  120.3542   20.8964 O   0  0  0  0  0  0  0  0  0  0  0  0
   52.5394  117.6084   22.4514 C   0  0  0  0  0  0  0  0  0  0  0  0
   53.5003  117.7147   23.4474 O   0  0  0  0  0  0  0  0  0  0  0  0
   55.2627  118.7962   21.6521 O   0  0  0  0  0  0  0  0  0  0  0  0
  1  2  1  6
  2  3  1  1
  2  5  1  0
  3  4  2  0
  3  9  1  0
  5  6  1  6
  6  7  2  0
  6  8  1  0
 10  9  1  6
 10 11  1  0
 10 13  1  0
 11 12  2  0
 11 17  1  0
 13 14  1  6
 14 15  1  0
 14 16  2  0
 18 17  1  1
 18 19  1  0
 18 21  1  0
 19 20  2  0
 19 29  1  0
 21 22  1  6
 22 23  2  0
 22 24  1  0
 23 25  1  0
 24 26  2  0
 25 27  2  0
 26 27  1  0
 27 28  1  0
 30 29  1  6
 30 31  1  0
 30 33  1  0
 31 32  2  0
 31 36  1  0
 33 34  1  1
 35 33  1  6
 36 37  1  0
 42 36  1  1
 37 38  1  1
 40 37  1  1
 38 39  2  0
 38 43  1  0
 40 41  1  0
 41 42  1  6
 44 43  1  1
 44 45  1  0
 44 47  1  0
 45 46  1  0
 45 49  2  0
 47 48  1  6
M  CHG  1   1   1
M  END
$$$$
