
     RDKit          3D

 49 50  0  0  0  0  0  0  0  0999 V2000
   62.1217  115.3681   12.1689 N   0  0  0  0  0  4  0  0  0  0  0  0
   61.4175  115.8731   13.4086 C   0  0  2  0  0  0  0  0  0  0  0  0
   60.7520  114.7284   14.0546 C   0  0  0  0  0  0  0  0  0  0  0  0
   59.6708  114.2755   13.4784 O   0  0  0  0  0  0  0  0  0  0  0  0
   60.5723  117.0332   13.0379 C   0  0  0  0  0  0  0  0  0  0  0  0
   59.9237  117.6281   14.2177 C   0  0  0  0  0  0  0  0  0  0  0  0
   59.1987  118.6301   14.1400 O   0  0  0  0  0  0  0  0  0  0  0  0
   60.1315  117.0429   15.4660 O   0  0  0  0  0  0  0  0  0  0  0  0
   61.1121  114.0434   15.2055 N   0  0  0  0  0  0  0  0  0  0  0  0
   60.3273  112.9882   15.7724 C   0  0  2  0  0  0  0  0  0  0  0  0
   58.9374  113.3030   16.0464 C   0  0  0  0  0  0  0  0  0  0  0  0
   58.1424  113.3118   15.0391 O   0  0  0  0  0  0  0  0  0  0  0  0
   60.9448  112.3278   16.9626 C   0  0  0  0  0  0  0  0  0  0  0  0
   61.5128  113.2585   17.9508 C   0  0  0  0  0  0  0  0  0  0  0  0
   62.0927  112.8712   19.1404 O   0  0  0  0  0  0  0  0  0  0  0  0
   61.4604  114.4825   17.6815 O   0  0  0  0  0  0  0  0  0  0  0  0
   58.3620  113.6068   17.3065 N   0  0  0  0  0  0  0  0  0  0  0  0
   56.9482  113.4052   17.5585 C   0  0  2  0  0  0  0  0  0  0  0  0
   56.5574  114.1832   18.7659 C   0  0  0  0  0  0  0  0  0  0  0  0
   57.2595  114.0476   19.8230 O   0  0  0  0  0  0  0  0  0  0  0  0
   56.4867  112.0188   17.4903 C   0  0  0  0  0  0  0  0  0  0  0  0
   56.2733  111.4035   16.1904 C   0  0  0  0  0  0  0  0  0  0  0  0
   55.2197  111.7317   15.3792 C   0  0  0  0  0  0  0  0  0  0  0  0
   57.1375  110.4364   15.7228 C   0  0  0  0  0  0  0  0  0  0  0  0
   55.0305  111.1236   14.1524 C   0  0  0  0  0  0  0  0  0  0  0  0
   56.9728  109.8121   14.4991 C   0  0  0  0  0  0  0  0  0  0  0  0
   55.8988  110.1660   13.7055 C   0  0  0  0  0  0  0  0  0  0  0  0
   55.7306  109.5345   12.4684 O   0  0  0  0  0  0  0  0  0  0  0  0
   55.4710  115.0559   18.8156 N   0  0  0  0  0  0  0  0  0  0  0  0
   55.0823  115.8198   20.0372 C   0  0  2  0  0  0  0  0  0  0  0  0
   54.2134  115.0099   20.8644 C   0  0  0  0  0  0  0  0  0  0  0  0
   53.1267  114.6573   20.1700 O   0  0  0  0  0  0  0  0  0  0  0  0
   54.8858  117.2048   19.6971 C   0  0  2  0  0  0  0  0  0  0  0  0
   55.9908  117.7814   19.0992 O   0  0  0  0  0  0  0  0  0  0  0  0
   54.5372  118.1062   20.8775 C   0  0  0  0  0  0  0  0  0  0  0  0
   54.1823  114.4982   22.1411 N   0  0  0  0  0  0  0  0  0  0  0  0
   53.1544  114.6284   23.1837 C   0  0  2  0  0  0  0  0  0  0  0  0
   51.8386  115.0023   22.8496 C   0  0  0  0  0  0  0  0  0  0  0  0
   50.7924  114.6158   23.3907 O   0  0  0  0  0  0  0  0  0  0  0  0
   53.9400  115.4360   24.1800 C   0  0  0  0  0  0  0  0  0  0  0  0
   55.2720  114.6675   24.1824 C   0  0  0  0  0  0  0  0  0  0  0  0
   55.2080  113.8182   22.8761 C   0  0  0  0  0  0  0  0  0  0  0  0
   51.6517  115.9363   21.7641 N   0  0  0  0  0  0  0  0  0  0  0  0
   50.4316  116.7054   21.6645 C   0  0  2  0  0  0  0  0  0  0  0  0
   49.5577  116.2674   20.5754 C   0  0  0  0  0  0  0  0  0  0  0  0
   49.8773  115.1365   19.8152 O   0  0  0  0  0  0  0  0  0  0  0  0
   50.7674  118.1840   21.4706 C   0  0  0  0  0  0  0  0  0  0  0  0
   49.6297  118.9713   21.3590 O   0  0  0  0  0  0  0  0  0  0  0  0
   48.4924  116.8773   20.2727 O   0  0  0  0  0  0  0  0  0  0  0  0
  1  2  1  6
  2  3  1  6
  2  5  1  0
  3  4  2  0
  3  9  1  0
  5  6  1  6
  6  7  2  0
  6  8  1  0
 10  9  1  1
 10 11  1  0
 10 13  1  0
 11 12  2  0
 11 17  1  0
 13 14  1  6
 14 15  1  0
 14 16  2  0
 18 17  1  1
 18 19  1  0
 18 21  1  0
 19 20  2  0
 19 29  1  0
 21 22  1  6
 22 23  2  0
 22 24  1  0
 23 25  1  0
 24 26  2  0
 25 27  2  0
 26 27  1  0
 27 28  1  0
 30 29  1  6
 30 31  1  0
 30 33  1  0
 31 32  2  0
 31 36  1  0
 33 34  1  1
 35 33  1  6
 36 37  1  0
 42 36  1  1
 37 38  1  6
 40 37  1  1
 38 39  2  0
 38 43  1  0
 40 41  1  0
 41 42  1  6
 44 43  1  6
 44 45  1  0
 44 47  1  0
 45 46  1  0
 45 49  2  0
 47 48  1  6
M  CHG  1   1   1
M  END
$$$$
