
     RDKit          3D

 23 24  0  0  0  0  0  0  0  0999 V2000
   -6.4614  -34.0560  -15.6399 C   0  0  1  0  0  0  0  0  0  0  0  0
   -7.3237  -34.5653  -16.7686 C   0  0  1  0  0  0  0  0  0  0  0  0
   -7.6281  -36.0248  -16.4747 C   0  0  2  0  0  0  0  0  0  0  0  0
   -6.2730  -36.7188  -16.4193 C   0  0  1  0  0  0  0  0  0  0  0  0
   -5.5645  -36.1398  -15.1978 C   0  0  1  0  0  0  0  0  0  0  0  0
   -4.1137  -35.8912  -15.5418 C   0  0  0  0  0  0  0  0  0  0  0  0
   -7.0961  -33.0081  -15.0165 O   0  0  0  0  0  0  0  0  0  0  0  0
   -8.4809  -33.8181  -16.9413 O   0  0  0  0  0  0  0  0  0  0  0  0
   -8.4658  -36.5953  -17.4101 O   0  0  0  0  0  0  0  0  0  0  0  0
   -6.3893  -38.0947  -16.3412 O   0  0  0  0  0  0  0  0  0  0  0  0
   -6.1998  -35.0392  -14.6912 O   0  0  0  0  0  0  0  0  0  0  0  0
   -3.3712  -35.9093  -14.3601 O   0  0  0  0  0  0  0  0  0  0  0  0
   -6.1981  -32.0863  -14.4485 C   0  0  2  0  0  0  0  0  0  0  0  0
   -6.7680  -31.6577  -13.1374 C   0  0  1  0  0  0  0  0  0  0  0  0
   -7.8644  -30.6431  -13.2623 C   0  0  2  0  0  0  0  0  0  0  0  0
   -7.8126  -29.8825  -14.5571 C   0  0  1  0  0  0  0  0  0  0  0  0
   -6.4500  -29.8884  -15.1743 C   0  0  1  0  0  0  0  0  0  0  0  0
   -5.5829  -28.8739  -14.4444 C   0  0  0  0  0  0  0  0  0  0  0  0
   -7.3224  -32.7921  -12.5278 O   0  0  0  0  0  0  0  0  0  0  0  0
   -7.7934  -29.7342  -12.2129 O   0  0  0  0  0  0  0  0  0  0  0  0
   -8.7211  -30.3643  -15.5042 O   0  0  0  0  0  0  0  0  0  0  0  0
   -5.8654  -31.1034  -15.3153 O   0  0  0  0  0  0  0  0  0  0  0  0
   -4.4268  -28.6085  -15.1778 O   0  0  0  0  0  0  0  0  0  0  0  0
  1  2  1  0
  1  7  1  1
  1 11  1  0
  2  3  1  0
  2  8  1  1
  3  4  1  0
  3  9  1  6
  5  4  1  0
  4 10  1  1
  5  6  1  6
 11  5  1  0
  6 12  1  0
 13  7  1  6
 13 14  1  0
 22 13  1  0
 15 14  1  0
 14 19  1  6
 16 15  1  0
 15 20  1  1
 17 16  1  0
 16 21  1  6
 17 18  1  1
 17 22  1  0
 23 18  1  0
M  END
$$$$
