
     RDKit          3D

 23 24  0  0  0  0  0  0  0  0999 V2000
   -6.4125  -32.3427  -14.7034 C   0  0  1  0  0  0  0  0  0  0  0  0
   -6.9556  -31.8389  -13.3888 C   0  0  1  0  0  0  0  0  0  0  0  0
   -7.8525  -30.6526  -13.7013 C   0  0  2  0  0  0  0  0  0  0  0  0
   -6.9525  -29.6330  -14.3877 C   0  0  1  0  0  0  0  0  0  0  0  0
   -6.5489  -30.2690  -15.7150 C   0  0  1  0  0  0  0  0  0  0  0  0
   -5.0847  -29.9922  -15.9688 C   0  0  0  0  0  0  0  0  0  0  0  0
   -6.7940  -33.6508  -14.8846 O   0  0  0  0  0  0  0  0  0  0  0  0
   -7.6248  -32.8209  -12.6711 O   0  0  0  0  0  0  0  0  0  0  0  0
   -8.4632  -30.1337  -12.5788 O   0  0  0  0  0  0  0  0  0  0  0  0
   -7.5818  -28.4155  -14.5721 O   0  0  0  0  0  0  0  0  0  0  0  0
   -6.8715  -31.5968  -15.7841 O   0  0  0  0  0  0  0  0  0  0  0  0
   -4.9632  -28.7015  -16.4859 O   0  0  0  0  0  0  0  0  0  0  0  0
   -5.9923  -34.3283  -15.8211 C   0  0  2  0  0  0  0  0  0  0  0  0
   -6.8885  -34.8003  -16.9173 C   0  0  1  0  0  0  0  0  0  0  0  0
   -7.6690  -36.0311  -16.5666 C   0  0  2  0  0  0  0  0  0  0  0  0
   -7.0370  -36.8292  -15.4614 C   0  0  1  0  0  0  0  0  0  0  0  0
   -5.5712  -36.5639  -15.3251 C   0  0  1  0  0  0  0  0  0  0  0  0
   -4.8364  -37.3299  -16.4146 C   0  0  0  0  0  0  0  0  0  0  0  0
   -7.8169  -33.7808  -17.1712 O   0  0  0  0  0  0  0  0  0  0  0  0
   -7.7966  -36.8481  -17.6841 O   0  0  0  0  0  0  0  0  0  0  0  0
   -7.6373  -36.6028  -14.2193 O   0  0  0  0  0  0  0  0  0  0  0  0
   -5.2077  -35.2609  -15.2357 O   0  0  0  0  0  0  0  0  0  0  0  0
   -3.4987  -37.5079  -16.0632 O   0  0  0  0  0  0  0  0  0  0  0  0
  1  2  1  0
  1  7  1  6
  1 11  1  0
  2  3  1  0
  2  8  1  6
  3  4  1  0
  3  9  1  1
  5  4  1  0
  4 10  1  6
  5  6  1  1
 11  5  1  0
  6 12  1  0
 13  7  1  1
 13 14  1  0
 22 13  1  0
 15 14  1  0
 14 19  1  1
 16 15  1  0
 15 20  1  6
 17 16  1  0
 16 21  1  1
 17 18  1  6
 17 22  1  0
 23 18  1  0
M  END
$$$$
