
     RDKit          3D

 23 24  0  0  0  0  0  0  0  0999 V2000
   -6.2026  -34.3932  -15.6198 C   0  0  1  0  0  0  0  0  0  0  0  0
   -5.0551  -35.2324  -15.1062 C   0  0  1  0  0  0  0  0  0  0  0  0
   -4.7439  -36.4056  -15.9919 C   0  0  2  0  0  0  0  0  0  0  0  0
   -4.6363  -35.9338  -17.4118 C   0  0  1  0  0  0  0  0  0  0  0  0
   -5.8414  -35.1253  -17.7850 C   0  0  1  0  0  0  0  0  0  0  0  0
   -7.0866  -35.9583  -17.9327 C   0  0  0  0  0  0  0  0  0  0  0  0
   -6.1830  -33.1987  -14.8942 O   0  0  0  0  0  0  0  0  0  0  0  0
   -3.9285  -34.4695  -14.8681 O   0  0  0  0  0  0  0  0  0  0  0  0
   -5.6819  -37.4159  -15.9246 O   0  0  0  0  0  0  0  0  0  0  0  0
   -3.5266  -35.0688  -17.4755 O   0  0  0  0  0  0  0  0  0  0  0  0
   -6.0902  -34.0625  -16.9480 O   0  0  0  0  0  0  0  0  0  0  0  0
   -7.1721  -36.4582  -19.2192 O   0  0  0  0  0  0  0  0  0  0  0  0
   -7.2420  -32.3492  -15.2858 C   0  0  2  0  0  0  0  0  0  0  0  0
   -6.6364  -31.0737  -15.7496 C   0  0  1  0  0  0  0  0  0  0  0  0
   -7.3181  -29.8262  -15.3514 C   0  0  2  0  0  0  0  0  0  0  0  0
   -8.1652  -29.9318  -14.1117 C   0  0  1  0  0  0  0  0  0  0  0  0
   -7.7039  -31.1755  -13.3798 C   0  0  1  0  0  0  0  0  0  0  0  0
   -8.3083  -31.2697  -11.9994 C   0  0  0  0  0  0  0  0  0  0  0  0
   -5.2700  -30.9739  -15.3974 O   0  0  0  0  0  0  0  0  0  0  0  0
   -8.0944  -29.2923  -16.4062 O   0  0  0  0  0  0  0  0  0  0  0  0
   -8.0571  -28.8019  -13.3002 O   0  0  0  0  0  0  0  0  0  0  0  0
   -8.0676  -32.2403  -14.1828 O   0  0  0  0  0  0  0  0  0  0  0  0
   -9.6650  -31.4765  -12.0677 O   0  0  0  0  0  0  0  0  0  0  0  0
  1  2  1  0
  1  7  1  1
  1 11  1  0
  2  3  1  0
  2  8  1  6
  3  4  1  0
  3  9  1  6
  5  4  1  0
  4 10  1  1
  5  6  1  0
  5 11  1  1
  6 12  1  6
 13  7  1  1
 13 14  1  0
 22 13  1  0
 15 14  1  0
 14 19  1  1
 16 15  1  0
 15 20  1  6
 17 16  1  0
 16 21  1  1
 18 17  1  0
 17 22  1  6
 18 23  1  6
M  END
$$$$
