
     RDKit          3D

 23 24  0  0  0  0  0  0  0  0999 V2000
   -6.4741  -33.8156  -15.9889 C   0  0  1  0  0  0  0  0  0  0  0  0
   -7.3897  -34.7922  -16.6910 C   0  0  1  0  0  0  0  0  0  0  0  0
   -6.7800  -36.1561  -16.8521 C   0  0  2  0  0  0  0  0  0  0  0  0
   -6.2205  -36.6025  -15.5338 C   0  0  1  0  0  0  0  0  0  0  0  0
   -5.3288  -35.5435  -14.9606 C   0  0  1  0  0  0  0  0  0  0  0  0
   -4.0282  -35.4024  -15.7055 C   0  0  0  0  0  0  0  0  0  0  0  0
   -7.2575  -32.7133  -15.6356 O   0  0  0  0  0  0  0  0  0  0  0  0
   -8.6272  -34.8636  -16.0815 O   0  0  0  0  0  0  0  0  0  0  0  0
   -5.7820  -36.2088  -17.8042 O   0  0  0  0  0  0  0  0  0  0  0  0
   -7.3088  -36.7438  -14.6510 O   0  0  0  0  0  0  0  0  0  0  0  0
   -5.9260  -34.3111  -14.8313 O   0  0  0  0  0  0  0  0  0  0  0  0
   -3.1044  -36.3106  -15.2216 O   0  0  0  0  0  0  0  0  0  0  0  0
   -6.5772  -31.8793  -14.7202 C   0  0  2  0  0  0  0  0  0  0  0  0
   -7.2375  -32.0430  -13.3988 C   0  0  1  0  0  0  0  0  0  0  0  0
   -7.4306  -30.8219  -12.5919 C   0  0  2  0  0  0  0  0  0  0  0  0
   -7.4711  -29.5393  -13.3786 C   0  0  1  0  0  0  0  0  0  0  0  0
   -7.7576  -29.9245  -14.8155 C   0  0  1  0  0  0  0  0  0  0  0  0
   -8.0601  -28.7168  -15.6696 C   0  0  0  0  0  0  0  0  0  0  0  0
   -8.4773  -32.7163  -13.5029 O   0  0  0  0  0  0  0  0  0  0  0  0
   -6.4639  -30.7125  -11.5654 O   0  0  0  0  0  0  0  0  0  0  0  0
   -8.4337  -28.6528  -12.8945 O   0  0  0  0  0  0  0  0  0  0  0  0
   -6.6365  -30.6053  -15.2524 O   0  0  0  0  0  0  0  0  0  0  0  0
   -6.9140  -28.0153  -15.9563 O   0  0  0  0  0  0  0  0  0  0  0  0
  1  2  1  0
  1  7  1  1
  1 11  1  0
  2  3  1  0
  2  8  1  1
  3  4  1  0
  3  9  1  6
  5  4  1  0
  4 10  1  1
  5  6  1  0
  5 11  1  6
  6 12  1  6
 13  7  1  6
 13 14  1  0
 22 13  1  0
 15 14  1  0
 14 19  1  6
 16 15  1  0
 15 20  1  1
 17 16  1  0
 16 21  1  1
 18 17  1  0
 17 22  1  6
 18 23  1  6
M  END
$$$$
