
     RDKit          3D

 23 24  0  0  0  0  0  0  0  0999 V2000
   -6.5046  -32.0892  -14.5030 C   0  0  1  0  0  0  0  0  0  0  0  0
   -7.2471  -31.5723  -13.2920 C   0  0  1  0  0  0  0  0  0  0  0  0
   -7.2673  -30.0720  -13.2125 C   0  0  2  0  0  0  0  0  0  0  0  0
   -7.6937  -29.5157  -14.5387 C   0  0  1  0  0  0  0  0  0  0  0  0
   -6.8701  -30.1080  -15.6414 C   0  0  1  0  0  0  0  0  0  0  0  0
   -5.4500  -29.6083  -15.6492 C   0  0  0  0  0  0  0  0  0  0  0  0
   -6.8212  -33.4455  -14.6198 O   0  0  0  0  0  0  0  0  0  0  0  0
   -8.5222  -32.0972  -13.2101 O   0  0  0  0  0  0  0  0  0  0  0  0
   -6.0519  -29.5185  -12.8635 O   0  0  0  0  0  0  0  0  0  0  0  0
   -9.0227  -29.9308  -14.7514 O   0  0  0  0  0  0  0  0  0  0  0  0
   -6.8787  -31.4830  -15.6771 O   0  0  0  0  0  0  0  0  0  0  0  0
   -4.9383  -29.6560  -16.9330 O   0  0  0  0  0  0  0  0  0  0  0  0
   -6.5766  -33.9131  -15.9304 C   0  0  2  0  0  0  0  0  0  0  0  0
   -7.8415  -34.5140  -16.4282 C   0  0  1  0  0  0  0  0  0  0  0  0
   -7.7281  -35.7671  -17.2003 C   0  0  2  0  0  0  0  0  0  0  0  0
   -6.4865  -36.5728  -16.9267 C   0  0  1  0  0  0  0  0  0  0  0  0
   -5.9388  -36.0832  -15.6017 C   0  0  1  0  0  0  0  0  0  0  0  0
   -4.8275  -36.9695  -15.0930 C   0  0  0  0  0  0  0  0  0  0  0  0
   -8.7839  -34.7063  -15.3909 O   0  0  0  0  0  0  0  0  0  0  0  0
   -7.8426  -35.5390  -18.5913 O   0  0  0  0  0  0  0  0  0  0  0  0
   -6.7440  -37.9436  -16.8883 O   0  0  0  0  0  0  0  0  0  0  0  0
   -5.5117  -34.7879  -15.8277 O   0  0  0  0  0  0  0  0  0  0  0  0
   -3.5964  -36.4242  -15.3671 O   0  0  0  0  0  0  0  0  0  0  0  0
  1  2  1  0
  1  7  1  6
  1 11  1  0
  2  3  1  0
  2  8  1  6
  3  4  1  0
  3  9  1  6
  5  4  1  0
  4 10  1  6
  5  6  1  0
  5 11  1  1
  6 12  1  6
 13  7  1  1
 13 14  1  0
 22 13  1  0
 15 14  1  0
 14 19  1  1
 16 15  1  0
 15 20  1  6
 17 16  1  0
 16 21  1  1
 18 17  1  0
 17 22  1  6
 18 23  1  6
M  END
$$$$
