
     RDKit          3D

 23 24  0  0  0  0  0  0  0  0999 V2000
   -6.5418  -32.3461  -14.6690 C   0  0  1  0  0  0  0  0  0  0  0  0
   -7.0094  -31.8452  -13.3246 C   0  0  1  0  0  0  0  0  0  0  0  0
   -7.9999  -30.7228  -13.5860 C   0  0  2  0  0  0  0  0  0  0  0  0
   -7.2218  -29.6672  -14.3614 C   0  0  1  0  0  0  0  0  0  0  0  0
   -6.8859  -30.3087  -15.7048 C   0  0  1  0  0  0  0  0  0  0  0  0
   -5.4663  -29.9503  -16.0805 C   0  0  0  0  0  0  0  0  0  0  0  0
   -6.8547  -33.6787  -14.7946 O   0  0  0  0  0  0  0  0  0  0  0  0
   -7.5576  -32.8486  -12.5372 O   0  0  0  0  0  0  0  0  0  0  0  0
   -8.5510  -30.2153  -12.4280 O   0  0  0  0  0  0  0  0  0  0  0  0
   -7.9380  -28.4944  -14.5172 O   0  0  0  0  0  0  0  0  0  0  0  0
   -7.1301  -31.6548  -15.7230 O   0  0  0  0  0  0  0  0  0  0  0  0
   -5.3659  -28.5598  -16.1481 O   0  0  0  0  0  0  0  0  0  0  0  0
   -6.0447  -34.3433  -15.7332 C   0  0  2  0  0  0  0  0  0  0  0  0
   -6.9470  -34.9171  -16.7745 C   0  0  1  0  0  0  0  0  0  0  0  0
   -7.6332  -36.1787  -16.3451 C   0  0  2  0  0  0  0  0  0  0  0  0
   -6.9118  -36.8877  -15.2339 C   0  0  1  0  0  0  0  0  0  0  0  0
   -5.4623  -36.5247  -15.1646 C   0  0  1  0  0  0  0  0  0  0  0  0
   -4.7189  -37.2883  -16.2499 C   0  0  0  0  0  0  0  0  0  0  0  0
   -7.9479  -33.9699  -17.0332 O   0  0  0  0  0  0  0  0  0  0  0  0
   -7.7475  -37.0488  -17.4233 O   0  0  0  0  0  0  0  0  0  0  0  0
   -7.4808  -36.6472  -13.9797 O   0  0  0  0  0  0  0  0  0  0  0  0
   -5.1810  -35.1987  -15.1414 O   0  0  0  0  0  0  0  0  0  0  0  0
   -3.3652  -37.3893  -15.9302 O   0  0  0  0  0  0  0  0  0  0  0  0
  1  2  1  0
  1  7  1  6
  1 11  1  0
  2  3  1  0
  2  8  1  6
  3  4  1  0
  3  9  1  1
  5  4  1  0
  4 10  1  6
  5  6  1  1
 11  5  1  0
  6 12  1  0
 13  7  1  1
 13 14  1  0
 22 13  1  0
 15 14  1  0
 14 19  1  1
 16 15  1  0
 15 20  1  6
 17 16  1  0
 16 21  1  1
 17 18  1  6
 17 22  1  0
 23 18  1  0
M  END
$$$$
