
     RDKit          3D

 23 24  0  0  0  0  0  0  0  0999 V2000
   -6.4387  -32.1943  -14.2786 C   0  0  1  0  0  0  0  0  0  0  0  0
   -7.1523  -31.6439  -13.0651 C   0  0  1  0  0  0  0  0  0  0  0  0
   -7.1019  -30.1443  -12.9849 C   0  0  2  0  0  0  0  0  0  0  0  0
   -7.5062  -29.5679  -14.3096 C   0  0  1  0  0  0  0  0  0  0  0  0
   -6.7148  -30.1976  -15.4152 C   0  0  1  0  0  0  0  0  0  0  0  0
   -5.2729  -29.7650  -15.4274 C   0  0  0  0  0  0  0  0  0  0  0  0
   -6.8190  -33.5343  -14.3949 O   0  0  0  0  0  0  0  0  0  0  0  0
   -8.4503  -32.1085  -12.9791 O   0  0  0  0  0  0  0  0  0  0  0  0
   -5.8608  -29.6485  -12.6398 O   0  0  0  0  0  0  0  0  0  0  0  0
   -8.8538  -29.9203  -14.5180 O   0  0  0  0  0  0  0  0  0  0  0  0
   -6.7879  -31.5707  -15.4513 O   0  0  0  0  0  0  0  0  0  0  0  0
   -5.0467  -28.9013  -16.4834 O   0  0  0  0  0  0  0  0  0  0  0  0
   -6.6583  -33.9946  -15.7210 C   0  0  2  0  0  0  0  0  0  0  0  0
   -7.9046  -34.7140  -16.0927 C   0  0  1  0  0  0  0  0  0  0  0  0
   -7.7509  -35.9616  -16.8670 C   0  0  2  0  0  0  0  0  0  0  0  0
   -6.4204  -36.6477  -16.7104 C   0  0  1  0  0  0  0  0  0  0  0  0
   -5.7963  -36.0934  -15.4461 C   0  0  1  0  0  0  0  0  0  0  0  0
   -4.5652  -36.8687  -15.0426 C   0  0  0  0  0  0  0  0  0  0  0  0
   -8.7225  -34.9777  -14.9690 O   0  0  0  0  0  0  0  0  0  0  0  0
   -8.0175  -35.7627  -18.2416 O   0  0  0  0  0  0  0  0  0  0  0  0
   -6.5466  -38.0356  -16.6418 O   0  0  0  0  0  0  0  0  0  0  0  0
   -5.5129  -34.7678  -15.7173 O   0  0  0  0  0  0  0  0  0  0  0  0
   -3.7154  -36.0909  -14.2936 O   0  0  0  0  0  0  0  0  0  0  0  0
  1  2  1  0
  1  7  1  6
  1 11  1  0
  2  3  1  0
  2  8  1  6
  3  4  1  0
  3  9  1  6
  5  4  1  0
  4 10  1  6
  5  6  1  0
  5 11  1  1
  6 12  1  6
 13  7  1  1
 13 14  1  0
 22 13  1  0
 15 14  1  0
 14 19  1  1
 16 15  1  0
 15 20  1  6
 17 16  1  0
 16 21  1  1
 18 17  1  0
 17 22  1  6
 18 23  1  6
M  END
$$$$
