
     RDKit          3D

 23 24  0  0  0  0  0  0  0  0999 V2000
   -6.6356  -33.9756  -16.2679 C   0  0  1  0  0  0  0  0  0  0  0  0
   -7.3212  -34.4415  -17.5319 C   0  0  1  0  0  0  0  0  0  0  0  0
   -6.7883  -35.7515  -18.0395 C   0  0  2  0  0  0  0  0  0  0  0  0
   -6.7446  -36.7354  -16.9079 C   0  0  1  0  0  0  0  0  0  0  0  0
   -6.0318  -36.1437  -15.7302 C   0  0  1  0  0  0  0  0  0  0  0  0
   -4.5486  -36.0060  -15.9482 C   0  0  0  0  0  0  0  0  0  0  0  0
   -7.4149  -32.9388  -15.7469 O   0  0  0  0  0  0  0  0  0  0  0  0
   -8.6942  -34.4800  -17.3859 O   0  0  0  0  0  0  0  0  0  0  0  0
   -5.5313  -35.6586  -18.6022 O   0  0  0  0  0  0  0  0  0  0  0  0
   -8.0759  -36.9636  -16.5089 O   0  0  0  0  0  0  0  0  0  0  0  0
   -6.5511  -34.9452  -15.2990 O   0  0  0  0  0  0  0  0  0  0  0  0
   -3.8649  -36.3921  -14.8098 O   0  0  0  0  0  0  0  0  0  0  0  0
   -6.7575  -32.3003  -14.6715 C   0  0  2  0  0  0  0  0  0  0  0  0
   -7.7945  -31.9467  -13.6673 C   0  0  1  0  0  0  0  0  0  0  0  0
   -7.6707  -30.6288  -13.0138 C   0  0  2  0  0  0  0  0  0  0  0  0
   -6.8991  -29.6005  -13.7966 C   0  0  1  0  0  0  0  0  0  0  0  0
   -6.8662  -30.0869  -15.2310 C   0  0  1  0  0  0  0  0  0  0  0  0
   -6.3277  -29.0326  -16.1679 C   0  0  0  0  0  0  0  0  0  0  0  0
   -9.1040  -32.0715  -14.1877 O   0  0  0  0  0  0  0  0  0  0  0  0
   -7.1239  -30.7365  -11.7139 O   0  0  0  0  0  0  0  0  0  0  0  0
   -7.4718  -28.3311  -13.7094 O   0  0  0  0  0  0  0  0  0  0  0  0
   -6.0841  -31.2268  -15.2230 O   0  0  0  0  0  0  0  0  0  0  0  0
   -5.1852  -28.4602  -15.6627 O   0  0  0  0  0  0  0  0  0  0  0  0
  1  2  1  0
  1  7  1  1
  1 11  1  0
  2  3  1  0
  2  8  1  1
  3  4  1  0
  3  9  1  1
  5  4  1  0
  4 10  1  1
  5  6  1  0
  5 11  1  6
  6 12  1  6
 13  7  1  6
 13 14  1  0
 22 13  1  0
 15 14  1  0
 14 19  1  6
 16 15  1  0
 15 20  1  1
 17 16  1  0
 16 21  1  6
 18 17  1  0
 17 22  1  1
 18 23  1  6
M  END
$$$$
