
     RDKit          3D

 23 24  0  0  0  0  0  0  0  0999 V2000
   -6.3493  -34.1473  -15.3442 C   0  0  1  0  0  0  0  0  0  0  0  0
   -5.2431  -34.7149  -14.4845 C   0  0  1  0  0  0  0  0  0  0  0  0
   -5.1143  -36.2072  -14.6040 C   0  0  2  0  0  0  0  0  0  0  0  0
   -5.0840  -36.5826  -16.0560 C   0  0  1  0  0  0  0  0  0  0  0  0
   -6.2383  -35.9589  -16.7797 C   0  0  1  0  0  0  0  0  0  0  0  0
   -7.5615  -36.5842  -16.4271 C   0  0  0  0  0  0  0  0  0  0  0  0
   -6.1613  -32.7627  -15.3784 O   0  0  0  0  0  0  0  0  0  0  0  0
   -4.0363  -34.0857  -14.7205 O   0  0  0  0  0  0  0  0  0  0  0  0
   -6.1307  -36.9034  -13.9815 O   0  0  0  0  0  0  0  0  0  0  0  0
   -3.9101  -36.0269  -16.6008 O   0  0  0  0  0  0  0  0  0  0  0  0
   -6.3192  -34.5926  -16.6430 O   0  0  0  0  0  0  0  0  0  0  0  0
   -8.3998  -36.5705  -17.5268 O   0  0  0  0  0  0  0  0  0  0  0  0
   -7.3840  -32.0795  -15.1923 C   0  0  2  0  0  0  0  0  0  0  0  0
   -7.3131  -30.8238  -15.9842 C   0  0  1  0  0  0  0  0  0  0  0  0
   -7.8675  -29.6067  -15.3590 C   0  0  2  0  0  0  0  0  0  0  0  0
   -7.9143  -29.6291  -13.8547 C   0  0  1  0  0  0  0  0  0  0  0  0
   -6.9550  -30.7142  -13.4102 C   0  0  1  0  0  0  0  0  0  0  0  0
   -6.7265  -30.6831  -11.9181 C   0  0  0  0  0  0  0  0  0  0  0  0
   -5.9981  -30.5461  -16.4254 O   0  0  0  0  0  0  0  0  0  0  0  0
   -9.1513  -29.2951  -15.8639 O   0  0  0  0  0  0  0  0  0  0  0  0
   -7.5722  -28.3966  -13.2972 O   0  0  0  0  0  0  0  0  0  0  0  0
   -7.5170  -31.9062  -13.8277 O   0  0  0  0  0  0  0  0  0  0  0  0
   -7.9190  -30.6985  -11.2357 O   0  0  0  0  0  0  0  0  0  0  0  0
  1  2  1  0
  1  7  1  6
  1 11  1  0
  2  3  1  0
  2  8  1  6
  3  4  1  0
  3  9  1  1
  5  4  1  0
  4 10  1  6
  5  6  1  0
  5 11  1  1
  6 12  1  6
 13  7  1  1
 13 14  1  0
 22 13  1  0
 15 14  1  0
 14 19  1  1
 16 15  1  0
 15 20  1  6
 17 16  1  0
 16 21  1  1
 18 17  1  0
 17 22  1  1
 18 23  1  6
M  END
$$$$
