
     RDKit          3D

 23 24  0  0  0  0  0  0  0  0999 V2000
   -6.5856  -33.7784  -15.7555 C   0  0  1  0  0  0  0  0  0  0  0  0
   -7.4250  -34.5880  -16.7173 C   0  0  1  0  0  0  0  0  0  0  0  0
   -6.7543  -35.8597  -17.1541 C   0  0  2  0  0  0  0  0  0  0  0  0
   -6.2452  -36.5867  -15.9448 C   0  0  1  0  0  0  0  0  0  0  0  0
   -5.4264  -35.6675  -15.0905 C   0  0  1  0  0  0  0  0  0  0  0  0
   -4.0963  -35.3216  -15.7049 C   0  0  0  0  0  0  0  0  0  0  0  0
   -7.4290  -32.8105  -15.2028 O   0  0  0  0  0  0  0  0  0  0  0  0
   -8.6880  -34.8329  -16.2145 O   0  0  0  0  0  0  0  0  0  0  0  0
   -5.7080  -35.6617  -18.0323 O   0  0  0  0  0  0  0  0  0  0  0  0
   -7.3704  -36.9594  -15.1842 O   0  0  0  0  0  0  0  0  0  0  0  0
   -6.0777  -34.5159  -14.7143 O   0  0  0  0  0  0  0  0  0  0  0  0
   -3.0807  -35.5478  -14.7940 O   0  0  0  0  0  0  0  0  0  0  0  0
   -6.7007  -31.8953  -14.4100 C   0  0  2  0  0  0  0  0  0  0  0  0
   -7.4493  -31.7197  -13.1381 C   0  0  1  0  0  0  0  0  0  0  0  0
   -7.5309  -30.3498  -12.5940 C   0  0  2  0  0  0  0  0  0  0  0  0
   -7.3647  -29.2510  -13.6092 C   0  0  1  0  0  0  0  0  0  0  0  0
   -7.6169  -29.8765  -14.9658 C   0  0  1  0  0  0  0  0  0  0  0  0
   -7.7159  -28.8342  -16.0536 C   0  0  0  0  0  0  0  0  0  0  0  0
   -8.7566  -32.2552  -13.2114 O   0  0  0  0  0  0  0  0  0  0  0  0
   -6.6170  -30.1508  -11.5331 O   0  0  0  0  0  0  0  0  0  0  0  0
   -8.2328  -28.1832  -13.3789 O   0  0  0  0  0  0  0  0  0  0  0  0
   -6.5685  -30.7526  -15.1760 O   0  0  0  0  0  0  0  0  0  0  0  0
   -7.5934  -29.4055  -17.2972 O   0  0  0  0  0  0  0  0  0  0  0  0
  1  2  1  0
  1  7  1  1
  1 11  1  0
  2  3  1  0
  2  8  1  1
  3  4  1  0
  3  9  1  6
  5  4  1  0
  4 10  1  1
  5  6  1  0
  5 11  1  6
  6 12  1  6
 13  7  1  6
 13 14  1  0
 22 13  1  0
 15 14  1  0
 14 19  1  6
 16 15  1  0
 15 20  1  1
 17 16  1  0
 16 21  1  1
 18 17  1  0
 17 22  1  6
 18 23  1  6
M  END
$$$$
