
     RDKit          3D

 23 24  0  0  0  0  0  0  0  0999 V2000
   -6.4404  -32.1532  -14.9133 C   0  0  1  0  0  0  0  0  0  0  0  0
   -6.6967  -31.6844  -13.5020 C   0  0  1  0  0  0  0  0  0  0  0  0
   -7.8426  -30.6881  -13.5635 C   0  0  2  0  0  0  0  0  0  0  0  0
   -7.3555  -29.5648  -14.4700 C   0  0  1  0  0  0  0  0  0  0  0  0
   -7.2110  -30.1884  -15.8555 C   0  0  1  0  0  0  0  0  0  0  0  0
   -5.9411  -29.6764  -16.4961 C   0  0  0  0  0  0  0  0  0  0  0  0
   -6.6146  -33.5151  -14.9815 O   0  0  0  0  0  0  0  0  0  0  0  0
   -6.9635  -32.7293  -12.6278 O   0  0  0  0  0  0  0  0  0  0  0  0
   -8.2166  -30.2259  -12.3191 O   0  0  0  0  0  0  0  0  0  0  0  0
   -8.2196  -28.4851  -14.4806 O   0  0  0  0  0  0  0  0  0  0  0  0
   -7.2961  -31.5536  -15.8316 O   0  0  0  0  0  0  0  0  0  0  0  0
   -6.0930  -28.3117  -16.7465 O   0  0  0  0  0  0  0  0  0  0  0  0
   -5.8592  -34.1110  -16.0075 C   0  0  2  0  0  0  0  0  0  0  0  0
   -6.8057  -34.8747  -16.8728 C   0  0  1  0  0  0  0  0  0  0  0  0
   -7.2180  -36.1940  -16.2928 C   0  0  2  0  0  0  0  0  0  0  0  0
   -6.2400  -36.7188  -15.2800 C   0  0  1  0  0  0  0  0  0  0  0  0
   -4.8697  -36.1438  -15.4508 C   0  0  1  0  0  0  0  0  0  0  0  0
   -4.1856  -36.8565  -16.6074 C   0  0  0  0  0  0  0  0  0  0  0  0
   -7.9678  -34.1024  -17.0100 O   0  0  0  0  0  0  0  0  0  0  0  0
   -7.3544  -37.1370  -17.3051 O   0  0  0  0  0  0  0  0  0  0  0  0
   -6.6481  -36.4865  -13.9631 O   0  0  0  0  0  0  0  0  0  0  0  0
   -4.7960  -34.7921  -15.5237 O   0  0  0  0  0  0  0  0  0  0  0  0
   -2.8046  -36.6745  -16.5395 O   0  0  0  0  0  0  0  0  0  0  0  0
  1  2  1  0
  1  7  1  1
  1 11  1  0
  2  3  1  0
  2  8  1  1
  3  4  1  0
  3  9  1  1
  5  4  1  0
  4 10  1  6
  5  6  1  1
 11  5  1  0
  6 12  1  0
 13  7  1  1
 13 14  1  0
 22 13  1  0
 15 14  1  0
 14 19  1  1
 16 15  1  0
 15 20  1  6
 17 16  1  0
 16 21  1  1
 17 18  1  6
 17 22  1  0
 23 18  1  0
M  END
$$$$
