
     RDKit          3D

 23 24  0  0  0  0  0  0  0  0999 V2000
   -6.4553  -34.5228  -14.6914 C   0  0  1  0  0  0  0  0  0  0  0  0
   -5.1332  -34.6954  -15.4036 C   0  0  1  0  0  0  0  0  0  0  0  0
   -5.2307  -35.5776  -16.6160 C   0  0  2  0  0  0  0  0  0  0  0  0
   -6.3845  -35.1249  -17.4610 C   0  0  1  0  0  0  0  0  0  0  0  0
   -7.6249  -35.0060  -16.6287 C   0  0  1  0  0  0  0  0  0  0  0  0
   -8.1815  -36.3398  -16.2077 C   0  0  0  0  0  0  0  0  0  0  0  0
   -6.2933  -33.4628  -13.7949 O   0  0  0  0  0  0  0  0  0  0  0  0
   -4.5545  -33.4796  -15.7118 O   0  0  0  0  0  0  0  0  0  0  0  0
   -5.3910  -36.9155  -16.3172 O   0  0  0  0  0  0  0  0  0  0  0  0
   -6.0747  -33.8306  -17.9220 O   0  0  0  0  0  0  0  0  0  0  0  0
   -7.4915  -34.1904  -15.5291 O   0  0  0  0  0  0  0  0  0  0  0  0
   -8.2307  -37.1961  -17.2925 O   0  0  0  0  0  0  0  0  0  0  0  0
   -7.5223  -32.8080  -13.5553 C   0  0  2  0  0  0  0  0  0  0  0  0
   -7.8956  -32.0982  -14.8066 C   0  0  1  0  0  0  0  0  0  0  0  0
   -8.4698  -30.7459  -14.6625 C   0  0  2  0  0  0  0  0  0  0  0  0
   -8.1029  -30.0313  -13.3895 C   0  0  1  0  0  0  0  0  0  0  0  0
   -6.8801  -30.7352  -12.8378 C   0  0  1  0  0  0  0  0  0  0  0  0
   -6.2658  -29.9729  -11.6884 C   0  0  0  0  0  0  0  0  0  0  0  0
   -6.8214  -32.0373  -15.7250 O   0  0  0  0  0  0  0  0  0  0  0  0
   -9.8766  -30.7545  -14.8071 O   0  0  0  0  0  0  0  0  0  0  0  0
   -7.8505  -28.6751  -13.5989 O   0  0  0  0  0  0  0  0  0  0  0  0
   -7.3099  -31.9934  -12.4594 O   0  0  0  0  0  0  0  0  0  0  0  0
   -7.2225  -29.6025  -10.7743 O   0  0  0  0  0  0  0  0  0  0  0  0
  1  2  1  0
  1  7  1  1
  1 11  1  0
  2  3  1  0
  2  8  1  6
  3  4  1  0
  3  9  1  1
  5  4  1  0
  4 10  1  1
  5  6  1  0
  5 11  1  1
  6 12  1  6
 13  7  1  6
 13 14  1  0
 22 13  1  0
 15 14  1  0
 14 19  1  6
 16 15  1  0
 15 20  1  1
 17 16  1  0
 16 21  1  6
 18 17  1  0
 17 22  1  1
 18 23  1  6
M  END
$$$$
