
     RDKit          3D

 23 24  0  0  0  0  0  0  0  0999 V2000
   -6.3964  -32.5359  -14.4953 C   0  0  1  0  0  0  0  0  0  0  0  0
   -7.3270  -32.0884  -13.3949 C   0  0  1  0  0  0  0  0  0  0  0  0
   -7.8783  -30.7316  -13.8004 C   0  0  2  0  0  0  0  0  0  0  0  0
   -6.6623  -29.8243  -13.9385 C   0  0  1  0  0  0  0  0  0  0  0  0
   -5.8718  -30.3741  -15.1226 C   0  0  1  0  0  0  0  0  0  0  0  0
   -4.3980  -30.3428  -14.7881 C   0  0  0  0  0  0  0  0  0  0  0  0
   -6.8458  -33.7248  -15.0189 O   0  0  0  0  0  0  0  0  0  0  0  0
   -8.3383  -33.0045  -13.1395 O   0  0  0  0  0  0  0  0  0  0  0  0
   -8.7961  -30.2359  -12.8982 O   0  0  0  0  0  0  0  0  0  0  0  0
   -7.0127  -28.4997  -14.1259 O   0  0  0  0  0  0  0  0  0  0  0  0
   -6.3121  -31.6052  -15.5256 O   0  0  0  0  0  0  0  0  0  0  0  0
   -4.0787  -29.0664  -14.3224 O   0  0  0  0  0  0  0  0  0  0  0  0
   -5.8356  -34.4460  -15.6808 C   0  0  2  0  0  0  0  0  0  0  0  0
   -6.2771  -34.6385  -17.0935 C   0  0  1  0  0  0  0  0  0  0  0  0
   -7.2880  -35.7324  -17.2627 C   0  0  2  0  0  0  0  0  0  0  0  0
   -7.2580  -36.7346  -16.1436 C   0  0  1  0  0  0  0  0  0  0  0  0
   -5.9456  -36.7578  -15.4262 C   0  0  1  0  0  0  0  0  0  0  0  0
   -4.9473  -37.5387  -16.2671 C   0  0  0  0  0  0  0  0  0  0  0  0
   -6.8848  -33.4461  -17.5114 O   0  0  0  0  0  0  0  0  0  0  0  0
   -7.0685  -36.4018  -18.4611 O   0  0  0  0  0  0  0  0  0  0  0  0
   -8.2663  -36.5208  -15.1989 O   0  0  0  0  0  0  0  0  0  0  0  0
   -5.4786  -35.5584  -15.0003 O   0  0  0  0  0  0  0  0  0  0  0  0
   -4.0655  -38.2397  -15.4449 O   0  0  0  0  0  0  0  0  0  0  0  0
  1  2  1  0
  1  7  1  6
  1 11  1  0
  2  3  1  0
  2  8  1  6
  3  4  1  0
  3  9  1  1
  5  4  1  0
  4 10  1  6
  5  6  1  1
 11  5  1  0
  6 12  1  0
 13  7  1  1
 13 14  1  0
 22 13  1  0
 15 14  1  0
 14 19  1  1
 16 15  1  0
 15 20  1  6
 17 16  1  0
 16 21  1  1
 17 18  1  6
 17 22  1  0
 23 18  1  0
M  END
$$$$
