
     RDKit          3D

 23 24  0  0  0  0  0  0  0  0999 V2000
   -7.1204  -33.3441  -15.9438 C   0  0  1  0  0  0  0  0  0  0  0  0
   -7.8822  -34.6003  -15.5994 C   0  0  1  0  0  0  0  0  0  0  0  0
   -6.8541  -35.6871  -15.3327 C   0  0  2  0  0  0  0  0  0  0  0  0
   -6.0626  -35.8235  -16.6272 C   0  0  1  0  0  0  0  0  0  0  0  0
   -5.3099  -34.5057  -16.7894 C   0  0  1  0  0  0  0  0  0  0  0  0
   -5.3662  -34.0814  -18.2391 C   0  0  0  0  0  0  0  0  0  0  0  0
   -7.4333  -32.3571  -15.0395 O   0  0  0  0  0  0  0  0  0  0  0  0
   -8.7465  -34.4287  -14.5267 O   0  0  0  0  0  0  0  0  0  0  0  0
   -7.4261  -36.8809  -14.9457 O   0  0  0  0  0  0  0  0  0  0  0  0
   -5.2029  -36.9065  -16.6067 O   0  0  0  0  0  0  0  0  0  0  0  0
   -5.7435  -33.5399  -15.9227 O   0  0  0  0  0  0  0  0  0  0  0  0
   -4.2679  -33.2609  -18.5011 O   0  0  0  0  0  0  0  0  0  0  0  0
   -7.0831  -31.0720  -15.4916 C   0  0  2  0  0  0  0  0  0  0  0  0
   -6.1881  -30.4653  -14.4626 C   0  0  1  0  0  0  0  0  0  0  0  0
   -6.9205  -29.9384  -13.2656 C   0  0  2  0  0  0  0  0  0  0  0  0
   -8.3645  -29.6354  -13.5501 C   0  0  1  0  0  0  0  0  0  0  0  0
   -8.6279  -29.3997  -15.0036 C   0  0  1  0  0  0  0  0  0  0  0  0
   -8.1740  -27.9914  -15.3564 C   0  0  0  0  0  0  0  0  0  0  0  0
   -5.3248  -31.4724  -14.0085 O   0  0  0  0  0  0  0  0  0  0  0  0
   -6.3080  -28.7782  -12.8058 O   0  0  0  0  0  0  0  0  0  0  0  0
   -9.2258  -30.6449  -13.1101 O   0  0  0  0  0  0  0  0  0  0  0  0
   -8.1671  -30.3496  -15.8540 O   0  0  0  0  0  0  0  0  0  0  0  0
   -8.8689  -27.5238  -16.4714 O   0  0  0  0  0  0  0  0  0  0  0  0
  1  2  1  0
  1  7  1  1
  1 11  1  0
  2  3  1  0
  2  8  1  1
  3  4  1  0
  3  9  1  6
  5  4  1  0
  4 10  1  1
  5  6  1  6
 11  5  1  0
  6 12  1  0
 13  7  1  1
 13 14  1  0
 22 13  1  0
 15 14  1  0
 14 19  1  1
 16 15  1  0
 15 20  1  6
 17 16  1  0
 16 21  1  6
 17 18  1  6
 17 22  1  0
 23 18  1  0
M  END
$$$$
