
     RDKit          3D

 23 24  0  0  0  0  0  0  0  0999 V2000
   -6.5986  -34.0449  -15.6427 C   0  0  1  0  0  0  0  0  0  0  0  0
   -7.5107  -34.8816  -16.5103 C   0  0  1  0  0  0  0  0  0  0  0  0
   -6.8481  -36.1269  -17.0280 C   0  0  2  0  0  0  0  0  0  0  0  0
   -6.1816  -36.8385  -15.8879 C   0  0  1  0  0  0  0  0  0  0  0  0
   -5.3058  -35.8927  -15.1239 C   0  0  1  0  0  0  0  0  0  0  0  0
   -4.0658  -35.4971  -15.8804 C   0  0  0  0  0  0  0  0  0  0  0  0
   -7.4089  -33.1097  -14.9927 O   0  0  0  0  0  0  0  0  0  0  0  0
   -8.7001  -35.1734  -15.8716 O   0  0  0  0  0  0  0  0  0  0  0  0
   -5.9141  -35.8888  -18.0160 O   0  0  0  0  0  0  0  0  0  0  0  0
   -7.2009  -37.2538  -15.0092 O   0  0  0  0  0  0  0  0  0  0  0  0
   -5.9516  -34.7664  -14.6696 O   0  0  0  0  0  0  0  0  0  0  0  0
   -2.9718  -36.1860  -15.3897 O   0  0  0  0  0  0  0  0  0  0  0  0
   -6.6291  -32.1501  -14.3091 C   0  0  2  0  0  0  0  0  0  0  0  0
   -7.2528  -31.9427  -12.9761 C   0  0  1  0  0  0  0  0  0  0  0  0
   -7.3144  -30.5553  -12.4752 C   0  0  2  0  0  0  0  0  0  0  0  0
   -7.2764  -29.4922  -13.5401 C   0  0  1  0  0  0  0  0  0  0  0  0
   -7.6455  -30.1735  -14.8420 C   0  0  1  0  0  0  0  0  0  0  0  0
   -7.8770  -29.1752  -15.9507 C   0  0  0  0  0  0  0  0  0  0  0  0
   -8.5472  -32.5083  -12.9001 O   0  0  0  0  0  0  0  0  0  0  0  0
   -6.3057  -30.2973  -11.5181 O   0  0  0  0  0  0  0  0  0  0  0  0
   -8.1439  -28.4352  -13.2625 O   0  0  0  0  0  0  0  0  0  0  0  0
   -6.6014  -31.0345  -15.1242 O   0  0  0  0  0  0  0  0  0  0  0  0
   -6.7867  -28.3546  -16.1118 O   0  0  0  0  0  0  0  0  0  0  0  0
  1  2  1  0
  1  7  1  1
  1 11  1  0
  2  3  1  0
  2  8  1  1
  3  4  1  0
  3  9  1  6
  5  4  1  0
  4 10  1  1
  5  6  1  0
  5 11  1  6
  6 12  1  6
 13  7  1  6
 13 14  1  0
 22 13  1  0
 15 14  1  0
 14 19  1  6
 16 15  1  0
 15 20  1  1
 17 16  1  0
 16 21  1  1
 18 17  1  0
 17 22  1  6
 18 23  1  6
M  END
$$$$
