
     RDKit          3D

 23 24  0  0  0  0  0  0  0  0999 V2000
   -6.3469  -33.8957  -16.0837 C   0  0  1  0  0  0  0  0  0  0  0  0
   -7.2967  -34.7644  -16.8763 C   0  0  1  0  0  0  0  0  0  0  0  0
   -6.6867  -36.0732  -17.2918 C   0  0  2  0  0  0  0  0  0  0  0  0
   -6.0407  -36.7143  -16.0993 C   0  0  1  0  0  0  0  0  0  0  0  0
   -5.1236  -35.7441  -15.4190 C   0  0  1  0  0  0  0  0  0  0  0  0
   -3.8743  -35.4612  -16.2099 C   0  0  0  0  0  0  0  0  0  0  0  0
   -7.1157  -32.8791  -15.5102 O   0  0  0  0  0  0  0  0  0  0  0  0
   -8.4923  -34.9556  -16.2114 O   0  0  0  0  0  0  0  0  0  0  0  0
   -5.7508  -35.9541  -18.2993 O   0  0  0  0  0  0  0  0  0  0  0  0
   -7.0695  -37.0154  -15.1858 O   0  0  0  0  0  0  0  0  0  0  0  0
   -5.7220  -34.5597  -15.0567 O   0  0  0  0  0  0  0  0  0  0  0  0
   -2.7682  -35.5101  -15.3813 O   0  0  0  0  0  0  0  0  0  0  0  0
   -6.3024  -31.9628  -14.8064 C   0  0  2  0  0  0  0  0  0  0  0  0
   -6.8423  -31.8636  -13.4252 C   0  0  1  0  0  0  0  0  0  0  0  0
   -6.8840  -30.5183  -12.8186 C   0  0  2  0  0  0  0  0  0  0  0  0
   -6.9224  -29.3784  -13.8008 C   0  0  1  0  0  0  0  0  0  0  0  0
   -7.3673  -29.9656  -15.1246 C   0  0  1  0  0  0  0  0  0  0  0  0
   -7.6770  -28.8906  -16.1385 C   0  0  0  0  0  0  0  0  0  0  0  0
   -8.1244  -32.4503  -13.3113 O   0  0  0  0  0  0  0  0  0  0  0  0
   -5.8189  -30.3190  -11.9097 O   0  0  0  0  0  0  0  0  0  0  0  0
   -7.7796  -28.3566  -13.3909 O   0  0  0  0  0  0  0  0  0  0  0  0
   -6.3358  -30.7893  -15.5355 O   0  0  0  0  0  0  0  0  0  0  0  0
   -7.0793  -29.1633  -17.3453 O   0  0  0  0  0  0  0  0  0  0  0  0
  1  2  1  0
  1  7  1  1
  1 11  1  0
  2  3  1  0
  2  8  1  1
  3  4  1  0
  3  9  1  6
  5  4  1  0
  4 10  1  1
  5  6  1  0
  5 11  1  6
  6 12  1  6
 13  7  1  6
 13 14  1  0
 22 13  1  0
 15 14  1  0
 14 19  1  6
 16 15  1  0
 15 20  1  6
 17 16  1  0
 16 21  1  1
 18 17  1  0
 17 22  1  6
 18 23  1  6
M  END
$$$$
