
     RDKit          3D

 23 24  0  0  0  0  0  0  0  0999 V2000
   -6.6464  -33.9239  -15.9286 C   0  0  1  0  0  0  0  0  0  0  0  0
   -7.1264  -33.9849  -17.3579 C   0  0  1  0  0  0  0  0  0  0  0  0
   -7.8734  -35.2979  -17.5225 C   0  0  2  0  0  0  0  0  0  0  0  0
   -6.8562  -36.3863  -17.2037 C   0  0  1  0  0  0  0  0  0  0  0  0
   -6.5306  -36.2230  -15.7216 C   0  0  1  0  0  0  0  0  0  0  0  0
   -5.0434  -36.4046  -15.5211 C   0  0  0  0  0  0  0  0  0  0  0  0
   -7.1825  -32.8180  -15.3129 O   0  0  0  0  0  0  0  0  0  0  0  0
   -7.9098  -32.8941  -17.7096 O   0  0  0  0  0  0  0  0  0  0  0  0
   -8.4185  -35.4490  -18.7804 O   0  0  0  0  0  0  0  0  0  0  0  0
   -7.3340  -37.6526  -17.4879 O   0  0  0  0  0  0  0  0  0  0  0  0
   -7.0108  -35.0523  -15.2014 O   0  0  0  0  0  0  0  0  0  0  0  0
   -4.8312  -36.9250  -14.2435 O   0  0  0  0  0  0  0  0  0  0  0  0
   -6.3158  -32.2487  -14.3624 C   0  0  2  0  0  0  0  0  0  0  0  0
   -7.0978  -32.0521  -13.1064 C   0  0  1  0  0  0  0  0  0  0  0  0
   -7.9919  -30.8493  -13.1381 C   0  0  2  0  0  0  0  0  0  0  0  0
   -7.5530  -29.8206  -14.1415 C   0  0  1  0  0  0  0  0  0  0  0  0
   -6.1014  -29.9335  -14.4846 C   0  0  1  0  0  0  0  0  0  0  0  0
   -5.2877  -29.3096  -13.3611 C   0  0  0  0  0  0  0  0  0  0  0  0
   -7.9213  -33.1749  -12.9426 O   0  0  0  0  0  0  0  0  0  0  0  0
   -8.0320  -30.2532  -11.8829 O   0  0  0  0  0  0  0  0  0  0  0  0
   -8.2865  -29.8771  -15.3303 O   0  0  0  0  0  0  0  0  0  0  0  0
   -5.6700  -31.1656  -14.8503 O   0  0  0  0  0  0  0  0  0  0  0  0
   -3.9482  -29.2036  -13.7345 O   0  0  0  0  0  0  0  0  0  0  0  0
  1  2  1  0
  1  7  1  1
  1 11  1  0
  2  3  1  0
  2  8  1  1
  3  4  1  0
  3  9  1  6
  5  4  1  0
  4 10  1  1
  5  6  1  6
 11  5  1  0
  6 12  1  0
 13  7  1  6
 13 14  1  0
 22 13  1  0
 15 14  1  0
 14 19  1  6
 16 15  1  0
 15 20  1  1
 17 16  1  0
 16 21  1  6
 17 18  1  1
 17 22  1  0
 23 18  1  0
M  END
$$$$
