
     RDKit          3D

 23 24  0  0  0  0  0  0  0  0999 V2000
   -6.4373  -34.2091  -16.2848 C   0  0  1  0  0  0  0  0  0  0  0  0
   -6.8724  -34.4262  -17.7160 C   0  0  1  0  0  0  0  0  0  0  0  0
   -6.2351  -35.6322  -18.3464 C   0  0  2  0  0  0  0  0  0  0  0  0
   -6.3841  -36.8051  -17.4232 C   0  0  1  0  0  0  0  0  0  0  0  0
   -5.9084  -36.4493  -16.0476 C   0  0  1  0  0  0  0  0  0  0  0  0
   -4.4127  -36.3013  -15.9618 C   0  0  0  0  0  0  0  0  0  0  0  0
   -7.3150  -33.2697  -15.7362 O   0  0  0  0  0  0  0  0  0  0  0  0
   -8.2481  -34.4656  -17.8332 O   0  0  0  0  0  0  0  0  0  0  0  0
   -4.8979  -35.4617  -18.6433 O   0  0  0  0  0  0  0  0  0  0  0  0
   -7.7623  -37.0776  -17.3225 O   0  0  0  0  0  0  0  0  0  0  0  0
   -6.5165  -35.3394  -15.5088 O   0  0  0  0  0  0  0  0  0  0  0  0
   -3.9886  -36.5225  -14.6643 O   0  0  0  0  0  0  0  0  0  0  0  0
   -6.7037  -32.5614  -14.6774 C   0  0  2  0  0  0  0  0  0  0  0  0
   -7.7917  -32.0342  -13.8128 C   0  0  1  0  0  0  0  0  0  0  0  0
   -7.6256  -30.6635  -13.2902 C   0  0  2  0  0  0  0  0  0  0  0  0
   -6.7181  -29.7787  -14.1020 C   0  0  1  0  0  0  0  0  0  0  0  0
   -6.6022  -30.4199  -15.4697 C   0  0  1  0  0  0  0  0  0  0  0  0
   -5.9117  -29.5111  -16.4579 C   0  0  0  0  0  0  0  0  0  0  0  0
   -9.0591  -32.1304  -14.4337 O   0  0  0  0  0  0  0  0  0  0  0  0
   -7.1980  -30.6637  -11.9422 O   0  0  0  0  0  0  0  0  0  0  0  0
   -7.2009  -28.4732  -14.1983 O   0  0  0  0  0  0  0  0  0  0  0  0
   -5.9097  -31.6002  -15.2735 O   0  0  0  0  0  0  0  0  0  0  0  0
   -5.0666  -28.6370  -15.8177 O   0  0  0  0  0  0  0  0  0  0  0  0
  1  2  1  0
  1  7  1  1
  1 11  1  0
  2  3  1  0
  2  8  1  1
  3  4  1  0
  3  9  1  1
  5  4  1  0
  4 10  1  1
  5  6  1  0
  5 11  1  6
  6 12  1  6
 13  7  1  6
 13 14  1  0
 22 13  1  0
 15 14  1  0
 14 19  1  6
 16 15  1  0
 15 20  1  1
 17 16  1  0
 16 21  1  6
 18 17  1  0
 17 22  1  1
 18 23  1  6
M  END
$$$$
