
     RDKit          3D

 23 24  0  0  0  0  0  0  0  0999 V2000
   -6.4220  -33.0442  -16.5519 C   0  0  1  0  0  0  0  0  0  0  0  0
   -6.4220  -31.5371  -16.6267 C   0  0  1  0  0  0  0  0  0  0  0  0
   -7.7949  -31.1145  -17.1224 C   0  0  2  0  0  0  0  0  0  0  0  0
   -7.9499  -31.7647  -18.4914 C   0  0  1  0  0  0  0  0  0  0  0  0
   -7.9959  -33.2676  -18.2297 C   0  0  1  0  0  0  0  0  0  0  0  0
   -7.1744  -33.9763  -19.2822 C   0  0  0  0  0  0  0  0  0  0  0  0
   -6.1701  -33.4380  -15.2592 O   0  0  0  0  0  0  0  0  0  0  0  0
   -6.0999  -30.9381  -15.4164 O   0  0  0  0  0  0  0  0  0  0  0  0
   -7.9450  -29.7447  -17.1782 O   0  0  0  0  0  0  0  0  0  0  0  0
   -9.0790  -31.3249  -19.1580 O   0  0  0  0  0  0  0  0  0  0  0  0
   -7.6371  -33.5919  -16.9499 O   0  0  0  0  0  0  0  0  0  0  0  0
   -7.8051  -33.8141  -20.5167 O   0  0  0  0  0  0  0  0  0  0  0  0
   -5.8758  -34.8095  -15.1540 C   0  0  2  0  0  0  0  0  0  0  0  0
   -6.7569  -35.3748  -14.0901 C   0  0  1  0  0  0  0  0  0  0  0  0
   -6.2837  -35.0788  -12.6989 C   0  0  2  0  0  0  0  0  0  0  0  0
   -4.8151  -34.7678  -12.6345 C   0  0  1  0  0  0  0  0  0  0  0  0
   -4.0565  -35.3268  -13.7962 C   0  0  1  0  0  0  0  0  0  0  0  0
   -3.8391  -36.8141  -13.5629 C   0  0  0  0  0  0  0  0  0  0  0  0
   -8.0204  -34.7837  -14.2312 O   0  0  0  0  0  0  0  0  0  0  0  0
   -6.5425  -36.1626  -11.8677 O   0  0  0  0  0  0  0  0  0  0  0  0
   -4.5553  -33.3958  -12.5651 O   0  0  0  0  0  0  0  0  0  0  0  0
   -4.5488  -35.0344  -15.0251 O   0  0  0  0  0  0  0  0  0  0  0  0
   -2.8268  -37.2918  -14.3947 O   0  0  0  0  0  0  0  0  0  0  0  0
  1  2  1  0
  1  7  1  1
  1 11  1  0
  2  3  1  0
  2  8  1  1
  3  4  1  0
  3  9  1  6
  5  4  1  0
  4 10  1  1
  5  6  1  6
 11  5  1  0
  6 12  1  0
 13  7  1  1
 13 14  1  0
 22 13  1  0
 15 14  1  0
 14 19  1  1
 16 15  1  0
 15 20  1  1
 17 16  1  0
 16 21  1  6
 17 18  1  1
 17 22  1  0
 23 18  1  0
M  END
$$$$
