
     RDKit          3D

 23 24  0  0  0  0  0  0  0  0999 V2000
   -6.4440  -33.9482  -15.7668 C   0  0  1  0  0  0  0  0  0  0  0  0
   -7.4013  -34.6506  -16.6980 C   0  0  1  0  0  0  0  0  0  0  0  0
   -7.5053  -36.0919  -16.2276 C   0  0  2  0  0  0  0  0  0  0  0  0
   -6.0911  -36.6511  -16.3173 C   0  0  1  0  0  0  0  0  0  0  0  0
   -5.2790  -35.8836  -15.2778 C   0  0  1  0  0  0  0  0  0  0  0  0
   -3.9270  -35.5435  -15.8618 C   0  0  0  0  0  0  0  0  0  0  0  0
   -7.0889  -32.9012  -15.1525 O   0  0  0  0  0  0  0  0  0  0  0  0
   -8.6433  -34.0334  -16.7590 O   0  0  0  0  0  0  0  0  0  0  0  0
   -8.4042  -36.8321  -16.9667 O   0  0  0  0  0  0  0  0  0  0  0  0
   -6.0498  -38.0156  -16.0959 O   0  0  0  0  0  0  0  0  0  0  0  0
   -5.9470  -34.7969  -14.7831 O   0  0  0  0  0  0  0  0  0  0  0  0
   -2.9484  -35.8469  -14.9140 O   0  0  0  0  0  0  0  0  0  0  0  0
   -6.2133  -31.8673  -14.7744 C   0  0  2  0  0  0  0  0  0  0  0  0
   -6.5698  -31.4673  -13.3814 C   0  0  1  0  0  0  0  0  0  0  0  0
   -7.7808  -30.5876  -13.3007 C   0  0  2  0  0  0  0  0  0  0  0  0
   -8.0651  -29.8646  -14.5869 C   0  0  1  0  0  0  0  0  0  0  0  0
   -6.8534  -29.7344  -15.4543 C   0  0  1  0  0  0  0  0  0  0  0  0
   -5.9880  -28.6071  -14.9121 C   0  0  0  0  0  0  0  0  0  0  0  0
   -6.8619  -32.6387  -12.6684 O   0  0  0  0  0  0  0  0  0  0  0  0
   -7.6184  -29.6458  -12.2912 O   0  0  0  0  0  0  0  0  0  0  0  0
   -9.0744  -30.4740  -15.3383 O   0  0  0  0  0  0  0  0  0  0  0  0
   -6.1684  -30.8790  -15.6961 O   0  0  0  0  0  0  0  0  0  0  0  0
   -5.3127  -27.9713  -15.9535 O   0  0  0  0  0  0  0  0  0  0  0  0
  1  2  1  0
  1  7  1  1
  1 11  1  0
  2  3  1  0
  2  8  1  1
  3  4  1  0
  3  9  1  6
  5  4  1  0
  4 10  1  1
  5  6  1  6
 11  5  1  0
  6 12  1  0
 13  7  1  6
 13 14  1  0
 22 13  1  0
 15 14  1  0
 14 19  1  1
 16 15  1  0
 15 20  1  1
 17 16  1  0
 16 21  1  6
 17 18  1  1
 17 22  1  0
 23 18  1  0
M  END
$$$$
