
     RDKit          3D

 23 24  0  0  0  0  0  0  0  0999 V2000
   -6.3491  -32.4968  -14.5497 C   0  0  1  0  0  0  0  0  0  0  0  0
   -6.6973  -31.9524  -13.1861 C   0  0  1  0  0  0  0  0  0  0  0  0
   -7.7109  -30.8397  -13.3949 C   0  0  2  0  0  0  0  0  0  0  0  0
   -7.0083  -29.8097  -14.2702 C   0  0  1  0  0  0  0  0  0  0  0  0
   -6.7907  -30.4946  -15.6166 C   0  0  1  0  0  0  0  0  0  0  0  0
   -5.4113  -30.1479  -16.1284 C   0  0  0  0  0  0  0  0  0  0  0  0
   -6.6673  -33.8330  -14.6036 O   0  0  0  0  0  0  0  0  0  0  0  0
   -7.1700  -32.9298  -12.3210 O   0  0  0  0  0  0  0  0  0  0  0  0
   -8.1588  -30.2949  -12.2096 O   0  0  0  0  0  0  0  0  0  0  0  0
   -7.7395  -28.6430  -14.4000 O   0  0  0  0  0  0  0  0  0  0  0  0
   -7.0309  -31.8406  -15.5692 O   0  0  0  0  0  0  0  0  0  0  0  0
   -5.3264  -28.7612  -16.2621 O   0  0  0  0  0  0  0  0  0  0  0  0
   -5.9433  -34.5270  -15.5899 C   0  0  2  0  0  0  0  0  0  0  0  0
   -6.9321  -35.0942  -16.5533 C   0  0  1  0  0  0  0  0  0  0  0  0
   -7.6107  -36.3350  -16.0564 C   0  0  2  0  0  0  0  0  0  0  0  0
   -6.8238  -37.0453  -14.9915 C   0  0  1  0  0  0  0  0  0  0  0  0
   -5.3659  -36.7132  -15.0347 C   0  0  1  0  0  0  0  0  0  0  0  0
   -4.7211  -37.5067  -16.1610 C   0  0  0  0  0  0  0  0  0  0  0  0
   -7.9295  -34.1287  -16.7509 O   0  0  0  0  0  0  0  0  0  0  0  0
   -7.8228  -37.2160  -17.1106 O   0  0  0  0  0  0  0  0  0  0  0  0
   -7.2930  -36.7765  -13.7022 O   0  0  0  0  0  0  0  0  0  0  0  0
   -5.0560  -35.3935  -15.0514 O   0  0  0  0  0  0  0  0  0  0  0  0
   -3.3535  -37.6515  -15.9299 O   0  0  0  0  0  0  0  0  0  0  0  0
  1  2  1  0
  1  7  1  1
  1 11  1  0
  2  3  1  0
  2  8  1  1
  3  4  1  0
  3  9  1  1
  5  4  1  0
  4 10  1  6
  5  6  1  1
 11  5  1  0
  6 12  1  0
 13  7  1  1
 13 14  1  0
 22 13  1  0
 15 14  1  0
 14 19  1  1
 16 15  1  0
 15 20  1  6
 17 16  1  0
 16 21  1  1
 17 18  1  6
 17 22  1  0
 23 18  1  0
M  END
$$$$
