
     RDKit          3D

 23 24  0  0  0  0  0  0  0  0999 V2000
   -7.0287  -32.1987  -14.9598 C   0  0  1  0  0  0  0  0  0  0  0  0
   -7.1336  -32.3787  -13.4627 C   0  0  1  0  0  0  0  0  0  0  0  0
   -6.7307  -31.1516  -12.6947 C   0  0  2  0  0  0  0  0  0  0  0  0
   -7.4358  -29.9590  -13.2698 C   0  0  1  0  0  0  0  0  0  0  0  0
   -7.2398  -29.9035  -14.7543 C   0  0  1  0  0  0  0  0  0  0  0  0
   -5.8359  -29.5300  -15.1492 C   0  0  0  0  0  0  0  0  0  0  0  0
   -7.7096  -33.2716  -15.5421 O   0  0  0  0  0  0  0  0  0  0  0  0
   -8.3876  -32.8184  -13.0858 O   0  0  0  0  0  0  0  0  0  0  0  0
   -5.3709  -30.9150  -12.7005 O   0  0  0  0  0  0  0  0  0  0  0  0
   -8.8134  -30.1470  -13.0451 O   0  0  0  0  0  0  0  0  0  0  0  0
   -7.6201  -31.0469  -15.4177 O   0  0  0  0  0  0  0  0  0  0  0  0
   -5.8394  -28.9209  -16.3906 O   0  0  0  0  0  0  0  0  0  0  0  0
   -6.8802  -33.9664  -16.4508 C   0  0  2  0  0  0  0  0  0  0  0  0
   -7.6678  -35.1090  -16.9826 C   0  0  1  0  0  0  0  0  0  0  0  0
   -6.9583  -36.3938  -17.1417 C   0  0  2  0  0  0  0  0  0  0  0  0
   -5.7500  -36.5667  -16.2609 C   0  0  1  0  0  0  0  0  0  0  0  0
   -5.8843  -35.5538  -15.1423 C   0  0  1  0  0  0  0  0  0  0  0  0
   -4.8600  -35.7796  -14.0563 C   0  0  0  0  0  0  0  0  0  0  0  0
   -8.8488  -35.3345  -16.2372 O   0  0  0  0  0  0  0  0  0  0  0  0
   -6.5954  -36.6301  -18.4881 O   0  0  0  0  0  0  0  0  0  0  0  0
   -5.6459  -37.8630  -15.7554 O   0  0  0  0  0  0  0  0  0  0  0  0
   -5.7476  -34.3146  -15.7395 O   0  0  0  0  0  0  0  0  0  0  0  0
   -3.5843  -35.7420  -14.5654 O   0  0  0  0  0  0  0  0  0  0  0  0
  1  2  1  0
  1  7  1  6
  1 11  1  0
  2  3  1  0
  2  8  1  6
  3  4  1  0
  3  9  1  6
  5  4  1  0
  4 10  1  6
  5  6  1  0
  5 11  1  6
  6 12  1  6
 13  7  1  1
 13 14  1  0
 22 13  1  0
 15 14  1  0
 14 19  1  1
 16 15  1  0
 15 20  1  6
 17 16  1  0
 16 21  1  1
 18 17  1  0
 17 22  1  6
 18 23  1  6
M  END
$$$$
