
     RDKit          3D

 23 24  0  0  0  0  0  0  0  0999 V2000
   -6.4365  -32.0605  -14.5357 C   0  0  1  0  0  0  0  0  0  0  0  0
   -6.8032  -31.5937  -13.1456 C   0  0  1  0  0  0  0  0  0  0  0  0
   -6.8019  -30.0973  -13.0098 C   0  0  2  0  0  0  0  0  0  0  0  0
   -7.5900  -29.5013  -14.1385 C   0  0  1  0  0  0  0  0  0  0  0  0
   -7.1146  -30.0462  -15.4509 C   0  0  1  0  0  0  0  0  0  0  0  0
   -5.7566  -29.5301  -15.8454 C   0  0  0  0  0  0  0  0  0  0  0  0
   -6.7714  -33.4157  -14.6059 O   0  0  0  0  0  0  0  0  0  0  0  0
   -8.0010  -32.1359  -12.7222 O   0  0  0  0  0  0  0  0  0  0  0  0
   -5.5383  -29.5419  -13.0024 O   0  0  0  0  0  0  0  0  0  0  0  0
   -8.9238  -29.9244  -13.9780 O   0  0  0  0  0  0  0  0  0  0  0  0
   -7.1311  -31.4193  -15.5319 O   0  0  0  0  0  0  0  0  0  0  0  0
   -5.5260  -29.7805  -17.1857 O   0  0  0  0  0  0  0  0  0  0  0  0
   -6.6244  -33.9077  -15.9222 C   0  0  2  0  0  0  0  0  0  0  0  0
   -7.8051  -34.7640  -16.2080 C   0  0  1  0  0  0  0  0  0  0  0  0
   -7.5585  -36.0181  -16.9468 C   0  0  2  0  0  0  0  0  0  0  0  0
   -6.1584  -36.5588  -16.8329 C   0  0  1  0  0  0  0  0  0  0  0  0
   -5.5382  -35.8959  -15.6200 C   0  0  1  0  0  0  0  0  0  0  0  0
   -4.2164  -36.5258  -15.2518 C   0  0  0  0  0  0  0  0  0  0  0  0
   -8.5394  -35.0663  -15.0373 O   0  0  0  0  0  0  0  0  0  0  0  0
   -7.9065  -35.9001  -18.3125 O   0  0  0  0  0  0  0  0  0  0  0  0
   -6.1371  -37.9486  -16.7119 O   0  0  0  0  0  0  0  0  0  0  0  0
   -5.4061  -34.5597  -15.9489 O   0  0  0  0  0  0  0  0  0  0  0  0
   -3.1808  -35.6407  -15.4311 O   0  0  0  0  0  0  0  0  0  0  0  0
  1  2  1  0
  1  7  1  1
  1 11  1  0
  2  3  1  0
  2  8  1  6
  3  4  1  0
  3  9  1  6
  5  4  1  0
  4 10  1  1
  5  6  1  0
  5 11  1  1
  6 12  1  6
 13  7  1  1
 13 14  1  0
 22 13  1  0
 15 14  1  0
 14 19  1  1
 16 15  1  0
 15 20  1  6
 17 16  1  0
 16 21  1  1
 18 17  1  0
 17 22  1  6
 18 23  1  6
M  END
$$$$
