
     RDKit          3D

 24 27  0  0  0  0  0  0  0  0999 V2000
   19.9291   30.5884   11.9158 C   0  0  0  0  0  0  0  0  0  0  0  0
   20.2983   31.9093   11.9874 C   0  0  0  0  0  0  0  0  0  0  0  0
   21.5875   32.2012   12.3472 C   0  0  0  0  0  0  0  0  0  0  0  0
   19.5991   33.2005   11.7811 C   0  0  1  0  0  0  0  0  0  0  0  0
   17.1852   32.6685   12.2327 C   0  0  0  0  0  0  0  0  0  0  0  0
   14.9496   32.4517   13.1271 C   0  0  0  0  0  0  0  0  0  0  0  0
   18.9972   34.8617   14.4966 C   0  0  0  0  0  0  0  0  0  0  0  0
   18.5020   36.8062   15.8114 C   0  0  0  0  0  0  0  0  0  0  0  0
   22.4811   31.1598   12.6299 C   0  0  0  0  0  0  0  0  0  0  0  0
   18.3615   33.3022   12.5429 C   0  0  0  0  0  0  0  0  0  0  0  0
   18.1365   33.9910   13.7016 C   0  0  0  0  0  0  0  0  0  0  0  0
   16.2274   32.9623   13.1995 C   0  0  0  0  0  0  0  0  0  0  0  0
   16.7821   31.8418   11.2052 C   0  0  0  0  0  0  0  0  0  0  0  0
   14.5931   31.6320   12.0846 C   0  0  0  0  0  0  0  0  0  0  0  0
   15.5107   31.3239   11.1182 C   0  0  0  0  0  0  0  0  0  0  0  0
   22.1270   29.8343   12.5633 C   0  0  0  0  0  0  0  0  0  0  0  0
   19.6583   37.0426   13.8164 C   0  0  0  0  0  0  0  0  0  0  0  0
   20.8028   29.5673   12.1917 C   0  0  0  0  0  0  0  0  0  0  0  0
   21.7933   33.6453   12.3425 C   0  0  0  0  0  0  0  0  0  0  0  0
   16.8291   33.7592   14.0691 N   0  0  0  0  0  0  0  0  0  0  0  0
   18.6061   36.2731   14.4440 N   0  0  1  0  0  4  0  0  0  0  0  0
   20.5603   34.2233   11.9566 N   0  0  0  0  0  0  0  0  0  0  0  0
   22.8645   34.2784   12.6268 O   0  0  0  0  0  0  0  0  0  0  0  0
   20.3875   28.2467   12.1070 O   0  0  0  0  0  0  0  0  0  0  0  0
  2  1  2  0
  1 18  1  0
  2  3  1  0
  4  2  1  0
  3  9  2  0
  3 19  1  0
  4 10  1  1
  4 22  1  0
 10  5  1  0
  5 12  1  0
  5 13  2  0
 12  6  2  0
  6 14  1  0
 11  7  1  0
  7 21  1  0
 21  8  1  1
  9 16  1  0
 10 11  2  0
 11 20  1  0
 12 20  1  0
 13 15  1  0
 14 15  2  0
 16 18  2  0
 21 17  1  0
 18 24  1  0
 19 22  1  0
 19 23  2  0
M  CHG  1  21   1
M  END
$$$$
