
     RDKit          3D

 24 27  0  0  0  0  0  0  0  0999 V2000
   20.8701   34.4776   12.6888 C   0  0  0  0  0  0  0  0  0  0  0  0
   20.5380   33.1550   12.8518 C   0  0  0  0  0  0  0  0  0  0  0  0
   21.3331   32.2111   12.2572 C   0  0  0  0  0  0  0  0  0  0  0  0
   19.4420   32.4320   13.5408 C   0  0  1  0  0  0  0  0  0  0  0  0
   17.2061   32.2364   12.4108 C   0  0  0  0  0  0  0  0  0  0  0  0
   14.9574   32.5321   11.5738 C   0  0  0  0  0  0  0  0  0  0  0  0
   18.0100   35.2371   14.2999 C   0  0  0  0  0  0  0  0  0  0  0  0
   19.5379   35.9579   16.0030 C   0  0  0  0  0  0  0  0  0  0  0  0
   22.4465   32.6145   11.5085 C   0  0  0  0  0  0  0  0  0  0  0  0
   18.1206   32.9209   13.1702 C   0  0  0  0  0  0  0  0  0  0  0  0
   17.5263   34.1000   13.5226 C   0  0  0  0  0  0  0  0  0  0  0  0
   16.0412   32.9895   12.2912 C   0  0  0  0  0  0  0  0  0  0  0  0
   17.2110   31.0137   11.7731 C   0  0  0  0  0  0  0  0  0  0  0  0
   15.0079   31.3072   10.9550 C   0  0  0  0  0  0  0  0  0  0  0  0
   16.1378   30.5425   11.0532 C   0  0  0  0  0  0  0  0  0  0  0  0
   22.7915   33.9328   11.3358 C   0  0  0  0  0  0  0  0  0  0  0  0
   17.7108   34.6564   16.5866 C   0  0  0  0  0  0  0  0  0  0  0  0
   21.9602   34.8745   11.9565 C   0  0  0  0  0  0  0  0  0  0  0  0
   20.8369   30.8741   12.5638 C   0  0  0  0  0  0  0  0  0  0  0  0
   16.2643   34.1042   12.9702 N   0  0  0  0  0  0  0  0  0  0  0  0
   18.6897   34.8490   15.5389 N   0  0  1  0  0  4  0  0  0  0  0  0
   19.6954   31.0495   13.3820 N   0  0  0  0  0  0  0  0  0  0  0  0
   21.3225   29.7581   12.1794 O   0  0  0  0  0  0  0  0  0  0  0  0
   22.2591   36.2217   11.8175 O   0  0  0  0  0  0  0  0  0  0  0  0
  2  1  2  0
  1 18  1  0
  2  3  1  0
  4  2  1  0
  3  9  2  0
  3 19  1  0
  4 10  1  6
  4 22  1  0
 10  5  1  0
  5 12  1  0
  5 13  2  0
 12  6  2  0
  6 14  1  0
 11  7  1  0
  7 21  1  0
 21  8  1  1
  9 16  1  0
 10 11  2  0
 11 20  1  0
 12 20  1  0
 13 15  1  0
 14 15  2  0
 16 18  2  0
 21 17  1  0
 18 24  1  0
 19 22  1  0
 19 23  2  0
M  CHG  1  21   1
M  END
$$$$
