
     RDKit          3D

 24 27  0  0  0  0  0  0  0  0999 V2000
   17.2296   35.3162   14.0951 C   0  0  0  0  0  0  0  0  0  0  0  0
   17.8500   34.2916   14.7670 C   0  0  0  0  0  0  0  0  0  0  0  0
   18.7183   34.6132   15.7766 C   0  0  0  0  0  0  0  0  0  0  0  0
   17.8372   32.8130   14.6561 C   0  0  1  0  0  0  0  0  0  0  0  0
   17.1389   32.0220   12.3755 C   0  0  0  0  0  0  0  0  0  0  0  0
   17.0106   31.2769   10.0793 C   0  0  0  0  0  0  0  0  0  0  0  0
   20.6738   32.3388   13.1647 C   0  0  0  0  0  0  0  0  0  0  0  0
   22.5019   33.8019   13.6868 C   0  0  0  0  0  0  0  0  0  0  0  0
   18.9479   35.9591   16.0910 C   0  0  0  0  0  0  0  0  0  0  0  0
   18.0981   32.3445   13.3016 C   0  0  0  0  0  0  0  0  0  0  0  0
   19.3053   32.1746   12.6839 C   0  0  0  0  0  0  0  0  0  0  0  0
   17.7494   31.6520   11.1802 C   0  0  0  0  0  0  0  0  0  0  0  0
   15.7603   31.9912   12.3923 C   0  0  0  0  0  0  0  0  0  0  0  0
   15.6389   31.2612   10.1425 C   0  0  0  0  0  0  0  0  0  0  0  0
   15.0083   31.6193   11.3023 C   0  0  0  0  0  0  0  0  0  0  0  0
   18.3358   36.9949   15.4283 C   0  0  0  0  0  0  0  0  0  0  0  0
   21.1943   34.2313   11.8217 C   0  0  0  0  0  0  0  0  0  0  0  0
   17.4528   36.6346   14.4019 C   0  0  0  0  0  0  0  0  0  0  0  0
   19.2533   33.3987   16.3820 C   0  0  0  0  0  0  0  0  0  0  0  0
   19.0517   31.7538   11.3968 N   0  0  0  0  0  0  0  0  0  0  0  0
   21.1230   33.7338   13.1784 N   0  0  1  0  0  4  0  0  0  0  0  0
   18.6630   32.3141   15.6905 N   0  0  0  0  0  0  0  0  0  0  0  0
   20.0879   33.3127   17.3438 O   0  0  0  0  0  0  0  0  0  0  0  0
   16.8047   37.6382   13.6973 O   0  0  0  0  0  0  0  0  0  0  0  0
  2  1  2  0
  1 18  1  0
  2  3  1  0
  4  2  1  0
  3  9  2  0
  3 19  1  0
  4 10  1  6
  4 22  1  0
 10  5  1  0
  5 12  1  0
  5 13  2  0
 12  6  2  0
  6 14  1  0
 11  7  1  0
  7 21  1  0
 21  8  1  6
  9 16  1  0
 10 11  2  0
 11 20  1  0
 12 20  1  0
 13 15  1  0
 14 15  2  0
 16 18  2  0
 21 17  1  0
 18 24  1  0
 19 22  1  0
 19 23  2  0
M  CHG  1  21   1
M  END
$$$$
