
     RDKit          3D

 24 27  0  0  0  0  0  0  0  0999 V2000
   18.4586   35.1955   13.3398 C   0  0  0  0  0  0  0  0  0  0  0  0
   18.3991   34.2713   14.3540 C   0  0  0  0  0  0  0  0  0  0  0  0
   19.2427   34.4287   15.4218 C   0  0  0  0  0  0  0  0  0  0  0  0
   17.6108   33.0394   14.5977 C   0  0  1  0  0  0  0  0  0  0  0  0
   16.7347   32.0099   12.4795 C   0  0  0  0  0  0  0  0  0  0  0  0
   16.3677   30.7377   10.4568 C   0  0  0  0  0  0  0  0  0  0  0  0
   19.8579   30.8113   13.9035 C   0  0  0  0  0  0  0  0  0  0  0  0
   21.4974   31.8260   15.3309 C   0  0  0  0  0  0  0  0  0  0  0  0
   20.1316   35.5113   15.4494 C   0  0  0  0  0  0  0  0  0  0  0  0
   17.6650   32.1028   13.4832 C   0  0  0  0  0  0  0  0  0  0  0  0
   18.6370   31.1859   13.1963 C   0  0  0  0  0  0  0  0  0  0  0  0
   17.1283   31.0352   11.5666 C   0  0  0  0  0  0  0  0  0  0  0  0
   15.5465   32.6556   12.2092 C   0  0  0  0  0  0  0  0  0  0  0  0
   15.1906   31.4071   10.2283 C   0  0  0  0  0  0  0  0  0  0  0  0
   14.7756   32.3705   11.1062 C   0  0  0  0  0  0  0  0  0  0  0  0
   20.2035   36.4434   14.4430 C   0  0  0  0  0  0  0  0  0  0  0  0
   21.8682   31.7473   13.0441 C   0  0  0  0  0  0  0  0  0  0  0  0
   19.3279   36.2564   13.3652 C   0  0  0  0  0  0  0  0  0  0  0  0
   19.0143   33.3707   16.3998 C   0  0  0  0  0  0  0  0  0  0  0  0
   18.2754   30.5580   12.0245 N   0  0  0  0  0  0  0  0  0  0  0  0
   20.8197   31.9100   14.0277 N   0  0  1  0  0  4  0  0  0  0  0  0
   17.9818   32.5575   15.8748 N   0  0  0  0  0  0  0  0  0  0  0  0
   19.6162   33.1977   17.5119 O   0  0  0  0  0  0  0  0  0  0  0  0
   19.3548   37.1665   12.3190 O   0  0  0  0  0  0  0  0  0  0  0  0
  2  1  2  0
  1 18  1  0
  2  3  1  0
  4  2  1  0
  3  9  2  0
  3 19  1  0
  4 10  1  6
  4 22  1  0
 10  5  1  0
  5 12  1  0
  5 13  2  0
 12  6  2  0
  6 14  1  0
 11  7  1  0
  7 21  1  0
 21  8  1  1
  9 16  1  0
 10 11  2  0
 11 20  1  0
 12 20  1  0
 13 15  1  0
 14 15  2  0
 16 18  2  0
 21 17  1  0
 18 24  1  0
 19 22  1  0
 19 23  2  0
M  CHG  1  21   1
M  END
$$$$
