
     RDKit          3D

 24 27  0  0  0  0  0  0  0  0999 V2000
   21.1264   30.9879   12.8974 C   0  0  0  0  0  0  0  0  0  0  0  0
   20.9077   32.2566   12.4191 C   0  0  0  0  0  0  0  0  0  0  0  0
   21.9155   33.1762   12.5424 C   0  0  0  0  0  0  0  0  0  0  0  0
   19.7640   32.9455   11.7741 C   0  0  1  0  0  0  0  0  0  0  0  0
   17.4222   32.0963   12.1042 C   0  0  0  0  0  0  0  0  0  0  0  0
   15.2228   31.5125   12.9207 C   0  0  0  0  0  0  0  0  0  0  0  0
   18.9814   34.1226   14.6892 C   0  0  0  0  0  0  0  0  0  0  0  0
   18.8687   35.6920   16.5000 C   0  0  0  0  0  0  0  0  0  0  0  0
   23.1240   32.8037   13.1456 C   0  0  0  0  0  0  0  0  0  0  0  0
   18.5219   32.8019   12.5217 C   0  0  0  0  0  0  0  0  0  0  0  0
   18.2218   33.2879   13.7632 C   0  0  0  0  0  0  0  0  0  0  0  0
   16.4370   32.1423   13.0869 C   0  0  0  0  0  0  0  0  0  0  0  0
   17.1130   31.3879   10.9622 C   0  0  0  0  0  0  0  0  0  0  0  0
   14.9591   30.8181   11.7656 C   0  0  0  0  0  0  0  0  0  0  0  0
   15.9059   30.7537   10.7806 C   0  0  0  0  0  0  0  0  0  0  0  0
   23.3578   31.5395   13.6292 C   0  0  0  0  0  0  0  0  0  0  0  0
   18.1269   36.3226   14.3965 C   0  0  0  0  0  0  0  0  0  0  0  0
   22.3091   30.6211   13.4879 C   0  0  0  0  0  0  0  0  0  0  0  0
   21.5062   34.4483   11.9575 C   0  0  0  0  0  0  0  0  0  0  0  0
   16.9472   32.8656   14.0717 N   0  0  0  0  0  0  0  0  0  0  0  0
   18.1847   35.1919   15.2973 N   0  0  1  0  0  4  0  0  0  0  0  0
   20.1929   34.2576   11.4655 N   0  0  0  0  0  0  0  0  0  0  0  0
   22.1840   35.5279   11.8935 O   0  0  0  0  0  0  0  0  0  0  0  0
   22.4874   29.3283   13.9573 O   0  0  0  0  0  0  0  0  0  0  0  0
  2  1  2  0
  1 18  1  0
  2  3  1  0
  4  2  1  0
  3  9  2  0
  3 19  1  0
  4 10  1  1
  4 22  1  0
 10  5  1  0
  5 12  1  0
  5 13  2  0
 12  6  2  0
  6 14  1  0
 11  7  1  0
  7 21  1  0
 21  8  1  1
  9 16  1  0
 10 11  2  0
 11 20  1  0
 12 20  1  0
 13 15  1  0
 14 15  2  0
 16 18  2  0
 21 17  1  0
 18 24  1  0
 19 22  1  0
 19 23  2  0
M  CHG  1  21   1
M  END
$$$$
