
     RDKit          3D

 24 27  0  0  0  0  0  0  0  0999 V2000
   17.1012   32.5525   15.8202 C   0  0  0  0  0  0  0  0  0  0  0  0
   17.5398   33.5678   15.0059 C   0  0  0  0  0  0  0  0  0  0  0  0
   16.9440   34.7955   15.1258 C   0  0  0  0  0  0  0  0  0  0  0  0
   18.5559   33.6782   13.9316 C   0  0  1  0  0  0  0  0  0  0  0  0
   17.2175   32.2335   12.3710 C   0  0  0  0  0  0  0  0  0  0  0  0
   16.4287   30.6824   10.6928 C   0  0  0  0  0  0  0  0  0  0  0  0
   20.8427   31.9598   12.4107 C   0  0  0  0  0  0  0  0  0  0  0  0
   21.5544   34.2146   12.0052 C   0  0  0  0  0  0  0  0  0  0  0  0
   15.9172   34.9793   16.0612 C   0  0  0  0  0  0  0  0  0  0  0  0
   18.4084   32.6548   12.9054 C   0  0  0  0  0  0  0  0  0  0  0  0
   19.3908   31.9584   12.2590 C   0  0  0  0  0  0  0  0  0  0  0  0
   17.4585   31.2749   11.3905 C   0  0  0  0  0  0  0  0  0  0  0  0
   15.8958   32.5528   12.6010 C   0  0  0  0  0  0  0  0  0  0  0  0
   15.1270   31.0321   10.9561 C   0  0  0  0  0  0  0  0  0  0  0  0
   14.8562   31.9708   11.9134 C   0  0  0  0  0  0  0  0  0  0  0  0
   15.4671   33.9741   16.8821 C   0  0  0  0  0  0  0  0  0  0  0  0
   22.9145   32.4547   11.3531 C   0  0  0  0  0  0  0  0  0  0  0  0
   16.0963   32.7307   16.7369 C   0  0  0  0  0  0  0  0  0  0  0  0
   17.5588   35.7422   14.2020 C   0  0  0  0  0  0  0  0  0  0  0  0
   18.7741   31.1311   11.3463 N   0  0  0  0  0  0  0  0  0  0  0  0
   21.5263   32.8464   11.4649 N   0  0  1  0  0  4  0  0  0  0  0  0
   18.5669   35.0286   13.5108 N   0  0  0  0  0  0  0  0  0  0  0  0
   17.2598   36.9720   14.0366 O   0  0  0  0  0  0  0  0  0  0  0  0
   15.6842   31.6773   17.5395 O   0  0  0  0  0  0  0  0  0  0  0  0
  2  1  2  0
  1 18  1  0
  2  3  1  0
  4  2  1  0
  3  9  2  0
  3 19  1  0
  4 10  1  6
  4 22  1  0
 10  5  1  0
  5 12  1  0
  5 13  2  0
 12  6  2  0
  6 14  1  0
 11  7  1  0
  7 21  1  0
 21  8  1  1
  9 16  1  0
 10 11  2  0
 11 20  1  0
 12 20  1  0
 13 15  1  0
 14 15  2  0
 16 18  2  0
 21 17  1  0
 18 24  1  0
 19 22  1  0
 19 23  2  0
M  CHG  1  21   1
M  END
$$$$
