
     RDKit          3D

 24 27  0  0  0  0  0  0  0  0999 V2000
   19.8607   30.7923   14.2851 C   0  0  0  0  0  0  0  0  0  0  0  0
   20.1937   31.7311   13.3396 C   0  0  0  0  0  0  0  0  0  0  0  0
   21.3851   32.3931   13.4779 C   0  0  0  0  0  0  0  0  0  0  0  0
   19.5329   32.2696   12.1264 C   0  0  1  0  0  0  0  0  0  0  0  0
   17.0334   32.0790   11.9519 C   0  0  0  0  0  0  0  0  0  0  0  0
   14.6354   32.3381   12.1160 C   0  0  0  0  0  0  0  0  0  0  0  0
   18.5020   34.8678   13.7642 C   0  0  0  0  0  0  0  0  0  0  0  0
   18.4287   34.4195   16.1198 C   0  0  0  0  0  0  0  0  0  0  0  0
   22.2189   32.1000   14.5651 C   0  0  0  0  0  0  0  0  0  0  0  0
   18.1699   32.7191   12.3763 C   0  0  0  0  0  0  0  0  0  0  0  0
   17.7568   33.8076   13.0920 C   0  0  0  0  0  0  0  0  0  0  0  0
   15.9120   32.7689   12.4045 C   0  0  0  0  0  0  0  0  0  0  0  0
   16.7925   30.9466   11.2026 C   0  0  0  0  0  0  0  0  0  0  0  0
   14.4438   31.2040   11.3657 C   0  0  0  0  0  0  0  0  0  0  0  0
   15.5247   30.5032   10.9057 C   0  0  0  0  0  0  0  0  0  0  0  0
   21.8999   31.1644   15.5189 C   0  0  0  0  0  0  0  0  0  0  0  0
   18.3532   36.6127   15.3733 C   0  0  0  0  0  0  0  0  0  0  0  0
   20.6760   30.5036   15.3500 C   0  0  0  0  0  0  0  0  0  0  0  0
   21.5711   33.3246   12.3709 C   0  0  0  0  0  0  0  0  0  0  0  0
   16.3792   33.8031   13.0868 N   0  0  0  0  0  0  0  0  0  0  0  0
   17.9105   35.2759   15.0415 N   0  0  1  0  0  4  0  0  0  0  0  0
   20.4298   33.1954   11.5439 N   0  0  0  0  0  0  0  0  0  0  0  0
   22.5594   34.1074   12.1721 O   0  0  0  0  0  0  0  0  0  0  0  0
   20.3004   29.5476   16.2820 O   0  0  0  0  0  0  0  0  0  0  0  0
  2  1  2  0
  1 18  1  0
  2  3  1  0
  4  2  1  0
  3  9  2  0
  3 19  1  0
  4 10  1  1
  4 22  1  0
 10  5  1  0
  5 12  1  0
  5 13  2  0
 12  6  2  0
  6 14  1  0
 11  7  1  0
  7 21  1  0
 21  8  1  1
  9 16  1  0
 10 11  2  0
 11 20  1  0
 12 20  1  0
 13 15  1  0
 14 15  2  0
 16 18  2  0
 21 17  1  0
 18 24  1  0
 19 22  1  0
 19 23  2  0
M  CHG  1  21   1
M  END
$$$$
