
     RDKit          3D

 24 27  0  0  0  0  0  0  0  0999 V2000
   21.3388   31.9759   11.5221 C   0  0  0  0  0  0  0  0  0  0  0  0
   20.6195   33.0592   11.9638 C   0  0  0  0  0  0  0  0  0  0  0  0
   21.3041   34.1029   12.5282 C   0  0  0  0  0  0  0  0  0  0  0  0
   19.1785   33.4057   12.0104 C   0  0  1  0  0  0  0  0  0  0  0  0
   17.1119   31.9916   12.2191 C   0  0  0  0  0  0  0  0  0  0  0  0
   15.4145   30.3769   12.8160 C   0  0  0  0  0  0  0  0  0  0  0  0
   19.8722   31.4945   14.5327 C   0  0  0  0  0  0  0  0  0  0  0  0
   19.9203   31.1017   16.8988 C   0  0  0  0  0  0  0  0  0  0  0  0
   22.6993   34.0375   12.6395 C   0  0  0  0  0  0  0  0  0  0  0  0
   18.3661   32.3666   12.6289 C   0  0  0  0  0  0  0  0  0  0  0  0
   18.6892   31.5544   13.6794 C   0  0  0  0  0  0  0  0  0  0  0  0
   16.6543   30.9445   13.0144 C   0  0  0  0  0  0  0  0  0  0  0  0
   16.2566   32.4243   11.2277 C   0  0  0  0  0  0  0  0  0  0  0  0
   14.5962   30.8411   11.8156 C   0  0  0  0  0  0  0  0  0  0  0  0
   15.0161   31.8688   11.0165 C   0  0  0  0  0  0  0  0  0  0  0  0
   23.4328   32.9611   12.2032 C   0  0  0  0  0  0  0  0  0  0  0  0
   20.6671   33.1311   16.0642 C   0  0  0  0  0  0  0  0  0  0  0  0
   22.7049   31.9102   11.6298 C   0  0  0  0  0  0  0  0  0  0  0  0
   20.3763   35.1622   12.9089 C   0  0  0  0  0  0  0  0  0  0  0  0
   17.6245   30.7041   13.8829 N   0  0  0  0  0  0  0  0  0  0  0  0
   19.6713   32.1036   15.8504 N   0  0  1  0  0  4  0  0  0  0  0  0
   19.0850   34.7124   12.5439 N   0  0  0  0  0  0  0  0  0  0  0  0
   20.6558   36.2782   13.4616 O   0  0  0  0  0  0  0  0  0  0  0  0
   23.3919   30.7964   11.1704 O   0  0  0  0  0  0  0  0  0  0  0  0
  2  1  2  0
  1 18  1  0
  2  3  1  0
  4  2  1  0
  3  9  2  0
  3 19  1  0
  4 10  1  1
  4 22  1  0
 10  5  1  0
  5 12  1  0
  5 13  2  0
 12  6  2  0
  6 14  1  0
 11  7  1  0
  7 21  1  0
 21  8  1  1
  9 16  1  0
 10 11  2  0
 11 20  1  0
 12 20  1  0
 13 15  1  0
 14 15  2  0
 16 18  2  0
 21 17  1  0
 18 24  1  0
 19 22  1  0
 19 23  2  0
M  CHG  1  21   1
M  END
$$$$
