
     RDKit          3D

 24 27  0  0  0  0  0  0  0  0999 V2000
   21.6136   31.7816   13.5719 C   0  0  0  0  0  0  0  0  0  0  0  0
   20.9238   32.6967   12.8149 C   0  0  0  0  0  0  0  0  0  0  0  0
   21.4105   33.9753   12.7449 C   0  0  0  0  0  0  0  0  0  0  0  0
   19.6790   32.6583   12.0103 C   0  0  1  0  0  0  0  0  0  0  0  0
   17.2659   32.0049   12.2642 C   0  0  0  0  0  0  0  0  0  0  0  0
   15.1144   31.1817   12.9976 C   0  0  0  0  0  0  0  0  0  0  0  0
   19.5728   31.4730   15.0235 C   0  0  0  0  0  0  0  0  0  0  0  0
   21.5441   30.3289   15.7720 C   0  0  0  0  0  0  0  0  0  0  0  0
   22.5808   34.3106   13.4385 C   0  0  0  0  0  0  0  0  0  0  0  0
   18.5441   32.1204   12.7485 C   0  0  0  0  0  0  0  0  0  0  0  0
   18.5273   31.6024   14.0131 C   0  0  0  0  0  0  0  0  0  0  0  0
   16.4530   31.4138   13.2275 C   0  0  0  0  0  0  0  0  0  0  0  0
   16.6562   32.3423   11.0742 C   0  0  0  0  0  0  0  0  0  0  0  0
   14.5502   31.5347   11.7964 C   0  0  0  0  0  0  0  0  0  0  0  0
   15.3215   32.1175   10.8287 C   0  0  0  0  0  0  0  0  0  0  0  0
   23.2815   33.4072   14.1999 C   0  0  0  0  0  0  0  0  0  0  0  0
   19.6215   29.1143   15.3234 C   0  0  0  0  0  0  0  0  0  0  0  0
   22.7599   32.1078   14.2513 C   0  0  0  0  0  0  0  0  0  0  0  0
   20.5615   34.7870   11.8800 C   0  0  0  0  0  0  0  0  0  0  0  0
   17.2398   31.1833   14.2674 N   0  0  0  0  0  0  0  0  0  0  0  0
   20.3815   30.2600   14.8730 N   0  0  1  0  0  4  0  0  0  0  0  0
   19.5289   33.9351   11.4204 N   0  0  0  0  0  0  0  0  0  0  0  0
   20.7060   36.0205   11.5854 O   0  0  0  0  0  0  0  0  0  0  0  0
   23.4251   31.1518   15.0044 O   0  0  0  0  0  0  0  0  0  0  0  0
  2  1  2  0
  1 18  1  0
  2  3  1  0
  4  2  1  0
  3  9  2  0
  3 19  1  0
  4 10  1  1
  4 22  1  0
 10  5  1  0
  5 12  1  0
  5 13  2  0
 12  6  2  0
  6 14  1  0
 11  7  1  0
  7 21  1  0
 21  8  1  1
  9 16  1  0
 10 11  2  0
 11 20  1  0
 12 20  1  0
 13 15  1  0
 14 15  2  0
 16 18  2  0
 21 17  1  0
 18 24  1  0
 19 22  1  0
 19 23  2  0
M  CHG  1  21   1
M  END
$$$$
