
     RDKit          3D

 24 27  0  0  0  0  0  0  0  0999 V2000
   18.4176   32.8907   16.2194 C   0  0  0  0  0  0  0  0  0  0  0  0
   18.0255   33.7708   15.2407 C   0  0  0  0  0  0  0  0  0  0  0  0
   17.0386   34.6725   15.5401 C   0  0  0  0  0  0  0  0  0  0  0  0
   18.4103   33.9977   13.8268 C   0  0  1  0  0  0  0  0  0  0  0  0
   17.2353   32.2439   12.4639 C   0  0  0  0  0  0  0  0  0  0  0  0
   16.6182   30.3685   11.0686 C   0  0  0  0  0  0  0  0  0  0  0  0
   20.8315   32.0302   12.9538 C   0  0  0  0  0  0  0  0  0  0  0  0
   22.7404   33.4578   13.2242 C   0  0  0  0  0  0  0  0  0  0  0  0
   16.4632   34.6718   16.8176 C   0  0  0  0  0  0  0  0  0  0  0  0
   18.3651   32.7819   13.0256 C   0  0  0  0  0  0  0  0  0  0  0  0
   19.4049   31.9790   12.6486 C   0  0  0  0  0  0  0  0  0  0  0  0
   17.5719   31.1059   11.7360 C   0  0  0  0  0  0  0  0  0  0  0  0
   15.8997   32.5872   12.4774 C   0  0  0  0  0  0  0  0  0  0  0  0
   15.2993   30.7488   11.1104 C   0  0  0  0  0  0  0  0  0  0  0  0
   14.9354   31.8622   11.8168 C   0  0  0  0  0  0  0  0  0  0  0  0
   16.8440   33.7980   17.8068 C   0  0  0  0  0  0  0  0  0  0  0  0
   21.8776   33.0968   11.1034 C   0  0  0  0  0  0  0  0  0  0  0  0
   17.8557   32.8888   17.4709 C   0  0  0  0  0  0  0  0  0  0  0  0
   16.7804   35.5318   14.3900 C   0  0  0  0  0  0  0  0  0  0  0  0
   18.8829   30.9726   11.8660 N   0  0  0  0  0  0  0  0  0  0  0  0
   21.4836   33.2566   12.4863 N   0  0  1  0  0  4  0  0  0  0  0  0
   17.6655   35.1098   13.3693 N   0  0  0  0  0  0  0  0  0  0  0  0
   15.9300   36.4796   14.3037 O   0  0  0  0  0  0  0  0  0  0  0  0
   18.2821   31.9819   18.4298 O   0  0  0  0  0  0  0  0  0  0  0  0
  2  1  2  0
  1 18  1  0
  2  3  1  0
  4  2  1  0
  3  9  2  0
  3 19  1  0
  4 10  1  6
  4 22  1  0
 10  5  1  0
  5 12  1  0
  5 13  2  0
 12  6  2  0
  6 14  1  0
 11  7  1  0
  7 21  1  0
 21  8  1  1
  9 16  1  0
 10 11  2  0
 11 20  1  0
 12 20  1  0
 13 15  1  0
 14 15  2  0
 16 18  2  0
 21 17  1  0
 18 24  1  0
 19 22  1  0
 19 23  2  0
M  CHG  1  21   1
M  END
$$$$
