
     RDKit          3D

 24 27  0  0  0  0  0  0  0  0999 V2000
   18.2593   30.6113   16.1630 C   0  0  0  0  0  0  0  0  0  0  0  0
   19.1480   30.9998   15.1906 C   0  0  0  0  0  0  0  0  0  0  0  0
   20.4093   31.3682   15.5780 C   0  0  0  0  0  0  0  0  0  0  0  0
   19.0801   31.1563   13.7177 C   0  0  1  0  0  0  0  0  0  0  0  0
   16.9564   31.5578   12.4360 C   0  0  0  0  0  0  0  0  0  0  0  0
   14.9188   32.4288   11.4695 C   0  0  0  0  0  0  0  0  0  0  0  0
   18.3271   34.2037   14.5191 C   0  0  0  0  0  0  0  0  0  0  0  0
   19.3252   36.0731   13.3947 C   0  0  0  0  0  0  0  0  0  0  0  0
   20.7532   31.3408   16.9360 C   0  0  0  0  0  0  0  0  0  0  0  0
   17.9509   31.9694   13.2863 C   0  0  0  0  0  0  0  0  0  0  0  0
   17.6393   33.2474   13.6568 C   0  0  0  0  0  0  0  0  0  0  0  0
   16.0244   32.5799   12.2778 C   0  0  0  0  0  0  0  0  0  0  0  0
   16.7092   30.3930   11.7404 C   0  0  0  0  0  0  0  0  0  0  0  0
   14.7137   31.2500   10.7956 C   0  0  0  0  0  0  0  0  0  0  0  0
   15.6107   30.2260   10.9296 C   0  0  0  0  0  0  0  0  0  0  0  0
   19.8758   30.9553   17.9201 C   0  0  0  0  0  0  0  0  0  0  0  0
   20.5508   34.9093   14.9810 C   0  0  0  0  0  0  0  0  0  0  0  0
   18.5943   30.5833   17.4930 C   0  0  0  0  0  0  0  0  0  0  0  0
   21.2084   31.7208   14.4097 C   0  0  0  0  0  0  0  0  0  0  0  0
   16.4623   33.5823   13.0240 N   0  0  0  0  0  0  0  0  0  0  0  0
   19.5662   34.7267   13.9368 N   0  0  1  0  0  4  0  0  0  0  0  0
   20.3689   31.5452   13.2838 N   0  0  0  0  0  0  0  0  0  0  0  0
   22.4232   32.1116   14.3886 O   0  0  0  0  0  0  0  0  0  0  0  0
   17.6651   30.1842   18.4422 O   0  0  0  0  0  0  0  0  0  0  0  0
  2  1  2  0
  1 18  1  0
  2  3  1  0
  4  2  1  0
  3  9  2  0
  3 19  1  0
  4 10  1  1
  4 22  1  0
 10  5  1  0
  5 12  1  0
  5 13  2  0
 12  6  2  0
  6 14  1  0
 11  7  1  0
  7 21  1  0
 21  8  1  1
  9 16  1  0
 10 11  2  0
 11 20  1  0
 12 20  1  0
 13 15  1  0
 14 15  2  0
 16 18  2  0
 21 17  1  0
 18 24  1  0
 19 22  1  0
 19 23  2  0
M  CHG  1  21   1
M  END
$$$$
