
     RDKit          3D

 24 27  0  0  0  0  0  0  0  0999 V2000
   18.6894   30.7120   15.7629 C   0  0  0  0  0  0  0  0  0  0  0  0
   19.5198   31.0426   14.7201 C   0  0  0  0  0  0  0  0  0  0  0  0
   20.8477   31.2435   14.9902 C   0  0  0  0  0  0  0  0  0  0  0  0
   19.3285   31.2782   13.2687 C   0  0  1  0  0  0  0  0  0  0  0  0
   17.0513   31.9317   12.4312 C   0  0  0  0  0  0  0  0  0  0  0  0
   15.0027   33.0592   11.8177 C   0  0  0  0  0  0  0  0  0  0  0  0
   19.2614   34.4733   13.8003 C   0  0  0  0  0  0  0  0  0  0  0  0
   19.5847   36.1744   15.4606 C   0  0  0  0  0  0  0  0  0  0  0  0
   21.3159   31.1098   16.3039 C   0  0  0  0  0  0  0  0  0  0  0  0
   18.2684   32.2364   12.9856 C   0  0  0  0  0  0  0  0  0  0  0  0
   18.2523   33.5789   13.2409 C   0  0  0  0  0  0  0  0  0  0  0  0
   16.2766   33.0850   12.3423 C   0  0  0  0  0  0  0  0  0  0  0  0
   16.4722   30.7697   11.9663 C   0  0  0  0  0  0  0  0  0  0  0  0
   14.4669   31.8780   11.3667 C   0  0  0  0  0  0  0  0  0  0  0  0
   15.2021   30.7269   11.4399 C   0  0  0  0  0  0  0  0  0  0  0  0
   20.4983   30.7802   17.3574 C   0  0  0  0  0  0  0  0  0  0  0  0
   17.5733   35.0252   15.3818 C   0  0  0  0  0  0  0  0  0  0  0  0
   19.1461   30.5801   17.0498 C   0  0  0  0  0  0  0  0  0  0  0  0
   21.5661   31.5585   13.7604 C   0  0  0  0  0  0  0  0  0  0  0  0
   17.0256   34.0585   12.8369 N   0  0  0  0  0  0  0  0  0  0  0  0
   18.9970   34.8528   15.1909 N   0  0  1  0  0  4  0  0  0  0  0  0
   20.6065   31.5366   12.7203 N   0  0  0  0  0  0  0  0  0  0  0  0
   22.8112   31.8071   13.6299 O   0  0  0  0  0  0  0  0  0  0  0  0
   18.2723   30.2447   18.0733 O   0  0  0  0  0  0  0  0  0  0  0  0
  2  1  2  0
  1 18  1  0
  2  3  1  0
  4  2  1  0
  3  9  2  0
  3 19  1  0
  4 10  1  1
  4 22  1  0
 10  5  1  0
  5 12  1  0
  5 13  2  0
 12  6  2  0
  6 14  1  0
 11  7  1  0
  7 21  1  0
 21  8  1  6
  9 16  1  0
 10 11  2  0
 11 20  1  0
 12 20  1  0
 13 15  1  0
 14 15  2  0
 16 18  2  0
 21 17  1  0
 18 24  1  0
 19 22  1  0
 19 23  2  0
M  CHG  1  21   1
M  END
$$$$
