
     RDKit          3D

 24 27  0  0  0  0  0  0  0  0999 V2000
   20.9556   30.9059   13.5117 C   0  0  0  0  0  0  0  0  0  0  0  0
   20.8506   32.1298   12.8975 C   0  0  0  0  0  0  0  0  0  0  0  0
   21.8681   33.0301   13.0727 C   0  0  0  0  0  0  0  0  0  0  0  0
   19.8288   32.7854   12.0463 C   0  0  1  0  0  0  0  0  0  0  0  0
   17.4199   32.0727   12.1063 C   0  0  0  0  0  0  0  0  0  0  0  0
   15.1044   31.6443   12.6538 C   0  0  0  0  0  0  0  0  0  0  0  0
   18.7450   34.1586   14.7731 C   0  0  0  0  0  0  0  0  0  0  0  0
   18.3587   35.6347   16.6242 C   0  0  0  0  0  0  0  0  0  0  0  0
   22.9718   32.6838   13.8634 C   0  0  0  0  0  0  0  0  0  0  0  0
   18.4947   32.7448   12.6302 C   0  0  0  0  0  0  0  0  0  0  0  0
   18.0651   33.3128   13.7966 C   0  0  0  0  0  0  0  0  0  0  0  0
   16.3207   32.2214   12.9476 C   0  0  0  0  0  0  0  0  0  0  0  0
   17.2208   31.3186   10.9690 C   0  0  0  0  0  0  0  0  0  0  0  0
   14.9529   30.9013   11.5089 C   0  0  0  0  0  0  0  0  0  0  0  0
   16.0134   30.7359   10.6610 C   0  0  0  0  0  0  0  0  0  0  0  0
   23.0913   31.4644   14.4844 C   0  0  0  0  0  0  0  0  0  0  0  0
   18.1205   36.4320   14.4608 C   0  0  0  0  0  0  0  0  0  0  0  0
   22.0356   30.5648   14.2859 C   0  0  0  0  0  0  0  0  0  0  0  0
   21.5883   34.2524   12.3274 C   0  0  0  0  0  0  0  0  0  0  0  0
   16.7398   32.9718   13.9550 N   0  0  0  0  0  0  0  0  0  0  0  0
   17.9115   35.2545   15.2751 N   0  0  1  0  0  4  0  0  0  0  0  0
   20.3446   34.0512   11.6825 N   0  0  0  0  0  0  0  0  0  0  0  0
   22.3098   35.3031   12.2591 O   0  0  0  0  0  0  0  0  0  0  0  0
   22.1009   29.3172   14.8881 O   0  0  0  0  0  0  0  0  0  0  0  0
  2  1  2  0
  1 18  1  0
  2  3  1  0
  4  2  1  0
  3  9  2  0
  3 19  1  0
  4 10  1  1
  4 22  1  0
 10  5  1  0
  5 12  1  0
  5 13  2  0
 12  6  2  0
  6 14  1  0
 11  7  1  0
  7 21  1  0
 21  8  1  1
  9 16  1  0
 10 11  2  0
 11 20  1  0
 12 20  1  0
 13 15  1  0
 14 15  2  0
 16 18  2  0
 21 17  1  0
 18 24  1  0
 19 22  1  0
 19 23  2  0
M  CHG  1  21   1
M  END
$$$$
