
     RDKit          3D

 24 27  0  0  0  0  0  0  0  0999 V2000
   19.1275   33.2700   15.9285 C   0  0  0  0  0  0  0  0  0  0  0  0
   18.4785   34.0641   15.0150 C   0  0  0  0  0  0  0  0  0  0  0  0
   17.5262   34.9341   15.4763 C   0  0  0  0  0  0  0  0  0  0  0  0
   18.5327   34.2169   13.5411 C   0  0  1  0  0  0  0  0  0  0  0  0
   17.2002   32.3821   12.4584 C   0  0  0  0  0  0  0  0  0  0  0  0
   16.4174   30.4212   11.2809 C   0  0  0  0  0  0  0  0  0  0  0  0
   20.8302   32.1832   12.5013 C   0  0  0  0  0  0  0  0  0  0  0  0
   20.8666   30.5008   14.2111 C   0  0  0  0  0  0  0  0  0  0  0  0
   17.2428   34.9884   16.8474 C   0  0  0  0  0  0  0  0  0  0  0  0
   18.3903   32.9506   12.8351 C   0  0  0  0  0  0  0  0  0  0  0  0
   19.3766   32.1191   12.3837 C   0  0  0  0  0  0  0  0  0  0  0  0
   17.4456   31.1964   11.7713 C   0  0  0  0  0  0  0  0  0  0  0  0
   15.8760   32.7324   12.6182 C   0  0  0  0  0  0  0  0  0  0  0  0
   15.1132   30.8101   11.4641 C   0  0  0  0  0  0  0  0  0  0  0  0
   14.8381   31.9699   12.1351 C   0  0  0  0  0  0  0  0  0  0  0  0
   17.8825   34.2007   17.7732 C   0  0  0  0  0  0  0  0  0  0  0  0
   22.7659   31.7706   13.8201 C   0  0  0  0  0  0  0  0  0  0  0  0
   18.8517   33.3222   17.2714 C   0  0  0  0  0  0  0  0  0  0  0  0
   16.9718   35.7027   14.3675 C   0  0  0  0  0  0  0  0  0  0  0  0
   18.7629   31.0654   11.7425 N   0  0  0  0  0  0  0  0  0  0  0  0
   21.3215   31.8502   13.8414 N   0  0  1  0  0  4  0  0  0  0  0  0
   17.6389   35.2589   13.2007 N   0  0  0  0  0  0  0  0  0  0  0  0
   16.0658   36.6001   14.4205 O   0  0  0  0  0  0  0  0  0  0  0  0
   19.5313   32.5017   18.1594 O   0  0  0  0  0  0  0  0  0  0  0  0
  2  1  2  0
  1 18  1  0
  2  3  1  0
  4  2  1  0
  3  9  2  0
  3 19  1  0
  4 10  1  6
  4 22  1  0
 10  5  1  0
  5 12  1  0
  5 13  2  0
 12  6  2  0
  6 14  1  0
 11  7  1  0
  7 21  1  0
 21  8  1  6
  9 16  1  0
 10 11  2  0
 11 20  1  0
 12 20  1  0
 13 15  1  0
 14 15  2  0
 16 18  2  0
 21 17  1  0
 18 24  1  0
 19 22  1  0
 19 23  2  0
M  CHG  1  21   1
M  END
$$$$
