
     RDKit          3D

 24 27  0  0  0  0  0  0  0  0999 V2000
   18.4905   32.4339   15.9802 C   0  0  0  0  0  0  0  0  0  0  0  0
   18.3014   33.3770   14.9999 C   0  0  0  0  0  0  0  0  0  0  0  0
   17.4910   34.4456   15.2791 C   0  0  0  0  0  0  0  0  0  0  0  0
   18.7674   33.5357   13.6013 C   0  0  1  0  0  0  0  0  0  0  0  0
   17.3198   32.0188   12.2165 C   0  0  0  0  0  0  0  0  0  0  0  0
   16.4022   30.2894   10.7981 C   0  0  0  0  0  0  0  0  0  0  0  0
   20.8289   31.2025   12.7055 C   0  0  0  0  0  0  0  0  0  0  0  0
   22.9097   32.3693   12.9574 C   0  0  0  0  0  0  0  0  0  0  0  0
   16.8844   34.5455   16.5381 C   0  0  0  0  0  0  0  0  0  0  0  0
   18.5221   32.3541   12.7852 C   0  0  0  0  0  0  0  0  0  0  0  0
   19.4144   31.3936   12.3990 C   0  0  0  0  0  0  0  0  0  0  0  0
   17.4638   30.8493   11.4749 C   0  0  0  0  0  0  0  0  0  0  0  0
   16.0602   32.5798   12.2336 C   0  0  0  0  0  0  0  0  0  0  0  0
   15.1651   30.8837   10.8439 C   0  0  0  0  0  0  0  0  0  0  0  0
   14.9901   32.0337   11.5636 C   0  0  0  0  0  0  0  0  0  0  0  0
   17.0632   33.6106   17.5285 C   0  0  0  0  0  0  0  0  0  0  0  0
   22.1559   31.8276   10.8335 C   0  0  0  0  0  0  0  0  0  0  0  0
   17.8979   32.5302   17.2137 C   0  0  0  0  0  0  0  0  0  0  0  0
   17.4350   35.3442   14.1314 C   0  0  0  0  0  0  0  0  0  0  0  0
   18.7339   30.4977   11.6039 N   0  0  0  0  0  0  0  0  0  0  0  0
   21.6931   32.2423   12.1400 N   0  0  1  0  0  4  0  0  0  0  0  0
   18.2584   34.7698   13.1337 N   0  0  0  0  0  0  0  0  0  0  0  0
   16.7796   36.4347   14.0297 O   0  0  0  0  0  0  0  0  0  0  0  0
   18.1162   31.5544   18.1748 O   0  0  0  0  0  0  0  0  0  0  0  0
  2  1  2  0
  1 18  1  0
  2  3  1  0
  4  2  1  0
  3  9  2  0
  3 19  1  0
  4 10  1  6
  4 22  1  0
 10  5  1  0
  5 12  1  0
  5 13  2  0
 12  6  2  0
  6 14  1  0
 11  7  1  0
  7 21  1  0
 21  8  1  1
  9 16  1  0
 10 11  2  0
 11 20  1  0
 12 20  1  0
 13 15  1  0
 14 15  2  0
 16 18  2  0
 21 17  1  0
 18 24  1  0
 19 22  1  0
 19 23  2  0
M  CHG  1  21   1
M  END
$$$$
