
     RDKit          3D

 24 27  0  0  0  0  0  0  0  0999 V2000
   19.6546   32.9729   15.6578 C   0  0  0  0  0  0  0  0  0  0  0  0
   18.7238   33.7705   15.0386 C   0  0  0  0  0  0  0  0  0  0  0  0
   17.6820   34.2493   15.7883 C   0  0  0  0  0  0  0  0  0  0  0  0
   18.5301   34.2659   13.6545 C   0  0  1  0  0  0  0  0  0  0  0  0
   17.4681   32.5573   12.1488 C   0  0  0  0  0  0  0  0  0  0  0  0
   16.9657   30.8381   10.5250 C   0  0  0  0  0  0  0  0  0  0  0  0
   21.0842   32.9343   12.1717 C   0  0  0  0  0  0  0  0  0  0  0  0
   22.6943   34.6391   12.6779 C   0  0  0  0  0  0  0  0  0  0  0  0
   17.5945   33.9161   17.1464 C   0  0  0  0  0  0  0  0  0  0  0  0
   18.5658   33.2005   12.6616 C   0  0  0  0  0  0  0  0  0  0  0  0
   19.6555   32.6698   12.0302 C   0  0  0  0  0  0  0  0  0  0  0  0
   17.8746   31.6262   11.1969 C   0  0  0  0  0  0  0  0  0  0  0  0
   16.1110   32.6435   12.3780 C   0  0  0  0  0  0  0  0  0  0  0  0
   15.6230   30.9589   10.7865 C   0  0  0  0  0  0  0  0  0  0  0  0
   15.1907   31.8644   11.7161 C   0  0  0  0  0  0  0  0  0  0  0  0
   18.5169   33.1194   17.7799 C   0  0  0  0  0  0  0  0  0  0  0  0
   21.7280   34.5722   10.5721 C   0  0  0  0  0  0  0  0  0  0  0  0
   19.5710   32.6459   16.9876 C   0  0  0  0  0  0  0  0  0  0  0  0
   16.8197   35.0911   14.9663 C   0  0  0  0  0  0  0  0  0  0  0  0
   19.1947   31.7174   11.1479 N   0  0  0  0  0  0  0  0  0  0  0  0
   21.4387   34.3420   11.9708 N   0  0  1  0  0  4  0  0  0  0  0  0
   17.3916   35.1052   13.6717 N   0  0  0  0  0  0  0  0  0  0  0  0
   15.7577   35.7009   15.3261 O   0  0  0  0  0  0  0  0  0  0  0  0
   20.5335   31.8369   17.5729 O   0  0  0  0  0  0  0  0  0  0  0  0
  2  1  2  0
  1 18  1  0
  2  3  1  0
  4  2  1  0
  3  9  2  0
  3 19  1  0
  4 10  1  6
  4 22  1  0
 10  5  1  0
  5 12  1  0
  5 13  2  0
 12  6  2  0
  6 14  1  0
 11  7  1  0
  7 21  1  0
 21  8  1  1
  9 16  1  0
 10 11  2  0
 11 20  1  0
 12 20  1  0
 13 15  1  0
 14 15  2  0
 16 18  2  0
 21 17  1  0
 18 24  1  0
 19 22  1  0
 19 23  2  0
M  CHG  1  21   1
M  END
$$$$
