
     RDKit          3D

 21 23  0  0  0  0  0  0  0  0999 V2000
  -25.2436   96.0456   53.1961 C   0  0  2  0  0  0  0  0  0  0  0  0
  -24.9416   96.4297   51.8509 N   0  0  0  0  0  0  0  0  0  0  0  0
  -24.4974   96.7658   54.1463 O   0  0  0  0  0  0  0  0  0  0  0  0
  -25.7257   96.4047   50.7800 C   0  0  0  0  0  0  0  0  0  0  0  0
  -27.0029   96.0160   50.6703 N   0  0  0  0  0  0  0  0  0  0  0  0
  -25.9836   93.8274   53.1998 O   0  0  0  0  0  0  0  0  0  0  0  0
  -27.6189   96.0716   49.4760 C   0  0  0  0  0  0  0  0  0  0  0  0
  -26.9567   96.5163   48.3914 N   0  0  0  0  0  0  0  0  0  0  0  0
  -25.6818   93.8732   55.6715 O   0  0  0  0  0  0  0  0  0  0  0  0
  -25.6761   96.9194   48.4389 C   0  0  0  0  0  0  0  0  0  0  0  0
  -21.9038   98.1172   48.5711 N   0  0  0  0  0  0  0  0  0  0  0  0
  -25.0377   96.8634   49.6686 C   0  0  0  0  0  0  0  0  0  0  0  0
  -25.0235   97.3366   47.4691 O   0  0  0  0  0  0  0  0  0  0  0  0
  -23.7811   97.1770   50.1002 C   0  0  0  0  0  0  0  0  0  0  0  0
  -23.7464   96.9007   51.4501 C   0  0  0  0  0  0  0  0  0  0  0  0
  -22.7518   97.6904   49.2488 C   0  0  0  0  0  0  0  0  0  0  0  0
  -24.9010   94.6379   53.5379 C   0  0  2  0  0  0  0  0  0  0  0  0
  -24.7399   94.7211   55.0601 C   0  0  1  0  0  0  0  0  0  0  0  0
  -25.0139   96.1673   55.3149 C   0  0  1  0  0  0  0  0  0  0  0  0
  -24.3256   96.7213   56.5223 C   0  0  0  0  0  0  0  0  0  0  0  0
  -23.0440   97.1414   56.1003 O   0  0  0  0  0  0  0  0  0  0  0  0
  1  2  1  6
  1  3  1  0
 17  1  1  0
  2  4  1  0
  2 15  1  0
  3 19  1  0
  4  5  1  0
  4 12  2  0
  5  7  2  0
 17  6  1  1
  7  8  1  0
 10  8  1  0
 18  9  1  1
 12 10  1  0
 10 13  2  0
 16 11  3  0
 14 12  1  0
 15 14  2  0
 14 16  1  0
 17 18  1  0
 18 19  1  0
 19 20  1  1
 20 21  1  0
M  END
$$$$
