
     RDKit          3D

 21 23  0  0  0  0  0  0  0  0999 V2000
  -25.1966   96.0809   53.0782 C   0  0  2  0  0  0  0  0  0  0  0  0
  -24.8253   96.5348   51.7727 N   0  0  0  0  0  0  0  0  0  0  0  0
  -24.4647   96.7117   54.1003 O   0  0  0  0  0  0  0  0  0  0  0  0
  -25.5562   96.5792   50.6655 C   0  0  0  0  0  0  0  0  0  0  0  0
  -26.8305   96.2135   50.4726 N   0  0  0  0  0  0  0  0  0  0  0  0
  -26.0167   93.8973   52.9133 O   0  0  0  0  0  0  0  0  0  0  0  0
  -27.3867   96.3429   49.2550 C   0  0  0  0  0  0  0  0  0  0  0  0
  -26.6678   96.8384   48.2302 N   0  0  0  0  0  0  0  0  0  0  0  0
  -25.8162   93.7792   55.3928 O   0  0  0  0  0  0  0  0  0  0  0  0
  -25.3870   97.2218   48.3619 C   0  0  0  0  0  0  0  0  0  0  0  0
  -21.6345   98.3561   48.7097 N   0  0  0  0  0  0  0  0  0  0  0  0
  -24.8101   97.0898   49.6160 C   0  0  0  0  0  0  0  0  0  0  0  0
  -24.6835   97.6835   47.4495 O   0  0  0  0  0  0  0  0  0  0  0  0
  -23.5730   97.3629   50.1246 C   0  0  0  0  0  0  0  0  0  0  0  0
  -23.6073   97.0119   51.4570 C   0  0  0  0  0  0  0  0  0  0  0  0
  -22.4981   97.9093   49.3539 C   0  0  0  0  0  0  0  0  0  0  0  0
  -24.9202   94.6426   53.3438 C   0  0  2  0  0  0  0  0  0  0  0  0
  -24.8194   94.6257   54.8734 C   0  0  1  0  0  0  0  0  0  0  0  0
  -25.0507   96.0631   55.2079 C   0  0  1  0  0  0  0  0  0  0  0  0
  -24.3933   96.5146   56.4738 C   0  0  0  0  0  0  0  0  0  0  0  0
  -23.0848   96.9208   56.1275 O   0  0  0  0  0  0  0  0  0  0  0  0
  1  2  1  6
  1  3  1  0
 17  1  1  0
  2  4  1  0
  2 15  1  0
  3 19  1  0
  4  5  1  0
  4 12  2  0
  5  7  2  0
 17  6  1  1
  7  8  1  0
 10  8  1  0
 18  9  1  1
 12 10  1  0
 10 13  2  0
 16 11  3  0
 14 12  1  0
 15 14  2  0
 14 16  1  0
 17 18  1  0
 18 19  1  0
 19 20  1  1
 20 21  1  0
M  END
$$$$
