
     RDKit          3D

 21 23  0  0  0  0  0  0  0  0999 V2000
  -25.6196   95.6984   53.4041 C   0  0  2  0  0  0  0  0  0  0  0  0
  -25.1013   96.1280   52.1411 N   0  0  0  0  0  0  0  0  0  0  0  0
  -25.1050   96.4406   54.4824 O   0  0  0  0  0  0  0  0  0  0  0  0
  -23.8848   95.9594   51.6374 C   0  0  0  0  0  0  0  0  0  0  0  0
  -22.8208   95.3454   52.1718 N   0  0  0  0  0  0  0  0  0  0  0  0
  -26.2104   93.4412   53.2493 O   0  0  0  0  0  0  0  0  0  0  0  0
  -21.6669   95.2860   51.4836 C   0  0  0  0  0  0  0  0  0  0  0  0
  -21.5776   95.8413   50.2603 N   0  0  0  0  0  0  0  0  0  0  0  0
  -26.3681   93.4519   55.7347 O   0  0  0  0  0  0  0  0  0  0  0  0
  -22.6092   96.4699   49.6726 C   0  0  0  0  0  0  0  0  0  0  0  0
  -25.6366   98.3366   47.9371 N   0  0  0  0  0  0  0  0  0  0  0  0
  -23.8006   96.5330   50.3794 C   0  0  0  0  0  0  0  0  0  0  0  0
  -22.5768   96.9966   48.5492 O   0  0  0  0  0  0  0  0  0  0  0  0
  -25.0291   97.0699   50.1218 C   0  0  0  0  0  0  0  0  0  0  0  0
  -25.8142   96.8071   51.2237 C   0  0  0  0  0  0  0  0  0  0  0  0
  -25.3587   97.7598   48.9121 C   0  0  0  0  0  0  0  0  0  0  0  0
  -25.2594   94.3062   53.7886 C   0  0  2  0  0  0  0  0  0  0  0  0
  -25.3843   94.3662   55.3152 C   0  0  1  0  0  0  0  0  0  0  0  0
  -25.7884   95.7882   55.5302 C   0  0  1  0  0  0  0  0  0  0  0  0
  -25.3673   96.3556   56.8491 C   0  0  0  0  0  0  0  0  0  0  0  0
  -24.0137   96.7375   56.7115 O   0  0  0  0  0  0  0  0  0  0  0  0
  1  2  1  6
  1  3  1  0
 17  1  1  0
  2  4  1  0
  2 15  1  0
  3 19  1  0
  4  5  1  0
  4 12  2  0
  5  7  2  0
 17  6  1  6
  7  8  1  0
 10  8  1  0
 18  9  1  6
 12 10  1  0
 10 13  2  0
 16 11  3  0
 14 12  1  0
 15 14  2  0
 14 16  1  0
 17 18  1  0
 18 19  1  0
 19 20  1  1
 20 21  1  0
M  END
$$$$
