
     RDKit          3D

 21 23  0  0  0  0  0  0  0  0999 V2000
  -25.6778   95.8394   53.4910 C   0  0  2  0  0  0  0  0  0  0  0  0
  -25.5097   96.2199   52.1216 N   0  0  0  0  0  0  0  0  0  0  0  0
  -24.7945   96.5134   54.3535 O   0  0  0  0  0  0  0  0  0  0  0  0
  -26.3198   96.0086   51.0915 C   0  0  0  0  0  0  0  0  0  0  0  0
  -27.5056   95.3864   51.0559 N   0  0  0  0  0  0  0  0  0  0  0  0
  -26.5234   93.6609   53.5710 O   0  0  0  0  0  0  0  0  0  0  0  0
  -28.1710   95.2805   49.8920 C   0  0  0  0  0  0  0  0  0  0  0  0
  -27.6497   95.7972   48.7633 N   0  0  0  0  0  0  0  0  0  0  0  0
  -25.9443   93.6698   55.9932 O   0  0  0  0  0  0  0  0  0  0  0  0
  -26.4658   96.4316   48.7360 C   0  0  0  0  0  0  0  0  0  0  0  0
  -22.9972   98.3179   48.6375 N   0  0  0  0  0  0  0  0  0  0  0  0
  -25.7770   96.5428   49.9344 C   0  0  0  0  0  0  0  0  0  0  0  0
  -25.9439   96.9240   47.7233 O   0  0  0  0  0  0  0  0  0  0  0  0
  -24.5837   97.0999   50.2945 C   0  0  0  0  0  0  0  0  0  0  0  0
  -24.4413   96.8877   51.6489 C   0  0  0  0  0  0  0  0  0  0  0  0
  -23.7051   97.7611   49.3787 C   0  0  0  0  0  0  0  0  0  0  0  0
  -25.3703   94.4136   53.7877 C   0  0  2  0  0  0  0  0  0  0  0  0
  -25.0355   94.4753   55.2824 C   0  0  1  0  0  0  0  0  0  0  0  0
  -25.2060   95.9310   55.5709 C   0  0  1  0  0  0  0  0  0  0  0  0
  -24.3596   96.4395   56.6950 C   0  0  0  0  0  0  0  0  0  0  0  0
  -23.1252   96.8288   56.1279 O   0  0  0  0  0  0  0  0  0  0  0  0
  1  2  1  6
  1  3  1  0
 17  1  1  0
  2  4  1  0
  2 15  1  0
  3 19  1  0
  4  5  1  0
  4 12  2  0
  5  7  2  0
 17  6  1  1
  7  8  1  0
 10  8  1  0
 18  9  1  1
 12 10  1  0
 10 13  2  0
 16 11  3  0
 14 12  1  0
 15 14  2  0
 14 16  1  0
 17 18  1  0
 18 19  1  0
 19 20  1  1
 20 21  1  0
M  END
$$$$
