
     RDKit          3D

 21 23  0  0  0  0  0  0  0  0999 V2000
  -25.8773   95.9537   53.7052 C   0  0  2  0  0  0  0  0  0  0  0  0
  -25.6040   96.1301   52.3150 N   0  0  0  0  0  0  0  0  0  0  0  0
  -24.9689   96.6791   54.5146 O   0  0  0  0  0  0  0  0  0  0  0  0
  -25.7532   95.2662   51.2881 C   0  0  0  0  0  0  0  0  0  0  0  0
  -26.1877   94.0074   51.2130 N   0  0  0  0  0  0  0  0  0  0  0  0
  -27.1041   94.0831   54.4036 O   0  0  0  0  0  0  0  0  0  0  0  0
  -26.2474   93.3332   50.0353 C   0  0  0  0  0  0  0  0  0  0  0  0
  -25.8646   93.9085   48.8577 N   0  0  0  0  0  0  0  0  0  0  0  0
  -25.8344   93.9528   56.5204 O   0  0  0  0  0  0  0  0  0  0  0  0
  -25.4211   95.1783   48.8985 C   0  0  0  0  0  0  0  0  0  0  0  0
  -24.0796   98.9730   48.8039 N   0  0  0  0  0  0  0  0  0  0  0  0
  -25.3639   95.8540   50.0970 C   0  0  0  0  0  0  0  0  0  0  0  0
  -25.0691   95.7093   47.8163 O   0  0  0  0  0  0  0  0  0  0  0  0
  -24.9597   97.1322   50.4125 C   0  0  0  0  0  0  0  0  0  0  0  0
  -25.1215   97.2613   51.7737 C   0  0  0  0  0  0  0  0  0  0  0  0
  -24.4661   98.1386   49.5296 C   0  0  0  0  0  0  0  0  0  0  0  0
  -25.7959   94.5347   54.1823 C   0  0  2  0  0  0  0  0  0  0  0  0
  -25.1578   94.6887   55.5507 C   0  0  1  0  0  0  0  0  0  0  0  0
  -25.3132   96.1787   55.7722 C   0  0  1  0  0  0  0  0  0  0  0  0
  -24.3963   96.6818   56.8559 C   0  0  0  0  0  0  0  0  0  0  0  0
  -23.0892   96.6596   56.3801 O   0  0  0  0  0  0  0  0  0  0  0  0
  1  2  1  6
  1  3  1  0
 17  1  1  0
  2  4  1  0
  2 15  1  0
 19  3  1  6
  4  5  1  0
  4 12  2  0
  5  7  2  0
 17  6  1  1
  7  8  1  0
 10  8  1  0
 18  9  1  1
 12 10  1  0
 10 13  2  0
 16 11  3  0
 14 12  1  0
 15 14  2  0
 14 16  1  0
 17 18  1  0
 18 19  1  0
 19 20  1  0
 20 21  1  6
M  END
$$$$
