
     RDKit          3D

 21 23  0  0  0  0  0  0  0  0999 V2000
  -25.6898   96.2876   53.3771 C   0  0  2  0  0  0  0  0  0  0  0  0
  -25.4122   96.7242   52.0426 N   0  0  0  0  0  0  0  0  0  0  0  0
  -24.8867   96.9306   54.3362 O   0  0  0  0  0  0  0  0  0  0  0  0
  -26.1655   96.6144   50.9551 C   0  0  0  0  0  0  0  0  0  0  0  0
  -27.3809   96.0690   50.8142 N   0  0  0  0  0  0  0  0  0  0  0  0
  -26.5206   94.1033   53.2994 O   0  0  0  0  0  0  0  0  0  0  0  0
  -27.9752   96.0620   49.6077 C   0  0  0  0  0  0  0  0  0  0  0  0
  -27.3532   96.6007   48.5421 N   0  0  0  0  0  0  0  0  0  0  0  0
  -26.1440   94.0170   55.7596 O   0  0  0  0  0  0  0  0  0  0  0  0
  -26.1350   97.1615   48.6210 C   0  0  0  0  0  0  0  0  0  0  0  0
  -22.5703   98.8223   48.8180 N   0  0  0  0  0  0  0  0  0  0  0  0
  -25.5191   97.1706   49.8635 C   0  0  0  0  0  0  0  0  0  0  0  0
  -25.5212   97.6702   47.6697 O   0  0  0  0  0  0  0  0  0  0  0  0
  -24.3210   97.6346   50.3250 C   0  0  0  0  0  0  0  0  0  0  0  0
  -24.2785   97.3474   51.6723 C   0  0  0  0  0  0  0  0  0  0  0  0
  -23.3482   98.2848   49.5010 C   0  0  0  0  0  0  0  0  0  0  0  0
  -25.3958   94.8525   53.6410 C   0  0  2  0  0  0  0  0  0  0  0  0
  -25.1864   94.8553   55.1596 C   0  0  1  0  0  0  0  0  0  0  0  0
  -25.3926   96.2972   55.4910 C   0  0  1  0  0  0  0  0  0  0  0  0
  -24.6465   96.7641   56.7009 C   0  0  0  0  0  0  0  0  0  0  0  0
  -23.3641   97.1593   56.2578 O   0  0  0  0  0  0  0  0  0  0  0  0
  1  2  1  6
  1  3  1  0
 17  1  1  0
  2  4  1  0
  2 15  1  0
  3 19  1  0
  4  5  1  0
  4 12  2  0
  5  7  2  0
 17  6  1  1
  7  8  1  0
 10  8  1  0
 18  9  1  1
 12 10  1  0
 10 13  2  0
 16 11  3  0
 14 12  1  0
 15 14  2  0
 14 16  1  0
 17 18  1  0
 18 19  1  0
 19 20  1  1
 20 21  1  0
M  END
$$$$
