
     RDKit          3D

 21 23  0  0  0  0  0  0  0  0999 V2000
  -25.6009   96.1197   53.3769 C   0  0  2  0  0  0  0  0  0  0  0  0
  -25.3967   96.5207   52.0183 N   0  0  0  0  0  0  0  0  0  0  0  0
  -24.7619   96.8026   54.2759 O   0  0  0  0  0  0  0  0  0  0  0  0
  -26.2108   96.3890   50.9781 C   0  0  0  0  0  0  0  0  0  0  0  0
  -27.4352   95.8487   50.9197 N   0  0  0  0  0  0  0  0  0  0  0  0
  -26.3988   93.9219   53.4036 O   0  0  0  0  0  0  0  0  0  0  0  0
  -28.0968   95.8156   49.7493 C   0  0  0  0  0  0  0  0  0  0  0  0
  -27.5330   96.3231   48.6370 N   0  0  0  0  0  0  0  0  0  0  0  0
  -25.8997   93.9139   55.8434 O   0  0  0  0  0  0  0  0  0  0  0  0
  -26.3092   96.8772   48.6328 C   0  0  0  0  0  0  0  0  0  0  0  0
  -22.7149   98.4936   48.5853 N   0  0  0  0  0  0  0  0  0  0  0  0
  -25.6241   96.9131   49.8380 C   0  0  0  0  0  0  0  0  0  0  0  0
  -25.7474   97.3576   47.6358 O   0  0  0  0  0  0  0  0  0  0  0  0
  -24.3993   97.3802   50.2193 C   0  0  0  0  0  0  0  0  0  0  0  0
  -24.2823   97.1266   51.5689 C   0  0  0  0  0  0  0  0  0  0  0  0
  -23.4710   98.0028   49.3256 C   0  0  0  0  0  0  0  0  0  0  0  0
  -25.2708   94.6975   53.6670 C   0  0  2  0  0  0  0  0  0  0  0  0
  -24.9867   94.7482   55.1725 C   0  0  1  0  0  0  0  0  0  0  0  0
  -25.1997   96.1961   55.4722 C   0  0  1  0  0  0  0  0  0  0  0  0
  -24.4024   96.7095   56.6295 C   0  0  0  0  0  0  0  0  0  0  0  0
  -23.2639   97.3459   56.0857 O   0  0  0  0  0  0  0  0  0  0  0  0
  1  2  1  6
  1  3  1  0
 17  1  1  0
  2  4  1  0
  2 15  1  0
  3 19  1  0
  4  5  1  0
  4 12  2  0
  5  7  2  0
 17  6  1  1
  7  8  1  0
 10  8  1  0
 18  9  1  1
 12 10  1  0
 10 13  2  0
 16 11  3  0
 14 12  1  0
 15 14  2  0
 14 16  1  0
 17 18  1  0
 18 19  1  0
 19 20  1  1
 20 21  1  0
M  END
$$$$
