
     RDKit          3D

 21 23  0  0  0  0  0  0  0  0999 V2000
  -49.6483   79.1693   62.8456 C   0  0  2  0  0  0  0  0  0  0  0  0
  -50.8782   78.4544   62.9663 N   0  0  0  0  0  0  0  0  0  0  0  0
  -48.5281   78.3129   62.9809 O   0  0  0  0  0  0  0  0  0  0  0  0
  -52.0180   78.5677   62.2513 C   0  0  0  0  0  0  0  0  0  0  0  0
  -52.3790   79.3470   61.2308 N   0  0  0  0  0  0  0  0  0  0  0  0
  -49.6262   81.4828   63.2191 O   0  0  0  0  0  0  0  0  0  0  0  0
  -53.6123   79.2726   60.6667 C   0  0  0  0  0  0  0  0  0  0  0  0
  -54.5554   78.3925   61.1142 N   0  0  0  0  0  0  0  0  0  0  0  0
  -47.3443   81.3796   64.1637 O   0  0  0  0  0  0  0  0  0  0  0  0
  -54.2232   77.5912   62.1430 C   0  0  0  0  0  0  0  0  0  0  0  0
  -53.4179   75.1151   65.2264 N   0  0  0  0  0  0  0  0  0  0  0  0
  -52.9704   77.6737   62.7089 C   0  0  0  0  0  0  0  0  0  0  0  0
  -55.0892   76.7807   62.5556 O   0  0  0  0  0  0  0  0  0  0  0  0
  -52.3850   76.9856   63.7482 C   0  0  0  0  0  0  0  0  0  0  0  0
  -51.1102   77.4907   63.8735 C   0  0  0  0  0  0  0  0  0  0  0  0
  -52.9595   75.9560   64.5518 C   0  0  0  0  0  0  0  0  0  0  0  0
  -49.4525   80.2512   63.8650 C   0  0  2  0  0  0  0  0  0  0  0  0
  -47.9722   80.1365   64.1794 C   0  0  1  0  0  0  0  0  0  0  0  0
  -47.5043   79.2612   63.0355 C   0  0  1  0  0  0  0  0  0  0  0  0
  -46.1640   78.6364   63.3213 C   0  0  0  0  0  0  0  0  0  0  0  0
  -46.3660   77.4364   63.9955 O   0  0  0  0  0  0  0  0  0  0  0  0
  1  2  1  1
  1  3  1  0
 17  1  1  0
  2  4  1  0
  2 15  1  0
 19  3  1  1
  4  5  1  0
  4 12  2  0
  5  7  2  0
 17  6  1  6
  7  8  1  0
 10  8  1  0
 18  9  1  6
 12 10  1  0
 10 13  2  0
 16 11  3  0
 14 12  1  0
 15 14  2  0
 14 16  1  0
 17 18  1  0
 18 19  1  0
 19 20  1  0
 20 21  1  6
M  END
$$$$
