
     RDKit          3D

 21 23  0  0  0  0  0  0  0  0999 V2000
  -25.5992   95.9574   53.3141 C   0  0  2  0  0  0  0  0  0  0  0  0
  -25.3245   96.4501   52.0026 N   0  0  0  0  0  0  0  0  0  0  0  0
  -25.0815   96.8148   54.3158 O   0  0  0  0  0  0  0  0  0  0  0  0
  -26.0691   96.3785   50.8784 C   0  0  0  0  0  0  0  0  0  0  0  0
  -27.2641   95.8502   50.6099 N   0  0  0  0  0  0  0  0  0  0  0  0
  -26.0779   93.6820   53.6064 O   0  0  0  0  0  0  0  0  0  0  0  0
  -27.8165   95.9070   49.3704 C   0  0  0  0  0  0  0  0  0  0  0  0
  -27.1773   96.5105   48.3256 N   0  0  0  0  0  0  0  0  0  0  0  0
  -24.9882   93.6655   55.8251 O   0  0  0  0  0  0  0  0  0  0  0  0
  -25.9693   97.0539   48.5628 C   0  0  0  0  0  0  0  0  0  0  0  0
  -22.3460   98.7202   49.0478 N   0  0  0  0  0  0  0  0  0  0  0  0
  -25.4168   96.9915   49.8227 C   0  0  0  0  0  0  0  0  0  0  0  0
  -25.3801   97.6098   47.6032 O   0  0  0  0  0  0  0  0  0  0  0  0
  -24.2224   97.4568   50.3260 C   0  0  0  0  0  0  0  0  0  0  0  0
  -24.2043   97.1070   51.6576 C   0  0  0  0  0  0  0  0  0  0  0  0
  -23.1926   98.1590   49.6314 C   0  0  0  0  0  0  0  0  0  0  0  0
  -25.0228   94.6044   53.6060 C   0  0  2  0  0  0  0  0  0  0  0  0
  -24.5765   94.7467   55.0497 C   0  0  1  0  0  0  0  0  0  0  0  0
  -25.2922   96.0213   55.4456 C   0  0  1  0  0  0  0  0  0  0  0  0
  -24.7007   96.6319   56.6887 C   0  0  0  0  0  0  0  0  0  0  0  0
  -23.6228   97.4319   56.3233 O   0  0  0  0  0  0  0  0  0  0  0  0
  1  2  1  6
  1  3  1  0
 17  1  1  0
  2  4  1  0
  2 15  1  0
 19  3  1  6
  4  5  1  0
  4 12  2  0
  5  7  2  0
 17  6  1  1
  7  8  1  0
 10  8  1  0
 18  9  1  1
 12 10  1  0
 10 13  2  0
 16 11  3  0
 14 12  1  0
 15 14  2  0
 14 16  1  0
 17 18  1  0
 18 19  1  0
 19 20  1  0
 20 21  1  6
M  END
$$$$
