
     RDKit          3D

 21 23  0  0  0  0  0  0  0  0999 V2000
  -25.5513   95.7411   53.3036 C   0  0  2  0  0  0  0  0  0  0  0  0
  -25.3376   96.3329   52.0220 N   0  0  0  0  0  0  0  0  0  0  0  0
  -25.2448   96.6401   54.3544 O   0  0  0  0  0  0  0  0  0  0  0  0
  -26.0647   96.2281   50.8891 C   0  0  0  0  0  0  0  0  0  0  0  0
  -27.1833   95.5693   50.5828 N   0  0  0  0  0  0  0  0  0  0  0  0
  -25.5814   93.4057   53.4967 O   0  0  0  0  0  0  0  0  0  0  0  0
  -27.7356   95.6218   49.3430 C   0  0  0  0  0  0  0  0  0  0  0  0
  -27.1747   96.3549   48.3368 N   0  0  0  0  0  0  0  0  0  0  0  0
  -24.5808   93.5091   55.7547 O   0  0  0  0  0  0  0  0  0  0  0  0
  -26.0451   97.0320   48.6129 C   0  0  0  0  0  0  0  0  0  0  0  0
  -22.6708   99.1409   49.2416 N   0  0  0  0  0  0  0  0  0  0  0  0
  -25.4921   96.9728   49.8727 C   0  0  0  0  0  0  0  0  0  0  0  0
  -25.5281   97.7072   47.6888 O   0  0  0  0  0  0  0  0  0  0  0  0
  -24.3667   97.5568   50.4101 C   0  0  0  0  0  0  0  0  0  0  0  0
  -24.3079   97.1422   51.7218 C   0  0  0  0  0  0  0  0  0  0  0  0
  -23.4315   98.4181   49.7623 C   0  0  0  0  0  0  0  0  0  0  0  0
  -24.7292   94.5159   53.5703 C   0  0  2  0  0  0  0  0  0  0  0  0
  -24.3658   94.6816   55.0345 C   0  0  1  0  0  0  0  0  0  0  0  0
  -25.3308   95.7737   55.4464 C   0  0  1  0  0  0  0  0  0  0  0  0
  -24.9109   96.4352   56.7326 C   0  0  0  0  0  0  0  0  0  0  0  0
  -24.0006   97.4452   56.4383 O   0  0  0  0  0  0  0  0  0  0  0  0
  1  2  1  6
  1  3  1  0
 17  1  1  0
  2  4  1  0
  2 15  1  0
 19  3  1  6
  4  5  1  0
  4 12  2  0
  5  7  2  0
 17  6  1  1
  7  8  1  0
 10  8  1  0
 18  9  1  1
 12 10  1  0
 10 13  2  0
 16 11  3  0
 14 12  1  0
 15 14  2  0
 14 16  1  0
 17 18  1  0
 18 19  1  0
 19 20  1  0
 20 21  1  6
M  END
$$$$
