
     RDKit          3D

 21 23  0  0  0  0  0  0  0  0999 V2000
  -25.5608   96.0902   53.2500 C   0  0  2  0  0  0  0  0  0  0  0  0
  -25.1911   96.4964   51.9322 N   0  0  0  0  0  0  0  0  0  0  0  0
  -24.7521   96.7076   54.2356 O   0  0  0  0  0  0  0  0  0  0  0  0
  -25.9375   96.5731   50.8096 C   0  0  0  0  0  0  0  0  0  0  0  0
  -27.2191   96.3110   50.5487 N   0  0  0  0  0  0  0  0  0  0  0  0
  -26.7471   94.0904   53.5423 O   0  0  0  0  0  0  0  0  0  0  0  0
  -27.7507   96.4703   49.3089 C   0  0  0  0  0  0  0  0  0  0  0  0
  -27.0002   96.9094   48.2562 N   0  0  0  0  0  0  0  0  0  0  0  0
  -25.6375   93.6667   55.7101 O   0  0  0  0  0  0  0  0  0  0  0  0
  -25.7028   97.1831   48.4856 C   0  0  0  0  0  0  0  0  0  0  0  0
  -21.7983   98.0329   48.9540 N   0  0  0  0  0  0  0  0  0  0  0  0
  -25.1724   97.0185   49.7458 C   0  0  0  0  0  0  0  0  0  0  0  0
  -25.0111   97.5876   47.5187 O   0  0  0  0  0  0  0  0  0  0  0  0
  -23.9040   97.2221   50.2422 C   0  0  0  0  0  0  0  0  0  0  0  0
  -23.9570   96.8927   51.5781 C   0  0  0  0  0  0  0  0  0  0  0  0
  -22.7497   97.6778   49.5381 C   0  0  0  0  0  0  0  0  0  0  0  0
  -25.4488   94.6167   53.5035 C   0  0  2  0  0  0  0  0  0  0  0  0
  -24.9247   94.5715   54.9272 C   0  0  1  0  0  0  0  0  0  0  0  0
  -25.1671   96.0005   55.3662 C   0  0  1  0  0  0  0  0  0  0  0  0
  -24.3602   96.3549   56.5875 C   0  0  0  0  0  0  0  0  0  0  0  0
  -23.0332   96.5321   56.2093 O   0  0  0  0  0  0  0  0  0  0  0  0
  1  2  1  6
  1  3  1  0
 17  1  1  0
  2  4  1  0
  2 15  1  0
 19  3  1  6
  4  5  1  0
  4 12  2  0
  5  7  2  0
 17  6  1  1
  7  8  1  0
 10  8  1  0
 18  9  1  1
 12 10  1  0
 10 13  2  0
 16 11  3  0
 14 12  1  0
 15 14  2  0
 14 16  1  0
 17 18  1  0
 18 19  1  0
 19 20  1  0
 20 21  1  6
M  END
$$$$
