
     RDKit          3D

 21 23  0  0  0  0  0  0  0  0999 V2000
  -25.8243   96.2661   53.4874 C   0  0  2  0  0  0  0  0  0  0  0  0
  -25.4554   96.6386   52.1594 N   0  0  0  0  0  0  0  0  0  0  0  0
  -25.0696   96.9691   54.4583 O   0  0  0  0  0  0  0  0  0  0  0  0
  -26.1747   96.5943   51.0175 C   0  0  0  0  0  0  0  0  0  0  0  0
  -27.4210   96.2078   50.7409 N   0  0  0  0  0  0  0  0  0  0  0  0
  -26.8995   94.2148   53.8454 O   0  0  0  0  0  0  0  0  0  0  0  0
  -27.9303   96.2590   49.4828 C   0  0  0  0  0  0  0  0  0  0  0  0
  -27.1924   96.7107   48.4265 N   0  0  0  0  0  0  0  0  0  0  0  0
  -25.8055   93.9452   56.0456 O   0  0  0  0  0  0  0  0  0  0  0  0
  -25.9304   97.1086   48.6715 C   0  0  0  0  0  0  0  0  0  0  0  0
  -22.1400   98.3590   49.1958 N   0  0  0  0  0  0  0  0  0  0  0  0
  -25.4224   97.0531   49.9502 C   0  0  0  0  0  0  0  0  0  0  0  0
  -25.2504   97.5248   47.7013 O   0  0  0  0  0  0  0  0  0  0  0  0
  -24.1906   97.3916   50.4646 C   0  0  0  0  0  0  0  0  0  0  0  0
  -24.2512   97.1244   51.8140 C   0  0  0  0  0  0  0  0  0  0  0  0
  -23.0614   97.9125   49.7649 C   0  0  0  0  0  0  0  0  0  0  0  0
  -25.6328   94.8132   53.8041 C   0  0  2  0  0  0  0  0  0  0  0  0
  -25.1320   94.8568   55.2362 C   0  0  1  0  0  0  0  0  0  0  0  0
  -25.4632   96.2862   55.6112 C   0  0  1  0  0  0  0  0  0  0  0  0
  -24.6993   96.7365   56.8285 C   0  0  0  0  0  0  0  0  0  0  0  0
  -23.4673   97.2384   56.4216 O   0  0  0  0  0  0  0  0  0  0  0  0
  1  2  1  6
  1  3  1  0
 17  1  1  0
  2  4  1  0
  2 15  1  0
 19  3  1  6
  4  5  1  0
  4 12  2  0
  5  7  2  0
 17  6  1  1
  7  8  1  0
 10  8  1  0
 18  9  1  1
 12 10  1  0
 10 13  2  0
 16 11  3  0
 14 12  1  0
 15 14  2  0
 14 16  1  0
 17 18  1  0
 18 19  1  0
 19 20  1  0
 20 21  1  6
M  END
$$$$
