
     RDKit          3D

 21 23  0  0  0  0  0  0  0  0999 V2000
  -25.5895   96.0649   53.4701 C   0  0  2  0  0  0  0  0  0  0  0  0
  -25.3930   96.4413   52.1034 N   0  0  0  0  0  0  0  0  0  0  0  0
  -24.7762   96.7944   54.3560 O   0  0  0  0  0  0  0  0  0  0  0  0
  -26.2177   96.3018   51.0726 C   0  0  0  0  0  0  0  0  0  0  0  0
  -27.4485   95.7744   51.0337 N   0  0  0  0  0  0  0  0  0  0  0  0
  -26.3171   93.8439   53.5443 O   0  0  0  0  0  0  0  0  0  0  0  0
  -28.1207   95.7296   49.8698 C   0  0  0  0  0  0  0  0  0  0  0  0
  -27.5612   96.2125   48.7444 N   0  0  0  0  0  0  0  0  0  0  0  0
  -25.8276   93.9071   55.9852 O   0  0  0  0  0  0  0  0  0  0  0  0
  -26.3314   96.7527   48.7206 C   0  0  0  0  0  0  0  0  0  0  0  0
  -22.7075   98.3498   48.6426 N   0  0  0  0  0  0  0  0  0  0  0  0
  -25.6353   96.8006   49.9190 C   0  0  0  0  0  0  0  0  0  0  0  0
  -25.7732   97.2105   47.7110 O   0  0  0  0  0  0  0  0  0  0  0  0
  -24.4021   97.2601   50.2819 C   0  0  0  0  0  0  0  0  0  0  0  0
  -24.2759   97.0272   51.6345 C   0  0  0  0  0  0  0  0  0  0  0  0
  -23.4749   97.8575   49.3701 C   0  0  0  0  0  0  0  0  0  0  0  0
  -25.2155   94.6609   53.7935 C   0  0  2  0  0  0  0  0  0  0  0  0
  -24.9390   94.7547   55.2984 C   0  0  1  0  0  0  0  0  0  0  0  0
  -25.1992   96.2015   55.5644 C   0  0  1  0  0  0  0  0  0  0  0  0
  -24.4231   96.7661   56.7122 C   0  0  0  0  0  0  0  0  0  0  0  0
  -23.2505   97.3355   56.1665 O   0  0  0  0  0  0  0  0  0  0  0  0
  1  2  1  6
  1  3  1  0
 17  1  1  0
  2  4  1  0
  2 15  1  0
  3 19  1  0
  4  5  1  0
  4 12  2  0
  5  7  2  0
 17  6  1  1
  7  8  1  0
 10  8  1  0
 18  9  1  1
 12 10  1  0
 10 13  2  0
 16 11  3  0
 14 12  1  0
 15 14  2  0
 14 16  1  0
 17 18  1  0
 18 19  1  0
 19 20  1  1
 20 21  1  0
M  END
$$$$
