
     RDKit          3D

 21 23  0  0  0  0  0  0  0  0999 V2000
  -25.4919   96.1066   53.2674 C   0  0  2  0  0  0  0  0  0  0  0  0
  -25.2200   96.5665   51.9397 N   0  0  0  0  0  0  0  0  0  0  0  0
  -24.7158   96.7641   54.2388 O   0  0  0  0  0  0  0  0  0  0  0  0
  -25.9809   96.4825   50.8552 C   0  0  0  0  0  0  0  0  0  0  0  0
  -27.2009   95.9480   50.7119 N   0  0  0  0  0  0  0  0  0  0  0  0
  -26.2521   93.8979   53.1603 O   0  0  0  0  0  0  0  0  0  0  0  0
  -27.8030   95.9678   49.5095 C   0  0  0  0  0  0  0  0  0  0  0  0
  -27.1842   96.5225   48.4502 N   0  0  0  0  0  0  0  0  0  0  0  0
  -25.8885   93.7963   55.6219 O   0  0  0  0  0  0  0  0  0  0  0  0
  -25.9617   97.0736   48.5318 C   0  0  0  0  0  0  0  0  0  0  0  0
  -22.3555   98.6859   48.7548 N   0  0  0  0  0  0  0  0  0  0  0  0
  -25.3379   97.0550   49.7701 C   0  0  0  0  0  0  0  0  0  0  0  0
  -25.3507   97.5962   47.5862 O   0  0  0  0  0  0  0  0  0  0  0  0
  -24.1337   97.5022   50.2324 C   0  0  0  0  0  0  0  0  0  0  0  0
  -24.0844   97.1891   51.5738 C   0  0  0  0  0  0  0  0  0  0  0  0
  -23.1618   98.1614   49.4146 C   0  0  0  0  0  0  0  0  0  0  0  0
  -25.1540   94.6787   53.5176 C   0  0  2  0  0  0  0  0  0  0  0  0
  -24.9543   94.6713   55.0374 C   0  0  1  0  0  0  0  0  0  0  0  0
  -25.2085   96.1021   55.3832 C   0  0  1  0  0  0  0  0  0  0  0  0
  -24.4853   96.5790   56.6031 C   0  0  0  0  0  0  0  0  0  0  0  0
  -23.2831   97.1712   56.1549 O   0  0  0  0  0  0  0  0  0  0  0  0
  1  2  1  6
  1  3  1  0
 17  1  1  0
  2  4  1  0
  2 15  1  0
  3 19  1  0
  4  5  1  0
  4 12  2  0
  5  7  2  0
 17  6  1  1
  7  8  1  0
 10  8  1  0
 18  9  1  1
 12 10  1  0
 10 13  2  0
 16 11  3  0
 14 12  1  0
 15 14  2  0
 14 16  1  0
 17 18  1  0
 18 19  1  0
 19 20  1  1
 20 21  1  0
M  END
$$$$
