
     RDKit          3D

 21 23  0  0  0  0  0  0  0  0999 V2000
  -25.6317   96.2513   53.3326 C   0  0  2  0  0  0  0  0  0  0  0  0
  -25.1785   96.6645   52.0395 N   0  0  0  0  0  0  0  0  0  0  0  0
  -24.8091   96.7223   54.3718 O   0  0  0  0  0  0  0  0  0  0  0  0
  -25.8715   96.7952   50.9149 C   0  0  0  0  0  0  0  0  0  0  0  0
  -27.1736   96.5771   50.6883 N   0  0  0  0  0  0  0  0  0  0  0  0
  -26.8150   94.2465   53.1127 O   0  0  0  0  0  0  0  0  0  0  0  0
  -27.6807   96.7728   49.4581 C   0  0  0  0  0  0  0  0  0  0  0  0
  -26.8845   97.1870   48.4545 N   0  0  0  0  0  0  0  0  0  0  0  0
  -26.6553   94.0379   55.5892 O   0  0  0  0  0  0  0  0  0  0  0  0
  -25.5723   97.4222   48.6202 C   0  0  0  0  0  0  0  0  0  0  0  0
  -21.7104   98.1342   49.0978 N   0  0  0  0  0  0  0  0  0  0  0  0
  -25.0460   97.2214   49.8873 C   0  0  0  0  0  0  0  0  0  0  0  0
  -24.7982   97.8042   47.7284 O   0  0  0  0  0  0  0  0  0  0  0  0
  -23.7991   97.3507   50.4281 C   0  0  0  0  0  0  0  0  0  0  0  0
  -23.9066   97.0015   51.7570 C   0  0  0  0  0  0  0  0  0  0  0  0
  -22.6502   97.7743   49.6876 C   0  0  0  0  0  0  0  0  0  0  0  0
  -25.6094   94.7811   53.5643 C   0  0  2  0  0  0  0  0  0  0  0  0
  -25.5238   94.7115   55.0933 C   0  0  1  0  0  0  0  0  0  0  0  0
  -25.5060   96.1591   55.4616 C   0  0  1  0  0  0  0  0  0  0  0  0
  -24.7895   96.4607   56.7400 C   0  0  0  0  0  0  0  0  0  0  0  0
  -23.4380   96.6957   56.4005 O   0  0  0  0  0  0  0  0  0  0  0  0
  1  2  1  6
  1  3  1  0
 17  1  1  0
  2  4  1  0
  2 15  1  0
  3 19  1  0
  4  5  1  0
  4 12  2  0
  5  7  2  0
 17  6  1  1
  7  8  1  0
 10  8  1  0
 18  9  1  1
 12 10  1  0
 10 13  2  0
 16 11  3  0
 14 12  1  0
 15 14  2  0
 14 16  1  0
 17 18  1  0
 18 19  1  0
 19 20  1  1
 20 21  1  0
M  END
$$$$
