
     RDKit          3D

 21 23  0  0  0  0  0  0  0  0999 V2000
  -51.9495   76.6173   63.2199 C   0  0  2  0  0  0  0  0  0  0  0  0
  -52.0821   77.0531   61.8631 N   0  0  0  0  0  0  0  0  0  0  0  0
  -53.1205   76.0136   63.7126 O   0  0  0  0  0  0  0  0  0  0  0  0
  -51.1364   77.4321   61.0122 C   0  0  0  0  0  0  0  0  0  0  0  0
  -49.8112   77.5084   61.1926 N   0  0  0  0  0  0  0  0  0  0  0  0
  -50.3547   77.9520   64.2890 O   0  0  0  0  0  0  0  0  0  0  0  0
  -49.0217   77.9230   60.1859 C   0  0  0  0  0  0  0  0  0  0  0  0
  -49.5584   78.2614   58.9983 N   0  0  0  0  0  0  0  0  0  0  0  0
  -51.1830   76.9892   66.4312 O   0  0  0  0  0  0  0  0  0  0  0  0
  -50.8789   78.2056   58.7575 C   0  0  0  0  0  0  0  0  0  0  0  0
  -54.7468   78.0356   58.0157 N   0  0  0  0  0  0  0  0  0  0  0  0
  -51.6960   77.7786   59.7933 C   0  0  0  0  0  0  0  0  0  0  0  0
  -51.4208   78.5063   57.6822 O   0  0  0  0  0  0  0  0  0  0  0  0
  -53.0425   77.5964   59.9259 C   0  0  0  0  0  0  0  0  0  0  0  0
  -53.2559   77.1484   61.2118 C   0  0  0  0  0  0  0  0  0  0  0  0
  -53.9866   77.8461   58.8799 C   0  0  0  0  0  0  0  0  0  0  0  0
  -51.7246   77.7067   64.2090 C   0  0  2  0  0  0  0  0  0  0  0  0
  -52.2365   77.0599   65.5011 C   0  0  1  0  0  0  0  0  0  0  0  0
  -52.6693   75.7151   65.0157 C   0  0  1  0  0  0  0  0  0  0  0  0
  -53.7752   75.0989   65.8130 C   0  0  0  0  0  0  0  0  0  0  0  0
  -54.9815   75.6492   65.3242 O   0  0  0  0  0  0  0  0  0  0  0  0
  1  2  1  6
  1  3  1  0
 17  1  1  0
  2  4  1  0
  2 15  1  0
  3 19  1  0
  4  5  1  0
  4 12  2  0
  5  7  2  0
 17  6  1  1
  7  8  1  0
 10  8  1  0
 18  9  1  1
 12 10  1  0
 10 13  2  0
 16 11  3  0
 14 12  1  0
 15 14  2  0
 14 16  1  0
 17 18  1  0
 18 19  1  0
 19 20  1  1
 20 21  1  0
M  END
$$$$
