
     RDKit          3D

 21 23  0  0  0  0  0  0  0  0999 V2000
  -25.6942   96.2525   53.2685 C   0  0  2  0  0  0  0  0  0  0  0  0
  -25.3802   96.7635   51.9729 N   0  0  0  0  0  0  0  0  0  0  0  0
  -24.9414   96.8943   54.2823 O   0  0  0  0  0  0  0  0  0  0  0  0
  -26.0623   96.6566   50.8125 C   0  0  0  0  0  0  0  0  0  0  0  0
  -27.2126   96.0670   50.4835 N   0  0  0  0  0  0  0  0  0  0  0  0
  -26.6719   94.1310   53.4575 O   0  0  0  0  0  0  0  0  0  0  0  0
  -27.7041   96.0988   49.2177 C   0  0  0  0  0  0  0  0  0  0  0  0
  -27.0458   96.7387   48.2071 N   0  0  0  0  0  0  0  0  0  0  0  0
  -25.5038   93.7055   55.5940 O   0  0  0  0  0  0  0  0  0  0  0  0
  -25.8817   97.3443   48.5055 C   0  0  0  0  0  0  0  0  0  0  0  0
  -22.3943   99.2131   49.1705 N   0  0  0  0  0  0  0  0  0  0  0  0
  -25.3910   97.3068   49.7916 C   0  0  0  0  0  0  0  0  0  0  0  0
  -25.2751   97.9339   47.5773 O   0  0  0  0  0  0  0  0  0  0  0  0
  -24.2497   97.8328   50.3549 C   0  0  0  0  0  0  0  0  0  0  0  0
  -24.2803   97.4798   51.6855 C   0  0  0  0  0  0  0  0  0  0  0  0
  -23.2248   98.5907   49.7139 C   0  0  0  0  0  0  0  0  0  0  0  0
  -25.4331   94.7862   53.4412 C   0  0  2  0  0  0  0  0  0  0  0  0
  -24.8928   94.7178   54.8579 C   0  0  1  0  0  0  0  0  0  0  0  0
  -25.2722   96.0897   55.3749 C   0  0  1  0  0  0  0  0  0  0  0  0
  -24.4925   96.4575   56.6098 C   0  0  0  0  0  0  0  0  0  0  0  0
  -23.2530   96.9564   56.2225 O   0  0  0  0  0  0  0  0  0  0  0  0
  1  2  1  6
  1  3  1  0
 17  1  1  0
  2  4  1  0
  2 15  1  0
 19  3  1  6
  4  5  1  0
  4 12  2  0
  5  7  2  0
 17  6  1  1
  7  8  1  0
 10  8  1  0
 18  9  1  1
 12 10  1  0
 10 13  2  0
 16 11  3  0
 14 12  1  0
 15 14  2  0
 14 16  1  0
 17 18  1  0
 18 19  1  0
 19 20  1  0
 20 21  1  6
M  END
$$$$
