
     RDKit          3D

 21 23  0  0  0  0  0  0  0  0999 V2000
  -25.5598   96.0724   53.2717 C   0  0  2  0  0  0  0  0  0  0  0  0
  -25.4139   96.5063   51.9194 N   0  0  0  0  0  0  0  0  0  0  0  0
  -24.9206   96.9540   54.1776 O   0  0  0  0  0  0  0  0  0  0  0  0
  -26.2009   96.2742   50.8470 C   0  0  0  0  0  0  0  0  0  0  0  0
  -27.3356   95.5930   50.6808 N   0  0  0  0  0  0  0  0  0  0  0  0
  -26.0557   93.8235   53.7063 O   0  0  0  0  0  0  0  0  0  0  0  0
  -27.9534   95.5029   49.4745 C   0  0  0  0  0  0  0  0  0  0  0  0
  -27.4458   96.1069   48.3602 N   0  0  0  0  0  0  0  0  0  0  0  0
  -24.7391   93.8643   55.7980 O   0  0  0  0  0  0  0  0  0  0  0  0
  -26.3016   96.8025   48.4936 C   0  0  0  0  0  0  0  0  0  0  0  0
  -22.8787   98.9323   48.6954 N   0  0  0  0  0  0  0  0  0  0  0  0
  -25.6820   96.8883   49.7204 C   0  0  0  0  0  0  0  0  0  0  0  0
  -25.8335   97.3591   47.4698 O   0  0  0  0  0  0  0  0  0  0  0  0
  -24.5283   97.5225   50.1244 C   0  0  0  0  0  0  0  0  0  0  0  0
  -24.4001   97.2657   51.4711 C   0  0  0  0  0  0  0  0  0  0  0  0
  -23.6274   98.2931   49.3303 C   0  0  0  0  0  0  0  0  0  0  0  0
  -24.9862   94.7169   53.5576 C   0  0  2  0  0  0  0  0  0  0  0  0
  -24.3874   94.9032   54.9397 C   0  0  1  0  0  0  0  0  0  0  0  0
  -25.0288   96.2108   55.3550 C   0  0  1  0  0  0  0  0  0  0  0  0
  -24.2962   96.8533   56.5034 C   0  0  0  0  0  0  0  0  0  0  0  0
  -23.2973   97.6750   55.9913 O   0  0  0  0  0  0  0  0  0  0  0  0
  1  2  1  6
  1  3  1  0
 17  1  1  0
  2  4  1  0
  2 15  1  0
 19  3  1  6
  4  5  1  0
  4 12  2  0
  5  7  2  0
 17  6  1  1
  7  8  1  0
 10  8  1  0
 18  9  1  1
 12 10  1  0
 10 13  2  0
 16 11  3  0
 14 12  1  0
 15 14  2  0
 14 16  1  0
 17 18  1  0
 18 19  1  0
 19 20  1  0
 20 21  1  6
M  END
$$$$
