
     RDKit          3D

 21 23  0  0  0  0  0  0  0  0999 V2000
  -25.3832   95.9601   53.4098 C   0  0  2  0  0  0  0  0  0  0  0  0
  -25.2000   96.3498   52.0449 N   0  0  0  0  0  0  0  0  0  0  0  0
  -24.6600   96.7674   54.3062 O   0  0  0  0  0  0  0  0  0  0  0  0
  -26.0350   96.2211   51.0211 C   0  0  0  0  0  0  0  0  0  0  0  0
  -27.2666   95.6953   50.9893 N   0  0  0  0  0  0  0  0  0  0  0  0
  -25.8939   93.6794   53.4816 O   0  0  0  0  0  0  0  0  0  0  0  0
  -27.9505   95.6624   49.8317 C   0  0  0  0  0  0  0  0  0  0  0  0
  -27.4018   96.1559   48.7057 N   0  0  0  0  0  0  0  0  0  0  0  0
  -25.4558   93.7967   55.9303 O   0  0  0  0  0  0  0  0  0  0  0  0
  -26.1718   96.6953   48.6749 C   0  0  0  0  0  0  0  0  0  0  0  0
  -22.5644   98.3032   48.5679 N   0  0  0  0  0  0  0  0  0  0  0  0
  -25.4637   96.7308   49.8667 C   0  0  0  0  0  0  0  0  0  0  0  0
  -25.6232   97.1625   47.6643 O   0  0  0  0  0  0  0  0  0  0  0  0
  -24.2264   97.1857   50.2218 C   0  0  0  0  0  0  0  0  0  0  0  0
  -24.0871   96.9394   51.5707 C   0  0  0  0  0  0  0  0  0  0  0  0
  -23.3079   97.7913   49.3067 C   0  0  0  0  0  0  0  0  0  0  0  0
  -24.8810   94.5999   53.7461 C   0  0  2  0  0  0  0  0  0  0  0  0
  -24.6413   94.7244   55.2550 C   0  0  1  0  0  0  0  0  0  0  0  0
  -25.0448   96.1399   55.5098 C   0  0  1  0  0  0  0  0  0  0  0  0
  -24.3473   96.7804   56.6682 C   0  0  0  0  0  0  0  0  0  0  0  0
  -23.2412   97.4814   56.1371 O   0  0  0  0  0  0  0  0  0  0  0  0
  1  2  1  6
  1  3  1  0
 17  1  1  0
  2  4  1  0
  2 15  1  0
  3 19  1  0
  4  5  1  0
  4 12  2  0
  5  7  2  0
 17  6  1  1
  7  8  1  0
 10  8  1  0
 18  9  1  1
 12 10  1  0
 10 13  2  0
 16 11  3  0
 14 12  1  0
 15 14  2  0
 14 16  1  0
 17 18  1  0
 18 19  1  0
 19 20  1  1
 20 21  1  0
M  END
$$$$
