
     RDKit          3D

 21 23  0  0  0  0  0  0  0  0999 V2000
  -25.5227   95.8409   53.3607 C   0  0  2  0  0  0  0  0  0  0  0  0
  -25.3630   96.2253   51.9913 N   0  0  0  0  0  0  0  0  0  0  0  0
  -24.6758   96.5556   54.2269 O   0  0  0  0  0  0  0  0  0  0  0  0
  -26.2027   96.0638   50.9760 C   0  0  0  0  0  0  0  0  0  0  0  0
  -27.4183   95.5014   50.9592 N   0  0  0  0  0  0  0  0  0  0  0  0
  -26.2709   93.6270   53.4411 O   0  0  0  0  0  0  0  0  0  0  0  0
  -28.1109   95.4392   49.8080 C   0  0  0  0  0  0  0  0  0  0  0  0
  -27.5869   95.9400   48.6734 N   0  0  0  0  0  0  0  0  0  0  0  0
  -25.7083   93.6675   55.8667 O   0  0  0  0  0  0  0  0  0  0  0  0
  -26.3738   96.5154   48.6275 C   0  0  0  0  0  0  0  0  0  0  0  0
  -22.7954   98.2043   48.4806 N   0  0  0  0  0  0  0  0  0  0  0  0
  -25.6568   96.5812   49.8127 C   0  0  0  0  0  0  0  0  0  0  0  0
  -25.8482   96.9907   47.6086 O   0  0  0  0  0  0  0  0  0  0  0  0
  -24.4306   97.0753   50.1533 C   0  0  0  0  0  0  0  0  0  0  0  0
  -24.2723   96.8438   51.5028 C   0  0  0  0  0  0  0  0  0  0  0  0
  -23.5384   97.7007   49.2255 C   0  0  0  0  0  0  0  0  0  0  0  0
  -25.1539   94.4309   53.6630 C   0  0  2  0  0  0  0  0  0  0  0  0
  -24.8317   94.5110   55.1596 C   0  0  1  0  0  0  0  0  0  0  0  0
  -25.0688   95.9584   55.4433 C   0  0  1  0  0  0  0  0  0  0  0  0
  -24.2531   96.5067   56.5713 C   0  0  0  0  0  0  0  0  0  0  0  0
  -22.9416   96.6808   56.0748 O   0  0  0  0  0  0  0  0  0  0  0  0
  1  2  1  6
  1  3  1  0
 17  1  1  0
  2  4  1  0
  2 15  1  0
  3 19  1  0
  4  5  1  0
  4 12  2  0
  5  7  2  0
 17  6  1  1
  7  8  1  0
 10  8  1  0
 18  9  1  1
 12 10  1  0
 10 13  2  0
 16 11  3  0
 14 12  1  0
 15 14  2  0
 14 16  1  0
 17 18  1  0
 18 19  1  0
 19 20  1  1
 20 21  1  0
M  END
$$$$
