
     RDKit          3D

 21 23  0  0  0  0  0  0  0  0999 V2000
  -25.9433   96.4684   53.5153 C   0  0  2  0  0  0  0  0  0  0  0  0
  -25.6274   96.7844   52.1593 N   0  0  0  0  0  0  0  0  0  0  0  0
  -24.9505   96.9399   54.4089 O   0  0  0  0  0  0  0  0  0  0  0  0
  -26.3685   96.6328   51.0408 C   0  0  0  0  0  0  0  0  0  0  0  0
  -27.5957   96.1595   50.8189 N   0  0  0  0  0  0  0  0  0  0  0  0
  -27.4398   94.7221   53.9663 O   0  0  0  0  0  0  0  0  0  0  0  0
  -28.1355   96.1085   49.5736 C   0  0  0  0  0  0  0  0  0  0  0  0
  -27.4498   96.5405   48.4748 N   0  0  0  0  0  0  0  0  0  0  0  0
  -26.2330   94.1296   56.0406 O   0  0  0  0  0  0  0  0  0  0  0  0
  -26.2084   97.0241   48.6640 C   0  0  0  0  0  0  0  0  0  0  0  0
  -22.4840   98.5191   49.0231 N   0  0  0  0  0  0  0  0  0  0  0  0
  -25.6690   97.0720   49.9302 C   0  0  0  0  0  0  0  0  0  0  0  0
  -25.5764   97.4224   47.6546 O   0  0  0  0  0  0  0  0  0  0  0  0
  -24.4481   97.5103   50.3925 C   0  0  0  0  0  0  0  0  0  0  0  0
  -24.4622   97.3183   51.7559 C   0  0  0  0  0  0  0  0  0  0  0  0
  -23.3680   98.0544   49.6355 C   0  0  0  0  0  0  0  0  0  0  0  0
  -26.0767   95.0024   53.7998 C   0  0  2  0  0  0  0  0  0  0  0  0
  -25.4426   94.8796   55.1733 C   0  0  1  0  0  0  0  0  0  0  0  0
  -25.3821   96.3341   55.5910 C   0  0  1  0  0  0  0  0  0  0  0  0
  -24.4171   96.5502   56.7269 C   0  0  0  0  0  0  0  0  0  0  0  0
  -23.1198   96.4743   56.2306 O   0  0  0  0  0  0  0  0  0  0  0  0
  1  2  1  6
  1  3  1  0
 17  1  1  0
  2  4  1  0
  2 15  1  0
 19  3  1  6
  4  5  1  0
  4 12  2  0
  5  7  2  0
 17  6  1  1
  7  8  1  0
 10  8  1  0
 18  9  1  1
 12 10  1  0
 10 13  2  0
 16 11  3  0
 14 12  1  0
 15 14  2  0
 14 16  1  0
 17 18  1  0
 18 19  1  0
 19 20  1  0
 20 21  1  6
M  END
$$$$
