
     RDKit          3D

 21 23  0  0  0  0  0  0  0  0999 V2000
  -25.6234   95.7503   53.5353 C   0  0  2  0  0  0  0  0  0  0  0  0
  -25.3949   96.1176   52.1711 N   0  0  0  0  0  0  0  0  0  0  0  0
  -24.8355   96.4901   54.4354 O   0  0  0  0  0  0  0  0  0  0  0  0
  -26.1718   95.9213   51.1128 C   0  0  0  0  0  0  0  0  0  0  0  0
  -27.3716   95.3302   51.0366 N   0  0  0  0  0  0  0  0  0  0  0  0
  -26.3424   93.5264   53.6081 O   0  0  0  0  0  0  0  0  0  0  0  0
  -27.9961   95.2345   49.8494 C   0  0  0  0  0  0  0  0  0  0  0  0
  -27.4201   95.7304   48.7381 N   0  0  0  0  0  0  0  0  0  0  0  0
  -25.9134   93.6098   56.0598 O   0  0  0  0  0  0  0  0  0  0  0  0
  -26.2197   96.3334   48.7514 C   0  0  0  0  0  0  0  0  0  0  0  0
  -22.6795   98.0946   48.7706 N   0  0  0  0  0  0  0  0  0  0  0  0
  -25.5727   96.4338   49.9738 C   0  0  0  0  0  0  0  0  0  0  0  0
  -25.6480   96.8056   47.7561 O   0  0  0  0  0  0  0  0  0  0  0  0
  -24.3793   96.9617   50.3749 C   0  0  0  0  0  0  0  0  0  0  0  0
  -24.2926   96.7543   51.7347 C   0  0  0  0  0  0  0  0  0  0  0  0
  -23.4503   97.5939   49.4888 C   0  0  0  0  0  0  0  0  0  0  0  0
  -25.2510   94.3505   53.8783 C   0  0  2  0  0  0  0  0  0  0  0  0
  -25.0120   94.4566   55.3887 C   0  0  1  0  0  0  0  0  0  0  0  0
  -25.2853   95.9041   55.6375 C   0  0  1  0  0  0  0  0  0  0  0  0
  -24.5404   96.4808   56.7998 C   0  0  0  0  0  0  0  0  0  0  0  0
  -23.3200   96.9794   56.2909 O   0  0  0  0  0  0  0  0  0  0  0  0
  1  2  1  6
  1  3  1  0
 17  1  1  0
  2  4  1  0
  2 15  1  0
  3 19  1  0
  4  5  1  0
  4 12  2  0
  5  7  2  0
 17  6  1  1
  7  8  1  0
 10  8  1  0
 18  9  1  1
 12 10  1  0
 10 13  2  0
 16 11  3  0
 14 12  1  0
 15 14  2  0
 14 16  1  0
 17 18  1  0
 18 19  1  0
 19 20  1  1
 20 21  1  0
M  END
$$$$
