
     RDKit          3D

 21 23  0  0  0  0  0  0  0  0999 V2000
  -25.6919   95.9257   53.6027 C   0  0  2  0  0  0  0  0  0  0  0  0
  -25.5444   96.2255   52.2110 N   0  0  0  0  0  0  0  0  0  0  0  0
  -24.6743   96.4934   54.3905 O   0  0  0  0  0  0  0  0  0  0  0  0
  -26.3489   95.9170   51.2012 C   0  0  0  0  0  0  0  0  0  0  0  0
  -27.5085   95.2463   51.2122 N   0  0  0  0  0  0  0  0  0  0  0  0
  -26.8407   93.9008   53.8212 O   0  0  0  0  0  0  0  0  0  0  0  0
  -28.1732   95.0403   50.0614 C   0  0  0  0  0  0  0  0  0  0  0  0
  -27.6775   95.5055   48.8993 N   0  0  0  0  0  0  0  0  0  0  0  0
  -26.1363   93.9148   56.2099 O   0  0  0  0  0  0  0  0  0  0  0  0
  -26.5206   96.1843   48.8248 C   0  0  0  0  0  0  0  0  0  0  0  0
  -23.1201   98.1969   48.5953 N   0  0  0  0  0  0  0  0  0  0  0  0
  -25.8325   96.3987   50.0095 C   0  0  0  0  0  0  0  0  0  0  0  0
  -26.0229   96.6326   47.7799 O   0  0  0  0  0  0  0  0  0  0  0  0
  -24.6617   97.0252   50.3265 C   0  0  0  0  0  0  0  0  0  0  0  0
  -24.5059   96.9049   51.6906 C   0  0  0  0  0  0  0  0  0  0  0  0
  -23.8141   97.6623   49.3655 C   0  0  0  0  0  0  0  0  0  0  0  0
  -25.5801   94.4822   53.9482 C   0  0  2  0  0  0  0  0  0  0  0  0
  -25.1595   94.5497   55.4208 C   0  0  1  0  0  0  0  0  0  0  0  0
  -25.0999   96.0244   55.6513 C   0  0  1  0  0  0  0  0  0  0  0  0
  -24.1288   96.4438   56.7094 C   0  0  0  0  0  0  0  0  0  0  0  0
  -22.9707   96.8975   56.0387 O   0  0  0  0  0  0  0  0  0  0  0  0
  1  2  1  6
  1  3  1  0
 17  1  1  0
  2  4  1  0
  2 15  1  0
  3 19  1  0
  4  5  1  0
  4 12  2  0
  5  7  2  0
 17  6  1  1
  7  8  1  0
 10  8  1  0
 18  9  1  1
 12 10  1  0
 10 13  2  0
 16 11  3  0
 14 12  1  0
 15 14  2  0
 14 16  1  0
 17 18  1  0
 18 19  1  0
 19 20  1  1
 20 21  1  0
M  END
$$$$
