
     RDKit          3D

 21 23  0  0  0  0  0  0  0  0999 V2000
  -25.6556   96.1669   53.4151 C   0  0  2  0  0  0  0  0  0  0  0  0
  -25.3143   96.5173   52.0738 N   0  0  0  0  0  0  0  0  0  0  0  0
  -24.7692   96.7525   54.3521 O   0  0  0  0  0  0  0  0  0  0  0  0
  -26.0750   96.5114   50.9583 C   0  0  0  0  0  0  0  0  0  0  0  0
  -27.3496   96.1933   50.7271 N   0  0  0  0  0  0  0  0  0  0  0  0
  -26.9559   94.2566   53.8049 O   0  0  0  0  0  0  0  0  0  0  0  0
  -27.8997   96.2710   49.4876 C   0  0  0  0  0  0  0  0  0  0  0  0
  -27.1762   96.6807   48.4046 N   0  0  0  0  0  0  0  0  0  0  0  0
  -25.7888   93.8113   55.9379 O   0  0  0  0  0  0  0  0  0  0  0  0
  -25.8864   97.0092   48.6036 C   0  0  0  0  0  0  0  0  0  0  0  0
  -22.0054   98.0128   48.9841 N   0  0  0  0  0  0  0  0  0  0  0  0
  -25.3371   96.9272   49.8637 C   0  0  0  0  0  0  0  0  0  0  0  0
  -25.2196   97.3867   47.6087 O   0  0  0  0  0  0  0  0  0  0  0  0
  -24.0712   97.1984   50.3332 C   0  0  0  0  0  0  0  0  0  0  0  0
  -24.0984   96.9363   51.6846 C   0  0  0  0  0  0  0  0  0  0  0  0
  -22.9408   97.6561   49.5924 C   0  0  0  0  0  0  0  0  0  0  0  0
  -25.6289   94.6955   53.7019 C   0  0  2  0  0  0  0  0  0  0  0  0
  -25.0514   94.6490   55.1047 C   0  0  1  0  0  0  0  0  0  0  0  0
  -25.1827   96.1006   55.5159 C   0  0  1  0  0  0  0  0  0  0  0  0
  -24.3056   96.4294   56.6952 C   0  0  0  0  0  0  0  0  0  0  0  0
  -22.9774   96.4115   56.2819 O   0  0  0  0  0  0  0  0  0  0  0  0
  1  2  1  6
  1  3  1  0
 17  1  1  0
  2  4  1  0
  2 15  1  0
 19  3  1  6
  4  5  1  0
  4 12  2  0
  5  7  2  0
 17  6  1  1
  7  8  1  0
 10  8  1  0
 18  9  1  1
 12 10  1  0
 10 13  2  0
 16 11  3  0
 14 12  1  0
 15 14  2  0
 14 16  1  0
 17 18  1  0
 18 19  1  0
 19 20  1  0
 20 21  1  6
M  END
$$$$
