
     RDKit          3D

 17 18  0  0  0  0  0  0  0  0999 V2000
   -0.4422  -21.2285    1.8192 C   0  0  0  0  0  0  0  0  0  0  0  0
    0.5625  -21.7216    1.0012 C   0  0  0  0  0  0  0  0  0  0  0  0
    1.2341  -22.8942    1.2699 C   0  0  0  0  0  0  0  0  0  0  0  0
    0.8735  -23.5923    2.4102 C   0  0  0  0  0  0  0  0  0  0  0  0
   -0.1207  -23.1448    3.2588 C   0  0  0  0  0  0  0  0  0  0  0  0
   -0.7652  -21.9606    2.9438 C   0  0  0  0  0  0  0  0  0  0  0  0
   -4.8658  -15.3538    2.5624 C   0  0  0  0  0  0  0  0  0  0  0  0
   -3.9316  -15.9896    1.6189 C   0  0  0  0  0  0  0  0  0  0  0  0
   -3.7148  -15.3844    0.4196 C   0  0  0  0  0  0  0  0  0  0  0  0
   -2.2124  -17.1157   -0.1744 C   0  0  0  0  0  0  0  0  0  0  0  0
   -2.4131  -17.7507    1.0329 C   0  0  0  0  0  0  0  0  0  0  0  0
   -3.2857  -17.1664    1.9265 C   0  0  0  0  0  0  0  0  0  0  0  0
   -1.7193  -18.9747    1.3113 C   0  0  0  0  0  0  0  0  0  0  0  0
   -1.1389  -20.0027    1.5313 C   0  0  0  0  0  0  0  0  0  0  0  0
   -2.8588  -15.9610   -0.4526 N   0  0  0  0  0  0  0  0  0  0  0  0
   -5.0651  -15.8104    3.6978 O   0  0  0  0  0  0  0  0  0  0  0  0
   -5.5265  -14.2220    2.1539 O   0  0  0  0  0  0  0  0  0  0  0  0
  1  2  2  0
  1  6  1  0
 14  1  1  0
  2  3  1  0
  3  4  2  0
  5  4  1  0
  6  5  2  0
  8  7  1  0
  7 16  2  0
  7 17  1  0
  8  9  2  0
 12  8  1  0
 15  9  1  0
 11 10  1  0
 10 15  2  0
 11 12  2  0
 13 11  1  0
 13 14  3  0
M  END
$$$$
