
     RDKit          3D

 17 18  0  0  0  0  0  0  0  0999 V2000
   -4.9252  -14.2241  -12.5683 C   0  0  0  0  0  0  0  0  0  0  0  0
   -6.1670  -14.6972  -12.2031 C   0  0  0  0  0  0  0  0  0  0  0  0
   -6.3684  -15.9592  -11.6850 C   0  0  0  0  0  0  0  0  0  0  0  0
   -5.2867  -16.7978  -11.5189 C   0  0  0  0  0  0  0  0  0  0  0  0
   -4.0325  -16.3202  -11.8876 C   0  0  0  0  0  0  0  0  0  0  0  0
   -3.8436  -15.0565  -12.4046 C   0  0  0  0  0  0  0  0  0  0  0  0
   -3.8375   -8.8333  -17.4080 C   0  0  0  0  0  0  0  0  0  0  0  0
   -4.1094   -9.0161  -15.9821 C   0  0  0  0  0  0  0  0  0  0  0  0
   -4.2250   -7.9087  -15.1690 C   0  0  0  0  0  0  0  0  0  0  0  0
   -4.6146   -9.3531  -13.3322 C   0  0  0  0  0  0  0  0  0  0  0  0
   -4.4996  -10.4638  -14.1427 C   0  0  0  0  0  0  0  0  0  0  0  0
   -4.2452  -10.2817  -15.4749 C   0  0  0  0  0  0  0  0  0  0  0  0
   -4.6475  -11.7765  -13.5789 C   0  0  0  0  0  0  0  0  0  0  0  0
   -4.7692  -12.8816  -13.1110 C   0  0  0  0  0  0  0  0  0  0  0  0
   -4.4752   -8.1262  -13.8657 N   0  0  0  0  0  0  0  0  0  0  0  0
   -3.1834   -9.6795  -18.0399 O   0  0  0  0  0  0  0  0  0  0  0  0
   -4.2919   -7.7228  -18.1064 O   0  0  0  0  0  0  0  0  0  0  0  0
  1  2  2  0
  1  6  1  0
 14  1  1  0
  2  3  1  0
  3  4  2  0
  5  4  1  0
  6  5  2  0
  8  7  1  0
  7 16  2  0
  7 17  1  0
  8  9  2  0
 12  8  1  0
 15  9  1  0
 11 10  1  0
 10 15  2  0
 11 12  2  0
 13 11  1  0
 13 14  3  0
M  END
$$$$
