
     RDKit          3D

 17 18  0  0  0  0  0  0  0  0999 V2000
   -6.4676  -30.2706  -13.1711 C   0  0  0  0  0  0  0  0  0  0  0  0
   -5.4992  -31.2109  -12.8554 C   0  0  0  0  0  0  0  0  0  0  0  0
   -4.3871  -30.9106  -12.0996 C   0  0  0  0  0  0  0  0  0  0  0  0
   -4.2521  -29.6087  -11.6474 C   0  0  0  0  0  0  0  0  0  0  0  0
   -5.1881  -28.6335  -11.9337 C   0  0  0  0  0  0  0  0  0  0  0  0
   -6.2878  -28.9869  -12.6971 C   0  0  0  0  0  0  0  0  0  0  0  0
  -10.7926  -33.1919  -18.3973 C   0  0  0  0  0  0  0  0  0  0  0  0
  -10.8397  -32.3323  -17.2032 C   0  0  0  0  0  0  0  0  0  0  0  0
  -12.0459  -31.8408  -16.8096 C   0  0  0  0  0  0  0  0  0  0  0  0
  -10.9959  -30.7335  -14.9989 C   0  0  0  0  0  0  0  0  0  0  0  0
   -9.7607  -31.2175  -15.3747 C   0  0  0  0  0  0  0  0  0  0  0  0
   -9.7017  -32.0240  -16.4915 C   0  0  0  0  0  0  0  0  0  0  0  0
   -8.6018  -30.8707  -14.6040 C   0  0  0  0  0  0  0  0  0  0  0  0
   -7.6264  -30.5926  -13.9613 C   0  0  0  0  0  0  0  0  0  0  0  0
  -12.0985  -31.0509  -15.7146 N   0  0  0  0  0  0  0  0  0  0  0  0
   -9.7240  -33.6249  -18.8535 O   0  0  0  0  0  0  0  0  0  0  0  0
  -11.9785  -33.5124  -19.0101 O   0  0  0  0  0  0  0  0  0  0  0  0
  1  2  2  0
  1  6  1  0
 14  1  1  0
  2  3  1  0
  3  4  2  0
  5  4  1  0
  6  5  2  0
  8  7  1  0
  7 16  2  0
  7 17  1  0
  8  9  2  0
 12  8  1  0
 15  9  1  0
 11 10  1  0
 10 15  2  0
 11 12  2  0
 13 11  1  0
 13 14  3  0
M  END
$$$$
