
     RDKit          3D

 17 18  0  0  0  0  0  0  0  0999 V2000
   -0.6460  -21.5933    2.4449 C   0  0  0  0  0  0  0  0  0  0  0  0
   -0.2380  -21.7128    1.1340 C   0  0  0  0  0  0  0  0  0  0  0  0
    0.7280  -22.6082    0.7257 C   0  0  0  0  0  0  0  0  0  0  0  0
    1.3221  -23.4286    1.6612 C   0  0  0  0  0  0  0  0  0  0  0  0
    0.9102  -23.3080    2.9851 C   0  0  0  0  0  0  0  0  0  0  0  0
   -0.0567  -22.4090    3.3813 C   0  0  0  0  0  0  0  0  0  0  0  0
   -4.8509  -15.5733    2.5696 C   0  0  0  0  0  0  0  0  0  0  0  0
   -4.6861  -16.8438    3.2762 C   0  0  0  0  0  0  0  0  0  0  0  0
   -5.5236  -17.1447    4.3292 C   0  0  0  0  0  0  0  0  0  0  0  0
   -4.3822  -19.2039    4.5907 C   0  0  0  0  0  0  0  0  0  0  0  0
   -3.5421  -18.9064    3.5374 C   0  0  0  0  0  0  0  0  0  0  0  0
   -3.7047  -17.7154    2.8833 C   0  0  0  0  0  0  0  0  0  0  0  0
   -2.5234  -19.8424    3.1512 C   0  0  0  0  0  0  0  0  0  0  0  0
   -1.6714  -20.6299    2.8214 C   0  0  0  0  0  0  0  0  0  0  0  0
   -5.3343  -18.3236    4.9479 N   0  0  0  0  0  0  0  0  0  0  0  0
   -5.5636  -14.6738    3.0452 O   0  0  0  0  0  0  0  0  0  0  0  0
   -4.2271  -15.3214    1.3552 O   0  0  0  0  0  0  0  0  0  0  0  0
  1  2  2  0
  1  6  1  0
 14  1  1  0
  2  3  1  0
  3  4  2  0
  5  4  1  0
  6  5  2  0
  8  7  1  0
  7 16  2  0
  7 17  1  0
  8  9  2  0
 12  8  1  0
 15  9  1  0
 11 10  1  0
 10 15  2  0
 11 12  2  0
 13 11  1  0
 13 14  3  0
M  END
$$$$
