
     RDKit          3D

 17 18  0  0  0  0  0  0  0  0999 V2000
   -0.6249  -21.4237    2.2085 C   0  0  0  0  0  0  0  0  0  0  0  0
   -1.0463  -22.6778    2.6224 C   0  0  0  0  0  0  0  0  0  0  0  0
   -0.2405  -23.7935    2.5585 C   0  0  0  0  0  0  0  0  0  0  0  0
    1.0398  -23.6314    2.0565 C   0  0  0  0  0  0  0  0  0  0  0  0
    1.5091  -22.4036    1.6306 C   0  0  0  0  0  0  0  0  0  0  0  0
    0.6596  -21.3136    1.7157 C   0  0  0  0  0  0  0  0  0  0  0  0
   -5.9905  -16.7374    4.1910 C   0  0  0  0  0  0  0  0  0  0  0  0
   -4.8295  -16.8600    3.2944 C   0  0  0  0  0  0  0  0  0  0  0  0
   -4.5168  -15.8034    2.4961 C   0  0  0  0  0  0  0  0  0  0  0  0
   -2.6903  -17.0224    1.6100 C   0  0  0  0  0  0  0  0  0  0  0  0
   -2.9839  -18.1082    2.4075 C   0  0  0  0  0  0  0  0  0  0  0  0
   -4.0689  -18.0074    3.2524 C   0  0  0  0  0  0  0  0  0  0  0  0
   -2.1647  -19.2830    2.3310 C   0  0  0  0  0  0  0  0  0  0  0  0
   -1.4730  -20.2632    2.2786 C   0  0  0  0  0  0  0  0  0  0  0  0
   -3.4526  -15.9071    1.6699 N   0  0  0  0  0  0  0  0  0  0  0  0
   -6.2497  -17.5923    5.0509 O   0  0  0  0  0  0  0  0  0  0  0  0
   -6.7985  -15.6361    4.0553 O   0  0  0  0  0  0  0  0  0  0  0  0
  1  2  2  0
  1  6  1  0
 14  1  1  0
  2  3  1  0
  3  4  2  0
  5  4  1  0
  6  5  2  0
  8  7  1  0
  7 16  2  0
  7 17  1  0
  8  9  2  0
 12  8  1  0
 15  9  1  0
 11 10  1  0
 10 15  2  0
 11 12  2  0
 13 11  1  0
 13 14  3  0
M  END
$$$$
