
     RDKit          3D

 17 18  0  0  0  0  0  0  0  0999 V2000
   -9.1979  -32.0660  -16.4204 C   0  0  0  0  0  0  0  0  0  0  0  0
   -8.4797  -31.5644  -15.3461 C   0  0  0  0  0  0  0  0  0  0  0  0
   -7.1143  -31.7079  -15.2302 C   0  0  0  0  0  0  0  0  0  0  0  0
   -6.4530  -32.3851  -16.2409 C   0  0  0  0  0  0  0  0  0  0  0  0
   -7.1213  -32.9045  -17.3330 C   0  0  0  0  0  0  0  0  0  0  0  0
   -8.4935  -32.7332  -17.4020 C   0  0  0  0  0  0  0  0  0  0  0  0
  -16.2502  -33.0706  -18.4226 C   0  0  0  0  0  0  0  0  0  0  0  0
  -15.3932  -32.2365  -17.5641 C   0  0  0  0  0  0  0  0  0  0  0  0
  -15.9814  -31.2641  -16.8160 C   0  0  0  0  0  0  0  0  0  0  0  0
  -13.8619  -30.6564  -15.9523 C   0  0  0  0  0  0  0  0  0  0  0  0
  -13.2393  -31.6338  -16.6993 C   0  0  0  0  0  0  0  0  0  0  0  0
  -14.0298  -32.4227  -17.5081 C   0  0  0  0  0  0  0  0  0  0  0  0
  -11.8166  -31.7924  -16.6100 C   0  0  0  0  0  0  0  0  0  0  0  0
  -10.6241  -31.9118  -16.5339 C   0  0  0  0  0  0  0  0  0  0  0  0
  -15.2024  -30.4937  -16.0250 N   0  0  0  0  0  0  0  0  0  0  0  0
  -15.7921  -33.9997  -19.1039 O   0  0  0  0  0  0  0  0  0  0  0  0
  -17.5947  -32.7954  -18.4560 O   0  0  0  0  0  0  0  0  0  0  0  0
  1  2  2  0
  1  6  1  0
 14  1  1  0
  2  3  1  0
  3  4  2  0
  5  4  1  0
  6  5  2  0
  8  7  1  0
  7 16  2  0
  7 17  1  0
  8  9  2  0
 12  8  1  0
 15  9  1  0
 11 10  1  0
 10 15  2  0
 11 12  2  0
 13 11  1  0
 13 14  3  0
M  END
$$$$
