
     RDKit          3D

 17 18  0  0  0  0  0  0  0  0999 V2000
   -8.7330  -35.7075    1.2919 C   0  0  0  0  0  0  0  0  0  0  0  0
   -8.2863  -35.7979    2.6011 C   0  0  0  0  0  0  0  0  0  0  0  0
   -7.0551  -35.3277    3.0027 C   0  0  0  0  0  0  0  0  0  0  0  0
   -6.2471  -34.7444    2.0411 C   0  0  0  0  0  0  0  0  0  0  0  0
   -6.6444  -34.6295    0.7228 C   0  0  0  0  0  0  0  0  0  0  0  0
   -7.8912  -35.1179    0.3707 C   0  0  0  0  0  0  0  0  0  0  0  0
  -14.9011  -36.9971   -2.6009 C   0  0  0  0  0  0  0  0  0  0  0  0
  -14.2352  -37.3265   -1.3301 C   0  0  0  0  0  0  0  0  0  0  0  0
  -14.8747  -38.1583   -0.4637 C   0  0  0  0  0  0  0  0  0  0  0  0
  -13.0560  -37.9766    1.0420 C   0  0  0  0  0  0  0  0  0  0  0  0
  -12.3853  -37.1316    0.1834 C   0  0  0  0  0  0  0  0  0  0  0  0
  -12.9972  -36.8144   -1.0109 C   0  0  0  0  0  0  0  0  0  0  0  0
  -11.0977  -36.6217    0.5566 C   0  0  0  0  0  0  0  0  0  0  0  0
  -10.0206  -36.2012    0.8808 C   0  0  0  0  0  0  0  0  0  0  0  0
  -14.2708  -38.4661    0.7053 N   0  0  0  0  0  0  0  0  0  0  0  0
  -14.3984  -36.2169   -3.4232 O   0  0  0  0  0  0  0  0  0  0  0  0
  -16.1147  -37.5818   -2.8652 O   0  0  0  0  0  0  0  0  0  0  0  0
  1  2  2  0
  1  6  1  0
 14  1  1  0
  2  3  1  0
  3  4  2  0
  5  4  1  0
  6  5  2  0
  8  7  1  0
  7 16  2  0
  7 17  1  0
  8  9  2  0
 12  8  1  0
 15  9  1  0
 11 10  1  0
 10 15  2  0
 11 12  2  0
 13 11  1  0
 13 14  3  0
M  END
$$$$
