
     RDKit          3D

 17 18  0  0  0  0  0  0  0  0999 V2000
   -3.7440  -33.1385   -2.8141 C   0  0  0  0  0  0  0  0  0  0  0  0
   -2.7733  -34.0232   -2.3966 C   0  0  0  0  0  0  0  0  0  0  0  0
   -2.9244  -34.8414   -1.2969 C   0  0  0  0  0  0  0  0  0  0  0  0
   -4.0955  -34.7828   -0.5716 C   0  0  0  0  0  0  0  0  0  0  0  0
   -5.0759  -33.8893   -0.9931 C   0  0  0  0  0  0  0  0  0  0  0  0
   -4.9134  -33.0763   -2.0943 C   0  0  0  0  0  0  0  0  0  0  0  0
   -4.7338  -29.8722   -9.3144 C   0  0  0  0  0  0  0  0  0  0  0  0
   -3.7898  -29.8856   -8.1966 C   0  0  0  0  0  0  0  0  0  0  0  0
   -2.6825  -29.0653   -8.2376 C   0  0  0  0  0  0  0  0  0  0  0  0
   -2.0344  -29.9087   -6.1209 C   0  0  0  0  0  0  0  0  0  0  0  0
   -3.1414  -30.7311   -6.0762 C   0  0  0  0  0  0  0  0  0  0  0  0
   -4.0180  -30.7108   -7.1269 C   0  0  0  0  0  0  0  0  0  0  0  0
   -3.3507  -31.5842   -4.9398 C   0  0  0  0  0  0  0  0  0  0  0  0
   -3.5319  -32.2970   -3.9838 C   0  0  0  0  0  0  0  0  0  0  0  0
   -1.8435  -29.1120   -7.1877 N   0  0  0  0  0  0  0  0  0  0  0  0
   -5.8756  -30.3433   -9.1826 O   0  0  0  0  0  0  0  0  0  0  0  0
   -4.3994  -29.3403  -10.5524 O   0  0  0  0  0  0  0  0  0  0  0  0
  1  2  2  0
  1  6  1  0
 14  1  1  0
  2  3  1  0
  3  4  2  0
  5  4  1  0
  6  5  2  0
  8  7  1  0
  7 16  2  0
  7 17  1  0
  8  9  2  0
 12  8  1  0
 15  9  1  0
 11 10  1  0
 10 15  2  0
 11 12  2  0
 13 11  1  0
 13 14  3  0
M  END
$$$$
