
     RDKit          3D

 17 18  0  0  0  0  0  0  0  0999 V2000
   -0.4081  -21.4733    2.3243 C   0  0  0  0  0  0  0  0  0  0  0  0
   -0.8583  -22.6696    1.8091 C   0  0  0  0  0  0  0  0  0  0  0  0
   -0.0167  -23.6227    1.2753 C   0  0  0  0  0  0  0  0  0  0  0  0
    1.3406  -23.3816    1.2490 C   0  0  0  0  0  0  0  0  0  0  0  0
    1.7953  -22.1735    1.7693 C   0  0  0  0  0  0  0  0  0  0  0  0
    0.9442  -21.2282    2.3004 C   0  0  0  0  0  0  0  0  0  0  0  0
   -5.8292  -16.5463    2.8583 C   0  0  0  0  0  0  0  0  0  0  0  0
   -4.8005  -17.1797    3.6837 C   0  0  0  0  0  0  0  0  0  0  0  0
   -4.6921  -16.8314    5.0133 C   0  0  0  0  0  0  0  0  0  0  0  0
   -2.8900  -18.3550    5.2195 C   0  0  0  0  0  0  0  0  0  0  0  0
   -2.9954  -18.7062    3.8893 C   0  0  0  0  0  0  0  0  0  0  0  0
   -3.9609  -18.1078    3.1262 C   0  0  0  0  0  0  0  0  0  0  0  0
   -2.0991  -19.6828    3.3363 C   0  0  0  0  0  0  0  0  0  0  0  0
   -1.3418  -20.5013    2.8764 C   0  0  0  0  0  0  0  0  0  0  0  0
   -3.7320  -17.4398    5.7319 N   0  0  0  0  0  0  0  0  0  0  0  0
   -6.6565  -15.7704    3.3651 O   0  0  0  0  0  0  0  0  0  0  0  0
   -5.9241  -16.7813    1.4934 O   0  0  0  0  0  0  0  0  0  0  0  0
  1  2  2  0
  1  6  1  0
 14  1  1  0
  2  3  1  0
  3  4  2  0
  5  4  1  0
  6  5  2  0
  8  7  1  0
  7 16  2  0
  7 17  1  0
  8  9  2  0
 12  8  1  0
 15  9  1  0
 11 10  1  0
 10 15  2  0
 11 12  2  0
 13 11  1  0
 13 14  3  0
M  END
$$$$
