
     RDKit          3D

 17 18  0  0  0  0  0  0  0  0999 V2000
   -4.3590  -33.1684   -1.6797 C   0  0  0  0  0  0  0  0  0  0  0  0
   -5.1146  -32.4471   -2.5786 C   0  0  0  0  0  0  0  0  0  0  0  0
   -4.5698  -31.7872   -3.6600 C   0  0  0  0  0  0  0  0  0  0  0  0
   -3.2074  -31.8427   -3.8643 C   0  0  0  0  0  0  0  0  0  0  0  0
   -2.4441  -32.5711   -2.9566 C   0  0  0  0  0  0  0  0  0  0  0  0
   -3.0002  -33.2267   -1.8791 C   0  0  0  0  0  0  0  0  0  0  0  0
   -9.4489  -36.1962    2.6618 C   0  0  0  0  0  0  0  0  0  0  0  0
   -8.0030  -35.9797    2.6078 C   0  0  0  0  0  0  0  0  0  0  0  0
   -7.2116  -36.4432    3.6373 C   0  0  0  0  0  0  0  0  0  0  0  0
   -5.3160  -35.5787    2.5100 C   0  0  0  0  0  0  0  0  0  0  0  0
   -6.1046  -35.1133    1.4779 C   0  0  0  0  0  0  0  0  0  0  0  0
   -7.4558  -35.3211    1.5382 C   0  0  0  0  0  0  0  0  0  0  0  0
   -5.4989  -34.4268    0.3712 C   0  0  0  0  0  0  0  0  0  0  0  0
   -4.9865  -33.8467   -0.5539 C   0  0  0  0  0  0  0  0  0  0  0  0
   -5.8887  -36.2209    3.5438 N   0  0  0  0  0  0  0  0  0  0  0  0
   -9.9692  -36.7447    3.6476 O   0  0  0  0  0  0  0  0  0  0  0  0
  -10.2899  -35.8039    1.6292 O   0  0  0  0  0  0  0  0  0  0  0  0
  1  2  2  0
  1  6  1  0
 14  1  1  0
  2  3  1  0
  3  4  2  0
  5  4  1  0
  6  5  2  0
  8  7  1  0
  7 16  2  0
  7 17  1  0
  8  9  2  0
 12  8  1  0
 15  9  1  0
 11 10  1  0
 10 15  2  0
 11 12  2  0
 13 11  1  0
 13 14  3  0
M  END
$$$$
