
     RDKit          3D

 17 18  0  0  0  0  0  0  0  0999 V2000
   -0.1243  -21.2195    1.8343 C   0  0  0  0  0  0  0  0  0  0  0  0
    0.3073  -21.6083    3.0840 C   0  0  0  0  0  0  0  0  0  0  0  0
    1.0211  -22.7670    3.3063 C   0  0  0  0  0  0  0  0  0  0  0  0
    1.3245  -23.5846    2.2383 C   0  0  0  0  0  0  0  0  0  0  0  0
    0.8888  -23.1921    0.9761 C   0  0  0  0  0  0  0  0  0  0  0  0
    0.1758  -22.0312    0.7663 C   0  0  0  0  0  0  0  0  0  0  0  0
   -5.2485  -16.0414    2.7108 C   0  0  0  0  0  0  0  0  0  0  0  0
   -4.0405  -16.3023    1.9276 C   0  0  0  0  0  0  0  0  0  0  0  0
   -3.6028  -15.3560    1.0255 C   0  0  0  0  0  0  0  0  0  0  0  0
   -1.7964  -16.7847    0.4710 C   0  0  0  0  0  0  0  0  0  0  0  0
   -2.2313  -17.7341    1.3728 C   0  0  0  0  0  0  0  0  0  0  0  0
   -3.3621  -17.4801    2.1003 C   0  0  0  0  0  0  0  0  0  0  0  0
   -1.4967  -18.9583    1.5293 C   0  0  0  0  0  0  0  0  0  0  0  0
   -0.8755  -19.9845    1.6561 C   0  0  0  0  0  0  0  0  0  0  0  0
   -2.4884  -15.6401    0.3286 N   0  0  0  0  0  0  0  0  0  0  0  0
   -6.0393  -15.1451    2.3725 O   0  0  0  0  0  0  0  0  0  0  0  0
   -5.5587  -16.7731    3.8491 O   0  0  0  0  0  0  0  0  0  0  0  0
  1  2  2  0
  1  6  1  0
 14  1  1  0
  2  3  1  0
  3  4  2  0
  5  4  1  0
  6  5  2  0
  8  7  1  0
  7 16  2  0
  7 17  1  0
  8  9  2  0
 12  8  1  0
 15  9  1  0
 11 10  1  0
 10 15  2  0
 11 12  2  0
 13 11  1  0
 13 14  3  0
M  END
$$$$
