
     RDKit          3D

 17 18  0  0  0  0  0  0  0  0999 V2000
   -0.5713  -21.4594    2.5422 C   0  0  0  0  0  0  0  0  0  0  0  0
    0.1799  -22.1540    3.4775 C   0  0  0  0  0  0  0  0  0  0  0  0
    1.1860  -23.0270    3.1257 C   0  0  0  0  0  0  0  0  0  0  0  0
    1.4397  -23.2020    1.7757 C   0  0  0  0  0  0  0  0  0  0  0  0
    0.7206  -22.5341    0.8032 C   0  0  0  0  0  0  0  0  0  0  0  0
   -0.2802  -21.6678    1.2092 C   0  0  0  0  0  0  0  0  0  0  0  0
   -4.9924  -15.5406    2.7593 C   0  0  0  0  0  0  0  0  0  0  0  0
   -4.7920  -16.8611    3.3784 C   0  0  0  0  0  0  0  0  0  0  0  0
   -5.6652  -17.2605    4.3424 C   0  0  0  0  0  0  0  0  0  0  0  0
   -4.4768  -19.2966    4.5653 C   0  0  0  0  0  0  0  0  0  0  0  0
   -3.5773  -18.9177    3.5915 C   0  0  0  0  0  0  0  0  0  0  0  0
   -3.7528  -17.6831    3.0029 C   0  0  0  0  0  0  0  0  0  0  0  0
   -2.5098  -19.8057    3.2318 C   0  0  0  0  0  0  0  0  0  0  0  0
   -1.6206  -20.5492    2.9181 C   0  0  0  0  0  0  0  0  0  0  0  0
   -5.4889  -18.4712    4.9161 N   0  0  0  0  0  0  0  0  0  0  0  0
   -5.9757  -14.8333    3.0241 O   0  0  0  0  0  0  0  0  0  0  0  0
   -4.0508  -15.0968    1.8644 O   0  0  0  0  0  0  0  0  0  0  0  0
  1  2  2  0
  1  6  1  0
 14  1  1  0
  2  3  1  0
  3  4  2  0
  5  4  1  0
  6  5  2  0
  8  7  1  0
  7 16  2  0
  7 17  1  0
  8  9  2  0
 12  8  1  0
 15  9  1  0
 11 10  1  0
 10 15  2  0
 11 12  2  0
 13 11  1  0
 13 14  3  0
M  END
$$$$
