
     RDKit          3D

 17 18  0  0  0  0  0  0  0  0999 V2000
   -2.5808  -16.8544   -0.1048 C   0  0  0  0  0  0  0  0  0  0  0  0
   -3.1362  -16.3323   -1.2627 C   0  0  0  0  0  0  0  0  0  0  0  0
   -2.3789  -15.9730   -2.3561 C   0  0  0  0  0  0  0  0  0  0  0  0
   -1.0080  -16.1496   -2.2722 C   0  0  0  0  0  0  0  0  0  0  0  0
   -0.4042  -16.6658   -1.1417 C   0  0  0  0  0  0  0  0  0  0  0  0
   -1.2100  -17.0113   -0.0701 C   0  0  0  0  0  0  0  0  0  0  0  0
   -4.7021  -18.4505    6.8058 C   0  0  0  0  0  0  0  0  0  0  0  0
   -5.2141  -18.3231    5.4316 C   0  0  0  0  0  0  0  0  0  0  0  0
   -6.5383  -18.5476    5.2134 C   0  0  0  0  0  0  0  0  0  0  0  0
   -6.2265  -18.1034    2.9084 C   0  0  0  0  0  0  0  0  0  0  0  0
   -4.8812  -17.8704    3.1003 C   0  0  0  0  0  0  0  0  0  0  0  0
   -4.3877  -17.9863    4.3826 C   0  0  0  0  0  0  0  0  0  0  0  0
   -4.0576  -17.5221    1.9789 C   0  0  0  0  0  0  0  0  0  0  0  0
   -3.3790  -17.2273    1.0330 C   0  0  0  0  0  0  0  0  0  0  0  0
   -7.0170  -18.4328    3.9550 N   0  0  0  0  0  0  0  0  0  0  0  0
   -5.1724  -19.2699    7.6089 O   0  0  0  0  0  0  0  0  0  0  0  0
   -3.6724  -17.6283    7.1907 O   0  0  0  0  0  0  0  0  0  0  0  0
  1  2  2  0
  1  6  1  0
 14  1  1  0
  2  3  1  0
  3  4  2  0
  5  4  1  0
  6  5  2  0
  8  7  1  0
  7 16  2  0
  7 17  1  0
  8  9  2  0
 12  8  1  0
 15  9  1  0
 11 10  1  0
 10 15  2  0
 11 12  2  0
 13 11  1  0
 13 14  3  0
M  END
$$$$
