
     RDKit          3D

 17 18  0  0  0  0  0  0  0  0999 V2000
   -8.3117  -32.2704  -16.5893 C   0  0  0  0  0  0  0  0  0  0  0  0
   -7.7136  -31.6022  -15.5428 C   0  0  0  0  0  0  0  0  0  0  0  0
   -6.4034  -31.8121  -15.1673 C   0  0  0  0  0  0  0  0  0  0  0  0
   -5.6442  -32.7300  -15.8617 C   0  0  0  0  0  0  0  0  0  0  0  0
   -6.2481  -33.4048  -16.9186 C   0  0  0  0  0  0  0  0  0  0  0  0
   -7.5590  -33.1864  -17.2847 C   0  0  0  0  0  0  0  0  0  0  0  0
  -14.7612  -32.7850  -20.0298 C   0  0  0  0  0  0  0  0  0  0  0  0
  -14.1315  -32.0367  -18.9416 C   0  0  0  0  0  0  0  0  0  0  0  0
  -14.8690  -31.0979  -18.2520 C   0  0  0  0  0  0  0  0  0  0  0  0
  -12.9637  -30.6449  -16.9193 C   0  0  0  0  0  0  0  0  0  0  0  0
  -12.2223  -31.5836  -17.6071 C   0  0  0  0  0  0  0  0  0  0  0  0
  -12.8209  -32.2780  -18.6231 C   0  0  0  0  0  0  0  0  0  0  0  0
  -10.8506  -31.8119  -17.2476 C   0  0  0  0  0  0  0  0  0  0  0  0
   -9.7002  -32.0098  -16.9435 C   0  0  0  0  0  0  0  0  0  0  0  0
  -14.2478  -30.4353  -17.2603 N   0  0  0  0  0  0  0  0  0  0  0  0
  -14.1026  -33.5944  -20.7037 O   0  0  0  0  0  0  0  0  0  0  0  0
  -16.1022  -32.6253  -20.3517 O   0  0  0  0  0  0  0  0  0  0  0  0
  1  2  2  0
  1  6  1  0
 14  1  1  0
  2  3  1  0
  3  4  2  0
  5  4  1  0
  6  5  2  0
  8  7  1  0
  7 16  2  0
  7 17  1  0
  8  9  2  0
 12  8  1  0
 15  9  1  0
 11 10  1  0
 10 15  2  0
 11 12  2  0
 13 11  1  0
 13 14  3  0
M  END
$$$$
