
     RDKit          3D

 17 18  0  0  0  0  0  0  0  0999 V2000
   -0.1240  -43.8565   -5.7997 C   0  0  0  0  0  0  0  0  0  0  0  0
   -0.1580  -44.6198   -6.9467 C   0  0  0  0  0  0  0  0  0  0  0  0
   -1.2744  -44.7211   -7.7498 C   0  0  0  0  0  0  0  0  0  0  0  0
   -2.4171  -44.0324   -7.4018 C   0  0  0  0  0  0  0  0  0  0  0  0
   -2.3829  -43.2615   -6.2435 C   0  0  0  0  0  0  0  0  0  0  0  0
   -1.2607  -43.1680   -5.4486 C   0  0  0  0  0  0  0  0  0  0  0  0
    6.4805  -45.5220   -3.0853 C   0  0  0  0  0  0  0  0  0  0  0  0
    5.4173  -44.5317   -2.9141 C   0  0  0  0  0  0  0  0  0  0  0  0
    5.5689  -43.5331   -1.9757 C   0  0  0  0  0  0  0  0  0  0  0  0
    3.4432  -42.6903   -2.5940 C   0  0  0  0  0  0  0  0  0  0  0  0
    3.2877  -43.6881   -3.5342 C   0  0  0  0  0  0  0  0  0  0  0  0
    4.2881  -44.6093   -3.6863 C   0  0  0  0  0  0  0  0  0  0  0  0
    2.0913  -43.7407   -4.3272 C   0  0  0  0  0  0  0  0  0  0  0  0
    1.0830  -43.7851   -4.9877 C   0  0  0  0  0  0  0  0  0  0  0  0
    4.5656  -42.6460   -1.8542 N   0  0  0  0  0  0  0  0  0  0  0  0
    7.6304  -45.2916   -2.6755 O   0  0  0  0  0  0  0  0  0  0  0  0
    6.2540  -46.7441   -3.7038 O   0  0  0  0  0  0  0  0  0  0  0  0
  1  2  2  0
  1  6  1  0
 14  1  1  0
  2  3  1  0
  3  4  2  0
  5  4  1  0
  6  5  2  0
  8  7  1  0
  7 16  2  0
  7 17  1  0
  8  9  2  0
 12  8  1  0
 15  9  1  0
 11 10  1  0
 10 15  2  0
 11 12  2  0
 13 11  1  0
 13 14  3  0
M  END
$$$$
