
     RDKit          3D

 17 18  0  0  0  0  0  0  0  0999 V2000
   -0.5043  -21.3403    2.2282 C   0  0  0  0  0  0  0  0  0  0  0  0
   -0.2129  -22.3467    3.1359 C   0  0  0  0  0  0  0  0  0  0  0  0
    0.4932  -23.4787    2.7922 C   0  0  0  0  0  0  0  0  0  0  0  0
    0.9196  -23.5942    1.4798 C   0  0  0  0  0  0  0  0  0  0  0  0
    0.6558  -22.6202    0.5359 C   0  0  0  0  0  0  0  0  0  0  0  0
   -0.0576  -21.5018    0.9323 C   0  0  0  0  0  0  0  0  0  0  0  0
   -5.8733  -16.2729    2.7009 C   0  0  0  0  0  0  0  0  0  0  0  0
   -4.5318  -16.5952    3.2140 C   0  0  0  0  0  0  0  0  0  0  0  0
   -3.9586  -15.7393    4.1030 C   0  0  0  0  0  0  0  0  0  0  0  0
   -2.0476  -17.1342    4.2031 C   0  0  0  0  0  0  0  0  0  0  0  0
   -2.6041  -18.0189    3.3038 C   0  0  0  0  0  0  0  0  0  0  0  0
   -3.8605  -17.7296    2.8148 C   0  0  0  0  0  0  0  0  0  0  0  0
   -1.8692  -19.1879    2.9159 C   0  0  0  0  0  0  0  0  0  0  0  0
   -1.2426  -20.1609    2.5954 C   0  0  0  0  0  0  0  0  0  0  0  0
   -2.7273  -16.0273    4.5792 N   0  0  0  0  0  0  0  0  0  0  0  0
   -6.4236  -16.9568    1.8252 O   0  0  0  0  0  0  0  0  0  0  0  0
   -6.5182  -15.1781    3.2205 O   0  0  0  0  0  0  0  0  0  0  0  0
  1  2  2  0
  1  6  1  0
 14  1  1  0
  2  3  1  0
  3  4  2  0
  5  4  1  0
  6  5  2  0
  8  7  1  0
  7 16  2  0
  7 17  1  0
  8  9  2  0
 12  8  1  0
 15  9  1  0
 11 10  1  0
 10 15  2  0
 11 12  2  0
 13 11  1  0
 13 14  3  0
M  END
$$$$
