
     RDKit          3D

 17 18  0  0  0  0  0  0  0  0999 V2000
   -6.1950  -31.2455  -13.1166 C   0  0  0  0  0  0  0  0  0  0  0  0
   -6.1520  -30.7037  -11.8413 C   0  0  0  0  0  0  0  0  0  0  0  0
   -5.0430  -30.7969  -11.0290 C   0  0  0  0  0  0  0  0  0  0  0  0
   -3.9371  -31.4640  -11.5284 C   0  0  0  0  0  0  0  0  0  0  0  0
   -3.9278  -32.0221  -12.7923 C   0  0  0  0  0  0  0  0  0  0  0  0
   -5.0676  -31.9008  -13.5690 C   0  0  0  0  0  0  0  0  0  0  0  0
  -11.4554  -32.8181  -18.0681 C   0  0  0  0  0  0  0  0  0  0  0  0
  -11.0180  -31.7674  -17.1344 C   0  0  0  0  0  0  0  0  0  0  0  0
  -11.7582  -30.6286  -17.0524 C   0  0  0  0  0  0  0  0  0  0  0  0
  -10.2620  -29.7818  -15.4239 C   0  0  0  0  0  0  0  0  0  0  0  0
   -9.4933  -30.9247  -15.4864 C   0  0  0  0  0  0  0  0  0  0  0  0
   -9.8912  -31.9174  -16.3568 C   0  0  0  0  0  0  0  0  0  0  0  0
   -8.3277  -31.0383  -14.6583 C   0  0  0  0  0  0  0  0  0  0  0  0
   -7.3575  -31.1438  -13.9587 C   0  0  0  0  0  0  0  0  0  0  0  0
  -11.3641  -29.6589  -16.1979 N   0  0  0  0  0  0  0  0  0  0  0  0
  -12.4800  -32.7004  -18.7564 O   0  0  0  0  0  0  0  0  0  0  0  0
  -10.6923  -33.9550  -18.1652 O   0  0  0  0  0  0  0  0  0  0  0  0
  1  2  2  0
  1  6  1  0
 14  1  1  0
  2  3  1  0
  3  4  2  0
  5  4  1  0
  6  5  2  0
  8  7  1  0
  7 16  2  0
  7 17  1  0
  8  9  2  0
 12  8  1  0
 15  9  1  0
 11 10  1  0
 10 15  2  0
 11 12  2  0
 13 11  1  0
 13 14  3  0
M  END
$$$$
