
     RDKit          3D

 17 18  0  0  0  0  0  0  0  0999 V2000
   -4.8061  -30.2532  -11.2478 C   0  0  0  0  0  0  0  0  0  0  0  0
   -4.6726  -29.0082  -11.8235 C   0  0  0  0  0  0  0  0  0  0  0  0
   -4.9788  -28.7533  -13.1437 C   0  0  0  0  0  0  0  0  0  0  0  0
   -5.4411  -29.7820  -13.9369 C   0  0  0  0  0  0  0  0  0  0  0  0
   -5.5760  -31.0394  -13.3556 C   0  0  0  0  0  0  0  0  0  0  0  0
   -5.2667  -31.2820  -12.0345 C   0  0  0  0  0  0  0  0  0  0  0  0
   -0.8337  -31.4536   -5.2004 C   0  0  0  0  0  0  0  0  0  0  0  0
   -2.2264  -31.2627   -5.6061 C   0  0  0  0  0  0  0  0  0  0  0  0
   -3.2190  -31.2948   -4.6499 C   0  0  0  0  0  0  0  0  0  0  0  0
   -4.8149  -30.9083   -6.3574 C   0  0  0  0  0  0  0  0  0  0  0  0
   -3.8242  -30.8756   -7.3173 C   0  0  0  0  0  0  0  0  0  0  0  0
   -2.5249  -31.0552   -6.9272 C   0  0  0  0  0  0  0  0  0  0  0  0
   -4.1716  -30.6559   -8.6935 C   0  0  0  0  0  0  0  0  0  0  0  0
   -4.4679  -30.4668   -9.8474 C   0  0  0  0  0  0  0  0  0  0  0  0
   -4.4836  -31.1145   -5.0702 N   0  0  0  0  0  0  0  0  0  0  0  0
   -0.5500  -31.7151   -4.0195 O   0  0  0  0  0  0  0  0  0  0  0  0
    0.2156  -31.3524   -6.1038 O   0  0  0  0  0  0  0  0  0  0  0  0
  1  2  2  0
  1  6  1  0
 14  1  1  0
  2  3  1  0
  3  4  2  0
  5  4  1  0
  6  5  2  0
  8  7  1  0
  7 16  2  0
  7 17  1  0
  8  9  2  0
 12  8  1  0
 15  9  1  0
 11 10  1  0
 10 15  2  0
 11 12  2  0
 13 11  1  0
 13 14  3  0
M  END
$$$$
