
     RDKit          3D

 17 18  0  0  0  0  0  0  0  0999 V2000
   -0.5434  -21.4001    2.3215 C   0  0  0  0  0  0  0  0  0  0  0  0
   -0.2538  -22.1944    3.4200 C   0  0  0  0  0  0  0  0  0  0  0  0
    0.7039  -23.1845    3.3920 C   0  0  0  0  0  0  0  0  0  0  0  0
    1.3931  -23.3761    2.2063 C   0  0  0  0  0  0  0  0  0  0  0  0
    1.1431  -22.6120    1.0826 C   0  0  0  0  0  0  0  0  0  0  0  0
    0.1706  -21.6298    1.1629 C   0  0  0  0  0  0  0  0  0  0  0  0
   -3.9021  -14.8280    1.8131 C   0  0  0  0  0  0  0  0  0  0  0  0
   -4.1390  -16.2264    2.2074 C   0  0  0  0  0  0  0  0  0  0  0  0
   -5.3726  -16.5657    2.6703 C   0  0  0  0  0  0  0  0  0  0  0  0
   -4.6434  -18.8006    2.9546 C   0  0  0  0  0  0  0  0  0  0  0  0
   -3.3845  -18.4851    2.4893 C   0  0  0  0  0  0  0  0  0  0  0  0
   -3.1484  -17.1788    2.1163 C   0  0  0  0  0  0  0  0  0  0  0  0
   -2.3831  -19.5090    2.4112 C   0  0  0  0  0  0  0  0  0  0  0  0
   -1.5455  -20.3678    2.3591 C   0  0  0  0  0  0  0  0  0  0  0  0
   -5.5990  -17.8471    3.0345 N   0  0  0  0  0  0  0  0  0  0  0  0
   -2.9707  -14.5064    1.0604 O   0  0  0  0  0  0  0  0  0  0  0  0
   -4.7491  -13.8657    2.3041 O   0  0  0  0  0  0  0  0  0  0  0  0
  1  2  2  0
  1  6  1  0
 14  1  1  0
  2  3  1  0
  3  4  2  0
  5  4  1  0
  6  5  2  0
  8  7  1  0
  7 16  2  0
  7 17  1  0
  8  9  2  0
 12  8  1  0
 15  9  1  0
 11 10  1  0
 10 15  2  0
 11 12  2  0
 13 11  1  0
 13 14  3  0
M  END
$$$$
