
     RDKit          3D

 17 18  0  0  0  0  0  0  0  0999 V2000
   -3.5264  -30.4653   -5.3693 C   0  0  0  0  0  0  0  0  0  0  0  0
   -4.2039  -30.3100   -6.5687 C   0  0  0  0  0  0  0  0  0  0  0  0
   -3.6828  -29.6081   -7.6336 C   0  0  0  0  0  0  0  0  0  0  0  0
   -2.4284  -29.0430   -7.4764 C   0  0  0  0  0  0  0  0  0  0  0  0
   -1.7111  -29.1680   -6.3021 C   0  0  0  0  0  0  0  0  0  0  0  0
   -2.2795  -29.8834   -5.2618 C   0  0  0  0  0  0  0  0  0  0  0  0
   -8.3206  -33.3442   -0.5397 C   0  0  0  0  0  0  0  0  0  0  0  0
   -6.8842  -33.2971   -0.8579 C   0  0  0  0  0  0  0  0  0  0  0  0
   -6.0234  -33.9819   -0.0569 C   0  0  0  0  0  0  0  0  0  0  0  0
   -4.2099  -33.2510   -1.3928 C   0  0  0  0  0  0  0  0  0  0  0  0
   -5.0589  -32.5481   -2.2211 C   0  0  0  0  0  0  0  0  0  0  0  0
   -6.4074  -32.5832   -1.9348 C   0  0  0  0  0  0  0  0  0  0  0  0
   -4.5187  -31.8182   -3.3313 C   0  0  0  0  0  0  0  0  0  0  0  0
   -4.0779  -31.2001   -4.2617 C   0  0  0  0  0  0  0  0  0  0  0  0
   -4.7031  -33.9443   -0.3417 N   0  0  0  0  0  0  0  0  0  0  0  0
   -9.1671  -32.7639   -1.2354 O   0  0  0  0  0  0  0  0  0  0  0  0
   -8.7148  -34.0576    0.5649 O   0  0  0  0  0  0  0  0  0  0  0  0
  1  2  2  0
  1  6  1  0
 14  1  1  0
  2  3  1  0
  3  4  2  0
  5  4  1  0
  6  5  2  0
  8  7  1  0
  7 16  2  0
  7 17  1  0
  8  9  2  0
 12  8  1  0
 15  9  1  0
 11 10  1  0
 10 15  2  0
 11 12  2  0
 13 11  1  0
 13 14  3  0
M  END
$$$$
