
     RDKit          3D

 17 18  0  0  0  0  0  0  0  0999 V2000
   -0.1891  -21.3952    2.0892 C   0  0  0  0  0  0  0  0  0  0  0  0
   -0.5911  -22.5320    2.7565 C   0  0  0  0  0  0  0  0  0  0  0  0
    0.0530  -23.7449    2.6314 C   0  0  0  0  0  0  0  0  0  0  0  0
    1.1517  -23.8400    1.8037 C   0  0  0  0  0  0  0  0  0  0  0  0
    1.5577  -22.6920    1.1297 C   0  0  0  0  0  0  0  0  0  0  0  0
    0.9057  -21.4849    1.2629 C   0  0  0  0  0  0  0  0  0  0  0  0
   -5.6070  -16.6269    3.4015 C   0  0  0  0  0  0  0  0  0  0  0  0
   -4.1949  -16.6411    3.0191 C   0  0  0  0  0  0  0  0  0  0  0  0
   -3.5424  -15.4466    2.7997 C   0  0  0  0  0  0  0  0  0  0  0  0
   -1.5709  -16.6647    2.3086 C   0  0  0  0  0  0  0  0  0  0  0  0
   -2.2205  -17.8622    2.5273 C   0  0  0  0  0  0  0  0  0  0  0  0
   -3.5412  -17.8378    2.8845 C   0  0  0  0  0  0  0  0  0  0  0  0
   -1.5057  -19.0990    2.3774 C   0  0  0  0  0  0  0  0  0  0  0  0
   -0.9066  -20.1390    2.2580 C   0  0  0  0  0  0  0  0  0  0  0  0
   -2.2453  -15.5096    2.4503 N   0  0  0  0  0  0  0  0  0  0  0  0
   -6.1249  -17.6180    3.9427 O   0  0  0  0  0  0  0  0  0  0  0  0
   -6.4176  -15.5219    3.1794 O   0  0  0  0  0  0  0  0  0  0  0  0
  1  2  2  0
  1  6  1  0
 14  1  1  0
  2  3  1  0
  3  4  2  0
  5  4  1  0
  6  5  2  0
  8  7  1  0
  7 16  2  0
  7 17  1  0
  8  9  2  0
 12  8  1  0
 15  9  1  0
 11 10  1  0
 10 15  2  0
 11 12  2  0
 13 11  1  0
 13 14  3  0
M  END
$$$$
