
     RDKit          3D

 17 18  0  0  0  0  0  0  0  0999 V2000
   -0.5641  -21.3640    2.4219 C   0  0  0  0  0  0  0  0  0  0  0  0
   -0.9565  -22.6801    2.3071 C   0  0  0  0  0  0  0  0  0  0  0  0
   -0.0873  -23.6979    1.9751 C   0  0  0  0  0  0  0  0  0  0  0  0
    1.2391  -23.4002    1.7444 C   0  0  0  0  0  0  0  0  0  0  0  0
    1.6356  -22.0711    1.8603 C   0  0  0  0  0  0  0  0  0  0  0  0
    0.7573  -21.0622    2.1928 C   0  0  0  0  0  0  0  0  0  0  0  0
   -4.9181  -15.4974    1.8423 C   0  0  0  0  0  0  0  0  0  0  0  0
   -4.5587  -16.5316    2.8129 C   0  0  0  0  0  0  0  0  0  0  0  0
   -5.1545  -16.5273    4.0562 C   0  0  0  0  0  0  0  0  0  0  0  0
   -3.8928  -18.4519    4.6182 C   0  0  0  0  0  0  0  0  0  0  0  0
   -3.2945  -18.4595    3.3750 C   0  0  0  0  0  0  0  0  0  0  0  0
   -3.6376  -17.4878    2.4746 C   0  0  0  0  0  0  0  0  0  0  0  0
   -2.3327  -19.4763    3.0525 C   0  0  0  0  0  0  0  0  0  0  0  0
   -1.5247  -20.3280    2.7755 C   0  0  0  0  0  0  0  0  0  0  0  0
   -4.7927  -17.4972    4.9147 N   0  0  0  0  0  0  0  0  0  0  0  0
   -4.3838  -15.4704    0.7211 O   0  0  0  0  0  0  0  0  0  0  0  0
   -5.8576  -14.5161    2.1278 O   0  0  0  0  0  0  0  0  0  0  0  0
  1  2  2  0
  1  6  1  0
 14  1  1  0
  2  3  1  0
  3  4  2  0
  5  4  1  0
  6  5  2  0
  8  7  1  0
  7 16  2  0
  7 17  1  0
  8  9  2  0
 12  8  1  0
 15  9  1  0
 11 10  1  0
 10 15  2  0
 11 12  2  0
 13 11  1  0
 13 14  3  0
M  END
$$$$
