
     RDKit          3D

 17 18  0  0  0  0  0  0  0  0999 V2000
   -2.8253  -21.0825    4.9863 C   0  0  0  0  0  0  0  0  0  0  0  0
   -3.0013  -21.1153    6.3609 C   0  0  0  0  0  0  0  0  0  0  0  0
   -3.1202  -22.2910    7.0692 C   0  0  0  0  0  0  0  0  0  0  0  0
   -3.0584  -23.4771    6.3573 C   0  0  0  0  0  0  0  0  0  0  0  0
   -2.8842  -23.5001    4.9868 C   0  0  0  0  0  0  0  0  0  0  0  0
   -2.7700  -22.2911    4.3219 C   0  0  0  0  0  0  0  0  0  0  0  0
   -4.6174  -15.0421    1.1292 C   0  0  0  0  0  0  0  0  0  0  0  0
   -3.4604  -15.7483    1.7034 C   0  0  0  0  0  0  0  0  0  0  0  0
   -2.2255  -15.1998    1.5428 C   0  0  0  0  0  0  0  0  0  0  0  0
   -1.2750  -17.0064    2.7430 C   0  0  0  0  0  0  0  0  0  0  0  0
   -2.5139  -17.5847    2.9208 C   0  0  0  0  0  0  0  0  0  0  0  0
   -3.6068  -16.9342    2.3882 C   0  0  0  0  0  0  0  0  0  0  0  0
   -2.6197  -18.8207    3.6408 C   0  0  0  0  0  0  0  0  0  0  0  0
   -2.7019  -19.8500    4.2539 C   0  0  0  0  0  0  0  0  0  0  0  0
   -1.1578  -15.8412    2.0667 N   0  0  0  0  0  0  0  0  0  0  0  0
   -5.7836  -15.3470    1.4196 O   0  0  0  0  0  0  0  0  0  0  0  0
   -4.3769  -14.0179    0.2474 O   0  0  0  0  0  0  0  0  0  0  0  0
  1  2  2  0
  1  6  1  0
 14  1  1  0
  2  3  1  0
  3  4  2  0
  5  4  1  0
  6  5  2  0
  8  7  1  0
  7 16  2  0
  7 17  1  0
  8  9  2  0
 12  8  1  0
 15  9  1  0
 11 10  1  0
 10 15  2  0
 11 12  2  0
 13 11  1  0
 13 14  3  0
M  END
$$$$
