
     RDKit          3D

 17 18  0  0  0  0  0  0  0  0999 V2000
   -3.8925  -19.3670    2.0967 C   0  0  0  0  0  0  0  0  0  0  0  0
   -5.0006  -20.1817    1.9236 C   0  0  0  0  0  0  0  0  0  0  0  0
   -5.6008  -20.3732    0.6983 C   0  0  0  0  0  0  0  0  0  0  0  0
   -5.0571  -19.7142   -0.3915 C   0  0  0  0  0  0  0  0  0  0  0  0
   -3.9537  -18.8909   -0.2735 C   0  0  0  0  0  0  0  0  0  0  0  0
   -3.3877  -18.7320    0.9800 C   0  0  0  0  0  0  0  0  0  0  0  0
   -2.5149  -19.9394    9.3248 C   0  0  0  0  0  0  0  0  0  0  0  0
   -2.0436  -19.2555    8.1095 C   0  0  0  0  0  0  0  0  0  0  0  0
   -0.9964  -18.3936    8.2196 C   0  0  0  0  0  0  0  0  0  0  0  0
   -1.1215  -17.9560    5.8957 C   0  0  0  0  0  0  0  0  0  0  0  0
   -2.1838  -18.8235    5.7548 C   0  0  0  0  0  0  0  0  0  0  0  0
   -2.6360  -19.4712    6.8851 C   0  0  0  0  0  0  0  0  0  0  0  0
   -2.7704  -19.0179    4.4604 C   0  0  0  0  0  0  0  0  0  0  0  0
   -3.2715  -19.1724    3.3802 C   0  0  0  0  0  0  0  0  0  0  0  0
   -0.5571  -17.7614    7.1091 N   0  0  0  0  0  0  0  0  0  0  0  0
   -3.4739  -20.7251    9.3065 O   0  0  0  0  0  0  0  0  0  0  0  0
   -1.8597  -19.6863   10.5042 O   0  0  0  0  0  0  0  0  0  0  0  0
  1  2  2  0
  1  6  1  0
 14  1  1  0
  2  3  1  0
  3  4  2  0
  5  4  1  0
  6  5  2  0
  8  7  1  0
  7 16  2  0
  7 17  1  0
  8  9  2  0
 12  8  1  0
 15  9  1  0
 11 10  1  0
 10 15  2  0
 11 12  2  0
 13 11  1  0
 13 14  3  0
M  END
$$$$
