
     RDKit          3D

 17 18  0  0  0  0  0  0  0  0999 V2000
   -7.3800  -35.4656    1.6829 C   0  0  0  0  0  0  0  0  0  0  0  0
   -6.9374  -34.6705    0.6479 C   0  0  0  0  0  0  0  0  0  0  0  0
   -5.6013  -34.4682    0.3733 C   0  0  0  0  0  0  0  0  0  0  0  0
   -4.6525  -35.0835    1.1622 C   0  0  0  0  0  0  0  0  0  0  0  0
   -5.0993  -35.8865    2.2075 C   0  0  0  0  0  0  0  0  0  0  0  0
   -6.4380  -36.0811    2.4723 C   0  0  0  0  0  0  0  0  0  0  0  0
  -13.8673  -38.6483    2.9609 C   0  0  0  0  0  0  0  0  0  0  0  0
  -13.2925  -37.3199    2.7472 C   0  0  0  0  0  0  0  0  0  0  0  0
  -14.1188  -36.2163    2.7598 C   0  0  0  0  0  0  0  0  0  0  0  0
  -12.2270  -34.8506    2.3503 C   0  0  0  0  0  0  0  0  0  0  0  0
  -11.3969  -35.9526    2.3370 C   0  0  0  0  0  0  0  0  0  0  0  0
  -11.9446  -37.1904    2.5379 C   0  0  0  0  0  0  0  0  0  0  0  0
   -9.9882  -35.7817    2.1147 C   0  0  0  0  0  0  0  0  0  0  0  0
   -8.8044  -35.6447    1.9285 C   0  0  0  0  0  0  0  0  0  0  0  0
  -13.5454  -35.0166    2.5589 N   0  0  0  0  0  0  0  0  0  0  0  0
  -13.1326  -39.6435    3.0755 O   0  0  0  0  0  0  0  0  0  0  0  0
  -15.2381  -38.8513    3.0438 O   0  0  0  0  0  0  0  0  0  0  0  0
  1  2  2  0
  1  6  1  0
 14  1  1  0
  2  3  1  0
  3  4  2  0
  5  4  1  0
  6  5  2  0
  8  7  1  0
  7 16  2  0
  7 17  1  0
  8  9  2  0
 12  8  1  0
 15  9  1  0
 11 10  1  0
 10 15  2  0
 11 12  2  0
 13 11  1  0
 13 14  3  0
M  END
$$$$
