
     RDKit          3D

 17 18  0  0  0  0  0  0  0  0999 V2000
   -7.9821  -16.8515  -14.8725 C   0  0  0  0  0  0  0  0  0  0  0  0
   -8.5753  -17.2585  -16.0574 C   0  0  0  0  0  0  0  0  0  0  0  0
   -9.6492  -18.1208  -16.0956 C   0  0  0  0  0  0  0  0  0  0  0  0
  -10.1396  -18.5874  -14.8875 C   0  0  0  0  0  0  0  0  0  0  0  0
   -9.5851  -18.2129  -13.6787 C   0  0  0  0  0  0  0  0  0  0  0  0
   -8.5071  -17.3442  -13.6949 C   0  0  0  0  0  0  0  0  0  0  0  0
   -2.4033  -12.5936  -17.1569 C   0  0  0  0  0  0  0  0  0  0  0  0
   -3.1143  -13.0103  -15.9371 C   0  0  0  0  0  0  0  0  0  0  0  0
   -2.7037  -12.4987  -14.7449 C   0  0  0  0  0  0  0  0  0  0  0  0
   -4.3891  -13.7416  -13.6393 C   0  0  0  0  0  0  0  0  0  0  0  0
   -4.8263  -14.2755  -14.8330 C   0  0  0  0  0  0  0  0  0  0  0  0
   -4.1695  -13.8940  -15.9839 C   0  0  0  0  0  0  0  0  0  0  0  0
   -5.9292  -15.1925  -14.8349 C   0  0  0  0  0  0  0  0  0  0  0  0
   -6.8604  -15.9505  -14.8414 C   0  0  0  0  0  0  0  0  0  0  0  0
   -3.3506  -12.8757  -13.6200 N   0  0  0  0  0  0  0  0  0  0  0  0
   -1.6267  -11.6271  -17.1670 O   0  0  0  0  0  0  0  0  0  0  0  0
   -2.6203  -13.3096  -18.3078 O   0  0  0  0  0  0  0  0  0  0  0  0
  1  2  2  0
  1  6  1  0
 14  1  1  0
  2  3  1  0
  3  4  2  0
  5  4  1  0
  6  5  2  0
  8  7  1  0
  7 16  2  0
  7 17  1  0
  8  9  2  0
 12  8  1  0
 15  9  1  0
 11 10  1  0
 10 15  2  0
 11 12  2  0
 13 11  1  0
 13 14  3  0
M  END
$$$$
