
     RDKit          3D

 17 18  0  0  0  0  0  0  0  0999 V2000
    3.0326  -39.0447   -4.6992 C   0  0  0  0  0  0  0  0  0  0  0  0
    3.1675  -39.9850   -3.6896 C   0  0  0  0  0  0  0  0  0  0  0  0
    3.8006  -41.1942   -3.8771 C   0  0  0  0  0  0  0  0  0  0  0  0
    4.3157  -41.4597   -5.1347 C   0  0  0  0  0  0  0  0  0  0  0  0
    4.2083  -40.5570   -6.1753 C   0  0  0  0  0  0  0  0  0  0  0  0
    3.5628  -39.3559   -5.9349 C   0  0  0  0  0  0  0  0  0  0  0  0
   -2.2664  -34.1194   -3.2396 C   0  0  0  0  0  0  0  0  0  0  0  0
   -0.8343  -34.2126   -3.5669 C   0  0  0  0  0  0  0  0  0  0  0  0
   -0.1168  -33.0599   -3.6561 C   0  0  0  0  0  0  0  0  0  0  0  0
    1.8238  -34.3159   -4.1698 C   0  0  0  0  0  0  0  0  0  0  0  0
    1.1216  -35.4995   -4.0860 C   0  0  0  0  0  0  0  0  0  0  0  0
   -0.2211  -35.4272   -3.7802 C   0  0  0  0  0  0  0  0  0  0  0  0
    1.8007  -36.7417   -4.3158 C   0  0  0  0  0  0  0  0  0  0  0  0
    2.3699  -37.7838   -4.4950 C   0  0  0  0  0  0  0  0  0  0  0  0
    1.1985  -33.1361   -3.9560 N   0  0  0  0  0  0  0  0  0  0  0  0
   -2.9140  -35.0981   -2.8393 O   0  0  0  0  0  0  0  0  0  0  0  0
   -2.8856  -32.9033   -3.3888 O   0  0  0  0  0  0  0  0  0  0  0  0
  1  2  2  0
  1  6  1  0
 14  1  1  0
  2  3  1  0
  3  4  2  0
  5  4  1  0
  6  5  2  0
  8  7  1  0
  7 16  2  0
  7 17  1  0
  8  9  2  0
 12  8  1  0
 15  9  1  0
 11 10  1  0
 10 15  2  0
 11 12  2  0
 13 11  1  0
 13 14  3  0
M  END
$$$$
