
     RDKit          3D

 17 18  0  0  0  0  0  0  0  0999 V2000
   -0.4836  -21.3058    2.2511 C   0  0  0  0  0  0  0  0  0  0  0  0
    0.5204  -21.6353    1.3538 C   0  0  0  0  0  0  0  0  0  0  0  0
    1.1976  -22.8343    1.4004 C   0  0  0  0  0  0  0  0  0  0  0  0
    0.8435  -23.7320    2.3935 C   0  0  0  0  0  0  0  0  0  0  0  0
   -0.1498  -23.4529    3.3125 C   0  0  0  0  0  0  0  0  0  0  0  0
   -0.8000  -22.2338    3.2225 C   0  0  0  0  0  0  0  0  0  0  0  0
   -5.6628  -16.1420    3.3096 C   0  0  0  0  0  0  0  0  0  0  0  0
   -4.3590  -16.3597    2.6617 C   0  0  0  0  0  0  0  0  0  0  0  0
   -3.7932  -15.3226    1.9866 C   0  0  0  0  0  0  0  0  0  0  0  0
   -1.9442  -16.6969    1.4390 C   0  0  0  0  0  0  0  0  0  0  0  0
   -2.4940  -17.7649    2.1160 C   0  0  0  0  0  0  0  0  0  0  0  0
   -3.7151  -17.5753    2.7277 C   0  0  0  0  0  0  0  0  0  0  0  0
   -1.7884  -19.0129    2.1590 C   0  0  0  0  0  0  0  0  0  0  0  0
   -1.1860  -20.0511    2.1955 C   0  0  0  0  0  0  0  0  0  0  0  0
   -2.5965  -15.5134    1.3889 N   0  0  0  0  0  0  0  0  0  0  0  0
   -6.2009  -15.0254    3.3444 O   0  0  0  0  0  0  0  0  0  0  0  0
   -6.2857  -17.2205    3.8869 O   0  0  0  0  0  0  0  0  0  0  0  0
  1  2  2  0
  1  6  1  0
 14  1  1  0
  2  3  1  0
  3  4  2  0
  5  4  1  0
  6  5  2  0
  8  7  1  0
  7 16  2  0
  7 17  1  0
  8  9  2  0
 12  8  1  0
 15  9  1  0
 11 10  1  0
 10 15  2  0
 11 12  2  0
 13 11  1  0
 13 14  3  0
M  END
$$$$
