
     RDKit          3D

 17 18  0  0  0  0  0  0  0  0999 V2000
   -2.6096  -17.1148    0.5673 C   0  0  0  0  0  0  0  0  0  0  0  0
   -1.6632  -18.1276    0.5788 C   0  0  0  0  0  0  0  0  0  0  0  0
   -0.7499  -18.3058   -0.4373 C   0  0  0  0  0  0  0  0  0  0  0  0
   -0.7982  -17.4244   -1.5042 C   0  0  0  0  0  0  0  0  0  0  0  0
   -1.7213  -16.3981   -1.5647 C   0  0  0  0  0  0  0  0  0  0  0  0
   -2.6173  -16.2621   -0.5180 C   0  0  0  0  0  0  0  0  0  0  0  0
   -6.9699  -18.4676    6.3798 C   0  0  0  0  0  0  0  0  0  0  0  0
   -6.6144  -17.4112    5.4183 C   0  0  0  0  0  0  0  0  0  0  0  0
   -7.2461  -16.2101    5.5172 C   0  0  0  0  0  0  0  0  0  0  0  0
   -6.0018  -15.4114    3.6676 C   0  0  0  0  0  0  0  0  0  0  0  0
   -5.3462  -16.6180    3.5439 C   0  0  0  0  0  0  0  0  0  0  0  0
   -5.6692  -17.6169    4.4380 C   0  0  0  0  0  0  0  0  0  0  0  0
   -4.3689  -16.7881    2.5081 C   0  0  0  0  0  0  0  0  0  0  0  0
   -3.5601  -16.9356    1.6328 C   0  0  0  0  0  0  0  0  0  0  0  0
   -6.9260  -15.2345    4.6388 N   0  0  0  0  0  0  0  0  0  0  0  0
   -6.2705  -19.4802    6.5317 O   0  0  0  0  0  0  0  0  0  0  0  0
   -8.1141  -18.3084    7.1213 O   0  0  0  0  0  0  0  0  0  0  0  0
  1  2  2  0
  1  6  1  0
 14  1  1  0
  2  3  1  0
  3  4  2  0
  5  4  1  0
  6  5  2  0
  8  7  1  0
  7 16  2  0
  7 17  1  0
  8  9  2  0
 12  8  1  0
 15  9  1  0
 11 10  1  0
 10 15  2  0
 11 12  2  0
 13 11  1  0
 13 14  3  0
M  END
$$$$
