
     RDKit          3D

 64 65  0  0  0  0  0  0  0  0999 V2000
   52.4192  -33.8973   -3.6858 N   0  0  0  0  0  0  0  0  0  0  0  0
   51.5566  -34.9907   -3.3297 C   0  0  2  0  0  0  0  0  0  0  0  0
   50.2213  -34.4664   -2.8639 C   0  0  0  0  0  0  0  0  0  0  0  0
   50.3276  -33.7367   -1.8095 O   0  0  0  0  0  0  0  0  0  0  0  0
   52.0217  -35.7821   -2.1332 C   0  0  0  0  0  0  0  0  0  0  0  0
   52.7683  -35.0803   -1.0846 C   0  0  0  0  0  0  0  0  0  0  0  0
   52.9578  -33.6006   -1.2736 C   0  0  0  0  0  0  0  0  0  0  0  0
   53.4814  -33.0071   -0.0566 N   0  0  0  0  0  0  0  0  0  0  0  0
   53.7611  -31.6254    0.1016 C   0  0  0  0  0  0  0  0  0  0  0  0
   54.7662  -31.1233   -0.5243 N   0  0  0  0  0  0  0  0  0  0  0  0
   52.9874  -30.7612    0.9150 N   0  0  0  0  0  0  0  0  0  0  0  0
   48.9734  -34.6852   -3.4289 N   0  0  0  0  0  0  0  0  0  0  0  0
   48.5144  -34.5034   -4.7837 C   0  0  2  0  0  0  0  0  0  0  0  0
   47.9545  -35.7376   -5.3948 C   0  0  0  0  0  0  0  0  0  0  0  0
   47.5822  -36.6035   -4.5157 O   0  0  0  0  0  0  0  0  0  0  0  0
   49.3490  -33.6588   -5.6611 C   0  0  0  0  0  0  0  0  0  0  0  0
   50.4546  -33.0204   -4.8306 C   0  0  0  0  0  0  0  0  0  0  0  0
   50.0629  -32.9694   -3.3824 C   0  0  0  0  0  0  0  0  0  0  0  0
   51.2284  -32.6714   -2.5907 N   0  0  0  0  0  0  0  0  0  0  0  0
   51.0928  -32.2643   -1.2354 C   0  0  0  0  0  0  0  0  0  0  0  0
   50.6631  -33.2508   -0.3007 N   0  0  0  0  0  0  0  0  0  0  0  0
   51.3421  -31.0622   -0.8451 N   0  0  0  0  0  0  0  0  0  0  0  0
   47.7869  -36.0631   -6.7329 N   0  0  0  0  0  0  0  0  0  0  0  0
   48.6953  -36.2357   -7.8058 C   0  0  2  0  0  0  0  0  0  0  0  0
   48.2650  -37.3454   -8.7297 C   0  0  0  0  0  0  0  0  0  0  0  0
   47.9070  -38.4624   -8.2579 O   0  0  0  0  0  0  0  0  0  0  0  0
   50.0977  -36.6062   -7.4074 C   0  0  0  0  0  0  0  0  0  0  0  0
   50.3085  -38.1025   -7.3631 C   0  0  0  0  0  0  0  0  0  0  0  0
   51.4393  -38.3742   -6.3957 C   0  0  0  0  0  0  0  0  0  0  0  0
   52.7096  -38.6287   -7.1811 C   0  0  0  0  0  0  0  0  0  0  0  0
   52.8382  -37.6575   -8.2424 N   0  0  0  0  0  0  0  0  0  0  0  0
   48.2670  -37.1159  -10.1038 N   0  0  0  0  0  0  0  0  0  0  0  0
   47.0309  -36.4685  -10.7782 C   0  0  2  0  0  0  0  0  0  0  0  0
   46.0447  -37.5087  -10.7192 C   0  0  0  0  0  0  0  0  0  0  0  0
   46.5987  -38.7258  -10.7346 O   0  0  0  0  0  0  0  0  0  0  0  0
   47.5621  -35.8058  -11.9433 C   0  0  0  0  0  0  0  0  0  0  0  0
   47.0237  -34.5851  -12.5365 C   0  0  0  0  0  0  0  0  0  0  0  0
   45.7347  -34.4522  -13.2078 C   0  0  0  0  0  0  0  0  0  0  0  0
   46.0066  -34.5421  -14.6657 N   0  0  0  0  0  0  0  0  0  0  0  0
   46.5941  -33.4238  -15.2946 C   0  0  0  0  0  0  0  0  0  0  0  0
   46.5497  -32.2842  -14.6684 N   0  0  0  0  0  0  0  0  0  0  0  0
   47.2246  -33.4828  -16.5591 N   0  0  0  0  0  0  0  0  0  0  0  0
   44.6613  -37.5922  -10.6564 N   0  0  0  0  0  0  0  0  0  0  0  0
   43.8344  -37.0570   -9.5519 C   0  0  0  0  0  0  0  0  0  0  0  0
   43.6855  -38.0450   -8.4609 C   0  0  0  0  0  0  0  0  0  0  0  0
   44.3908  -39.2561   -8.5468 C   0  0  0  0  0  0  0  0  0  0  0  0
   44.2877  -40.2022   -7.5538 C   0  0  0  0  0  0  0  0  0  0  0  0
   43.4908  -40.0019   -6.4348 C   0  0  0  0  0  0  0  0  0  0  0  0
   43.3885  -41.0114   -5.3904 C   0  0  0  0  0  0  0  0  0  0  0  0
   42.3855  -40.8805   -4.3678 N   0  0  0  0  0  0  0  0  0  0  0  0
   44.1712  -42.0370   -5.3409 N   0  0  0  0  0  0  0  0  0  0  0  0
   42.8024  -38.8155   -6.3533 C   0  0  0  0  0  0  0  0  0  0  0  0
   42.8994  -37.8398   -7.3624 C   0  0  0  0  0  0  0  0  0  0  0  0
   53.6467  -36.4905   -8.1835 C   0  0  0  0  0  0  0  0  0  0  0  0
   54.4255  -36.0873   -6.9954 C   0  0  0  0  0  0  0  0  0  0  0  0
   53.6719  -34.9845   -6.2666 C   0  0  0  0  0  0  0  0  0  0  0  0
   54.4968  -34.5384   -5.1160 C   0  0  0  0  0  0  0  0  0  0  0  0
   53.7639  -33.8647   -4.0160 C   0  0  0  0  0  0  0  0  0  0  0  0
   53.7060  -35.7540   -9.2040 O   0  0  0  0  0  0  0  0  0  0  0  0
   54.5405  -33.1433   -3.2741 O   0  0  0  0  0  0  0  0  0  0  0  0
   55.3433  -31.6960   -1.1990 H   0  0  0  0  0  0  0  0  0  0  0  0
   50.7535  -30.6569   -0.0893 H   0  0  0  0  0  0  0  0  0  0  0  0
   46.2189  -32.1884  -13.6864 H   0  0  0  0  0  0  0  0  0  0  0  0
   44.0369  -42.7885   -4.6352 H   0  0  0  0  0  0  0  0  0  0  0  0
  1  2  1  0
  1 58  1  0
  2  3  1  0
  2  5  1  1
  3  4  2  0
  3 12  1  0
  5  6  1  0
  6  7  1  0
  7  8  1  0
  8  9  1  0
  9 10  2  0
  9 11  1  0
 12 13  1  0
 13 14  1  0
 13 16  1  6
 14 15  2  0
 14 23  1  0
 16 17  1  0
 17 18  1  0
 18 19  1  0
 19 20  1  0
 20 21  1  0
 20 22  2  0
 23 24  1  0
 24 25  1  6
 24 27  1  0
 25 26  2  0
 25 32  1  0
 27 28  1  0
 28 29  1  0
 29 30  1  0
 30 31  1  0
 31 54  1  0
 32 33  1  0
 33 34  1  0
 33 36  1  6
 34 35  2  0
 34 43  1  0
 36 37  1  0
 37 38  1  0
 38 39  1  0
 39 40  1  0
 40 41  2  0
 40 42  1  0
 43 44  1  0
 44 45  1  0
 45 46  2  0
 45 53  1  0
 46 47  1  0
 47 48  2  0
 48 49  1  0
 48 52  1  0
 49 50  1  0
 49 51  2  0
 52 53  2  0
 54 55  1  0
 54 59  2  0
 55 56  1  0
 56 57  1  0
 57 58  1  0
 58 60  2  0
 10 61  1  0
 22 62  1  0
 41 63  1  0
 51 64  1  0
M  END
$$$$
