
     RDKit          3D

 64 65  0  0  0  0  0  0  0  0999 V2000
   53.4636  -34.1317   -3.5093 N   0  0  0  0  0  0  0  0  0  0  0  0
   52.8230  -35.3289   -3.9815 C   0  0  2  0  0  0  0  0  0  0  0  0
   51.4268  -35.4255   -3.4192 C   0  0  0  0  0  0  0  0  0  0  0  0
   51.4254  -35.5020   -2.1347 O   0  0  0  0  0  0  0  0  0  0  0  0
   53.4539  -36.6057   -3.4858 C   0  0  0  0  0  0  0  0  0  0  0  0
   54.5065  -36.5105   -2.4696 C   0  0  0  0  0  0  0  0  0  0  0  0
   54.2982  -35.4922   -1.3830 C   0  0  0  0  0  0  0  0  0  0  0  0
   54.7182  -34.1810   -1.8433 N   0  0  0  0  0  0  0  0  0  0  0  0
   54.4681  -32.9718   -1.1450 C   0  0  0  0  0  0  0  0  0  0  0  0
   53.2578  -32.6882   -0.8153 N   0  0  0  0  0  0  0  0  0  0  0  0
   55.4856  -32.0537   -0.7861 N   0  0  0  0  0  0  0  0  0  0  0  0
   50.2255  -35.4401   -4.1128 N   0  0  0  0  0  0  0  0  0  0  0  0
   49.7072  -34.5325   -5.1062 C   0  0  2  0  0  0  0  0  0  0  0  0
   49.3655  -35.1902   -6.3950 C   0  0  0  0  0  0  0  0  0  0  0  0
   49.1788  -36.4596   -6.2718 O   0  0  0  0  0  0  0  0  0  0  0  0
   50.3523  -33.2077   -5.1980 C   0  0  0  0  0  0  0  0  0  0  0  0
   50.0210  -32.4061   -3.9459 C   0  0  0  0  0  0  0  0  0  0  0  0
   48.8645  -33.0243   -3.2155 C   0  0  0  0  0  0  0  0  0  0  0  0
   49.3688  -33.8310   -2.1343 N   0  0  0  0  0  0  0  0  0  0  0  0
   50.3019  -33.2905   -1.2080 C   0  0  0  0  0  0  0  0  0  0  0  0
   50.9692  -34.2097   -0.3469 N   0  0  0  0  0  0  0  0  0  0  0  0
   50.5508  -32.0288   -1.1319 N   0  0  0  0  0  0  0  0  0  0  0  0
   49.2262  -34.6368   -7.6595 N   0  0  0  0  0  0  0  0  0  0  0  0
   50.1236  -33.9608   -8.5219 C   0  0  2  0  0  0  0  0  0  0  0  0
   49.8788  -34.3084   -9.9674 C   0  0  0  0  0  0  0  0  0  0  0  0
   50.8259  -34.2550  -10.8032 O   0  0  0  0  0  0  0  0  0  0  0  0
   51.5795  -34.2714   -8.3061 C   0  0  0  0  0  0  0  0  0  0  0  0
   52.0594  -35.4154   -9.1699 C   0  0  0  0  0  0  0  0  0  0  0  0
   53.2447  -36.0458   -8.4727 C   0  0  0  0  0  0  0  0  0  0  0  0
   54.5200  -35.5538   -9.1262 C   0  0  0  0  0  0  0  0  0  0  0  0
   54.4435  -34.1290   -9.3503 N   0  0  0  0  0  0  0  0  0  0  0  0
   48.5977  -34.6895  -10.3601 N   0  0  0  0  0  0  0  0  0  0  0  0
   48.1358  -36.1555  -10.1622 C   0  0  2  0  0  0  0  0  0  0  0  0
   46.7110  -36.0714  -10.3079 C   0  0  0  0  0  0  0  0  0  0  0  0
   46.2373  -34.8819   -9.9220 O   0  0  0  0  0  0  0  0  0  0  0  0
   48.8918  -36.6210   -9.0261 C   0  0  0  0  0  0  0  0  0  0  0  0
   49.1747  -38.0201   -8.7191 C   0  0  0  0  0  0  0  0  0  0  0  0
   48.6024  -38.7914   -7.6204 C   0  0  0  0  0  0  0  0  0  0  0  0
   49.4226  -40.0242   -7.4976 N   0  0  0  0  0  0  0  0  0  0  0  0
   50.3319  -40.3145   -8.5370 C   0  0  0  0  0  0  0  0  0  0  0  0
   49.8610  -40.8670   -9.6167 N   0  0  0  0  0  0  0  0  0  0  0  0
   51.7159  -40.0338   -8.4626 N   0  0  0  0  0  0  0  0  0  0  0  0
   45.6850  -36.8999  -10.7387 N   0  0  0  0  0  0  0  0  0  0  0  0
   44.3031  -36.4521  -11.0215 C   0  0  0  0  0  0  0  0  0  0  0  0
   43.3293  -37.5484  -10.8251 C   0  0  0  0  0  0  0  0  0  0  0  0
   42.8125  -37.7690   -9.5384 C   0  0  0  0  0  0  0  0  0  0  0  0
   41.9008  -38.7730   -9.3091 C   0  0  0  0  0  0  0  0  0  0  0  0
   41.4558  -39.6020  -10.3299 C   0  0  0  0  0  0  0  0  0  0  0  0
   40.4911  -40.6624  -10.0749 C   0  0  0  0  0  0  0  0  0  0  0  0
   40.1290  -41.5669  -11.1331 N   0  0  0  0  0  0  0  0  0  0  0  0
   39.9370  -40.8304   -8.9208 N   0  0  0  0  0  0  0  0  0  0  0  0
   41.9630  -39.3832  -11.5881 C   0  0  0  0  0  0  0  0  0  0  0  0
   42.8962  -38.3597  -11.8355 C   0  0  0  0  0  0  0  0  0  0  0  0
   55.0279  -33.1413   -8.5126 C   0  0  0  0  0  0  0  0  0  0  0  0
   55.7502  -33.4454   -7.2610 C   0  0  0  0  0  0  0  0  0  0  0  0
   54.8275  -33.1689   -6.0831 C   0  0  0  0  0  0  0  0  0  0  0  0
   55.5864  -33.4096   -4.8303 C   0  0  0  0  0  0  0  0  0  0  0  0
   54.7712  -33.6898   -3.6228 C   0  0  0  0  0  0  0  0  0  0  0  0
   54.9268  -31.9330   -8.8552 O   0  0  0  0  0  0  0  0  0  0  0  0
   55.4224  -33.4731   -2.5260 O   0  0  0  0  0  0  0  0  0  0  0  0
   52.9371  -32.7067    0.1913 H   0  0  0  0  0  0  0  0  0  0  0  0
   51.1689  -31.6933   -0.3655 H   0  0  0  0  0  0  0  0  0  0  0  0
   48.9860  -41.4300   -9.6312 H   0  0  0  0  0  0  0  0  0  0  0  0
   39.2600  -41.6008   -8.7509 H   0  0  0  0  0  0  0  0  0  0  0  0
  1  2  1  0
  1 58  1  0
  2  3  1  0
  2  5  1  1
  3  4  2  0
  3 12  1  0
  5  6  1  0
  6  7  1  0
  7  8  1  0
  8  9  1  0
  9 10  2  0
  9 11  1  0
 12 13  1  0
 13 14  1  0
 13 16  1  6
 14 15  2  0
 14 23  1  0
 16 17  1  0
 17 18  1  0
 18 19  1  0
 19 20  1  0
 20 21  1  0
 20 22  2  0
 23 24  1  0
 24 25  1  6
 24 27  1  0
 25 26  2  0
 25 32  1  0
 27 28  1  0
 28 29  1  0
 29 30  1  0
 30 31  1  0
 31 54  1  0
 32 33  1  0
 33 34  1  0
 33 36  1  1
 34 35  2  0
 34 43  1  0
 36 37  1  0
 37 38  1  0
 38 39  1  0
 39 40  1  0
 40 41  2  0
 40 42  1  0
 43 44  1  0
 44 45  1  0
 45 46  2  0
 45 53  1  0
 46 47  1  0
 47 48  2  0
 48 49  1  0
 48 52  1  0
 49 50  1  0
 49 51  2  0
 52 53  2  0
 54 55  1  0
 54 59  2  0
 55 56  1  0
 56 57  1  0
 57 58  1  0
 58 60  2  0
 10 61  1  0
 22 62  1  0
 41 63  1  0
 51 64  1  0
M  END
$$$$
