
     RDKit          3D

 64 65  0  0  0  0  0  0  0  0999 V2000
   53.1450  -33.3491   -4.1749 N   0  0  0  0  0  0  0  0  0  0  0  0
   52.8171  -34.6623   -3.6908 C   0  0  2  0  0  0  0  0  0  0  0  0
   51.5859  -34.6013   -2.8217 C   0  0  0  0  0  0  0  0  0  0  0  0
   51.7642  -33.8698   -1.7783 O   0  0  0  0  0  0  0  0  0  0  0  0
   53.8401  -35.2493   -2.7511 C   0  0  0  0  0  0  0  0  0  0  0  0
   54.3628  -34.4001   -1.6762 C   0  0  0  0  0  0  0  0  0  0  0  0
   53.3447  -33.6729   -0.8422 C   0  0  0  0  0  0  0  0  0  0  0  0
   53.7752  -32.3057   -0.6127 N   0  0  0  0  0  0  0  0  0  0  0  0
   52.9755  -31.3099    0.0049 C   0  0  0  0  0  0  0  0  0  0  0  0
   52.4922  -30.3666   -0.7237 N   0  0  0  0  0  0  0  0  0  0  0  0
   52.6757  -31.2982    1.3894 N   0  0  0  0  0  0  0  0  0  0  0  0
   50.3621  -35.2210   -3.0292 N   0  0  0  0  0  0  0  0  0  0  0  0
   49.4896  -35.2090   -4.1772 C   0  0  2  0  0  0  0  0  0  0  0  0
   49.1925  -36.5627   -4.7151 C   0  0  0  0  0  0  0  0  0  0  0  0
   49.3900  -37.4967   -3.8491 O   0  0  0  0  0  0  0  0  0  0  0  0
   49.7163  -34.1436   -5.1738 C   0  0  0  0  0  0  0  0  0  0  0  0
   49.4332  -32.7927   -4.5299 C   0  0  0  0  0  0  0  0  0  0  0  0
   49.2900  -32.9378   -3.0427 C   0  0  0  0  0  0  0  0  0  0  0  0
   49.1707  -34.3353   -2.7164 N   0  0  0  0  0  0  0  0  0  0  0  0
   49.1298  -34.7563   -1.3591 C   0  0  0  0  0  0  0  0  0  0  0  0
   48.0027  -35.5279   -0.9520 N   0  0  0  0  0  0  0  0  0  0  0  0
   50.0592  -34.4661   -0.5157 N   0  0  0  0  0  0  0  0  0  0  0  0
   48.7475  -36.9344   -5.9754 N   0  0  0  0  0  0  0  0  0  0  0  0
   49.3032  -36.8072   -7.2720 C   0  0  2  0  0  0  0  0  0  0  0  0
   48.9910  -38.0031   -8.1339 C   0  0  0  0  0  0  0  0  0  0  0  0
   48.8459  -39.1442   -7.6092 O   0  0  0  0  0  0  0  0  0  0  0  0
   50.8024  -36.6949   -7.3207 C   0  0  0  0  0  0  0  0  0  0  0  0
   51.4769  -38.0391   -7.4737 C   0  0  0  0  0  0  0  0  0  0  0  0
   52.8687  -37.9185   -6.8934 C   0  0  0  0  0  0  0  0  0  0  0  0
   53.8616  -37.7481   -8.0250 C   0  0  0  0  0  0  0  0  0  0  0  0
   53.3573  -36.7958   -8.9866 N   0  0  0  0  0  0  0  0  0  0  0  0
   48.8637  -37.8260   -9.5098 N   0  0  0  0  0  0  0  0  0  0  0  0
   47.8922  -36.7519  -10.0613 C   0  0  2  0  0  0  0  0  0  0  0  0
   46.6757  -37.4851  -10.2635 C   0  0  0  0  0  0  0  0  0  0  0  0
   46.8824  -38.8062  -10.2714 O   0  0  0  0  0  0  0  0  0  0  0  0
   48.6711  -36.0275  -11.0347 C   0  0  0  0  0  0  0  0  0  0  0  0
   48.1329  -35.3631  -12.2182 C   0  0  0  0  0  0  0  0  0  0  0  0
   47.6046  -34.0039  -12.2750 C   0  0  0  0  0  0  0  0  0  0  0  0
   47.8501  -33.5127  -13.6556 N   0  0  0  0  0  0  0  0  0  0  0  0
   48.6713  -34.2954  -14.4949 C   0  0  0  0  0  0  0  0  0  0  0  0
   48.5973  -34.0894  -15.7774 N   0  0  0  0  0  0  0  0  0  0  0  0
   49.5636  -35.2810  -14.0129 N   0  0  0  0  0  0  0  0  0  0  0  0
   45.3345  -37.1898  -10.4604 N   0  0  0  0  0  0  0  0  0  0  0  0
   44.4845  -36.4516   -9.4998 C   0  0  0  0  0  0  0  0  0  0  0  0
   43.9712  -37.3432   -8.4367 C   0  0  0  0  0  0  0  0  0  0  0  0
   42.5970  -37.3280   -8.1487 C   0  0  0  0  0  0  0  0  0  0  0  0
   42.0738  -38.1435   -7.1726 C   0  0  0  0  0  0  0  0  0  0  0  0
   42.8735  -39.0089   -6.4385 C   0  0  0  0  0  0  0  0  0  0  0  0
   42.3083  -39.8668   -5.4066 C   0  0  0  0  0  0  0  0  0  0  0  0
   40.9922  -39.5940   -4.8941 N   0  0  0  0  0  0  0  0  0  0  0  0
   42.9466  -40.8796   -4.9231 N   0  0  0  0  0  0  0  0  0  0  0  0
   44.2176  -39.0219   -6.7230 C   0  0  0  0  0  0  0  0  0  0  0  0
   44.7652  -38.1925   -7.7190 C   0  0  0  0  0  0  0  0  0  0  0  0
   53.7362  -35.4278   -9.0524 C   0  0  0  0  0  0  0  0  0  0  0  0
   54.6634  -34.7834   -8.1007 C   0  0  0  0  0  0  0  0  0  0  0  0
   53.8524  -33.9835   -7.0919 C   0  0  0  0  0  0  0  0  0  0  0  0
   54.7966  -33.2837   -6.1851 C   0  0  0  0  0  0  0  0  0  0  0  0
   54.2494  -32.8798   -4.8665 C   0  0  0  0  0  0  0  0  0  0  0  0
   53.2553  -34.7197   -9.9769 O   0  0  0  0  0  0  0  0  0  0  0  0
   54.9422  -31.9387   -4.3115 O   0  0  0  0  0  0  0  0  0  0  0  0
   51.5404  -29.9494   -0.5333 H   0  0  0  0  0  0  0  0  0  0  0  0
   49.7820  -34.0934    0.4151 H   0  0  0  0  0  0  0  0  0  0  0  0
   47.9726  -33.3741  -16.2026 H   0  0  0  0  0  0  0  0  0  0  0  0
   43.7993  -40.7562   -4.3413 H   0  0  0  0  0  0  0  0  0  0  0  0
  1  2  1  0
  1 58  1  0
  2  3  1  0
  2  5  1  1
  3  4  2  0
  3 12  1  0
  5  6  1  0
  6  7  1  0
  7  8  1  0
  8  9  1  0
  9 10  2  0
  9 11  1  0
 12 13  1  0
 13 14  1  0
 13 16  1  6
 14 15  2  0
 14 23  1  0
 16 17  1  0
 17 18  1  0
 18 19  1  0
 19 20  1  0
 20 21  1  0
 20 22  2  0
 23 24  1  0
 24 25  1  6
 24 27  1  0
 25 26  2  0
 25 32  1  0
 27 28  1  0
 28 29  1  0
 29 30  1  0
 30 31  1  0
 31 54  1  0
 32 33  1  0
 33 34  1  0
 33 36  1  6
 34 35  2  0
 34 43  1  0
 36 37  1  0
 37 38  1  0
 38 39  1  0
 39 40  1  0
 40 41  2  0
 40 42  1  0
 43 44  1  0
 44 45  1  0
 45 46  2  0
 45 53  1  0
 46 47  1  0
 47 48  2  0
 48 49  1  0
 48 52  1  0
 49 50  1  0
 49 51  2  0
 52 53  2  0
 54 55  1  0
 54 59  2  0
 55 56  1  0
 56 57  1  0
 57 58  1  0
 58 60  2  0
 10 61  1  0
 22 62  1  0
 41 63  1  0
 51 64  1  0
M  END
$$$$
