
     RDKit          3D

 64 65  0  0  0  0  0  0  0  0999 V2000
   48.2094  -37.3932  -10.2292 N   0  0  0  0  0  0  0  0  0  0  0  0
   47.9948  -36.1441   -9.5508 C   0  0  2  0  0  0  0  0  0  0  0  0
   47.1887  -36.3681   -8.2959 C   0  0  0  0  0  0  0  0  0  0  0  0
   46.0199  -36.8432   -8.5484 O   0  0  0  0  0  0  0  0  0  0  0  0
   47.1341  -35.1665  -10.3108 C   0  0  0  0  0  0  0  0  0  0  0  0
   46.5226  -35.6111  -11.5670 C   0  0  0  0  0  0  0  0  0  0  0  0
   46.8823  -36.9944  -12.0341 C   0  0  0  0  0  0  0  0  0  0  0  0
   46.9978  -37.0161  -13.4810 N   0  0  0  0  0  0  0  0  0  0  0  0
   45.9690  -37.4469  -14.3577 C   0  0  0  0  0  0  0  0  0  0  0  0
   45.6676  -36.7079  -15.3662 N   0  0  0  0  0  0  0  0  0  0  0  0
   45.2517  -38.6560  -14.1837 N   0  0  0  0  0  0  0  0  0  0  0  0
   47.5657  -36.1239   -6.9834 N   0  0  0  0  0  0  0  0  0  0  0  0
   48.7311  -36.5508   -6.2494 C   0  0  2  0  0  0  0  0  0  0  0  0
   49.5255  -35.4279   -5.6853 C   0  0  0  0  0  0  0  0  0  0  0  0
   48.8407  -34.3420   -5.5708 O   0  0  0  0  0  0  0  0  0  0  0  0
   49.4996  -37.6762   -6.8174 C   0  0  0  0  0  0  0  0  0  0  0  0
   48.6781  -38.3326   -7.9192 C   0  0  0  0  0  0  0  0  0  0  0  0
   47.2248  -37.9884   -7.7689 C   0  0  0  0  0  0  0  0  0  0  0  0
   46.6891  -37.6381   -9.0589 N   0  0  0  0  0  0  0  0  0  0  0  0
   45.2848  -37.5228   -9.2476 C   0  0  0  0  0  0  0  0  0  0  0  0
   44.5904  -38.6877   -9.6862 N   0  0  0  0  0  0  0  0  0  0  0  0
   44.6456  -36.4243   -9.0371 N   0  0  0  0  0  0  0  0  0  0  0  0
   50.8526  -35.3998   -5.2821 N   0  0  0  0  0  0  0  0  0  0  0  0
   52.0750  -35.5988   -5.9693 C   0  0  2  0  0  0  0  0  0  0  0  0
   53.1587  -34.6849   -5.4587 C   0  0  0  0  0  0  0  0  0  0  0  0
   54.2135  -34.5105   -6.1336 O   0  0  0  0  0  0  0  0  0  0  0  0
   52.0312  -35.3332   -7.4492 C   0  0  0  0  0  0  0  0  0  0  0  0
   52.4004  -33.9076   -7.7905 C   0  0  0  0  0  0  0  0  0  0  0  0
   51.7428  -33.5709   -9.1106 C   0  0  0  0  0  0  0  0  0  0  0  0
   52.7746  -33.6721  -10.2154 C   0  0  0  0  0  0  0  0  0  0  0  0
   53.5643  -34.8696  -10.0468 N   0  0  0  0  0  0  0  0  0  0  0  0
   52.9743  -34.0388   -4.2383 N   0  0  0  0  0  0  0  0  0  0  0  0
   51.7437  -34.3847   -3.3621 C   0  0  2  0  0  0  0  0  0  0  0  0
   50.9115  -33.2237   -3.4951 C   0  0  0  0  0  0  0  0  0  0  0  0
   51.5022  -32.2636   -4.2147 O   0  0  0  0  0  0  0  0  0  0  0  0
   52.3049  -34.9488   -2.1597 C   0  0  0  0  0  0  0  0  0  0  0  0
   51.7373  -36.0650   -1.4088 C   0  0  0  0  0  0  0  0  0  0  0  0
   51.2320  -37.3121   -1.9737 C   0  0  0  0  0  0  0  0  0  0  0  0
   50.9765  -38.2220   -0.8272 N   0  0  0  0  0  0  0  0  0  0  0  0
   50.5326  -39.5306   -1.1133 C   0  0  0  0  0  0  0  0  0  0  0  0
   49.2620  -39.7047   -1.3323 N   0  0  0  0  0  0  0  0  0  0  0  0
   51.3949  -40.6498   -1.1753 N   0  0  0  0  0  0  0  0  0  0  0  0
   49.6529  -32.8240   -3.0700 N   0  0  0  0  0  0  0  0  0  0  0  0
   49.0595  -31.4931   -3.3288 C   0  0  0  0  0  0  0  0  0  0  0  0
   48.3635  -31.4566   -4.6337 C   0  0  0  0  0  0  0  0  0  0  0  0
   49.1324  -31.3931   -5.8069 C   0  0  0  0  0  0  0  0  0  0  0  0
   48.5293  -31.3628   -7.0425 C   0  0  0  0  0  0  0  0  0  0  0  0
   47.1483  -31.3947   -7.1817 C   0  0  0  0  0  0  0  0  0  0  0  0
   46.5210  -31.3608   -8.4952 C   0  0  0  0  0  0  0  0  0  0  0  0
   45.0947  -31.5085   -8.6085 N   0  0  0  0  0  0  0  0  0  0  0  0
   47.1997  -31.2008   -9.5819 N   0  0  0  0  0  0  0  0  0  0  0  0
   46.3986  -31.4575   -6.0319 C   0  0  0  0  0  0  0  0  0  0  0  0
   47.0036  -31.4889   -4.7619 C   0  0  0  0  0  0  0  0  0  0  0  0
   53.3557  -36.0872  -10.7490 C   0  0  0  0  0  0  0  0  0  0  0  0
   52.2578  -36.3047  -11.7123 C   0  0  0  0  0  0  0  0  0  0  0  0
   51.1569  -37.1020  -11.0288 C   0  0  0  0  0  0  0  0  0  0  0  0
   50.0920  -37.3755  -12.0260 C   0  0  0  0  0  0  0  0  0  0  0  0
   48.7485  -37.6764  -11.4731 C   0  0  0  0  0  0  0  0  0  0  0  0
   54.1535  -37.0399  -10.5406 O   0  0  0  0  0  0  0  0  0  0  0  0
   47.9955  -38.3030  -12.3183 O   0  0  0  0  0  0  0  0  0  0  0  0
   45.7898  -37.0465  -16.3596 H   0  0  0  0  0  0  0  0  0  0  0  0
   44.8699  -35.8794   -8.1800 H   0  0  0  0  0  0  0  0  0  0  0  0
   48.8765  -40.5536   -1.7945 H   0  0  0  0  0  0  0  0  0  0  0  0
   46.7803  -31.3833  -10.5155 H   0  0  0  0  0  0  0  0  0  0  0  0
  1  2  1  0
  1 58  1  0
  2  3  1  0
  2  5  1  6
  3  4  2  0
  3 12  1  0
  5  6  1  0
  6  7  1  0
  7  8  1  0
  8  9  1  0
  9 10  2  0
  9 11  1  0
 12 13  1  0
 13 14  1  0
 13 16  1  6
 14 15  2  0
 14 23  1  0
 16 17  1  0
 17 18  1  0
 18 19  1  0
 19 20  1  0
 20 21  1  0
 20 22  2  0
 23 24  1  0
 24 25  1  1
 24 27  1  0
 25 26  2  0
 25 32  1  0
 27 28  1  0
 28 29  1  0
 29 30  1  0
 30 31  1  0
 31 54  1  0
 32 33  1  0
 33 34  1  0
 33 36  1  1
 34 35  2  0
 34 43  1  0
 36 37  1  0
 37 38  1  0
 38 39  1  0
 39 40  1  0
 40 41  2  0
 40 42  1  0
 43 44  1  0
 44 45  1  0
 45 46  2  0
 45 53  1  0
 46 47  1  0
 47 48  2  0
 48 49  1  0
 48 52  1  0
 49 50  1  0
 49 51  2  0
 52 53  2  0
 54 55  1  0
 54 59  2  0
 55 56  1  0
 56 57  1  0
 57 58  1  0
 58 60  2  0
 10 61  1  0
 22 62  1  0
 41 63  1  0
 51 64  1  0
M  END
$$$$
