
     RDKit          3D

 64 65  0  0  0  0  0  0  0  0999 V2000
   52.1922  -34.9600   -3.8276 N   0  0  0  0  0  0  0  0  0  0  0  0
   52.2001  -33.5677   -3.5058 C   0  0  2  0  0  0  0  0  0  0  0  0
   51.2342  -32.7720   -4.3714 C   0  0  0  0  0  0  0  0  0  0  0  0
   51.3572  -31.5137   -4.0561 O   0  0  0  0  0  0  0  0  0  0  0  0
   53.5720  -32.8965   -3.6417 C   0  0  0  0  0  0  0  0  0  0  0  0
   54.3171  -32.7722   -2.3742 C   0  0  0  0  0  0  0  0  0  0  0  0
   53.5270  -33.3669   -1.2368 C   0  0  0  0  0  0  0  0  0  0  0  0
   53.5184  -34.7821   -1.1529 N   0  0  0  0  0  0  0  0  0  0  0  0
   52.8151  -35.5037   -0.1599 C   0  0  0  0  0  0  0  0  0  0  0  0
   52.8724  -36.7928   -0.1469 N   0  0  0  0  0  0  0  0  0  0  0  0
   52.0434  -34.8322    0.8251 N   0  0  0  0  0  0  0  0  0  0  0  0
   50.3516  -33.1816   -5.3409 N   0  0  0  0  0  0  0  0  0  0  0  0
   49.0884  -33.8239   -5.3883 C   0  0  2  0  0  0  0  0  0  0  0  0
   48.4108  -33.6964   -6.7044 C   0  0  0  0  0  0  0  0  0  0  0  0
   47.2707  -33.1629   -6.7023 O   0  0  0  0  0  0  0  0  0  0  0  0
   48.1359  -33.4760   -4.2891 C   0  0  0  0  0  0  0  0  0  0  0  0
   47.7891  -32.0383   -4.1419 C   0  0  0  0  0  0  0  0  0  0  0  0
   48.9742  -31.2098   -4.6646 C   0  0  0  0  0  0  0  0  0  0  0  0
   48.4788  -29.9285   -5.1490 N   0  0  0  0  0  0  0  0  0  0  0  0
   48.4899  -28.7620   -4.3489 C   0  0  0  0  0  0  0  0  0  0  0  0
   49.6740  -28.1803   -3.8076 N   0  0  0  0  0  0  0  0  0  0  0  0
   47.3833  -28.1773   -4.0814 N   0  0  0  0  0  0  0  0  0  0  0  0
   48.9297  -34.1171   -7.9533 N   0  0  0  0  0  0  0  0  0  0  0  0
   49.4719  -35.3994   -8.2984 C   0  0  2  0  0  0  0  0  0  0  0  0
   48.5667  -36.5519   -8.0566 C   0  0  0  0  0  0  0  0  0  0  0  0
   49.1324  -37.6199   -7.6631 O   0  0  0  0  0  0  0  0  0  0  0  0
   50.8486  -35.6695   -7.7434 C   0  0  0  0  0  0  0  0  0  0  0  0
   51.8377  -34.8089   -8.5037 C   0  0  0  0  0  0  0  0  0  0  0  0
   52.6044  -35.6043   -9.5284 C   0  0  0  0  0  0  0  0  0  0  0  0
   53.7560  -36.3068   -8.8427 C   0  0  0  0  0  0  0  0  0  0  0  0
   54.5950  -35.3800   -8.1572 N   0  0  0  0  0  0  0  0  0  0  0  0
   47.1798  -36.5748   -8.2204 N   0  0  0  0  0  0  0  0  0  0  0  0
   46.5336  -37.0128   -9.5139 C   0  0  2  0  0  0  0  0  0  0  0  0
   46.7323  -38.4601   -9.5037 C   0  0  0  0  0  0  0  0  0  0  0  0
   47.8018  -38.9711   -9.1355 O   0  0  0  0  0  0  0  0  0  0  0  0
   47.1871  -36.2966  -10.6096 C   0  0  0  0  0  0  0  0  0  0  0  0
   47.5607  -34.8975  -10.4942 C   0  0  0  0  0  0  0  0  0  0  0  0
   48.3912  -34.1807  -11.4652 C   0  0  0  0  0  0  0  0  0  0  0  0
   47.8204  -32.9312  -11.9332 N   0  0  0  0  0  0  0  0  0  0  0  0
   48.5179  -32.1347  -12.8785 C   0  0  0  0  0  0  0  0  0  0  0  0
   48.0202  -31.0277  -13.3436 N   0  0  0  0  0  0  0  0  0  0  0  0
   49.7985  -32.5437  -13.3396 N   0  0  0  0  0  0  0  0  0  0  0  0
   45.7193  -39.3581   -9.9170 N   0  0  0  0  0  0  0  0  0  0  0  0
   44.4962  -39.0033  -10.5800 C   0  0  0  0  0  0  0  0  0  0  0  0
   43.6030  -40.1510  -10.7638 C   0  0  0  0  0  0  0  0  0  0  0  0
   42.4033  -39.9779  -11.4262 C   0  0  0  0  0  0  0  0  0  0  0  0
   41.5529  -41.0567  -11.6432 C   0  0  0  0  0  0  0  0  0  0  0  0
   41.9044  -42.3048  -11.1972 C   0  0  0  0  0  0  0  0  0  0  0  0
   41.0241  -43.4233  -11.4297 C   0  0  0  0  0  0  0  0  0  0  0  0
   41.2232  -44.6068  -10.6788 N   0  0  0  0  0  0  0  0  0  0  0  0
   40.0839  -43.3349  -12.2983 N   0  0  0  0  0  0  0  0  0  0  0  0
   43.0899  -42.4928  -10.5382 C   0  0  0  0  0  0  0  0  0  0  0  0
   43.9397  -41.3991  -10.3249 C   0  0  0  0  0  0  0  0  0  0  0  0
   55.6650  -35.6378   -7.2932 C   0  0  0  0  0  0  0  0  0  0  0  0
   55.7242  -36.6233   -6.1957 C   0  0  0  0  0  0  0  0  0  0  0  0
   54.4040  -36.7106   -5.5213 C   0  0  0  0  0  0  0  0  0  0  0  0
   54.4438  -36.2373   -4.0505 C   0  0  0  0  0  0  0  0  0  0  0  0
   53.0670  -35.9963   -3.5587 C   0  0  0  0  0  0  0  0  0  0  0  0
   56.7226  -34.9333   -7.4769 O   0  0  0  0  0  0  0  0  0  0  0  0
   52.6327  -36.9175   -2.7502 O   0  0  0  0  0  0  0  0  0  0  0  0
   52.2392  -37.3450    0.4628 H   0  0  0  0  0  0  0  0  0  0  0  0
   47.2886  -27.1619   -3.9232 H   0  0  0  0  0  0  0  0  0  0  0  0
   48.6291  -30.3527  -13.8532 H   0  0  0  0  0  0  0  0  0  0  0  0
   40.0101  -42.4980  -12.8854 H   0  0  0  0  0  0  0  0  0  0  0  0
  2  1  1  6
  1 58  1  0
  2  3  1  0
  5  2  1  1
  3  4  2  0
  3 12  1  0
  5  6  1  0
  6  7  1  6
  7  8  1  6
  8  9  1  0
  9 10  2  0
  9 11  1  0
 13 12  1  6
 13 14  1  0
 16 13  1  1
 14 15  2  0
 14 23  1  0
 16 17  1  0
 17 18  1  6
 18 19  1  6
 19 20  1  0
 20 21  1  0
 20 22  2  0
 23 24  1  0
 24 25  1  1
 27 24  1  1
 25 26  2  0
 25 32  1  0
 28 27  1  1
 28 29  1  0
 29 30  1  6
 30 31  1  6
 31 54  1  0
 33 32  1  1
 33 34  1  0
 36 33  1  1
 34 35  2  0
 34 43  1  0
 36 37  1  0
 37 38  1  6
 38 39  1  6
 39 40  1  0
 40 41  2  0
 40 42  1  0
 44 43  1  1
 44 45  1  0
 45 46  2  0
 45 53  1  0
 46 47  1  0
 47 48  2  0
 48 49  1  0
 48 52  1  0
 49 50  1  0
 49 51  2  0
 52 53  2  0
 55 54  1  1
 54 59  2  0
 56 55  1  1
 56 57  1  0
 57 58  1  6
 58 60  2  0
 10 61  1  0
 22 62  1  0
 41 63  1  0
 51 64  1  0
M  END
$$$$
