
     RDKit          3D

 64 65  0  0  0  0  0  0  0  0999 V2000
   47.3180  -35.2518   -3.9087 N   0  0  0  0  0  0  0  0  0  0  0  0
   48.3739  -35.5640   -2.9977 C   0  0  2  0  0  0  0  0  0  0  0  0
   49.7004  -35.7857   -3.7092 C   0  0  0  0  0  0  0  0  0  0  0  0
   50.5829  -36.1284   -2.8139 O   0  0  0  0  0  0  0  0  0  0  0  0
   48.1189  -36.8084   -2.1390 C   0  0  0  0  0  0  0  0  0  0  0  0
   47.4060  -36.5403   -0.8752 C   0  0  0  0  0  0  0  0  0  0  0  0
   47.1015  -35.0702   -0.7424 C   0  0  0  0  0  0  0  0  0  0  0  0
   47.3557  -34.2722   -1.8864 N   0  0  0  0  0  0  0  0  0  0  0  0
   46.5927  -34.3421   -3.0757 C   0  0  0  0  0  0  0  0  0  0  0  0
   46.1334  -35.4806   -3.4731 N   0  0  0  0  0  0  0  0  0  0  0  0
   46.3237  -33.1778   -3.8429 N   0  0  0  0  0  0  0  0  0  0  0  0
   50.0347  -35.6828   -5.0376 N   0  0  0  0  0  0  0  0  0  0  0  0
   50.2751  -34.6405   -5.9683 C   0  0  2  0  0  0  0  0  0  0  0  0
   50.9657  -35.0985   -7.2016 C   0  0  0  0  0  0  0  0  0  0  0  0
   52.0611  -34.5418   -7.4743 O   0  0  0  0  0  0  0  0  0  0  0  0
   50.9542  -33.4232   -5.4265 C   0  0  0  0  0  0  0  0  0  0  0  0
   52.3673  -33.2140   -5.8364 C   0  0  0  0  0  0  0  0  0  0  0  0
   52.9742  -34.5887   -6.1619 C   0  0  0  0  0  0  0  0  0  0  0  0
   52.2739  -35.6090   -5.3936 N   0  0  0  0  0  0  0  0  0  0  0  0
   52.6900  -36.9610   -5.3762 C   0  0  0  0  0  0  0  0  0  0  0  0
   51.7988  -38.0687   -5.4873 N   0  0  0  0  0  0  0  0  0  0  0  0
   53.9352  -37.2299   -5.2538 N   0  0  0  0  0  0  0  0  0  0  0  0
   50.5058  -36.0999   -8.0914 N   0  0  0  0  0  0  0  0  0  0  0  0
   49.2167  -36.2073   -8.7111 C   0  0  2  0  0  0  0  0  0  0  0  0
   48.7988  -35.0235   -9.5050 C   0  0  0  0  0  0  0  0  0  0  0  0
   47.9761  -34.2423   -8.9322 O   0  0  0  0  0  0  0  0  0  0  0  0
   48.1108  -36.6548   -7.7875 C   0  0  0  0  0  0  0  0  0  0  0  0
   48.3221  -38.1238   -7.4805 C   0  0  0  0  0  0  0  0  0  0  0  0
   47.3859  -39.0036   -8.2681 C   0  0  0  0  0  0  0  0  0  0  0  0
   46.0500  -39.0565   -7.5593 C   0  0  0  0  0  0  0  0  0  0  0  0
   46.1935  -39.5079   -6.2145 N   0  0  0  0  0  0  0  0  0  0  0  0
   49.2131  -34.6948  -10.7977 N   0  0  0  0  0  0  0  0  0  0  0  0
   49.6921  -35.7422  -11.7755 C   0  0  2  0  0  0  0  0  0  0  0  0
   50.9304  -35.1639  -12.2918 C   0  0  0  0  0  0  0  0  0  0  0  0
   51.1446  -33.9417  -12.2603 O   0  0  0  0  0  0  0  0  0  0  0  0
   48.6356  -35.9514  -12.7657 C   0  0  0  0  0  0  0  0  0  0  0  0
   47.2489  -36.1419  -12.3769 C   0  0  0  0  0  0  0  0  0  0  0  0
   46.1407  -35.2948  -12.8249 C   0  0  0  0  0  0  0  0  0  0  0  0
   44.9413  -36.0243  -13.1927 N   0  0  0  0  0  0  0  0  0  0  0  0
   44.1578  -36.6634  -12.1965 C   0  0  0  0  0  0  0  0  0  0  0  0
   43.9808  -37.9510  -12.1838 N   0  0  0  0  0  0  0  0  0  0  0  0
   43.5431  -35.8887  -11.1759 N   0  0  0  0  0  0  0  0  0  0  0  0
   51.9506  -35.9637  -12.8599 N   0  0  0  0  0  0  0  0  0  0  0  0
   52.4587  -37.1929  -12.3194 C   0  0  0  0  0  0  0  0  0  0  0  0
   53.7491  -37.0200  -11.6458 C   0  0  0  0  0  0  0  0  0  0  0  0
   54.6003  -38.1009  -11.5221 C   0  0  0  0  0  0  0  0  0  0  0  0
   55.8442  -37.9563  -10.9173 C   0  0  0  0  0  0  0  0  0  0  0  0
   56.2331  -36.7319  -10.4378 C   0  0  0  0  0  0  0  0  0  0  0  0
   57.5264  -36.5830   -9.8173 C   0  0  0  0  0  0  0  0  0  0  0  0
   57.9458  -37.5637   -8.8864 N   0  0  0  0  0  0  0  0  0  0  0  0
   58.2720  -35.5813  -10.1120 N   0  0  0  0  0  0  0  0  0  0  0  0
   55.4005  -35.6508  -10.5521 C   0  0  0  0  0  0  0  0  0  0  0  0
   54.1493  -35.8072  -11.1635 C   0  0  0  0  0  0  0  0  0  0  0  0
   45.2335  -39.5557   -5.1978 C   0  0  0  0  0  0  0  0  0  0  0  0
   44.2566  -38.5131   -4.8262 C   0  0  0  0  0  0  0  0  0  0  0  0
   44.8677  -37.1684   -4.9802 C   0  0  0  0  0  0  0  0  0  0  0  0
   45.0082  -36.4110   -3.6403 C   0  0  0  0  0  0  0  0  0  0  0  0
   45.9399  -35.2698   -3.7989 C   0  0  0  0  0  0  0  0  0  0  0  0
   45.1971  -40.6360   -4.5047 O   0  0  0  0  0  0  0  0  0  0  0  0
   45.3467  -34.1134   -3.8411 O   0  0  0  0  0  0  0  0  0  0  0  0
   45.5805  -36.0816   -2.8321 H   0  0  0  0  0  0  0  0  0  0  0  0
   54.3108  -37.9624   -4.6313 H   0  0  0  0  0  0  0  0  0  0  0  0
   43.6203  -38.4388  -13.0313 H   0  0  0  0  0  0  0  0  0  0  0  0
   59.2805  -35.7161  -10.2354 H   0  0  0  0  0  0  0  0  0  0  0  0
  2  1  1  6
  1 58  1  0
  2  3  1  0
  5  2  1  1
  3  4  2  0
  3 12  1  0
  5  6  1  0
  6  7  1  6
  7  8  1  6
  8  9  1  0
  9 10  2  0
  9 11  1  0
 13 12  1  1
 13 14  1  0
 16 13  1  1
 14 15  2  0
 14 23  1  0
 16 17  1  0
 17 18  1  6
 18 19  1  6
 19 20  1  0
 20 21  1  0
 20 22  2  0
 23 24  1  0
 24 25  1  1
 27 24  1  1
 25 26  2  0
 25 32  1  0
 28 27  1  1
 28 29  1  0
 29 30  1  6
 30 31  1  6
 31 54  1  0
 33 32  1  1
 33 34  1  0
 36 33  1  1
 34 35  2  0
 34 43  1  0
 36 37  1  0
 37 38  1  6
 38 39  1  6
 39 40  1  0
 40 41  2  0
 40 42  1  0
 44 43  1  1
 44 45  1  0
 45 46  2  0
 45 53  1  0
 46 47  1  0
 47 48  2  0
 48 49  1  0
 48 52  1  0
 49 50  1  0
 49 51  2  0
 52 53  2  0
 55 54  1  1
 54 59  2  0
 56 55  1  1
 56 57  1  0
 57 58  1  6
 58 60  2  0
 10 61  1  0
 22 62  1  0
 41 63  1  0
 51 64  1  0
M  END
$$$$
