
     RDKit          3D

 64 65  0  0  0  0  0  0  0  0999 V2000
   49.4176  -35.9964   -4.8661 N   0  0  0  0  0  0  0  0  0  0  0  0
   48.5417  -36.2542   -3.7668 C   0  0  2  0  0  0  0  0  0  0  0  0
   47.1807  -36.7595   -4.2224 C   0  0  0  0  0  0  0  0  0  0  0  0
   46.4321  -36.9022   -3.1654 O   0  0  0  0  0  0  0  0  0  0  0  0
   48.2843  -35.0396   -2.8670 C   0  0  0  0  0  0  0  0  0  0  0  0
   49.4883  -34.2440   -2.5593 C   0  0  0  0  0  0  0  0  0  0  0  0
   50.2248  -34.8339   -1.3841 C   0  0  0  0  0  0  0  0  0  0  0  0
   51.6340  -34.9250   -1.5098 N   0  0  0  0  0  0  0  0  0  0  0  0
   52.4794  -35.4372   -0.4976 C   0  0  0  0  0  0  0  0  0  0  0  0
   53.3845  -34.6785    0.0221 N   0  0  0  0  0  0  0  0  0  0  0  0
   52.3498  -36.7763   -0.0432 N   0  0  0  0  0  0  0  0  0  0  0  0
   46.7035  -37.0449   -5.4785 N   0  0  0  0  0  0  0  0  0  0  0  0
   46.8570  -38.0799   -6.4352 C   0  0  2  0  0  0  0  0  0  0  0  0
   45.8130  -38.0656   -7.4923 C   0  0  0  0  0  0  0  0  0  0  0  0
   45.1240  -39.1114   -7.6186 O   0  0  0  0  0  0  0  0  0  0  0  0
   47.0060  -39.4626   -5.8852 C   0  0  0  0  0  0  0  0  0  0  0  0
   45.9452  -40.4386   -6.2471 C   0  0  0  0  0  0  0  0  0  0  0  0
   44.7904  -39.6617   -6.9006 C   0  0  0  0  0  0  0  0  0  0  0  0
   44.3259  -38.6371   -5.9753 N   0  0  0  0  0  0  0  0  0  0  0  0
   43.0674  -38.7122   -5.3335 C   0  0  0  0  0  0  0  0  0  0  0  0
   41.8224  -38.5077   -5.9981 N   0  0  0  0  0  0  0  0  0  0  0  0
   43.0190  -38.9776   -4.0824 N   0  0  0  0  0  0  0  0  0  0  0  0
   45.5244  -36.9874   -8.3642 N   0  0  0  0  0  0  0  0  0  0  0  0
   46.4377  -36.2444   -9.1835 C   0  0  2  0  0  0  0  0  0  0  0  0
   47.2421  -37.0597  -10.1292 C   0  0  0  0  0  0  0  0  0  0  0  0
   47.1849  -38.3173   -9.9542 O   0  0  0  0  0  0  0  0  0  0  0  0
   47.3128  -35.2746   -8.4286 C   0  0  0  0  0  0  0  0  0  0  0  0
   46.4461  -34.1176   -7.9733 C   0  0  0  0  0  0  0  0  0  0  0  0
   46.6388  -32.8969   -8.8355 C   0  0  0  0  0  0  0  0  0  0  0  0
   47.8675  -32.1512   -8.3623 C   0  0  0  0  0  0  0  0  0  0  0  0
   47.7690  -31.8124   -6.9808 N   0  0  0  0  0  0  0  0  0  0  0  0
   48.0428  -36.5854  -11.1706 N   0  0  0  0  0  0  0  0  0  0  0  0
   48.5530  -37.4931  -12.2654 C   0  0  2  0  0  0  0  0  0  0  0  0
   49.9469  -37.7099  -11.8857 C   0  0  0  0  0  0  0  0  0  0  0  0
   50.8805  -37.5019  -12.6767 O   0  0  0  0  0  0  0  0  0  0  0  0
   48.3487  -36.8147  -13.5454 C   0  0  0  0  0  0  0  0  0  0  0  0
   48.6067  -37.4769  -14.8124 C   0  0  0  0  0  0  0  0  0  0  0  0
   48.8512  -36.7774  -16.0763 C   0  0  0  0  0  0  0  0  0  0  0  0
   47.7140  -36.0251  -16.5730 N   0  0  0  0  0  0  0  0  0  0  0  0
   47.8474  -35.1981  -17.7188 C   0  0  0  0  0  0  0  0  0  0  0  0
   47.2631  -34.0400  -17.8013 N   0  0  0  0  0  0  0  0  0  0  0  0
   48.6396  -35.6326  -18.8158 N   0  0  0  0  0  0  0  0  0  0  0  0
   50.3090  -38.1732  -10.5982 N   0  0  0  0  0  0  0  0  0  0  0  0
   51.3406  -37.6253   -9.7634 C   0  0  0  0  0  0  0  0  0  0  0  0
   52.6792  -37.8043  -10.3333 C   0  0  0  0  0  0  0  0  0  0  0  0
   52.9842  -37.2182  -11.5464 C   0  0  0  0  0  0  0  0  0  0  0  0
   54.2567  -37.3445  -12.0931 C   0  0  0  0  0  0  0  0  0  0  0  0
   55.2199  -38.0565  -11.4258 C   0  0  0  0  0  0  0  0  0  0  0  0
   56.5408  -38.1801  -11.9914 C   0  0  0  0  0  0  0  0  0  0  0  0
   56.7812  -37.6279  -13.2726 N   0  0  0  0  0  0  0  0  0  0  0  0
   57.4695  -38.7772  -11.3377 N   0  0  0  0  0  0  0  0  0  0  0  0
   54.9332  -38.6441  -10.2226 C   0  0  0  0  0  0  0  0  0  0  0  0
   53.6479  -38.5106   -9.6803 C   0  0  0  0  0  0  0  0  0  0  0  0
   48.7420  -31.2585   -6.1417 C   0  0  0  0  0  0  0  0  0  0  0  0
   50.1626  -31.6434   -6.0264 C   0  0  0  0  0  0  0  0  0  0  0  0
   50.3033  -33.1136   -6.1815 C   0  0  0  0  0  0  0  0  0  0  0  0
   50.8207  -33.8098   -4.9023 C   0  0  0  0  0  0  0  0  0  0  0  0
   50.5876  -35.2704   -4.9912 C   0  0  0  0  0  0  0  0  0  0  0  0
   48.3533  -30.3003   -5.3805 O   0  0  0  0  0  0  0  0  0  0  0  0
   51.6661  -35.9578   -5.2262 O   0  0  0  0  0  0  0  0  0  0  0  0
   53.1199  -33.8659    0.6115 H   0  0  0  0  0  0  0  0  0  0  0  0
   43.8447  -39.0041   -3.4639 H   0  0  0  0  0  0  0  0  0  0  0  0
   47.6681  -33.2902  -18.4011 H   0  0  0  0  0  0  0  0  0  0  0  0
   58.3619  -38.9857  -11.7965 H   0  0  0  0  0  0  0  0  0  0  0  0
  2  1  1  6
  1 58  1  0
  2  3  1  0
  5  2  1  1
  3  4  2  0
  3 12  1  0
  5  6  1  0
  6  7  1  6
  7  8  1  6
  8  9  1  0
  9 10  2  0
  9 11  1  0
 13 12  1  1
 13 14  1  0
 16 13  1  1
 14 15  2  0
 14 23  1  0
 16 17  1  0
 17 18  1  6
 18 19  1  6
 19 20  1  0
 20 21  1  0
 20 22  2  0
 23 24  1  0
 24 25  1  1
 27 24  1  1
 25 26  2  0
 25 32  1  0
 28 27  1  1
 28 29  1  0
 29 30  1  6
 30 31  1  6
 31 54  1  0
 33 32  1  1
 33 34  1  0
 36 33  1  1
 34 35  2  0
 34 43  1  0
 36 37  1  0
 37 38  1  6
 38 39  1  6
 39 40  1  0
 40 41  2  0
 40 42  1  0
 44 43  1  1
 44 45  1  0
 45 46  2  0
 45 53  1  0
 46 47  1  0
 47 48  2  0
 48 49  1  0
 48 52  1  0
 49 50  1  0
 49 51  2  0
 52 53  2  0
 55 54  1  1
 54 59  2  0
 56 55  1  1
 56 57  1  0
 57 58  1  6
 58 60  2  0
 10 61  1  0
 22 62  1  0
 41 63  1  0
 51 64  1  0
M  END
$$$$
