
     RDKit          3D

 64 65  0  0  0  0  0  0  0  0999 V2000
   49.9142  -34.5579   -6.9445 N   0  0  0  0  0  0  0  0  0  0  0  0
   48.9779  -34.7020   -5.8746 C   0  0  2  0  0  0  0  0  0  0  0  0
   47.6608  -35.3048   -6.3404 C   0  0  0  0  0  0  0  0  0  0  0  0
   46.8514  -35.3361   -5.3198 O   0  0  0  0  0  0  0  0  0  0  0  0
   48.6352  -33.3919   -5.1555 C   0  0  0  0  0  0  0  0  0  0  0  0
   49.5268  -33.0664   -4.0256 C   0  0  0  0  0  0  0  0  0  0  0  0
   50.7471  -33.9506   -4.0444 C   0  0  0  0  0  0  0  0  0  0  0  0
   50.7199  -35.0741   -3.1800 N   0  0  0  0  0  0  0  0  0  0  0  0
   51.8073  -35.9645   -3.0180 C   0  0  0  0  0  0  0  0  0  0  0  0
   52.2482  -36.2242   -1.8335 N   0  0  0  0  0  0  0  0  0  0  0  0
   52.4249  -36.5782   -4.1399 N   0  0  0  0  0  0  0  0  0  0  0  0
   47.2701  -35.7627   -7.5752 N   0  0  0  0  0  0  0  0  0  0  0  0
   47.5083  -36.9055   -8.3800 C   0  0  2  0  0  0  0  0  0  0  0  0
   46.5323  -37.0594   -9.4896 C   0  0  0  0  0  0  0  0  0  0  0  0
   45.8783  -38.1344   -9.5204 O   0  0  0  0  0  0  0  0  0  0  0  0
   47.6564  -38.2015   -7.6485 C   0  0  0  0  0  0  0  0  0  0  0  0
   47.1270  -38.2444   -6.2605 C   0  0  0  0  0  0  0  0  0  0  0  0
   45.9852  -37.2197   -6.1577 C   0  0  0  0  0  0  0  0  0  0  0  0
   45.3957  -37.0341   -7.4767 N   0  0  0  0  0  0  0  0  0  0  0  0
   44.3225  -37.8285   -7.9440 C   0  0  0  0  0  0  0  0  0  0  0  0
   44.4892  -39.0828   -8.6018 N   0  0  0  0  0  0  0  0  0  0  0  0
   43.1221  -37.4169   -7.7780 N   0  0  0  0  0  0  0  0  0  0  0  0
   46.2725  -36.1106  -10.5086 N   0  0  0  0  0  0  0  0  0  0  0  0
   47.2167  -35.4486  -11.3617 C   0  0  2  0  0  0  0  0  0  0  0  0
   48.0983  -36.3512  -12.1455 C   0  0  0  0  0  0  0  0  0  0  0  0
   49.1567  -35.8192  -12.6060 O   0  0  0  0  0  0  0  0  0  0  0  0
   48.0190  -34.3630  -10.6878 C   0  0  0  0  0  0  0  0  0  0  0  0
   47.0975  -33.1862  -10.4372 C   0  0  0  0  0  0  0  0  0  0  0  0
   47.3137  -32.0793  -11.4366 C   0  0  0  0  0  0  0  0  0  0  0  0
   48.4919  -31.2403  -10.9919 C   0  0  0  0  0  0  0  0  0  0  0  0
   48.2991  -30.7320   -9.6739 N   0  0  0  0  0  0  0  0  0  0  0  0
   47.8780  -37.7023  -12.4223 N   0  0  0  0  0  0  0  0  0  0  0  0
   48.3644  -38.7977  -11.5023 C   0  0  2  0  0  0  0  0  0  0  0  0
   47.1694  -39.6157  -11.3094 C   0  0  0  0  0  0  0  0  0  0  0  0
   46.0294  -39.1258  -11.3393 O   0  0  0  0  0  0  0  0  0  0  0  0
   48.8967  -38.1681  -10.2937 C   0  0  0  0  0  0  0  0  0  0  0  0
   49.8812  -37.1017  -10.3563 C   0  0  0  0  0  0  0  0  0  0  0  0
   51.1779  -37.1324   -9.6750 C   0  0  0  0  0  0  0  0  0  0  0  0
   52.2084  -37.8684  -10.3837 N   0  0  0  0  0  0  0  0  0  0  0  0
   53.2052  -38.5780   -9.6643 C   0  0  0  0  0  0  0  0  0  0  0  0
   54.1074  -39.2941  -10.2664 N   0  0  0  0  0  0  0  0  0  0  0  0
   53.2329  -38.5138   -8.2448 N   0  0  0  0  0  0  0  0  0  0  0  0
   47.2459  -41.0092  -11.0734 N   0  0  0  0  0  0  0  0  0  0  0  0
   46.1405  -41.8775  -10.7812 C   0  0  0  0  0  0  0  0  0  0  0  0
   46.3634  -42.6862   -9.5790 C   0  0  0  0  0  0  0  0  0  0  0  0
   47.5246  -43.4255   -9.4642 C   0  0  0  0  0  0  0  0  0  0  0  0
   47.7760  -44.1748   -8.3199 C   0  0  0  0  0  0  0  0  0  0  0  0
   46.8658  -44.1829   -7.2944 C   0  0  0  0  0  0  0  0  0  0  0  0
   47.1320  -44.9552   -6.1058 C   0  0  0  0  0  0  0  0  0  0  0  0
   46.6258  -44.4874   -4.8691 N   0  0  0  0  0  0  0  0  0  0  0  0
   47.8112  -46.0411   -6.1804 N   0  0  0  0  0  0  0  0  0  0  0  0
   45.7096  -43.4559   -7.3932 C   0  0  0  0  0  0  0  0  0  0  0  0
   45.4660  -42.7041   -8.5504 C   0  0  0  0  0  0  0  0  0  0  0  0
   49.2039  -30.0449   -8.8573 C   0  0  0  0  0  0  0  0  0  0  0  0
   50.6235  -30.3660   -8.6101 C   0  0  0  0  0  0  0  0  0  0  0  0
   50.8096  -31.8386   -8.5660 C   0  0  0  0  0  0  0  0  0  0  0  0
   51.2629  -32.3496   -7.1795 C   0  0  0  0  0  0  0  0  0  0  0  0
   51.0716  -33.8164   -7.0930 C   0  0  0  0  0  0  0  0  0  0  0  0
   48.7451  -29.0107   -8.2501 O   0  0  0  0  0  0  0  0  0  0  0  0
   52.1791  -34.4930   -7.1737 O   0  0  0  0  0  0  0  0  0  0  0  0
   52.9894  -35.6379   -1.4038 H   0  0  0  0  0  0  0  0  0  0  0  0
   42.3578  -37.9984   -7.4001 H   0  0  0  0  0  0  0  0  0  0  0  0
   54.9113  -39.6837   -9.7297 H   0  0  0  0  0  0  0  0  0  0  0  0
   48.4067  -46.2141   -6.9965 H   0  0  0  0  0  0  0  0  0  0  0  0
  2  1  1  6
  1 58  1  0
  2  3  1  0
  5  2  1  1
  3  4  2  0
  3 12  1  0
  5  6  1  0
  6  7  1  6
  7  8  1  6
  8  9  1  0
  9 10  2  0
  9 11  1  0
 13 12  1  1
 13 14  1  0
 16 13  1  1
 14 15  2  0
 14 23  1  0
 16 17  1  0
 17 18  1  6
 18 19  1  6
 19 20  1  0
 20 21  1  0
 20 22  2  0
 23 24  1  0
 24 25  1  1
 27 24  1  1
 25 26  2  0
 25 32  1  0
 28 27  1  1
 28 29  1  0
 29 30  1  6
 30 31  1  6
 31 54  1  0
 33 32  1  6
 33 34  1  0
 36 33  1  1
 34 35  2  0
 34 43  1  0
 36 37  1  0
 37 38  1  6
 38 39  1  6
 39 40  1  0
 40 41  2  0
 40 42  1  0
 44 43  1  1
 44 45  1  0
 45 46  2  0
 45 53  1  0
 46 47  1  0
 47 48  2  0
 48 49  1  0
 48 52  1  0
 49 50  1  0
 49 51  2  0
 52 53  2  0
 55 54  1  1
 54 59  2  0
 56 55  1  1
 56 57  1  0
 57 58  1  6
 58 60  2  0
 10 61  1  0
 22 62  1  0
 41 63  1  0
 51 64  1  0
M  END
$$$$
