
     RDKit          3D

 64 65  0  0  0  0  0  0  0  0999 V2000
   50.2939  -32.3707   -8.3004 N   0  0  0  0  0  0  0  0  0  0  0  0
   49.7343  -33.5399   -7.6787 C   0  0  2  0  0  0  0  0  0  0  0  0
   48.4615  -33.1816   -6.9532 C   0  0  0  0  0  0  0  0  0  0  0  0
   48.6650  -32.3355   -6.0054 O   0  0  0  0  0  0  0  0  0  0  0  0
   50.5795  -34.1169   -6.5711 C   0  0  0  0  0  0  0  0  0  0  0  0
   51.9109  -33.5462   -6.3450 C   0  0  0  0  0  0  0  0  0  0  0  0
   52.8114  -33.4510   -7.5455 C   0  0  0  0  0  0  0  0  0  0  0  0
   53.8189  -32.4280   -7.3313 N   0  0  0  0  0  0  0  0  0  0  0  0
   54.8671  -32.1367   -8.2417 C   0  0  0  0  0  0  0  0  0  0  0  0
   55.9719  -31.6661   -7.7813 N   0  0  0  0  0  0  0  0  0  0  0  0
   54.7642  -32.3392   -9.6400 N   0  0  0  0  0  0  0  0  0  0  0  0
   47.1787  -33.6502   -7.1964 N   0  0  0  0  0  0  0  0  0  0  0  0
   46.4116  -33.6879   -8.4168 C   0  0  2  0  0  0  0  0  0  0  0  0
   45.9572  -35.0522   -8.7942 C   0  0  0  0  0  0  0  0  0  0  0  0
   45.9423  -35.8660   -7.7947 O   0  0  0  0  0  0  0  0  0  0  0  0
   46.8746  -32.8233   -9.5204 C   0  0  0  0  0  0  0  0  0  0  0  0
   47.8631  -33.6009  -10.3794 C   0  0  0  0  0  0  0  0  0  0  0  0
   47.4100  -35.0220  -10.5483 C   0  0  0  0  0  0  0  0  0  0  0  0
   48.5374  -35.8993  -10.3662 N   0  0  0  0  0  0  0  0  0  0  0  0
   49.5684  -35.9582  -11.3433 C   0  0  0  0  0  0  0  0  0  0  0  0
   49.8706  -37.2383  -11.8924 N   0  0  0  0  0  0  0  0  0  0  0  0
   50.2147  -34.9139  -11.7319 N   0  0  0  0  0  0  0  0  0  0  0  0
   45.5625  -35.5413  -10.0309 N   0  0  0  0  0  0  0  0  0  0  0  0
   46.2319  -35.6852  -11.2708 C   0  0  2  0  0  0  0  0  0  0  0  0
   45.8121  -36.9408  -11.9903 C   0  0  0  0  0  0  0  0  0  0  0  0
   46.1684  -37.1367  -13.1874 O   0  0  0  0  0  0  0  0  0  0  0  0
   47.7300  -35.7894  -11.1842 C   0  0  0  0  0  0  0  0  0  0  0  0
   48.2039  -37.2216  -11.0864 C   0  0  0  0  0  0  0  0  0  0  0  0
   49.5476  -37.2098  -10.3916 C   0  0  0  0  0  0  0  0  0  0  0  0
   50.6413  -37.3473  -11.4309 C   0  0  0  0  0  0  0  0  0  0  0  0
   50.3642  -36.4874  -12.5577 N   0  0  0  0  0  0  0  0  0  0  0  0
   45.0316  -37.8753  -11.3134 N   0  0  0  0  0  0  0  0  0  0  0  0
   45.2857  -38.1454   -9.8086 C   0  0  2  0  0  0  0  0  0  0  0  0
   46.4207  -39.0228   -9.8216 C   0  0  0  0  0  0  0  0  0  0  0  0
   46.5220  -39.6939  -10.9738 O   0  0  0  0  0  0  0  0  0  0  0  0
   43.9747  -38.3883   -9.2599 C   0  0  0  0  0  0  0  0  0  0  0  0
   43.7001  -39.1241   -8.0290 C   0  0  0  0  0  0  0  0  0  0  0  0
   42.4458  -39.1135   -7.2832 C   0  0  0  0  0  0  0  0  0  0  0  0
   42.8011  -39.3268   -5.8564 N   0  0  0  0  0  0  0  0  0  0  0  0
   42.8962  -38.1898   -5.0260 C   0  0  0  0  0  0  0  0  0  0  0  0
   42.2245  -37.1303   -5.3709 N   0  0  0  0  0  0  0  0  0  0  0  0
   43.6768  -38.1486   -3.8475 N   0  0  0  0  0  0  0  0  0  0  0  0
   47.4447  -39.3691   -8.9520 N   0  0  0  0  0  0  0  0  0  0  0  0
   47.6271  -40.7121   -8.3577 C   0  0  0  0  0  0  0  0  0  0  0  0
   48.3741  -40.6415   -7.0827 C   0  0  0  0  0  0  0  0  0  0  0  0
   48.6033  -41.8286   -6.3685 C   0  0  0  0  0  0  0  0  0  0  0  0
   49.2976  -41.8124   -5.1814 C   0  0  0  0  0  0  0  0  0  0  0  0
   49.7976  -40.6339   -4.6443 C   0  0  0  0  0  0  0  0  0  0  0  0
   50.5302  -40.6289   -3.3859 C   0  0  0  0  0  0  0  0  0  0  0  0
   50.8248  -39.3795   -2.7370 N   0  0  0  0  0  0  0  0  0  0  0  0
   50.9336  -41.7151   -2.8162 N   0  0  0  0  0  0  0  0  0  0  0  0
   49.5722  -39.4741   -5.3457 C   0  0  0  0  0  0  0  0  0  0  0  0
   48.8634  -39.4773   -6.5612 C   0  0  0  0  0  0  0  0  0  0  0  0
   50.9492  -35.2098  -12.7692 C   0  0  0  0  0  0  0  0  0  0  0  0
   51.8846  -34.5659  -11.8253 C   0  0  0  0  0  0  0  0  0  0  0  0
   51.1263  -33.5213  -11.0198 C   0  0  0  0  0  0  0  0  0  0  0  0
   52.0904  -32.8322  -10.1259 C   0  0  0  0  0  0  0  0  0  0  0  0
   51.5077  -32.1660   -8.9352 C   0  0  0  0  0  0  0  0  0  0  0  0
   50.6553  -34.5867  -13.8242 O   0  0  0  0  0  0  0  0  0  0  0  0
   52.2884  -31.2578   -8.4457 O   0  0  0  0  0  0  0  0  0  0  0  0
   56.2983  -30.6880   -8.0117 H   0  0  0  0  0  0  0  0  0  0  0  0
   50.2835  -34.1056  -11.0808 H   0  0  0  0  0  0  0  0  0  0  0  0
   41.7280  -37.0441   -6.2814 H   0  0  0  0  0  0  0  0  0  0  0  0
   50.2627  -42.4436   -2.5001 H   0  0  0  0  0  0  0  0  0  0  0  0
  1  2  1  0
  1 58  1  0
  2  3  1  0
  2  5  1  1
  3  4  2  0
  3 12  1  0
  5  6  1  0
  6  7  1  0
  7  8  1  0
  8  9  1  0
  9 10  2  0
  9 11  1  0
 12 13  1  0
 13 14  1  0
 13 16  1  6
 14 15  2  0
 14 23  1  0
 16 17  1  0
 17 18  1  0
 18 19  1  0
 19 20  1  0
 20 21  1  0
 20 22  2  0
 23 24  1  0
 24 25  1  1
 24 27  1  0
 25 26  2  0
 25 32  1  0
 27 28  1  0
 28 29  1  0
 29 30  1  0
 30 31  1  0
 31 54  1  0
 32 33  1  0
 33 34  1  0
 33 36  1  6
 34 35  2  0
 34 43  1  0
 36 37  1  0
 37 38  1  0
 38 39  1  0
 39 40  1  0
 40 41  2  0
 40 42  1  0
 43 44  1  0
 44 45  1  0
 45 46  2  0
 45 53  1  0
 46 47  1  0
 47 48  2  0
 48 49  1  0
 48 52  1  0
 49 50  1  0
 49 51  2  0
 52 53  2  0
 54 55  1  0
 54 59  2  0
 55 56  1  0
 56 57  1  0
 57 58  1  0
 58 60  2  0
 10 61  1  0
 22 62  1  0
 41 63  1  0
 51 64  1  0
M  END
$$$$
