
     RDKit          3D

 64 65  0  0  0  0  0  0  0  0999 V2000
   48.2802  -36.6666   -5.6573 N   0  0  0  0  0  0  0  0  0  0  0  0
   46.9546  -36.7096   -5.1252 C   0  0  2  0  0  0  0  0  0  0  0  0
   45.8954  -36.5674   -6.2083 C   0  0  0  0  0  0  0  0  0  0  0  0
   44.7289  -36.5502   -5.6280 O   0  0  0  0  0  0  0  0  0  0  0  0
   46.6612  -35.6316   -4.0751 C   0  0  0  0  0  0  0  0  0  0  0  0
   46.1554  -36.1542   -2.7911 C   0  0  0  0  0  0  0  0  0  0  0  0
   46.6018  -37.5795   -2.5887 C   0  0  0  0  0  0  0  0  0  0  0  0
   45.7751  -38.5813   -3.1570 N   0  0  0  0  0  0  0  0  0  0  0  0
   44.7917  -39.2915   -2.4290 C   0  0  0  0  0  0  0  0  0  0  0  0
   44.5461  -38.9671   -1.2045 N   0  0  0  0  0  0  0  0  0  0  0  0
   44.0690  -40.3595   -3.0236 N   0  0  0  0  0  0  0  0  0  0  0  0
   46.0152  -36.4618   -7.5726 N   0  0  0  0  0  0  0  0  0  0  0  0
   46.3010  -37.3277   -8.6583 C   0  0  2  0  0  0  0  0  0  0  0  0
   45.9411  -36.7543   -9.9809 C   0  0  0  0  0  0  0  0  0  0  0  0
   45.1281  -37.4143  -10.6793 O   0  0  0  0  0  0  0  0  0  0  0  0
   45.7655  -38.7194   -8.5438 C   0  0  0  0  0  0  0  0  0  0  0  0
   44.9159  -39.0080   -7.3590 C   0  0  0  0  0  0  0  0  0  0  0  0
   44.7204  -37.6937   -6.5854 C   0  0  0  0  0  0  0  0  0  0  0  0
   45.3494  -36.6096   -7.3276 N   0  0  0  0  0  0  0  0  0  0  0  0
   45.0698  -36.3660   -8.6928 C   0  0  0  0  0  0  0  0  0  0  0  0
   44.4888  -37.3289   -9.5696 N   0  0  0  0  0  0  0  0  0  0  0  0
   45.3470  -35.2209   -9.1926 N   0  0  0  0  0  0  0  0  0  0  0  0
   46.4264  -35.5388  -10.5223 N   0  0  0  0  0  0  0  0  0  0  0  0
   47.7891  -35.1093  -10.6488 C   0  0  2  0  0  0  0  0  0  0  0  0
   48.6737  -36.0341  -11.4026 C   0  0  0  0  0  0  0  0  0  0  0  0
   48.7109  -37.2294  -10.9722 O   0  0  0  0  0  0  0  0  0  0  0  0
   48.4354  -34.6800   -9.3549 C   0  0  0  0  0  0  0  0  0  0  0  0
   47.8308  -33.3514   -8.9470 C   0  0  0  0  0  0  0  0  0  0  0  0
   48.7524  -32.1978   -9.2478 C   0  0  0  0  0  0  0  0  0  0  0  0
   49.7623  -32.0721   -8.1280 C   0  0  0  0  0  0  0  0  0  0  0  0
   49.1198  -31.9196   -6.8644 N   0  0  0  0  0  0  0  0  0  0  0  0
   49.4562  -35.7211  -12.5164 N   0  0  0  0  0  0  0  0  0  0  0  0
   50.4197  -36.7146  -13.1226 C   0  0  2  0  0  0  0  0  0  0  0  0
   51.3347  -36.9960  -12.0191 C   0  0  0  0  0  0  0  0  0  0  0  0
   51.5840  -36.1515  -11.1442 O   0  0  0  0  0  0  0  0  0  0  0  0
   51.0270  -36.0932  -14.2996 C   0  0  0  0  0  0  0  0  0  0  0  0
   51.6917  -36.8805  -15.3237 C   0  0  0  0  0  0  0  0  0  0  0  0
   52.2806  -36.3223  -16.5435 C   0  0  0  0  0  0  0  0  0  0  0  0
   53.4080  -35.4382  -16.3129 N   0  0  0  0  0  0  0  0  0  0  0  0
   54.6803  -35.9717  -15.9794 C   0  0  0  0  0  0  0  0  0  0  0  0
   55.6542  -35.2168  -15.5659 N   0  0  0  0  0  0  0  0  0  0  0  0
   54.9129  -37.3691  -16.0939 N   0  0  0  0  0  0  0  0  0  0  0  0
   51.9903  -38.2437  -11.8895 N   0  0  0  0  0  0  0  0  0  0  0  0
   52.8695  -38.6281  -10.8215 C   0  0  0  0  0  0  0  0  0  0  0  0
   52.3823  -39.7988  -10.0860 C   0  0  0  0  0  0  0  0  0  0  0  0
   53.1120  -40.2803   -9.0165 C   0  0  0  0  0  0  0  0  0  0  0  0
   52.6554  -41.3687   -8.2812 C   0  0  0  0  0  0  0  0  0  0  0  0
   51.4711  -41.9725   -8.6175 C   0  0  0  0  0  0  0  0  0  0  0  0
   50.9961  -43.0967   -7.8490 C   0  0  0  0  0  0  0  0  0  0  0  0
   49.6518  -43.5084   -8.0148 N   0  0  0  0  0  0  0  0  0  0  0  0
   51.7842  -43.7035   -7.0385 N   0  0  0  0  0  0  0  0  0  0  0  0
   50.7363  -41.5076   -9.6754 C   0  0  0  0  0  0  0  0  0  0  0  0
   51.2053  -40.4100  -10.4096 C   0  0  0  0  0  0  0  0  0  0  0  0
   49.6878  -31.9186   -5.5856 C   0  0  0  0  0  0  0  0  0  0  0  0
   50.7028  -32.8447   -5.0458 C   0  0  0  0  0  0  0  0  0  0  0  0
   50.4712  -34.2135   -5.5733 C   0  0  0  0  0  0  0  0  0  0  0  0
   50.0917  -35.2296   -4.4723 C   0  0  0  0  0  0  0  0  0  0  0  0
   49.5207  -36.4515   -5.0859 C   0  0  0  0  0  0  0  0  0  0  0  0
   49.2776  -31.0020   -4.7854 O   0  0  0  0  0  0  0  0  0  0  0  0
   50.3312  -37.4682   -5.0764 O   0  0  0  0  0  0  0  0  0  0  0  0
   43.6234  -39.1747   -0.7764 H   0  0  0  0  0  0  0  0  0  0  0  0
   46.0926  -35.0575   -9.8871 H   0  0  0  0  0  0  0  0  0  0  0  0
   56.5077  -35.0950  -16.1514 H   0  0  0  0  0  0  0  0  0  0  0  0
   51.4768  -44.5672   -6.5802 H   0  0  0  0  0  0  0  0  0  0  0  0
  2  1  1  6
  1 58  1  0
  2  3  1  0
  5  2  1  1
  3  4  2  0
  3 12  1  0
  5  6  1  0
  6  7  1  6
  7  8  1  6
  8  9  1  0
  9 10  2  0
  9 11  1  0
 13 12  1  1
 13 14  1  0
 16 13  1  1
 14 15  2  0
 14 23  1  0
 16 17  1  0
 17 18  1  6
 18 19  1  6
 19 20  1  0
 20 21  1  0
 20 22  2  0
 23 24  1  0
 24 25  1  1
 27 24  1  1
 25 26  2  0
 25 32  1  0
 28 27  1  1
 28 29  1  0
 29 30  1  6
 30 31  1  6
 31 54  1  0
 33 32  1  1
 33 34  1  0
 36 33  1  1
 34 35  2  0
 34 43  1  0
 36 37  1  0
 37 38  1  6
 38 39  1  6
 39 40  1  0
 40 41  2  0
 40 42  1  0
 44 43  1  1
 44 45  1  0
 45 46  2  0
 45 53  1  0
 46 47  1  0
 47 48  2  0
 48 49  1  0
 48 52  1  0
 49 50  1  0
 49 51  2  0
 52 53  2  0
 55 54  1  1
 54 59  2  0
 56 55  1  1
 56 57  1  0
 57 58  1  6
 58 60  2  0
 10 61  1  0
 22 62  1  0
 41 63  1  0
 51 64  1  0
M  END
$$$$
