
     RDKit          3D

 64 65  0  0  0  0  0  0  0  0999 V2000
   52.3334  -35.3368   -6.2656 N   0  0  0  0  0  0  0  0  0  0  0  0
   51.5882  -36.3835   -5.6208 C   0  0  2  0  0  0  0  0  0  0  0  0
   50.4693  -35.7924   -4.8001 C   0  0  0  0  0  0  0  0  0  0  0  0
   50.9073  -35.0330   -3.8582 O   0  0  0  0  0  0  0  0  0  0  0  0
   52.3694  -37.1524   -4.5853 C   0  0  0  0  0  0  0  0  0  0  0  0
   53.5533  -36.5183   -3.9971 C   0  0  0  0  0  0  0  0  0  0  0  0
   53.6416  -35.0221   -4.1185 C   0  0  0  0  0  0  0  0  0  0  0  0
   53.2811  -34.3990   -2.8578 N   0  0  0  0  0  0  0  0  0  0  0  0
   53.4124  -33.0129   -2.5860 C   0  0  0  0  0  0  0  0  0  0  0  0
   53.8419  -32.2388   -3.5189 N   0  0  0  0  0  0  0  0  0  0  0  0
   53.0920  -32.4297   -1.3354 N   0  0  0  0  0  0  0  0  0  0  0  0
   49.1038  -35.9810   -4.9559 N   0  0  0  0  0  0  0  0  0  0  0  0
   48.2641  -35.8263   -6.1179 C   0  0  2  0  0  0  0  0  0  0  0  0
   47.5131  -37.0573   -6.4797 C   0  0  0  0  0  0  0  0  0  0  0  0
   47.3986  -37.8785   -5.4929 O   0  0  0  0  0  0  0  0  0  0  0  0
   48.8193  -35.0442   -7.2403 C   0  0  0  0  0  0  0  0  0  0  0  0
   50.2686  -34.6924   -6.9317 C   0  0  0  0  0  0  0  0  0  0  0  0
   50.3673  -33.9696   -5.6198 C   0  0  0  0  0  0  0  0  0  0  0  0
   49.3887  -34.5091   -4.7114 N   0  0  0  0  0  0  0  0  0  0  0  0
   49.2787  -34.0018   -3.3880 C   0  0  0  0  0  0  0  0  0  0  0  0
   47.9720  -33.6673   -2.9271 N   0  0  0  0  0  0  0  0  0  0  0  0
   50.3005  -33.8432   -2.6198 N   0  0  0  0  0  0  0  0  0  0  0  0
   46.9424  -37.4199   -7.6910 N   0  0  0  0  0  0  0  0  0  0  0  0
   47.4815  -37.6631   -8.9780 C   0  0  2  0  0  0  0  0  0  0  0  0
   46.7634  -38.7851   -9.6821 C   0  0  0  0  0  0  0  0  0  0  0  0
   46.1862  -39.6892   -9.0129 O   0  0  0  0  0  0  0  0  0  0  0  0
   48.9282  -38.0746   -9.0018 C   0  0  0  0  0  0  0  0  0  0  0  0
   49.1017  -39.5757   -8.9579 C   0  0  0  0  0  0  0  0  0  0  0  0
   50.4630  -39.8592   -8.3623 C   0  0  0  0  0  0  0  0  0  0  0  0
   51.4312  -40.1887   -9.4800 C   0  0  0  0  0  0  0  0  0  0  0  0
   51.2615  -39.2588  -10.5721 N   0  0  0  0  0  0  0  0  0  0  0  0
   46.7465  -38.8039  -11.0750 N   0  0  0  0  0  0  0  0  0  0  0  0
   46.8598  -37.4750  -11.8644 C   0  0  2  0  0  0  0  0  0  0  0  0
   47.9825  -36.8257  -11.2512 C   0  0  0  0  0  0  0  0  0  0  0  0
   47.9365  -36.8993   -9.9167 O   0  0  0  0  0  0  0  0  0  0  0  0
   45.5019  -37.0019  -11.9696 C   0  0  0  0  0  0  0  0  0  0  0  0
   44.3080  -37.8288  -11.8190 C   0  0  0  0  0  0  0  0  0  0  0  0
   43.1610  -37.5345  -10.9660 C   0  0  0  0  0  0  0  0  0  0  0  0
   43.5483  -36.3739  -10.1231 N   0  0  0  0  0  0  0  0  0  0  0  0
   42.5177  -35.6568   -9.4789 C   0  0  0  0  0  0  0  0  0  0  0  0
   41.9516  -36.2076   -8.4451 N   0  0  0  0  0  0  0  0  0  0  0  0
   42.0772  -34.3800   -9.8980 N   0  0  0  0  0  0  0  0  0  0  0  0
   49.1075  -36.1320  -11.6730 N   0  0  0  0  0  0  0  0  0  0  0  0
   49.1326  -35.1733  -12.8000 C   0  0  0  0  0  0  0  0  0  0  0  0
   50.3862  -34.3878  -12.8131 C   0  0  0  0  0  0  0  0  0  0  0  0
   50.5175  -33.3119  -11.9206 C   0  0  0  0  0  0  0  0  0  0  0  0
   51.6668  -32.5568  -11.8931 C   0  0  0  0  0  0  0  0  0  0  0  0
   52.7361  -32.8242  -12.7371 C   0  0  0  0  0  0  0  0  0  0  0  0
   53.9474  -32.0171  -12.6998 C   0  0  0  0  0  0  0  0  0  0  0  0
   55.0015  -32.2686  -13.6457 N   0  0  0  0  0  0  0  0  0  0  0  0
   54.1204  -31.0687  -11.8409 N   0  0  0  0  0  0  0  0  0  0  0  0
   52.6049  -33.8781  -13.6090 C   0  0  0  0  0  0  0  0  0  0  0  0
   51.4344  -34.6579  -13.6469 C   0  0  0  0  0  0  0  0  0  0  0  0
   52.0819  -38.1228  -10.8082 C   0  0  0  0  0  0  0  0  0  0  0  0
   53.1923  -37.7113   -9.9260 C   0  0  0  0  0  0  0  0  0  0  0  0
   52.7228  -36.5565   -9.0535 C   0  0  0  0  0  0  0  0  0  0  0  0
   53.8671  -36.1052   -8.2227 C   0  0  0  0  0  0  0  0  0  0  0  0
   53.5171  -35.3675   -6.9839 C   0  0  0  0  0  0  0  0  0  0  0  0
   51.8518  -37.4233  -11.8305 O   0  0  0  0  0  0  0  0  0  0  0  0
   54.5001  -34.6528   -6.5401 O   0  0  0  0  0  0  0  0  0  0  0  0
   54.2085  -31.2697   -3.3122 H   0  0  0  0  0  0  0  0  0  0  0  0
   50.4640  -34.5409   -1.8658 H   0  0  0  0  0  0  0  0  0  0  0  0
   41.0353  -35.8935   -8.0649 H   0  0  0  0  0  0  0  0  0  0  0  0
   53.6591  -30.1438  -11.9535 H   0  0  0  0  0  0  0  0  0  0  0  0
  1  2  1  0
  1 58  1  0
  2  3  1  0
  2  5  1  1
  3  4  2  0
  3 12  1  0
  5  6  1  0
  6  7  1  0
  7  8  1  0
  8  9  1  0
  9 10  2  0
  9 11  1  0
 12 13  1  0
 13 14  1  0
 13 16  1  6
 14 15  2  0
 14 23  1  0
 16 17  1  0
 17 18  1  0
 18 19  1  0
 19 20  1  0
 20 21  1  0
 20 22  2  0
 23 24  1  0
 24 25  1  1
 24 27  1  0
 25 26  2  0
 25 32  1  0
 27 28  1  0
 28 29  1  0
 29 30  1  0
 30 31  1  0
 31 54  1  0
 32 33  1  0
 33 34  1  0
 33 36  1  1
 34 35  2  0
 34 43  1  0
 36 37  1  0
 37 38  1  0
 38 39  1  0
 39 40  1  0
 40 41  2  0
 40 42  1  0
 43 44  1  0
 44 45  1  0
 45 46  2  0
 45 53  1  0
 46 47  1  0
 47 48  2  0
 48 49  1  0
 48 52  1  0
 49 50  1  0
 49 51  2  0
 52 53  2  0
 54 55  1  0
 54 59  2  0
 55 56  1  0
 56 57  1  0
 57 58  1  0
 58 60  2  0
 10 61  1  0
 22 62  1  0
 41 63  1  0
 51 64  1  0
M  END
$$$$
