
     RDKit          3D

 64 65  0  0  0  0  0  0  0  0999 V2000
   45.0356  -36.6871   -7.3927 N   0  0  0  0  0  0  0  0  0  0  0  0
   45.8482  -37.8284   -7.0708 C   0  0  2  0  0  0  0  0  0  0  0  0
   46.1601  -38.6114   -8.3216 C   0  0  0  0  0  0  0  0  0  0  0  0
   45.0982  -39.0750   -8.8813 O   0  0  0  0  0  0  0  0  0  0  0  0
   45.1564  -38.8596   -6.2151 C   0  0  0  0  0  0  0  0  0  0  0  0
   43.7123  -39.0470   -6.3856 C   0  0  0  0  0  0  0  0  0  0  0  0
   42.9973  -38.0191   -7.2182 C   0  0  0  0  0  0  0  0  0  0  0  0
   43.8361  -37.6087   -8.3296 N   0  0  0  0  0  0  0  0  0  0  0  0
   43.4705  -36.6263   -9.2855 C   0  0  0  0  0  0  0  0  0  0  0  0
   42.7415  -35.6371   -8.9063 N   0  0  0  0  0  0  0  0  0  0  0  0
   43.8690  -36.6740  -10.6441 N   0  0  0  0  0  0  0  0  0  0  0  0
   47.4028  -38.8621   -8.8849 N   0  0  0  0  0  0  0  0  0  0  0  0
   48.4656  -37.9577   -9.2478 C   0  0  2  0  0  0  0  0  0  0  0  0
   49.7613  -38.2634   -8.5860 C   0  0  0  0  0  0  0  0  0  0  0  0
   49.8318  -39.4807   -8.1683 O   0  0  0  0  0  0  0  0  0  0  0  0
   48.1120  -36.5292   -9.3666 C   0  0  0  0  0  0  0  0  0  0  0  0
   46.8800  -36.3945  -10.2519 C   0  0  0  0  0  0  0  0  0  0  0  0
   46.1901  -37.7194  -10.3997 C   0  0  0  0  0  0  0  0  0  0  0  0
   47.1242  -38.7721  -10.0942 N   0  0  0  0  0  0  0  0  0  0  0  0
   46.7392  -40.1347  -10.2210 C   0  0  0  0  0  0  0  0  0  0  0  0
   45.3464  -40.4264  -10.1399 N   0  0  0  0  0  0  0  0  0  0  0  0
   47.5934  -41.0817  -10.4024 N   0  0  0  0  0  0  0  0  0  0  0  0
   50.8586  -37.4423   -8.3706 N   0  0  0  0  0  0  0  0  0  0  0  0
   51.0406  -36.2481   -7.6311 C   0  0  2  0  0  0  0  0  0  0  0  0
   52.3959  -36.1981   -6.9746 C   0  0  0  0  0  0  0  0  0  0  0  0
   52.4982  -35.9033   -5.7494 O   0  0  0  0  0  0  0  0  0  0  0  0
   50.0715  -36.0384   -6.5000 C   0  0  0  0  0  0  0  0  0  0  0  0
   50.5854  -36.5910   -5.1901 C   0  0  0  0  0  0  0  0  0  0  0  0
   49.3838  -36.9110   -4.3286 C   0  0  0  0  0  0  0  0  0  0  0  0
   49.1930  -35.8000   -3.3164 C   0  0  0  0  0  0  0  0  0  0  0  0
   49.3437  -34.5148   -3.9580 N   0  0  0  0  0  0  0  0  0  0  0  0
   53.5248  -36.4839   -7.7391 N   0  0  0  0  0  0  0  0  0  0  0  0
   54.3991  -35.3260   -8.2840 C   0  0  2  0  0  0  0  0  0  0  0  0
   54.6249  -34.5134   -7.1235 C   0  0  0  0  0  0  0  0  0  0  0  0
   53.5764  -34.5229   -6.2935 O   0  0  0  0  0  0  0  0  0  0  0  0
   53.7700  -34.9538   -9.5268 C   0  0  0  0  0  0  0  0  0  0  0  0
   53.4623  -35.8690  -10.6221 C   0  0  0  0  0  0  0  0  0  0  0  0
   52.8371  -35.5110  -11.8911 C   0  0  0  0  0  0  0  0  0  0  0  0
   53.5512  -36.2774  -12.9448 N   0  0  0  0  0  0  0  0  0  0  0  0
   54.6249  -35.6427  -13.6050 C   0  0  0  0  0  0  0  0  0  0  0  0
   54.9606  -34.4504  -13.2071 N   0  0  0  0  0  0  0  0  0  0  0  0
   55.3475  -36.2362  -14.6659 N   0  0  0  0  0  0  0  0  0  0  0  0
   55.6429  -33.7102   -6.6304 N   0  0  0  0  0  0  0  0  0  0  0  0
   56.0304  -33.6214   -5.2048 C   0  0  0  0  0  0  0  0  0  0  0  0
   57.0242  -34.6582   -4.8498 C   0  0  0  0  0  0  0  0  0  0  0  0
   56.5854  -35.9799   -4.6704 C   0  0  0  0  0  0  0  0  0  0  0  0
   57.4739  -36.9781   -4.3452 C   0  0  0  0  0  0  0  0  0  0  0  0
   58.8292  -36.7246   -4.1831 C   0  0  0  0  0  0  0  0  0  0  0  0
   59.7602  -37.7894   -3.8375 C   0  0  0  0  0  0  0  0  0  0  0  0
   61.0740  -37.8061   -4.4229 N   0  0  0  0  0  0  0  0  0  0  0  0
   59.4540  -38.7356   -3.0140 N   0  0  0  0  0  0  0  0  0  0  0  0
   59.2556  -35.4305   -4.3598 C   0  0  0  0  0  0  0  0  0  0  0  0
   58.3567  -34.4004   -4.6926 C   0  0  0  0  0  0  0  0  0  0  0  0
   48.2701  -33.6902   -4.3899 C   0  0  0  0  0  0  0  0  0  0  0  0
   46.8468  -34.0703   -4.2869 C   0  0  0  0  0  0  0  0  0  0  0  0
   46.3648  -34.5390   -5.6519 C   0  0  0  0  0  0  0  0  0  0  0  0
   44.9168  -34.8503   -5.5530 C   0  0  0  0  0  0  0  0  0  0  0  0
   44.3809  -35.7741   -6.5828 C   0  0  0  0  0  0  0  0  0  0  0  0
   48.5448  -32.5669   -4.8900 O   0  0  0  0  0  0  0  0  0  0  0  0
   43.0973  -35.6781   -6.7126 O   0  0  0  0  0  0  0  0  0  0  0  0
   42.9575  -34.6442   -9.1961 H   0  0  0  0  0  0  0  0  0  0  0  0
   47.4890  -41.6860  -11.2426 H   0  0  0  0  0  0  0  0  0  0  0  0
   54.9980  -33.6286  -13.8444 H   0  0  0  0  0  0  0  0  0  0  0  0
   58.4880  -39.1158   -2.9592 H   0  0  0  0  0  0  0  0  0  0  0  0
  1  2  1  0
  1 58  1  0
  2  3  1  0
  2  5  1  1
  3  4  2  0
  3 12  1  0
  5  6  1  0
  6  7  1  0
  7  8  1  0
  8  9  1  0
  9 10  2  0
  9 11  1  0
 12 13  1  0
 13 14  1  0
 13 16  1  1
 14 15  2  0
 14 23  1  0
 16 17  1  0
 17 18  1  0
 18 19  1  0
 19 20  1  0
 20 21  1  0
 20 22  2  0
 23 24  1  0
 24 25  1  1
 24 27  1  0
 25 26  2  0
 25 32  1  0
 27 28  1  0
 28 29  1  0
 29 30  1  0
 30 31  1  0
 31 54  1  0
 32 33  1  0
 33 34  1  0
 33 36  1  6
 34 35  2  0
 34 43  1  0
 36 37  1  0
 37 38  1  0
 38 39  1  0
 39 40  1  0
 40 41  2  0
 40 42  1  0
 43 44  1  0
 44 45  1  0
 45 46  2  0
 45 53  1  0
 46 47  1  0
 47 48  2  0
 48 49  1  0
 48 52  1  0
 49 50  1  0
 49 51  2  0
 52 53  2  0
 54 55  1  0
 54 59  2  0
 55 56  1  0
 56 57  1  0
 57 58  1  0
 58 60  2  0
 10 61  1  0
 22 62  1  0
 41 63  1  0
 51 64  1  0
M  END
$$$$
