
     RDKit          3D

 64 65  0  0  0  0  0  0  0  0999 V2000
   52.0661  -35.1258   -4.3260 N   0  0  0  0  0  0  0  0  0  0  0  0
   52.1945  -33.7032   -4.3682 C   0  0  2  0  0  0  0  0  0  0  0  0
   51.7694  -33.1270   -5.7107 C   0  0  0  0  0  0  0  0  0  0  0  0
   51.9821  -31.8419   -5.6806 O   0  0  0  0  0  0  0  0  0  0  0  0
   53.6133  -33.1894   -4.0955 C   0  0  0  0  0  0  0  0  0  0  0  0
   54.6275  -34.2511   -3.9492 C   0  0  0  0  0  0  0  0  0  0  0  0
   54.0144  -35.6051   -4.1993 C   0  0  0  0  0  0  0  0  0  0  0  0
   52.6976  -35.7963   -3.7098 N   0  0  0  0  0  0  0  0  0  0  0  0
   51.5415  -35.2999   -4.3569 C   0  0  0  0  0  0  0  0  0  0  0  0
   51.2397  -34.0496   -4.2536 N   0  0  0  0  0  0  0  0  0  0  0  0
   50.7040  -36.1566   -5.1193 N   0  0  0  0  0  0  0  0  0  0  0  0
   51.2507  -33.7384   -6.8262 N   0  0  0  0  0  0  0  0  0  0  0  0
   50.0040  -34.2840   -7.2241 C   0  0  2  0  0  0  0  0  0  0  0  0
   49.8931  -34.4940   -8.6907 C   0  0  0  0  0  0  0  0  0  0  0  0
   48.9432  -33.9094   -9.2739 O   0  0  0  0  0  0  0  0  0  0  0  0
   48.7882  -33.5753   -6.7177 C   0  0  0  0  0  0  0  0  0  0  0  0
   48.8626  -32.0924   -6.6546 C   0  0  0  0  0  0  0  0  0  0  0  0
   50.3008  -31.6754   -7.0037 C   0  0  0  0  0  0  0  0  0  0  0  0
   51.1859  -32.0741   -5.9176 N   0  0  0  0  0  0  0  0  0  0  0  0
   52.4953  -31.5566   -5.7805 C   0  0  0  0  0  0  0  0  0  0  0  0
   53.5021  -31.6642   -6.7847 N   0  0  0  0  0  0  0  0  0  0  0  0
   52.8182  -30.9525   -4.6994 N   0  0  0  0  0  0  0  0  0  0  0  0
   50.7556  -35.2869   -9.4867 N   0  0  0  0  0  0  0  0  0  0  0  0
   51.1572  -36.6467   -9.2699 C   0  0  2  0  0  0  0  0  0  0  0  0
   50.0425  -37.6208   -9.1472 C   0  0  0  0  0  0  0  0  0  0  0  0
   50.2326  -38.5701   -8.3238 O   0  0  0  0  0  0  0  0  0  0  0  0
   52.1628  -36.8358   -8.1612 C   0  0  0  0  0  0  0  0  0  0  0  0
   53.4952  -36.2944   -8.6396 C   0  0  0  0  0  0  0  0  0  0  0  0
   54.4366  -37.3976   -9.0488 C   0  0  0  0  0  0  0  0  0  0  0  0
   55.1139  -37.9481   -7.8127 C   0  0  0  0  0  0  0  0  0  0  0  0
   55.7868  -36.9206   -7.0885 N   0  0  0  0  0  0  0  0  0  0  0  0
   48.8297  -37.5955   -9.8394 N   0  0  0  0  0  0  0  0  0  0  0  0
   47.5385  -37.1750   -9.1770 C   0  0  2  0  0  0  0  0  0  0  0  0
   46.5547  -37.3454  -10.2435 C   0  0  0  0  0  0  0  0  0  0  0  0
   46.8614  -37.2318  -11.4409 O   0  0  0  0  0  0  0  0  0  0  0  0
   47.7066  -35.8057   -8.6902 C   0  0  0  0  0  0  0  0  0  0  0  0
   47.6312  -34.6615   -9.5821 C   0  0  0  0  0  0  0  0  0  0  0  0
   46.5774  -33.6447   -9.5354 C   0  0  0  0  0  0  0  0  0  0  0  0
   47.0560  -32.2811   -9.6680 N   0  0  0  0  0  0  0  0  0  0  0  0
   47.4595  -31.7835  -10.9345 C   0  0  0  0  0  0  0  0  0  0  0  0
   48.5181  -31.0426  -11.0754 N   0  0  0  0  0  0  0  0  0  0  0  0
   46.6966  -32.0954  -12.0923 N   0  0  0  0  0  0  0  0  0  0  0  0
   45.1985  -37.6444   -9.9704 N   0  0  0  0  0  0  0  0  0  0  0  0
   44.4857  -38.8098  -10.4122 C   0  0  0  0  0  0  0  0  0  0  0  0
   43.9451  -39.5941   -9.2980 C   0  0  0  0  0  0  0  0  0  0  0  0
   44.2472  -39.2278   -8.0008 C   0  0  0  0  0  0  0  0  0  0  0  0
   43.7204  -39.9346   -6.9252 C   0  0  0  0  0  0  0  0  0  0  0  0
   42.8936  -41.0052   -7.1496 C   0  0  0  0  0  0  0  0  0  0  0  0
   42.3429  -41.7322   -6.0325 C   0  0  0  0  0  0  0  0  0  0  0  0
   42.4981  -41.1924   -4.7330 N   0  0  0  0  0  0  0  0  0  0  0  0
   41.7263  -42.8408   -6.2248 N   0  0  0  0  0  0  0  0  0  0  0  0
   42.5851  -41.3814   -8.4297 C   0  0  0  0  0  0  0  0  0  0  0  0
   43.1210  -40.6623   -9.5065 C   0  0  0  0  0  0  0  0  0  0  0  0
   56.4004  -36.9898   -5.8330 C   0  0  0  0  0  0  0  0  0  0  0  0
   55.8793  -37.6222   -4.6050 C   0  0  0  0  0  0  0  0  0  0  0  0
   54.4096  -37.4272   -4.5192 C   0  0  0  0  0  0  0  0  0  0  0  0
   53.9844  -36.5570   -3.3147 C   0  0  0  0  0  0  0  0  0  0  0  0
   52.5871  -36.0966   -3.4907 C   0  0  0  0  0  0  0  0  0  0  0  0
   57.5555  -36.4373   -5.7369 O   0  0  0  0  0  0  0  0  0  0  0  0
   51.7331  -36.7181   -2.7322 O   0  0  0  0  0  0  0  0  0  0  0  0
   50.2934  -33.7101   -4.5122 H   0  0  0  0  0  0  0  0  0  0  0  0
   53.7074  -31.1007   -4.1970 H   0  0  0  0  0  0  0  0  0  0  0  0
   49.2474  -31.2982  -11.7746 H   0  0  0  0  0  0  0  0  0  0  0  0
   41.0098  -42.9049   -6.9549 H   0  0  0  0  0  0  0  0  0  0  0  0
  2  1  1  6
  1 58  1  0
  2  3  1  0
  5  2  1  1
  3  4  2  0
  3 12  1  0
  5  6  1  0
  6  7  1  6
  7  8  1  6
  8  9  1  0
  9 10  2  0
  9 11  1  0
 13 12  1  6
 13 14  1  0
 16 13  1  1
 14 15  2  0
 14 23  1  0
 16 17  1  0
 17 18  1  6
 18 19  1  6
 19 20  1  0
 20 21  1  0
 20 22  2  0
 23 24  1  0
 24 25  1  1
 27 24  1  1
 25 26  2  0
 25 32  1  0
 28 27  1  1
 28 29  1  0
 29 30  1  6
 30 31  1  6
 31 54  1  0
 33 32  1  6
 33 34  1  0
 36 33  1  1
 34 35  2  0
 34 43  1  0
 36 37  1  0
 37 38  1  6
 38 39  1  6
 39 40  1  0
 40 41  2  0
 40 42  1  0
 44 43  1  1
 44 45  1  0
 45 46  2  0
 45 53  1  0
 46 47  1  0
 47 48  2  0
 48 49  1  0
 48 52  1  0
 49 50  1  0
 49 51  2  0
 52 53  2  0
 55 54  1  1
 54 59  2  0
 56 55  1  1
 56 57  1  0
 57 58  1  6
 58 60  2  0
 10 61  1  0
 22 62  1  0
 41 63  1  0
 51 64  1  0
M  END
$$$$
