
     RDKit          3D

 64 65  0  0  0  0  0  0  0  0999 V2000
   46.3516  -38.0440  -11.1093 N   0  0  0  0  0  0  0  0  0  0  0  0
   45.0764  -38.5905  -10.7669 C   0  0  2  0  0  0  0  0  0  0  0  0
   44.6390  -38.1946   -9.3644 C   0  0  0  0  0  0  0  0  0  0  0  0
   43.5061  -38.7883   -9.1155 O   0  0  0  0  0  0  0  0  0  0  0  0
   45.0064  -40.1207  -10.8368 C   0  0  0  0  0  0  0  0  0  0  0  0
   44.7274  -40.6564  -12.1831 C   0  0  0  0  0  0  0  0  0  0  0  0
   44.4935  -39.5330  -13.1603 C   0  0  0  0  0  0  0  0  0  0  0  0
   44.4169  -38.2291  -12.6089 N   0  0  0  0  0  0  0  0  0  0  0  0
   44.3877  -37.0492  -13.3888 C   0  0  0  0  0  0  0  0  0  0  0  0
   43.6784  -37.0139  -14.4662 N   0  0  0  0  0  0  0  0  0  0  0  0
   45.1287  -35.8997  -13.0063 N   0  0  0  0  0  0  0  0  0  0  0  0
   45.2368  -37.3796   -8.4342 N   0  0  0  0  0  0  0  0  0  0  0  0
   45.4136  -35.9866   -8.2375 C   0  0  2  0  0  0  0  0  0  0  0  0
   45.8306  -35.6341   -6.8557 C   0  0  0  0  0  0  0  0  0  0  0  0
   45.0835  -34.8403   -6.2264 O   0  0  0  0  0  0  0  0  0  0  0  0
   44.2746  -35.1159   -8.6635 C   0  0  0  0  0  0  0  0  0  0  0  0
   44.4340  -34.4002   -9.9563 C   0  0  0  0  0  0  0  0  0  0  0  0
   45.7653  -34.8461  -10.5830 C   0  0  0  0  0  0  0  0  0  0  0  0
   46.2147  -33.8229  -11.5173 N   0  0  0  0  0  0  0  0  0  0  0  0
   46.9090  -34.1390  -12.7086 C   0  0  0  0  0  0  0  0  0  0  0  0
   48.2836  -33.8327  -12.9330 N   0  0  0  0  0  0  0  0  0  0  0  0
   46.2867  -34.7348  -13.6550 N   0  0  0  0  0  0  0  0  0  0  0  0
   46.9851  -36.1092   -6.1868 N   0  0  0  0  0  0  0  0  0  0  0  0
   48.3416  -36.1043   -6.6530 C   0  0  2  0  0  0  0  0  0  0  0  0
   48.8683  -34.7718   -7.0445 C   0  0  0  0  0  0  0  0  0  0  0  0
   47.9979  -33.9309   -7.4326 O   0  0  0  0  0  0  0  0  0  0  0  0
   48.6463  -37.1364   -7.7104 C   0  0  0  0  0  0  0  0  0  0  0  0
   48.6546  -38.4990   -7.0468 C   0  0  0  0  0  0  0  0  0  0  0  0
   50.0554  -39.0032   -6.8144 C   0  0  0  0  0  0  0  0  0  0  0  0
   50.5687  -39.6318   -8.0916 C   0  0  0  0  0  0  0  0  0  0  0  0
   49.7018  -40.6693   -8.5442 N   0  0  0  0  0  0  0  0  0  0  0  0
   50.2039  -34.3633   -7.0304 N   0  0  0  0  0  0  0  0  0  0  0  0
   50.9067  -33.9685   -5.7526 C   0  0  2  0  0  0  0  0  0  0  0  0
   52.2229  -34.5850   -5.9008 C   0  0  0  0  0  0  0  0  0  0  0  0
   52.3547  -35.7782   -6.2163 O   0  0  0  0  0  0  0  0  0  0  0  0
   50.1072  -34.4566   -4.6288 C   0  0  0  0  0  0  0  0  0  0  0  0
   49.5389  -33.5524   -3.6439 C   0  0  0  0  0  0  0  0  0  0  0  0
   48.8812  -33.9836   -2.4079 C   0  0  0  0  0  0  0  0  0  0  0  0
   49.7942  -34.3604   -1.3447 N   0  0  0  0  0  0  0  0  0  0  0  0
   49.9277  -35.7211   -0.9637 C   0  0  0  0  0  0  0  0  0  0  0  0
   49.7722  -36.1076    0.2675 N   0  0  0  0  0  0  0  0  0  0  0  0
   50.2390  -36.7022   -1.9437 N   0  0  0  0  0  0  0  0  0  0  0  0
   53.4186  -33.8580   -5.6886 N   0  0  0  0  0  0  0  0  0  0  0  0
   54.6125  -34.3596   -5.0687 C   0  0  0  0  0  0  0  0  0  0  0  0
   55.2700  -33.3587   -4.2231 C   0  0  0  0  0  0  0  0  0  0  0  0
   55.3411  -32.0480   -4.6534 C   0  0  0  0  0  0  0  0  0  0  0  0
   55.9297  -31.0726   -3.8559 C   0  0  0  0  0  0  0  0  0  0  0  0
   56.4456  -31.4104   -2.6312 C   0  0  0  0  0  0  0  0  0  0  0  0
   57.0492  -30.3958   -1.8030 C   0  0  0  0  0  0  0  0  0  0  0  0
   56.7840  -30.4132   -0.4125 N   0  0  0  0  0  0  0  0  0  0  0  0
   57.8095  -29.5041   -2.3258 N   0  0  0  0  0  0  0  0  0  0  0  0
   56.3835  -32.7055   -2.1906 C   0  0  0  0  0  0  0  0  0  0  0  0
   55.7880  -33.6807   -3.0018 C   0  0  0  0  0  0  0  0  0  0  0  0
   49.7432  -41.3858   -9.7453 C   0  0  0  0  0  0  0  0  0  0  0  0
   49.9490  -40.8562  -11.1079 C   0  0  0  0  0  0  0  0  0  0  0  0
   49.2802  -39.5375  -11.2453 C   0  0  0  0  0  0  0  0  0  0  0  0
   48.1226  -39.5503  -12.2693 C   0  0  0  0  0  0  0  0  0  0  0  0
   47.2760  -38.3473  -12.0917 C   0  0  0  0  0  0  0  0  0  0  0  0
   49.5834  -42.6563   -9.6517 O   0  0  0  0  0  0  0  0  0  0  0  0
   47.4469  -37.4476  -13.0148 O   0  0  0  0  0  0  0  0  0  0  0  0
   44.1330  -36.9610  -15.3981 H   0  0  0  0  0  0  0  0  0  0  0  0
   45.3030  -34.5507  -13.9068 H   0  0  0  0  0  0  0  0  0  0  0  0
   48.9443  -35.7910    0.8156 H   0  0  0  0  0  0  0  0  0  0  0  0
   57.3968  -28.7316   -2.8581 H   0  0  0  0  0  0  0  0  0  0  0  0
  2  1  1  1
  1 58  1  0
  2  3  1  0
  5  2  1  1
  3  4  2  0
  3 12  1  0
  5  6  1  0
  6  7  1  6
  7  8  1  6
  8  9  1  0
  9 10  2  0
  9 11  1  0
 13 12  1  1
 13 14  1  0
 16 13  1  1
 14 15  2  0
 14 23  1  0
 16 17  1  0
 17 18  1  6
 18 19  1  6
 19 20  1  0
 20 21  1  0
 20 22  2  0
 23 24  1  0
 24 25  1  6
 27 24  1  1
 25 26  2  0
 25 32  1  0
 28 27  1  1
 28 29  1  0
 29 30  1  6
 30 31  1  6
 31 54  1  0
 33 32  1  6
 33 34  1  0
 36 33  1  1
 34 35  2  0
 34 43  1  0
 36 37  1  0
 37 38  1  6
 38 39  1  6
 39 40  1  0
 40 41  2  0
 40 42  1  0
 44 43  1  1
 44 45  1  0
 45 46  2  0
 45 53  1  0
 46 47  1  0
 47 48  2  0
 48 49  1  0
 48 52  1  0
 49 50  1  0
 49 51  2  0
 52 53  2  0
 55 54  1  1
 54 59  2  0
 56 55  1  1
 56 57  1  0
 57 58  1  6
 58 60  2  0
 10 61  1  0
 22 62  1  0
 41 63  1  0
 51 64  1  0
M  END
$$$$
