
     RDKit          3D

 64 65  0  0  0  0  0  0  0  0999 V2000
   50.9996  -33.9060   -4.9933 N   0  0  0  0  0  0  0  0  0  0  0  0
   50.0295  -33.9950   -3.9477 C   0  0  2  0  0  0  0  0  0  0  0  0
   48.8982  -34.9521   -4.2930 C   0  0  0  0  0  0  0  0  0  0  0  0
   48.0337  -34.9186   -3.3186 O   0  0  0  0  0  0  0  0  0  0  0  0
   49.3793  -32.6574   -3.5748 C   0  0  0  0  0  0  0  0  0  0  0  0
   49.6621  -32.2057   -2.1989 C   0  0  0  0  0  0  0  0  0  0  0  0
   50.2674  -33.3241   -1.3899 C   0  0  0  0  0  0  0  0  0  0  0  0
   51.5819  -33.7160   -1.7485 N   0  0  0  0  0  0  0  0  0  0  0  0
   52.3373  -34.6730   -1.0309 C   0  0  0  0  0  0  0  0  0  0  0  0
   51.9204  -35.0826    0.1195 N   0  0  0  0  0  0  0  0  0  0  0  0
   53.5509  -35.1912   -1.5555 N   0  0  0  0  0  0  0  0  0  0  0  0
   48.7036  -35.7526   -5.3922 N   0  0  0  0  0  0  0  0  0  0  0  0
   49.2253  -36.9728   -5.8915 C   0  0  2  0  0  0  0  0  0  0  0  0
   48.3889  -37.5789   -6.9594 C   0  0  0  0  0  0  0  0  0  0  0  0
   47.9649  -38.7454   -6.7497 O   0  0  0  0  0  0  0  0  0  0  0  0
   49.5692  -38.0056   -4.8659 C   0  0  0  0  0  0  0  0  0  0  0  0
   48.4972  -38.3660   -3.9017 C   0  0  0  0  0  0  0  0  0  0  0  0
   47.4021  -37.2901   -3.9878 C   0  0  0  0  0  0  0  0  0  0  0  0
   46.1968  -37.8854   -4.5489 N   0  0  0  0  0  0  0  0  0  0  0  0
   45.6049  -39.0496   -4.0053 C   0  0  0  0  0  0  0  0  0  0  0  0
   46.1310  -39.7612   -2.8871 N   0  0  0  0  0  0  0  0  0  0  0  0
   44.5334  -39.5100   -4.5325 N   0  0  0  0  0  0  0  0  0  0  0  0
   48.0269  -36.9656   -8.1837 N   0  0  0  0  0  0  0  0  0  0  0  0
   48.8853  -36.3330   -9.1431 C   0  0  2  0  0  0  0  0  0  0  0  0
   49.9866  -37.1846   -9.6610 C   0  0  0  0  0  0  0  0  0  0  0  0
   50.8993  -37.4694   -8.8237 O   0  0  0  0  0  0  0  0  0  0  0  0
   49.4018  -34.9779   -8.7270 C   0  0  0  0  0  0  0  0  0  0  0  0
   48.2490  -33.9963   -8.7934 C   0  0  0  0  0  0  0  0  0  0  0  0
   48.3195  -33.1279  -10.0229 C   0  0  0  0  0  0  0  0  0  0  0  0
   49.2700  -31.9804   -9.7590 C   0  0  0  0  0  0  0  0  0  0  0  0
   48.8780  -31.2359   -8.6079 N   0  0  0  0  0  0  0  0  0  0  0  0
   50.1143  -37.6901  -10.9568 N   0  0  0  0  0  0  0  0  0  0  0  0
   48.9202  -37.8824  -11.8623 C   0  0  2  0  0  0  0  0  0  0  0  0
   48.0471  -38.7462  -11.0712 C   0  0  0  0  0  0  0  0  0  0  0  0
   48.2819  -38.9981   -9.8788 O   0  0  0  0  0  0  0  0  0  0  0  0
   49.3968  -38.4546  -13.1216 C   0  0  0  0  0  0  0  0  0  0  0  0
   50.4669  -37.8377  -13.8862 C   0  0  0  0  0  0  0  0  0  0  0  0
   50.2704  -36.7731  -14.8733 C   0  0  0  0  0  0  0  0  0  0  0  0
   51.1931  -35.6604  -14.7444 N   0  0  0  0  0  0  0  0  0  0  0  0
   51.6421  -34.9648  -15.8973 C   0  0  0  0  0  0  0  0  0  0  0  0
   51.3727  -33.7078  -16.0888 N   0  0  0  0  0  0  0  0  0  0  0  0
   52.4100  -35.6466  -16.8797 N   0  0  0  0  0  0  0  0  0  0  0  0
   46.8894  -39.3466  -11.6215 N   0  0  0  0  0  0  0  0  0  0  0  0
   45.5790  -38.7623  -11.6728 C   0  0  0  0  0  0  0  0  0  0  0  0
   44.7548  -39.1280  -10.5170 C   0  0  0  0  0  0  0  0  0  0  0  0
   45.3623  -39.3751   -9.3013 C   0  0  0  0  0  0  0  0  0  0  0  0
   44.6010  -39.6912   -8.1813 C   0  0  0  0  0  0  0  0  0  0  0  0
   43.2351  -39.7596   -8.2802 C   0  0  0  0  0  0  0  0  0  0  0  0
   42.4473  -40.0807   -7.1156 C   0  0  0  0  0  0  0  0  0  0  0  0
   41.0439  -40.1974   -7.2609 N   0  0  0  0  0  0  0  0  0  0  0  0
   43.0170  -40.2567   -5.9795 N   0  0  0  0  0  0  0  0  0  0  0  0
   42.6178  -39.5181   -9.4784 C   0  0  0  0  0  0  0  0  0  0  0  0
   43.3941  -39.2001  -10.6009 C   0  0  0  0  0  0  0  0  0  0  0  0
   49.5624  -30.2052   -7.9546 C   0  0  0  0  0  0  0  0  0  0  0  0
   50.9936  -30.1545   -7.5964 C   0  0  0  0  0  0  0  0  0  0  0  0
   51.4633  -31.5047   -7.1942 C   0  0  0  0  0  0  0  0  0  0  0  0
   51.8989  -31.5770   -5.7131 C   0  0  0  0  0  0  0  0  0  0  0  0
   51.9954  -32.9914   -5.2821 C   0  0  0  0  0  0  0  0  0  0  0  0
   48.8620  -29.1800   -7.6274 O   0  0  0  0  0  0  0  0  0  0  0  0
   53.2177  -33.4195   -5.1657 O   0  0  0  0  0  0  0  0  0  0  0  0
   52.3443  -34.7217    0.9957 H   0  0  0  0  0  0  0  0  0  0  0  0
   43.8273  -38.9287   -5.0105 H   0  0  0  0  0  0  0  0  0  0  0  0
   51.8850  -33.1672  -16.8178 H   0  0  0  0  0  0  0  0  0  0  0  0
   42.4507  -40.4814   -5.1553 H   0  0  0  0  0  0  0  0  0  0  0  0
  2  1  1  6
  1 58  1  0
  2  3  1  0
  5  2  1  1
  3  4  2  0
  3 12  1  0
  5  6  1  0
  6  7  1  6
  7  8  1  6
  8  9  1  0
  9 10  2  0
  9 11  1  0
 13 12  1  1
 13 14  1  0
 16 13  1  1
 14 15  2  0
 14 23  1  0
 16 17  1  0
 17 18  1  6
 18 19  1  6
 19 20  1  0
 20 21  1  0
 20 22  2  0
 23 24  1  0
 24 25  1  1
 27 24  1  1
 25 26  2  0
 25 32  1  0
 28 27  1  1
 28 29  1  0
 29 30  1  6
 30 31  1  6
 31 54  1  0
 33 32  1  1
 33 34  1  0
 36 33  1  1
 34 35  2  0
 34 43  1  0
 36 37  1  0
 37 38  1  6
 38 39  1  6
 39 40  1  0
 40 41  2  0
 40 42  1  0
 44 43  1  1
 44 45  1  0
 45 46  2  0
 45 53  1  0
 46 47  1  0
 47 48  2  0
 48 49  1  0
 48 52  1  0
 49 50  1  0
 49 51  2  0
 52 53  2  0
 55 54  1  1
 54 59  2  0
 56 55  1  1
 56 57  1  0
 57 58  1  6
 58 60  2  0
 10 61  1  0
 22 62  1  0
 41 63  1  0
 51 64  1  0
M  END
$$$$
