
     RDKit          3D

 64 65  0  0  0  0  0  0  0  0999 V2000
   53.7051  -33.7657   -3.5442 N   0  0  0  0  0  0  0  0  0  0  0  0
   53.2758  -35.1309   -3.6800 C   0  0  2  0  0  0  0  0  0  0  0  0
   51.9483  -35.3273   -2.9916 C   0  0  0  0  0  0  0  0  0  0  0  0
   52.0189  -35.0989   -1.7273 O   0  0  0  0  0  0  0  0  0  0  0  0
   54.1533  -36.1297   -2.9684 C   0  0  0  0  0  0  0  0  0  0  0  0
   55.0892  -35.6330   -1.9550 C   0  0  0  0  0  0  0  0  0  0  0  0
   55.2948  -34.1443   -1.9056 C   0  0  0  0  0  0  0  0  0  0  0  0
   56.1372  -33.7960   -0.7758 N   0  0  0  0  0  0  0  0  0  0  0  0
   56.7375  -32.5243   -0.5896 C   0  0  0  0  0  0  0  0  0  0  0  0
   55.9766  -31.4980   -0.4420 N   0  0  0  0  0  0  0  0  0  0  0  0
   58.1391  -32.3211   -0.5547 N   0  0  0  0  0  0  0  0  0  0  0  0
   50.7403  -35.7075   -3.5578 N   0  0  0  0  0  0  0  0  0  0  0  0
   50.0191  -35.1601   -4.6800 C   0  0  2  0  0  0  0  0  0  0  0  0
   49.7469  -36.1503   -5.7550 C   0  0  0  0  0  0  0  0  0  0  0  0
   49.8034  -37.3680   -5.3359 O   0  0  0  0  0  0  0  0  0  0  0  0
   50.4038  -33.8045   -5.1206 C   0  0  0  0  0  0  0  0  0  0  0  0
   49.9963  -32.8001   -4.0505 C   0  0  0  0  0  0  0  0  0  0  0  0
   49.9060  -33.4674   -2.7089 C   0  0  0  0  0  0  0  0  0  0  0  0
   51.2336  -33.7941   -2.2565 N   0  0  0  0  0  0  0  0  0  0  0  0
   51.4990  -33.9679   -0.8708 C   0  0  0  0  0  0  0  0  0  0  0  0
   50.3741  -34.1003   -0.0055 N   0  0  0  0  0  0  0  0  0  0  0  0
   52.6952  -34.0078   -0.3943 N   0  0  0  0  0  0  0  0  0  0  0  0
   49.4509  -35.9415   -7.0941 N   0  0  0  0  0  0  0  0  0  0  0  0
   50.1683  -35.3454   -8.1600 C   0  0  2  0  0  0  0  0  0  0  0  0
   49.9268  -36.0593   -9.4647 C   0  0  0  0  0  0  0  0  0  0  0  0
   50.6366  -37.0553   -9.7851 O   0  0  0  0  0  0  0  0  0  0  0  0
   51.6647  -35.3457   -8.0072 C   0  0  0  0  0  0  0  0  0  0  0  0
   52.3080  -36.5625   -8.6321 C   0  0  0  0  0  0  0  0  0  0  0  0
   53.6196  -36.8016   -7.9172 C   0  0  0  0  0  0  0  0  0  0  0  0
   54.7513  -36.2686   -8.7719 C   0  0  0  0  0  0  0  0  0  0  0  0
   54.4031  -34.9705   -9.3008 N   0  0  0  0  0  0  0  0  0  0  0  0
   48.9113  -35.6043  -10.3028 N   0  0  0  0  0  0  0  0  0  0  0  0
   47.4293  -35.8224   -9.9054 C   0  0  2  0  0  0  0  0  0  0  0  0
   46.8205  -36.2444  -11.1340 C   0  0  0  0  0  0  0  0  0  0  0  0
   47.0895  -35.4058  -12.1404 O   0  0  0  0  0  0  0  0  0  0  0  0
   47.1019  -34.6769   -9.0933 C   0  0  0  0  0  0  0  0  0  0  0  0
   45.8309  -34.4676   -8.4059 C   0  0  0  0  0  0  0  0  0  0  0  0
   45.6494  -33.8064   -7.1176 C   0  0  0  0  0  0  0  0  0  0  0  0
   45.5786  -34.8835   -6.0965 N   0  0  0  0  0  0  0  0  0  0  0  0
   45.4233  -34.5003   -4.7473 C   0  0  0  0  0  0  0  0  0  0  0  0
   45.2958  -33.2316   -4.4890 N   0  0  0  0  0  0  0  0  0  0  0  0
   45.3974  -35.4208   -3.6739 N   0  0  0  0  0  0  0  0  0  0  0  0
   46.0174  -37.2923  -11.5603 N   0  0  0  0  0  0  0  0  0  0  0  0
   44.9900  -37.1889  -12.6204 C   0  0  0  0  0  0  0  0  0  0  0  0
   43.8706  -38.1259  -12.3807 C   0  0  0  0  0  0  0  0  0  0  0  0
   43.9347  -38.9839  -11.2710 C   0  0  0  0  0  0  0  0  0  0  0  0
   42.9151  -39.8679  -11.0054 C   0  0  0  0  0  0  0  0  0  0  0  0
   41.7895  -39.9482  -11.8141 C   0  0  0  0  0  0  0  0  0  0  0  0
   40.7169  -40.8890  -11.5235 C   0  0  0  0  0  0  0  0  0  0  0  0
   39.6468  -41.0648  -12.4685 N   0  0  0  0  0  0  0  0  0  0  0  0
   40.6831  -41.5852  -10.4366 N   0  0  0  0  0  0  0  0  0  0  0  0
   41.7294  -39.1070  -12.8988 C   0  0  0  0  0  0  0  0  0  0  0  0
   42.7658  -38.1984  -13.1814 C   0  0  0  0  0  0  0  0  0  0  0  0
   54.8324  -33.7292   -8.7584 C   0  0  0  0  0  0  0  0  0  0  0  0
   55.6541  -33.6040   -7.5379 C   0  0  0  0  0  0  0  0  0  0  0  0
   54.7503  -33.2185   -6.3761 C   0  0  0  0  0  0  0  0  0  0  0  0
   55.5963  -33.0260   -5.1717 C   0  0  0  0  0  0  0  0  0  0  0  0
   54.9022  -33.1482   -3.8662 C   0  0  0  0  0  0  0  0  0  0  0  0
   54.4947  -32.6705   -9.3520 O   0  0  0  0  0  0  0  0  0  0  0  0
   55.5510  -32.5728   -2.9060 O   0  0  0  0  0  0  0  0  0  0  0  0
   55.2315  -31.2522   -1.1496 H   0  0  0  0  0  0  0  0  0  0  0  0
   52.9417  -34.7815    0.2557 H   0  0  0  0  0  0  0  0  0  0  0  0
   45.4566  -32.8254   -3.5445 H   0  0  0  0  0  0  0  0  0  0  0  0
   41.3211  -42.3928  -10.2894 H   0  0  0  0  0  0  0  0  0  0  0  0
  1  2  1  0
  1 58  1  0
  2  3  1  0
  2  5  1  1
  3  4  2  0
  3 12  1  0
  5  6  1  0
  6  7  1  0
  7  8  1  0
  8  9  1  0
  9 10  2  0
  9 11  1  0
 12 13  1  0
 13 14  1  0
 13 16  1  6
 14 15  2  0
 14 23  1  0
 16 17  1  0
 17 18  1  0
 18 19  1  0
 19 20  1  0
 20 21  1  0
 20 22  2  0
 23 24  1  0
 24 25  1  6
 24 27  1  0
 25 26  2  0
 25 32  1  0
 27 28  1  0
 28 29  1  0
 29 30  1  0
 30 31  1  0
 31 54  1  0
 32 33  1  0
 33 34  1  0
 33 36  1  6
 34 35  2  0
 34 43  1  0
 36 37  1  0
 37 38  1  0
 38 39  1  0
 39 40  1  0
 40 41  2  0
 40 42  1  0
 43 44  1  0
 44 45  1  0
 45 46  2  0
 45 53  1  0
 46 47  1  0
 47 48  2  0
 48 49  1  0
 48 52  1  0
 49 50  1  0
 49 51  2  0
 52 53  2  0
 54 55  1  0
 54 59  2  0
 55 56  1  0
 56 57  1  0
 57 58  1  0
 58 60  2  0
 10 61  1  0
 22 62  1  0
 41 63  1  0
 51 64  1  0
M  END
$$$$
