
     RDKit          3D

 64 65  0  0  0  0  0  0  0  0999 V2000
   44.7790  -35.7048  -10.2436 N   0  0  0  0  0  0  0  0  0  0  0  0
   44.0245  -36.9184  -10.2489 C   0  0  2  0  0  0  0  0  0  0  0  0
   44.8121  -38.0876   -9.6762 C   0  0  0  0  0  0  0  0  0  0  0  0
   44.0754  -39.1571   -9.7823 O   0  0  0  0  0  0  0  0  0  0  0  0
   43.5358  -37.3514  -11.6362 C   0  0  0  0  0  0  0  0  0  0  0  0
   43.8271  -38.7583  -11.9726 C   0  0  0  0  0  0  0  0  0  0  0  0
   44.9489  -39.2848  -11.1148 C   0  0  0  0  0  0  0  0  0  0  0  0
   44.9725  -38.8363   -9.7700 N   0  0  0  0  0  0  0  0  0  0  0  0
   43.9747  -38.0095   -9.2024 C   0  0  0  0  0  0  0  0  0  0  0  0
   44.0654  -37.6585   -7.9640 N   0  0  0  0  0  0  0  0  0  0  0  0
   42.8708  -37.5587   -9.9737 N   0  0  0  0  0  0  0  0  0  0  0  0
   46.0702  -38.1394   -9.1272 N   0  0  0  0  0  0  0  0  0  0  0  0
   46.6835  -37.7685   -7.9039 C   0  0  2  0  0  0  0  0  0  0  0  0
   48.0170  -38.3913   -7.6999 C   0  0  0  0  0  0  0  0  0  0  0  0
   48.1602  -39.0901   -6.6628 O   0  0  0  0  0  0  0  0  0  0  0  0
   45.8483  -37.9391   -6.6751 C   0  0  0  0  0  0  0  0  0  0  0  0
   45.7079  -39.3243   -6.1553 C   0  0  0  0  0  0  0  0  0  0  0  0
   46.9874  -40.0970   -6.5157 C   0  0  0  0  0  0  0  0  0  0  0  0
   47.7745  -40.2992   -5.3068 N   0  0  0  0  0  0  0  0  0  0  0  0
   48.8470  -39.4479   -4.9516 C   0  0  0  0  0  0  0  0  0  0  0  0
   48.7246  -38.3474   -4.0530 N   0  0  0  0  0  0  0  0  0  0  0  0
   50.0048  -39.6584   -5.4546 N   0  0  0  0  0  0  0  0  0  0  0  0
   49.1338  -38.2714   -8.5627 N   0  0  0  0  0  0  0  0  0  0  0  0
   49.7171  -37.0726   -9.0919 C   0  0  2  0  0  0  0  0  0  0  0  0
   50.1386  -36.0751   -8.0753 C   0  0  0  0  0  0  0  0  0  0  0  0
   49.3577  -35.0838   -7.9236 O   0  0  0  0  0  0  0  0  0  0  0  0
   48.9181  -36.4172  -10.1912 C   0  0  0  0  0  0  0  0  0  0  0  0
   49.0364  -37.2776  -11.4334 C   0  0  0  0  0  0  0  0  0  0  0  0
   50.0060  -36.6966  -12.4300 C   0  0  0  0  0  0  0  0  0  0  0  0
   49.2968  -35.6355  -13.2429 C   0  0  0  0  0  0  0  0  0  0  0  0
   48.1347  -36.1607  -13.8806 N   0  0  0  0  0  0  0  0  0  0  0  0
   51.2908  -36.1198   -7.2872 N   0  0  0  0  0  0  0  0  0  0  0  0
   51.4528  -35.2586   -6.0564 C   0  0  2  0  0  0  0  0  0  0  0  0
   51.3251  -33.9037   -6.5878 C   0  0  0  0  0  0  0  0  0  0  0  0
   51.6224  -33.6305   -7.7615 O   0  0  0  0  0  0  0  0  0  0  0  0
   52.7459  -35.5766   -5.4505 C   0  0  0  0  0  0  0  0  0  0  0  0
   53.1516  -36.9464   -5.1871 C   0  0  0  0  0  0  0  0  0  0  0  0
   54.4365  -37.3292   -4.5964 C   0  0  0  0  0  0  0  0  0  0  0  0
   54.4820  -38.6898   -4.0939 N   0  0  0  0  0  0  0  0  0  0  0  0
   55.5708  -39.1213   -3.2921 C   0  0  0  0  0  0  0  0  0  0  0  0
   55.6718  -40.3479   -2.8743 N   0  0  0  0  0  0  0  0  0  0  0  0
   56.5890  -38.1994   -2.9274 N   0  0  0  0  0  0  0  0  0  0  0  0
   50.8605  -32.8284   -5.7933 N   0  0  0  0  0  0  0  0  0  0  0  0
   51.6384  -32.0821   -4.8450 C   0  0  0  0  0  0  0  0  0  0  0  0
   50.9015  -31.8032   -3.6089 C   0  0  0  0  0  0  0  0  0  0  0  0
   51.5400  -31.1542   -2.5700 C   0  0  0  0  0  0  0  0  0  0  0  0
   50.8545  -30.8478   -1.3994 C   0  0  0  0  0  0  0  0  0  0  0  0
   49.5333  -31.1914   -1.2709 C   0  0  0  0  0  0  0  0  0  0  0  0
   48.8227  -30.8663   -0.0588 C   0  0  0  0  0  0  0  0  0  0  0  0
   47.4241  -31.0817   -0.0175 N   0  0  0  0  0  0  0  0  0  0  0  0
   49.4550  -30.3954    0.9534 N   0  0  0  0  0  0  0  0  0  0  0  0
   48.8863  -31.8357   -2.2914 C   0  0  0  0  0  0  0  0  0  0  0  0
   49.5861  -32.1396   -3.4669 C   0  0  0  0  0  0  0  0  0  0  0  0
   47.1404  -35.4797  -14.5914 C   0  0  0  0  0  0  0  0  0  0  0  0
   46.4636  -34.2214  -14.2199 C   0  0  0  0  0  0  0  0  0  0  0  0
   46.2592  -34.1710  -12.7499 C   0  0  0  0  0  0  0  0  0  0  0  0
   44.7673  -34.1785  -12.3462 C   0  0  0  0  0  0  0  0  0  0  0  0
   44.6340  -34.4999  -10.9059 C   0  0  0  0  0  0  0  0  0  0  0  0
   46.7724  -36.0125  -15.7002 O   0  0  0  0  0  0  0  0  0  0  0  0
   44.3355  -33.4723  -10.1670 O   0  0  0  0  0  0  0  0  0  0  0  0
   44.7255  -38.1404   -7.3239 H   0  0  0  0  0  0  0  0  0  0  0  0
   50.2824  -40.5362   -5.9211 H   0  0  0  0  0  0  0  0  0  0  0  0
   54.9244  -41.0399   -3.0949 H   0  0  0  0  0  0  0  0  0  0  0  0
   49.9337  -29.4921    0.8796 H   0  0  0  0  0  0  0  0  0  0  0  0
  2  1  1  6
  1 58  1  0
  2  3  1  0
  5  2  1  1
  3  4  2  0
  3 12  1  0
  5  6  1  0
  6  7  1  6
  7  8  1  6
  8  9  1  0
  9 10  2  0
  9 11  1  0
 13 12  1  6
 13 14  1  0
 16 13  1  1
 14 15  2  0
 14 23  1  0
 16 17  1  0
 17 18  1  6
 18 19  1  6
 19 20  1  0
 20 21  1  0
 20 22  2  0
 23 24  1  0
 24 25  1  1
 27 24  1  1
 25 26  2  0
 25 32  1  0
 28 27  1  1
 28 29  1  0
 29 30  1  6
 30 31  1  6
 31 54  1  0
 33 32  1  6
 33 34  1  0
 36 33  1  1
 34 35  2  0
 34 43  1  0
 36 37  1  0
 37 38  1  6
 38 39  1  6
 39 40  1  0
 40 41  2  0
 40 42  1  0
 44 43  1  1
 44 45  1  0
 45 46  2  0
 45 53  1  0
 46 47  1  0
 47 48  2  0
 48 49  1  0
 48 52  1  0
 49 50  1  0
 49 51  2  0
 52 53  2  0
 55 54  1  1
 54 59  2  0
 56 55  1  1
 56 57  1  0
 57 58  1  6
 58 60  2  0
 10 61  1  0
 22 62  1  0
 41 63  1  0
 51 64  1  0
M  END
$$$$
