
     RDKit          3D

 64 65  0  0  0  0  0  0  0  0999 V2000
   52.8988  -33.4144   -4.0647 N   0  0  0  0  0  0  0  0  0  0  0  0
   52.1564  -34.5709   -3.6428 C   0  0  2  0  0  0  0  0  0  0  0  0
   50.7401  -34.1808   -3.3012 C   0  0  0  0  0  0  0  0  0  0  0  0
   50.6891  -33.3467   -2.3228 O   0  0  0  0  0  0  0  0  0  0  0  0
   52.6389  -35.1786   -2.3498 C   0  0  0  0  0  0  0  0  0  0  0  0
   53.0482  -34.2763   -1.2691 C   0  0  0  0  0  0  0  0  0  0  0  0
   52.9939  -32.8039   -1.5694 C   0  0  0  0  0  0  0  0  0  0  0  0
   53.2778  -32.0407   -0.3676 N   0  0  0  0  0  0  0  0  0  0  0  0
   53.3555  -30.6250   -0.3206 C   0  0  0  0  0  0  0  0  0  0  0  0
   53.3254  -29.9680   -1.4258 N   0  0  0  0  0  0  0  0  0  0  0  0
   53.4628  -29.8894    0.8853 N   0  0  0  0  0  0  0  0  0  0  0  0
   49.5667  -34.6110   -3.9033 N   0  0  0  0  0  0  0  0  0  0  0  0
   49.1752  -34.6192   -5.2911 C   0  0  2  0  0  0  0  0  0  0  0  0
   48.8110  -35.9676   -5.8005 C   0  0  0  0  0  0  0  0  0  0  0  0
   48.4933  -36.7868   -4.8574 O   0  0  0  0  0  0  0  0  0  0  0  0
   49.9532  -33.7614   -6.2068 C   0  0  0  0  0  0  0  0  0  0  0  0
   51.0608  -33.0720   -5.4207 C   0  0  0  0  0  0  0  0  0  0  0  0
   51.0009  -33.4632   -3.9727 C   0  0  0  0  0  0  0  0  0  0  0  0
   49.6956  -33.1456   -3.4540 N   0  0  0  0  0  0  0  0  0  0  0  0
   49.4364  -33.2277   -2.0586 C   0  0  0  0  0  0  0  0  0  0  0  0
   48.6625  -34.3356   -1.6057 N   0  0  0  0  0  0  0  0  0  0  0  0
   49.8720  -32.3517   -1.2205 N   0  0  0  0  0  0  0  0  0  0  0  0
   48.7695  -36.4375   -7.1051 N   0  0  0  0  0  0  0  0  0  0  0  0
   49.7581  -36.5929   -8.1073 C   0  0  2  0  0  0  0  0  0  0  0  0
   49.5267  -37.8315   -8.9337 C   0  0  0  0  0  0  0  0  0  0  0  0
   50.3844  -38.7603   -8.9406 O   0  0  0  0  0  0  0  0  0  0  0  0
   51.1675  -36.7405   -7.6027 C   0  0  0  0  0  0  0  0  0  0  0  0
   51.5575  -38.1861   -7.3951 C   0  0  0  0  0  0  0  0  0  0  0  0
   52.6498  -38.2171   -6.3491 C   0  0  0  0  0  0  0  0  0  0  0  0
   53.9887  -38.3795   -7.0391 C   0  0  0  0  0  0  0  0  0  0  0  0
   54.0637  -37.5050   -8.1862 N   0  0  0  0  0  0  0  0  0  0  0  0
   48.3558  -37.9322   -9.6817 N   0  0  0  0  0  0  0  0  0  0  0  0
   47.6652  -36.6483  -10.2075 C   0  0  2  0  0  0  0  0  0  0  0  0
   46.5293  -37.1574  -10.9208 C   0  0  0  0  0  0  0  0  0  0  0  0
   46.7221  -38.4126  -11.3397 O   0  0  0  0  0  0  0  0  0  0  0  0
   48.7465  -35.8380  -10.7107 C   0  0  0  0  0  0  0  0  0  0  0  0
   48.6024  -34.7341  -11.6555 C   0  0  0  0  0  0  0  0  0  0  0  0
   48.6011  -33.3132  -11.3230 C   0  0  0  0  0  0  0  0  0  0  0  0
   48.8746  -32.5832  -12.5879 N   0  0  0  0  0  0  0  0  0  0  0  0
   47.7691  -32.0992  -13.3193 C   0  0  0  0  0  0  0  0  0  0  0  0
   47.9640  -31.0861  -14.1118 N   0  0  0  0  0  0  0  0  0  0  0  0
   46.4732  -32.6591  -13.2344 N   0  0  0  0  0  0  0  0  0  0  0  0
   45.2786  -36.6924  -11.3006 N   0  0  0  0  0  0  0  0  0  0  0  0
   44.0600  -36.7738  -10.4648 C   0  0  0  0  0  0  0  0  0  0  0  0
   43.5765  -38.1671  -10.3491 C   0  0  0  0  0  0  0  0  0  0  0  0
   42.2856  -38.4735  -10.8084 C   0  0  0  0  0  0  0  0  0  0  0  0
   41.7956  -39.7561  -10.7263 C   0  0  0  0  0  0  0  0  0  0  0  0
   42.5493  -40.7925  -10.1924 C   0  0  0  0  0  0  0  0  0  0  0  0
   42.0194  -42.1462  -10.1095 C   0  0  0  0  0  0  0  0  0  0  0  0
   40.6148  -42.3763  -10.3167 N   0  0  0  0  0  0  0  0  0  0  0  0
   42.7675  -43.1673   -9.8546 N   0  0  0  0  0  0  0  0  0  0  0  0
   43.8124  -40.4897   -9.7442 C   0  0  0  0  0  0  0  0  0  0  0  0
   44.3250  -39.1817   -9.8225 C   0  0  0  0  0  0  0  0  0  0  0  0
   54.7172  -36.2434   -8.2060 C   0  0  0  0  0  0  0  0  0  0  0  0
   55.3639  -35.6323   -7.0274 C   0  0  0  0  0  0  0  0  0  0  0  0
   54.4359  -34.5715   -6.4542 C   0  0  0  0  0  0  0  0  0  0  0  0
   55.1255  -33.9157   -5.3150 C   0  0  0  0  0  0  0  0  0  0  0  0
   54.2473  -33.2405   -4.3280 C   0  0  0  0  0  0  0  0  0  0  0  0
   54.7496  -35.6056   -9.2921 O   0  0  0  0  0  0  0  0  0  0  0  0
   54.8809  -32.3581   -3.6254 O   0  0  0  0  0  0  0  0  0  0  0  0
   53.5557  -28.9376   -1.4664 H   0  0  0  0  0  0  0  0  0  0  0  0
   49.3470  -32.2142   -0.3331 H   0  0  0  0  0  0  0  0  0  0  0  0
   48.9108  -30.7285  -14.3540 H   0  0  0  0  0  0  0  0  0  0  0  0
   42.3804  -44.1320   -9.8344 H   0  0  0  0  0  0  0  0  0  0  0  0
  1  2  1  0
  1 58  1  0
  2  3  1  0
  2  5  1  1
  3  4  2  0
  3 12  1  0
  5  6  1  0
  6  7  1  0
  7  8  1  0
  8  9  1  0
  9 10  2  0
  9 11  1  0
 12 13  1  0
 13 14  1  0
 13 16  1  6
 14 15  2  0
 14 23  1  0
 16 17  1  0
 17 18  1  0
 18 19  1  0
 19 20  1  0
 20 21  1  0
 20 22  2  0
 23 24  1  0
 24 25  1  1
 24 27  1  0
 25 26  2  0
 25 32  1  0
 27 28  1  0
 28 29  1  0
 29 30  1  0
 30 31  1  0
 31 54  1  0
 32 33  1  0
 33 34  1  0
 33 36  1  6
 34 35  2  0
 34 43  1  0
 36 37  1  0
 37 38  1  0
 38 39  1  0
 39 40  1  0
 40 41  2  0
 40 42  1  0
 43 44  1  0
 44 45  1  0
 45 46  2  0
 45 53  1  0
 46 47  1  0
 47 48  2  0
 48 49  1  0
 48 52  1  0
 49 50  1  0
 49 51  2  0
 52 53  2  0
 54 55  1  0
 54 59  2  0
 55 56  1  0
 56 57  1  0
 57 58  1  0
 58 60  2  0
 10 61  1  0
 22 62  1  0
 41 63  1  0
 51 64  1  0
M  END
$$$$
