
     RDKit          3D

 64 65  0  0  0  0  0  0  0  0999 V2000
   52.7279  -33.8554   -3.7795 N   0  0  0  0  0  0  0  0  0  0  0  0
   51.7879  -34.9421   -3.7347 C   0  0  2  0  0  0  0  0  0  0  0  0
   50.4000  -34.4155   -3.4677 C   0  0  0  0  0  0  0  0  0  0  0  0
   50.3165  -33.8234   -2.3284 O   0  0  0  0  0  0  0  0  0  0  0  0
   51.9941  -35.8922   -2.5820 C   0  0  0  0  0  0  0  0  0  0  0  0
   53.3550  -36.3620   -2.3050 C   0  0  0  0  0  0  0  0  0  0  0  0
   54.4410  -35.3223   -2.3319 C   0  0  0  0  0  0  0  0  0  0  0  0
   54.8472  -35.0631   -3.7013 N   0  0  0  0  0  0  0  0  0  0  0  0
   55.8546  -34.1362   -4.0734 C   0  0  0  0  0  0  0  0  0  0  0  0
   55.7788  -32.9311   -3.6305 N   0  0  0  0  0  0  0  0  0  0  0  0
   56.9486  -34.4675   -4.9101 N   0  0  0  0  0  0  0  0  0  0  0  0
   49.2805  -34.5064   -4.2820 N   0  0  0  0  0  0  0  0  0  0  0  0
   49.0969  -34.1420   -5.6650 C   0  0  2  0  0  0  0  0  0  0  0  0
   48.6381  -35.2665   -6.5225 C   0  0  0  0  0  0  0  0  0  0  0  0
   48.0828  -36.2133   -5.8467 O   0  0  0  0  0  0  0  0  0  0  0  0
   50.1048  -33.2382   -6.2541 C   0  0  0  0  0  0  0  0  0  0  0  0
   50.7457  -32.4172   -5.1429 C   0  0  0  0  0  0  0  0  0  0  0  0
   50.2286  -32.8511   -3.8021 C   0  0  0  0  0  0  0  0  0  0  0  0
   51.3230  -33.3669   -3.0210 N   0  0  0  0  0  0  0  0  0  0  0  0
   51.2362  -33.4121   -1.6028 C   0  0  0  0  0  0  0  0  0  0  0  0
   52.4422  -33.6635   -0.8859 N   0  0  0  0  0  0  0  0  0  0  0  0
   50.1277  -33.2359   -0.9708 N   0  0  0  0  0  0  0  0  0  0  0  0
   48.7256  -35.4209   -7.8984 N   0  0  0  0  0  0  0  0  0  0  0  0
   49.8205  -35.5059   -8.7928 C   0  0  2  0  0  0  0  0  0  0  0  0
   49.5521  -36.4754   -9.9146 C   0  0  0  0  0  0  0  0  0  0  0  0
   50.4664  -37.2501  -10.3175 O   0  0  0  0  0  0  0  0  0  0  0  0
   51.1103  -35.9867   -8.1862 C   0  0  0  0  0  0  0  0  0  0  0  0
   51.2742  -37.4857   -8.2927 C   0  0  0  0  0  0  0  0  0  0  0  0
   52.1897  -37.9241   -7.1711 C   0  0  0  0  0  0  0  0  0  0  0  0
   53.5819  -38.1417   -7.7275 C   0  0  0  0  0  0  0  0  0  0  0  0
   53.9359  -37.0572   -8.6133 N   0  0  0  0  0  0  0  0  0  0  0  0
   48.2847  -36.5020  -10.4921 N   0  0  0  0  0  0  0  0  0  0  0  0
   47.0973  -35.8102   -9.7757 C   0  0  2  0  0  0  0  0  0  0  0  0
   46.1658  -36.8831   -9.5773 C   0  0  0  0  0  0  0  0  0  0  0  0
   46.4695  -37.9538  -10.3187 O   0  0  0  0  0  0  0  0  0  0  0  0
   46.9031  -34.5816  -10.5048 C   0  0  0  0  0  0  0  0  0  0  0  0
   47.2835  -34.3594  -11.8969 C   0  0  0  0  0  0  0  0  0  0  0  0
   48.0447  -33.2246  -12.4090 C   0  0  0  0  0  0  0  0  0  0  0  0
   47.1834  -32.5608  -13.4215 N   0  0  0  0  0  0  0  0  0  0  0  0
   47.0706  -33.1703  -14.6892 C   0  0  0  0  0  0  0  0  0  0  0  0
   46.3096  -32.5935  -15.5729 N   0  0  0  0  0  0  0  0  0  0  0  0
   47.7407  -34.3647  -15.0420 N   0  0  0  0  0  0  0  0  0  0  0  0
   45.0235  -37.1079   -8.8228 N   0  0  0  0  0  0  0  0  0  0  0  0
   44.0997  -38.2484   -9.0122 C   0  0  0  0  0  0  0  0  0  0  0  0
   43.6276  -38.7821   -7.7158 C   0  0  0  0  0  0  0  0  0  0  0  0
   42.2692  -38.6495   -7.3860 C   0  0  0  0  0  0  0  0  0  0  0  0
   41.7839  -39.1352   -6.1943 C   0  0  0  0  0  0  0  0  0  0  0  0
   42.6076  -39.7721   -5.2760 C   0  0  0  0  0  0  0  0  0  0  0  0
   42.0826  -40.2812   -4.0169 C   0  0  0  0  0  0  0  0  0  0  0  0
   42.9855  -40.8072   -3.0284 N   0  0  0  0  0  0  0  0  0  0  0  0
   40.8209  -40.2809   -3.7431 N   0  0  0  0  0  0  0  0  0  0  0  0
   43.9362  -39.9009   -5.6018 C   0  0  0  0  0  0  0  0  0  0  0  0
   44.4450  -39.4082   -6.8176 C   0  0  0  0  0  0  0  0  0  0  0  0
   54.7441  -35.9448   -8.2549 C   0  0  0  0  0  0  0  0  0  0  0  0
   55.2869  -35.7239   -6.8995 C   0  0  0  0  0  0  0  0  0  0  0  0
   54.4317  -34.6825   -6.1929 C   0  0  0  0  0  0  0  0  0  0  0  0
   55.0280  -34.4167   -4.8598 C   0  0  0  0  0  0  0  0  0  0  0  0
   54.1114  -33.8463   -3.8422 C   0  0  0  0  0  0  0  0  0  0  0  0
   55.0168  -35.0948   -9.1441 O   0  0  0  0  0  0  0  0  0  0  0  0
   54.7458  -33.2563   -2.8813 O   0  0  0  0  0  0  0  0  0  0  0  0
   56.2613  -32.1281   -4.1190 H   0  0  0  0  0  0  0  0  0  0  0  0
   49.9104  -32.2842   -0.6115 H   0  0  0  0  0  0  0  0  0  0  0  0
   45.8478  -31.6750  -15.4118 H   0  0  0  0  0  0  0  0  0  0  0  0
   40.4481  -40.7643   -2.9016 H   0  0  0  0  0  0  0  0  0  0  0  0
  1  2  1  0
  1 58  1  0
  2  3  1  0
  2  5  1  1
  3  4  2  0
  3 12  1  0
  5  6  1  0
  6  7  1  0
  7  8  1  0
  8  9  1  0
  9 10  2  0
  9 11  1  0
 12 13  1  0
 13 14  1  0
 13 16  1  6
 14 15  2  0
 14 23  1  0
 16 17  1  0
 17 18  1  0
 18 19  1  0
 19 20  1  0
 20 21  1  0
 20 22  2  0
 23 24  1  0
 24 25  1  6
 24 27  1  0
 25 26  2  0
 25 32  1  0
 27 28  1  0
 28 29  1  0
 29 30  1  0
 30 31  1  0
 31 54  1  0
 32 33  1  0
 33 34  1  0
 33 36  1  6
 34 35  2  0
 34 43  1  0
 36 37  1  0
 37 38  1  0
 38 39  1  0
 39 40  1  0
 40 41  2  0
 40 42  1  0
 43 44  1  0
 44 45  1  0
 45 46  2  0
 45 53  1  0
 46 47  1  0
 47 48  2  0
 48 49  1  0
 48 52  1  0
 49 50  1  0
 49 51  2  0
 52 53  2  0
 54 55  1  0
 54 59  2  0
 55 56  1  0
 56 57  1  0
 57 58  1  0
 58 60  2  0
 10 61  1  0
 22 62  1  0
 41 63  1  0
 51 64  1  0
M  END
$$$$
