
     RDKit          3D

 64 65  0  0  0  0  0  0  0  0999 V2000
   49.5501  -32.8803   -4.0416 N   0  0  0  0  0  0  0  0  0  0  0  0
   50.4589  -33.9899   -3.9452 C   0  0  2  0  0  0  0  0  0  0  0  0
   49.9486  -34.9915   -2.9396 C   0  0  0  0  0  0  0  0  0  0  0  0
   49.8669  -34.4924   -1.7564 O   0  0  0  0  0  0  0  0  0  0  0  0
   51.8118  -33.6352   -3.3815 C   0  0  0  0  0  0  0  0  0  0  0  0
   52.0980  -33.9910   -1.9882 C   0  0  0  0  0  0  0  0  0  0  0  0
   51.7596  -35.3960   -1.5728 C   0  0  0  0  0  0  0  0  0  0  0  0
   52.9746  -36.1764   -1.4231 N   0  0  0  0  0  0  0  0  0  0  0  0
   53.0163  -37.4983   -0.9100 C   0  0  0  0  0  0  0  0  0  0  0  0
   53.8958  -37.7865   -0.0172 N   0  0  0  0  0  0  0  0  0  0  0  0
   52.1346  -38.5253   -1.3282 N   0  0  0  0  0  0  0  0  0  0  0  0
   49.5854  -36.3123   -3.1581 N   0  0  0  0  0  0  0  0  0  0  0  0
   48.6725  -36.8859   -4.1157 C   0  0  2  0  0  0  0  0  0  0  0  0
   49.2969  -37.9064   -4.9983 C   0  0  0  0  0  0  0  0  0  0  0  0
   50.3750  -38.4049   -4.4976 O   0  0  0  0  0  0  0  0  0  0  0  0
   47.7148  -35.9633   -4.7570 C   0  0  0  0  0  0  0  0  0  0  0  0
   47.0449  -35.1169   -3.6824 C   0  0  0  0  0  0  0  0  0  0  0  0
   46.8581  -35.9142   -2.4244 C   0  0  0  0  0  0  0  0  0  0  0  0
   45.4523  -36.1551   -2.2254 N   0  0  0  0  0  0  0  0  0  0  0  0
   44.9993  -36.8679   -1.0818 C   0  0  0  0  0  0  0  0  0  0  0  0
   43.9637  -36.2658   -0.3093 N   0  0  0  0  0  0  0  0  0  0  0  0
   45.4874  -38.0097   -0.7391 N   0  0  0  0  0  0  0  0  0  0  0  0
   48.8853  -38.3727   -6.2384 N   0  0  0  0  0  0  0  0  0  0  0  0
   48.7094  -37.7454   -7.4960 C   0  0  2  0  0  0  0  0  0  0  0  0
   49.1049  -38.6517   -8.6330 C   0  0  0  0  0  0  0  0  0  0  0  0
   50.3045  -39.0322   -8.7547 O   0  0  0  0  0  0  0  0  0  0  0  0
   49.5242  -36.4997   -7.7127 C   0  0  0  0  0  0  0  0  0  0  0  0
   50.8579  -36.7886   -8.3631 C   0  0  0  0  0  0  0  0  0  0  0  0
   51.8060  -35.6772   -7.9702 C   0  0  0  0  0  0  0  0  0  0  0  0
   51.9184  -34.6960   -9.1191 C   0  0  0  0  0  0  0  0  0  0  0  0
   50.6094  -34.4177   -9.6622 N   0  0  0  0  0  0  0  0  0  0  0  0
   48.1284  -39.0606   -9.5384 N   0  0  0  0  0  0  0  0  0  0  0  0
   47.6621  -38.0942  -10.6567 C   0  0  2  0  0  0  0  0  0  0  0  0
   46.3443  -38.5678  -10.9688 C   0  0  0  0  0  0  0  0  0  0  0  0
   46.0760  -39.7333  -10.3705 O   0  0  0  0  0  0  0  0  0  0  0  0
   48.8016  -37.9806  -11.5328 C   0  0  0  0  0  0  0  0  0  0  0  0
   49.9222  -38.9153  -11.5823 C   0  0  0  0  0  0  0  0  0  0  0  0
   51.1429  -38.7526  -12.3653 C   0  0  0  0  0  0  0  0  0  0  0  0
   50.9291  -39.4880  -13.6385 N   0  0  0  0  0  0  0  0  0  0  0  0
   50.3569  -38.7810  -14.7174 C   0  0  0  0  0  0  0  0  0  0  0  0
   51.1341  -38.4567  -15.7091 N   0  0  0  0  0  0  0  0  0  0  0  0
   48.9922  -38.4141  -14.7724 N   0  0  0  0  0  0  0  0  0  0  0  0
   45.2686  -38.1419  -11.7343 N   0  0  0  0  0  0  0  0  0  0  0  0
   44.8454  -36.7314  -11.8817 C   0  0  0  0  0  0  0  0  0  0  0  0
   45.4954  -36.0915  -13.0464 C   0  0  0  0  0  0  0  0  0  0  0  0
   44.6861  -35.5100  -14.0355 C   0  0  0  0  0  0  0  0  0  0  0  0
   45.2460  -34.8991  -15.1332 C   0  0  0  0  0  0  0  0  0  0  0  0
   46.6215  -34.8307  -15.3080 C   0  0  0  0  0  0  0  0  0  0  0  0
   47.2029  -34.1824  -16.4750 C   0  0  0  0  0  0  0  0  0  0  0  0
   48.6177  -33.9267  -16.5181 N   0  0  0  0  0  0  0  0  0  0  0  0
   46.4927  -33.8210  -17.4910 N   0  0  0  0  0  0  0  0  0  0  0  0
   47.4109  -35.4001  -14.3382 C   0  0  0  0  0  0  0  0  0  0  0  0
   46.8504  -36.0281  -13.2107 C   0  0  0  0  0  0  0  0  0  0  0  0
   49.8281  -33.2713   -9.3548 C   0  0  0  0  0  0  0  0  0  0  0  0
   50.2351  -32.2325   -8.3873 C   0  0  0  0  0  0  0  0  0  0  0  0
   49.4908  -32.4617   -7.0802 C   0  0  0  0  0  0  0  0  0  0  0  0
   49.8535  -31.3716   -6.1403 C   0  0  0  0  0  0  0  0  0  0  0  0
   49.6572  -31.6663   -4.6995 C   0  0  0  0  0  0  0  0  0  0  0  0
   48.7221  -33.1287   -9.9413 O   0  0  0  0  0  0  0  0  0  0  0  0
   49.5778  -30.5926   -3.9820 O   0  0  0  0  0  0  0  0  0  0  0  0
   53.9705  -38.7556    0.3970 H   0  0  0  0  0  0  0  0  0  0  0  0
   45.5243  -38.7649   -1.4534 H   0  0  0  0  0  0  0  0  0  0  0  0
   52.0782  -38.8711  -15.8497 H   0  0  0  0  0  0  0  0  0  0  0  0
   46.9342  -33.5390  -18.3889 H   0  0  0  0  0  0  0  0  0  0  0  0
  1  2  1  0
  1 58  1  0
  2  3  1  0
  2  5  1  1
  3  4  2  0
  3 12  1  0
  5  6  1  0
  6  7  1  0
  7  8  1  0
  8  9  1  0
  9 10  2  0
  9 11  1  0
 12 13  1  0
 13 14  1  0
 13 16  1  6
 14 15  2  0
 14 23  1  0
 16 17  1  0
 17 18  1  0
 18 19  1  0
 19 20  1  0
 20 21  1  0
 20 22  2  0
 23 24  1  0
 24 25  1  6
 24 27  1  0
 25 26  2  0
 25 32  1  0
 27 28  1  0
 28 29  1  0
 29 30  1  0
 30 31  1  0
 31 54  1  0
 32 33  1  0
 33 34  1  0
 33 36  1  6
 34 35  2  0
 34 43  1  0
 36 37  1  0
 37 38  1  0
 38 39  1  0
 39 40  1  0
 40 41  2  0
 40 42  1  0
 43 44  1  0
 44 45  1  0
 45 46  2  0
 45 53  1  0
 46 47  1  0
 47 48  2  0
 48 49  1  0
 48 52  1  0
 49 50  1  0
 49 51  2  0
 52 53  2  0
 54 55  1  0
 54 59  2  0
 55 56  1  0
 56 57  1  0
 57 58  1  0
 58 60  2  0
 10 61  1  0
 22 62  1  0
 41 63  1  0
 51 64  1  0
M  END
$$$$
