
     RDKit          3D

 64 65  0  0  0  0  0  0  0  0999 V2000
   53.7302  -33.7718   -2.3628 N   0  0  0  0  0  0  0  0  0  0  0  0
   53.0256  -35.0183   -2.4910 C   0  0  2  0  0  0  0  0  0  0  0  0
   51.7312  -34.9632   -1.7187 C   0  0  0  0  0  0  0  0  0  0  0  0
   51.9251  -34.7901   -0.4585 O   0  0  0  0  0  0  0  0  0  0  0  0
   53.7249  -36.1932   -1.8551 C   0  0  0  0  0  0  0  0  0  0  0  0
   54.8277  -35.9250   -0.9269 C   0  0  0  0  0  0  0  0  0  0  0  0
   54.6163  -34.8104    0.0601 C   0  0  0  0  0  0  0  0  0  0  0  0
   55.8025  -34.6405    0.8795 N   0  0  0  0  0  0  0  0  0  0  0  0
   56.2302  -33.3994    1.4173 C   0  0  0  0  0  0  0  0  0  0  0  0
   55.3656  -32.4584    1.5620 N   0  0  0  0  0  0  0  0  0  0  0  0
   57.5664  -33.1382    1.8089 N   0  0  0  0  0  0  0  0  0  0  0  0
   50.4384  -35.0762   -2.2090 N   0  0  0  0  0  0  0  0  0  0  0  0
   49.7748  -34.3628   -3.2719 C   0  0  2  0  0  0  0  0  0  0  0  0
   49.2413  -35.2467   -4.3417 C   0  0  0  0  0  0  0  0  0  0  0  0
   49.0758  -36.4623   -3.9463 O   0  0  0  0  0  0  0  0  0  0  0  0
   50.3981  -33.1002   -3.7160 C   0  0  0  0  0  0  0  0  0  0  0  0
   50.2815  -32.0696   -2.6007 C   0  0  0  0  0  0  0  0  0  0  0  0
   49.2880  -32.5197   -1.5693 C   0  0  0  0  0  0  0  0  0  0  0  0
   49.9916  -33.1542   -0.4848 N   0  0  0  0  0  0  0  0  0  0  0  0
   51.1415  -32.5410    0.0834 C   0  0  0  0  0  0  0  0  0  0  0  0
   52.2530  -33.3857    0.3706 N   0  0  0  0  0  0  0  0  0  0  0  0
   51.2002  -31.2792    0.3358 N   0  0  0  0  0  0  0  0  0  0  0  0
   48.9111  -34.9442   -5.6547 N   0  0  0  0  0  0  0  0  0  0  0  0
   49.6668  -34.4742   -6.7566 C   0  0  2  0  0  0  0  0  0  0  0  0
   49.2051  -35.0871   -8.0533 C   0  0  0  0  0  0  0  0  0  0  0  0
   49.5114  -34.5487   -9.1554 O   0  0  0  0  0  0  0  0  0  0  0  0
   51.1386  -34.7800   -6.7040 C   0  0  0  0  0  0  0  0  0  0  0  0
   51.4820  -36.0829   -7.3893 C   0  0  0  0  0  0  0  0  0  0  0  0
   52.7597  -36.6014   -6.7671 C   0  0  0  0  0  0  0  0  0  0  0  0
   53.9205  -36.2827   -7.6870 C   0  0  0  0  0  0  0  0  0  0  0  0
   53.8105  -34.9264   -8.1712 N   0  0  0  0  0  0  0  0  0  0  0  0
   48.4419  -36.2519   -8.0129 N   0  0  0  0  0  0  0  0  0  0  0  0
   47.7641  -36.7736   -9.3052 C   0  0  2  0  0  0  0  0  0  0  0  0
   46.3704  -36.5361   -9.0616 C   0  0  0  0  0  0  0  0  0  0  0  0
   46.0219  -36.8416   -7.8072 O   0  0  0  0  0  0  0  0  0  0  0  0
   48.4229  -38.0271   -9.5766 C   0  0  0  0  0  0  0  0  0  0  0  0
   49.8197  -38.3269   -9.2750 C   0  0  0  0  0  0  0  0  0  0  0  0
   50.9653  -38.0344  -10.1302 C   0  0  0  0  0  0  0  0  0  0  0  0
   51.9706  -39.0965   -9.8675 N   0  0  0  0  0  0  0  0  0  0  0  0
   52.2692  -39.9922  -10.9162 C   0  0  0  0  0  0  0  0  0  0  0  0
   51.3000  -40.7255  -11.3806 N   0  0  0  0  0  0  0  0  0  0  0  0
   53.5581  -40.1275  -11.4822 N   0  0  0  0  0  0  0  0  0  0  0  0
   45.2784  -36.0775   -9.7840 N   0  0  0  0  0  0  0  0  0  0  0  0
   44.3939  -36.9319  -10.6073 C   0  0  0  0  0  0  0  0  0  0  0  0
   44.4662  -36.5634  -12.0382 C   0  0  0  0  0  0  0  0  0  0  0  0
   43.5300  -37.1178  -12.9257 C   0  0  0  0  0  0  0  0  0  0  0  0
   43.5551  -36.8001  -14.2636 C   0  0  0  0  0  0  0  0  0  0  0  0
   44.4968  -35.9255  -14.7886 C   0  0  0  0  0  0  0  0  0  0  0  0
   44.5144  -35.5975  -16.2071 C   0  0  0  0  0  0  0  0  0  0  0  0
   43.6402  -36.2954  -17.1114 N   0  0  0  0  0  0  0  0  0  0  0  0
   45.2928  -34.6919  -16.6980 N   0  0  0  0  0  0  0  0  0  0  0  0
   45.4113  -35.3842  -13.9175 C   0  0  0  0  0  0  0  0  0  0  0  0
   45.3962  -35.7013  -12.5468 C   0  0  0  0  0  0  0  0  0  0  0  0
   54.5152  -33.8131   -7.6394 C   0  0  0  0  0  0  0  0  0  0  0  0
   55.4195  -33.8908   -6.4745 C   0  0  0  0  0  0  0  0  0  0  0  0
   54.6866  -33.3649   -5.2492 C   0  0  0  0  0  0  0  0  0  0  0  0
   55.6272  -33.3813   -4.1011 C   0  0  0  0  0  0  0  0  0  0  0  0
   55.0052  -33.3988   -2.7542 C   0  0  0  0  0  0  0  0  0  0  0  0
   54.3629  -32.6914   -8.1926 O   0  0  0  0  0  0  0  0  0  0  0  0
   55.8155  -32.9936   -1.8306 O   0  0  0  0  0  0  0  0  0  0  0  0
   55.6340  -31.5111    1.9454 H   0  0  0  0  0  0  0  0  0  0  0  0
   50.3086  -30.7482    0.4066 H   0  0  0  0  0  0  0  0  0  0  0  0
   50.3410  -40.7214  -10.9767 H   0  0  0  0  0  0  0  0  0  0  0  0
   46.0122  -34.2202  -16.1143 H   0  0  0  0  0  0  0  0  0  0  0  0
  1  2  1  0
  1 58  1  0
  2  3  1  0
  2  5  1  1
  3  4  2  0
  3 12  1  0
  5  6  1  0
  6  7  1  0
  7  8  1  0
  8  9  1  0
  9 10  2  0
  9 11  1  0
 12 13  1  0
 13 14  1  0
 13 16  1  6
 14 15  2  0
 14 23  1  0
 16 17  1  0
 17 18  1  0
 18 19  1  0
 19 20  1  0
 20 21  1  0
 20 22  2  0
 23 24  1  0
 24 25  1  6
 24 27  1  0
 25 26  2  0
 25 32  1  0
 27 28  1  0
 28 29  1  0
 29 30  1  0
 30 31  1  0
 31 54  1  0
 32 33  1  0
 33 34  1  0
 33 36  1  1
 34 35  2  0
 34 43  1  0
 36 37  1  0
 37 38  1  0
 38 39  1  0
 39 40  1  0
 40 41  2  0
 40 42  1  0
 43 44  1  0
 44 45  1  0
 45 46  2  0
 45 53  1  0
 46 47  1  0
 47 48  2  0
 48 49  1  0
 48 52  1  0
 49 50  1  0
 49 51  2  0
 52 53  2  0
 54 55  1  0
 54 59  2  0
 55 56  1  0
 56 57  1  0
 57 58  1  0
 58 60  2  0
 10 61  1  0
 22 62  1  0
 41 63  1  0
 51 64  1  0
M  END
$$$$
