
     RDKit          3D

 64 65  0  0  0  0  0  0  0  0999 V2000
   48.5859  -34.9971   -6.7364 N   0  0  0  0  0  0  0  0  0  0  0  0
   47.4928  -34.1416   -6.3970 C   0  0  2  0  0  0  0  0  0  0  0  0
   46.2065  -34.5447   -7.1027 C   0  0  0  0  0  0  0  0  0  0  0  0
   45.2878  -33.6758   -6.7883 O   0  0  0  0  0  0  0  0  0  0  0  0
   47.7277  -32.6606   -6.7172 C   0  0  0  0  0  0  0  0  0  0  0  0
   48.2212  -31.8624   -5.5784 C   0  0  0  0  0  0  0  0  0  0  0  0
   47.2891  -31.9900   -4.4010 C   0  0  0  0  0  0  0  0  0  0  0  0
   47.4490  -33.1476   -3.5982 N   0  0  0  0  0  0  0  0  0  0  0  0
   48.7009  -33.6054   -3.1242 C   0  0  0  0  0  0  0  0  0  0  0  0
   48.7709  -34.7246   -2.4857 N   0  0  0  0  0  0  0  0  0  0  0  0
   49.8853  -32.8518   -3.3382 N   0  0  0  0  0  0  0  0  0  0  0  0
   45.9353  -35.5975   -7.9423 N   0  0  0  0  0  0  0  0  0  0  0  0
   45.7220  -36.9938   -7.8187 C   0  0  2  0  0  0  0  0  0  0  0  0
   45.1003  -37.6045   -9.0220 C   0  0  0  0  0  0  0  0  0  0  0  0
   44.0097  -38.2085   -8.8483 O   0  0  0  0  0  0  0  0  0  0  0  0
   44.9960  -37.4384   -6.5891 C   0  0  0  0  0  0  0  0  0  0  0  0
   43.6581  -36.8354   -6.3540 C   0  0  0  0  0  0  0  0  0  0  0  0
   43.3053  -35.9746   -7.5782 C   0  0  0  0  0  0  0  0  0  0  0  0
   43.3434  -36.8099   -8.7710 N   0  0  0  0  0  0  0  0  0  0  0  0
   44.5189  -37.4759   -9.1904 C   0  0  0  0  0  0  0  0  0  0  0  0
   45.5863  -36.8402   -9.8904 N   0  0  0  0  0  0  0  0  0  0  0  0
   44.6539  -38.7234   -8.9382 N   0  0  0  0  0  0  0  0  0  0  0  0
   45.6205  -37.5670  -10.3389 N   0  0  0  0  0  0  0  0  0  0  0  0
   46.9399  -37.9185  -10.7783 C   0  0  2  0  0  0  0  0  0  0  0  0
   47.3749  -39.2948  -10.4278 C   0  0  0  0  0  0  0  0  0  0  0  0
   47.6209  -40.0593  -11.4128 O   0  0  0  0  0  0  0  0  0  0  0  0
   48.0074  -36.9107  -10.4304 C   0  0  0  0  0  0  0  0  0  0  0  0
   47.8074  -35.6933  -11.3106 C   0  0  0  0  0  0  0  0  0  0  0  0
   48.7961  -35.6520  -12.4470 C   0  0  0  0  0  0  0  0  0  0  0  0
   50.0968  -35.0643  -11.9444 C   0  0  0  0  0  0  0  0  0  0  0  0
   49.8961  -33.7742  -11.3714 N   0  0  0  0  0  0  0  0  0  0  0  0
   47.5333  -39.8202   -9.1434 N   0  0  0  0  0  0  0  0  0  0  0  0
   48.8518  -39.7542   -8.4086 C   0  0  2  0  0  0  0  0  0  0  0  0
   49.3511  -38.4254   -8.7540 C   0  0  0  0  0  0  0  0  0  0  0  0
   48.8709  -37.7694   -9.6919 O   0  0  0  0  0  0  0  0  0  0  0  0
   49.6776  -40.8733   -8.8625 C   0  0  0  0  0  0  0  0  0  0  0  0
   50.0581  -41.0278  -10.2560 C   0  0  0  0  0  0  0  0  0  0  0  0
   50.9559  -42.0716  -10.7570 C   0  0  0  0  0  0  0  0  0  0  0  0
   50.2883  -43.3028  -11.1369 N   0  0  0  0  0  0  0  0  0  0  0  0
   49.6336  -43.4049  -12.3921 C   0  0  0  0  0  0  0  0  0  0  0  0
   48.9030  -44.4338  -12.7035 N   0  0  0  0  0  0  0  0  0  0  0  0
   49.7692  -42.3611  -13.3470 N   0  0  0  0  0  0  0  0  0  0  0  0
   50.4117  -37.8156   -8.0422 N   0  0  0  0  0  0  0  0  0  0  0  0
   50.7892  -38.0965   -6.6858 C   0  0  0  0  0  0  0  0  0  0  0  0
   51.8619  -37.2193   -6.2076 C   0  0  0  0  0  0  0  0  0  0  0  0
   51.6081  -35.8735   -6.0267 C   0  0  0  0  0  0  0  0  0  0  0  0
   52.5983  -35.0257   -5.5424 C   0  0  0  0  0  0  0  0  0  0  0  0
   53.8390  -35.5256   -5.2409 C   0  0  0  0  0  0  0  0  0  0  0  0
   54.8621  -34.6456   -4.7322 C   0  0  0  0  0  0  0  0  0  0  0  0
   54.5249  -33.2946   -4.4765 N   0  0  0  0  0  0  0  0  0  0  0  0
   56.0468  -35.0893   -4.5179 N   0  0  0  0  0  0  0  0  0  0  0  0
   54.1067  -36.8571   -5.4154 C   0  0  0  0  0  0  0  0  0  0  0  0
   53.1018  -37.7030   -5.9037 C   0  0  0  0  0  0  0  0  0  0  0  0
   50.8064  -32.9728  -10.6737 C   0  0  0  0  0  0  0  0  0  0  0  0
   51.7454  -33.3846   -9.6116 C   0  0  0  0  0  0  0  0  0  0  0  0
   51.1189  -34.4248   -8.7568 C   0  0  0  0  0  0  0  0  0  0  0  0
   50.9001  -33.9587   -7.2995 C   0  0  0  0  0  0  0  0  0  0  0  0
   49.9572  -34.8717   -6.6119 C   0  0  0  0  0  0  0  0  0  0  0  0
   50.8281  -31.7300  -10.9956 O   0  0  0  0  0  0  0  0  0  0  0  0
   50.5312  -35.6735   -5.7643 O   0  0  0  0  0  0  0  0  0  0  0  0
   48.0707  -34.9636   -1.7575 H   0  0  0  0  0  0  0  0  0  0  0  0
   45.2123  -39.3731   -9.5135 H   0  0  0  0  0  0  0  0  0  0  0  0
   48.2429  -44.8383  -12.0057 H   0  0  0  0  0  0  0  0  0  0  0  0
   56.7091  -34.5294   -3.9716 H   0  0  0  0  0  0  0  0  0  0  0  0
  2  1  1  6
  1 58  1  0
  2  3  1  0
  5  2  1  1
  3  4  2  0
  3 12  1  0
  5  6  1  0
  6  7  1  6
  7  8  1  6
  8  9  1  0
  9 10  2  0
  9 11  1  0
 13 12  1  6
 13 14  1  0
 16 13  1  1
 14 15  2  0
 14 23  1  0
 16 17  1  0
 17 18  1  6
 18 19  1  6
 19 20  1  0
 20 21  1  0
 20 22  2  0
 23 24  1  0
 24 25  1  1
 27 24  1  1
 25 26  2  0
 25 32  1  0
 28 27  1  1
 28 29  1  0
 29 30  1  6
 30 31  1  6
 31 54  1  0
 33 32  1  6
 33 34  1  0
 36 33  1  1
 34 35  2  0
 34 43  1  0
 36 37  1  0
 37 38  1  6
 38 39  1  6
 39 40  1  0
 40 41  2  0
 40 42  1  0
 44 43  1  1
 44 45  1  0
 45 46  2  0
 45 53  1  0
 46 47  1  0
 47 48  2  0
 48 49  1  0
 48 52  1  0
 49 50  1  0
 49 51  2  0
 52 53  2  0
 55 54  1  1
 54 59  2  0
 56 55  1  1
 56 57  1  0
 57 58  1  6
 58 60  2  0
 10 61  1  0
 22 62  1  0
 41 63  1  0
 51 64  1  0
M  END
$$$$
