
     RDKit          3D

 64 65  0  0  0  0  0  0  0  0999 V2000
   52.2050  -35.7331   -5.8873 N   0  0  0  0  0  0  0  0  0  0  0  0
   51.9765  -36.0836   -4.5209 C   0  0  2  0  0  0  0  0  0  0  0  0
   50.4947  -36.2118   -4.2002 C   0  0  0  0  0  0  0  0  0  0  0  0
   50.3808  -36.4653   -2.9272 O   0  0  0  0  0  0  0  0  0  0  0  0
   52.5643  -35.0930   -3.5088 C   0  0  0  0  0  0  0  0  0  0  0  0
   53.9838  -35.3276   -3.1813 C   0  0  0  0  0  0  0  0  0  0  0  0
   54.3721  -36.7478   -3.5032 C   0  0  0  0  0  0  0  0  0  0  0  0
   55.6799  -36.9385   -4.0164 N   0  0  0  0  0  0  0  0  0  0  0  0
   56.8473  -36.4416   -3.3904 C   0  0  0  0  0  0  0  0  0  0  0  0
   57.9830  -36.5293   -3.9966 N   0  0  0  0  0  0  0  0  0  0  0  0
   56.7911  -35.8473   -2.1018 N   0  0  0  0  0  0  0  0  0  0  0  0
   49.3886  -36.0982   -5.0068 N   0  0  0  0  0  0  0  0  0  0  0  0
   48.7377  -36.8852   -5.9904 C   0  0  2  0  0  0  0  0  0  0  0  0
   47.3549  -36.4311   -6.2890 C   0  0  0  0  0  0  0  0  0  0  0  0
   46.4358  -37.2746   -6.1216 O   0  0  0  0  0  0  0  0  0  0  0  0
   48.7498  -38.3627   -5.7594 C   0  0  0  0  0  0  0  0  0  0  0  0
   49.3386  -38.8291   -4.4770 C   0  0  0  0  0  0  0  0  0  0  0  0
   49.0748  -37.7491   -3.4148 C   0  0  0  0  0  0  0  0  0  0  0  0
   50.3476  -37.1819   -2.9904 N   0  0  0  0  0  0  0  0  0  0  0  0
   50.5012  -36.5084   -1.7559 C   0  0  0  0  0  0  0  0  0  0  0  0
   50.5982  -37.1696   -0.4961 N   0  0  0  0  0  0  0  0  0  0  0  0
   50.5583  -35.2299   -1.7445 N   0  0  0  0  0  0  0  0  0  0  0  0
   46.9802  -35.1421   -6.7409 N   0  0  0  0  0  0  0  0  0  0  0  0
   47.5174  -34.4021   -7.8460 C   0  0  2  0  0  0  0  0  0  0  0  0
   47.4642  -35.0994   -9.1564 C   0  0  0  0  0  0  0  0  0  0  0  0
   48.1139  -36.1897   -9.2237 O   0  0  0  0  0  0  0  0  0  0  0  0
   48.8857  -33.8147   -7.6031 C   0  0  0  0  0  0  0  0  0  0  0  0
   48.7353  -32.6631   -6.6293 C   0  0  0  0  0  0  0  0  0  0  0  0
   48.7977  -31.3272   -7.3236 C   0  0  0  0  0  0  0  0  0  0  0  0
   50.2483  -30.9501   -7.5320 C   0  0  0  0  0  0  0  0  0  0  0  0
   50.9639  -30.9387   -6.2989 N   0  0  0  0  0  0  0  0  0  0  0  0
   46.7841  -34.6778  -10.3011 N   0  0  0  0  0  0  0  0  0  0  0  0
   46.8063  -35.4748  -11.5845 C   0  0  2  0  0  0  0  0  0  0  0  0
   46.7483  -36.8558  -11.1115 C   0  0  0  0  0  0  0  0  0  0  0  0
   47.6760  -37.3647  -10.4627 O   0  0  0  0  0  0  0  0  0  0  0  0
   48.0185  -35.1127  -12.3193 C   0  0  0  0  0  0  0  0  0  0  0  0
   48.1240  -35.2912  -13.7571 C   0  0  0  0  0  0  0  0  0  0  0  0
   49.3885  -35.3160  -14.4966 C   0  0  0  0  0  0  0  0  0  0  0  0
   49.8823  -34.0067  -14.8810 N   0  0  0  0  0  0  0  0  0  0  0  0
   50.8738  -33.8826  -15.8890 C   0  0  0  0  0  0  0  0  0  0  0  0
   51.8362  -34.7470  -16.0154 N   0  0  0  0  0  0  0  0  0  0  0  0
   50.8275  -32.7886  -16.7951 N   0  0  0  0  0  0  0  0  0  0  0  0
   45.6346  -37.6900  -11.3706 N   0  0  0  0  0  0  0  0  0  0  0  0
   45.6759  -39.1075  -11.5946 C   0  0  0  0  0  0  0  0  0  0  0  0
   44.3433  -39.7180  -11.5803 C   0  0  0  0  0  0  0  0  0  0  0  0
   44.2096  -41.0624  -11.8682 C   0  0  0  0  0  0  0  0  0  0  0  0
   42.9611  -41.6736  -11.8290 C   0  0  0  0  0  0  0  0  0  0  0  0
   41.8502  -40.9391  -11.5025 C   0  0  0  0  0  0  0  0  0  0  0  0
   40.5575  -41.5767  -11.4556 C   0  0  0  0  0  0  0  0  0  0  0  0
   40.4209  -42.8684  -12.0187 N   0  0  0  0  0  0  0  0  0  0  0  0
   39.5619  -40.9779  -10.9110 N   0  0  0  0  0  0  0  0  0  0  0  0
   41.9659  -39.6052  -11.2151 C   0  0  0  0  0  0  0  0  0  0  0  0
   43.2287  -38.9990  -11.2572 C   0  0  0  0  0  0  0  0  0  0  0  0
   52.3379  -30.7859   -6.0830 C   0  0  0  0  0  0  0  0  0  0  0  0
   53.4457  -31.4367   -6.8100 C   0  0  0  0  0  0  0  0  0  0  0  0
   53.0689  -32.8279   -7.1676 C   0  0  0  0  0  0  0  0  0  0  0  0
   53.9438  -33.8909   -6.4651 C   0  0  0  0  0  0  0  0  0  0  0  0
   53.2987  -35.2214   -6.5607 C   0  0  0  0  0  0  0  0  0  0  0  0
   52.6763  -29.9832   -5.1398 O   0  0  0  0  0  0  0  0  0  0  0  0
   53.8652  -36.0157   -7.4205 O   0  0  0  0  0  0  0  0  0  0  0  0
   58.8649  -36.6270   -3.4576 H   0  0  0  0  0  0  0  0  0  0  0  0
   49.9864  -34.6195   -2.3490 H   0  0  0  0  0  0  0  0  0  0  0  0
   52.4735  -34.9425  -15.2143 H   0  0  0  0  0  0  0  0  0  0  0  0
   38.6809  -41.4818  -10.7680 H   0  0  0  0  0  0  0  0  0  0  0  0
  2  1  1  6
  1 58  1  0
  2  3  1  0
  5  2  1  1
  3  4  2  0
  3 12  1  0
  5  6  1  0
  6  7  1  6
  7  8  1  6
  8  9  1  0
  9 10  2  0
  9 11  1  0
 13 12  1  1
 13 14  1  0
 16 13  1  1
 14 15  2  0
 14 23  1  0
 16 17  1  0
 17 18  1  6
 18 19  1  6
 19 20  1  0
 20 21  1  0
 20 22  2  0
 23 24  1  0
 24 25  1  6
 27 24  1  1
 25 26  2  0
 25 32  1  0
 28 27  1  1
 28 29  1  0
 29 30  1  6
 30 31  1  6
 31 54  1  0
 33 32  1  1
 33 34  1  0
 36 33  1  1
 34 35  2  0
 34 43  1  0
 36 37  1  0
 37 38  1  6
 38 39  1  6
 39 40  1  0
 40 41  2  0
 40 42  1  0
 44 43  1  1
 44 45  1  0
 45 46  2  0
 45 53  1  0
 46 47  1  0
 47 48  2  0
 48 49  1  0
 48 52  1  0
 49 50  1  0
 49 51  2  0
 52 53  2  0
 55 54  1  1
 54 59  2  0
 56 55  1  1
 56 57  1  0
 57 58  1  6
 58 60  2  0
 10 61  1  0
 22 62  1  0
 41 63  1  0
 51 64  1  0
M  END
$$$$
