
     RDKit          3D

 64 65  0  0  0  0  0  0  0  0999 V2000
   51.9460  -35.8449   -5.8890 N   0  0  0  0  0  0  0  0  0  0  0  0
   50.8461  -34.9842   -6.2294 C   0  0  2  0  0  0  0  0  0  0  0  0
   51.3577  -33.7211   -6.8757 C   0  0  0  0  0  0  0  0  0  0  0  0
   52.1114  -33.0420   -6.0842 O   0  0  0  0  0  0  0  0  0  0  0  0
   50.0883  -34.4482   -5.0409 C   0  0  0  0  0  0  0  0  0  0  0  0
   50.8475  -34.0841   -3.8406 C   0  0  0  0  0  0  0  0  0  0  0  0
   51.1806  -32.6271   -3.6752 C   0  0  0  0  0  0  0  0  0  0  0  0
   51.8159  -32.4054   -2.3889 N   0  0  0  0  0  0  0  0  0  0  0  0
   52.9144  -33.1586   -1.9006 C   0  0  0  0  0  0  0  0  0  0  0  0
   54.0216  -32.5503   -1.6593 N   0  0  0  0  0  0  0  0  0  0  0  0
   52.8582  -34.5536   -1.6602 N   0  0  0  0  0  0  0  0  0  0  0  0
   51.1060  -33.2551   -8.1579 N   0  0  0  0  0  0  0  0  0  0  0  0
   51.2511  -33.9067   -9.4360 C   0  0  2  0  0  0  0  0  0  0  0  0
   49.9949  -33.9499  -10.2299 C   0  0  0  0  0  0  0  0  0  0  0  0
   49.1418  -33.0570   -9.8606 O   0  0  0  0  0  0  0  0  0  0  0  0
   52.0908  -35.1205   -9.4722 C   0  0  0  0  0  0  0  0  0  0  0  0
   53.2811  -34.9290   -8.5415 C   0  0  0  0  0  0  0  0  0  0  0  0
   52.9977  -33.8479   -7.5394 C   0  0  0  0  0  0  0  0  0  0  0  0
   54.2122  -33.5320   -6.8331 N   0  0  0  0  0  0  0  0  0  0  0  0
   54.2116  -32.5514   -5.8038 C   0  0  0  0  0  0  0  0  0  0  0  0
   52.9972  -31.8371   -5.5879 N   0  0  0  0  0  0  0  0  0  0  0  0
   55.2504  -32.3022   -5.0839 N   0  0  0  0  0  0  0  0  0  0  0  0
   49.6382  -34.7909  -11.2739 N   0  0  0  0  0  0  0  0  0  0  0  0
   49.4581  -36.1927  -11.3661 C   0  0  2  0  0  0  0  0  0  0  0  0
   48.3218  -36.5509  -12.2886 C   0  0  0  0  0  0  0  0  0  0  0  0
   48.4426  -37.5106  -13.1028 O   0  0  0  0  0  0  0  0  0  0  0  0
   49.1197  -36.8838  -10.0736 C   0  0  0  0  0  0  0  0  0  0  0  0
   47.6285  -36.9936   -9.8514 C   0  0  0  0  0  0  0  0  0  0  0  0
   47.3965  -37.0878   -8.3595 C   0  0  0  0  0  0  0  0  0  0  0  0
   47.1467  -38.5357   -7.9899 C   0  0  0  0  0  0  0  0  0  0  0  0
   48.0971  -39.3895   -8.6636 N   0  0  0  0  0  0  0  0  0  0  0  0
   47.1438  -35.8102  -12.2243 N   0  0  0  0  0  0  0  0  0  0  0  0
   46.4023  -35.6589  -10.8718 C   0  0  2  0  0  0  0  0  0  0  0  0
   45.0208  -35.6345  -11.2579 C   0  0  0  0  0  0  0  0  0  0  0  0
   44.8255  -34.9276  -12.3762 O   0  0  0  0  0  0  0  0  0  0  0  0
   47.1497  -34.6506  -10.1621 C   0  0  0  0  0  0  0  0  0  0  0  0
   47.9688  -34.8879   -8.9770 C   0  0  0  0  0  0  0  0  0  0  0  0
   47.7169  -35.8879   -7.9445 C   0  0  0  0  0  0  0  0  0  0  0  0
   48.8524  -35.8046   -6.9898 N   0  0  0  0  0  0  0  0  0  0  0  0
   48.6217  -35.1755   -5.7479 C   0  0  0  0  0  0  0  0  0  0  0  0
   49.4823  -34.2839   -5.3516 N   0  0  0  0  0  0  0  0  0  0  0  0
   47.5095  -35.4635   -4.9233 N   0  0  0  0  0  0  0  0  0  0  0  0
   43.8241  -36.1453  -10.7766 N   0  0  0  0  0  0  0  0  0  0  0  0
   43.3569  -37.5342  -10.9838 C   0  0  0  0  0  0  0  0  0  0  0  0
   43.6276  -38.3774   -9.7988 C   0  0  0  0  0  0  0  0  0  0  0  0
   44.3798  -37.8367   -8.7436 C   0  0  0  0  0  0  0  0  0  0  0  0
   44.6518  -38.5814   -7.6197 C   0  0  0  0  0  0  0  0  0  0  0  0
   44.1977  -39.8860   -7.4810 C   0  0  0  0  0  0  0  0  0  0  0  0
   44.4929  -40.6651   -6.2869 C   0  0  0  0  0  0  0  0  0  0  0  0
   45.4467  -40.1707   -5.3304 N   0  0  0  0  0  0  0  0  0  0  0  0
   43.9264  -41.7996   -6.0437 N   0  0  0  0  0  0  0  0  0  0  0  0
   43.4614  -40.4121   -8.5150 C   0  0  0  0  0  0  0  0  0  0  0  0
   43.1765  -39.6607   -9.6699 C   0  0  0  0  0  0  0  0  0  0  0  0
   49.2785  -39.9153   -8.0746 C   0  0  0  0  0  0  0  0  0  0  0  0
   49.7200  -39.6083   -6.6992 C   0  0  0  0  0  0  0  0  0  0  0  0
   50.8252  -38.5643   -6.7610 C   0  0  0  0  0  0  0  0  0  0  0  0
   51.3095  -38.3165   -5.3799 C   0  0  0  0  0  0  0  0  0  0  0  0
   51.9941  -37.0193   -5.1565 C   0  0  0  0  0  0  0  0  0  0  0  0
   49.9940  -40.6907   -8.7633 O   0  0  0  0  0  0  0  0  0  0  0  0
   52.7441  -37.0317   -4.1023 O   0  0  0  0  0  0  0  0  0  0  0  0
   54.2160  -31.5811   -2.0324 H   0  0  0  0  0  0  0  0  0  0  0  0
   56.1555  -32.7358   -5.3572 H   0  0  0  0  0  0  0  0  0  0  0  0
   50.1705  -33.8355   -5.9905 H   0  0  0  0  0  0  0  0  0  0  0  0
   43.9824  -42.2440   -5.1056 H   0  0  0  0  0  0  0  0  0  0  0  0
  1  2  1  0
  1 58  1  0
  2  3  1  0
  2  5  1  1
  3  4  2  0
  3 12  1  0
  5  6  1  0
  6  7  1  0
  7  8  1  0
  8  9  1  0
  9 10  2  0
  9 11  1  0
 12 13  1  0
 13 14  1  0
 13 16  1  1
 14 15  2  0
 14 23  1  0
 16 17  1  0
 17 18  1  0
 18 19  1  0
 19 20  1  0
 20 21  1  0
 20 22  2  0
 23 24  1  0
 24 25  1  6
 24 27  1  0
 25 26  2  0
 25 32  1  0
 27 28  1  0
 28 29  1  0
 29 30  1  0
 30 31  1  0
 31 54  1  0
 32 33  1  0
 33 34  1  0
 33 36  1  6
 34 35  2  0
 34 43  1  0
 36 37  1  0
 37 38  1  0
 38 39  1  0
 39 40  1  0
 40 41  2  0
 40 42  1  0
 43 44  1  0
 44 45  1  0
 45 46  2  0
 45 53  1  0
 46 47  1  0
 47 48  2  0
 48 49  1  0
 48 52  1  0
 49 50  1  0
 49 51  2  0
 52 53  2  0
 54 55  1  0
 54 59  2  0
 55 56  1  0
 56 57  1  0
 57 58  1  0
 58 60  2  0
 10 61  1  0
 22 62  1  0
 41 63  1  0
 51 64  1  0
M  END
$$$$
