
     RDKit          3D

 64 65  0  0  0  0  0  0  0  0999 V2000
   46.1775  -35.2252   -7.6089 N   0  0  0  0  0  0  0  0  0  0  0  0
   46.4071  -35.3872   -6.2077 C   0  0  2  0  0  0  0  0  0  0  0  0
   47.5696  -36.3258   -5.9203 C   0  0  0  0  0  0  0  0  0  0  0  0
   47.6617  -36.4653   -4.6280 O   0  0  0  0  0  0  0  0  0  0  0  0
   45.2009  -35.9253   -5.4289 C   0  0  0  0  0  0  0  0  0  0  0  0
   45.0500  -35.3608   -4.0740 C   0  0  0  0  0  0  0  0  0  0  0  0
   46.1976  -34.4368   -3.7563 C   0  0  0  0  0  0  0  0  0  0  0  0
   46.6469  -33.6090   -4.8160 N   0  0  0  0  0  0  0  0  0  0  0  0
   47.6820  -32.6544   -4.6795 C   0  0  0  0  0  0  0  0  0  0  0  0
   48.8767  -32.9486   -5.0685 N   0  0  0  0  0  0  0  0  0  0  0  0
   47.4289  -31.3745   -4.1187 N   0  0  0  0  0  0  0  0  0  0  0  0
   48.4318  -36.9737   -6.7711 N   0  0  0  0  0  0  0  0  0  0  0  0
   49.5512  -36.6312   -7.5710 C   0  0  2  0  0  0  0  0  0  0  0  0
   50.3408  -37.8086   -8.0158 C   0  0  0  0  0  0  0  0  0  0  0  0
   51.5572  -37.8265   -7.6930 O   0  0  0  0  0  0  0  0  0  0  0  0
   50.4641  -35.5893   -7.0073 C   0  0  0  0  0  0  0  0  0  0  0  0
   51.2015  -35.9529   -5.7692 C   0  0  0  0  0  0  0  0  0  0  0  0
   50.3284  -36.9336   -4.9691 C   0  0  0  0  0  0  0  0  0  0  0  0
   49.3289  -36.1789   -4.2253 N   0  0  0  0  0  0  0  0  0  0  0  0
   49.5640  -35.6991   -2.9154 C   0  0  0  0  0  0  0  0  0  0  0  0
   50.8562  -35.3730   -2.4080 N   0  0  0  0  0  0  0  0  0  0  0  0
   48.5733  -35.5411   -2.1208 N   0  0  0  0  0  0  0  0  0  0  0  0
   49.8503  -38.9065   -8.7644 N   0  0  0  0  0  0  0  0  0  0  0  0
   49.1048  -38.8784   -9.9894 C   0  0  2  0  0  0  0  0  0  0  0  0
   49.7552  -38.1463  -11.1062 C   0  0  0  0  0  0  0  0  0  0  0  0
   48.9668  -37.5339  -11.8928 O   0  0  0  0  0  0  0  0  0  0  0  0
   47.6630  -38.4604   -9.8381 C   0  0  0  0  0  0  0  0  0  0  0  0
   46.9157  -39.5913   -9.1603 C   0  0  0  0  0  0  0  0  0  0  0  0
   46.0947  -40.3899  -10.1396 C   0  0  0  0  0  0  0  0  0  0  0  0
   44.7818  -39.6756  -10.3761 C   0  0  0  0  0  0  0  0  0  0  0  0
   44.0817  -39.4583   -9.1532 N   0  0  0  0  0  0  0  0  0  0  0  0
   51.1244  -38.0705  -11.3714 N   0  0  0  0  0  0  0  0  0  0  0  0
   52.0141  -37.0492  -10.7021 C   0  0  2  0  0  0  0  0  0  0  0  0
   52.3374  -36.1335  -11.7936 C   0  0  0  0  0  0  0  0  0  0  0  0
   51.4613  -35.4758  -12.3771 O   0  0  0  0  0  0  0  0  0  0  0  0
   53.1532  -37.7573  -10.1178 C   0  0  0  0  0  0  0  0  0  0  0  0
   54.0790  -37.1010   -9.2108 C   0  0  0  0  0  0  0  0  0  0  0  0
   55.2977  -37.7194   -8.6830 C   0  0  0  0  0  0  0  0  0  0  0  0
   55.2171  -38.1023   -7.2856 N   0  0  0  0  0  0  0  0  0  0  0  0
   56.3048  -38.7664   -6.6608 C   0  0  0  0  0  0  0  0  0  0  0  0
   56.2829  -39.0838   -5.4005 N   0  0  0  0  0  0  0  0  0  0  0  0
   57.4583  -39.1022   -7.4201 N   0  0  0  0  0  0  0  0  0  0  0  0
   53.6650  -35.9498  -12.2486 N   0  0  0  0  0  0  0  0  0  0  0  0
   54.1581  -36.2604  -13.5607 C   0  0  0  0  0  0  0  0  0  0  0  0
   54.4650  -35.0603  -14.3446 C   0  0  0  0  0  0  0  0  0  0  0  0
   55.7144  -34.9256  -14.9182 C   0  0  0  0  0  0  0  0  0  0  0  0
   56.0204  -33.8129  -15.6942 C   0  0  0  0  0  0  0  0  0  0  0  0
   55.0767  -32.8384  -15.8941 C   0  0  0  0  0  0  0  0  0  0  0  0
   55.3941  -31.6888  -16.7051 C   0  0  0  0  0  0  0  0  0  0  0  0
   56.6289  -31.6709  -17.3973 N   0  0  0  0  0  0  0  0  0  0  0  0
   54.5670  -30.7118  -16.7915 N   0  0  0  0  0  0  0  0  0  0  0  0
   53.8338  -32.9568  -15.3318 C   0  0  0  0  0  0  0  0  0  0  0  0
   53.5356  -34.0821  -14.5518 C   0  0  0  0  0  0  0  0  0  0  0  0
   42.9186  -38.7137   -8.9283 C   0  0  0  0  0  0  0  0  0  0  0  0
   42.5899  -37.3708   -9.4461 C   0  0  0  0  0  0  0  0  0  0  0  0
   43.8138  -36.5307   -9.4887 C   0  0  0  0  0  0  0  0  0  0  0  0
   43.7499  -35.3201   -8.5300 C   0  0  0  0  0  0  0  0  0  0  0  0
   45.1050  -34.7513   -8.3415 C   0  0  0  0  0  0  0  0  0  0  0  0
   42.0301  -39.2642   -8.1825 O   0  0  0  0  0  0  0  0  0  0  0  0
   45.2941  -33.6317   -8.9751 O   0  0  0  0  0  0  0  0  0  0  0  0
   49.1026  -33.9026   -5.4098 H   0  0  0  0  0  0  0  0  0  0  0  0
   47.6284  -35.9196   -2.2913 H   0  0  0  0  0  0  0  0  0  0  0  0
   55.3897  -39.3739   -4.9487 H   0  0  0  0  0  0  0  0  0  0  0  0
   54.9187  -29.7519  -16.8648 H   0  0  0  0  0  0  0  0  0  0  0  0
  2  1  1  6
  1 58  1  0
  2  3  1  0
  5  2  1  1
  3  4  2  0
  3 12  1  0
  5  6  1  0
  6  7  1  6
  7  8  1  6
  8  9  1  0
  9 10  2  0
  9 11  1  0
 13 12  1  1
 13 14  1  0
 16 13  1  1
 14 15  2  0
 14 23  1  0
 16 17  1  0
 17 18  1  6
 18 19  1  6
 19 20  1  0
 20 21  1  0
 20 22  2  0
 23 24  1  0
 24 25  1  6
 27 24  1  1
 25 26  2  0
 25 32  1  0
 28 27  1  1
 28 29  1  0
 29 30  1  6
 30 31  1  6
 31 54  1  0
 33 32  1  6
 33 34  1  0
 36 33  1  1
 34 35  2  0
 34 43  1  0
 36 37  1  0
 37 38  1  6
 38 39  1  6
 39 40  1  0
 40 41  2  0
 40 42  1  0
 44 43  1  1
 44 45  1  0
 45 46  2  0
 45 53  1  0
 46 47  1  0
 47 48  2  0
 48 49  1  0
 48 52  1  0
 49 50  1  0
 49 51  2  0
 52 53  2  0
 55 54  1  1
 54 59  2  0
 56 55  1  1
 56 57  1  0
 57 58  1  6
 58 60  2  0
 10 61  1  0
 22 62  1  0
 41 63  1  0
 51 64  1  0
M  END
$$$$
