
     RDKit          3D

 64 65  0  0  0  0  0  0  0  0999 V2000
   52.2045  -33.9863   -5.2955 N   0  0  0  0  0  0  0  0  0  0  0  0
   51.1514  -34.7972   -4.7478 C   0  0  2  0  0  0  0  0  0  0  0  0
   50.0108  -33.9237   -4.2884 C   0  0  0  0  0  0  0  0  0  0  0  0
   50.3650  -33.1166   -3.3510 O   0  0  0  0  0  0  0  0  0  0  0  0
   51.5249  -35.5241   -3.4805 C   0  0  0  0  0  0  0  0  0  0  0  0
   52.8180  -35.2186   -2.8607 C   0  0  0  0  0  0  0  0  0  0  0  0
   52.7769  -34.6692   -1.4615 C   0  0  0  0  0  0  0  0  0  0  0  0
   51.5691  -35.1123   -0.7889 N   0  0  0  0  0  0  0  0  0  0  0  0
   51.2605  -34.8291    0.5665 C   0  0  0  0  0  0  0  0  0  0  0  0
   51.4644  -33.6394    1.0105 N   0  0  0  0  0  0  0  0  0  0  0  0
   50.7340  -35.7906    1.4638 N   0  0  0  0  0  0  0  0  0  0  0  0
   48.7032  -33.9126   -4.7514 N   0  0  0  0  0  0  0  0  0  0  0  0
   48.1859  -33.7944   -6.0921 C   0  0  2  0  0  0  0  0  0  0  0  0
   47.3150  -34.9289   -6.4979 C   0  0  0  0  0  0  0  0  0  0  0  0
   46.8324  -35.5711   -5.4899 O   0  0  0  0  0  0  0  0  0  0  0  0
   49.1128  -33.2802   -7.1198 C   0  0  0  0  0  0  0  0  0  0  0  0
   50.5187  -33.2233   -6.5368 C   0  0  0  0  0  0  0  0  0  0  0  0
   50.6436  -34.1601   -5.3705 C   0  0  0  0  0  0  0  0  0  0  0  0
   50.9913  -33.4035   -4.1955 N   0  0  0  0  0  0  0  0  0  0  0  0
   51.2271  -34.0634   -2.9586 C   0  0  0  0  0  0  0  0  0  0  0  0
   50.4173  -35.1987   -2.6634 N   0  0  0  0  0  0  0  0  0  0  0  0
   52.1278  -33.6717   -2.1252 N   0  0  0  0  0  0  0  0  0  0  0  0
   46.9684  -35.3661   -7.7681 N   0  0  0  0  0  0  0  0  0  0  0  0
   47.7229  -35.8744   -8.8536 C   0  0  2  0  0  0  0  0  0  0  0  0
   46.9798  -36.9569   -9.5928 C   0  0  0  0  0  0  0  0  0  0  0  0
   46.6823  -38.0372   -9.0072 O   0  0  0  0  0  0  0  0  0  0  0  0
   49.0347  -36.5103   -8.4829 C   0  0  0  0  0  0  0  0  0  0  0  0
   48.9078  -37.9978   -8.2451 C   0  0  0  0  0  0  0  0  0  0  0  0
   50.0251  -38.4062   -7.3108 C   0  0  0  0  0  0  0  0  0  0  0  0
   51.1365  -39.0429   -8.1200 C   0  0  0  0  0  0  0  0  0  0  0  0
   51.3911  -38.2644   -9.3096 N   0  0  0  0  0  0  0  0  0  0  0  0
   46.6276  -36.7431  -10.9235 N   0  0  0  0  0  0  0  0  0  0  0  0
   45.3442  -37.3973  -11.4951 C   0  0  2  0  0  0  0  0  0  0  0  0
   45.8507  -38.5151  -12.2382 C   0  0  0  0  0  0  0  0  0  0  0  0
   47.0450  -38.2560  -12.7812 O   0  0  0  0  0  0  0  0  0  0  0  0
   44.5575  -36.2882  -11.9746 C   0  0  0  0  0  0  0  0  0  0  0  0
   44.9288  -34.8807  -11.8602 C   0  0  0  0  0  0  0  0  0  0  0  0
   44.3023  -33.7668  -12.5648 C   0  0  0  0  0  0  0  0  0  0  0  0
   45.2220  -32.6082  -12.4254 N   0  0  0  0  0  0  0  0  0  0  0  0
   46.4517  -32.6589  -13.1157 C   0  0  0  0  0  0  0  0  0  0  0  0
   46.4682  -32.2588  -14.3536 N   0  0  0  0  0  0  0  0  0  0  0  0
   47.6552  -33.1170  -12.5311 N   0  0  0  0  0  0  0  0  0  0  0  0
   45.4291  -39.7990  -12.5521 N   0  0  0  0  0  0  0  0  0  0  0  0
   44.5524  -40.6304  -11.6974 C   0  0  0  0  0  0  0  0  0  0  0  0
   45.3399  -41.4393  -10.7414 C   0  0  0  0  0  0  0  0  0  0  0  0
   46.7329  -41.5086  -10.9035 C   0  0  0  0  0  0  0  0  0  0  0  0
   47.5064  -42.2438  -10.0359 C   0  0  0  0  0  0  0  0  0  0  0  0
   46.9489  -42.9409   -8.9725 C   0  0  0  0  0  0  0  0  0  0  0  0
   47.7779  -43.7170   -8.0611 C   0  0  0  0  0  0  0  0  0  0  0  0
   49.1903  -43.8347   -8.3065 N   0  0  0  0  0  0  0  0  0  0  0  0
   47.2933  -44.3141   -7.0240 N   0  0  0  0  0  0  0  0  0  0  0  0
   45.5856  -42.8707   -8.8162 C   0  0  0  0  0  0  0  0  0  0  0  0
   44.7833  -42.1221   -9.6969 C   0  0  0  0  0  0  0  0  0  0  0  0
   52.4425  -37.3196   -9.4540 C   0  0  0  0  0  0  0  0  0  0  0  0
   53.3876  -36.9680   -8.3752 C   0  0  0  0  0  0  0  0  0  0  0  0
   52.9633  -35.6400   -7.7656 C   0  0  0  0  0  0  0  0  0  0  0  0
   53.9597  -35.2623   -6.7322 C   0  0  0  0  0  0  0  0  0  0  0  0
   53.4901  -34.3081   -5.6976 C   0  0  0  0  0  0  0  0  0  0  0  0
   52.5804  -36.7465  -10.5675 O   0  0  0  0  0  0  0  0  0  0  0  0
   54.4674  -33.7031   -5.1036 O   0  0  0  0  0  0  0  0  0  0  0  0
   51.5145  -33.4335    2.0456 H   0  0  0  0  0  0  0  0  0  0  0  0
   52.6766  -34.3940   -1.6163 H   0  0  0  0  0  0  0  0  0  0  0  0
   46.1296  -32.8445  -15.1443 H   0  0  0  0  0  0  0  0  0  0  0  0
   47.8562  -44.9972   -6.4787 H   0  0  0  0  0  0  0  0  0  0  0  0
  1  2  1  0
  1 58  1  0
  2  3  1  0
  2  5  1  1
  3  4  2  0
  3 12  1  0
  5  6  1  0
  6  7  1  0
  7  8  1  0
  8  9  1  0
  9 10  2  0
  9 11  1  0
 12 13  1  0
 13 14  1  0
 13 16  1  6
 14 15  2  0
 14 23  1  0
 16 17  1  0
 17 18  1  0
 18 19  1  0
 19 20  1  0
 20 21  1  0
 20 22  2  0
 23 24  1  0
 24 25  1  1
 24 27  1  0
 25 26  2  0
 25 32  1  0
 27 28  1  0
 28 29  1  0
 29 30  1  0
 30 31  1  0
 31 54  1  0
 32 33  1  0
 33 34  1  0
 33 36  1  6
 34 35  2  0
 34 43  1  0
 36 37  1  0
 37 38  1  0
 38 39  1  0
 39 40  1  0
 40 41  2  0
 40 42  1  0
 43 44  1  0
 44 45  1  0
 45 46  2  0
 45 53  1  0
 46 47  1  0
 47 48  2  0
 48 49  1  0
 48 52  1  0
 49 50  1  0
 49 51  2  0
 52 53  2  0
 54 55  1  0
 54 59  2  0
 55 56  1  0
 56 57  1  0
 57 58  1  0
 58 60  2  0
 10 61  1  0
 22 62  1  0
 41 63  1  0
 51 64  1  0
M  END
$$$$
