
     RDKit          3D

 64 65  0  0  0  0  0  0  0  0999 V2000
   50.7216  -35.4151   -5.2437 N   0  0  0  0  0  0  0  0  0  0  0  0
   49.8969  -34.2678   -5.0301 C   0  0  2  0  0  0  0  0  0  0  0  0
   48.8580  -34.0940   -6.1281 C   0  0  0  0  0  0  0  0  0  0  0  0
   48.2013  -32.9945   -5.8879 O   0  0  0  0  0  0  0  0  0  0  0  0
   50.6674  -32.9455   -4.9366 C   0  0  0  0  0  0  0  0  0  0  0  0
   50.4390  -32.1948   -3.6869 C   0  0  0  0  0  0  0  0  0  0  0  0
   49.9088  -33.1083   -2.6118 C   0  0  0  0  0  0  0  0  0  0  0  0
   50.3192  -34.4635   -2.6829 N   0  0  0  0  0  0  0  0  0  0  0  0
   51.5274  -34.9463   -2.1273 C   0  0  0  0  0  0  0  0  0  0  0  0
   52.4315  -35.4444   -2.9015 N   0  0  0  0  0  0  0  0  0  0  0  0
   51.7627  -34.8934   -0.7278 N   0  0  0  0  0  0  0  0  0  0  0  0
   48.5697  -34.8726   -7.2225 N   0  0  0  0  0  0  0  0  0  0  0  0
   47.9094  -36.1016   -7.4753 C   0  0  2  0  0  0  0  0  0  0  0  0
   47.5642  -36.3023   -8.9064 C   0  0  0  0  0  0  0  0  0  0  0  0
   46.3479  -36.4870   -9.1726 O   0  0  0  0  0  0  0  0  0  0  0  0
   46.7188  -36.3930   -6.6185 C   0  0  0  0  0  0  0  0  0  0  0  0
   46.8994  -36.2268   -5.1527 C   0  0  0  0  0  0  0  0  0  0  0  0
   48.4072  -36.1205   -4.8708 C   0  0  0  0  0  0  0  0  0  0  0  0
   49.1250  -36.0947   -6.1380 N   0  0  0  0  0  0  0  0  0  0  0  0
   50.5309  -35.9544   -6.2081 C   0  0  0  0  0  0  0  0  0  0  0  0
   51.4340  -37.0506   -6.3358 N   0  0  0  0  0  0  0  0  0  0  0  0
   51.0453  -34.7838   -6.1549 N   0  0  0  0  0  0  0  0  0  0  0  0
   48.4749  -36.3030   -9.9913 N   0  0  0  0  0  0  0  0  0  0  0  0
   49.6895  -37.0542  -10.1252 C   0  0  2  0  0  0  0  0  0  0  0  0
   49.5390  -38.5253   -9.9862 C   0  0  0  0  0  0  0  0  0  0  0  0
   50.4427  -39.1069   -9.3076 O   0  0  0  0  0  0  0  0  0  0  0  0
   50.8370  -36.5480   -9.2866 C   0  0  0  0  0  0  0  0  0  0  0  0
   51.3233  -35.2473   -9.8939 C   0  0  0  0  0  0  0  0  0  0  0  0
   52.5937  -35.4348  -10.6824 C   0  0  0  0  0  0  0  0  0  0  0  0
   53.7691  -35.4195   -9.7296 C   0  0  0  0  0  0  0  0  0  0  0  0
   53.7973  -34.2198   -8.9595 N   0  0  0  0  0  0  0  0  0  0  0  0
   48.5203  -39.3162  -10.5224 N   0  0  0  0  0  0  0  0  0  0  0  0
   47.0669  -38.9109  -10.4443 C   0  0  2  0  0  0  0  0  0  0  0  0
   46.9018  -38.0617  -11.6216 C   0  0  0  0  0  0  0  0  0  0  0  0
   47.3591  -36.9087  -11.6660 O   0  0  0  0  0  0  0  0  0  0  0  0
   46.8518  -38.2494   -9.1573 C   0  0  0  0  0  0  0  0  0  0  0  0
   47.2668  -38.8579   -7.9051 C   0  0  0  0  0  0  0  0  0  0  0  0
   46.6177  -38.6176   -6.6139 C   0  0  0  0  0  0  0  0  0  0  0  0
   45.4860  -37.7112   -6.6730 N   0  0  0  0  0  0  0  0  0  0  0  0
   45.6873  -36.3295   -6.9276 C   0  0  0  0  0  0  0  0  0  0  0  0
   46.2658  -35.5495   -6.0637 N   0  0  0  0  0  0  0  0  0  0  0  0
   45.2510  -35.7664   -8.1574 N   0  0  0  0  0  0  0  0  0  0  0  0
   46.2080  -38.5046  -12.7731 N   0  0  0  0  0  0  0  0  0  0  0  0
   44.7856  -38.4739  -12.9652 C   0  0  0  0  0  0  0  0  0  0  0  0
   44.3683  -39.1666  -14.1879 C   0  0  0  0  0  0  0  0  0  0  0  0
   44.9069  -40.4035  -14.4845 C   0  0  0  0  0  0  0  0  0  0  0  0
   44.5036  -41.0968  -15.6205 C   0  0  0  0  0  0  0  0  0  0  0  0
   43.5635  -40.5514  -16.4565 C   0  0  0  0  0  0  0  0  0  0  0  0
   43.1416  -41.2754  -17.6303 C   0  0  0  0  0  0  0  0  0  0  0  0
   43.9083  -42.3897  -18.0482 N   0  0  0  0  0  0  0  0  0  0  0  0
   42.0921  -40.9098  -18.2715 N   0  0  0  0  0  0  0  0  0  0  0  0
   43.0204  -39.3258  -16.1768 C   0  0  0  0  0  0  0  0  0  0  0  0
   43.4336  -38.6356  -15.0293 C   0  0  0  0  0  0  0  0  0  0  0  0
   54.6256  -33.8883   -7.8816 C   0  0  0  0  0  0  0  0  0  0  0  0
   54.9864  -34.7319   -6.7251 C   0  0  0  0  0  0  0  0  0  0  0  0
   53.8253  -35.5669   -6.3252 C   0  0  0  0  0  0  0  0  0  0  0  0
   53.2921  -35.2256   -4.9153 C   0  0  0  0  0  0  0  0  0  0  0  0
   51.9429  -35.8091   -4.7291 C   0  0  0  0  0  0  0  0  0  0  0  0
   55.1333  -32.7091   -7.9004 O   0  0  0  0  0  0  0  0  0  0  0  0
   51.9289  -36.8567   -3.9588 O   0  0  0  0  0  0  0  0  0  0  0  0
   53.1736  -36.0622   -2.5202 H   0  0  0  0  0  0  0  0  0  0  0  0
   51.8915  -34.4993   -6.6727 H   0  0  0  0  0  0  0  0  0  0  0  0
   46.5420  -35.9170   -5.1284 H   0  0  0  0  0  0  0  0  0  0  0  0
   41.6871  -39.9841  -18.0997 H   0  0  0  0  0  0  0  0  0  0  0  0
  2  1  1  6
  1 58  1  0
  2  3  1  0
  5  2  1  1
  3  4  2  0
  3 12  1  0
  5  6  1  0
  6  7  1  6
  7  8  1  6
  8  9  1  0
  9 10  2  0
  9 11  1  0
 13 12  1  6
 13 14  1  0
 16 13  1  1
 14 15  2  0
 14 23  1  0
 16 17  1  0
 17 18  1  6
 18 19  1  6
 19 20  1  0
 20 21  1  0
 20 22  2  0
 23 24  1  0
 24 25  1  1
 27 24  1  1
 25 26  2  0
 25 32  1  0
 28 27  1  1
 28 29  1  0
 29 30  1  6
 30 31  1  6
 31 54  1  0
 33 32  1  1
 33 34  1  0
 36 33  1  1
 34 35  2  0
 34 43  1  0
 36 37  1  0
 37 38  1  6
 38 39  1  6
 39 40  1  0
 40 41  2  0
 40 42  1  0
 44 43  1  1
 44 45  1  0
 45 46  2  0
 45 53  1  0
 46 47  1  0
 47 48  2  0
 48 49  1  0
 48 52  1  0
 49 50  1  0
 49 51  2  0
 52 53  2  0
 55 54  1  1
 54 59  2  0
 56 55  1  1
 56 57  1  0
 57 58  1  6
 58 60  2  0
 10 61  1  0
 22 62  1  0
 41 63  1  0
 51 64  1  0
M  END
$$$$
