
     RDKit          3D

 64 65  0  0  0  0  0  0  0  0999 V2000
   47.6387  -35.7851  -11.0533 N   0  0  0  0  0  0  0  0  0  0  0  0
   46.2241  -35.8764  -11.2345 C   0  0  2  0  0  0  0  0  0  0  0  0
   45.5558  -36.6947  -10.1396 C   0  0  0  0  0  0  0  0  0  0  0  0
   44.2864  -36.7799  -10.4214 O   0  0  0  0  0  0  0  0  0  0  0  0
   45.7980  -36.4945  -12.5715 C   0  0  0  0  0  0  0  0  0  0  0  0
   45.2599  -35.5259  -13.5459 C   0  0  0  0  0  0  0  0  0  0  0  0
   46.0234  -34.2283  -13.4771 C   0  0  0  0  0  0  0  0  0  0  0  0
   47.2781  -34.2741  -12.8186 N   0  0  0  0  0  0  0  0  0  0  0  0
   48.3596  -33.4178  -13.1328 C   0  0  0  0  0  0  0  0  0  0  0  0
   48.8970  -33.4725  -14.3046 N   0  0  0  0  0  0  0  0  0  0  0  0
   48.8665  -32.4973  -12.1777 N   0  0  0  0  0  0  0  0  0  0  0  0
   46.0792  -37.2907   -9.0181 N   0  0  0  0  0  0  0  0  0  0  0  0
   46.5390  -36.8760   -7.7426 C   0  0  2  0  0  0  0  0  0  0  0  0
   46.6638  -37.9915   -6.7692 C   0  0  0  0  0  0  0  0  0  0  0  0
   46.0015  -37.8872   -5.7039 O   0  0  0  0  0  0  0  0  0  0  0  0
   45.7983  -35.7363   -7.1188 C   0  0  0  0  0  0  0  0  0  0  0  0
   44.4733  -35.4058   -7.7052 C   0  0  0  0  0  0  0  0  0  0  0  0
   43.9436  -36.6622   -8.4159 C   0  0  0  0  0  0  0  0  0  0  0  0
   43.7815  -37.7275   -7.4357 N   0  0  0  0  0  0  0  0  0  0  0  0
   43.9203  -39.0940   -7.7742 C   0  0  0  0  0  0  0  0  0  0  0  0
   43.6401  -40.1675   -6.8783 N   0  0  0  0  0  0  0  0  0  0  0  0
   44.3203  -39.4093   -8.9483 N   0  0  0  0  0  0  0  0  0  0  0  0
   47.4551  -39.1550   -6.9318 N   0  0  0  0  0  0  0  0  0  0  0  0
   48.8431  -39.2378   -7.2837 C   0  0  2  0  0  0  0  0  0  0  0  0
   49.7650  -38.4890   -6.3916 C   0  0  0  0  0  0  0  0  0  0  0  0
   50.9528  -38.9370   -6.3306 O   0  0  0  0  0  0  0  0  0  0  0  0
   49.1422  -38.9477   -8.7337 C   0  0  0  0  0  0  0  0  0  0  0  0
   48.6437  -40.1175   -9.5583 C   0  0  0  0  0  0  0  0  0  0  0  0
   49.7692  -41.0213   -9.9909 C   0  0  0  0  0  0  0  0  0  0  0  0
   50.4190  -40.4382  -11.2268 C   0  0  0  0  0  0  0  0  0  0  0  0
   49.4672  -40.2428  -12.2704 N   0  0  0  0  0  0  0  0  0  0  0  0
   49.4563  -37.3628   -5.6254 N   0  0  0  0  0  0  0  0  0  0  0  0
   50.0170  -35.9973   -5.9474 C   0  0  2  0  0  0  0  0  0  0  0  0
   50.6567  -36.2053   -7.2443 C   0  0  0  0  0  0  0  0  0  0  0  0
   51.7461  -36.7905   -7.3501 O   0  0  0  0  0  0  0  0  0  0  0  0
   50.9146  -35.6102   -4.8589 C   0  0  0  0  0  0  0  0  0  0  0  0
   51.4432  -34.2618   -4.7455 C   0  0  0  0  0  0  0  0  0  0  0  0
   52.2531  -33.7830   -3.6226 C   0  0  0  0  0  0  0  0  0  0  0  0
   52.0685  -34.5285   -2.3913 N   0  0  0  0  0  0  0  0  0  0  0  0
   50.7647  -34.7464   -1.8743 C   0  0  0  0  0  0  0  0  0  0  0  0
   50.2132  -33.9227   -1.0335 N   0  0  0  0  0  0  0  0  0  0  0  0
   50.0268  -35.8920   -2.2776 N   0  0  0  0  0  0  0  0  0  0  0  0
   50.0725  -35.7474   -8.4495 N   0  0  0  0  0  0  0  0  0  0  0  0
   50.5210  -34.6318   -9.2341 C   0  0  0  0  0  0  0  0  0  0  0  0
   51.9810  -34.5013   -9.2427 C   0  0  0  0  0  0  0  0  0  0  0  0
   52.7601  -35.5678   -8.8380 C   0  0  0  0  0  0  0  0  0  0  0  0
   54.1478  -35.4820   -8.8682 C   0  0  0  0  0  0  0  0  0  0  0  0
   54.7522  -34.3304   -9.3025 C   0  0  0  0  0  0  0  0  0  0  0  0
   56.1914  -34.2462   -9.3396 C   0  0  0  0  0  0  0  0  0  0  0  0
   56.7881  -32.9867   -9.5882 N   0  0  0  0  0  0  0  0  0  0  0  0
   56.9043  -35.2956   -9.1477 N   0  0  0  0  0  0  0  0  0  0  0  0
   53.9940  -33.2640   -9.7064 C   0  0  0  0  0  0  0  0  0  0  0  0
   52.5964  -33.3609   -9.6723 C   0  0  0  0  0  0  0  0  0  0  0  0
   49.6348  -39.5998  -13.5017 C   0  0  0  0  0  0  0  0  0  0  0  0
   50.3054  -38.3114  -13.7655 C   0  0  0  0  0  0  0  0  0  0  0  0
   50.0415  -37.3654  -12.6516 C   0  0  0  0  0  0  0  0  0  0  0  0
   49.2172  -36.1328  -13.0876 C   0  0  0  0  0  0  0  0  0  0  0  0
   48.6781  -35.4368  -11.8958 C   0  0  0  0  0  0  0  0  0  0  0  0
   49.1473  -40.2024  -14.5253 O   0  0  0  0  0  0  0  0  0  0  0  0
   49.2957  -34.3274  -11.6152 O   0  0  0  0  0  0  0  0  0  0  0  0
   49.2597  -32.6138  -14.7616 H   0  0  0  0  0  0  0  0  0  0  0  0
   44.7599  -38.7477   -9.6071 H   0  0  0  0  0  0  0  0  0  0  0  0
   50.3486  -32.8950   -1.1414 H   0  0  0  0  0  0  0  0  0  0  0  0
   56.4486  -36.1900   -8.9405 H   0  0  0  0  0  0  0  0  0  0  0  0
  2  1  1  1
  1 58  1  0
  2  3  1  0
  5  2  1  1
  3  4  2  0
  3 12  1  0
  5  6  1  0
  6  7  1  6
  7  8  1  6
  8  9  1  0
  9 10  2  0
  9 11  1  0
 13 12  1  6
 13 14  1  0
 16 13  1  1
 14 15  2  0
 14 23  1  0
 16 17  1  0
 17 18  1  6
 18 19  1  6
 19 20  1  0
 20 21  1  0
 20 22  2  0
 23 24  1  0
 24 25  1  1
 27 24  1  1
 25 26  2  0
 25 32  1  0
 28 27  1  1
 28 29  1  0
 29 30  1  6
 30 31  1  6
 31 54  1  0
 33 32  1  1
 33 34  1  0
 36 33  1  1
 34 35  2  0
 34 43  1  0
 36 37  1  0
 37 38  1  6
 38 39  1  6
 39 40  1  0
 40 41  2  0
 40 42  1  0
 44 43  1  1
 44 45  1  0
 45 46  2  0
 45 53  1  0
 46 47  1  0
 47 48  2  0
 48 49  1  0
 48 52  1  0
 49 50  1  0
 49 51  2  0
 52 53  2  0
 55 54  1  1
 54 59  2  0
 56 55  1  1
 56 57  1  0
 57 58  1  6
 58 60  2  0
 10 61  1  0
 22 62  1  0
 41 63  1  0
 51 64  1  0
M  END
$$$$
