
     RDKit          3D

 64 65  0  0  0  0  0  0  0  0999 V2000
   52.0536  -34.9210   -4.3309 N   0  0  0  0  0  0  0  0  0  0  0  0
   51.5121  -33.9212   -3.4652 C   0  0  2  0  0  0  0  0  0  0  0  0
   50.2836  -33.2492   -4.0605 C   0  0  0  0  0  0  0  0  0  0  0  0
   49.9011  -32.3134   -3.2385 O   0  0  0  0  0  0  0  0  0  0  0  0
   52.4954  -32.8026   -3.1007 C   0  0  0  0  0  0  0  0  0  0  0  0
   52.7260  -32.6429   -1.6520 C   0  0  0  0  0  0  0  0  0  0  0  0
   51.5151  -33.0874   -0.8726 C   0  0  0  0  0  0  0  0  0  0  0  0
   51.5222  -34.4297   -0.4160 N   0  0  0  0  0  0  0  0  0  0  0  0
   52.6747  -35.0814    0.0826 C   0  0  0  0  0  0  0  0  0  0  0  0
   52.8068  -35.2606    1.3536 N   0  0  0  0  0  0  0  0  0  0  0  0
   53.6926  -35.5420   -0.7940 N   0  0  0  0  0  0  0  0  0  0  0  0
   49.6113  -33.4860   -5.2348 N   0  0  0  0  0  0  0  0  0  0  0  0
   48.7107  -34.4600   -5.7354 C   0  0  2  0  0  0  0  0  0  0  0  0
   48.0007  -34.0290   -6.9673 C   0  0  0  0  0  0  0  0  0  0  0  0
   46.7430  -34.0178   -6.9187 O   0  0  0  0  0  0  0  0  0  0  0  0
   47.7310  -35.0130   -4.7500 C   0  0  0  0  0  0  0  0  0  0  0  0
   48.2972  -35.5823   -3.4994 C   0  0  0  0  0  0  0  0  0  0  0  0
   47.1377  -36.1750   -2.6819 C   0  0  0  0  0  0  0  0  0  0  0  0
   46.4165  -37.1328   -3.5091 N   0  0  0  0  0  0  0  0  0  0  0  0
   45.6990  -38.2197   -2.9566 C   0  0  0  0  0  0  0  0  0  0  0  0
   44.4718  -38.0820   -2.2434 N   0  0  0  0  0  0  0  0  0  0  0  0
   46.1598  -39.4059   -3.0922 N   0  0  0  0  0  0  0  0  0  0  0  0
   48.6082  -33.6310   -8.1833 N   0  0  0  0  0  0  0  0  0  0  0  0
   49.6086  -34.3260   -8.9406 C   0  0  2  0  0  0  0  0  0  0  0  0
   49.2486  -35.7112   -9.3380 C   0  0  0  0  0  0  0  0  0  0  0  0
   48.0163  -36.0065   -9.2407 O   0  0  0  0  0  0  0  0  0  0  0  0
   50.9936  -34.2790   -8.3442 C   0  0  0  0  0  0  0  0  0  0  0  0
   51.5323  -32.8733   -8.5202 C   0  0  0  0  0  0  0  0  0  0  0  0
   52.5233  -32.7880   -9.6521 C   0  0  0  0  0  0  0  0  0  0  0  0
   53.8793  -33.2356   -9.1515 C   0  0  0  0  0  0  0  0  0  0  0  0
   54.2962  -32.4673   -8.0250 N   0  0  0  0  0  0  0  0  0  0  0  0
   50.1190  -36.7025   -9.7967 N   0  0  0  0  0  0  0  0  0  0  0  0
   50.3653  -36.9327  -11.2695 C   0  0  2  0  0  0  0  0  0  0  0  0
   49.7717  -38.2480  -11.4975 C   0  0  0  0  0  0  0  0  0  0  0  0
   50.4060  -39.2958  -11.2965 O   0  0  0  0  0  0  0  0  0  0  0  0
   51.8066  -36.8444  -11.5049 C   0  0  0  0  0  0  0  0  0  0  0  0
   52.7243  -37.8634  -11.0253 C   0  0  0  0  0  0  0  0  0  0  0  0
   52.7148  -39.2596  -11.4691 C   0  0  0  0  0  0  0  0  0  0  0  0
   53.9555  -39.9724  -11.2271 N   0  0  0  0  0  0  0  0  0  0  0  0
   55.1914  -39.2746  -11.2119 C   0  0  0  0  0  0  0  0  0  0  0  0
   55.9387  -39.2251  -10.1497 N   0  0  0  0  0  0  0  0  0  0  0  0
   55.6401  -38.6062  -12.3831 N   0  0  0  0  0  0  0  0  0  0  0  0
   48.4441  -38.3997  -11.9641 N   0  0  0  0  0  0  0  0  0  0  0  0
   48.0269  -38.3975  -13.3378 C   0  0  0  0  0  0  0  0  0  0  0  0
   46.7863  -37.6452  -13.5474 C   0  0  0  0  0  0  0  0  0  0  0  0
   46.2831  -37.5091  -14.8266 C   0  0  0  0  0  0  0  0  0  0  0  0
   45.0907  -36.8290  -15.0491 C   0  0  0  0  0  0  0  0  0  0  0  0
   44.4053  -36.2870  -13.9924 C   0  0  0  0  0  0  0  0  0  0  0  0
   43.1653  -35.5883  -14.2249 C   0  0  0  0  0  0  0  0  0  0  0  0
   42.3767  -35.2221  -13.1077 N   0  0  0  0  0  0  0  0  0  0  0  0
   42.7969  -35.3082  -15.4217 N   0  0  0  0  0  0  0  0  0  0  0  0
   44.8912  -36.4127  -12.7183 C   0  0  0  0  0  0  0  0  0  0  0  0
   46.0936  -37.1001  -12.5050 C   0  0  0  0  0  0  0  0  0  0  0  0
   55.4044  -32.6602   -7.1930 C   0  0  0  0  0  0  0  0  0  0  0  0
   55.8856  -33.9264   -6.6061 C   0  0  0  0  0  0  0  0  0  0  0  0
   54.7313  -34.7851   -6.2380 C   0  0  0  0  0  0  0  0  0  0  0  0
   54.6208  -35.0300   -4.7160 C   0  0  0  0  0  0  0  0  0  0  0  0
   53.2779  -35.5612   -4.3846 C   0  0  0  0  0  0  0  0  0  0  0  0
   56.0852  -31.6101   -6.9054 O   0  0  0  0  0  0  0  0  0  0  0  0
   53.2729  -36.8312   -4.1059 O   0  0  0  0  0  0  0  0  0  0  0  0
   53.3795  -34.6089    1.9237 H   0  0  0  0  0  0  0  0  0  0  0  0
   46.9929  -39.6427   -3.6532 H   0  0  0  0  0  0  0  0  0  0  0  0
   55.5222  -38.9777   -9.2269 H   0  0  0  0  0  0  0  0  0  0  0  0
   42.2576  -34.4556  -15.6020 H   0  0  0  0  0  0  0  0  0  0  0  0
  2  1  1  6
  1 58  1  0
  2  3  1  0
  5  2  1  1
  3  4  2  0
  3 12  1  0
  5  6  1  0
  6  7  1  6
  7  8  1  6
  8  9  1  0
  9 10  2  0
  9 11  1  0
 13 12  1  1
 13 14  1  0
 16 13  1  1
 14 15  2  0
 14 23  1  0
 16 17  1  0
 17 18  1  6
 18 19  1  6
 19 20  1  0
 20 21  1  0
 20 22  2  0
 23 24  1  0
 24 25  1  1
 27 24  1  1
 25 26  2  0
 25 32  1  0
 28 27  1  1
 28 29  1  0
 29 30  1  6
 30 31  1  6
 31 54  1  0
 33 32  1  1
 33 34  1  0
 36 33  1  1
 34 35  2  0
 34 43  1  0
 36 37  1  0
 37 38  1  6
 38 39  1  6
 39 40  1  0
 40 41  2  0
 40 42  1  0
 44 43  1  1
 44 45  1  0
 45 46  2  0
 45 53  1  0
 46 47  1  0
 47 48  2  0
 48 49  1  0
 48 52  1  0
 49 50  1  0
 49 51  2  0
 52 53  2  0
 55 54  1  1
 54 59  2  0
 56 55  1  1
 56 57  1  0
 57 58  1  6
 58 60  2  0
 10 61  1  0
 22 62  1  0
 41 63  1  0
 51 64  1  0
M  END
$$$$
