
     RDKit          3D

 64 65  0  0  0  0  0  0  0  0999 V2000
   49.3160  -36.8783   -5.5004 N   0  0  0  0  0  0  0  0  0  0  0  0
   48.2607  -36.1775   -4.8390 C   0  0  2  0  0  0  0  0  0  0  0  0
   47.3039  -35.5185   -5.8215 C   0  0  0  0  0  0  0  0  0  0  0  0
   46.4201  -34.8520   -5.1341 O   0  0  0  0  0  0  0  0  0  0  0  0
   48.7365  -35.0793   -3.8805 C   0  0  0  0  0  0  0  0  0  0  0  0
   49.8847  -35.4630   -3.0369 C   0  0  0  0  0  0  0  0  0  0  0  0
   49.8754  -36.9474   -2.7761 C   0  0  0  0  0  0  0  0  0  0  0  0
   49.0195  -37.3956   -1.7386 N   0  0  0  0  0  0  0  0  0  0  0  0
   47.6078  -37.3935   -1.8317 C   0  0  0  0  0  0  0  0  0  0  0  0
   46.8973  -37.4493   -0.7561 N   0  0  0  0  0  0  0  0  0  0  0  0
   46.9570  -37.3322   -3.0924 N   0  0  0  0  0  0  0  0  0  0  0  0
   47.2721  -35.5393   -7.1947 N   0  0  0  0  0  0  0  0  0  0  0  0
   46.8984  -36.4565   -8.2091 C   0  0  2  0  0  0  0  0  0  0  0  0
   46.7221  -35.8230   -9.5415 C   0  0  0  0  0  0  0  0  0  0  0  0
   45.5952  -35.9584  -10.0856 O   0  0  0  0  0  0  0  0  0  0  0  0
   45.7241  -37.3300   -7.9012 C   0  0  0  0  0  0  0  0  0  0  0  0
   44.6005  -37.2984   -8.8735 C   0  0  0  0  0  0  0  0  0  0  0  0
   44.5616  -35.8977   -9.5062 C   0  0  0  0  0  0  0  0  0  0  0  0
   45.3972  -34.9999   -8.7204 N   0  0  0  0  0  0  0  0  0  0  0  0
   45.3926  -33.5987   -8.9145 C   0  0  0  0  0  0  0  0  0  0  0  0
   44.4278  -32.7195   -8.3402 N   0  0  0  0  0  0  0  0  0  0  0  0
   46.2980  -33.0663   -9.6457 N   0  0  0  0  0  0  0  0  0  0  0  0
   47.7015  -35.0840  -10.2491 N   0  0  0  0  0  0  0  0  0  0  0  0
   49.0500  -35.4673  -10.5522 C   0  0  2  0  0  0  0  0  0  0  0  0
   49.1900  -36.7482  -11.2910 C   0  0  0  0  0  0  0  0  0  0  0  0
   50.2776  -36.8951  -11.9320 O   0  0  0  0  0  0  0  0  0  0  0  0
   49.9968  -35.4157   -9.3785 C   0  0  0  0  0  0  0  0  0  0  0  0
   50.2583  -33.9593   -9.0509 C   0  0  0  0  0  0  0  0  0  0  0  0
   51.6017  -33.5011   -9.5569 C   0  0  0  0  0  0  0  0  0  0  0  0
   52.6656  -33.9073   -8.5605 C   0  0  0  0  0  0  0  0  0  0  0  0
   52.3854  -33.3895   -7.2620 N   0  0  0  0  0  0  0  0  0  0  0  0
   48.2569  -37.7859  -11.3501 N   0  0  0  0  0  0  0  0  0  0  0  0
   48.6082  -39.2017  -10.9569 C   0  0  2  0  0  0  0  0  0  0  0  0
   49.5484  -39.6057  -11.9997 C   0  0  0  0  0  0  0  0  0  0  0  0
   49.3282  -40.5789  -12.7379 O   0  0  0  0  0  0  0  0  0  0  0  0
   47.3672  -39.9741  -10.8963 C   0  0  0  0  0  0  0  0  0  0  0  0
   46.4110  -39.9733  -11.9900 C   0  0  0  0  0  0  0  0  0  0  0  0
   45.0244  -40.4323  -11.8763 C   0  0  0  0  0  0  0  0  0  0  0  0
   44.0677  -39.3796  -11.5891 N   0  0  0  0  0  0  0  0  0  0  0  0
   43.2682  -39.4382  -10.4179 C   0  0  0  0  0  0  0  0  0  0  0  0
   42.4343  -38.4906  -10.1079 N   0  0  0  0  0  0  0  0  0  0  0  0
   43.3687  -40.5582   -9.5487 N   0  0  0  0  0  0  0  0  0  0  0  0
   50.7627  -38.9134  -12.2223 N   0  0  0  0  0  0  0  0  0  0  0  0
   51.7287  -39.2102  -13.2421 C   0  0  0  0  0  0  0  0  0  0  0  0
   53.0875  -38.8128  -12.8621 C   0  0  0  0  0  0  0  0  0  0  0  0
   53.7700  -39.5499  -11.9139 C   0  0  0  0  0  0  0  0  0  0  0  0
   55.0723  -39.2144  -11.5597 C   0  0  0  0  0  0  0  0  0  0  0  0
   55.6880  -38.1431  -12.1541 C   0  0  0  0  0  0  0  0  0  0  0  0
   57.0410  -37.8013  -11.7902 C   0  0  0  0  0  0  0  0  0  0  0  0
   57.8681  -37.1901  -12.7631 N   0  0  0  0  0  0  0  0  0  0  0  0
   57.4733  -38.0484  -10.6077 N   0  0  0  0  0  0  0  0  0  0  0  0
   55.0247  -37.4019  -13.0953 C   0  0  0  0  0  0  0  0  0  0  0  0
   53.7128  -37.7486  -13.4453 C   0  0  0  0  0  0  0  0  0  0  0  0
   53.0360  -33.6552   -6.0521 C   0  0  0  0  0  0  0  0  0  0  0  0
   53.4623  -34.9658   -5.5231 C   0  0  0  0  0  0  0  0  0  0  0  0
   52.4653  -36.0060   -5.8828 C   0  0  0  0  0  0  0  0  0  0  0  0
   51.7578  -36.6169   -4.6519 C   0  0  0  0  0  0  0  0  0  0  0  0
   50.5443  -37.3523   -5.0786 C   0  0  0  0  0  0  0  0  0  0  0  0
   53.2937  -32.6373   -5.3132 O   0  0  0  0  0  0  0  0  0  0  0  0
   50.6787  -38.6453   -5.0452 O   0  0  0  0  0  0  0  0  0  0  0  0
   47.3076  -37.1967    0.1635 H   0  0  0  0  0  0  0  0  0  0  0  0
   46.5700  -32.0719   -9.5981 H   0  0  0  0  0  0  0  0  0  0  0  0
   42.3353  -37.6569  -10.7253 H   0  0  0  0  0  0  0  0  0  0  0  0
   58.4410  -38.3583  -10.4737 H   0  0  0  0  0  0  0  0  0  0  0  0
  2  1  1  6
  1 58  1  0
  2  3  1  0
  5  2  1  1
  3  4  2  0
  3 12  1  0
  5  6  1  0
  6  7  1  6
  7  8  1  6
  8  9  1  0
  9 10  2  0
  9 11  1  0
 13 12  1  1
 13 14  1  0
 16 13  1  1
 14 15  2  0
 14 23  1  0
 16 17  1  0
 17 18  1  6
 18 19  1  6
 19 20  1  0
 20 21  1  0
 20 22  2  0
 23 24  1  0
 24 25  1  1
 27 24  1  1
 25 26  2  0
 25 32  1  0
 28 27  1  1
 28 29  1  0
 29 30  1  6
 30 31  1  6
 31 54  1  0
 33 32  1  6
 33 34  1  0
 36 33  1  1
 34 35  2  0
 34 43  1  0
 36 37  1  0
 37 38  1  6
 38 39  1  6
 39 40  1  0
 40 41  2  0
 40 42  1  0
 44 43  1  1
 44 45  1  0
 45 46  2  0
 45 53  1  0
 46 47  1  0
 47 48  2  0
 48 49  1  0
 48 52  1  0
 49 50  1  0
 49 51  2  0
 52 53  2  0
 55 54  1  1
 54 59  2  0
 56 55  1  1
 56 57  1  0
 57 58  1  6
 58 60  2  0
 10 61  1  0
 22 62  1  0
 41 63  1  0
 51 64  1  0
M  END
$$$$
