
     RDKit          3D

 64 65  0  0  0  0  0  0  0  0999 V2000
   51.3617  -36.3320   -3.8470 N   0  0  0  0  0  0  0  0  0  0  0  0
   49.9262  -36.2826   -3.9049 C   0  0  2  0  0  0  0  0  0  0  0  0
   49.4534  -34.8529   -3.8196 C   0  0  0  0  0  0  0  0  0  0  0  0
   49.7857  -34.2975   -2.7075 O   0  0  0  0  0  0  0  0  0  0  0  0
   49.2365  -36.9160   -2.7229 C   0  0  0  0  0  0  0  0  0  0  0  0
   50.0663  -37.4274   -1.6276 C   0  0  0  0  0  0  0  0  0  0  0  0
   51.3586  -36.7025   -1.3717 C   0  0  0  0  0  0  0  0  0  0  0  0
   51.1018  -35.4673   -0.6535 N   0  0  0  0  0  0  0  0  0  0  0  0
   51.5938  -34.1968   -1.0489 C   0  0  0  0  0  0  0  0  0  0  0  0
   52.4115  -34.1324   -2.0394 N   0  0  0  0  0  0  0  0  0  0  0  0
   51.2296  -32.9861   -0.4098 N   0  0  0  0  0  0  0  0  0  0  0  0
   48.7400  -34.1312   -4.7655 N   0  0  0  0  0  0  0  0  0  0  0  0
   49.0030  -33.9066   -6.1653 C   0  0  2  0  0  0  0  0  0  0  0  0
   47.8989  -34.3473   -7.0581 C   0  0  0  0  0  0  0  0  0  0  0  0
   46.7695  -34.4409   -6.4441 O   0  0  0  0  0  0  0  0  0  0  0  0
   50.3751  -34.1803   -6.6366 C   0  0  0  0  0  0  0  0  0  0  0  0
   51.3215  -34.1693   -5.4433 C   0  0  0  0  0  0  0  0  0  0  0  0
   51.3591  -32.8074   -4.8133 C   0  0  0  0  0  0  0  0  0  0  0  0
   52.7147  -32.3215   -4.8252 N   0  0  0  0  0  0  0  0  0  0  0  0
   53.3689  -31.9845   -3.6089 C   0  0  0  0  0  0  0  0  0  0  0  0
   54.7615  -31.6895   -3.6805 N   0  0  0  0  0  0  0  0  0  0  0  0
   52.7512  -31.9402   -2.4794 N   0  0  0  0  0  0  0  0  0  0  0  0
   47.9262  -34.6564   -8.4103 N   0  0  0  0  0  0  0  0  0  0  0  0
   48.6029  -35.6491   -9.1604 C   0  0  2  0  0  0  0  0  0  0  0  0
   47.7561  -36.1675  -10.2938 C   0  0  0  0  0  0  0  0  0  0  0  0
   46.7704  -36.9230  -10.0568 O   0  0  0  0  0  0  0  0  0  0  0  0
   48.9910  -36.8825   -8.3918 C   0  0  0  0  0  0  0  0  0  0  0  0
   47.9326  -37.9597   -8.4570 C   0  0  0  0  0  0  0  0  0  0  0  0
   48.0856  -38.8233   -7.2245 C   0  0  0  0  0  0  0  0  0  0  0  0
   48.8214  -40.0932   -7.6005 C   0  0  0  0  0  0  0  0  0  0  0  0
   49.9468  -39.7800   -8.4499 N   0  0  0  0  0  0  0  0  0  0  0  0
   48.0777  -35.7977  -11.5978 N   0  0  0  0  0  0  0  0  0  0  0  0
   48.6774  -36.8454  -12.5697 C   0  0  2  0  0  0  0  0  0  0  0  0
   49.9585  -37.1319  -11.9908 C   0  0  0  0  0  0  0  0  0  0  0  0
   50.9408  -36.4440  -12.5825 O   0  0  0  0  0  0  0  0  0  0  0  0
   48.3862  -36.3266  -13.8830 C   0  0  0  0  0  0  0  0  0  0  0  0
   47.1467  -35.6579  -14.2684 C   0  0  0  0  0  0  0  0  0  0  0  0
   45.8690  -36.3077  -14.5417 C   0  0  0  0  0  0  0  0  0  0  0  0
   44.8398  -35.5519  -13.7819 N   0  0  0  0  0  0  0  0  0  0  0  0
   44.4151  -34.3123  -14.3057 C   0  0  0  0  0  0  0  0  0  0  0  0
   44.6898  -34.0551  -15.5511 N   0  0  0  0  0  0  0  0  0  0  0  0
   43.7102  -33.3473  -13.5496 N   0  0  0  0  0  0  0  0  0  0  0  0
   50.4563  -37.9408  -10.9796 N   0  0  0  0  0  0  0  0  0  0  0  0
   51.8941  -38.1803  -10.7233 C   0  0  0  0  0  0  0  0  0  0  0  0
   52.5295  -37.0111  -10.0770 C   0  0  0  0  0  0  0  0  0  0  0  0
   51.7396  -35.8857   -9.7922 C   0  0  0  0  0  0  0  0  0  0  0  0
   52.2857  -34.7778   -9.1872 C   0  0  0  0  0  0  0  0  0  0  0  0
   53.6274  -34.7256   -8.8345 C   0  0  0  0  0  0  0  0  0  0  0  0
   54.1947  -33.5466   -8.1954 C   0  0  0  0  0  0  0  0  0  0  0  0
   53.3802  -32.3762   -8.0066 N   0  0  0  0  0  0  0  0  0  0  0  0
   55.4174  -33.5044   -7.7828 N   0  0  0  0  0  0  0  0  0  0  0  0
   54.3976  -35.8286   -9.1139 C   0  0  0  0  0  0  0  0  0  0  0  0
   53.8510  -36.9680   -9.7325 C   0  0  0  0  0  0  0  0  0  0  0  0
   51.2930  -39.6691   -8.0087 C   0  0  0  0  0  0  0  0  0  0  0  0
   51.7118  -39.8071   -6.5993 C   0  0  0  0  0  0  0  0  0  0  0  0
   51.9424  -38.4198   -6.0185 C   0  0  0  0  0  0  0  0  0  0  0  0
   52.4309  -38.5734   -4.6253 C   0  0  0  0  0  0  0  0  0  0  0  0
   52.2353  -37.4011   -3.7372 C   0  0  0  0  0  0  0  0  0  0  0  0
   52.1853  -39.4404   -8.8683 O   0  0  0  0  0  0  0  0  0  0  0  0
   53.0253  -37.4200   -2.7129 O   0  0  0  0  0  0  0  0  0  0  0  0
   53.4563  -34.0717   -1.8946 H   0  0  0  0  0  0  0  0  0  0  0  0
   52.8785  -31.0997   -1.8800 H   0  0  0  0  0  0  0  0  0  0  0  0
   44.4744  -33.1432  -16.0036 H   0  0  0  0  0  0  0  0  0  0  0  0
   55.7314  -34.0552   -6.9589 H   0  0  0  0  0  0  0  0  0  0  0  0
  1  2  1  0
  1 58  1  0
  2  3  1  0
  2  5  1  1
  3  4  2  0
  3 12  1  0
  5  6  1  0
  6  7  1  0
  7  8  1  0
  8  9  1  0
  9 10  2  0
  9 11  1  0
 12 13  1  0
 13 14  1  0
 13 16  1  6
 14 15  2  0
 14 23  1  0
 16 17  1  0
 17 18  1  0
 18 19  1  0
 19 20  1  0
 20 21  1  0
 20 22  2  0
 23 24  1  0
 24 25  1  6
 24 27  1  0
 25 26  2  0
 25 32  1  0
 27 28  1  0
 28 29  1  0
 29 30  1  0
 30 31  1  0
 31 54  1  0
 32 33  1  0
 33 34  1  0
 33 36  1  6
 34 35  2  0
 34 43  1  0
 36 37  1  0
 37 38  1  0
 38 39  1  0
 39 40  1  0
 40 41  2  0
 40 42  1  0
 43 44  1  0
 44 45  1  0
 45 46  2  0
 45 53  1  0
 46 47  1  0
 47 48  2  0
 48 49  1  0
 48 52  1  0
 49 50  1  0
 49 51  2  0
 52 53  2  0
 54 55  1  0
 54 59  2  0
 55 56  1  0
 56 57  1  0
 57 58  1  0
 58 60  2  0
 10 61  1  0
 22 62  1  0
 41 63  1  0
 51 64  1  0
M  END
$$$$
