
     RDKit          3D

 64 65  0  0  0  0  0  0  0  0999 V2000
   45.4789  -36.7982   -7.9067 N   0  0  0  0  0  0  0  0  0  0  0  0
   44.3709  -36.9094   -8.8022 C   0  0  2  0  0  0  0  0  0  0  0  0
   44.7866  -37.4327  -10.1691 C   0  0  0  0  0  0  0  0  0  0  0  0
   43.7318  -37.4373  -10.9341 O   0  0  0  0  0  0  0  0  0  0  0  0
   43.6189  -35.5947   -9.0417 C   0  0  0  0  0  0  0  0  0  0  0  0
   42.3882  -35.4430   -8.2419 C   0  0  0  0  0  0  0  0  0  0  0  0
   42.6249  -35.8836   -6.8201 C   0  0  0  0  0  0  0  0  0  0  0  0
   41.8516  -36.9826   -6.3682 N   0  0  0  0  0  0  0  0  0  0  0  0
   41.3921  -38.0184   -7.2153 C   0  0  0  0  0  0  0  0  0  0  0  0
   41.1235  -37.7602   -8.4507 N   0  0  0  0  0  0  0  0  0  0  0  0
   41.2195  -39.3410   -6.7279 N   0  0  0  0  0  0  0  0  0  0  0  0
   46.0092  -37.8486  -10.6373 N   0  0  0  0  0  0  0  0  0  0  0  0
   46.8398  -38.9891  -10.4967 C   0  0  2  0  0  0  0  0  0  0  0  0
   47.9073  -39.0721  -11.5267 C   0  0  0  0  0  0  0  0  0  0  0  0
   47.9243  -40.1097  -12.2390 O   0  0  0  0  0  0  0  0  0  0  0  0
   46.1339  -40.3031  -10.3878 C   0  0  0  0  0  0  0  0  0  0  0  0
   46.9705  -41.4781  -10.0295 C   0  0  0  0  0  0  0  0  0  0  0  0
   48.4149  -40.9886   -9.8341 C   0  0  0  0  0  0  0  0  0  0  0  0
   48.6229  -39.7936  -10.6408 N   0  0  0  0  0  0  0  0  0  0  0  0
   49.1863  -38.6104  -10.1083 C   0  0  0  0  0  0  0  0  0  0  0  0
   49.6658  -37.5294  -10.9053 N   0  0  0  0  0  0  0  0  0  0  0  0
   49.2822  -38.4805   -8.8387 N   0  0  0  0  0  0  0  0  0  0  0  0
   48.9004  -38.0940  -11.7785 N   0  0  0  0  0  0  0  0  0  0  0  0
   49.7849  -37.4699  -10.8375 C   0  0  2  0  0  0  0  0  0  0  0  0
   50.6194  -38.4055  -10.0410 C   0  0  0  0  0  0  0  0  0  0  0  0
   50.8511  -39.5310  -10.5840 O   0  0  0  0  0  0  0  0  0  0  0  0
   49.1318  -36.4402   -9.9488 C   0  0  0  0  0  0  0  0  0  0  0  0
   48.8242  -35.2198  -10.7932 C   0  0  0  0  0  0  0  0  0  0  0  0
   49.8165  -34.1099  -10.5605 C   0  0  0  0  0  0  0  0  0  0  0  0
   49.4125  -33.3428   -9.3202 C   0  0  0  0  0  0  0  0  0  0  0  0
   48.0802  -32.8466   -9.4279 N   0  0  0  0  0  0  0  0  0  0  0  0
   51.1611  -38.1723   -8.7749 N   0  0  0  0  0  0  0  0  0  0  0  0
   51.2565  -36.7832   -8.1885 C   0  0  2  0  0  0  0  0  0  0  0  0
   51.3916  -37.0424   -6.7571 C   0  0  0  0  0  0  0  0  0  0  0  0
   51.1156  -38.1472   -6.2633 O   0  0  0  0  0  0  0  0  0  0  0  0
   50.0571  -36.0439   -8.5827 C   0  0  0  0  0  0  0  0  0  0  0  0
   48.9515  -36.6892   -9.2695 C   0  0  0  0  0  0  0  0  0  0  0  0
   49.0621  -37.3574  -10.5685 C   0  0  0  0  0  0  0  0  0  0  0  0
   50.3044  -38.0813  -10.7648 N   0  0  0  0  0  0  0  0  0  0  0  0
   51.3532  -37.9753   -9.8143 C   0  0  0  0  0  0  0  0  0  0  0  0
   52.2072  -36.9959   -9.8408 N   0  0  0  0  0  0  0  0  0  0  0  0
   51.4873  -38.9588   -8.7972 N   0  0  0  0  0  0  0  0  0  0  0  0
   51.8396  -36.0480   -5.8549 N   0  0  0  0  0  0  0  0  0  0  0  0
   53.2004  -35.8197   -5.4582 C   0  0  0  0  0  0  0  0  0  0  0  0
   53.3030  -35.1876   -4.1396 C   0  0  0  0  0  0  0  0  0  0  0  0
   52.1530  -34.9298   -3.4192 C   0  0  0  0  0  0  0  0  0  0  0  0
   52.2244  -34.3616   -2.1519 C   0  0  0  0  0  0  0  0  0  0  0  0
   53.4450  -34.0526   -1.6090 C   0  0  0  0  0  0  0  0  0  0  0  0
   53.5168  -33.4699   -0.2917 C   0  0  0  0  0  0  0  0  0  0  0  0
   54.7080  -32.8066    0.0892 N   0  0  0  0  0  0  0  0  0  0  0  0
   52.5163  -33.5551    0.5070 N   0  0  0  0  0  0  0  0  0  0  0  0
   54.5943  -34.3013   -2.3107 C   0  0  0  0  0  0  0  0  0  0  0  0
   54.5113  -34.8744   -3.5868 C   0  0  0  0  0  0  0  0  0  0  0  0
   47.2947  -32.2227   -8.4525 C   0  0  0  0  0  0  0  0  0  0  0  0
   47.1150  -32.6236   -7.0431 C   0  0  0  0  0  0  0  0  0  0  0  0
   47.0999  -34.1047   -6.9357 C   0  0  0  0  0  0  0  0  0  0  0  0
   45.7421  -34.6620   -6.4513 C   0  0  0  0  0  0  0  0  0  0  0  0
   45.6679  -36.1176   -6.7181 C   0  0  0  0  0  0  0  0  0  0  0  0
   46.6534  -31.1755   -8.8276 O   0  0  0  0  0  0  0  0  0  0  0  0
   45.8069  -36.8514   -5.6536 O   0  0  0  0  0  0  0  0  0  0  0  0
   41.7018  -38.1618   -9.2136 H   0  0  0  0  0  0  0  0  0  0  0  0
   49.5027  -39.2545   -8.1927 H   0  0  0  0  0  0  0  0  0  0  0  0
   53.1627  -37.1229   -9.4446 H   0  0  0  0  0  0  0  0  0  0  0  0
   52.5174  -34.2600    1.2511 H   0  0  0  0  0  0  0  0  0  0  0  0
  2  1  1  1
  1 58  1  0
  2  3  1  0
  5  2  1  1
  3  4  2  0
  3 12  1  0
  5  6  1  0
  6  7  1  6
  7  8  1  6
  8  9  1  0
  9 10  2  0
  9 11  1  0
 13 12  1  6
 13 14  1  0
 16 13  1  1
 14 15  2  0
 14 23  1  0
 16 17  1  0
 17 18  1  6
 18 19  1  6
 19 20  1  0
 20 21  1  0
 20 22  2  0
 23 24  1  0
 24 25  1  1
 27 24  1  1
 25 26  2  0
 25 32  1  0
 28 27  1  1
 28 29  1  0
 29 30  1  6
 30 31  1  6
 31 54  1  0
 33 32  1  6
 33 34  1  0
 36 33  1  1
 34 35  2  0
 34 43  1  0
 36 37  1  0
 37 38  1  6
 38 39  1  6
 39 40  1  0
 40 41  2  0
 40 42  1  0
 44 43  1  1
 44 45  1  0
 45 46  2  0
 45 53  1  0
 46 47  1  0
 47 48  2  0
 48 49  1  0
 48 52  1  0
 49 50  1  0
 49 51  2  0
 52 53  2  0
 55 54  1  1
 54 59  2  0
 56 55  1  1
 56 57  1  0
 57 58  1  6
 58 60  2  0
 10 61  1  0
 22 62  1  0
 41 63  1  0
 51 64  1  0
M  END
$$$$
