
     RDKit          3D

 64 65  0  0  0  0  0  0  0  0999 V2000
   55.1059  -34.9557   -3.2915 N   0  0  0  0  0  0  0  0  0  0  0  0
   54.8218  -33.8876   -2.3857 C   0  0  2  0  0  0  0  0  0  0  0  0
   53.4237  -33.3212   -2.5849 C   0  0  0  0  0  0  0  0  0  0  0  0
   53.2785  -32.3163   -1.7684 O   0  0  0  0  0  0  0  0  0  0  0  0
   55.7950  -32.7064   -2.4780 C   0  0  0  0  0  0  0  0  0  0  0  0
   56.8830  -32.7347   -1.4816 C   0  0  0  0  0  0  0  0  0  0  0  0
   56.8302  -34.0089   -0.6784 C   0  0  0  0  0  0  0  0  0  0  0  0
   56.1976  -35.1151   -1.2997 N   0  0  0  0  0  0  0  0  0  0  0  0
   56.1063  -36.3980   -0.7104 C   0  0  0  0  0  0  0  0  0  0  0  0
   57.1830  -37.0657   -0.4654 N   0  0  0  0  0  0  0  0  0  0  0  0
   54.8465  -36.9662   -0.3839 N   0  0  0  0  0  0  0  0  0  0  0  0
   52.4137  -33.7018   -3.4347 N   0  0  0  0  0  0  0  0  0  0  0  0
   51.4631  -34.7510   -3.5106 C   0  0  2  0  0  0  0  0  0  0  0  0
   50.3547  -34.4752   -4.4608 C   0  0  0  0  0  0  0  0  0  0  0  0
   49.1881  -34.4984   -3.9886 O   0  0  0  0  0  0  0  0  0  0  0  0
   50.9086  -35.2273   -2.2058 C   0  0  0  0  0  0  0  0  0  0  0  0
   49.5217  -34.8042   -1.8802 C   0  0  0  0  0  0  0  0  0  0  0  0
   49.5946  -33.4285   -1.1974 C   0  0  0  0  0  0  0  0  0  0  0  0
   49.9311  -32.4221   -2.1953 N   0  0  0  0  0  0  0  0  0  0  0  0
   49.1814  -32.2549   -3.3833 C   0  0  0  0  0  0  0  0  0  0  0  0
   49.7095  -31.6977   -4.5850 N   0  0  0  0  0  0  0  0  0  0  0  0
   47.9542  -32.6175   -3.4038 N   0  0  0  0  0  0  0  0  0  0  0  0
   50.4920  -34.1890   -5.8412 N   0  0  0  0  0  0  0  0  0  0  0  0
   51.2239  -34.9283   -6.8286 C   0  0  2  0  0  0  0  0  0  0  0  0
   50.8430  -36.3584   -6.9553 C   0  0  0  0  0  0  0  0  0  0  0  0
   51.4449  -37.1574   -6.1713 O   0  0  0  0  0  0  0  0  0  0  0  0
   52.7226  -34.7751   -6.7454 C   0  0  0  0  0  0  0  0  0  0  0  0
   53.0780  -33.3796   -7.2181 C   0  0  0  0  0  0  0  0  0  0  0  0
   53.6245  -33.3833   -8.6223 C   0  0  0  0  0  0  0  0  0  0  0  0
   55.0961  -33.7327   -8.5750 C   0  0  0  0  0  0  0  0  0  0  0  0
   55.8152  -32.8369   -7.7303 N   0  0  0  0  0  0  0  0  0  0  0  0
   49.9064  -36.8993   -7.8391 N   0  0  0  0  0  0  0  0  0  0  0  0
   48.4323  -36.9486   -7.5119 C   0  0  2  0  0  0  0  0  0  0  0  0
   47.8326  -36.1684   -8.5917 C   0  0  0  0  0  0  0  0  0  0  0  0
   48.2137  -35.0173   -8.8569 O   0  0  0  0  0  0  0  0  0  0  0  0
   48.2504  -36.4031   -6.1667 C   0  0  0  0  0  0  0  0  0  0  0  0
   47.2643  -36.9450   -5.2478 C   0  0  0  0  0  0  0  0  0  0  0  0
   46.1424  -36.1823   -4.6948 C   0  0  0  0  0  0  0  0  0  0  0  0
   44.9433  -36.9659   -4.4626 N   0  0  0  0  0  0  0  0  0  0  0  0
   44.9163  -37.9478   -3.4381 C   0  0  0  0  0  0  0  0  0  0  0  0
   44.2660  -39.0649   -3.5748 N   0  0  0  0  0  0  0  0  0  0  0  0
   45.6157  -37.7200   -2.2221 N   0  0  0  0  0  0  0  0  0  0  0  0
   46.7821  -36.6795   -9.3909 N   0  0  0  0  0  0  0  0  0  0  0  0
   46.8780  -37.7803  -10.3075 C   0  0  0  0  0  0  0  0  0  0  0  0
   46.4866  -37.4119  -11.6714 C   0  0  0  0  0  0  0  0  0  0  0  0
   46.6466  -36.1066  -12.0941 C   0  0  0  0  0  0  0  0  0  0  0  0
   46.3145  -35.7379  -13.3932 C   0  0  0  0  0  0  0  0  0  0  0  0
   45.8233  -36.6750  -14.2654 C   0  0  0  0  0  0  0  0  0  0  0  0
   45.4863  -36.2918  -15.6143 C   0  0  0  0  0  0  0  0  0  0  0  0
   45.0681  -37.2982  -16.5178 N   0  0  0  0  0  0  0  0  0  0  0  0
   45.5652  -35.0629  -15.9748 N   0  0  0  0  0  0  0  0  0  0  0  0
   45.6582  -37.9730  -13.8615 C   0  0  0  0  0  0  0  0  0  0  0  0
   45.9961  -38.3341  -12.5503 C   0  0  0  0  0  0  0  0  0  0  0  0
   57.1483  -32.9058   -7.3111 C   0  0  0  0  0  0  0  0  0  0  0  0
   57.8800  -34.0872   -6.8128 C   0  0  0  0  0  0  0  0  0  0  0  0
   56.9745  -34.9381   -5.9995 C   0  0  0  0  0  0  0  0  0  0  0  0
   57.3969  -35.0241   -4.5152 C   0  0  0  0  0  0  0  0  0  0  0  0
   56.2804  -35.5592   -3.7012 C   0  0  0  0  0  0  0  0  0  0  0  0
   57.8159  -31.8104   -7.3665 O   0  0  0  0  0  0  0  0  0  0  0  0
   56.4522  -36.7923   -3.3258 O   0  0  0  0  0  0  0  0  0  0  0  0
   57.1887  -38.1020   -0.5254 H   0  0  0  0  0  0  0  0  0  0  0  0
   47.4332  -32.9441   -2.5751 H   0  0  0  0  0  0  0  0  0  0  0  0
   44.0533  -39.6529   -2.7411 H   0  0  0  0  0  0  0  0  0  0  0  0
   45.3203  -34.7969  -16.9338 H   0  0  0  0  0  0  0  0  0  0  0  0
  2  1  1  6
  1 58  1  0
  2  3  1  0
  5  2  1  1
  3  4  2  0
  3 12  1  0
  5  6  1  0
  6  7  1  6
  7  8  1  6
  8  9  1  0
  9 10  2  0
  9 11  1  0
 13 12  1  1
 13 14  1  0
 16 13  1  1
 14 15  2  0
 14 23  1  0
 16 17  1  0
 17 18  1  6
 18 19  1  6
 19 20  1  0
 20 21  1  0
 20 22  2  0
 23 24  1  0
 24 25  1  1
 27 24  1  1
 25 26  2  0
 25 32  1  0
 28 27  1  1
 28 29  1  0
 29 30  1  6
 30 31  1  6
 31 54  1  0
 33 32  1  6
 33 34  1  0
 36 33  1  1
 34 35  2  0
 34 43  1  0
 36 37  1  0
 37 38  1  6
 38 39  1  6
 39 40  1  0
 40 41  2  0
 40 42  1  0
 44 43  1  1
 44 45  1  0
 45 46  2  0
 45 53  1  0
 46 47  1  0
 47 48  2  0
 48 49  1  0
 48 52  1  0
 49 50  1  0
 49 51  2  0
 52 53  2  0
 55 54  1  1
 54 59  2  0
 56 55  1  1
 56 57  1  0
 57 58  1  6
 58 60  2  0
 10 61  1  0
 22 62  1  0
 41 63  1  0
 51 64  1  0
M  END
$$$$
