
     RDKit          3D

 64 65  0  0  0  0  0  0  0  0999 V2000
   44.1658  -38.6075   -7.1786 N   0  0  0  0  0  0  0  0  0  0  0  0
   44.0824  -40.0316   -7.0939 C   0  0  2  0  0  0  0  0  0  0  0  0
   45.3909  -40.7078   -7.4756 C   0  0  0  0  0  0  0  0  0  0  0  0
   45.2026  -41.9965   -7.4346 O   0  0  0  0  0  0  0  0  0  0  0  0
   42.9903  -40.6530   -7.9726 C   0  0  0  0  0  0  0  0  0  0  0  0
   42.2037  -39.6751   -8.7487 C   0  0  0  0  0  0  0  0  0  0  0  0
   42.8892  -38.3328   -8.7559 C   0  0  0  0  0  0  0  0  0  0  0  0
   43.9382  -38.1603   -7.8179 N   0  0  0  0  0  0  0  0  0  0  0  0
   43.8016  -38.4184   -6.4336 C   0  0  0  0  0  0  0  0  0  0  0  0
   43.0794  -37.6342   -5.7066 N   0  0  0  0  0  0  0  0  0  0  0  0
   44.4487  -39.5279   -5.8280 N   0  0  0  0  0  0  0  0  0  0  0  0
   46.6082  -40.1754   -7.8242 N   0  0  0  0  0  0  0  0  0  0  0  0
   47.6962  -39.5540   -7.1605 C   0  0  2  0  0  0  0  0  0  0  0  0
   48.9338  -39.4987   -7.9807 C   0  0  0  0  0  0  0  0  0  0  0  0
   49.9578  -40.0454   -7.4940 O   0  0  0  0  0  0  0  0  0  0  0  0
   48.0131  -40.0746   -5.7948 C   0  0  0  0  0  0  0  0  0  0  0  0
   49.3853  -39.8137   -5.2871 C   0  0  0  0  0  0  0  0  0  0  0  0
   49.8380  -38.4473   -5.8277 C   0  0  0  0  0  0  0  0  0  0  0  0
   50.8399  -37.8910   -4.9285 N   0  0  0  0  0  0  0  0  0  0  0  0
   52.1926  -37.7301   -5.3103 C   0  0  0  0  0  0  0  0  0  0  0  0
   53.0351  -36.6842   -4.8308 N   0  0  0  0  0  0  0  0  0  0  0  0
   52.7121  -38.5601   -6.1343 N   0  0  0  0  0  0  0  0  0  0  0  0
   49.0637  -38.8914   -9.2536 N   0  0  0  0  0  0  0  0  0  0  0  0
   48.6849  -37.5636   -9.6422 C   0  0  2  0  0  0  0  0  0  0  0  0
   49.2909  -36.4739   -8.8351 C   0  0  0  0  0  0  0  0  0  0  0  0
   49.2053  -36.6129   -7.5747 O   0  0  0  0  0  0  0  0  0  0  0  0
   47.1990  -37.3550   -9.8002 C   0  0  0  0  0  0  0  0  0  0  0  0
   46.7549  -38.0788  -11.0556 C   0  0  0  0  0  0  0  0  0  0  0  0
   46.5383  -37.1294  -12.2056 C   0  0  0  0  0  0  0  0  0  0  0  0
   45.1605  -36.5160  -12.0823 C   0  0  0  0  0  0  0  0  0  0  0  0
   44.1488  -37.5191  -12.0274 N   0  0  0  0  0  0  0  0  0  0  0  0
   49.9310  -35.3310   -9.3197 N   0  0  0  0  0  0  0  0  0  0  0  0
   51.2745  -34.8823   -8.7939 C   0  0  2  0  0  0  0  0  0  0  0  0
   50.9233  -34.1724   -7.5663 C   0  0  0  0  0  0  0  0  0  0  0  0
   49.8508  -33.5586   -7.4494 O   0  0  0  0  0  0  0  0  0  0  0  0
   51.9150  -34.0697   -9.8283 C   0  0  0  0  0  0  0  0  0  0  0  0
   52.5407  -34.6692  -10.9943 C   0  0  0  0  0  0  0  0  0  0  0  0
   52.9759  -33.9203  -12.1759 C   0  0  0  0  0  0  0  0  0  0  0  0
   54.4123  -33.9101  -12.3818 N   0  0  0  0  0  0  0  0  0  0  0  0
   55.1944  -35.0415  -12.0311 C   0  0  0  0  0  0  0  0  0  0  0  0
   56.4834  -35.0630  -12.1969 N   0  0  0  0  0  0  0  0  0  0  0  0
   54.5666  -36.1916  -11.4808 N   0  0  0  0  0  0  0  0  0  0  0  0
   51.7876  -34.1413   -6.4458 N   0  0  0  0  0  0  0  0  0  0  0  0
   51.4844  -34.6351   -5.1323 C   0  0  0  0  0  0  0  0  0  0  0  0
   50.7514  -33.6594   -4.3202 C   0  0  0  0  0  0  0  0  0  0  0  0
   49.6027  -34.0516   -3.6608 C   0  0  0  0  0  0  0  0  0  0  0  0
   48.9070  -33.1548   -2.8572 C   0  0  0  0  0  0  0  0  0  0  0  0
   49.3615  -31.8689   -2.7157 C   0  0  0  0  0  0  0  0  0  0  0  0
   48.6422  -30.9427   -1.8762 C   0  0  0  0  0  0  0  0  0  0  0  0
   47.7290  -31.4610   -0.9267 N   0  0  0  0  0  0  0  0  0  0  0  0
   48.8358  -29.6799   -1.9949 N   0  0  0  0  0  0  0  0  0  0  0  0
   50.4982  -31.4643   -3.3633 C   0  0  0  0  0  0  0  0  0  0  0  0
   51.1920  -32.3760   -4.1704 C   0  0  0  0  0  0  0  0  0  0  0  0
   42.7811  -37.3729  -11.7708 C   0  0  0  0  0  0  0  0  0  0  0  0
   42.1399  -36.5577  -10.7203 C   0  0  0  0  0  0  0  0  0  0  0  0
   42.9589  -36.5918   -9.4820 C   0  0  0  0  0  0  0  0  0  0  0  0
   42.2369  -37.2744   -8.2981 C   0  0  0  0  0  0  0  0  0  0  0  0
   43.2127  -37.6074   -7.2339 C   0  0  0  0  0  0  0  0  0  0  0  0
   41.9883  -38.0255  -12.5416 O   0  0  0  0  0  0  0  0  0  0  0  0
   43.1460  -36.8217   -6.2000 O   0  0  0  0  0  0  0  0  0  0  0  0
   42.6792  -37.9648   -4.8076 H   0  0  0  0  0  0  0  0  0  0  0  0
   52.8258  -39.5684   -5.9460 H   0  0  0  0  0  0  0  0  0  0  0  0
   56.9824  -34.2131  -12.5357 H   0  0  0  0  0  0  0  0  0  0  0  0
   48.5428  -29.0470   -1.2438 H   0  0  0  0  0  0  0  0  0  0  0  0
  2  1  1  6
  1 58  1  0
  2  3  1  0
  5  2  1  1
  3  4  2  0
  3 12  1  0
  5  6  1  0
  6  7  1  6
  7  8  1  6
  8  9  1  0
  9 10  2  0
  9 11  1  0
 13 12  1  6
 13 14  1  0
 16 13  1  1
 14 15  2  0
 14 23  1  0
 16 17  1  0
 17 18  1  6
 18 19  1  6
 19 20  1  0
 20 21  1  0
 20 22  2  0
 23 24  1  0
 24 25  1  1
 27 24  1  1
 25 26  2  0
 25 32  1  0
 28 27  1  1
 28 29  1  0
 29 30  1  6
 30 31  1  6
 31 54  1  0
 33 32  1  6
 33 34  1  0
 36 33  1  1
 34 35  2  0
 34 43  1  0
 36 37  1  0
 37 38  1  6
 38 39  1  6
 39 40  1  0
 40 41  2  0
 40 42  1  0
 44 43  1  1
 44 45  1  0
 45 46  2  0
 45 53  1  0
 46 47  1  0
 47 48  2  0
 48 49  1  0
 48 52  1  0
 49 50  1  0
 49 51  2  0
 52 53  2  0
 55 54  1  1
 54 59  2  0
 56 55  1  1
 56 57  1  0
 57 58  1  6
 58 60  2  0
 10 61  1  0
 22 62  1  0
 41 63  1  0
 51 64  1  0
M  END
$$$$
