
     RDKit          3D

 64 65  0  0  0  0  0  0  0  0999 V2000
   44.3186  -36.9478   -9.0913 N   0  0  0  0  0  0  0  0  0  0  0  0
   44.1737  -37.8038   -7.9562 C   0  0  2  0  0  0  0  0  0  0  0  0
   45.5168  -38.2466   -7.3948 C   0  0  0  0  0  0  0  0  0  0  0  0
   45.2880  -39.0711   -6.4121 O   0  0  0  0  0  0  0  0  0  0  0  0
   43.3651  -39.0782   -8.2262 C   0  0  0  0  0  0  0  0  0  0  0  0
   44.1143  -40.3313   -8.0123 C   0  0  0  0  0  0  0  0  0  0  0  0
   45.0894  -40.1756   -6.8736 C   0  0  0  0  0  0  0  0  0  0  0  0
   45.1713  -38.8855   -6.2913 N   0  0  0  0  0  0  0  0  0  0  0  0
   44.1823  -38.3488   -5.4338 C   0  0  0  0  0  0  0  0  0  0  0  0
   43.0252  -38.9153   -5.3610 N   0  0  0  0  0  0  0  0  0  0  0  0
   44.4410  -37.1930   -4.6505 N   0  0  0  0  0  0  0  0  0  0  0  0
   46.7976  -37.9180   -7.7669 N   0  0  0  0  0  0  0  0  0  0  0  0
   47.6645  -36.8048   -7.6268 C   0  0  2  0  0  0  0  0  0  0  0  0
   49.0875  -37.1261   -7.9088 C   0  0  0  0  0  0  0  0  0  0  0  0
   49.9109  -36.8978   -6.9846 O   0  0  0  0  0  0  0  0  0  0  0  0
   47.5580  -36.0505   -6.3398 C   0  0  0  0  0  0  0  0  0  0  0  0
   47.8178  -36.8209   -5.0957 C   0  0  0  0  0  0  0  0  0  0  0  0
   47.7892  -38.3167   -5.4507 C   0  0  0  0  0  0  0  0  0  0  0  0
   48.7617  -39.0181   -4.6237 N   0  0  0  0  0  0  0  0  0  0  0  0
   49.6828  -38.3348   -3.7955 C   0  0  0  0  0  0  0  0  0  0  0  0
   49.3133  -37.6103   -2.6241 N   0  0  0  0  0  0  0  0  0  0  0  0
   50.9266  -38.3536   -4.0962 N   0  0  0  0  0  0  0  0  0  0  0  0
   49.5971  -37.6640   -9.1158 N   0  0  0  0  0  0  0  0  0  0  0  0
   49.3849  -37.1911  -10.4533 C   0  0  2  0  0  0  0  0  0  0  0  0
   49.7626  -35.7738  -10.6878 C   0  0  0  0  0  0  0  0  0  0  0  0
   49.4902  -35.3180  -11.8425 O   0  0  0  0  0  0  0  0  0  0  0  0
   48.0148  -37.4836  -11.0132 C   0  0  0  0  0  0  0  0  0  0  0  0
   47.9322  -38.9700  -11.2976 C   0  0  0  0  0  0  0  0  0  0  0  0
   48.0845  -39.2712  -12.7662 C   0  0  0  0  0  0  0  0  0  0  0  0
   46.7481  -39.0752  -13.4483 C   0  0  0  0  0  0  0  0  0  0  0  0
   45.7354  -39.8784  -12.8463 N   0  0  0  0  0  0  0  0  0  0  0  0
   50.3796  -34.9114   -9.7788 N   0  0  0  0  0  0  0  0  0  0  0  0
   51.3543  -35.4097   -8.7375 C   0  0  2  0  0  0  0  0  0  0  0  0
   51.6765  -34.1985   -7.9868 C   0  0  0  0  0  0  0  0  0  0  0  0
   50.9038  -33.7316   -7.1351 O   0  0  0  0  0  0  0  0  0  0  0  0
   52.4785  -36.0347   -9.4346 C   0  0  0  0  0  0  0  0  0  0  0  0
   53.7782  -36.1909   -8.8048 C   0  0  0  0  0  0  0  0  0  0  0  0
   54.4361  -37.4795   -8.5749 C   0  0  0  0  0  0  0  0  0  0  0  0
   53.6232  -38.4472   -7.8617 N   0  0  0  0  0  0  0  0  0  0  0  0
   53.7034  -38.5470   -6.4481 C   0  0  0  0  0  0  0  0  0  0  0  0
   53.5063  -37.5208   -5.6752 N   0  0  0  0  0  0  0  0  0  0  0  0
   54.0059  -39.7973   -5.8438 N   0  0  0  0  0  0  0  0  0  0  0  0
   52.8839  -33.4890   -8.1925 N   0  0  0  0  0  0  0  0  0  0  0  0
   53.0213  -32.0620   -8.2701 C   0  0  0  0  0  0  0  0  0  0  0  0
   52.4785  -31.3800   -7.0915 C   0  0  0  0  0  0  0  0  0  0  0  0
   52.1798  -32.1141   -5.9602 C   0  0  0  0  0  0  0  0  0  0  0  0
   51.6952  -31.4871   -4.8174 C   0  0  0  0  0  0  0  0  0  0  0  0
   51.5104  -30.1285   -4.8093 C   0  0  0  0  0  0  0  0  0  0  0  0
   51.0144  -29.4796   -3.6206 C   0  0  0  0  0  0  0  0  0  0  0  0
   50.6899  -28.1033   -3.6880 N   0  0  0  0  0  0  0  0  0  0  0  0
   50.8724  -30.1458   -2.5333 N   0  0  0  0  0  0  0  0  0  0  0  0
   51.8011  -29.3866   -5.9230 C   0  0  0  0  0  0  0  0  0  0  0  0
   52.2892  -30.0282   -7.0692 C   0  0  0  0  0  0  0  0  0  0  0  0
   44.3568  -39.8769  -13.0850 C   0  0  0  0  0  0  0  0  0  0  0  0
   43.4627  -38.7095  -13.2160 C   0  0  0  0  0  0  0  0  0  0  0  0
   43.8874  -37.6384  -12.2791 C   0  0  0  0  0  0  0  0  0  0  0  0
   42.8348  -37.3368  -11.1883 C   0  0  0  0  0  0  0  0  0  0  0  0
   43.4512  -36.5525  -10.0928 C   0  0  0  0  0  0  0  0  0  0  0  0
   43.8024  -41.0288  -13.2049 O   0  0  0  0  0  0  0  0  0  0  0  0
   43.1109  -35.2975  -10.0935 O   0  0  0  0  0  0  0  0  0  0  0  0
   42.1946  -38.4827   -5.8088 H   0  0  0  0  0  0  0  0  0  0  0  0
   51.3786  -39.1028   -4.6433 H   0  0  0  0  0  0  0  0  0  0  0  0
   53.7220  -37.5821   -4.6574 H   0  0  0  0  0  0  0  0  0  0  0  0
   51.6530  -30.7030   -2.1719 H   0  0  0  0  0  0  0  0  0  0  0  0
  2  1  1  6
  1 58  1  0
  2  3  1  0
  5  2  1  1
  3  4  2  0
  3 12  1  0
  5  6  1  0
  6  7  1  6
  7  8  1  6
  8  9  1  0
  9 10  2  0
  9 11  1  0
 13 12  1  1
 13 14  1  0
 16 13  1  1
 14 15  2  0
 14 23  1  0
 16 17  1  0
 17 18  1  6
 18 19  1  6
 19 20  1  0
 20 21  1  0
 20 22  2  0
 23 24  1  0
 24 25  1  1
 27 24  1  1
 25 26  2  0
 25 32  1  0
 28 27  1  1
 28 29  1  0
 29 30  1  6
 30 31  1  6
 31 54  1  0
 33 32  1  6
 33 34  1  0
 36 33  1  1
 34 35  2  0
 34 43  1  0
 36 37  1  0
 37 38  1  6
 38 39  1  6
 39 40  1  0
 40 41  2  0
 40 42  1  0
 44 43  1  1
 44 45  1  0
 45 46  2  0
 45 53  1  0
 46 47  1  0
 47 48  2  0
 48 49  1  0
 48 52  1  0
 49 50  1  0
 49 51  2  0
 52 53  2  0
 55 54  1  1
 54 59  2  0
 56 55  1  1
 56 57  1  0
 57 58  1  6
 58 60  2  0
 10 61  1  0
 22 62  1  0
 41 63  1  0
 51 64  1  0
M  END
$$$$
