
     RDKit          3D

 64 65  0  0  0  0  0  0  0  0999 V2000
   52.7599  -34.2327   -4.4980 N   0  0  0  0  0  0  0  0  0  0  0  0
   52.2288  -35.4980   -4.0696 C   0  0  2  0  0  0  0  0  0  0  0  0
   50.8975  -35.2974   -3.3898 C   0  0  0  0  0  0  0  0  0  0  0  0
   50.9980  -34.5746   -2.3300 O   0  0  0  0  0  0  0  0  0  0  0  0
   53.0368  -36.1758   -2.9918 C   0  0  0  0  0  0  0  0  0  0  0  0
   53.4226  -35.3896   -1.8159 C   0  0  0  0  0  0  0  0  0  0  0  0
   52.4865  -34.2841   -1.4128 C   0  0  0  0  0  0  0  0  0  0  0  0
   52.6776  -33.1319   -2.2750 N   0  0  0  0  0  0  0  0  0  0  0  0
   51.8770  -31.9615   -2.2327 C   0  0  0  0  0  0  0  0  0  0  0  0
   51.3998  -31.5805   -1.1008 N   0  0  0  0  0  0  0  0  0  0  0  0
   51.5738  -31.1823   -3.3762 N   0  0  0  0  0  0  0  0  0  0  0  0
   49.6588  -35.7888   -3.7752 N   0  0  0  0  0  0  0  0  0  0  0  0
   48.9688  -35.7013   -5.0383 C   0  0  2  0  0  0  0  0  0  0  0  0
   48.6126  -37.0238   -5.6166 C   0  0  0  0  0  0  0  0  0  0  0  0
   48.5827  -37.9616   -4.7329 O   0  0  0  0  0  0  0  0  0  0  0  0
   49.4488  -34.6788   -5.9889 C   0  0  0  0  0  0  0  0  0  0  0  0
   49.9889  -33.4884   -5.2072 C   0  0  0  0  0  0  0  0  0  0  0  0
   49.8700  -33.7303   -3.7305 C   0  0  0  0  0  0  0  0  0  0  0  0
   50.1420  -32.5019   -3.0299 N   0  0  0  0  0  0  0  0  0  0  0  0
   49.6921  -32.3210   -1.6936 C   0  0  0  0  0  0  0  0  0  0  0  0
   50.6260  -32.5919   -0.6514 N   0  0  0  0  0  0  0  0  0  0  0  0
   48.4976  -31.9295   -1.4119 N   0  0  0  0  0  0  0  0  0  0  0  0
   48.3192  -37.3639   -6.9291 N   0  0  0  0  0  0  0  0  0  0  0  0
   49.0680  -37.3126   -8.1303 C   0  0  2  0  0  0  0  0  0  0  0  0
   48.7607  -38.4808   -9.0310 C   0  0  0  0  0  0  0  0  0  0  0  0
   49.3374  -39.5914   -8.8507 O   0  0  0  0  0  0  0  0  0  0  0  0
   50.5617  -37.3579   -7.9591 C   0  0  0  0  0  0  0  0  0  0  0  0
   51.1063  -38.7670   -8.0146 C   0  0  0  0  0  0  0  0  0  0  0  0
   52.4036  -38.7844   -7.2369 C   0  0  0  0  0  0  0  0  0  0  0  0
   53.5630  -38.7335   -8.2108 C   0  0  0  0  0  0  0  0  0  0  0  0
   53.3070  -37.7467   -9.2339 N   0  0  0  0  0  0  0  0  0  0  0  0
   47.8330  -38.3138  -10.0567 N   0  0  0  0  0  0  0  0  0  0  0  0
   46.7831  -37.1772   -9.9680 C   0  0  2  0  0  0  0  0  0  0  0  0
   45.5823  -37.8701   -9.5990 C   0  0  0  0  0  0  0  0  0  0  0  0
   45.7966  -39.1758   -9.4054 O   0  0  0  0  0  0  0  0  0  0  0  0
   47.0257  -36.3707  -11.1382 C   0  0  0  0  0  0  0  0  0  0  0  0
   47.8947  -35.1984  -11.1875 C   0  0  0  0  0  0  0  0  0  0  0  0
   47.4603  -33.8053  -11.1692 C   0  0  0  0  0  0  0  0  0  0  0  0
   48.5414  -33.0173  -11.8157 N   0  0  0  0  0  0  0  0  0  0  0  0
   48.1633  -31.9351  -12.6387 C   0  0  0  0  0  0  0  0  0  0  0  0
   48.1936  -30.7417  -12.1216 N   0  0  0  0  0  0  0  0  0  0  0  0
   47.7594  -32.0846  -13.9857 N   0  0  0  0  0  0  0  0  0  0  0  0
   44.2484  -37.5488   -9.3938 N   0  0  0  0  0  0  0  0  0  0  0  0
   43.1886  -38.5255   -9.0576 C   0  0  0  0  0  0  0  0  0  0  0  0
   43.2834  -38.9611   -7.6470 C   0  0  0  0  0  0  0  0  0  0  0  0
   44.2467  -39.9222   -7.3010 C   0  0  0  0  0  0  0  0  0  0  0  0
   44.3751  -40.3534   -6.0012 C   0  0  0  0  0  0  0  0  0  0  0  0
   43.5668  -39.8608   -4.9856 C   0  0  0  0  0  0  0  0  0  0  0  0
   43.7112  -40.3257   -3.6133 C   0  0  0  0  0  0  0  0  0  0  0  0
   44.7027  -41.3187   -3.2973 N   0  0  0  0  0  0  0  0  0  0  0  0
   42.9766  -39.8780   -2.6505 N   0  0  0  0  0  0  0  0  0  0  0  0
   42.6255  -38.9199   -5.3272 C   0  0  0  0  0  0  0  0  0  0  0  0
   42.4842  -38.4708   -6.6531 C   0  0  0  0  0  0  0  0  0  0  0  0
   53.8331  -36.4267   -9.2408 C   0  0  0  0  0  0  0  0  0  0  0  0
   54.6743  -35.8698   -8.1625 C   0  0  0  0  0  0  0  0  0  0  0  0
   53.8137  -34.9763   -7.2815 C   0  0  0  0  0  0  0  0  0  0  0  0
   54.6841  -34.3667   -6.2451 C   0  0  0  0  0  0  0  0  0  0  0  0
   53.9963  -33.8904   -5.0198 C   0  0  0  0  0  0  0  0  0  0  0  0
   53.5690  -35.6847  -10.2243 O   0  0  0  0  0  0  0  0  0  0  0  0
   54.6959  -33.0193   -4.3675 O   0  0  0  0  0  0  0  0  0  0  0  0
   51.0778  -30.5872   -0.9394 H   0  0  0  0  0  0  0  0  0  0  0  0
   48.0155  -31.2958   -2.0811 H   0  0  0  0  0  0  0  0  0  0  0  0
   48.4010  -29.8870  -12.6777 H   0  0  0  0  0  0  0  0  0  0  0  0
   43.2406  -40.0205   -1.6552 H   0  0  0  0  0  0  0  0  0  0  0  0
  1  2  1  0
  1 58  1  0
  2  3  1  0
  2  5  1  1
  3  4  2  0
  3 12  1  0
  5  6  1  0
  6  7  1  0
  7  8  1  0
  8  9  1  0
  9 10  2  0
  9 11  1  0
 12 13  1  0
 13 14  1  0
 13 16  1  6
 14 15  2  0
 14 23  1  0
 16 17  1  0
 17 18  1  0
 18 19  1  0
 19 20  1  0
 20 21  1  0
 20 22  2  0
 23 24  1  0
 24 25  1  6
 24 27  1  0
 25 26  2  0
 25 32  1  0
 27 28  1  0
 28 29  1  0
 29 30  1  0
 30 31  1  0
 31 54  1  0
 32 33  1  0
 33 34  1  0
 33 36  1  6
 34 35  2  0
 34 43  1  0
 36 37  1  0
 37 38  1  0
 38 39  1  0
 39 40  1  0
 40 41  2  0
 40 42  1  0
 43 44  1  0
 44 45  1  0
 45 46  2  0
 45 53  1  0
 46 47  1  0
 47 48  2  0
 48 49  1  0
 48 52  1  0
 49 50  1  0
 49 51  2  0
 52 53  2  0
 54 55  1  0
 54 59  2  0
 55 56  1  0
 56 57  1  0
 57 58  1  0
 58 60  2  0
 10 61  1  0
 22 62  1  0
 41 63  1  0
 51 64  1  0
M  END
$$$$
