
     RDKit          3D

 64 65  0  0  0  0  0  0  0  0999 V2000
   54.3419  -35.0827   -6.2556 N   0  0  0  0  0  0  0  0  0  0  0  0
   53.6192  -36.3215   -6.1569 C   0  0  2  0  0  0  0  0  0  0  0  0
   52.6089  -36.2441   -5.0397 C   0  0  0  0  0  0  0  0  0  0  0  0
   53.1656  -36.0626   -3.8939 O   0  0  0  0  0  0  0  0  0  0  0  0
   54.4635  -37.4995   -5.7402 C   0  0  0  0  0  0  0  0  0  0  0  0
   55.1790  -37.4232   -4.4628 C   0  0  0  0  0  0  0  0  0  0  0  0
   54.5454  -36.5818   -3.3896 C   0  0  0  0  0  0  0  0  0  0  0  0
   55.5729  -35.9506   -2.5814 N   0  0  0  0  0  0  0  0  0  0  0  0
   56.7871  -35.4296   -3.0978 C   0  0  0  0  0  0  0  0  0  0  0  0
   57.6885  -36.2520   -3.5040 N   0  0  0  0  0  0  0  0  0  0  0  0
   57.0625  -34.0433   -3.1937 N   0  0  0  0  0  0  0  0  0  0  0  0
   51.2282  -36.3453   -5.1279 N   0  0  0  0  0  0  0  0  0  0  0  0
   50.2886  -35.6329   -5.9579 C   0  0  2  0  0  0  0  0  0  0  0  0
   49.4566  -36.5194   -6.8136 C   0  0  0  0  0  0  0  0  0  0  0  0
   49.4032  -37.7294   -6.3729 O   0  0  0  0  0  0  0  0  0  0  0  0
   50.7657  -34.3819   -6.5799 C   0  0  0  0  0  0  0  0  0  0  0  0
   50.0357  -33.2035   -5.9489 C   0  0  0  0  0  0  0  0  0  0  0  0
   49.5643  -33.5544   -4.5676 C   0  0  0  0  0  0  0  0  0  0  0  0
   50.7019  -33.9101   -3.7594 N   0  0  0  0  0  0  0  0  0  0  0  0
   50.5292  -34.2821   -2.3982 C   0  0  0  0  0  0  0  0  0  0  0  0
   49.7799  -33.3944   -1.5722 N   0  0  0  0  0  0  0  0  0  0  0  0
   51.0183  -35.3691   -1.9098 N   0  0  0  0  0  0  0  0  0  0  0  0
   48.7586  -36.2240   -7.9756 N   0  0  0  0  0  0  0  0  0  0  0  0
   49.1620  -35.7727   -9.2561 C   0  0  2  0  0  0  0  0  0  0  0  0
   48.3346  -36.3910  -10.3531 C   0  0  0  0  0  0  0  0  0  0  0  0
   48.6171  -37.5434  -10.7896 O   0  0  0  0  0  0  0  0  0  0  0  0
   50.5817  -36.0960   -9.6338 C   0  0  0  0  0  0  0  0  0  0  0  0
   50.6969  -37.4089  -10.3743 C   0  0  0  0  0  0  0  0  0  0  0  0
   52.0960  -37.9376  -10.1482 C   0  0  0  0  0  0  0  0  0  0  0  0
   52.9389  -37.6410  -11.3717 C   0  0  0  0  0  0  0  0  0  0  0  0
   52.7041  -36.2876  -11.8182 N   0  0  0  0  0  0  0  0  0  0  0  0
   47.2586  -35.6731  -10.8703 N   0  0  0  0  0  0  0  0  0  0  0  0
   45.8613  -35.7987  -10.2119 C   0  0  2  0  0  0  0  0  0  0  0  0
   45.4517  -37.1271  -10.5662 C   0  0  0  0  0  0  0  0  0  0  0  0
   45.4911  -37.3278  -11.8878 O   0  0  0  0  0  0  0  0  0  0  0  0
   45.2064  -34.5507  -10.5159 C   0  0  0  0  0  0  0  0  0  0  0  0
   45.1784  -33.3801   -9.6436 C   0  0  0  0  0  0  0  0  0  0  0  0
   43.9832  -32.7323   -9.1131 C   0  0  0  0  0  0  0  0  0  0  0  0
   44.4286  -31.8968   -7.9680 N   0  0  0  0  0  0  0  0  0  0  0  0
   44.6063  -30.5151   -8.1929 C   0  0  0  0  0  0  0  0  0  0  0  0
   45.8183  -30.0842   -8.3879 N   0  0  0  0  0  0  0  0  0  0  0  0
   43.5400  -29.5864   -8.2187 N   0  0  0  0  0  0  0  0  0  0  0  0
   45.0169  -38.2653   -9.9026 N   0  0  0  0  0  0  0  0  0  0  0  0
   43.6256  -38.7693   -9.9176 C   0  0  0  0  0  0  0  0  0  0  0  0
   43.2624  -39.3907   -8.6250 C   0  0  0  0  0  0  0  0  0  0  0  0
   44.2867  -39.7159   -7.7215 C   0  0  0  0  0  0  0  0  0  0  0  0
   43.9964  -40.2899   -6.5058 C   0  0  0  0  0  0  0  0  0  0  0  0
   42.6913  -40.5684   -6.1232 C   0  0  0  0  0  0  0  0  0  0  0  0
   42.3962  -41.1774   -4.8339 C   0  0  0  0  0  0  0  0  0  0  0  0
   41.0285  -41.3796   -4.4369 N   0  0  0  0  0  0  0  0  0  0  0  0
   43.3237  -41.5513   -4.0172 N   0  0  0  0  0  0  0  0  0  0  0  0
   41.6910  -40.2484   -7.0092 C   0  0  0  0  0  0  0  0  0  0  0  0
   41.9750  -39.6610   -8.2559 C   0  0  0  0  0  0  0  0  0  0  0  0
   53.5441  -35.1785  -11.5295 C   0  0  0  0  0  0  0  0  0  0  0  0
   54.7495  -35.2574  -10.6802 C   0  0  0  0  0  0  0  0  0  0  0  0
   54.4132  -34.7122   -9.3002 C   0  0  0  0  0  0  0  0  0  0  0  0
   55.6490  -34.7303   -8.4782 C   0  0  0  0  0  0  0  0  0  0  0  0
   55.4494  -34.7287   -7.0080 C   0  0  0  0  0  0  0  0  0  0  0  0
   53.2465  -34.0598  -12.0268 O   0  0  0  0  0  0  0  0  0  0  0  0
   56.4987  -34.3256   -6.3674 O   0  0  0  0  0  0  0  0  0  0  0  0
   57.8160  -36.4753   -4.5288 H   0  0  0  0  0  0  0  0  0  0  0  0
   50.8583  -35.5732   -0.9025 H   0  0  0  0  0  0  0  0  0  0  0  0
   46.6458  -30.7140   -8.4248 H   0  0  0  0  0  0  0  0  0  0  0  0
   44.3032  -41.6913   -4.3358 H   0  0  0  0  0  0  0  0  0  0  0  0
  1  2  1  0
  1 58  1  0
  2  3  1  0
  2  5  1  1
  3  4  2  0
  3 12  1  0
  5  6  1  0
  6  7  1  0
  7  8  1  0
  8  9  1  0
  9 10  2  0
  9 11  1  0
 12 13  1  0
 13 14  1  0
 13 16  1  6
 14 15  2  0
 14 23  1  0
 16 17  1  0
 17 18  1  0
 18 19  1  0
 19 20  1  0
 20 21  1  0
 20 22  2  0
 23 24  1  0
 24 25  1  6
 24 27  1  0
 25 26  2  0
 25 32  1  0
 27 28  1  0
 28 29  1  0
 29 30  1  0
 30 31  1  0
 31 54  1  0
 32 33  1  0
 33 34  1  0
 33 36  1  6
 34 35  2  0
 34 43  1  0
 36 37  1  0
 37 38  1  0
 38 39  1  0
 39 40  1  0
 40 41  2  0
 40 42  1  0
 43 44  1  0
 44 45  1  0
 45 46  2  0
 45 53  1  0
 46 47  1  0
 47 48  2  0
 48 49  1  0
 48 52  1  0
 49 50  1  0
 49 51  2  0
 52 53  2  0
 54 55  1  0
 54 59  2  0
 55 56  1  0
 56 57  1  0
 57 58  1  0
 58 60  2  0
 10 61  1  0
 22 62  1  0
 41 63  1  0
 51 64  1  0
M  END
$$$$
