
     RDKit          3D

 64 65  0  0  0  0  0  0  0  0999 V2000
   50.3155  -35.6699   -4.0065 N   0  0  0  0  0  0  0  0  0  0  0  0
   49.3584  -34.7032   -3.5685 C   0  0  2  0  0  0  0  0  0  0  0  0
   48.3700  -34.3351   -4.6651 C   0  0  0  0  0  0  0  0  0  0  0  0
   47.5835  -33.4061   -4.2001 O   0  0  0  0  0  0  0  0  0  0  0  0
   49.9719  -33.3906   -3.0668 C   0  0  0  0  0  0  0  0  0  0  0  0
   49.9317  -33.2208   -1.6016 C   0  0  0  0  0  0  0  0  0  0  0  0
   49.3158  -34.4304   -0.9466 C   0  0  0  0  0  0  0  0  0  0  0  0
   50.2013  -35.2718   -0.2268 N   0  0  0  0  0  0  0  0  0  0  0  0
   51.4993  -34.8801    0.1773 C   0  0  0  0  0  0  0  0  0  0  0  0
   52.4852  -34.9917   -0.6477 N   0  0  0  0  0  0  0  0  0  0  0  0
   51.7372  -34.3661    1.4795 N   0  0  0  0  0  0  0  0  0  0  0  0
   48.2312  -34.8123   -5.9458 N   0  0  0  0  0  0  0  0  0  0  0  0
   47.7259  -35.9823   -6.5669 C   0  0  2  0  0  0  0  0  0  0  0  0
   47.4857  -35.8199   -8.0241 C   0  0  0  0  0  0  0  0  0  0  0  0
   46.3141  -36.0362   -8.4302 O   0  0  0  0  0  0  0  0  0  0  0  0
   46.5285  -36.6018   -5.9194 C   0  0  0  0  0  0  0  0  0  0  0  0
   45.5652  -37.2850   -6.8217 C   0  0  0  0  0  0  0  0  0  0  0  0
   44.8554  -36.2080   -7.6587 C   0  0  0  0  0  0  0  0  0  0  0  0
   44.9766  -36.5490   -9.0696 N   0  0  0  0  0  0  0  0  0  0  0  0
   43.8757  -36.9974   -9.8365 C   0  0  0  0  0  0  0  0  0  0  0  0
   42.6097  -37.3474   -9.2813 N   0  0  0  0  0  0  0  0  0  0  0  0
   44.0005  -37.1038  -11.1058 N   0  0  0  0  0  0  0  0  0  0  0  0
   48.4502  -35.4444   -8.9910 N   0  0  0  0  0  0  0  0  0  0  0  0
   49.7459  -36.0172   -9.2157 C   0  0  2  0  0  0  0  0  0  0  0  0
   49.7512  -37.4786   -9.4812 C   0  0  0  0  0  0  0  0  0  0  0  0
   48.9572  -38.1682   -8.7674 O   0  0  0  0  0  0  0  0  0  0  0  0
   50.7817  -35.6537   -8.1807 C   0  0  0  0  0  0  0  0  0  0  0  0
   51.1548  -34.1985   -8.3820 C   0  0  0  0  0  0  0  0  0  0  0  0
   52.4803  -34.0492   -9.0831 C   0  0  0  0  0  0  0  0  0  0  0  0
   53.5916  -34.1844   -8.0650 C   0  0  0  0  0  0  0  0  0  0  0  0
   53.4439  -33.2399   -7.0071 N   0  0  0  0  0  0  0  0  0  0  0  0
   50.5329  -38.1552  -10.4204 N   0  0  0  0  0  0  0  0  0  0  0  0
   50.1103  -38.2912  -11.8646 C   0  0  2  0  0  0  0  0  0  0  0  0
   51.0899  -37.4678  -12.5695 C   0  0  0  0  0  0  0  0  0  0  0  0
   51.4403  -36.3568  -12.1411 O   0  0  0  0  0  0  0  0  0  0  0  0
   48.7211  -37.8451  -11.9719 C   0  0  0  0  0  0  0  0  0  0  0  0
   48.3622  -36.4386  -11.9144 C   0  0  0  0  0  0  0  0  0  0  0  0
   47.0081  -35.9405  -11.6600 C   0  0  0  0  0  0  0  0  0  0  0  0
   46.0060  -36.4329  -12.5868 N   0  0  0  0  0  0  0  0  0  0  0  0
   45.7625  -35.7508  -13.8075 C   0  0  0  0  0  0  0  0  0  0  0  0
   45.3141  -34.5311  -13.8347 N   0  0  0  0  0  0  0  0  0  0  0  0
   46.0115  -36.4047  -15.0445 N   0  0  0  0  0  0  0  0  0  0  0  0
   51.6891  -37.8889  -13.7808 N   0  0  0  0  0  0  0  0  0  0  0  0
   53.0418  -37.6318  -14.1871 C   0  0  0  0  0  0  0  0  0  0  0  0
   53.8844  -37.1734  -13.0786 C   0  0  0  0  0  0  0  0  0  0  0  0
   53.6403  -37.6416  -11.8021 C   0  0  0  0  0  0  0  0  0  0  0  0
   54.4454  -37.2486  -10.7385 C   0  0  0  0  0  0  0  0  0  0  0  0
   55.4915  -36.3887  -10.9541 C   0  0  0  0  0  0  0  0  0  0  0  0
   56.3292  -35.9882   -9.8506 C   0  0  0  0  0  0  0  0  0  0  0  0
   56.1550  -36.6322   -8.6020 N   0  0  0  0  0  0  0  0  0  0  0  0
   57.2107  -35.0695  -10.0099 N   0  0  0  0  0  0  0  0  0  0  0  0
   55.7461  -35.9151  -12.2134 C   0  0  0  0  0  0  0  0  0  0  0  0
   54.9290  -36.3175  -13.2784 C   0  0  0  0  0  0  0  0  0  0  0  0
   54.1687  -33.1375   -5.8147 C   0  0  0  0  0  0  0  0  0  0  0  0
   54.5551  -34.2253   -4.8946 C   0  0  0  0  0  0  0  0  0  0  0  0
   53.4727  -35.2397   -4.8267 C   0  0  0  0  0  0  0  0  0  0  0  0
   52.8268  -35.3420   -3.4262 C   0  0  0  0  0  0  0  0  0  0  0  0
   51.5420  -36.0749   -3.5133 C   0  0  0  0  0  0  0  0  0  0  0  0
   54.5434  -31.9557   -5.4805 O   0  0  0  0  0  0  0  0  0  0  0  0
   51.6006  -37.2883   -3.0494 O   0  0  0  0  0  0  0  0  0  0  0  0
   53.2138  -35.7177   -0.5072 H   0  0  0  0  0  0  0  0  0  0  0  0
   43.8341  -37.9753  -11.6328 H   0  0  0  0  0  0  0  0  0  0  0  0
   45.7176  -33.8392  -14.5015 H   0  0  0  0  0  0  0  0  0  0  0  0
   57.9803  -34.9805   -9.3389 H   0  0  0  0  0  0  0  0  0  0  0  0
  2  1  1  6
  1 58  1  0
  2  3  1  0
  5  2  1  1
  3  4  2  0
  3 12  1  0
  5  6  1  0
  6  7  1  6
  7  8  1  6
  8  9  1  0
  9 10  2  0
  9 11  1  0
 13 12  1  1
 13 14  1  0
 16 13  1  1
 14 15  2  0
 14 23  1  0
 16 17  1  0
 17 18  1  6
 18 19  1  6
 19 20  1  0
 20 21  1  0
 20 22  2  0
 23 24  1  0
 24 25  1  1
 27 24  1  1
 25 26  2  0
 25 32  1  0
 28 27  1  1
 28 29  1  0
 29 30  1  6
 30 31  1  6
 31 54  1  0
 33 32  1  1
 33 34  1  0
 36 33  1  1
 34 35  2  0
 34 43  1  0
 36 37  1  0
 37 38  1  6
 38 39  1  6
 39 40  1  0
 40 41  2  0
 40 42  1  0
 44 43  1  1
 44 45  1  0
 45 46  2  0
 45 53  1  0
 46 47  1  0
 47 48  2  0
 48 49  1  0
 48 52  1  0
 49 50  1  0
 49 51  2  0
 52 53  2  0
 55 54  1  1
 54 59  2  0
 56 55  1  1
 56 57  1  0
 57 58  1  6
 58 60  2  0
 10 61  1  0
 22 62  1  0
 41 63  1  0
 51 64  1  0
M  END
$$$$
