
     RDKit          3D

 64 65  0  0  0  0  0  0  0  0999 V2000
   50.5696  -37.0731   -4.7657 N   0  0  0  0  0  0  0  0  0  0  0  0
   50.2607  -36.2343   -3.6507 C   0  0  2  0  0  0  0  0  0  0  0  0
   48.8780  -35.6099   -3.7665 C   0  0  0  0  0  0  0  0  0  0  0  0
   48.7108  -34.8150   -2.7477 O   0  0  0  0  0  0  0  0  0  0  0  0
   51.2496  -35.0826   -3.4346 C   0  0  0  0  0  0  0  0  0  0  0  0
   50.8065  -33.7880   -3.9870 C   0  0  0  0  0  0  0  0  0  0  0  0
   49.3691  -33.8685   -4.4328 C   0  0  0  0  0  0  0  0  0  0  0  0
   48.6336  -34.9911   -3.9757 N   0  0  0  0  0  0  0  0  0  0  0  0
   48.9881  -36.3301   -4.2637 C   0  0  0  0  0  0  0  0  0  0  0  0
   50.2252  -36.6318   -4.4724 N   0  0  0  0  0  0  0  0  0  0  0  0
   48.0030  -37.3508   -4.3287 N   0  0  0  0  0  0  0  0  0  0  0  0
   47.8991  -35.7666   -4.7174 N   0  0  0  0  0  0  0  0  0  0  0  0
   46.9411  -36.7519   -5.0663 C   0  0  2  0  0  0  0  0  0  0  0  0
   45.8750  -36.2448   -5.9684 C   0  0  0  0  0  0  0  0  0  0  0  0
   44.6902  -36.3520   -5.5574 O   0  0  0  0  0  0  0  0  0  0  0  0
   46.3293  -37.5022   -3.9263 C   0  0  0  0  0  0  0  0  0  0  0  0
   46.8909  -37.2327   -2.5770 C   0  0  0  0  0  0  0  0  0  0  0  0
   48.0474  -36.2322   -2.7370 C   0  0  0  0  0  0  0  0  0  0  0  0
   47.7034  -34.9967   -2.0464 N   0  0  0  0  0  0  0  0  0  0  0  0
   48.5901  -34.3619   -1.1454 C   0  0  0  0  0  0  0  0  0  0  0  0
   48.9679  -34.9085    0.1164 N   0  0  0  0  0  0  0  0  0  0  0  0
   49.0950  -33.2287   -1.4599 N   0  0  0  0  0  0  0  0  0  0  0  0
   46.0711  -35.6540   -7.2407 N   0  0  0  0  0  0  0  0  0  0  0  0
   46.8342  -36.1630   -8.3434 C   0  0  2  0  0  0  0  0  0  0  0  0
   46.4433  -37.5187   -8.8077 C   0  0  0  0  0  0  0  0  0  0  0  0
   46.7684  -38.4764   -8.0381 O   0  0  0  0  0  0  0  0  0  0  0  0
   48.3299  -36.0624   -8.1722 C   0  0  0  0  0  0  0  0  0  0  0  0
   48.7191  -34.6032   -8.2998 C   0  0  0  0  0  0  0  0  0  0  0  0
   49.3219  -34.2973   -9.6466 C   0  0  0  0  0  0  0  0  0  0  0  0
   50.7864  -34.6773   -9.6262 C   0  0  0  0  0  0  0  0  0  0  0  0
   51.4805  -34.0122   -8.5732 N   0  0  0  0  0  0  0  0  0  0  0  0
   45.7681  -37.8359   -9.9885 N   0  0  0  0  0  0  0  0  0  0  0  0
   46.5028  -38.1877  -11.2610 C   0  0  2  0  0  0  0  0  0  0  0  0
   47.4964  -37.1221  -11.3687 C   0  0  0  0  0  0  0  0  0  0  0  0
   47.3377  -36.0214  -10.8176 O   0  0  0  0  0  0  0  0  0  0  0  0
   45.5232  -38.2454  -12.3460 C   0  0  0  0  0  0  0  0  0  0  0  0
   45.8243  -38.8833  -13.6160 C   0  0  0  0  0  0  0  0  0  0  0  0
   45.3123  -40.1936  -14.0250 C   0  0  0  0  0  0  0  0  0  0  0  0
   44.8940  -40.2656  -15.4127 N   0  0  0  0  0  0  0  0  0  0  0  0
   45.1955  -39.2060  -16.3077 C   0  0  0  0  0  0  0  0  0  0  0  0
   44.3293  -38.2792  -16.5910 N   0  0  0  0  0  0  0  0  0  0  0  0
   46.4766  -39.1405  -16.9197 N   0  0  0  0  0  0  0  0  0  0  0  0
   48.6910  -37.2843  -12.1104 N   0  0  0  0  0  0  0  0  0  0  0  0
   49.7315  -36.3063  -12.2589 C   0  0  0  0  0  0  0  0  0  0  0  0
   51.0651  -36.8622  -12.0113 C   0  0  0  0  0  0  0  0  0  0  0  0
   51.5178  -37.9113  -12.7874 C   0  0  0  0  0  0  0  0  0  0  0  0
   52.7917  -38.4352  -12.5954 C   0  0  0  0  0  0  0  0  0  0  0  0
   53.6086  -37.9089  -11.6280 C   0  0  0  0  0  0  0  0  0  0  0  0
   54.9319  -38.4492  -11.4355 C   0  0  0  0  0  0  0  0  0  0  0  0
   55.6982  -37.9845  -10.3396 N   0  0  0  0  0  0  0  0  0  0  0  0
   55.3922  -39.3324  -12.2444 N   0  0  0  0  0  0  0  0  0  0  0  0
   53.1743  -36.8692  -10.8499 C   0  0  0  0  0  0  0  0  0  0  0  0
   51.8891  -36.3485  -11.0517 C   0  0  0  0  0  0  0  0  0  0  0  0
   52.7948  -34.2012   -8.1319 C   0  0  0  0  0  0  0  0  0  0  0  0
   53.4930  -35.4793   -7.8904 C   0  0  0  0  0  0  0  0  0  0  0  0
   52.5462  -36.4752   -7.3271 C   0  0  0  0  0  0  0  0  0  0  0  0
   52.9073  -36.9058   -5.8873 C   0  0  0  0  0  0  0  0  0  0  0  0
   51.7532  -37.5903   -5.2590 C   0  0  0  0  0  0  0  0  0  0  0  0
   53.4758  -33.1354   -7.9107 O   0  0  0  0  0  0  0  0  0  0  0  0
   51.8963  -38.8796   -5.1694 O   0  0  0  0  0  0  0  0  0  0  0  0
   50.9347  -35.8879   -4.6168 H   0  0  0  0  0  0  0  0  0  0  0  0
   48.6407  -32.3209   -1.2741 H   0  0  0  0  0  0  0  0  0  0  0  0
   44.5895  -37.2740  -16.5022 H   0  0  0  0  0  0  0  0  0  0  0  0
   54.8161  -39.6543  -13.0286 H   0  0  0  0  0  0  0  0  0  0  0  0
  2  1  1  6
  1 58  1  0
  2  3  1  0
  5  2  1  1
  3  4  2  0
  3 12  1  0
  5  6  1  0
  6  7  1  6
  7  8  1  6
  8  9  1  0
  9 10  2  0
  9 11  1  0
 13 12  1  1
 13 14  1  0
 16 13  1  1
 14 15  2  0
 14 23  1  0
 16 17  1  0
 17 18  1  6
 18 19  1  6
 19 20  1  0
 20 21  1  0
 20 22  2  0
 23 24  1  0
 24 25  1  1
 27 24  1  1
 25 26  2  0
 25 32  1  0
 28 27  1  1
 28 29  1  0
 29 30  1  6
 30 31  1  6
 31 54  1  0
 33 32  1  1
 33 34  1  0
 36 33  1  1
 34 35  2  0
 34 43  1  0
 36 37  1  0
 37 38  1  6
 38 39  1  6
 39 40  1  0
 40 41  2  0
 40 42  1  0
 44 43  1  1
 44 45  1  0
 45 46  2  0
 45 53  1  0
 46 47  1  0
 47 48  2  0
 48 49  1  0
 48 52  1  0
 49 50  1  0
 49 51  2  0
 52 53  2  0
 55 54  1  1
 54 59  2  0
 56 55  1  1
 56 57  1  0
 57 58  1  6
 58 60  2  0
 10 61  1  0
 22 62  1  0
 41 63  1  0
 51 64  1  0
M  END
$$$$
