
     RDKit          3D

 64 65  0  0  0  0  0  0  0  0999 V2000
   48.3895  -38.4286  -10.5456 N   0  0  0  0  0  0  0  0  0  0  0  0
   48.2944  -37.0165  -10.7977 C   0  0  2  0  0  0  0  0  0  0  0  0
   46.9028  -36.5270  -10.4837 C   0  0  0  0  0  0  0  0  0  0  0  0
   46.0132  -37.0838  -11.2282 O   0  0  0  0  0  0  0  0  0  0  0  0
   48.4454  -36.6349  -12.2487 C   0  0  0  0  0  0  0  0  0  0  0  0
   48.5366  -37.7088  -13.2428 C   0  0  0  0  0  0  0  0  0  0  0  0
   47.7175  -38.9409  -12.9745 C   0  0  0  0  0  0  0  0  0  0  0  0
   47.3176  -38.9780  -11.5794 N   0  0  0  0  0  0  0  0  0  0  0  0
   46.8142  -40.1307  -10.9236 C   0  0  0  0  0  0  0  0  0  0  0  0
   45.5412  -40.3069  -10.8749 N   0  0  0  0  0  0  0  0  0  0  0  0
   47.6424  -41.1069  -10.3169 N   0  0  0  0  0  0  0  0  0  0  0  0
   46.5200  -35.5935   -9.5316 N   0  0  0  0  0  0  0  0  0  0  0  0
   46.8072  -35.5244   -8.1202 C   0  0  2  0  0  0  0  0  0  0  0  0
   47.4763  -34.2623   -7.7085 C   0  0  0  0  0  0  0  0  0  0  0  0
   47.2971  -33.3054   -8.5533 O   0  0  0  0  0  0  0  0  0  0  0  0
   47.2926  -36.7624   -7.4787 C   0  0  0  0  0  0  0  0  0  0  0  0
   46.8121  -37.9613   -8.2858 C   0  0  0  0  0  0  0  0  0  0  0  0
   46.2882  -37.5211   -9.6219 C   0  0  0  0  0  0  0  0  0  0  0  0
   45.0159  -36.8723   -9.4370 N   0  0  0  0  0  0  0  0  0  0  0  0
   44.2390  -36.4787  -10.5606 C   0  0  0  0  0  0  0  0  0  0  0  0
   44.1890  -37.3801  -11.6636 N   0  0  0  0  0  0  0  0  0  0  0  0
   43.5988  -35.3617  -10.6030 N   0  0  0  0  0  0  0  0  0  0  0  0
   48.2355  -33.9926   -6.5791 N   0  0  0  0  0  0  0  0  0  0  0  0
   49.4579  -34.5149   -6.0900 C   0  0  2  0  0  0  0  0  0  0  0  0
   50.2955  -33.4513   -5.4287 C   0  0  0  0  0  0  0  0  0  0  0  0
   51.2819  -32.9483   -6.0390 O   0  0  0  0  0  0  0  0  0  0  0  0
   50.3657  -35.1091   -7.1319 C   0  0  0  0  0  0  0  0  0  0  0  0
   51.3469  -34.1006   -7.6848 C   0  0  0  0  0  0  0  0  0  0  0  0
   51.7363  -34.5586   -9.0729 C   0  0  0  0  0  0  0  0  0  0  0  0
   53.0915  -35.2327   -9.0076 C   0  0  0  0  0  0  0  0  0  0  0  0
   53.1463  -36.1248   -7.8730 N   0  0  0  0  0  0  0  0  0  0  0  0
   49.9614  -33.0350   -4.1419 N   0  0  0  0  0  0  0  0  0  0  0  0
   50.9955  -33.1714   -2.9957 C   0  0  2  0  0  0  0  0  0  0  0  0
   52.2441  -33.2808   -3.6937 C   0  0  0  0  0  0  0  0  0  0  0  0
   52.0844  -33.7509   -4.9354 O   0  0  0  0  0  0  0  0  0  0  0  0
   50.3976  -34.1122   -2.0813 C   0  0  0  0  0  0  0  0  0  0  0  0
   49.6445  -33.7581   -0.8816 C   0  0  0  0  0  0  0  0  0  0  0  0
   48.9837  -34.6915    0.0250 C   0  0  0  0  0  0  0  0  0  0  0  0
   47.8923  -33.9335    0.6897 N   0  0  0  0  0  0  0  0  0  0  0  0
   47.1447  -34.5964    1.6862 C   0  0  0  0  0  0  0  0  0  0  0  0
   47.4649  -35.8259    1.9662 N   0  0  0  0  0  0  0  0  0  0  0  0
   46.0765  -33.9929    2.3896 N   0  0  0  0  0  0  0  0  0  0  0  0
   53.5822  -33.0341   -3.4231 N   0  0  0  0  0  0  0  0  0  0  0  0
   54.4334  -32.0868   -4.1769 C   0  0  0  0  0  0  0  0  0  0  0  0
   55.0303  -32.7281   -5.3690 C   0  0  0  0  0  0  0  0  0  0  0  0
   55.5345  -34.0333   -5.2516 C   0  0  0  0  0  0  0  0  0  0  0  0
   56.0935  -34.6715   -6.3341 C   0  0  0  0  0  0  0  0  0  0  0  0
   56.1811  -34.0594   -7.5771 C   0  0  0  0  0  0  0  0  0  0  0  0
   56.7761  -34.7447   -8.7157 C   0  0  0  0  0  0  0  0  0  0  0  0
   58.0606  -35.3767   -8.5762 N   0  0  0  0  0  0  0  0  0  0  0  0
   56.1916  -34.8121   -9.8650 N   0  0  0  0  0  0  0  0  0  0  0  0
   55.6863  -32.7825   -7.6890 C   0  0  0  0  0  0  0  0  0  0  0  0
   55.1123  -32.1187   -6.5891 C   0  0  0  0  0  0  0  0  0  0  0  0
   52.9542  -37.5314   -7.9342 C   0  0  0  0  0  0  0  0  0  0  0  0
   52.6154  -38.2633   -9.1712 C   0  0  0  0  0  0  0  0  0  0  0  0
   51.1256  -38.5723   -9.1653 C   0  0  0  0  0  0  0  0  0  0  0  0
   50.8103  -39.3691  -10.3774 C   0  0  0  0  0  0  0  0  0  0  0  0
   49.3950  -39.3401  -10.8217 C   0  0  0  0  0  0  0  0  0  0  0  0
   53.0805  -38.1972   -6.8720 O   0  0  0  0  0  0  0  0  0  0  0  0
   49.0958  -40.3421  -11.5835 O   0  0  0  0  0  0  0  0  0  0  0  0
   45.0583  -40.6315   -9.9929 H   0  0  0  0  0  0  0  0  0  0  0  0
   44.0138  -34.5367  -10.1242 H   0  0  0  0  0  0  0  0  0  0  0  0
   48.3373  -36.2776    1.6231 H   0  0  0  0  0  0  0  0  0  0  0  0
   55.6391  -35.6472  -10.1446 H   0  0  0  0  0  0  0  0  0  0  0  0
  1  2  1  0
  1 58  1  0
  2  3  1  0
  2  5  1  6
  3  4  2  0
  3 12  1  0
  5  6  1  0
  6  7  1  0
  7  8  1  0
  8  9  1  0
  9 10  2  0
  9 11  1  0
 12 13  1  0
 13 14  1  0
 13 16  1  6
 14 15  2  0
 14 23  1  0
 16 17  1  0
 17 18  1  0
 18 19  1  0
 19 20  1  0
 20 21  1  0
 20 22  2  0
 23 24  1  0
 24 25  1  6
 24 27  1  0
 25 26  2  0
 25 32  1  0
 27 28  1  0
 28 29  1  0
 29 30  1  0
 30 31  1  0
 31 54  1  0
 32 33  1  0
 33 34  1  0
 33 36  1  6
 34 35  2  0
 34 43  1  0
 36 37  1  0
 37 38  1  0
 38 39  1  0
 39 40  1  0
 40 41  2  0
 40 42  1  0
 43 44  1  0
 44 45  1  0
 45 46  2  0
 45 53  1  0
 46 47  1  0
 47 48  2  0
 48 49  1  0
 48 52  1  0
 49 50  1  0
 49 51  2  0
 52 53  2  0
 54 55  1  0
 54 59  2  0
 55 56  1  0
 56 57  1  0
 57 58  1  0
 58 60  2  0
 10 61  1  0
 22 62  1  0
 41 63  1  0
 51 64  1  0
M  END
$$$$
