
     RDKit          3D

 64 65  0  0  0  0  0  0  0  0999 V2000
   50.3014  -38.6793   -5.5049 N   0  0  0  0  0  0  0  0  0  0  0  0
   49.9464  -38.3080   -4.1714 C   0  0  2  0  0  0  0  0  0  0  0  0
   48.8172  -37.2887   -4.1396 C   0  0  0  0  0  0  0  0  0  0  0  0
   48.6080  -36.9613   -2.8959 O   0  0  0  0  0  0  0  0  0  0  0  0
   51.1001  -37.7160   -3.3531 C   0  0  0  0  0  0  0  0  0  0  0  0
   50.8812  -36.3256   -2.9098 C   0  0  0  0  0  0  0  0  0  0  0  0
   49.8723  -35.6416   -3.7962 C   0  0  0  0  0  0  0  0  0  0  0  0
   49.6268  -34.2719   -3.5245 N   0  0  0  0  0  0  0  0  0  0  0  0
   50.6052  -33.3869   -3.0136 C   0  0  0  0  0  0  0  0  0  0  0  0
   51.4557  -32.8433   -3.8174 N   0  0  0  0  0  0  0  0  0  0  0  0
   50.6688  -33.0866   -1.6271 N   0  0  0  0  0  0  0  0  0  0  0  0
   48.0803  -36.7334   -5.1572 N   0  0  0  0  0  0  0  0  0  0  0  0
   47.0262  -37.1387   -6.0144 C   0  0  2  0  0  0  0  0  0  0  0  0
   46.3524  -36.0045   -6.6979 C   0  0  0  0  0  0  0  0  0  0  0  0
   45.1133  -35.8882   -6.5094 O   0  0  0  0  0  0  0  0  0  0  0  0
   46.0046  -38.0486   -5.4101 C   0  0  0  0  0  0  0  0  0  0  0  0
   44.8777  -38.4574   -6.2886 C   0  0  0  0  0  0  0  0  0  0  0  0
   44.2774  -37.1860   -6.9109 C   0  0  0  0  0  0  0  0  0  0  0  0
   42.9866  -36.9195   -6.2907 N   0  0  0  0  0  0  0  0  0  0  0  0
   42.8543  -36.6399   -4.9102 C   0  0  0  0  0  0  0  0  0  0  0  0
   42.9506  -35.3317   -4.3511 N   0  0  0  0  0  0  0  0  0  0  0  0
   42.6354  -37.6028   -4.0961 N   0  0  0  0  0  0  0  0  0  0  0  0
   46.9754  -35.0477   -7.5361 N   0  0  0  0  0  0  0  0  0  0  0  0
   47.8337  -35.2834   -8.6609 C   0  0  2  0  0  0  0  0  0  0  0  0
   47.2539  -36.1397   -9.7271 C   0  0  0  0  0  0  0  0  0  0  0  0
   46.0848  -36.5829   -9.4989 O   0  0  0  0  0  0  0  0  0  0  0  0
   49.2275  -35.7370   -8.3035 C   0  0  0  0  0  0  0  0  0  0  0  0
   49.9690  -34.5536   -7.7147 C   0  0  0  0  0  0  0  0  0  0  0  0
   50.9257  -33.9400   -8.7041 C   0  0  0  0  0  0  0  0  0  0  0  0
   52.2123  -34.7366   -8.7010 C   0  0  0  0  0  0  0  0  0  0  0  0
   52.7766  -34.8060   -7.3935 N   0  0  0  0  0  0  0  0  0  0  0  0
   47.8606  -36.5003  -10.9325 N   0  0  0  0  0  0  0  0  0  0  0  0
   47.9752  -37.9414  -11.3713 C   0  0  2  0  0  0  0  0  0  0  0  0
   49.2079  -37.9462  -12.1553 C   0  0  0  0  0  0  0  0  0  0  0  0
   49.6081  -38.9658  -12.7392 O   0  0  0  0  0  0  0  0  0  0  0  0
   46.7599  -38.2862  -12.1092 C   0  0  0  0  0  0  0  0  0  0  0  0
   46.7738  -39.2424  -13.2028 C   0  0  0  0  0  0  0  0  0  0  0  0
   46.2804  -38.9612  -14.5533 C   0  0  0  0  0  0  0  0  0  0  0  0
   44.8489  -38.7370  -14.6323 N   0  0  0  0  0  0  0  0  0  0  0  0
   44.2879  -38.0788  -15.7578 C   0  0  0  0  0  0  0  0  0  0  0  0
   43.0112  -37.8555  -15.8565 N   0  0  0  0  0  0  0  0  0  0  0  0
   45.1317  -37.6439  -16.8155 N   0  0  0  0  0  0  0  0  0  0  0  0
   50.0153  -36.7912  -12.2883 N   0  0  0  0  0  0  0  0  0  0  0  0
   50.8940  -36.4975  -13.3851 C   0  0  0  0  0  0  0  0  0  0  0  0
   52.1812  -35.9523  -12.9438 C   0  0  0  0  0  0  0  0  0  0  0  0
   52.2600  -35.2955  -11.7311 C   0  0  0  0  0  0  0  0  0  0  0  0
   53.4755  -34.7982  -11.2737 C   0  0  0  0  0  0  0  0  0  0  0  0
   54.6080  -34.9587  -12.0299 C   0  0  0  0  0  0  0  0  0  0  0  0
   55.8686  -34.4482  -11.5501 C   0  0  0  0  0  0  0  0  0  0  0  0
   56.9999  -34.5388  -12.3963 N   0  0  0  0  0  0  0  0  0  0  0  0
   55.9500  -33.9239  -10.3819 N   0  0  0  0  0  0  0  0  0  0  0  0
   54.5463  -35.6068  -13.2345 C   0  0  0  0  0  0  0  0  0  0  0  0
   53.3166  -36.1044  -13.6862 C   0  0  0  0  0  0  0  0  0  0  0  0
   53.8677  -35.5599   -6.9476 C   0  0  0  0  0  0  0  0  0  0  0  0
   54.1676  -36.9760   -7.2372 C   0  0  0  0  0  0  0  0  0  0  0  0
   52.9076  -37.7601   -7.2905 C   0  0  0  0  0  0  0  0  0  0  0  0
   52.8085  -38.8221   -6.1719 C   0  0  0  0  0  0  0  0  0  0  0  0
   51.4111  -39.2992   -6.0489 C   0  0  0  0  0  0  0  0  0  0  0  0
   54.7096  -34.9467   -6.1967 O   0  0  0  0  0  0  0  0  0  0  0  0
   51.2206  -40.4890   -6.5375 O   0  0  0  0  0  0  0  0  0  0  0  0
   52.1921  -33.4144   -4.2748 H   0  0  0  0  0  0  0  0  0  0  0  0
   43.3078  -38.3613   -3.9023 H   0  0  0  0  0  0  0  0  0  0  0  0
   42.6547  -37.1379  -16.5230 H   0  0  0  0  0  0  0  0  0  0  0  0
   55.0945  -33.6890   -9.8685 H   0  0  0  0  0  0  0  0  0  0  0  0
  2  1  1  6
  1 58  1  0
  2  3  1  0
  5  2  1  1
  3  4  2  0
  3 12  1  0
  5  6  1  0
  6  7  1  6
  7  8  1  6
  8  9  1  0
  9 10  2  0
  9 11  1  0
 13 12  1  1
 13 14  1  0
 16 13  1  1
 14 15  2  0
 14 23  1  0
 16 17  1  0
 17 18  1  6
 18 19  1  6
 19 20  1  0
 20 21  1  0
 20 22  2  0
 23 24  1  0
 24 25  1  6
 27 24  1  1
 25 26  2  0
 25 32  1  0
 28 27  1  1
 28 29  1  0
 29 30  1  6
 30 31  1  6
 31 54  1  0
 33 32  1  6
 33 34  1  0
 36 33  1  1
 34 35  2  0
 34 43  1  0
 36 37  1  0
 37 38  1  6
 38 39  1  6
 39 40  1  0
 40 41  2  0
 40 42  1  0
 44 43  1  1
 44 45  1  0
 45 46  2  0
 45 53  1  0
 46 47  1  0
 47 48  2  0
 48 49  1  0
 48 52  1  0
 49 50  1  0
 49 51  2  0
 52 53  2  0
 55 54  1  1
 54 59  2  0
 56 55  1  1
 56 57  1  0
 57 58  1  6
 58 60  2  0
 10 61  1  0
 22 62  1  0
 41 63  1  0
 51 64  1  0
M  END
$$$$
