
     RDKit          3D

 64 65  0  0  0  0  0  0  0  0999 V2000
   44.3386  -37.2250  -10.1337 N   0  0  0  0  0  0  0  0  0  0  0  0
   43.5382  -38.0580   -9.2924 C   0  0  2  0  0  0  0  0  0  0  0  0
   44.1708  -38.2713   -7.9251 C   0  0  0  0  0  0  0  0  0  0  0  0
   43.4107  -39.0907   -7.2554 O   0  0  0  0  0  0  0  0  0  0  0  0
   43.2529  -39.4494   -9.8699 C   0  0  0  0  0  0  0  0  0  0  0  0
   42.8077  -39.4451  -11.2767 C   0  0  0  0  0  0  0  0  0  0  0  0
   42.6958  -38.0327  -11.7907 C   0  0  0  0  0  0  0  0  0  0  0  0
   43.9001  -37.2860  -11.8372 N   0  0  0  0  0  0  0  0  0  0  0  0
   44.7363  -37.2182  -12.9763 C   0  0  0  0  0  0  0  0  0  0  0  0
   45.9902  -37.5020  -12.8652 N   0  0  0  0  0  0  0  0  0  0  0  0
   44.2186  -36.8405  -14.2436 N   0  0  0  0  0  0  0  0  0  0  0  0
   45.3238  -37.7608   -7.3800 N   0  0  0  0  0  0  0  0  0  0  0  0
   45.7547  -36.5236   -6.8379 C   0  0  2  0  0  0  0  0  0  0  0  0
   47.0092  -36.6302   -6.0489 C   0  0  0  0  0  0  0  0  0  0  0  0
   46.9555  -36.2497   -4.8503 O   0  0  0  0  0  0  0  0  0  0  0  0
   44.7304  -35.7557   -6.0647 C   0  0  0  0  0  0  0  0  0  0  0  0
   43.7629  -36.5553   -5.2689 C   0  0  0  0  0  0  0  0  0  0  0  0
   44.1347  -38.0391   -5.4241 C   0  0  0  0  0  0  0  0  0  0  0  0
   45.4763  -38.1349   -5.9834 N   0  0  0  0  0  0  0  0  0  0  0  0
   46.5735  -38.6252   -5.2370 C   0  0  0  0  0  0  0  0  0  0  0  0
   46.4518  -39.2472   -3.9596 N   0  0  0  0  0  0  0  0  0  0  0  0
   47.7548  -38.5141   -5.7166 N   0  0  0  0  0  0  0  0  0  0  0  0
   48.2516  -37.1198   -6.5208 N   0  0  0  0  0  0  0  0  0  0  0  0
   48.9660  -36.7264   -7.7008 C   0  0  2  0  0  0  0  0  0  0  0  0
   49.2694  -35.2757   -7.7992 C   0  0  0  0  0  0  0  0  0  0  0  0
   48.4437  -34.5880   -8.4779 O   0  0  0  0  0  0  0  0  0  0  0  0
   48.3805  -37.2435   -8.9915 C   0  0  0  0  0  0  0  0  0  0  0  0
   48.6514  -38.7328   -9.0657 C   0  0  0  0  0  0  0  0  0  0  0  0
   49.7910  -39.0517   -9.9985 C   0  0  0  0  0  0  0  0  0  0  0  0
   49.2683  -39.0849  -11.4181 C   0  0  0  0  0  0  0  0  0  0  0  0
   48.1970  -40.0158  -11.5550 N   0  0  0  0  0  0  0  0  0  0  0  0
   50.3566  -34.6082   -7.2307 N   0  0  0  0  0  0  0  0  0  0  0  0
   50.6809  -34.7150   -5.7589 C   0  0  2  0  0  0  0  0  0  0  0  0
   51.5830  -33.5865   -5.5414 C   0  0  0  0  0  0  0  0  0  0  0  0
   51.9352  -32.8420   -6.4700 O   0  0  0  0  0  0  0  0  0  0  0  0
   51.2596  -36.0371   -5.5194 C   0  0  0  0  0  0  0  0  0  0  0  0
   52.5257  -36.2045   -4.8270 C   0  0  0  0  0  0  0  0  0  0  0  0
   53.4144  -37.3569   -4.9959 C   0  0  0  0  0  0  0  0  0  0  0  0
   52.8382  -38.6223   -4.5804 N   0  0  0  0  0  0  0  0  0  0  0  0
   53.5908  -39.8212   -4.6858 C   0  0  0  0  0  0  0  0  0  0  0  0
   53.1111  -40.9683   -4.3073 N   0  0  0  0  0  0  0  0  0  0  0  0
   54.9076  -39.7845   -5.2192 N   0  0  0  0  0  0  0  0  0  0  0  0
   52.1082  -33.2833   -4.2625 N   0  0  0  0  0  0  0  0  0  0  0  0
   52.2921  -31.9686   -3.7158 C   0  0  0  0  0  0  0  0  0  0  0  0
   51.5557  -31.7723   -2.4636 C   0  0  0  0  0  0  0  0  0  0  0  0
   50.4139  -30.9947   -2.4626 C   0  0  0  0  0  0  0  0  0  0  0  0
   49.6783  -30.8197   -1.2955 C   0  0  0  0  0  0  0  0  0  0  0  0
   50.0863  -31.4221   -0.1332 C   0  0  0  0  0  0  0  0  0  0  0  0
   49.3178  -31.2448    1.0742 C   0  0  0  0  0  0  0  0  0  0  0  0
   48.1872  -30.3937    1.0362 N   0  0  0  0  0  0  0  0  0  0  0  0
   49.6595  -31.8520    2.1516 N   0  0  0  0  0  0  0  0  0  0  0  0
   51.2163  -32.1954   -0.1176 C   0  0  0  0  0  0  0  0  0  0  0  0
   51.9503  -32.3656   -1.2992 C   0  0  0  0  0  0  0  0  0  0  0  0
   47.3592  -40.2339  -12.6542 C   0  0  0  0  0  0  0  0  0  0  0  0
   46.6922  -39.2228  -13.4981 C   0  0  0  0  0  0  0  0  0  0  0  0
   46.2629  -38.0709  -12.6649 C   0  0  0  0  0  0  0  0  0  0  0  0
   44.7275  -37.9019  -12.6119 C   0  0  0  0  0  0  0  0  0  0  0  0
   44.3556  -36.9989  -11.4976 C   0  0  0  0  0  0  0  0  0  0  0  0
   47.1447  -41.4606  -12.9671 O   0  0  0  0  0  0  0  0  0  0  0  0
   43.9936  -35.8119  -11.8861 O   0  0  0  0  0  0  0  0  0  0  0  0
   46.7156  -36.7994  -13.1055 H   0  0  0  0  0  0  0  0  0  0  0  0
   48.1019  -39.0464   -6.5297 H   0  0  0  0  0  0  0  0  0  0  0  0
   53.7549  -41.7476   -4.0535 H   0  0  0  0  0  0  0  0  0  0  0  0
   50.1843  -31.3496    2.8746 H   0  0  0  0  0  0  0  0  0  0  0  0
  2  1  1  6
  1 58  1  0
  2  3  1  0
  5  2  1  1
  3  4  2  0
  3 12  1  0
  5  6  1  0
  6  7  1  6
  7  8  1  6
  8  9  1  0
  9 10  2  0
  9 11  1  0
 13 12  1  1
 13 14  1  0
 16 13  1  1
 14 15  2  0
 14 23  1  0
 16 17  1  0
 17 18  1  6
 18 19  1  6
 19 20  1  0
 20 21  1  0
 20 22  2  0
 23 24  1  0
 24 25  1  6
 27 24  1  1
 25 26  2  0
 25 32  1  0
 28 27  1  1
 28 29  1  0
 29 30  1  6
 30 31  1  6
 31 54  1  0
 33 32  1  6
 33 34  1  0
 36 33  1  1
 34 35  2  0
 34 43  1  0
 36 37  1  0
 37 38  1  6
 38 39  1  6
 39 40  1  0
 40 41  2  0
 40 42  1  0
 44 43  1  1
 44 45  1  0
 45 46  2  0
 45 53  1  0
 46 47  1  0
 47 48  2  0
 48 49  1  0
 48 52  1  0
 49 50  1  0
 49 51  2  0
 52 53  2  0
 55 54  1  1
 54 59  2  0
 56 55  1  1
 56 57  1  0
 57 58  1  6
 58 60  2  0
 10 61  1  0
 22 62  1  0
 41 63  1  0
 51 64  1  0
M  END
$$$$
