
     RDKit          3D

 64 65  0  0  0  0  0  0  0  0999 V2000
   52.9505  -33.7828   -4.0250 N   0  0  0  0  0  0  0  0  0  0  0  0
   52.9870  -35.1791   -4.3651 C   0  0  2  0  0  0  0  0  0  0  0  0
   52.1219  -35.9668   -3.4133 C   0  0  0  0  0  0  0  0  0  0  0  0
   52.5372  -35.8838   -2.1983 O   0  0  0  0  0  0  0  0  0  0  0  0
   54.3359  -35.8269   -4.1782 C   0  0  0  0  0  0  0  0  0  0  0  0
   55.2064  -35.3219   -3.1120 C   0  0  0  0  0  0  0  0  0  0  0  0
   54.9043  -33.9414   -2.5983 C   0  0  0  0  0  0  0  0  0  0  0  0
   53.7919  -33.9900   -1.6669 N   0  0  0  0  0  0  0  0  0  0  0  0
   53.3065  -32.8702   -0.9438 C   0  0  0  0  0  0  0  0  0  0  0  0
   53.5559  -32.7931    0.3155 N   0  0  0  0  0  0  0  0  0  0  0  0
   52.5589  -31.8232   -1.5370 N   0  0  0  0  0  0  0  0  0  0  0  0
   50.9966  -36.7227   -3.7080 N   0  0  0  0  0  0  0  0  0  0  0  0
   49.7972  -36.3741   -4.4285 C   0  0  2  0  0  0  0  0  0  0  0  0
   49.5258  -37.2533   -5.5963 C   0  0  0  0  0  0  0  0  0  0  0  0
   50.1280  -38.3900   -5.5141 O   0  0  0  0  0  0  0  0  0  0  0  0
   49.5286  -34.9346   -4.6162 C   0  0  0  0  0  0  0  0  0  0  0  0
   49.6086  -34.2342   -3.2661 C   0  0  0  0  0  0  0  0  0  0  0  0
   49.4819  -35.2284   -2.1486 C   0  0  0  0  0  0  0  0  0  0  0  0
   50.7643  -35.3865   -1.5128 N   0  0  0  0  0  0  0  0  0  0  0  0
   50.8904  -36.1684   -0.3322 C   0  0  0  0  0  0  0  0  0  0  0  0
   52.1693  -36.1935    0.2966 N   0  0  0  0  0  0  0  0  0  0  0  0
   49.9062  -36.8329    0.1669 N   0  0  0  0  0  0  0  0  0  0  0  0
   48.7400  -37.0184   -6.7151 N   0  0  0  0  0  0  0  0  0  0  0  0
   48.8064  -36.0628   -7.7584 C   0  0  2  0  0  0  0  0  0  0  0  0
   48.3908  -36.6504   -9.0821 C   0  0  0  0  0  0  0  0  0  0  0  0
   48.6258  -36.0265  -10.1564 O   0  0  0  0  0  0  0  0  0  0  0  0
   50.1723  -35.4890   -8.0186 C   0  0  0  0  0  0  0  0  0  0  0  0
   50.9342  -36.2663   -9.0676 C   0  0  0  0  0  0  0  0  0  0  0  0
   52.4095  -36.0511   -8.8113 C   0  0  0  0  0  0  0  0  0  0  0  0
   52.9328  -35.0145   -9.7844 C   0  0  0  0  0  0  0  0  0  0  0  0
   52.0101  -33.9067   -9.8711 N   0  0  0  0  0  0  0  0  0  0  0  0
   47.7496  -37.8871   -9.0978 N   0  0  0  0  0  0  0  0  0  0  0  0
   46.3140  -38.0173   -8.5288 C   0  0  2  0  0  0  0  0  0  0  0  0
   45.5435  -37.1657   -9.3887 C   0  0  0  0  0  0  0  0  0  0  0  0
   46.2409  -36.0984   -9.7924 O   0  0  0  0  0  0  0  0  0  0  0  0
   46.4832  -37.9266   -7.0999 C   0  0  0  0  0  0  0  0  0  0  0  0
   45.4075  -38.0194   -6.1169 C   0  0  0  0  0  0  0  0  0  0  0  0
   45.5340  -38.5103   -4.7485 C   0  0  0  0  0  0  0  0  0  0  0  0
   44.5598  -37.7409   -3.9321 N   0  0  0  0  0  0  0  0  0  0  0  0
   43.2834  -38.3065   -3.7266 C   0  0  0  0  0  0  0  0  0  0  0  0
   42.4178  -37.6159   -3.0436 N   0  0  0  0  0  0  0  0  0  0  0  0
   42.9035  -39.5743   -4.2250 N   0  0  0  0  0  0  0  0  0  0  0  0
   44.2591  -37.1484   -9.9127 N   0  0  0  0  0  0  0  0  0  0  0  0
   43.7987  -37.9861  -11.0424 C   0  0  0  0  0  0  0  0  0  0  0  0
   44.3707  -37.5235  -12.3260 C   0  0  0  0  0  0  0  0  0  0  0  0
   44.1760  -36.1866  -12.7084 C   0  0  0  0  0  0  0  0  0  0  0  0
   44.6939  -35.7104  -13.8902 C   0  0  0  0  0  0  0  0  0  0  0  0
   45.4250  -36.5226  -14.7465 C   0  0  0  0  0  0  0  0  0  0  0  0
   45.9673  -36.0076  -15.9959 C   0  0  0  0  0  0  0  0  0  0  0  0
   45.8379  -34.6092  -16.3068 N   0  0  0  0  0  0  0  0  0  0  0  0
   46.5704  -36.7633  -16.8517 N   0  0  0  0  0  0  0  0  0  0  0  0
   45.6142  -37.8302  -14.3693 C   0  0  0  0  0  0  0  0  0  0  0  0
   45.0896  -38.3294  -13.1630 C   0  0  0  0  0  0  0  0  0  0  0  0
   52.1536  -32.6725   -9.1818 C   0  0  0  0  0  0  0  0  0  0  0  0
   53.2483  -32.3808   -8.2345 C   0  0  0  0  0  0  0  0  0  0  0  0
   52.7203  -32.5283   -6.8151 C   0  0  0  0  0  0  0  0  0  0  0  0
   53.8081  -32.1638   -5.8732 C   0  0  0  0  0  0  0  0  0  0  0  0
   53.6841  -32.7078   -4.4985 C   0  0  0  0  0  0  0  0  0  0  0  0
   51.2987  -31.7706   -9.3893 O   0  0  0  0  0  0  0  0  0  0  0  0
   54.3867  -32.0433   -3.6390 O   0  0  0  0  0  0  0  0  0  0  0  0
   54.5366  -32.8946    0.6952 H   0  0  0  0  0  0  0  0  0  0  0  0
   49.0948  -37.0486   -0.4470 H   0  0  0  0  0  0  0  0  0  0  0  0
   42.6430  -37.1636   -2.1339 H   0  0  0  0  0  0  0  0  0  0  0  0
   47.2033  -37.5299  -16.5474 H   0  0  0  0  0  0  0  0  0  0  0  0
  1  2  1  0
  1 58  1  0
  2  3  1  0
  2  5  1  1
  3  4  2  0
  3 12  1  0
  5  6  1  0
  6  7  1  0
  7  8  1  0
  8  9  1  0
  9 10  2  0
  9 11  1  0
 12 13  1  0
 13 14  1  0
 13 16  1  6
 14 15  2  0
 14 23  1  0
 16 17  1  0
 17 18  1  0
 18 19  1  0
 19 20  1  0
 20 21  1  0
 20 22  2  0
 23 24  1  0
 24 25  1  6
 24 27  1  0
 25 26  2  0
 25 32  1  0
 27 28  1  0
 28 29  1  0
 29 30  1  0
 30 31  1  0
 31 54  1  0
 32 33  1  0
 33 34  1  0
 33 36  1  1
 34 35  2  0
 34 43  1  0
 36 37  1  0
 37 38  1  0
 38 39  1  0
 39 40  1  0
 40 41  2  0
 40 42  1  0
 43 44  1  0
 44 45  1  0
 45 46  2  0
 45 53  1  0
 46 47  1  0
 47 48  2  0
 48 49  1  0
 48 52  1  0
 49 50  1  0
 49 51  2  0
 52 53  2  0
 54 55  1  0
 54 59  2  0
 55 56  1  0
 56 57  1  0
 57 58  1  0
 58 60  2  0
 10 61  1  0
 22 62  1  0
 41 63  1  0
 51 64  1  0
M  END
$$$$
