
     RDKit          3D

 64 65  0  0  0  0  0  0  0  0999 V2000
   49.8081  -35.9003   -5.2309 N   0  0  0  0  0  0  0  0  0  0  0  0
   49.0824  -34.6799   -5.4559 C   0  0  2  0  0  0  0  0  0  0  0  0
   50.0347  -33.5738   -5.8361 C   0  0  0  0  0  0  0  0  0  0  0  0
   50.8810  -33.3193   -4.9007 O   0  0  0  0  0  0  0  0  0  0  0  0
   48.4187  -34.1179   -4.2240 C   0  0  0  0  0  0  0  0  0  0  0  0
   49.2612  -33.4586   -3.2214 C   0  0  0  0  0  0  0  0  0  0  0  0
   50.6655  -33.9776   -3.0809 C   0  0  0  0  0  0  0  0  0  0  0  0
   50.6526  -35.4259   -2.9821 N   0  0  0  0  0  0  0  0  0  0  0  0
   50.8458  -36.1455   -1.7749 C   0  0  0  0  0  0  0  0  0  0  0  0
   51.3132  -37.3420   -1.8374 N   0  0  0  0  0  0  0  0  0  0  0  0
   50.5524  -35.6143   -0.4948 N   0  0  0  0  0  0  0  0  0  0  0  0
   50.0779  -32.8532   -7.0207 N   0  0  0  0  0  0  0  0  0  0  0  0
   50.1368  -33.3043   -8.3890 C   0  0  2  0  0  0  0  0  0  0  0  0
   49.0210  -32.8000   -9.2322 C   0  0  0  0  0  0  0  0  0  0  0  0
   48.4655  -31.7446   -8.7434 O   0  0  0  0  0  0  0  0  0  0  0  0
   50.5428  -34.7064   -8.6103 C   0  0  0  0  0  0  0  0  0  0  0  0
   51.4568  -35.1442   -7.4732 C   0  0  0  0  0  0  0  0  0  0  0  0
   51.9686  -33.9510   -6.7197 C   0  0  0  0  0  0  0  0  0  0  0  0
   53.2614  -33.5866   -7.2392 N   0  0  0  0  0  0  0  0  0  0  0  0
   54.0204  -32.5556   -6.6213 C   0  0  0  0  0  0  0  0  0  0  0  0
   55.3148  -32.2919   -7.1568 N   0  0  0  0  0  0  0  0  0  0  0  0
   53.5789  -31.8752   -5.6206 N   0  0  0  0  0  0  0  0  0  0  0  0
   48.5227  -33.2971  -10.4276 N   0  0  0  0  0  0  0  0  0  0  0  0
   47.9138  -34.5254  -10.7835 C   0  0  2  0  0  0  0  0  0  0  0  0
   46.8233  -34.3334  -11.8055 C   0  0  0  0  0  0  0  0  0  0  0  0
   45.9305  -33.4565  -11.6252 O   0  0  0  0  0  0  0  0  0  0  0  0
   47.2417  -35.2602   -9.6561 C   0  0  0  0  0  0  0  0  0  0  0  0
   45.7793  -34.9008   -9.5241 C   0  0  0  0  0  0  0  0  0  0  0  0
   45.3780  -35.1479   -8.0866 C   0  0  0  0  0  0  0  0  0  0  0  0
   44.6415  -36.4691   -8.0005 C   0  0  0  0  0  0  0  0  0  0  0  0
   45.3323  -37.4723   -8.7767 N   0  0  0  0  0  0  0  0  0  0  0  0
   46.8210  -35.1340  -12.9455 N   0  0  0  0  0  0  0  0  0  0  0  0
   47.9544  -36.1686  -13.1622 C   0  0  2  0  0  0  0  0  0  0  0  0
   47.2527  -37.3272  -13.6350 C   0  0  0  0  0  0  0  0  0  0  0  0
   45.9435  -37.0960  -13.7788 O   0  0  0  0  0  0  0  0  0  0  0  0
   48.7851  -36.0434  -11.9904 C   0  0  0  0  0  0  0  0  0  0  0  0
   50.1308  -35.4771  -11.9688 C   0  0  0  0  0  0  0  0  0  0  0  0
   50.4696  -34.0624  -12.0847 C   0  0  0  0  0  0  0  0  0  0  0  0
   51.8654  -33.9210  -11.5953 N   0  0  0  0  0  0  0  0  0  0  0  0
   52.1617  -34.4096  -10.3050 C   0  0  0  0  0  0  0  0  0  0  0  0
   51.6190  -33.8047   -9.2890 N   0  0  0  0  0  0  0  0  0  0  0  0
   53.0099  -35.5159  -10.0665 N   0  0  0  0  0  0  0  0  0  0  0  0
   47.5684  -38.6334  -13.9795 N   0  0  0  0  0  0  0  0  0  0  0  0
   46.9210  -39.8353  -13.4081 C   0  0  0  0  0  0  0  0  0  0  0  0
   47.6784  -40.3573  -12.2494 C   0  0  0  0  0  0  0  0  0  0  0  0
   47.1452  -41.4359  -11.5255 C   0  0  0  0  0  0  0  0  0  0  0  0
   47.8164  -41.9579  -10.4444 C   0  0  0  0  0  0  0  0  0  0  0  0
   49.0381  -41.4469  -10.0276 C   0  0  0  0  0  0  0  0  0  0  0  0
   49.7390  -42.0071   -8.8808 C   0  0  0  0  0  0  0  0  0  0  0  0
   48.9874  -42.5387   -7.7756 N   0  0  0  0  0  0  0  0  0  0  0  0
   51.0275  -42.0493   -8.8107 N   0  0  0  0  0  0  0  0  0  0  0  0
   49.5575  -40.3920  -10.7383 C   0  0  0  0  0  0  0  0  0  0  0  0
   48.8807  -39.8489  -11.8459 C   0  0  0  0  0  0  0  0  0  0  0  0
   46.2165  -38.4480   -8.2426 C   0  0  0  0  0  0  0  0  0  0  0  0
   46.5899  -38.5280   -6.8161 C   0  0  0  0  0  0  0  0  0  0  0  0
   47.9713  -37.9161   -6.6361 C   0  0  0  0  0  0  0  0  0  0  0  0
   48.3655  -38.0663   -5.2129 C   0  0  0  0  0  0  0  0  0  0  0  0
   49.4026  -37.1241   -4.7251 C   0  0  0  0  0  0  0  0  0  0  0  0
   46.7126  -39.2977   -9.0296 O   0  0  0  0  0  0  0  0  0  0  0  0
   49.9972  -37.5528   -3.6590 O   0  0  0  0  0  0  0  0  0  0  0  0
   50.8540  -38.0880   -2.4281 H   0  0  0  0  0  0  0  0  0  0  0  0
   52.8884  -32.3239   -4.9851 H   0  0  0  0  0  0  0  0  0  0  0  0
   51.1728  -34.3124   -8.4979 H   0  0  0  0  0  0  0  0  0  0  0  0
   51.5132  -42.4431   -7.9801 H   0  0  0  0  0  0  0  0  0  0  0  0
  1  2  1  0
  1 58  1  0
  2  3  1  0
  2  5  1  1
  3  4  2  0
  3 12  1  0
  5  6  1  0
  6  7  1  0
  7  8  1  0
  8  9  1  0
  9 10  2  0
  9 11  1  0
 12 13  1  0
 13 14  1  0
 13 16  1  1
 14 15  2  0
 14 23  1  0
 16 17  1  0
 17 18  1  0
 18 19  1  0
 19 20  1  0
 20 21  1  0
 20 22  2  0
 23 24  1  0
 24 25  1  6
 24 27  1  0
 25 26  2  0
 25 32  1  0
 27 28  1  0
 28 29  1  0
 29 30  1  0
 30 31  1  0
 31 54  1  0
 32 33  1  0
 33 34  1  0
 33 36  1  1
 34 35  2  0
 34 43  1  0
 36 37  1  0
 37 38  1  0
 38 39  1  0
 39 40  1  0
 40 41  2  0
 40 42  1  0
 43 44  1  0
 44 45  1  0
 45 46  2  0
 45 53  1  0
 46 47  1  0
 47 48  2  0
 48 49  1  0
 48 52  1  0
 49 50  1  0
 49 51  2  0
 52 53  2  0
 54 55  1  0
 54 59  2  0
 55 56  1  0
 56 57  1  0
 57 58  1  0
 58 60  2  0
 10 61  1  0
 22 62  1  0
 41 63  1  0
 51 64  1  0
M  END
$$$$
