
     RDKit          3D

 23 24  0  0  0  0  0  0  0  0999 V2000
    8.6209  -18.2559  -20.6882 P   0  0  1  0  0  5  0  0  0  0  0  0
    9.8236  -23.5260  -24.6103 N   0  0  0  0  0  0  0  0  0  0  0  0
   10.1491  -24.5464  -25.4488 C   0  0  0  0  0  0  0  0  0  0  0  0
   11.3485  -24.6617  -25.8013 O   0  0  0  0  0  0  0  0  0  0  0  0
    9.1543  -25.3565  -25.8370 N   0  0  0  0  0  0  0  0  0  0  0  0
    7.8729  -25.2295  -25.4578 C   0  0  0  0  0  0  0  0  0  0  0  0
    7.0104  -26.0549  -25.8868 O   0  0  0  0  0  0  0  0  0  0  0  0
    7.5350  -24.1975  -24.6078 C   0  0  0  0  0  0  0  0  0  0  0  0
    8.5507  -23.3565  -24.2011 C   0  0  0  0  0  0  0  0  0  0  0  0
   10.7953  -22.6050  -24.1357 C   0  0  1  0  0  0  0  0  0  0  0  0
   11.0144  -21.3843  -24.9395 C   0  0  1  0  0  0  0  0  0  0  0  0
   10.6774  -20.2591  -24.0053 C   0  0  2  0  0  0  0  0  0  0  0  0
   12.4330  -21.2267  -25.2852 N   0  0  0  0  0  0  0  0  0  0  0  0
   11.7286  -19.3258  -23.8902 O   0  0  0  0  0  0  0  0  0  0  0  0
   10.5504  -20.9192  -22.6574 C   0  0  2  0  0  0  0  0  0  0  0  0
   13.1237  -20.4900  -24.6183 N   0  0  0  0  0  4  0  0  0  0  0  0
   10.4447  -22.2595  -22.8415 O   0  0  0  0  0  0  0  0  0  0  0  0
    9.3782  -20.4046  -21.8654 C   0  0  0  0  0  0  0  0  0  0  0  0
   13.7283  -19.7013  -23.9115 N   0  0  0  0  0  2  0  0  0  0  0  0
    9.3911  -19.0139  -21.9629 O   0  0  0  0  0  0  0  0  0  0  0  0
    8.3469  -19.2619  -19.6142 O   0  0  0  0  0  0  0  0  0  0  0  0
    9.6929  -17.0734  -20.0759 O   0  0  0  0  0  0  0  0  0  0  0  0
    7.1941  -17.5062  -21.2388 O   0  0  0  0  0  0  0  0  0  0  0  0
 20  1  1  0
  1 21  2  0
  1 22  1  1
  1 23  1  0
  2  3  1  0
  2  9  1  0
 10  2  1  6
  3  4  2  0
  3  5  1  0
  5  6  1  0
  6  7  2  0
  8  6  1  0
  9  8  2  0
 10 11  1  0
 17 10  1  0
 12 11  1  0
 11 13  1  1
 12 14  1  1
 15 12  1  0
 13 16  2  3
 15 17  1  0
 15 18  1  6
 16 19  2  0
 18 20  1  0
M  CHG  2  16   1  19  -1
M  END
$$$$
