
     RDKit          3D

 23 24  0  0  0  0  0  0  0  0999 V2000
   10.2333  -20.2646  -22.1422 P   0  0  1  0  0  5  0  0  0  0  0  0
   11.6508  -22.3279  -27.1975 N   0  0  0  0  0  0  0  0  0  0  0  0
   11.5385  -22.4779  -28.5359 C   0  0  0  0  0  0  0  0  0  0  0  0
   10.6752  -23.2767  -28.9872 O   0  0  0  0  0  0  0  0  0  0  0  0
   12.3185  -21.8022  -29.4098 N   0  0  0  0  0  0  0  0  0  0  0  0
   13.2605  -20.9333  -28.9978 C   0  0  0  0  0  0  0  0  0  0  0  0
   13.9782  -20.3127  -29.8293 O   0  0  0  0  0  0  0  0  0  0  0  0
   13.4030  -20.7551  -27.6366 C   0  0  0  0  0  0  0  0  0  0  0  0
   12.5862  -21.4642  -26.7635 C   0  0  0  0  0  0  0  0  0  0  0  0
   10.8383  -23.0306  -26.2565 C   0  0  1  0  0  0  0  0  0  0  0  0
   11.6150  -23.9408  -25.3462 C   0  0  1  0  0  0  0  0  0  0  0  0
   10.9231  -23.7021  -23.9989 C   0  0  2  0  0  0  0  0  0  0  0  0
   11.3560  -25.3167  -25.6984 N   0  0  0  0  0  0  0  0  0  0  0  0
   10.6582  -24.8799  -23.3365 O   0  0  0  0  0  0  0  0  0  0  0  0
    9.6907  -22.9566  -24.4319 C   0  0  2  0  0  0  0  0  0  0  0  0
   10.7165  -25.9911  -24.8923 N   0  0  0  0  0  4  0  0  0  0  0  0
   10.1948  -22.1188  -25.4259 O   0  0  0  0  0  0  0  0  0  0  0  0
    9.1195  -22.1881  -23.2747 C   0  0  0  0  0  0  0  0  0  0  0  0
    9.9653  -26.4730  -24.0567 N   0  0  0  0  0  2  0  0  0  0  0  0
   10.1090  -21.9434  -22.3185 O   0  0  0  0  0  0  0  0  0  0  0  0
    8.9690  -19.5776  -22.5901 O   0  0  0  0  0  0  0  0  0  0  0  0
   10.5014  -19.8916  -20.5097 O   0  0  0  0  0  0  0  0  0  0  0  0
   11.5003  -19.6847  -23.0998 O   0  0  0  0  0  0  0  0  0  0  0  0
 20  1  1  0
  1 21  2  0
  1 22  1  1
  1 23  1  0
  2  3  1  0
  2  9  1  0
 10  2  1  6
  3  4  2  0
  3  5  1  0
  5  6  1  0
  6  7  2  0
  8  6  1  0
  9  8  2  0
 10 11  1  0
 17 10  1  0
 12 11  1  0
 11 13  1  6
 12 14  1  6
 15 12  1  0
 13 16  2  3
 15 17  1  6
 18 15  1  0
 16 19  2  0
 18 20  1  6
M  CHG  2  16   1  19  -1
M  END
$$$$
