
     RDKit          3D

 23 24  0  0  0  0  0  0  0  0999 V2000
    9.8956  -20.1764  -22.0442 P   0  0  1  0  0  5  0  0  0  0  0  0
   10.8070  -24.4691  -25.3598 N   0  0  0  0  0  0  0  0  0  0  0  0
   11.1074  -25.6895  -25.8567 C   0  0  0  0  0  0  0  0  0  0  0  0
   12.2940  -25.9275  -26.2065 O   0  0  0  0  0  0  0  0  0  0  0  0
   10.1815  -26.6657  -25.9927 N   0  0  0  0  0  0  0  0  0  0  0  0
    8.8958  -26.4807  -25.6394 C   0  0  0  0  0  0  0  0  0  0  0  0
    8.0472  -27.4044  -25.7743 O   0  0  0  0  0  0  0  0  0  0  0  0
    8.5530  -25.2455  -25.1278 C   0  0  0  0  0  0  0  0  0  0  0  0
    9.5275  -24.2623  -25.0002 C   0  0  0  0  0  0  0  0  0  0  0  0
   11.7679  -23.4237  -25.2073 C   0  0  1  0  0  0  0  0  0  0  0  0
   11.7132  -22.3871  -26.2948 C   0  0  1  0  0  0  0  0  0  0  0  0
   11.9051  -21.0893  -25.5013 C   0  0  2  0  0  0  0  0  0  0  0  0
   12.8701  -22.5169  -27.1486 N   0  0  0  0  0  0  0  0  0  0  0  0
   12.8187  -20.2482  -26.0965 O   0  0  0  0  0  0  0  0  0  0  0  0
   12.3497  -21.6255  -24.1683 C   0  0  2  0  0  0  0  0  0  0  0  0
   12.9732  -21.7181  -28.0785 N   0  0  0  0  0  4  0  0  0  0  0  0
   11.5285  -22.7424  -24.0183 O   0  0  0  0  0  0  0  0  0  0  0  0
   12.1176  -20.5996  -23.0961 C   0  0  0  0  0  0  0  0  0  0  0  0
   13.1840  -21.0904  -29.1063 N   0  0  0  0  0  2  0  0  0  0  0  0
   10.9381  -19.8932  -23.3472 O   0  0  0  0  0  0  0  0  0  0  0  0
    8.5329  -20.6054  -22.5239 O   0  0  0  0  0  0  0  0  0  0  0  0
   10.5379  -21.4076  -21.0709 O   0  0  0  0  0  0  0  0  0  0  0  0
    9.7018  -18.7536  -21.1515 O   0  0  0  0  0  0  0  0  0  0  0  0
 20  1  1  0
  1 21  2  0
  1 22  1  1
  1 23  1  0
  2  3  1  0
  2  9  1  0
 10  2  1  6
  3  4  2  0
  3  5  1  0
  5  6  1  0
  6  7  2  0
  8  6  1  0
  9  8  2  0
 10 11  1  0
 17 10  1  0
 12 11  1  0
 11 13  1  6
 12 14  1  6
 15 12  1  0
 13 16  2  3
 15 17  1  1
 18 15  1  0
 16 19  2  0
 18 20  1  6
M  CHG  2  16   1  19  -1
M  END
$$$$
