
     RDKit          3D

 23 24  0  0  0  0  0  0  0  0999 V2000
    9.4580  -19.4495  -20.9715 P   0  0  1  0  0  5  0  0  0  0  0  0
   10.3183  -23.7935  -25.0123 N   0  0  0  0  0  0  0  0  0  0  0  0
   10.5563  -24.7544  -25.9324 C   0  0  0  0  0  0  0  0  0  0  0  0
   11.7166  -24.8632  -26.4106 O   0  0  0  0  0  0  0  0  0  0  0  0
    9.5949  -25.6042  -26.3594 N   0  0  0  0  0  0  0  0  0  0  0  0
    8.3341  -25.5449  -25.8914 C   0  0  0  0  0  0  0  0  0  0  0  0
    7.4516  -26.3472  -26.3027 O   0  0  0  0  0  0  0  0  0  0  0  0
    8.0551  -24.5750  -24.9499 C   0  0  0  0  0  0  0  0  0  0  0  0
    9.0646  -23.7162  -24.5310 C   0  0  0  0  0  0  0  0  0  0  0  0
   11.3175  -22.8855  -24.5469 C   0  0  1  0  0  0  0  0  0  0  0  0
   11.8131  -21.9368  -25.6027 C   0  0  1  0  0  0  0  0  0  0  0  0
   11.9179  -20.6227  -24.8196 C   0  0  2  0  0  0  0  0  0  0  0  0
   13.1597  -22.2926  -25.9823 N   0  0  0  0  0  0  0  0  0  0  0  0
   13.1033  -19.9664  -25.0649 O   0  0  0  0  0  0  0  0  0  0  0  0
   11.7754  -21.1139  -23.4052 C   0  0  2  0  0  0  0  0  0  0  0  0
   13.6730  -21.6496  -26.8970 N   0  0  0  0  0  4  0  0  0  0  0  0
   10.7876  -22.0892  -23.5368 O   0  0  0  0  0  0  0  0  0  0  0  0
   11.3478  -19.9873  -22.5085 C   0  0  0  0  0  0  0  0  0  0  0  0
   14.3564  -21.1494  -27.7787 N   0  0  0  0  0  2  0  0  0  0  0  0
   10.7371  -20.4892  -21.3559 O   0  0  0  0  0  0  0  0  0  0  0  0
    9.9676  -18.0908  -20.5649 O   0  0  0  0  0  0  0  0  0  0  0  0
    8.4577  -19.2672  -22.3287 O   0  0  0  0  0  0  0  0  0  0  0  0
    8.5836  -20.0812  -19.6696 O   0  0  0  0  0  0  0  0  0  0  0  0
 20  1  1  0
  1 21  2  0
  1 22  1  6
  1 23  1  0
  2  3  1  0
  2  9  1  0
 10  2  1  6
  3  4  2  0
  3  5  1  0
  5  6  1  0
  6  7  2  0
  8  6  1  0
  9  8  2  0
 10 11  1  0
 17 10  1  0
 12 11  1  0
 11 13  1  1
 12 14  1  1
 15 12  1  0
 13 16  2  3
 15 17  1  6
 18 15  1  0
 16 19  2  0
 18 20  1  6
M  CHG  2  16   1  19  -1
M  END
$$$$
