
     RDKit          3D

 23 24  0  0  0  0  0  0  0  0999 V2000
    6.9685  -16.8182  -20.6699 P   0  0  1  0  0  5  0  0  0  0  0  0
    9.5738  -22.0630  -23.6939 N   0  0  0  0  0  0  0  0  0  0  0  0
    9.7021  -23.3633  -24.0718 C   0  0  0  0  0  0  0  0  0  0  0  0
    9.8475  -24.2280  -23.1733 O   0  0  0  0  0  0  0  0  0  0  0  0
    9.6630  -23.6222  -25.3864 N   0  0  0  0  0  0  0  0  0  0  0  0
    9.5075  -22.6944  -26.3439 C   0  0  0  0  0  0  0  0  0  0  0  0
    9.4846  -23.0514  -27.5610 O   0  0  0  0  0  0  0  0  0  0  0  0
    9.3768  -21.3738  -25.9688 C   0  0  0  0  0  0  0  0  0  0  0  0
    9.4155  -21.0945  -24.6179 C   0  0  0  0  0  0  0  0  0  0  0  0
    9.6020  -21.6713  -22.3288 C   0  0  1  0  0  0  0  0  0  0  0  0
   10.6035  -20.6562  -21.9407 C   0  0  1  0  0  0  0  0  0  0  0  0
    9.7879  -19.5149  -21.4072 C   0  0  2  0  0  0  0  0  0  0  0  0
   11.4328  -21.1313  -20.8256 N   0  0  0  0  0  0  0  0  0  0  0  0
   10.1787  -19.1404  -20.1047 O   0  0  0  0  0  0  0  0  0  0  0  0
    8.3959  -20.0771  -21.2843 C   0  0  2  0  0  0  0  0  0  0  0  0
   12.4345  -20.5183  -20.5332 N   0  0  0  0  0  4  0  0  0  0  0  0
    8.3322  -21.2311  -21.9954 O   0  0  0  0  0  0  0  0  0  0  0  0
    7.3362  -19.1147  -21.7503 C   0  0  0  0  0  0  0  0  0  0  0  0
   13.4072  -19.8989  -20.1367 N   0  0  0  0  0  2  0  0  0  0  0  0
    7.8693  -17.8305  -21.6480 O   0  0  0  0  0  0  0  0  0  0  0  0
    7.1498  -15.4053  -21.1297 O   0  0  0  0  0  0  0  0  0  0  0  0
    5.3266  -17.2540  -20.8607 O   0  0  0  0  0  0  0  0  0  0  0  0
    7.4311  -17.0241  -19.0437 O   0  0  0  0  0  0  0  0  0  0  0  0
 20  1  1  0
  1 21  2  0
  1 22  1  1
  1 23  1  0
  2  3  1  0
  2  9  1  0
 10  2  1  6
  3  4  2  0
  3  5  1  0
  5  6  1  0
  6  7  2  0
  8  6  1  0
  9  8  2  0
 10 11  1  0
 17 10  1  0
 12 11  1  0
 11 13  1  1
 12 14  1  1
 15 12  1  0
 13 16  2  3
 15 17  1  0
 15 18  1  6
 16 19  2  0
 18 20  1  0
M  CHG  2  16   1  19  -1
M  END
$$$$
