
     RDKit          3D

 23 24  0  0  0  0  0  0  0  0999 V2000
    9.1312  -19.4426  -21.4132 P   0  0  1  0  0  5  0  0  0  0  0  0
   11.2514  -24.5799  -25.2190 N   0  0  0  0  0  0  0  0  0  0  0  0
   11.9928  -25.5841  -25.7594 C   0  0  0  0  0  0  0  0  0  0  0  0
   13.1810  -25.3349  -26.0792 O   0  0  0  0  0  0  0  0  0  0  0  0
   11.3911  -26.7724  -25.9097 N   0  0  0  0  0  0  0  0  0  0  0  0
   10.1201  -27.0344  -25.5665 C   0  0  0  0  0  0  0  0  0  0  0  0
    9.6504  -28.1980  -25.7532 O   0  0  0  0  0  0  0  0  0  0  0  0
    9.3619  -26.0215  -25.0180 C   0  0  0  0  0  0  0  0  0  0  0  0
    9.9704  -24.7932  -24.8582 C   0  0  0  0  0  0  0  0  0  0  0  0
   11.7843  -23.2791  -25.0146 C   0  0  1  0  0  0  0  0  0  0  0  0
   11.3918  -22.2317  -25.9805 C   0  0  1  0  0  0  0  0  0  0  0  0
   10.7016  -21.1946  -25.1435 C   0  0  2  0  0  0  0  0  0  0  0  0
   12.5723  -21.5791  -26.5611 N   0  0  0  0  0  0  0  0  0  0  0  0
   11.2673  -19.9128  -25.3057 O   0  0  0  0  0  0  0  0  0  0  0  0
   10.9923  -21.6072  -23.7244 C   0  0  2  0  0  0  0  0  0  0  0  0
   12.4688  -21.0132  -27.6259 N   0  0  0  0  0  4  0  0  0  0  0  0
   11.4445  -22.8866  -23.7309 O   0  0  0  0  0  0  0  0  0  0  0  0
    9.7927  -21.4795  -22.8238 C   0  0  0  0  0  0  0  0  0  0  0  0
   12.4460  -20.5050  -28.7343 N   0  0  0  0  0  2  0  0  0  0  0  0
   10.1774  -20.7070  -21.7289 O   0  0  0  0  0  0  0  0  0  0  0  0
    8.9991  -19.2754  -19.9316 O   0  0  0  0  0  0  0  0  0  0  0  0
    9.8308  -18.0270  -22.0680 O   0  0  0  0  0  0  0  0  0  0  0  0
    7.6281  -19.7368  -22.1583 O   0  0  0  0  0  0  0  0  0  0  0  0
 20  1  1  0
  1 21  2  0
  1 22  1  6
  1 23  1  0
  2  3  1  0
  2  9  1  0
 10  2  1  6
  3  4  2  0
  3  5  1  0
  5  6  1  0
  6  7  2  0
  8  6  1  0
  9  8  2  0
 10 11  1  0
 17 10  1  0
 12 11  1  0
 11 13  1  1
 12 14  1  6
 15 12  1  0
 13 16  2  3
 15 17  1  0
 15 18  1  1
 16 19  2  0
 18 20  1  0
M  CHG  2  16   1  19  -1
M  END
$$$$
