
     RDKit          3D

 23 24  0  0  0  0  0  0  0  0999 V2000
   12.2501  -19.3407  -23.4646 P   0  0  1  0  0  5  0  0  0  0  0  0
   12.3512  -24.6973  -26.3083 N   0  0  0  0  0  0  0  0  0  0  0  0
   12.2421  -25.9794  -26.7214 C   0  0  0  0  0  0  0  0  0  0  0  0
   11.0978  -26.5027  -26.7821 O   0  0  0  0  0  0  0  0  0  0  0  0
   13.3161  -26.7225  -27.0726 N   0  0  0  0  0  0  0  0  0  0  0  0
   14.5673  -26.2277  -27.0319 C   0  0  0  0  0  0  0  0  0  0  0  0
   15.5562  -26.9375  -27.3636 O   0  0  0  0  0  0  0  0  0  0  0  0
   14.7162  -24.9206  -26.6144 C   0  0  0  0  0  0  0  0  0  0  0  0
   13.5929  -24.1824  -26.2600 C   0  0  0  0  0  0  0  0  0  0  0  0
   11.2316  -23.8941  -25.9328 C   0  0  1  0  0  0  0  0  0  0  0  0
   10.7559  -24.1369  -24.5275 C   0  0  1  0  0  0  0  0  0  0  0  0
   10.4541  -22.7123  -24.0477 C   0  0  2  0  0  0  0  0  0  0  0  0
    9.4915  -24.8330  -24.5559 N   0  0  0  0  0  0  0  0  0  0  0  0
    9.2427  -22.6299  -23.3981 O   0  0  0  0  0  0  0  0  0  0  0  0
   10.5026  -21.9515  -25.3442 C   0  0  2  0  0  0  0  0  0  0  0  0
    8.4767  -24.1480  -24.6765 N   0  0  0  0  0  4  0  0  0  0  0  0
   11.5844  -22.5496  -25.9893 O   0  0  0  0  0  0  0  0  0  0  0  0
   10.7345  -20.4917  -25.0774 C   0  0  0  0  0  0  0  0  0  0  0  0
    7.3943  -23.5824  -24.6195 N   0  0  0  0  0  2  0  0  0  0  0  0
   12.0967  -20.2431  -24.8883 O   0  0  0  0  0  0  0  0  0  0  0  0
   10.8992  -19.0151  -22.8813 O   0  0  0  0  0  0  0  0  0  0  0  0
   13.1284  -20.2383  -22.3249 O   0  0  0  0  0  0  0  0  0  0  0  0
   13.0312  -17.8791  -23.7993 O   0  0  0  0  0  0  0  0  0  0  0  0
 20  1  1  0
  1 21  2  0
  1 22  1  1
  1 23  1  0
  2  3  1  0
  2  9  1  0
 10  2  1  1
  3  4  2  0
  3  5  1  0
  5  6  1  0
  6  7  2  0
  8  6  1  0
  9  8  2  0
 10 11  1  0
 17 10  1  0
 12 11  1  0
 11 13  1  6
 12 14  1  6
 15 12  1  0
 13 16  2  3
 15 17  1  6
 18 15  1  0
 16 19  2  0
 18 20  1  6
M  CHG  2  16   1  19  -1
M  END
$$$$
