
     RDKit          3D

 23 24  0  0  0  0  0  0  0  0999 V2000
   10.2947  -20.4915  -20.9199 P   0  0  1  0  0  5  0  0  0  0  0  0
   11.5635  -24.7103  -25.5407 N   0  0  0  0  0  0  0  0  0  0  0  0
   11.7739  -25.2009  -26.7823 C   0  0  0  0  0  0  0  0  0  0  0  0
   12.4906  -24.5424  -27.5821 O   0  0  0  0  0  0  0  0  0  0  0  0
   11.2435  -26.3731  -27.1989 N   0  0  0  0  0  0  0  0  0  0  0  0
   10.4688  -27.1278  -26.3975 C   0  0  0  0  0  0  0  0  0  0  0  0
    9.9834  -28.2186  -26.8054 O   0  0  0  0  0  0  0  0  0  0  0  0
   10.2327  -26.6572  -25.1218 C   0  0  0  0  0  0  0  0  0  0  0  0
   10.7919  -25.4487  -24.7229 C   0  0  0  0  0  0  0  0  0  0  0  0
   12.1131  -23.4756  -25.0793 C   0  0  1  0  0  0  0  0  0  0  0  0
   11.3604  -22.2631  -25.5523 C   0  0  1  0  0  0  0  0  0  0  0  0
   11.3576  -21.3853  -24.2952 C   0  0  2  0  0  0  0  0  0  0  0  0
   12.1443  -21.5586  -26.5387 N   0  0  0  0  0  0  0  0  0  0  0  0
   11.6874  -20.0781  -24.5752 O   0  0  0  0  0  0  0  0  0  0  0  0
   12.3683  -22.0982  -23.4395 C   0  0  2  0  0  0  0  0  0  0  0  0
   11.5607  -20.7204  -27.2247 N   0  0  0  0  0  4  0  0  0  0  0  0
   12.0656  -23.4361  -23.6896 O   0  0  0  0  0  0  0  0  0  0  0  0
   12.1735  -21.7303  -21.9962 C   0  0  0  0  0  0  0  0  0  0  0  0
   11.0273  -19.7475  -27.7382 N   0  0  0  0  0  2  0  0  0  0  0  0
   10.8431  -21.9322  -21.6190 O   0  0  0  0  0  0  0  0  0  0  0  0
   10.5392  -20.4834  -19.4329 O   0  0  0  0  0  0  0  0  0  0  0  0
   11.1236  -19.1832  -21.6107 O   0  0  0  0  0  0  0  0  0  0  0  0
    8.6294  -20.3372  -21.1679 O   0  0  0  0  0  0  0  0  0  0  0  0
 20  1  1  0
  1 21  2  0
  1 22  1  6
  1 23  1  0
  2  3  1  0
  2  9  1  0
 10  2  1  6
  3  4  2  0
  3  5  1  0
  5  6  1  0
  6  7  2  0
  8  6  1  0
  9  8  2  0
 10 11  1  0
 17 10  1  0
 12 11  1  0
 11 13  1  6
 12 14  1  6
 15 12  1  0
 13 16  2  3
 15 17  1  1
 18 15  1  0
 16 19  2  0
 18 20  1  6
M  CHG  2  16   1  19  -1
M  END
$$$$
