
     RDKit          3D

 23 24  0  0  0  0  0  0  0  0999 V2000
    7.9119  -17.4499  -20.8345 P   0  0  1  0  0  5  0  0  0  0  0  0
   10.6858  -21.2870  -25.0903 N   0  0  0  0  0  0  0  0  0  0  0  0
   11.0330  -22.1036  -26.1096 C   0  0  0  0  0  0  0  0  0  0  0  0
   10.3006  -23.0950  -26.3701 O   0  0  0  0  0  0  0  0  0  0  0  0
   12.1381  -21.8966  -26.8612 N   0  0  0  0  0  0  0  0  0  0  0  0
   12.9651  -20.8580  -26.6388 C   0  0  0  0  0  0  0  0  0  0  0  0
   13.9912  -20.6824  -27.3515 O   0  0  0  0  0  0  0  0  0  0  0  0
   12.6411  -20.0029  -25.6051 C   0  0  0  0  0  0  0  0  0  0  0  0
   11.4985  -20.2423  -24.8504 C   0  0  0  0  0  0  0  0  0  0  0  0
    9.5242  -21.4860  -24.2838 C   0  0  1  0  0  0  0  0  0  0  0  0
    9.8054  -22.1700  -22.9748 C   0  0  1  0  0  0  0  0  0  0  0  0
    8.9089  -21.3837  -22.0109 C   0  0  2  0  0  0  0  0  0  0  0  0
    9.2849  -23.5161  -23.0081 N   0  0  0  0  0  0  0  0  0  0  0  0
    8.2009  -22.2123  -21.1693 O   0  0  0  0  0  0  0  0  0  0  0  0
    8.0476  -20.6153  -22.9750 C   0  0  2  0  0  0  0  0  0  0  0  0
    8.3896  -23.7911  -22.2103 N   0  0  0  0  0  4  0  0  0  0  0  0
    8.9675  -20.2534  -23.9584 O   0  0  0  0  0  0  0  0  0  0  0  0
    7.4461  -19.4212  -22.2905 C   0  0  0  0  0  0  0  0  0  0  0  0
    7.5238  -23.8527  -21.3493 N   0  0  0  0  0  2  0  0  0  0  0  0
    8.4058  -18.4176  -22.1323 O   0  0  0  0  0  0  0  0  0  0  0  0
    7.2477  -18.2769  -19.7639 O   0  0  0  0  0  0  0  0  0  0  0  0
    9.2661  -16.6823  -20.1616 O   0  0  0  0  0  0  0  0  0  0  0  0
    6.7879  -16.3074  -21.3727 O   0  0  0  0  0  0  0  0  0  0  0  0
 20  1  1  0
  1 21  2  0
  1 22  1  1
  1 23  1  0
  2  3  1  0
  2  9  1  0
 10  2  1  1
  3  4  2  0
  3  5  1  0
  5  6  1  0
  6  7  2  0
  8  6  1  0
  9  8  2  0
 10 11  1  0
 17 10  1  0
 12 11  1  0
 11 13  1  6
 12 14  1  6
 15 12  1  0
 13 16  2  3
 15 17  1  6
 18 15  1  0
 16 19  2  0
 18 20  1  6
M  CHG  2  16   1  19  -1
M  END
$$$$
