
     RDKit          3D

 23 24  0  0  0  0  0  0  0  0999 V2000
    8.8195  -18.8291  -20.9174 P   0  0  1  0  0  5  0  0  0  0  0  0
    9.6429  -23.5947  -24.6582 N   0  0  0  0  0  0  0  0  0  0  0  0
    9.9492  -24.6015  -25.5061 C   0  0  0  0  0  0  0  0  0  0  0  0
   11.1617  -24.8573  -25.7324 O   0  0  0  0  0  0  0  0  0  0  0  0
    9.0022  -25.3455  -26.1214 N   0  0  0  0  0  0  0  0  0  0  0  0
    7.6883  -25.1275  -25.9259 C   0  0  0  0  0  0  0  0  0  0  0  0
    6.8203  -25.8329  -26.5096 O   0  0  0  0  0  0  0  0  0  0  0  0
    7.3388  -24.1065  -25.0655 C   0  0  0  0  0  0  0  0  0  0  0  0
    8.3353  -23.3595  -24.4481 C   0  0  0  0  0  0  0  0  0  0  0  0
   10.6257  -22.7964  -23.9976 C   0  0  1  0  0  0  0  0  0  0  0  0
   11.0585  -21.5923  -24.7869 C   0  0  1  0  0  0  0  0  0  0  0  0
   11.1440  -20.5170  -23.6972 C   0  0  2  0  0  0  0  0  0  0  0  0
   12.4039  -21.7873  -25.2724 N   0  0  0  0  0  0  0  0  0  0  0  0
   12.2996  -19.7742  -23.7918 O   0  0  0  0  0  0  0  0  0  0  0  0
   11.0599  -21.3563  -22.4520 C   0  0  2  0  0  0  0  0  0  0  0  0
   12.7506  -21.1211  -26.2469 N   0  0  0  0  0  4  0  0  0  0  0  0
   10.1008  -22.3039  -22.8072 O   0  0  0  0  0  0  0  0  0  0  0  0
   10.6232  -20.5117  -21.2892 C   0  0  0  0  0  0  0  0  0  0  0  0
   13.1449  -20.6568  -27.3069 N   0  0  0  0  0  2  0  0  0  0  0  0
    9.2284  -20.4399  -21.2381 O   0  0  0  0  0  0  0  0  0  0  0  0
   10.0519  -17.9691  -20.8057 O   0  0  0  0  0  0  0  0  0  0  0  0
    7.8580  -18.2335  -22.1810 O   0  0  0  0  0  0  0  0  0  0  0  0
    7.9918  -18.7348  -19.4461 O   0  0  0  0  0  0  0  0  0  0  0  0
 20  1  1  0
  1 21  2  0
  1 22  1  6
  1 23  1  0
  2  3  1  0
  2  9  1  0
 10  2  1  6
  3  4  2  0
  3  5  1  0
  5  6  1  0
  6  7  2  0
  8  6  1  0
  9  8  2  0
 10 11  1  0
 17 10  1  0
 12 11  1  0
 11 13  1  1
 12 14  1  1
 15 12  1  0
 13 16  2  3
 15 17  1  6
 18 15  1  0
 16 19  2  0
 18 20  1  6
M  CHG  2  16   1  19  -1
M  END
$$$$
