
     RDKit          3D

 23 24  0  0  0  0  0  0  0  0999 V2000
   10.2127  -19.4608  -20.9629 P   0  0  1  0  0  5  0  0  0  0  0  0
   11.3875  -22.9319  -26.2287 N   0  0  0  0  0  0  0  0  0  0  0  0
   11.5599  -23.4796  -27.4618 C   0  0  0  0  0  0  0  0  0  0  0  0
   10.5377  -23.7190  -28.1501 O   0  0  0  0  0  0  0  0  0  0  0  0
   12.8198  -23.7234  -27.8491 N   0  0  0  0  0  0  0  0  0  0  0  0
   13.9102  -23.4660  -27.1097 C   0  0  0  0  0  0  0  0  0  0  0  0
   15.0585  -23.7374  -27.5757 O   0  0  0  0  0  0  0  0  0  0  0  0
   13.7436  -22.9107  -25.8584 C   0  0  0  0  0  0  0  0  0  0  0  0
   12.4510  -22.6551  -25.4483 C   0  0  0  0  0  0  0  0  0  0  0  0
   10.0980  -22.6324  -25.7136 C   0  0  1  0  0  0  0  0  0  0  0  0
    9.6501  -23.4002  -24.5329 C   0  0  1  0  0  0  0  0  0  0  0  0
    9.4201  -22.3580  -23.4777 C   0  0  2  0  0  0  0  0  0  0  0  0
    8.3498  -24.0370  -24.7787 N   0  0  0  0  0  0  0  0  0  0  0  0
    8.1209  -22.4257  -22.9329 O   0  0  0  0  0  0  0  0  0  0  0  0
    9.4975  -21.0508  -24.2220 C   0  0  2  0  0  0  0  0  0  0  0  0
    7.3964  -23.7073  -24.1101 N   0  0  0  0  0  4  0  0  0  0  0  0
   10.0659  -21.2768  -25.4333 O   0  0  0  0  0  0  0  0  0  0  0  0
   10.2667  -19.9977  -23.4700 C   0  0  0  0  0  0  0  0  0  0  0  0
    6.4979  -23.2963  -23.3953 N   0  0  0  0  0  2  0  0  0  0  0  0
   10.5582  -20.5183  -22.2100 O   0  0  0  0  0  0  0  0  0  0  0  0
    8.7371  -19.2121  -20.9273 O   0  0  0  0  0  0  0  0  0  0  0  0
   10.6791  -20.2225  -19.5053 O   0  0  0  0  0  0  0  0  0  0  0  0
   11.0977  -18.0198  -21.1656 O   0  0  0  0  0  0  0  0  0  0  0  0
 20  1  1  0
  1 21  2  0
  1 22  1  1
  1 23  1  0
  2  3  1  0
  2  9  1  0
 10  2  1  1
  3  4  2  0
  3  5  1  0
  5  6  1  0
  6  7  2  0
  8  6  1  0
  9  8  2  0
 10 11  1  0
 17 10  1  0
 12 11  1  0
 11 13  1  6
 12 14  1  6
 15 12  1  0
 13 16  2  3
 15 17  1  0
 15 18  1  1
 16 19  2  0
 18 20  1  0
M  CHG  2  16   1  19  -1
M  END
$$$$
