
     RDKit          3D

 23 24  0  0  0  0  0  0  0  0999 V2000
    9.9358  -19.9489  -21.1312 P   0  0  1  0  0  5  0  0  0  0  0  0
   11.6480  -24.5854  -25.6798 N   0  0  0  0  0  0  0  0  0  0  0  0
   12.2777  -25.5781  -26.3640 C   0  0  0  0  0  0  0  0  0  0  0  0
   13.4845  -25.4125  -26.6681 O   0  0  0  0  0  0  0  0  0  0  0  0
   11.5536  -26.6657  -26.6631 N   0  0  0  0  0  0  0  0  0  0  0  0
   10.2632  -26.8386  -26.3362 C   0  0  0  0  0  0  0  0  0  0  0  0
    9.6730  -27.9106  -26.6703 O   0  0  0  0  0  0  0  0  0  0  0  0
    9.6178  -25.8366  -25.6425 C   0  0  0  0  0  0  0  0  0  0  0  0
   10.3529  -24.7116  -25.3287 C   0  0  0  0  0  0  0  0  0  0  0  0
   12.3158  -23.3872  -25.3107 C   0  0  1  0  0  0  0  0  0  0  0  0
   12.1155  -22.2098  -26.1813 C   0  0  1  0  0  0  0  0  0  0  0  0
   11.4978  -21.1817  -25.2791 C   0  0  2  0  0  0  0  0  0  0  0  0
   13.4012  -21.6553  -26.6243 N   0  0  0  0  0  0  0  0  0  0  0  0
   12.2204  -19.9705  -25.2742 O   0  0  0  0  0  0  0  0  0  0  0  0
   11.6414  -21.7639  -23.8974 C   0  0  2  0  0  0  0  0  0  0  0  0
   13.4400  -20.9933  -27.6367 N   0  0  0  0  0  4  0  0  0  0  0  0
   11.9390  -23.0828  -24.0136 O   0  0  0  0  0  0  0  0  0  0  0  0
   10.4074  -21.5768  -23.0557 C   0  0  0  0  0  0  0  0  0  0  0  0
   13.5721  -20.2844  -28.6201 N   0  0  0  0  0  2  0  0  0  0  0  0
   10.3282  -20.2230  -22.7323 O   0  0  0  0  0  0  0  0  0  0  0  0
   10.5697  -21.0076  -20.2840 O   0  0  0  0  0  0  0  0  0  0  0  0
   10.5914  -18.4305  -20.6988 O   0  0  0  0  0  0  0  0  0  0  0  0
    8.2427  -19.9152  -20.9490 O   0  0  0  0  0  0  0  0  0  0  0  0
 20  1  1  0
  1 21  2  0
  1 22  1  1
  1 23  1  0
  2  3  1  0
  2  9  1  0
 10  2  1  6
  3  4  2  0
  3  5  1  0
  5  6  1  0
  6  7  2  0
  8  6  1  0
  9  8  2  0
 10 11  1  0
 17 10  1  0
 12 11  1  0
 11 13  1  1
 12 14  1  1
 15 12  1  0
 13 16  2  3
 15 17  1  0
 15 18  1  1
 16 19  2  0
 18 20  1  0
M  CHG  2  16   1  19  -1
M  END
$$$$
