
     RDKit          3D

 23 24  0  0  0  0  0  0  0  0999 V2000
    9.3010  -19.3301  -20.9440 P   0  0  1  0  0  5  0  0  0  0  0  0
    9.7123  -23.9561  -25.1678 N   0  0  0  0  0  0  0  0  0  0  0  0
    9.8872  -24.7914  -26.2156 C   0  0  0  0  0  0  0  0  0  0  0  0
   11.0275  -24.8711  -26.7451 O   0  0  0  0  0  0  0  0  0  0  0  0
    8.8834  -25.5457  -26.7177 N   0  0  0  0  0  0  0  0  0  0  0  0
    7.6406  -25.5106  -26.2015 C   0  0  0  0  0  0  0  0  0  0  0  0
    6.7177  -26.2224  -26.6845 O   0  0  0  0  0  0  0  0  0  0  0  0
    7.4257  -24.6680  -25.1298 C   0  0  0  0  0  0  0  0  0  0  0  0
    8.4778  -23.9052  -24.6361 C   0  0  0  0  0  0  0  0  0  0  0  0
   10.7572  -23.1505  -24.6212 C   0  0  1  0  0  0  0  0  0  0  0  0
   11.1170  -21.9651  -25.4731 C   0  0  1  0  0  0  0  0  0  0  0  0
   11.3112  -20.8686  -24.4191 C   0  0  2  0  0  0  0  0  0  0  0  0
   12.4088  -22.1781  -26.0814 N   0  0  0  0  0  0  0  0  0  0  0  0
   12.4555  -20.1349  -24.6395 O   0  0  0  0  0  0  0  0  0  0  0  0
   11.3438  -21.6821  -23.1546 C   0  0  2  0  0  0  0  0  0  0  0  0
   12.7969  -21.3309  -26.8847 N   0  0  0  0  0  4  0  0  0  0  0  0
   10.3511  -22.6309  -23.3963 O   0  0  0  0  0  0  0  0  0  0  0  0
   11.0242  -20.8116  -21.9729 C   0  0  0  0  0  0  0  0  0  0  0  0
   13.1615  -20.6525  -27.8342 N   0  0  0  0  0  2  0  0  0  0  0  0
    9.6441  -20.7751  -21.7559 O   0  0  0  0  0  0  0  0  0  0  0  0
    9.5770  -19.4592  -19.4681 O   0  0  0  0  0  0  0  0  0  0  0  0
   10.2760  -18.0915  -21.5695 O   0  0  0  0  0  0  0  0  0  0  0  0
    7.6643  -18.9486  -21.1293 O   0  0  0  0  0  0  0  0  0  0  0  0
 20  1  1  0
  1 21  2  0
  1 22  1  6
  1 23  1  0
  2  3  1  0
  2  9  1  0
 10  2  1  6
  3  4  2  0
  3  5  1  0
  5  6  1  0
  6  7  2  0
  8  6  1  0
  9  8  2  0
 10 11  1  0
 17 10  1  0
 12 11  1  0
 11 13  1  1
 12 14  1  6
 15 12  1  0
 13 16  2  3
 15 17  1  6
 18 15  1  0
 16 19  2  0
 18 20  1  6
M  CHG  2  16   1  19  -1
M  END
$$$$
