
     RDKit          3D

 23 24  0  0  0  0  0  0  0  0999 V2000
   14.2881  -20.3127  -25.7275 P   0  0  1  0  0  5  0  0  0  0  0  0
   13.6469  -26.1434  -27.1739 N   0  0  0  0  0  0  0  0  0  0  0  0
   13.2854  -27.4439  -27.2419 C   0  0  0  0  0  0  0  0  0  0  0  0
   12.0708  -27.7282  -27.4172 O   0  0  0  0  0  0  0  0  0  0  0  0
   14.1793  -28.4524  -27.1287 N   0  0  0  0  0  0  0  0  0  0  0  0
   15.4920  -28.2214  -26.9402 C   0  0  0  0  0  0  0  0  0  0  0  0
   16.3099  -29.1765  -26.8371 O   0  0  0  0  0  0  0  0  0  0  0  0
   15.8971  -26.9042  -26.8658 C   0  0  0  0  0  0  0  0  0  0  0  0
   14.9544  -25.8896  -26.9859 C   0  0  0  0  0  0  0  0  0  0  0  0
   12.7208  -25.0626  -27.2907 C   0  0  1  0  0  0  0  0  0  0  0  0
   11.9594  -24.7778  -26.0260 C   0  0  1  0  0  0  0  0  0  0  0  0
   11.9508  -23.2448  -26.0033 C   0  0  2  0  0  0  0  0  0  0  0  0
   10.5848  -25.1901  -26.1831 N   0  0  0  0  0  0  0  0  0  0  0  0
   10.7056  -22.7379  -25.7055 O   0  0  0  0  0  0  0  0  0  0  0  0
   12.4187  -22.9298  -27.3975 C   0  0  2  0  0  0  0  0  0  0  0  0
    9.8765  -25.1755  -25.1773 N   0  0  0  0  0  4  0  0  0  0  0  0
   13.4086  -23.8920  -27.5938 O   0  0  0  0  0  0  0  0  0  0  0  0
   12.9641  -21.5314  -27.4551 C   0  0  0  0  0  0  0  0  0  0  0  0
    9.3444  -25.2660  -24.0802 N   0  0  0  0  0  2  0  0  0  0  0  0
   14.2622  -21.4949  -26.9385 O   0  0  0  0  0  0  0  0  0  0  0  0
   14.3652  -18.9299  -26.3217 O   0  0  0  0  0  0  0  0  0  0  0  0
   12.8698  -20.4256  -24.8047 O   0  0  0  0  0  0  0  0  0  0  0  0
   15.6511  -20.5292  -24.7508 O   0  0  0  0  0  0  0  0  0  0  0  0
 20  1  1  0
  1 21  2  0
  1 22  1  1
  1 23  1  0
  2  3  1  0
  2  9  1  0
 10  2  1  1
  3  4  2  0
  3  5  1  0
  5  6  1  0
  6  7  2  0
  8  6  1  0
  9  8  2  0
 10 11  1  0
 17 10  1  0
 12 11  1  0
 11 13  1  6
 12 14  1  6
 15 12  1  0
 13 16  2  3
 15 17  1  1
 18 15  1  0
 16 19  2  0
 18 20  1  6
M  CHG  2  16   1  19  -1
M  END
$$$$
