
     RDKit          3D

 23 24  0  0  0  0  0  0  0  0999 V2000
   11.4156  -20.3759  -20.5846 P   0  0  1  0  0  5  0  0  0  0  0  0
   11.8795  -23.6245  -26.0114 N   0  0  0  0  0  0  0  0  0  0  0  0
   11.7136  -24.5948  -26.9374 C   0  0  0  0  0  0  0  0  0  0  0  0
   10.5531  -24.8345  -27.3647 O   0  0  0  0  0  0  0  0  0  0  0  0
   12.7475  -25.3189  -27.4229 N   0  0  0  0  0  0  0  0  0  0  0  0
   14.0130  -25.1163  -27.0112 C   0  0  0  0  0  0  0  0  0  0  0  0
   14.9637  -25.8027  -27.4767 O   0  0  0  0  0  0  0  0  0  0  0  0
   14.2196  -24.1325  -26.0656 C   0  0  0  0  0  0  0  0  0  0  0  0
   13.1365  -23.4051  -25.5857 C   0  0  0  0  0  0  0  0  0  0  0  0
   10.8031  -22.8477  -25.4847 C   0  0  1  0  0  0  0  0  0  0  0  0
    9.8263  -23.6436  -24.6645 C   0  0  1  0  0  0  0  0  0  0  0  0
    9.5417  -22.6874  -23.5002 C   0  0  2  0  0  0  0  0  0  0  0  0
    8.5851  -23.7841  -25.3883 N   0  0  0  0  0  0  0  0  0  0  0  0
    8.1962  -22.5955  -23.2221 O   0  0  0  0  0  0  0  0  0  0  0  0
   10.1451  -21.4106  -24.0173 C   0  0  2  0  0  0  0  0  0  0  0  0
    7.6284  -23.1176  -24.9956 N   0  0  0  0  0  4  0  0  0  0  0  0
   11.3084  -21.8701  -24.6337 O   0  0  0  0  0  0  0  0  0  0  0  0
   10.4353  -20.4779  -22.8762 C   0  0  0  0  0  0  0  0  0  0  0  0
    6.5612  -22.5708  -24.7574 N   0  0  0  0  0  2  0  0  0  0  0  0
   11.5781  -20.8940  -22.1877 O   0  0  0  0  0  0  0  0  0  0  0  0
   11.6929  -18.8997  -20.4615 O   0  0  0  0  0  0  0  0  0  0  0  0
    9.8313  -20.6735  -20.0581 O   0  0  0  0  0  0  0  0  0  0  0  0
   12.5292  -21.1912  -19.6079 O   0  0  0  0  0  0  0  0  0  0  0  0
 20  1  1  0
  1 21  2  0
  1 22  1  1
  1 23  1  0
  2  3  1  0
  2  9  1  0
 10  2  1  1
  3  4  2  0
  3  5  1  0
  5  6  1  0
  6  7  2  0
  8  6  1  0
  9  8  2  0
 10 11  1  0
 17 10  1  0
 12 11  1  0
 11 13  1  6
 12 14  1  6
 15 12  1  0
 13 16  2  3
 15 17  1  1
 18 15  1  0
 16 19  2  0
 18 20  1  6
M  CHG  2  16   1  19  -1
M  END
$$$$
