
     RDKit          3D

 23 24  0  0  0  0  0  0  0  0999 V2000
    8.4397  -18.2940  -20.7643 P   0  0  1  0  0  5  0  0  0  0  0  0
   10.2519  -22.8968  -24.7989 N   0  0  0  0  0  0  0  0  0  0  0  0
   10.6530  -23.6896  -25.8288 C   0  0  0  0  0  0  0  0  0  0  0  0
   11.8557  -23.6328  -26.1844 O   0  0  0  0  0  0  0  0  0  0  0  0
    9.7239  -24.4769  -26.3888 N   0  0  0  0  0  0  0  0  0  0  0  0
    8.4388  -24.5344  -26.0055 C   0  0  0  0  0  0  0  0  0  0  0  0
    7.6425  -25.3175  -26.6072 O   0  0  0  0  0  0  0  0  0  0  0  0
    8.0244  -23.7335  -24.9621 C   0  0  0  0  0  0  0  0  0  0  0  0
    8.9719  -22.9184  -24.3772 C   0  0  0  0  0  0  0  0  0  0  0  0
   11.1496  -22.0214  -24.1314 C   0  0  1  0  0  0  0  0  0  0  0  0
   11.2577  -20.6428  -24.6529 C   0  0  1  0  0  0  0  0  0  0  0  0
   10.8397  -19.7762  -23.5010 C   0  0  2  0  0  0  0  0  0  0  0  0
   12.6543  -20.2972  -24.9476 N   0  0  0  0  0  0  0  0  0  0  0  0
   11.8115  -18.8051  -23.1816 O   0  0  0  0  0  0  0  0  0  0  0  0
   10.7834  -20.7184  -22.3272 C   0  0  2  0  0  0  0  0  0  0  0  0
   12.9220  -19.7793  -26.0082 N   0  0  0  0  0  4  0  0  0  0  0  0
   10.7868  -21.9920  -22.7954 O   0  0  0  0  0  0  0  0  0  0  0  0
    9.5820  -20.4850  -21.4507 C   0  0  0  0  0  0  0  0  0  0  0  0
   13.1402  -19.3398  -27.1246 N   0  0  0  0  0  2  0  0  0  0  0  0
    8.9137  -19.3691  -21.9526 O   0  0  0  0  0  0  0  0  0  0  0  0
    7.7028  -17.1565  -21.3996 O   0  0  0  0  0  0  0  0  0  0  0  0
    7.3735  -19.1271  -19.7196 O   0  0  0  0  0  0  0  0  0  0  0  0
    9.8011  -17.7627  -19.8895 O   0  0  0  0  0  0  0  0  0  0  0  0
 20  1  1  0
  1 21  2  0
  1 22  1  1
  1 23  1  0
  2  3  1  0
  2  9  1  0
 10  2  1  6
  3  4  2  0
  3  5  1  0
  5  6  1  0
  6  7  2  0
  8  6  1  0
  9  8  2  0
 10 11  1  0
 17 10  1  0
 12 11  1  0
 11 13  1  1
 12 14  1  1
 15 12  1  0
 13 16  2  3
 15 17  1  0
 15 18  1  6
 16 19  2  0
 18 20  1  0
M  CHG  2  16   1  19  -1
M  END
$$$$
