
     RDKit          3D

 23 24  0  0  0  0  0  0  0  0999 V2000
   10.8532  -19.8048  -22.0714 P   0  0  1  0  0  5  0  0  0  0  0  0
   11.4660  -23.2958  -27.2075 N   0  0  0  0  0  0  0  0  0  0  0  0
   11.4643  -24.2287  -28.1854 C   0  0  0  0  0  0  0  0  0  0  0  0
   11.7303  -25.4230  -27.8858 O   0  0  0  0  0  0  0  0  0  0  0  0
   11.1876  -23.9281  -29.4745 N   0  0  0  0  0  0  0  0  0  0  0  0
   10.8950  -22.6736  -29.8653 C   0  0  0  0  0  0  0  0  0  0  0  0
   10.6396  -22.4139  -31.0732 O   0  0  0  0  0  0  0  0  0  0  0  0
   10.8876  -21.6947  -28.8924 C   0  0  0  0  0  0  0  0  0  0  0  0
   11.1761  -22.0350  -27.5759 C   0  0  0  0  0  0  0  0  0  0  0  0
   11.7550  -23.5901  -25.8403 C   0  0  1  0  0  0  0  0  0  0  0  0
   13.1386  -23.1858  -25.4130 C   0  0  1  0  0  0  0  0  0  0  0  0
   12.8792  -22.6059  -24.0175 C   0  0  2  0  0  0  0  0  0  0  0  0
   13.9511  -24.3633  -25.2197 N   0  0  0  0  0  0  0  0  0  0  0  0
   13.7879  -23.0629  -23.0893 O   0  0  0  0  0  0  0  0  0  0  0  0
   11.4696  -23.0670  -23.7676 C   0  0  2  0  0  0  0  0  0  0  0  0
   15.1584  -24.2521  -25.4286 N   0  0  0  0  0  4  0  0  0  0  0  0
   10.8809  -22.8861  -25.0185 O   0  0  0  0  0  0  0  0  0  0  0  0
   10.8289  -22.2167  -22.7080 C   0  0  0  0  0  0  0  0  0  0  0  0
   16.3015  -24.1579  -25.8519 N   0  0  0  0  0  2  0  0  0  0  0  0
   11.7255  -21.2432  -22.2589 O   0  0  0  0  0  0  0  0  0  0  0  0
   11.0271  -18.9058  -23.2683 O   0  0  0  0  0  0  0  0  0  0  0  0
    9.2052  -20.1675  -21.9032 O   0  0  0  0  0  0  0  0  0  0  0  0
   11.4191  -18.9695  -20.7146 O   0  0  0  0  0  0  0  0  0  0  0  0
 20  1  1  0
  1 21  2  0
  1 22  1  1
  1 23  1  0
  2  3  1  0
  2  9  1  0
 10  2  1  6
  3  4  2  0
  3  5  1  0
  5  6  1  0
  6  7  2  0
  8  6  1  0
  9  8  2  0
 10 11  1  0
 17 10  1  0
 12 11  1  0
 11 13  1  1
 12 14  1  1
 15 12  1  0
 13 16  2  3
 15 17  1  6
 18 15  1  0
 16 19  2  0
 18 20  1  6
M  CHG  2  16   1  19  -1
M  END
$$$$
