
     RDKit          3D

 23 24  0  0  0  0  0  0  0  0999 V2000
    7.4283  -17.3760  -20.6329 P   0  0  1  0  0  5  0  0  0  0  0  0
    9.9836  -21.7755  -24.9047 N   0  0  0  0  0  0  0  0  0  0  0  0
    9.8575  -22.7512  -25.8313 C   0  0  0  0  0  0  0  0  0  0  0  0
    9.0656  -23.7045  -25.6056 O   0  0  0  0  0  0  0  0  0  0  0  0
   10.5502  -22.7426  -26.9928 N   0  0  0  0  0  0  0  0  0  0  0  0
   11.4130  -21.7558  -27.2991 C   0  0  0  0  0  0  0  0  0  0  0  0
   12.0496  -21.7664  -28.3883 O   0  0  0  0  0  0  0  0  0  0  0  0
   11.5668  -20.7422  -26.3752 C   0  0  0  0  0  0  0  0  0  0  0  0
   10.8408  -20.7791  -25.1903 C   0  0  0  0  0  0  0  0  0  0  0  0
    9.2627  -21.7638  -23.6719 C   0  0  1  0  0  0  0  0  0  0  0  0
   10.1363  -21.5887  -22.4609 C   0  0  1  0  0  0  0  0  0  0  0  0
    9.3024  -20.6243  -21.6092 C   0  0  2  0  0  0  0  0  0  0  0  0
   10.2013  -22.8290  -21.7251 N   0  0  0  0  0  0  0  0  0  0  0  0
    9.2374  -21.0199  -20.2919 O   0  0  0  0  0  0  0  0  0  0  0  0
    7.9805  -20.6715  -22.3250 C   0  0  2  0  0  0  0  0  0  0  0  0
    9.7450  -22.8279  -20.5826 N   0  0  0  0  0  4  0  0  0  0  0  0
    8.3768  -20.6913  -23.6617 O   0  0  0  0  0  0  0  0  0  0  0  0
    7.1684  -19.4532  -21.9896 C   0  0  0  0  0  0  0  0  0  0  0  0
    9.4988  -22.7687  -19.3865 N   0  0  0  0  0  2  0  0  0  0  0  0
    7.3953  -19.0680  -20.6654 O   0  0  0  0  0  0  0  0  0  0  0  0
    8.1075  -16.8712  -19.3859 O   0  0  0  0  0  0  0  0  0  0  0  0
    8.2838  -16.8069  -21.9820 O   0  0  0  0  0  0  0  0  0  0  0  0
    5.8475  -16.7764  -20.6358 O   0  0  0  0  0  0  0  0  0  0  0  0
 20  1  1  0
  1 21  2  0
  1 22  1  6
  1 23  1  0
  2  3  1  0
  2  9  1  0
 10  2  1  6
  3  4  2  0
  3  5  1  0
  5  6  1  0
  6  7  2  0
  8  6  1  0
  9  8  2  0
 10 11  1  0
 17 10  1  0
 12 11  1  0
 11 13  1  1
 12 14  1  1
 15 12  1  0
 13 16  2  3
 15 17  1  6
 18 15  1  0
 16 19  2  0
 18 20  1  6
M  CHG  2  16   1  19  -1
M  END
$$$$
