
     RDKit          3D

 23 24  0  0  0  0  0  0  0  0999 V2000
    8.9206  -19.0093  -21.7379 P   0  0  1  0  0  5  0  0  0  0  0  0
   11.2260  -22.2668  -26.7135 N   0  0  0  0  0  0  0  0  0  0  0  0
   11.4523  -22.6406  -28.0016 C   0  0  0  0  0  0  0  0  0  0  0  0
   10.6414  -23.4353  -28.5373 O   0  0  0  0  0  0  0  0  0  0  0  0
   12.5338  -22.1263  -28.6039 N   0  0  0  0  0  0  0  0  0  0  0  0
   13.3985  -21.2769  -28.0272 C   0  0  0  0  0  0  0  0  0  0  0  0
   14.3917  -20.8507  -28.6915 O   0  0  0  0  0  0  0  0  0  0  0  0
   13.1759  -20.8932  -26.7214 C   0  0  0  0  0  0  0  0  0  0  0  0
   12.0655  -21.4160  -26.0905 C   0  0  0  0  0  0  0  0  0  0  0  0
   10.1122  -22.7498  -25.9760 C   0  0  1  0  0  0  0  0  0  0  0  0
   10.3955  -23.4080  -24.6834 C   0  0  1  0  0  0  0  0  0  0  0  0
    9.6669  -22.5709  -23.6730 C   0  0  2  0  0  0  0  0  0  0  0  0
    9.7917  -24.7456  -24.6280 N   0  0  0  0  0  0  0  0  0  0  0  0
    8.7850  -23.3351  -22.8808 O   0  0  0  0  0  0  0  0  0  0  0  0
    8.8040  -21.6549  -24.5006 C   0  0  2  0  0  0  0  0  0  0  0  0
    9.3442  -25.1471  -23.5776 N   0  0  0  0  0  4  0  0  0  0  0  0
    9.2474  -21.6859  -25.7827 O   0  0  0  0  0  0  0  0  0  0  0  0
    8.7929  -20.2411  -23.9835 C   0  0  0  0  0  0  0  0  0  0  0  0
    8.7945  -25.5391  -22.5621 N   0  0  0  0  0  2  0  0  0  0  0  0
    8.3637  -20.2885  -22.6579 O   0  0  0  0  0  0  0  0  0  0  0  0
    7.7863  -18.0707  -21.4680 O   0  0  0  0  0  0  0  0  0  0  0  0
    9.4704  -19.6518  -20.2522 O   0  0  0  0  0  0  0  0  0  0  0  0
   10.2093  -18.2381  -22.5411 O   0  0  0  0  0  0  0  0  0  0  0  0
 20  1  1  0
  1 21  2  0
  1 22  1  1
  1 23  1  0
  2  3  1  0
  2  9  1  0
 10  2  1  1
  3  4  2  0
  3  5  1  0
  5  6  1  0
  6  7  2  0
  8  6  1  0
  9  8  2  0
 10 11  1  0
 17 10  1  0
 12 11  1  0
 11 13  1  6
 12 14  1  1
 15 12  1  0
 13 16  2  3
 15 17  1  0
 15 18  1  1
 16 19  2  0
 18 20  1  0
M  CHG  2  16   1  19  -1
M  END
$$$$
