
     RDKit          3D

 23 24  0  0  0  0  0  0  0  0999 V2000
   15.7692  -22.2921  -27.3575 P   0  0  1  0  0  5  0  0  0  0  0  0
   10.4825  -24.5949  -25.8793 N   0  0  0  0  0  0  0  0  0  0  0  0
    9.2181  -25.0401  -26.0509 C   0  0  0  0  0  0  0  0  0  0  0  0
    8.2831  -24.1992  -26.1263 O   0  0  0  0  0  0  0  0  0  0  0  0
    8.9183  -26.3554  -26.1448 N   0  0  0  0  0  0  0  0  0  0  0  0
    9.8668  -27.3080  -26.0727 C   0  0  0  0  0  0  0  0  0  0  0  0
    9.5664  -28.5300  -26.1626 O   0  0  0  0  0  0  0  0  0  0  0  0
   11.1702  -26.8892  -25.8976 C   0  0  0  0  0  0  0  0  0  0  0  0
   11.4465  -25.5300  -25.8045 C   0  0  0  0  0  0  0  0  0  0  0  0
   10.8223  -23.2116  -25.7776 C   0  0  1  0  0  0  0  0  0  0  0  0
   11.1523  -22.7700  -24.3788 C   0  0  1  0  0  0  0  0  0  0  0  0
   12.3523  -21.8457  -24.6165 C   0  0  2  0  0  0  0  0  0  0  0  0
   10.0904  -21.9353  -23.8694 N   0  0  0  0  0  0  0  0  0  0  0  0
   12.2455  -20.6667  -23.9131 O   0  0  0  0  0  0  0  0  0  0  0  0
   12.2950  -21.6712  -26.1092 C   0  0  2  0  0  0  0  0  0  0  0  0
   10.1572  -21.6020  -22.6870 N   0  0  0  0  0  4  0  0  0  0  0  0
   11.9593  -22.9552  -26.5369 O   0  0  0  0  0  0  0  0  0  0  0  0
   13.6333  -21.2294  -26.6288 C   0  0  0  0  0  0  0  0  0  0  0  0
   10.0537  -21.4133  -21.4835 N   0  0  0  0  0  2  0  0  0  0  0  0
   14.6464  -22.0439  -26.1156 O   0  0  0  0  0  0  0  0  0  0  0  0
   15.8629  -21.0836  -28.2529 O   0  0  0  0  0  0  0  0  0  0  0  0
   17.2969  -22.5828  -26.6810 O   0  0  0  0  0  0  0  0  0  0  0  0
   15.2828  -23.6014  -28.3104 O   0  0  0  0  0  0  0  0  0  0  0  0
 20  1  1  0
  1 21  2  0
  1 22  1  1
  1 23  1  0
  2  3  1  0
  2  9  1  0
 10  2  1  1
  3  4  2  0
  3  5  1  0
  5  6  1  0
  6  7  2  0
  8  6  1  0
  9  8  2  0
 10 11  1  0
 17 10  1  0
 12 11  1  0
 11 13  1  6
 12 14  1  1
 15 12  1  0
 13 16  2  3
 15 17  1  6
 18 15  1  0
 16 19  2  0
 18 20  1  6
M  CHG  2  16   1  19  -1
M  END
$$$$
