
     RDKit          3D

 23 24  0  0  0  0  0  0  0  0999 V2000
    9.3143  -20.0337  -21.8335 P   0  0  1  0  0  5  0  0  0  0  0  0
   11.5549  -24.8108  -25.3152 N   0  0  0  0  0  0  0  0  0  0  0  0
   12.3025  -25.7659  -25.9113 C   0  0  0  0  0  0  0  0  0  0  0  0
   13.3481  -25.4238  -26.5251 O   0  0  0  0  0  0  0  0  0  0  0  0
   11.9702  -27.0763  -25.8737 N   0  0  0  0  0  0  0  0  0  0  0  0
   10.8676  -27.5124  -25.2363 C   0  0  0  0  0  0  0  0  0  0  0  0
   10.5752  -28.7394  -25.2128 O   0  0  0  0  0  0  0  0  0  0  0  0
   10.0802  -26.5638  -24.6159 C   0  0  0  0  0  0  0  0  0  0  0  0
   10.4483  -25.2245  -24.6723 C   0  0  0  0  0  0  0  0  0  0  0  0
   11.8863  -23.4219  -25.3420 C   0  0  1  0  0  0  0  0  0  0  0  0
   11.0795  -22.6255  -26.3295 C   0  0  1  0  0  0  0  0  0  0  0  0
   10.7906  -21.3445  -25.5380 C   0  0  2  0  0  0  0  0  0  0  0  0
   11.9162  -22.2376  -27.4401 N   0  0  0  0  0  0  0  0  0  0  0  0
   11.0079  -20.2111  -26.2893 O   0  0  0  0  0  0  0  0  0  0  0  0
   11.7373  -21.4977  -24.3795 C   0  0  2  0  0  0  0  0  0  0  0  0
   12.3583  -21.0894  -27.4350 N   0  0  0  0  0  4  0  0  0  0  0  0
   11.6289  -22.8586  -24.0964 O   0  0  0  0  0  0  0  0  0  0  0  0
   11.2901  -20.6394  -23.2308 C   0  0  0  0  0  0  0  0  0  0  0  0
   12.7724  -19.9598  -27.6519 N   0  0  0  0  0  2  0  0  0  0  0  0
    9.9466  -20.2859  -23.3832 O   0  0  0  0  0  0  0  0  0  0  0  0
    8.4715  -21.2036  -21.3951 O   0  0  0  0  0  0  0  0  0  0  0  0
   10.5901  -19.8445  -20.7324 O   0  0  0  0  0  0  0  0  0  0  0  0
    8.3262  -18.6618  -21.8390 O   0  0  0  0  0  0  0  0  0  0  0  0
 20  1  1  0
  1 21  2  0
  1 22  1  1
  1 23  1  0
  2  3  1  0
  2  9  1  0
 10  2  1  1
  3  4  2  0
  3  5  1  0
  5  6  1  0
  6  7  2  0
  8  6  1  0
  9  8  2  0
 10 11  1  0
 17 10  1  0
 12 11  1  0
 11 13  1  6
 12 14  1  6
 15 12  1  0
 13 16  2  3
 15 17  1  1
 18 15  1  0
 16 19  2  0
 18 20  1  6
M  CHG  2  16   1  19  -1
M  END
$$$$
