
     RDKit          3D

 23 24  0  0  0  0  0  0  0  0999 V2000
    9.5663  -20.2429  -22.3845 P   0  0  1  0  0  5  0  0  0  0  0  0
   11.0160  -24.7071  -25.3922 N   0  0  0  0  0  0  0  0  0  0  0  0
   11.4968  -25.8989  -25.8105 C   0  0  0  0  0  0  0  0  0  0  0  0
   12.6844  -25.9626  -26.2259 O   0  0  0  0  0  0  0  0  0  0  0  0
   10.7505  -27.0266  -25.8001 N   0  0  0  0  0  0  0  0  0  0  0  0
    9.4750  -27.0313  -25.3697 C   0  0  0  0  0  0  0  0  0  0  0  0
    8.7955  -28.0943  -25.3679 O   0  0  0  0  0  0  0  0  0  0  0  0
    8.9508  -25.8309  -24.9349 C   0  0  0  0  0  0  0  0  0  0  0  0
    9.7431  -24.6889  -24.9578 C   0  0  0  0  0  0  0  0  0  0  0  0
   11.7854  -23.5040  -25.3943 C   0  0  1  0  0  0  0  0  0  0  0  0
   11.4802  -22.5917  -26.5497 C   0  0  1  0  0  0  0  0  0  0  0  0
   11.4905  -21.2154  -25.8739 C   0  0  2  0  0  0  0  0  0  0  0  0
   12.5854  -22.5972  -27.4784 N   0  0  0  0  0  0  0  0  0  0  0  0
   12.2020  -20.2868  -26.6003 O   0  0  0  0  0  0  0  0  0  0  0  0
   12.1062  -21.5487  -24.5428 C   0  0  2  0  0  0  0  0  0  0  0  0
   12.8219  -21.5474  -28.0749 N   0  0  0  0  0  4  0  0  0  0  0  0
   11.5057  -22.7714  -24.2453 O   0  0  0  0  0  0  0  0  0  0  0  0
   11.7655  -20.4869  -23.5365 C   0  0  0  0  0  0  0  0  0  0  0  0
   13.0675  -20.6340  -28.8495 N   0  0  0  0  0  2  0  0  0  0  0  0
   10.4864  -19.9792  -23.7805 O   0  0  0  0  0  0  0  0  0  0  0  0
   10.4517  -20.4353  -21.1803 O   0  0  0  0  0  0  0  0  0  0  0  0
    8.5669  -18.9004  -22.1110 O   0  0  0  0  0  0  0  0  0  0  0  0
    8.6399  -21.6450  -22.5706 O   0  0  0  0  0  0  0  0  0  0  0  0
 20  1  1  0
  1 21  2  0
  1 22  1  1
  1 23  1  0
  2  3  1  0
  2  9  1  0
 10  2  1  6
  3  4  2  0
  3  5  1  0
  5  6  1  0
  6  7  2  0
  8  6  1  0
  9  8  2  0
 10 11  1  0
 17 10  1  0
 12 11  1  0
 11 13  1  6
 12 14  1  6
 15 12  1  0
 13 16  2  3
 15 17  1  1
 18 15  1  0
 16 19  2  0
 18 20  1  6
M  CHG  2  16   1  19  -1
M  END
$$$$
