
     RDKit          3D

 23 24  0  0  0  0  0  0  0  0999 V2000
    8.6806  -18.6309  -20.8636 P   0  0  1  0  0  5  0  0  0  0  0  0
   10.0333  -23.8079  -24.9167 N   0  0  0  0  0  0  0  0  0  0  0  0
   10.4087  -24.9185  -25.6066 C   0  0  0  0  0  0  0  0  0  0  0  0
   11.6314  -25.0857  -25.8370 O   0  0  0  0  0  0  0  0  0  0  0  0
    9.4344  -25.7553  -25.9903 N   0  0  0  0  0  0  0  0  0  0  0  0
    8.1279  -25.5725  -25.7420 C   0  0  0  0  0  0  0  0  0  0  0  0
    7.2886  -26.4305  -26.1527 O   0  0  0  0  0  0  0  0  0  0  0  0
    7.7394  -24.4489  -25.0431 C   0  0  0  0  0  0  0  0  0  0  0  0
    8.7336  -23.5796  -24.6426 C   0  0  0  0  0  0  0  0  0  0  0  0
   10.9794  -22.8510  -24.4617 C   0  0  1  0  0  0  0  0  0  0  0  0
   11.2787  -21.7192  -25.3636 C   0  0  1  0  0  0  0  0  0  0  0  0
   10.8877  -20.5031  -24.5757 C   0  0  2  0  0  0  0  0  0  0  0  0
   12.7220  -21.6079  -25.6110 N   0  0  0  0  0  0  0  0  0  0  0  0
   11.9411  -19.5709  -24.4723 O   0  0  0  0  0  0  0  0  0  0  0  0
   10.6468  -21.0232  -23.1828 C   0  0  2  0  0  0  0  0  0  0  0  0
   13.1062  -21.0882  -26.6343 N   0  0  0  0  0  4  0  0  0  0  0  0
   10.5352  -22.3744  -23.2399 O   0  0  0  0  0  0  0  0  0  0  0  0
    9.4249  -20.4227  -22.5405 C   0  0  0  0  0  0  0  0  0  0  0  0
   13.3891  -20.5487  -27.6907 N   0  0  0  0  0  2  0  0  0  0  0  0
    9.8597  -19.6523  -21.4630 O   0  0  0  0  0  0  0  0  0  0  0  0
    9.1453  -18.0587  -19.5609 O   0  0  0  0  0  0  0  0  0  0  0  0
    8.4896  -17.3579  -21.9884 O   0  0  0  0  0  0  0  0  0  0  0  0
    7.2116  -19.4773  -20.7006 O   0  0  0  0  0  0  0  0  0  0  0  0
 20  1  1  0
  1 21  2  0
  1 22  1  6
  1 23  1  0
  2  3  1  0
  2  9  1  0
 10  2  1  6
  3  4  2  0
  3  5  1  0
  5  6  1  0
  6  7  2  0
  8  6  1  0
  9  8  2  0
 10 11  1  0
 17 10  1  0
 12 11  1  0
 11 13  1  1
 12 14  1  1
 15 12  1  0
 13 16  2  3
 15 17  1  0
 15 18  1  6
 16 19  2  0
 18 20  1  0
M  CHG  2  16   1  19  -1
M  END
$$$$
