
     RDKit          3D

 23 24  0  0  0  0  0  0  0  0999 V2000
    7.2778  -17.4259  -20.0521 P   0  0  1  0  0  5  0  0  0  0  0  0
    9.4108  -22.3882  -23.3926 N   0  0  0  0  0  0  0  0  0  0  0  0
   10.0661  -23.3631  -24.0609 C   0  0  0  0  0  0  0  0  0  0  0  0
   11.3005  -23.5134  -23.8595 O   0  0  0  0  0  0  0  0  0  0  0  0
    9.4460  -24.1842  -24.9386 N   0  0  0  0  0  0  0  0  0  0  0  0
    8.1300  -24.0801  -25.2020 C   0  0  0  0  0  0  0  0  0  0  0  0
    7.5703  -24.8561  -26.0244 O   0  0  0  0  0  0  0  0  0  0  0  0
    7.4289  -23.0948  -24.5370 C   0  0  0  0  0  0  0  0  0  0  0  0
    8.0944  -22.2664  -23.6407 C   0  0  0  0  0  0  0  0  0  0  0  0
   10.0447  -21.5101  -22.4617 C   0  0  1  0  0  0  0  0  0  0  0  0
   10.5934  -20.2578  -23.0872 C   0  0  1  0  0  0  0  0  0  0  0  0
   10.2172  -19.1965  -22.0466 C   0  0  2  0  0  0  0  0  0  0  0  0
   12.0357  -20.3158  -23.1062 N   0  0  0  0  0  0  0  0  0  0  0  0
   11.2643  -18.3452  -21.7727 O   0  0  0  0  0  0  0  0  0  0  0  0
    9.8137  -20.0594  -20.8827 C   0  0  2  0  0  0  0  0  0  0  0  0
   12.6256  -19.4120  -23.6968 N   0  0  0  0  0  4  0  0  0  0  0  0
    9.1170  -21.0887  -21.5146 O   0  0  0  0  0  0  0  0  0  0  0  0
    8.9443  -19.2787  -19.9387 C   0  0  0  0  0  0  0  0  0  0  0  0
   13.0828  -18.3778  -24.1617 N   0  0  0  0  0  2  0  0  0  0  0  0
    7.7164  -18.9866  -20.5387 O   0  0  0  0  0  0  0  0  0  0  0  0
    6.8578  -17.4075  -18.6049 O   0  0  0  0  0  0  0  0  0  0  0  0
    8.6044  -16.3868  -20.2426 O   0  0  0  0  0  0  0  0  0  0  0  0
    5.9663  -16.8902  -20.9748 O   0  0  0  0  0  0  0  0  0  0  0  0
 20  1  1  0
  1 21  2  0
  1 22  1  1
  1 23  1  0
  2  3  1  0
  2  9  1  0
 10  2  1  6
  3  4  2  0
  3  5  1  0
  5  6  1  0
  6  7  2  0
  8  6  1  0
  9  8  2  0
 10 11  1  0
 17 10  1  0
 12 11  1  0
 11 13  1  1
 12 14  1  1
 15 12  1  0
 13 16  2  3
 15 17  1  6
 18 15  1  0
 16 19  2  0
 18 20  1  6
M  CHG  2  16   1  19  -1
M  END
$$$$
