
     RDKit          3D

 23 24  0  0  0  0  0  0  0  0999 V2000
    7.3848  -16.6953  -20.3291 P   0  0  1  0  0  5  0  0  0  0  0  0
   10.6902  -20.2391  -23.9667 N   0  0  0  0  0  0  0  0  0  0  0  0
   11.0808  -20.8914  -25.0839 C   0  0  0  0  0  0  0  0  0  0  0  0
   10.4238  -21.8981  -25.4605 O   0  0  0  0  0  0  0  0  0  0  0  0
   12.1515  -20.5039  -25.8136 N   0  0  0  0  0  0  0  0  0  0  0  0
   12.8984  -19.4381  -25.4697 C   0  0  0  0  0  0  0  0  0  0  0  0
   13.8936  -19.0929  -26.1640 O   0  0  0  0  0  0  0  0  0  0  0  0
   12.5281  -18.7477  -24.3335 C   0  0  0  0  0  0  0  0  0  0  0  0
   11.4226  -19.1706  -23.6045 C   0  0  0  0  0  0  0  0  0  0  0  0
    9.5636  -20.6301  -23.1809 C   0  0  1  0  0  0  0  0  0  0  0  0
    9.9281  -21.1715  -21.8265 C   0  0  1  0  0  0  0  0  0  0  0  0
    8.8538  -20.5368  -20.9354 C   0  0  2  0  0  0  0  0  0  0  0  0
    9.6947  -22.5957  -21.7936 N   0  0  0  0  0  0  0  0  0  0  0  0
    8.2980  -21.4478  -20.0651 O   0  0  0  0  0  0  0  0  0  0  0  0
    7.8914  -20.0140  -21.9661 C   0  0  2  0  0  0  0  0  0  0  0  0
    9.0608  -23.0820  -22.7292 N   0  0  0  0  0  4  0  0  0  0  0  0
    8.7552  -19.5230  -22.9444 O   0  0  0  0  0  0  0  0  0  0  0  0
    7.0332  -18.9349  -21.3702 C   0  0  0  0  0  0  0  0  0  0  0  0
    8.2784  -23.4089  -23.6099 N   0  0  0  0  0  2  0  0  0  0  0  0
    7.5385  -17.6745  -21.7011 O   0  0  0  0  0  0  0  0  0  0  0  0
    5.9415  -16.3478  -20.0703 O   0  0  0  0  0  0  0  0  0  0  0  0
    7.9913  -17.5238  -18.9794 O   0  0  0  0  0  0  0  0  0  0  0  0
    8.2273  -15.2487  -20.5659 O   0  0  0  0  0  0  0  0  0  0  0  0
 20  1  1  0
  1 21  2  0
  1 22  1  1
  1 23  1  0
  2  3  1  0
  2  9  1  0
 10  2  1  1
  3  4  2  0
  3  5  1  0
  5  6  1  0
  6  7  2  0
  8  6  1  0
  9  8  2  0
 10 11  1  0
 17 10  1  0
 12 11  1  0
 11 13  1  6
 12 14  1  1
 15 12  1  0
 13 16  2  3
 15 17  1  6
 18 15  1  0
 16 19  2  0
 18 20  1  6
M  CHG  2  16   1  19  -1
M  END
$$$$
