
     RDKit          3D

 23 24  0  0  0  0  0  0  0  0999 V2000
   10.1861  -19.6689  -20.5224 P   0  0  1  0  0  5  0  0  0  0  0  0
   10.2730  -23.9750  -25.2228 N   0  0  0  0  0  0  0  0  0  0  0  0
   10.3275  -25.0079  -26.1062 C   0  0  0  0  0  0  0  0  0  0  0  0
   11.4510  -25.3419  -26.5560 O   0  0  0  0  0  0  0  0  0  0  0  0
    9.1663  -25.5936  -26.4307 N   0  0  0  0  0  0  0  0  0  0  0  0
    7.9670  -25.2330  -25.9475 C   0  0  0  0  0  0  0  0  0  0  0  0
    6.9291  -25.8580  -26.3235 O   0  0  0  0  0  0  0  0  0  0  0  0
    7.9035  -24.1867  -25.0514 C   0  0  0  0  0  0  0  0  0  0  0  0
    9.0926  -23.5755  -24.7094 C   0  0  0  0  0  0  0  0  0  0  0  0
   11.4399  -23.2793  -24.8080 C   0  0  1  0  0  0  0  0  0  0  0  0
   11.5894  -21.8825  -25.2673 C   0  0  1  0  0  0  0  0  0  0  0  0
   11.6478  -21.0794  -24.0008 C   0  0  2  0  0  0  0  0  0  0  0  0
   12.8770  -21.6840  -25.9451 N   0  0  0  0  0  0  0  0  0  0  0  0
   12.7986  -20.2666  -23.9350 O   0  0  0  0  0  0  0  0  0  0  0  0
   11.7969  -22.1101  -22.9125 C   0  0  2  0  0  0  0  0  0  0  0  0
   12.9627  -20.8456  -26.8137 N   0  0  0  0  0  4  0  0  0  0  0  0
   11.4839  -23.3270  -23.4248 O   0  0  0  0  0  0  0  0  0  0  0  0
   10.9437  -21.8127  -21.7084 C   0  0  0  0  0  0  0  0  0  0  0  0
   12.9417  -19.9886  -27.6810 N   0  0  0  0  0  2  0  0  0  0  0  0
   10.3472  -20.5705  -21.9202 O   0  0  0  0  0  0  0  0  0  0  0  0
    8.7328  -19.5407  -20.1878 O   0  0  0  0  0  0  0  0  0  0  0  0
   10.9669  -20.5293  -19.2685 O   0  0  0  0  0  0  0  0  0  0  0  0
   10.9301  -18.1504  -20.7255 O   0  0  0  0  0  0  0  0  0  0  0  0
 20  1  1  0
  1 21  2  0
  1 22  1  1
  1 23  1  0
  2  3  1  0
  2  9  1  0
 10  2  1  1
  3  4  2  0
  3  5  1  0
  5  6  1  0
  6  7  2  0
  8  6  1  0
  9  8  2  0
 10 11  1  0
 17 10  1  0
 12 11  1  0
 11 13  1  1
 12 14  1  6
 15 12  1  0
 13 16  2  3
 15 17  1  0
 15 18  1  1
 16 19  2  0
 18 20  1  0
M  CHG  2  16   1  19  -1
M  END
$$$$
