
     RDKit          3D

 23 24  0  0  0  0  0  0  0  0999 V2000
    8.8975  -18.6966  -20.8285 P   0  0  1  0  0  5  0  0  0  0  0  0
   10.1929  -23.7428  -25.0657 N   0  0  0  0  0  0  0  0  0  0  0  0
   10.6197  -24.6649  -25.9700 C   0  0  0  0  0  0  0  0  0  0  0  0
   11.8346  -24.6636  -26.2866 O   0  0  0  0  0  0  0  0  0  0  0  0
    9.7010  -25.5109  -26.4570 N   0  0  0  0  0  0  0  0  0  0  0  0
    8.4028  -25.5087  -26.1157 C   0  0  0  0  0  0  0  0  0  0  0  0
    7.6184  -26.3568  -26.6398 O   0  0  0  0  0  0  0  0  0  0  0  0
    7.9624  -24.5768  -25.1996 C   0  0  0  0  0  0  0  0  0  0  0  0
    8.8990  -23.7002  -24.6908 C   0  0  0  0  0  0  0  0  0  0  0  0
   11.0775  -22.7954  -24.4846 C   0  0  1  0  0  0  0  0  0  0  0  0
   11.2711  -21.5224  -25.2101 C   0  0  1  0  0  0  0  0  0  0  0  0
   10.8119  -20.4705  -24.2431 C   0  0  2  0  0  0  0  0  0  0  0  0
   12.6958  -21.2663  -25.4572 N   0  0  0  0  0  0  0  0  0  0  0  0
   11.7966  -19.4868  -24.0148 O   0  0  0  0  0  0  0  0  0  0  0  0
   10.6440  -21.2090  -22.9411 C   0  0  2  0  0  0  0  0  0  0  0  0
   13.0214  -20.6583  -26.4518 N   0  0  0  0  0  4  0  0  0  0  0  0
   10.6300  -22.5411  -23.1992 O   0  0  0  0  0  0  0  0  0  0  0  0
    9.3977  -20.8053  -22.1995 C   0  0  0  0  0  0  0  0  0  0  0  0
   13.4366  -20.0119  -27.3988 N   0  0  0  0  0  2  0  0  0  0  0  0
    9.7995  -20.0811  -21.0780 O   0  0  0  0  0  0  0  0  0  0  0  0
    8.6188  -18.0499  -22.1494 O   0  0  0  0  0  0  0  0  0  0  0  0
    7.4149  -19.1745  -20.1245 O   0  0  0  0  0  0  0  0  0  0  0  0
    9.7250  -17.6512  -19.7686 O   0  0  0  0  0  0  0  0  0  0  0  0
 20  1  1  0
  1 21  2  0
  1 22  1  1
  1 23  1  0
  2  3  1  0
  2  9  1  0
 10  2  1  6
  3  4  2  0
  3  5  1  0
  5  6  1  0
  6  7  2  0
  8  6  1  0
  9  8  2  0
 10 11  1  0
 17 10  1  0
 12 11  1  0
 11 13  1  1
 12 14  1  1
 15 12  1  0
 13 16  2  3
 15 17  1  0
 15 18  1  6
 16 19  2  0
 18 20  1  0
M  CHG  2  16   1  19  -1
M  END
$$$$
