
     RDKit          3D

  9  8  0  0  0  0  0  0  0  0999 V2000
   11.9335   -8.5084    4.5640 O   0  0  0  0  0  0  0  0  0  0  0  0
   11.4997   -7.5975    3.8113 C   0  0  0  0  0  0  0  0  0  0  0  0
   12.1163   -7.4860    2.5501 O   0  0  0  0  0  1  0  0  0  0  0  0
   10.4124   -6.6883    4.1909 C   0  0  0  0  0  0  0  0  0  0  0  0
    9.9121   -6.9717    5.5922 C   0  0  0  0  0  0  0  0  0  0  0  0
    8.8677   -5.6235    6.1370 S   0  0  1  0  0  6  0  0  0  0  0  0
    9.6447   -4.3238    6.1392 O   0  0  0  0  0  0  0  0  0  0  0  0
    7.7342   -5.5290    5.1880 O   0  0  0  0  0  0  0  0  0  0  0  0
    8.3337   -5.8929    7.6814 O   0  0  0  0  0  1  0  0  0  0  0  0
  1  2  2  0
  2  3  1  0
  4  2  1  6
  5  4  1  6
  5  6  1  0
  6  7  2  0
  6  8  2  0
  6  9  1  1
M  CHG  2   3  -1   9  -1
M  END
$$$$
