
     RDKit          3D

  9  8  0  0  0  0  0  0  0  0999 V2000
    9.9562  -12.4668    9.1561 O   0  0  0  0  0  0  0  0  0  0  0  0
   10.9857  -12.4485    8.4321 C   0  0  0  0  0  0  0  0  0  0  0  0
   11.2837  -11.2235    7.8045 O   0  0  0  0  0  1  0  0  0  0  0  0
   11.8523  -13.6160    8.2340 C   0  0  0  0  0  0  0  0  0  0  0  0
   11.1391  -14.9056    8.5843 C   0  0  0  0  0  0  0  0  0  0  0  0
   10.1201  -15.4178    7.2042 S   0  0  1  0  0  6  0  0  0  0  0  0
    9.1455  -14.3198    6.8337 O   0  0  0  0  0  0  0  0  0  0  0  0
   11.0242  -15.6926    6.0634 O   0  0  0  0  0  0  0  0  0  0  0  0
    9.2368  -16.7605    7.6041 O   0  0  0  0  0  1  0  0  0  0  0  0
  1  2  2  0
  2  3  1  0
  4  2  1  6
  5  4  1  6
  5  6  1  0
  6  7  2  0
  6  8  2  0
  6  9  1  1
M  CHG  2   3  -1   9  -1
M  END
$$$$
