
     RDKit          3D

  9  8  0  0  0  0  0  0  0  0999 V2000
   13.3413  -30.2972   -6.4528 O   0  0  0  0  0  0  0  0  0  0  0  0
   14.2817  -29.6379   -5.9378 C   0  0  0  0  0  0  0  0  0  0  0  0
   13.9147  -28.4708   -5.2402 O   0  0  0  0  0  1  0  0  0  0  0  0
   15.6912  -30.0346   -6.0345 C   0  0  0  0  0  0  0  0  0  0  0  0
   15.9646  -30.8166   -7.3025 C   0  0  0  0  0  0  0  0  0  0  0  0
   16.6286  -32.4247   -6.8803 S   0  0  1  0  0  6  0  0  0  0  0  0
   15.5421  -33.3076   -6.3034 O   0  0  0  0  0  0  0  0  0  0  0  0
   17.1566  -33.0276   -8.1261 O   0  0  0  0  0  0  0  0  0  0  0  0
   17.8174  -32.2778   -5.7365 O   0  0  0  0  0  1  0  0  0  0  0  0
  1  2  2  0
  2  3  1  0
  4  2  1  6
  5  4  1  6
  5  6  1  0
  6  7  2  0
  6  8  2  0
  6  9  1  1
M  CHG  2   3  -1   9  -1
M  END
$$$$
