
     RDKit          3D

  9  8  0  0  0  0  0  0  0  0999 V2000
    6.7214   -9.3744    8.2260 O   0  0  0  0  0  0  0  0  0  0  0  0
    7.8884   -9.5300    8.6715 C   0  0  0  0  0  0  0  0  0  0  0  0
    8.1303  -10.7228    9.3800 O   0  0  0  0  0  1  0  0  0  0  0  0
    8.9619   -8.5483    8.4789 C   0  0  0  0  0  0  0  0  0  0  0  0
    8.4333   -7.1294    8.5169 C   0  0  0  0  0  0  0  0  0  0  0  0
    9.3635   -6.1152    7.3718 S   0  0  1  0  0  6  0  0  0  0  0  0
   10.8274   -6.0927    7.7581 O   0  0  0  0  0  0  0  0  0  0  0  0
    9.2089   -6.7115    6.0246 O   0  0  0  0  0  0  0  0  0  0  0  0
    8.8115   -4.5539    7.4014 O   0  0  0  0  0  1  0  0  0  0  0  0
  1  2  2  0
  2  3  1  0
  4  2  1  6
  5  4  1  6
  5  6  1  0
  6  7  2  0
  6  8  2  0
  6  9  1  6
M  CHG  2   3  -1   9  -1
M  END
$$$$
