
     RDKit          3D

  9  8  0  0  0  0  0  0  0  0999 V2000
    6.4920    0.4089    1.8276 O   0  0  0  0  0  0  0  0  0  0  0  0
    7.5211    0.4517    1.1040 C   0  0  0  0  0  0  0  0  0  0  0  0
    7.4272    1.2293   -0.0664 O   0  0  0  0  0  1  0  0  0  0  0  0
    8.7664   -0.2516    1.4320 C   0  0  0  0  0  0  0  0  0  0  0  0
    8.4986   -1.5365    2.1880 C   0  0  0  0  0  0  0  0  0  0  0  0
   10.0285   -2.4465    2.3789 S   0  0  1  0  0  6  0  0  0  0  0  0
   10.6239   -2.7651    1.0236 O   0  0  0  0  0  0  0  0  0  0  0  0
   10.9609   -1.5902    3.1481 O   0  0  0  0  0  0  0  0  0  0  0  0
    9.7545   -3.8822    3.1579 O   0  0  0  0  0  1  0  0  0  0  0  0
  1  2  2  0
  2  3  1  0
  4  2  1  6
  5  4  1  6
  5  6  1  0
  6  7  2  0
  6  8  2  0
  6  9  1  1
M  CHG  2   3  -1   9  -1
M  END
$$$$
