
     RDKit          3D

  9  8  0  0  0  0  0  0  0  0999 V2000
   15.9810   -5.5374   -2.4458 O   0  0  0  0  0  0  0  0  0  0  0  0
   14.7932   -5.5813   -2.0315 C   0  0  0  0  0  0  0  0  0  0  0  0
   14.5630   -6.3629   -0.8829 O   0  0  0  0  0  1  0  0  0  0  0  0
   13.6869   -4.8681   -2.6801 C   0  0  0  0  0  0  0  0  0  0  0  0
   13.8962   -4.7566   -4.1761 C   0  0  0  0  0  0  0  0  0  0  0  0
   14.2617   -3.0566   -4.6022 S   0  0  1  0  0  6  0  0  0  0  0  0
   15.5641   -2.6223   -3.9636 O   0  0  0  0  0  0  0  0  0  0  0  0
   14.3772   -2.9841   -6.0772 O   0  0  0  0  0  0  0  0  0  0  0  0
   13.0689   -2.0512   -4.0457 O   0  0  0  0  0  1  0  0  0  0  0  0
  1  2  2  0
  2  3  1  0
  4  2  1  6
  5  4  1  6
  5  6  1  0
  6  7  2  0
  6  8  2  0
  6  9  1  1
M  CHG  2   3  -1   9  -1
M  END
$$$$
