
     RDKit          3D

  9  8  0  0  0  0  0  0  0  0999 V2000
   14.3123  -17.4438    5.4935 O   0  0  0  0  0  0  0  0  0  0  0  0
   13.3694  -16.6213    5.6313 C   0  0  0  0  0  0  0  0  0  0  0  0
   12.1600  -16.9475    4.9877 O   0  0  0  0  0  1  0  0  0  0  0  0
   13.4861  -15.3856    6.4139 C   0  0  0  0  0  0  0  0  0  0  0  0
   14.9324  -14.9718    6.5904 C   0  0  0  0  0  0  0  0  0  0  0  0
   15.0872  -13.2101    6.3116 S   0  0  1  0  0  6  0  0  0  0  0  0
   14.7255  -12.8700    4.8811 O   0  0  0  0  0  0  0  0  0  0  0  0
   14.1548  -12.5304    7.2404 O   0  0  0  0  0  0  0  0  0  0  0  0
   16.6484  -12.7191    6.5659 O   0  0  0  0  0  1  0  0  0  0  0  0
  1  2  2  0
  2  3  1  0
  4  2  1  6
  5  4  1  6
  5  6  1  0
  6  7  2  0
  6  8  2  0
  6  9  1  1
M  CHG  2   3  -1   9  -1
M  END
$$$$
