
     RDKit          3D

  9  8  0  0  0  0  0  0  0  0999 V2000
    3.6431  -17.1317   11.0878 O   0  0  0  0  0  0  0  0  0  0  0  0
    3.9797  -16.5995    9.9979 C   0  0  0  0  0  0  0  0  0  0  0  0
    4.6891  -15.3865   10.0903 O   0  0  0  0  0  1  0  0  0  0  0  0
    3.6718  -17.1833    8.6873 C   0  0  0  0  0  0  0  0  0  0  0  0
    3.0797  -18.5711    8.8203 C   0  0  0  0  0  0  0  0  0  0  0  0
    3.0704  -19.3718    7.2190 S   0  0  1  0  0  6  0  0  0  0  0  0
    4.4653  -19.3870    6.6302 O   0  0  0  0  0  0  0  0  0  0  0  0
    2.5951  -20.7603    7.4202 O   0  0  0  0  0  0  0  0  0  0  0  0
    2.0895  -18.5505    6.1671 O   0  0  0  0  0  1  0  0  0  0  0  0
  1  2  2  0
  2  3  1  0
  4  2  1  6
  5  4  1  6
  5  6  1  0
  6  7  2  0
  6  8  2  0
  6  9  1  6
M  CHG  2   3  -1   9  -1
M  END
$$$$
