
     RDKit          3D

  9  8  0  0  0  0  0  0  0  0999 V2000
    9.9378   -4.4022    2.3519 O   0  0  0  0  0  0  0  0  0  0  0  0
   11.0381   -4.5707    2.9395 C   0  0  0  0  0  0  0  0  0  0  0  0
   12.1556   -3.9376    2.3618 O   0  0  0  0  0  1  0  0  0  0  0  0
   11.1851   -5.3702    4.1611 C   0  0  0  0  0  0  0  0  0  0  0  0
    9.8916   -6.0662    4.5309 C   0  0  0  0  0  0  0  0  0  0  0  0
    9.1143   -5.1981    5.8901 S   0  0  1  0  0  6  0  0  0  0  0  0
    7.7814   -5.8329    6.2264 O   0  0  0  0  0  0  0  0  0  0  0  0
   10.0239   -5.2934    7.0554 O   0  0  0  0  0  0  0  0  0  0  0  0
    8.8302   -3.6186    5.4810 O   0  0  0  0  0  1  0  0  0  0  0  0
  1  2  2  0
  2  3  1  0
  4  2  1  6
  5  4  1  6
  5  6  1  0
  6  7  2  0
  6  8  2  0
  6  9  1  6
M  CHG  2   3  -1   9  -1
M  END
$$$$
