
     RDKit          3D

  9  8  0  0  0  0  0  0  0  0999 V2000
    6.7672   -1.9343    3.5535 O   0  0  0  0  0  0  0  0  0  0  0  0
    7.6927   -2.2637    4.3406 C   0  0  0  0  0  0  0  0  0  0  0  0
    7.4552   -2.0371    5.7101 O   0  0  0  0  0  1  0  0  0  0  0  0
    8.9581   -2.8566    3.8931 C   0  0  0  0  0  0  0  0  0  0  0  0
    9.1453   -2.7079    2.3974 C   0  0  0  0  0  0  0  0  0  0  0  0
   10.5217   -1.6094    2.0746 S   0  0  1  0  0  6  0  0  0  0  0  0
   10.1995   -0.2085    2.5503 O   0  0  0  0  0  0  0  0  0  0  0  0
   11.6917   -2.1347    2.8158 O   0  0  0  0  0  0  0  0  0  0  0  0
   10.8299   -1.5302    0.4492 O   0  0  0  0  0  1  0  0  0  0  0  0
  1  2  2  0
  2  3  1  0
  4  2  1  6
  5  4  1  6
  5  6  1  0
  6  7  2  0
  6  8  2  0
  6  9  1  6
M  CHG  2   3  -1   9  -1
M  END
$$$$
