
     RDKit          3D

  9  8  0  0  0  0  0  0  0  0999 V2000
   25.8669  -18.5405   -1.3197 O   0  0  0  0  0  0  0  0  0  0  0  0
   25.2918  -19.4435   -1.9817 C   0  0  0  0  0  0  0  0  0  0  0  0
   25.2486  -20.7195   -1.3874 O   0  0  0  0  0  1  0  0  0  0  0  0
   24.6857  -19.2153   -3.2984 C   0  0  0  0  0  0  0  0  0  0  0  0
   25.4502  -18.1757   -4.0915 C   0  0  0  0  0  0  0  0  0  0  0  0
   27.0863  -18.7973   -4.4687 S   0  0  1  0  0  6  0  0  0  0  0  0
   27.7794  -19.2563   -3.2032 O   0  0  0  0  0  0  0  0  0  0  0  0
   26.9233  -19.9416   -5.3952 O   0  0  0  0  0  0  0  0  0  0  0  0
   28.0156  -17.6061   -5.1474 O   0  0  0  0  0  1  0  0  0  0  0  0
  1  2  2  0
  2  3  1  0
  4  2  1  6
  5  4  1  6
  5  6  1  0
  6  7  2  0
  6  8  2  0
  6  9  1  6
M  CHG  2   3  -1   9  -1
M  END
$$$$
