
     RDKit          3D

  9  8  0  0  0  0  0  0  0  0999 V2000
   11.4238  -14.0519    9.5291 O   0  0  0  0  0  0  0  0  0  0  0  0
   10.5929  -13.4694   10.2739 C   0  0  0  0  0  0  0  0  0  0  0  0
   10.6759  -13.7636   11.6486 O   0  0  0  0  0  1  0  0  0  0  0  0
    9.5845  -12.5278    9.7742 C   0  0  0  0  0  0  0  0  0  0  0  0
    9.7107  -12.3169    8.2796 C   0  0  0  0  0  0  0  0  0  0  0  0
   10.9360  -11.0520    7.9569 S   0  0  1  0  0  6  0  0  0  0  0  0
   10.5405   -9.7532    8.6272 O   0  0  0  0  0  0  0  0  0  0  0  0
   12.2240  -11.5307    8.5103 O   0  0  0  0  0  0  0  0  0  0  0  0
   11.0546  -10.7629    6.3304 O   0  0  0  0  0  1  0  0  0  0  0  0
  1  2  2  0
  2  3  1  0
  4  2  1  6
  5  4  1  6
  5  6  1  0
  6  7  2  0
  6  8  2  0
  6  9  1  6
M  CHG  2   3  -1   9  -1
M  END
$$$$
