
     RDKit          3D

  9  8  0  0  0  0  0  0  0  0999 V2000
   11.1474   -8.2541    7.7809 O   0  0  0  0  0  0  0  0  0  0  0  0
   10.4924   -8.4501    6.7240 C   0  0  0  0  0  0  0  0  0  0  0  0
    9.8701   -9.7075    6.6015 O   0  0  0  0  0  1  0  0  0  0  0  0
   10.3592   -7.4473    5.6610 C   0  0  0  0  0  0  0  0  0  0  0  0
   10.7786   -6.0717    6.1365 C   0  0  0  0  0  0  0  0  0  0  0  0
    9.3838   -4.9540    6.0338 S   0  0  1  0  0  6  0  0  0  0  0  0
    8.6933   -5.0961    4.6938 O   0  0  0  0  0  0  0  0  0  0  0  0
    8.4460   -5.3139    7.1225 O   0  0  0  0  0  0  0  0  0  0  0  0
    9.8895   -3.3832    6.1750 O   0  0  0  0  0  1  0  0  0  0  0  0
  1  2  2  0
  2  3  1  0
  4  2  1  6
  5  4  1  6
  5  6  1  0
  6  7  2  0
  6  8  2  0
  6  9  1  1
M  CHG  2   3  -1   9  -1
M  END
$$$$
