
     RDKit          3D

  9  8  0  0  0  0  0  0  0  0999 V2000
   20.6019  -13.5125    3.8527 O   0  0  0  0  0  0  0  0  0  0  0  0
   21.0456  -14.2448    2.9300 C   0  0  0  0  0  0  0  0  0  0  0  0
   22.0979  -15.1142    3.2768 O   0  0  0  0  0  1  0  0  0  0  0  0
   20.5180  -14.2243    1.5609 C   0  0  0  0  0  0  0  0  0  0  0  0
   19.5683  -15.3777    1.3120 C   0  0  0  0  0  0  0  0  0  0  0  0
   19.2845  -15.5478   -0.4475 S   0  0  1  0  0  6  0  0  0  0  0  0
   20.5976  -15.7437   -1.1757 O   0  0  0  0  0  0  0  0  0  0  0  0
   18.4194  -16.7340   -0.6446 O   0  0  0  0  0  0  0  0  0  0  0  0
   18.5723  -14.1809   -1.0536 O   0  0  0  0  0  1  0  0  0  0  0  0
  1  2  2  0
  2  3  1  0
  4  2  1  6
  5  4  1  6
  5  6  1  0
  6  7  2  0
  6  8  2  0
  6  9  1  6
M  CHG  2   3  -1   9  -1
M  END
$$$$
