
     RDKit          3D

  9  8  0  0  0  0  0  0  0  0999 V2000
   12.4404   -4.8404   -0.9887 O   0  0  0  0  0  0  0  0  0  0  0  0
   11.9329   -4.4215   -2.0618 C   0  0  0  0  0  0  0  0  0  0  0  0
   11.3367   -3.1466   -2.0123 O   0  0  0  0  0  1  0  0  0  0  0  0
   11.9471   -5.1881   -3.3129 C   0  0  0  0  0  0  0  0  0  0  0  0
   13.2058   -6.0206   -3.4424 C   0  0  0  0  0  0  0  0  0  0  0  0
   14.5787   -4.9614   -3.8879 S   0  0  1  0  0  6  0  0  0  0  0  0
   14.2975   -4.2595   -5.1998 O   0  0  0  0  0  0  0  0  0  0  0  0
   14.7360   -3.9609   -2.8069 O   0  0  0  0  0  0  0  0  0  0  0  0
   15.9598   -5.8547   -4.0815 O   0  0  0  0  0  1  0  0  0  0  0  0
  1  2  2  0
  2  3  1  0
  4  2  1  6
  5  4  1  6
  5  6  1  0
  6  7  2  0
  6  8  2  0
  6  9  1  6
M  CHG  2   3  -1   9  -1
M  END
$$$$
