
     RDKit          3D

  9  8  0  0  0  0  0  0  0  0999 V2000
    7.3113   -9.5206    8.2796 O   0  0  0  0  0  0  0  0  0  0  0  0
    8.3092   -8.8275    8.6087 C   0  0  0  0  0  0  0  0  0  0  0  0
    8.1364   -7.4303    8.5711 O   0  0  0  0  0  1  0  0  0  0  0  0
    9.5934   -9.4075    9.0181 C   0  0  0  0  0  0  0  0  0  0  0  0
    9.5911  -10.9164    8.8859 C   0  0  0  0  0  0  0  0  0  0  0  0
    9.8906  -11.6562   10.4884 S   0  0  1  0  0  6  0  0  0  0  0  0
    8.9660  -11.0557   11.5263 O   0  0  0  0  0  0  0  0  0  0  0  0
    9.6281  -13.1086   10.3625 O   0  0  0  0  0  0  0  0  0  0  0  0
   11.4474  -11.3700   10.9760 O   0  0  0  0  0  1  0  0  0  0  0  0
  1  2  2  0
  2  3  1  0
  4  2  1  6
  5  4  1  6
  5  6  1  0
  6  7  2  0
  6  8  2  0
  6  9  1  1
M  CHG  2   3  -1   9  -1
M  END
$$$$
