
     RDKit          3D

122123  0  0  0  0  0  0  0  0999 V2000
   54.7937   76.1868   99.4830 N   0  0  0  0  0  4  0  0  0  0  0  0
   53.7151   76.8853   98.8138 C   0  0  2  0  0  0  0  0  0  0  0  0
   52.8432   76.0030   98.0207 C   0  0  0  0  0  0  0  0  0  0  0  0
   52.3003   75.0390   98.6298 O   0  0  0  0  0  0  0  0  0  0  0  0
   54.1897   78.0429   98.0020 C   0  0  0  0  0  0  0  0  0  0  0  0
   52.5607   76.1327   96.6493 N   0  0  0  0  0  0  0  0  0  0  0  0
   51.2442   76.3414   96.0929 C   0  0  2  0  0  0  0  0  0  0  0  0
   51.3183   77.3867   95.0509 C   0  0  0  0  0  0  0  0  0  0  0  0
   51.3505   78.5867   95.4166 O   0  0  0  0  0  0  0  0  0  0  0  0
   50.2382   76.6753   97.1831 C   0  0  0  0  0  0  0  0  0  0  0  0
   49.7891   78.0845   97.0370 C   0  0  0  0  0  0  0  0  0  0  0  0
   48.3970   78.1812   96.5056 C   0  0  0  0  0  0  0  0  0  0  0  0
   47.8625   79.4709   96.2632 N   0  0  0  0  0  0  0  0  0  0  0  0
   47.3234   80.3071   97.2615 C   0  0  0  0  0  0  0  0  0  0  0  0
   47.0260   79.8880   98.5660 N   0  0  0  0  0  0  0  0  0  0  0  0
   47.0690   81.5389   96.9458 N   0  0  0  0  0  0  0  0  0  0  0  0
   51.3592   77.1058   93.6400 N   0  0  0  0  0  0  0  0  0  0  0  0
   51.2130   78.0646   92.6028 C   0  0  2  0  0  0  0  0  0  0  0  0
   49.9167   78.6629   92.3847 C   0  0  0  0  0  0  0  0  0  0  0  0
   49.0903   78.6236   93.3562 O   0  0  0  0  0  0  0  0  0  0  0  0
   51.9750   77.7898   91.3146 C   0  0  0  0  0  0  0  0  0  0  0  0
   53.3717   77.4005   91.6519 C   0  0  0  0  0  0  0  0  0  0  0  0
   54.4533   78.2343   91.6287 C   0  0  0  0  0  0  0  0  0  0  0  0
   53.6327   76.0697   92.0149 C   0  0  0  0  0  0  0  0  0  0  0  0
   55.7518   77.8454   91.9345 C   0  0  0  0  0  0  0  0  0  0  0  0
   54.9057   75.6628   92.3204 C   0  0  0  0  0  0  0  0  0  0  0  0
   55.9647   76.5385   92.2824 C   0  0  0  0  0  0  0  0  0  0  0  0
   57.2626   76.1049   92.5958 O   0  0  0  0  0  0  0  0  0  0  0  0
   49.4154   79.3012   91.2162 N   0  0  0  0  0  0  0  0  0  0  0  0
   48.4422   80.3625   91.2956 C   0  0  2  0  0  0  0  0  0  0  0  0
   47.1273   79.7223   91.6661 C   0  0  0  0  0  0  0  0  0  0  0  0
   47.0776   78.4920   91.5265 O   0  0  0  0  0  0  0  0  0  0  0  0
   48.3706   81.2678   90.1370 C   0  0  0  0  0  0  0  0  0  0  0  0
   49.4214   80.9621   89.2734 O   0  0  0  0  0  0  0  0  0  0  0  0
   46.0306   80.4570   92.1319 N   0  0  0  0  0  0  0  0  0  0  0  0
   44.6582   80.3246   91.8576 C   0  0  2  0  0  0  0  0  0  0  0  0
   43.8456   81.5366   91.7837 C   0  0  0  0  0  0  0  0  0  0  0  0
   42.6750   81.4085   91.2977 O   0  0  0  0  0  0  0  0  0  0  0  0
   43.9244   79.1181   92.4295 C   0  0  0  0  0  0  0  0  0  0  0  0
   42.9073   79.4269   93.4555 C   0  0  0  0  0  0  0  0  0  0  0  0
   41.8431   78.3753   93.6579 C   0  0  0  0  0  0  0  0  0  0  0  0
   40.6562   78.8605   94.3063 N   0  0  0  0  0  0  0  0  0  0  0  0
   39.5909   78.0142   94.7077 C   0  0  0  0  0  0  0  0  0  0  0  0
   38.8902   78.4286   95.7192 N   0  0  0  0  0  0  0  0  0  0  0  0
   39.2962   76.7874   94.0538 N   0  0  0  0  0  0  0  0  0  0  0  0
   44.2022   82.8343   92.1840 N   0  0  0  0  0  0  0  0  0  0  0  0
   43.5127   84.0160   91.5911 C   0  0  2  0  0  0  0  0  0  0  0  0
   43.9957   84.1122   90.1981 C   0  0  0  0  0  0  0  0  0  0  0  0
   45.1821   83.6992   89.9938 O   0  0  0  0  0  0  0  0  0  0  0  0
   43.9403   85.1504   92.4461 C   0  0  0  0  0  0  0  0  0  0  0  0
   43.8267   86.5469   92.0510 C   0  0  0  0  0  0  0  0  0  0  0  0
   42.6563   87.0961   91.4157 C   0  0  0  0  0  0  0  0  0  0  0  0
   42.7800   87.7734   90.1949 O   0  0  0  0  0  0  0  0  0  0  0  0
   41.5149   87.0010   91.9080 O   0  0  0  0  0  0  0  0  0  0  0  0
   43.2138   84.6255   89.1321 N   0  0  0  0  0  0  0  0  0  0  0  0
   43.6640   84.7924   87.7897 C   0  0  2  0  0  0  0  0  0  0  0  0
   44.5866   85.9466   87.6934 C   0  0  0  0  0  0  0  0  0  0  0  0
   44.2950   87.0238   87.1886 O   0  0  0  0  0  0  0  0  0  0  0  0
   42.6135   84.7564   86.7336 C   0  0  0  0  0  0  0  0  0  0  0  0
   41.7468   85.9562   86.7449 C   0  0  0  0  0  0  0  0  0  0  0  0
   40.4396   85.8603   87.3812 C   0  0  0  0  0  0  0  0  0  0  0  0
   39.5728   85.0572   87.0107 O   0  0  0  0  0  0  0  0  0  0  0  0
   40.1143   86.7253   88.4983 N   0  0  0  0  0  0  0  0  0  0  0  0
   45.9246   85.8335   88.2105 N   0  0  0  0  0  0  0  0  0  0  0  0
   46.4803   86.8637   89.0293 C   0  0  2  0  0  0  0  0  0  0  0  0
   46.6282   86.3176   90.4335 C   0  0  0  0  0  0  0  0  0  0  0  0
   45.6583   85.7430   90.9403 O   0  0  0  0  0  0  0  0  0  0  0  0
   45.7644   88.1376   88.9538 C   0  0  0  0  0  0  0  0  0  0  0  0
   45.0572   88.5047   87.7029 C   0  0  1  0  0  0  0  0  0  0  0  0
   44.5700   89.9637   87.9306 C   0  0  0  0  0  0  0  0  0  0  0  0
   45.8928   88.5745   86.4634 C   0  0  0  0  0  0  0  0  0  0  0  0
   47.8208   86.4575   91.1403 N   0  0  0  0  0  0  0  0  0  0  0  0
   48.2644   85.9133   92.3497 C   0  0  2  0  0  0  0  0  0  0  0  0
   49.4943   86.2393   93.0060 C   0  0  0  0  0  0  0  0  0  0  0  0
   50.2162   85.2340   93.4089 O   0  0  0  0  0  0  0  0  0  0  0  0
   47.9635   84.4370   92.2954 C   0  0  0  0  0  0  0  0  0  0  0  0
   48.0317   83.7367   91.0059 C   0  0  1  0  0  0  0  0  0  0  0  0
   49.3859   83.1814   90.6590 C   0  0  0  0  0  0  0  0  0  0  0  0
   47.0970   82.4805   91.2009 C   0  0  0  0  0  0  0  0  0  0  0  0
   52.3298   86.9737   92.4600 C   0  0  0  0  0  0  0  0  0  0  0  0
   50.1237   87.4485   93.3349 N   0  0  0  0  0  0  0  0  0  0  0  0
   52.7963   87.6512   91.5362 O   0  0  0  0  0  0  0  0  0  0  0  0
   51.5451   87.6206   93.5714 C   0  0  1  0  0  0  0  0  0  0  0  0
   52.0478   87.3190   94.9091 C   0  0  0  0  0  0  0  0  0  0  0  0
   50.3634   88.7904   96.0861 C   0  0  0  0  0  0  0  0  0  0  0  0
   50.2779   89.6881   97.3118 C   0  0  0  0  0  0  0  0  0  0  0  0
   51.7431   88.2111   96.0498 C   0  0  0  0  0  0  0  0  0  0  0  0
   51.7828   89.1180   93.3348 C   0  0  0  0  0  0  0  0  0  0  0  0
   52.5071   85.5916   92.5267 N   0  0  0  0  0  0  0  0  0  0  0  0
   52.2460   84.7094   91.4245 C   0  0  2  0  0  0  0  0  0  0  0  0
   51.9157   83.3773   91.9623 C   0  0  0  0  0  0  0  0  0  0  0  0
   52.3244   82.3597   91.3715 O   0  0  0  0  0  0  0  0  0  0  0  0
   53.4235   84.6820   90.4777 C   0  0  0  0  0  0  0  0  0  0  0  0
   53.4096   83.5457   89.5408 C   0  0  0  0  0  0  0  0  0  0  0  0
   54.3241   82.5193   89.5088 C   0  0  0  0  0  0  0  0  0  0  0  0
   52.3694   83.5049   88.6037 C   0  0  0  0  0  0  0  0  0  0  0  0
   54.2387   81.4905   88.6039 C   0  0  0  0  0  0  0  0  0  0  0  0
   52.2593   82.4973   87.6927 C   0  0  0  0  0  0  0  0  0  0  0  0
   53.2079   81.4797   87.6974 C   0  0  0  0  0  0  0  0  0  0  0  0
   51.1438   83.2591   93.1340 N   0  0  0  0  0  0  0  0  0  0  0  0
   50.6646   82.0005   93.6222 C   0  0  2  0  0  0  0  0  0  0  0  0
   49.7093   81.3999   92.6959 C   0  0  0  0  0  0  0  0  0  0  0  0
   48.5325   81.7850   92.6241 O   0  0  0  0  0  0  0  0  0  0  0  0
   50.3974   81.9728   95.0687 C   0  0  0  0  0  0  0  0  0  0  0  0
   50.5609   83.2211   95.8419 C   0  0  0  0  0  0  0  0  0  0  0  0
   51.8980   83.7020   96.0552 C   0  0  0  0  0  0  0  0  0  0  0  0
   52.2975   84.3971   96.9793 O   0  0  0  0  0  0  0  0  0  0  0  0
   52.9272   83.3419   95.0823 N   0  0  0  0  0  0  0  0  0  0  0  0
   50.1207   80.3294   91.8159 N   0  0  0  0  0  0  0  0  0  0  0  0
   49.3566   79.1091   91.6546 C   0  0  2  0  0  0  0  0  0  0  0  0
   47.9177   79.2342   91.5905 C   0  0  0  0  0  0  0  0  0  0  0  0
   47.1151   79.1048   92.5006 O   0  0  0  0  0  0  0  0  0  0  0  0
   49.9496   78.0520   92.5117 C   0  0  0  0  0  0  0  0  0  0  0  0
   49.1125   77.0948   93.2164 C   0  0  0  0  0  0  0  0  0  0  0  0
   47.8044   76.7470   92.6523 C   0  0  0  0  0  0  0  0  0  0  0  0
   47.2663   75.4678   92.9111 N   0  0  0  0  0  0  0  0  0  0  0  0
   48.0986   74.3085   93.0340 C   0  0  0  0  0  0  0  0  0  0  0  0
   48.8926   74.1755   94.0436 N   0  0  0  0  0  0  0  0  0  0  0  0
   48.0196   73.3364   92.0147 N   0  0  0  0  0  0  0  0  0  0  0  0
   46.9097   82.2902   97.6417 H   0  0  0  0  0  0  0  0  0  0  0  0
   39.2607   79.2434   96.2651 H   0  0  0  0  0  0  0  0  0  0  0  0
   49.6806   73.5025   93.9614 H   0  0  0  0  0  0  0  0  0  0  0  0
  2  1  1  0
  3  2  1  0
  2  5  1  6
  3  4  2  0
  6  3  1  0
  7  6  1  0
  8  7  1  0
  7 10  1  1
  8  9  2  0
 17  8  1  0
 10 11  1  0
 11 12  1  0
 12 13  1  0
 13 14  1  0
 14 15  1  0
 14 16  2  0
 18 17  1  0
 19 18  1  0
 18 21  1  6
 19 20  2  0
 29 19  1  0
 21 22  1  0
 22 23  2  0
 22 24  1  0
 23 25  1  0
 24 26  2  0
 25 27  2  0
 26 27  1  0
 27 28  1  0
 30 29  1  0
 31 30  1  0
 30 33  1  6
 31 32  2  0
 35 31  1  0
 33 34  1  0
 36 35  1  0
 37 36  1  0
 36 39  1  1
 37 38  2  0
 46 37  1  0
 39 40  1  0
 40 41  1  0
 41 42  1  0
 42 43  1  0
 43 44  2  0
 43 45  1  0
 47 46  1  0
 48 47  1  0
 47 50  1  1
 48 49  2  0
 55 48  1  0
 50 51  1  0
 51 52  1  0
 52 53  1  0
 52 54  2  0
 56 55  1  0
 57 56  1  0
 56 59  1  6
 57 58  2  0
 64 57  1  0
 59 60  1  0
 60 61  1  0
 61 62  2  0
 61 63  1  0
 65 64  1  0
 66 65  1  0
 65 68  1  1
 66 67  2  0
 72 66  1  0
 68 69  1  0
 69 70  1  1
 69 71  1  0
 73 72  1  0
 74 73  1  0
 73 76  1  6
 74 75  2  0
 81 74  1  0
 76 77  1  0
 77 78  1  1
 77 79  1  0
 80 82  2  0
 83 80  1  0
 80 89  1  0
 83 81  1  0
 84 83  1  0
 83 88  1  6
 87 84  1  0
 85 86  1  0
 85 87  1  0
 89 90  1  0
 90 91  1  0
 90 93  1  6
 91 92  2  0
 91100  1  0
 93 94  1  0
 94 95  2  0
 94 96  1  0
 95 97  1  0
 96 98  2  0
 97 99  2  0
 98 99  1  0
100101  1  0
101102  1  0
101104  1  1
102103  2  0
102109  1  0
104105  1  0
105106  1  0
106107  2  0
106108  1  0
109110  1  0
110111  1  0
110113  1  1
111112  2  0
113114  1  0
114115  1  0
115116  1  0
116117  1  0
117118  2  0
117119  1  0
 16120  1  0
 44121  1  0
118122  1  0
M  CHG  1   1   1
M  END
$$$$
