
     RDKit          3D

122123  0  0  0  0  0  0  0  0999 V2000
   51.4792   71.3441  103.0037 N   0  0  0  0  0  4  0  0  0  0  0  0
   50.1048   71.6371  102.6507 C   0  0  2  0  0  0  0  0  0  0  0  0
   49.8151   73.0772  102.5524 C   0  0  0  0  0  0  0  0  0  0  0  0
   49.2001   73.6036  103.5217 O   0  0  0  0  0  0  0  0  0  0  0  0
   49.1201   70.9497  103.5350 C   0  0  0  0  0  0  0  0  0  0  0  0
   50.1576   73.9196  101.4797 N   0  0  0  0  0  0  0  0  0  0  0  0
   50.0460   75.3596  101.4916 C   0  0  2  0  0  0  0  0  0  0  0  0
   48.8772   75.7620  100.6817 C   0  0  0  0  0  0  0  0  0  0  0  0
   48.5690   75.0533   99.6930 O   0  0  0  0  0  0  0  0  0  0  0  0
   51.3358   76.0104  101.0174 C   0  0  0  0  0  0  0  0  0  0  0  0
   52.3738   75.8960  102.0748 C   0  0  0  0  0  0  0  0  0  0  0  0
   53.7525   76.0943  101.5365 C   0  0  0  0  0  0  0  0  0  0  0  0
   53.9599   75.9115  100.1468 N   0  0  0  0  0  0  0  0  0  0  0  0
   55.2136   76.0146   99.5111 C   0  0  0  0  0  0  0  0  0  0  0  0
   56.4119   76.3157  100.1737 N   0  0  0  0  0  0  0  0  0  0  0  0
   55.2566   75.8377   98.2271 N   0  0  0  0  0  0  0  0  0  0  0  0
   48.0702   76.9195  100.9651 N   0  0  0  0  0  0  0  0  0  0  0  0
   46.9810   77.3791  100.1782 C   0  0  2  0  0  0  0  0  0  0  0  0
   47.2318   77.8010   98.8199 C   0  0  0  0  0  0  0  0  0  0  0  0
   48.4461   77.7975   98.4277 O   0  0  0  0  0  0  0  0  0  0  0  0
   45.9421   78.2313  100.8926 C   0  0  0  0  0  0  0  0  0  0  0  0
   45.0613   78.8724   99.8781 C   0  0  0  0  0  0  0  0  0  0  0  0
   44.1861   78.2151   99.0612 C   0  0  0  0  0  0  0  0  0  0  0  0
   45.1223   80.2655   99.7149 C   0  0  0  0  0  0  0  0  0  0  0  0
   43.3828   78.8333   98.1108 C   0  0  0  0  0  0  0  0  0  0  0  0
   44.3397   80.8974   98.7835 C   0  0  0  0  0  0  0  0  0  0  0  0
   43.4729   80.1933   97.9817 C   0  0  0  0  0  0  0  0  0  0  0  0
   42.6802   80.8557   97.0310 O   0  0  0  0  0  0  0  0  0  0  0  0
   46.3005   78.2327   97.8349 N   0  0  0  0  0  0  0  0  0  0  0  0
   46.7312   78.6634   96.5277 C   0  0  2  0  0  0  0  0  0  0  0  0
   45.4877   79.0373   95.7596 C   0  0  0  0  0  0  0  0  0  0  0  0
   44.5166   79.3735   96.4521 O   0  0  0  0  0  0  0  0  0  0  0  0
   47.6374   77.7531   95.8084 C   0  0  0  0  0  0  0  0  0  0  0  0
   46.9307   76.5976   95.4788 O   0  0  0  0  0  0  0  0  0  0  0  0
   45.4216   79.0060   94.3617 N   0  0  0  0  0  0  0  0  0  0  0  0
   44.4056   79.4241   93.4845 C   0  0  2  0  0  0  0  0  0  0  0  0
   44.3422   80.8375   93.1201 C   0  0  0  0  0  0  0  0  0  0  0  0
   44.8926   81.1669   92.0194 O   0  0  0  0  0  0  0  0  0  0  0  0
   43.0448   78.7466   93.5866 C   0  0  0  0  0  0  0  0  0  0  0  0
   43.0664   77.2722   93.4965 C   0  0  0  0  0  0  0  0  0  0  0  0
   41.8467   76.6377   92.8727 C   0  0  0  0  0  0  0  0  0  0  0  0
   41.0405   77.5474   92.1064 N   0  0  0  0  0  0  0  0  0  0  0  0
   40.0526   77.1188   91.1831 C   0  0  0  0  0  0  0  0  0  0  0  0
   39.8752   75.8352   91.1005 N   0  0  0  0  0  0  0  0  0  0  0  0
   39.2962   78.0248   90.3915 N   0  0  0  0  0  0  0  0  0  0  0  0
   43.7462   81.8838   93.8421 N   0  0  0  0  0  0  0  0  0  0  0  0
   43.8103   83.2809   93.3251 C   0  0  2  0  0  0  0  0  0  0  0  0
   44.8614   83.9582   94.1122 C   0  0  0  0  0  0  0  0  0  0  0  0
   44.9331   85.2208   93.9689 O   0  0  0  0  0  0  0  0  0  0  0  0
   42.4492   83.8187   93.5678 C   0  0  0  0  0  0  0  0  0  0  0  0
   41.7387   83.6781   94.8306 C   0  0  0  0  0  0  0  0  0  0  0  0
   42.0793   82.6917   95.8237 C   0  0  0  0  0  0  0  0  0  0  0  0
   42.3840   81.3821   95.4282 O   0  0  0  0  0  0  0  0  0  0  0  0
   42.1144   82.9474   97.0434 O   0  0  0  0  0  0  0  0  0  0  0  0
   45.7499   83.2763   94.9821 N   0  0  0  0  0  0  0  0  0  0  0  0
   46.7855   83.8911   95.7451 C   0  0  2  0  0  0  0  0  0  0  0  0
   47.5484   84.8446   94.9077 C   0  0  0  0  0  0  0  0  0  0  0  0
   47.8284   85.9886   95.2439 O   0  0  0  0  0  0  0  0  0  0  0  0
   47.6327   82.9771   96.5619 C   0  0  0  0  0  0  0  0  0  0  0  0
   49.0155   82.8624   96.0463 C   0  0  0  0  0  0  0  0  0  0  0  0
   49.3366   83.5016   94.7771 C   0  0  0  0  0  0  0  0  0  0  0  0
   48.8573   83.1258   93.6988 O   0  0  0  0  0  0  0  0  0  0  0  0
   50.2485   84.6284   94.7456 N   0  0  0  0  0  0  0  0  0  0  0  0
   48.0041   84.4405   93.6041 N   0  0  0  0  0  0  0  0  0  0  0  0
   48.8467   85.2942   92.8282 C   0  0  2  0  0  0  0  0  0  0  0  0
   49.1859   84.5735   91.5408 C   0  0  0  0  0  0  0  0  0  0  0  0
   50.0434   85.0714   90.8030 O   0  0  0  0  0  0  0  0  0  0  0  0
   50.0102   85.8045   93.5541 C   0  0  0  0  0  0  0  0  0  0  0  0
   51.0134   86.6295   92.8380 C   0  0  1  0  0  0  0  0  0  0  0  0
   50.2499   87.9188   92.4225 C   0  0  0  0  0  0  0  0  0  0  0  0
   52.1707   87.1208   93.6497 C   0  0  0  0  0  0  0  0  0  0  0  0
   48.5515   83.3832   91.1914 N   0  0  0  0  0  0  0  0  0  0  0  0
   48.3963   82.7269   89.9662 C   0  0  2  0  0  0  0  0  0  0  0  0
   47.9283   83.3290   88.7546 C   0  0  0  0  0  0  0  0  0  0  0  0
   48.6666   83.1465   87.6983 O   0  0  0  0  0  0  0  0  0  0  0  0
   47.7793   81.3853   90.2700 C   0  0  0  0  0  0  0  0  0  0  0  0
   48.3564   80.5533   91.3342 C   0  0  1  0  0  0  0  0  0  0  0  0
   47.4787   79.4238   91.7997 C   0  0  0  0  0  0  0  0  0  0  0  0
   49.6026   79.8667   90.6522 C   0  0  0  0  0  0  0  0  0  0  0  0
   48.0372   85.2213   86.6669 C   0  0  0  0  0  0  0  0  0  0  0  0
   46.8098   84.1112   88.4329 N   0  0  0  0  0  0  0  0  0  0  0  0
   48.5570   86.3390   86.7708 O   0  0  0  0  0  0  0  0  0  0  0  0
   46.6771   84.9455   87.2530 C   0  0  1  0  0  0  0  0  0  0  0  0
   45.8216   86.1249   87.3535 C   0  0  0  0  0  0  0  0  0  0  0  0
   44.5171   88.0429   86.3498 C   0  0  0  0  0  0  0  0  0  0  0  0
   43.2709   87.6871   87.1471 C   0  0  0  0  0  0  0  0  0  0  0  0
   45.2898   86.7787   86.1371 C   0  0  0  0  0  0  0  0  0  0  0  0
   46.0349   84.0185   86.2123 C   0  0  0  0  0  0  0  0  0  0  0  0
   48.6756   84.1660   86.0152 N   0  0  0  0  0  0  0  0  0  0  0  0
   49.9777   84.2790   85.4208 C   0  0  2  0  0  0  0  0  0  0  0  0
   49.8136   84.6918   84.0152 C   0  0  0  0  0  0  0  0  0  0  0  0
   48.6846   84.6458   83.4912 O   0  0  0  0  0  0  0  0  0  0  0  0
   50.7395   82.9818   85.5639 C   0  0  0  0  0  0  0  0  0  0  0  0
   50.8100   82.4805   86.9469 C   0  0  0  0  0  0  0  0  0  0  0  0
   49.8864   81.6618   87.5531 C   0  0  0  0  0  0  0  0  0  0  0  0
   51.9191   82.8682   87.7095 C   0  0  0  0  0  0  0  0  0  0  0  0
   50.0273   81.2330   88.8495 C   0  0  0  0  0  0  0  0  0  0  0  0
   52.0853   82.4594   88.9990 C   0  0  0  0  0  0  0  0  0  0  0  0
   51.1250   81.6313   89.5712 C   0  0  0  0  0  0  0  0  0  0  0  0
   50.9260   85.1331   83.2733 N   0  0  0  0  0  0  0  0  0  0  0  0
   50.8616   85.4048   81.8683 C   0  0  2  0  0  0  0  0  0  0  0  0
   50.7683   84.1718   81.0922 C   0  0  0  0  0  0  0  0  0  0  0  0
   51.5437   83.2208   81.2737 O   0  0  0  0  0  0  0  0  0  0  0  0
   51.7508   86.4870   81.4182 C   0  0  0  0  0  0  0  0  0  0  0  0
   51.9196   87.6705   82.2862 C   0  0  0  0  0  0  0  0  0  0  0  0
   52.0148   87.4494   83.7028 C   0  0  0  0  0  0  0  0  0  0  0  0
   51.1788   87.7211   84.5536 O   0  0  0  0  0  0  0  0  0  0  0  0
   53.2306   86.8312   84.2273 N   0  0  0  0  0  0  0  0  0  0  0  0
   49.7454   84.0211   80.0820 N   0  0  0  0  0  0  0  0  0  0  0  0
   49.2822   82.7279   79.6215 C   0  0  2  0  0  0  0  0  0  0  0  0
   48.4597   82.7057   78.4328 C   0  0  0  0  0  0  0  0  0  0  0  0
   47.9323   83.6523   77.8712 O   0  0  0  0  0  0  0  0  0  0  0  0
   48.8729   81.9163   80.7952 C   0  0  0  0  0  0  0  0  0  0  0  0
   49.8276   81.0786   81.5026 C   0  0  0  0  0  0  0  0  0  0  0  0
   49.8368   79.6362   81.2388 C   0  0  0  0  0  0  0  0  0  0  0  0
   50.9084   78.8583   81.7284 N   0  0  0  0  0  0  0  0  0  0  0  0
   51.0262   77.4621   81.4314 C   0  0  0  0  0  0  0  0  0  0  0  0
   50.9992   77.0471   80.2089 N   0  0  0  0  0  0  0  0  0  0  0  0
   51.1633   76.5723   82.5176 N   0  0  0  0  0  0  0  0  0  0  0  0
   56.0740   75.4420   97.7279 H   0  0  0  0  0  0  0  0  0  0  0  0
   40.6719   75.2158   91.3847 H   0  0  0  0  0  0  0  0  0  0  0  0
   51.7598   77.3547   79.5706 H   0  0  0  0  0  0  0  0  0  0  0  0
  2  1  1  0
  3  2  1  0
  2  5  1  1
  3  4  2  0
  6  3  1  0
  7  6  1  0
  8  7  1  0
  7 10  1  6
  8  9  2  0
 17  8  1  0
 10 11  1  0
 11 12  1  0
 12 13  1  0
 13 14  1  0
 14 15  1  0
 14 16  2  0
 18 17  1  0
 19 18  1  0
 18 21  1  1
 19 20  2  0
 29 19  1  0
 21 22  1  0
 22 23  2  0
 22 24  1  0
 23 25  1  0
 24 26  2  0
 25 27  2  0
 26 27  1  0
 27 28  1  0
 30 29  1  0
 31 30  1  0
 30 33  1  6
 31 32  2  0
 35 31  1  0
 33 34  1  0
 36 35  1  0
 37 36  1  0
 36 39  1  1
 37 38  2  0
 46 37  1  0
 39 40  1  0
 40 41  1  0
 41 42  1  0
 42 43  1  0
 43 44  2  0
 43 45  1  0
 47 46  1  0
 48 47  1  0
 47 50  1  1
 48 49  2  0
 55 48  1  0
 50 51  1  0
 51 52  1  0
 52 53  1  0
 52 54  2  0
 56 55  1  0
 57 56  1  0
 56 59  1  6
 57 58  2  0
 64 57  1  0
 59 60  1  0
 60 61  1  0
 61 62  2  0
 61 63  1  0
 65 64  1  0
 66 65  1  0
 65 68  1  1
 66 67  2  0
 72 66  1  0
 68 69  1  0
 69 70  1  1
 69 71  1  0
 73 72  1  0
 74 73  1  0
 73 76  1  1
 74 75  2  0
 81 74  1  0
 76 77  1  0
 77 78  1  6
 77 79  1  0
 80 82  2  0
 83 80  1  0
 80 89  1  0
 83 81  1  0
 84 83  1  0
 83 88  1  6
 87 84  1  0
 85 86  1  0
 85 87  1  0
 89 90  1  0
 90 91  1  0
 90 93  1  6
 91 92  2  0
 91100  1  0
 93 94  1  0
 94 95  2  0
 94 96  1  0
 95 97  1  0
 96 98  2  0
 97 99  2  0
 98 99  1  0
100101  1  0
101102  1  0
101104  1  6
102103  2  0
102109  1  0
104105  1  0
105106  1  0
106107  2  0
106108  1  0
109110  1  0
110111  1  0
110113  1  1
111112  2  0
113114  1  0
114115  1  0
115116  1  0
116117  1  0
117118  2  0
117119  1  0
 16120  1  0
 44121  1  0
118122  1  0
M  CHG  1   1   1
M  END
$$$$
