
     RDKit          3D

122123  0  0  0  0  0  0  0  0999 V2000
   64.2229   74.5452   92.1322 N   0  0  0  0  0  4  0  0  0  0  0  0
   64.3496   73.8834   93.4148 C   0  0  2  0  0  0  0  0  0  0  0  0
   63.1640   73.0965   93.7924 C   0  0  0  0  0  0  0  0  0  0  0  0
   63.2612   71.8403   93.7065 O   0  0  0  0  0  0  0  0  0  0  0  0
   64.7487   74.8137   94.5101 C   0  0  0  0  0  0  0  0  0  0  0  0
   61.9343   73.6134   94.2376 N   0  0  0  0  0  0  0  0  0  0  0  0
   60.7888   72.8160   94.6095 C   0  0  2  0  0  0  0  0  0  0  0  0
   59.6497   73.7107   94.9024 C   0  0  0  0  0  0  0  0  0  0  0  0
   59.6280   74.2992   96.0105 O   0  0  0  0  0  0  0  0  0  0  0  0
   61.1205   71.8945   95.7727 C   0  0  0  0  0  0  0  0  0  0  0  0
   59.8767   71.2575   96.2786 C   0  0  0  0  0  0  0  0  0  0  0  0
   60.1565   70.2060   97.3013 C   0  0  0  0  0  0  0  0  0  0  0  0
   60.0167   68.8486   96.9196 N   0  0  0  0  0  0  0  0  0  0  0  0
   59.1194   67.9434   97.5211 C   0  0  0  0  0  0  0  0  0  0  0  0
   58.5539   68.1198   98.7919 N   0  0  0  0  0  0  0  0  0  0  0  0
   58.8128   66.8688   96.8630 N   0  0  0  0  0  0  0  0  0  0  0  0
   58.5652   73.9480   93.9865 N   0  0  0  0  0  0  0  0  0  0  0  0
   57.3993   74.7086   94.2670 C   0  0  2  0  0  0  0  0  0  0  0  0
   56.8834   75.5939   93.2491 C   0  0  0  0  0  0  0  0  0  0  0  0
   57.4689   75.5759   92.1155 O   0  0  0  0  0  0  0  0  0  0  0  0
   57.2830   75.2751   95.6746 C   0  0  0  0  0  0  0  0  0  0  0  0
   58.4971   76.0830   95.9732 C   0  0  0  0  0  0  0  0  0  0  0  0
   59.7835   75.7039   95.7142 C   0  0  0  0  0  0  0  0  0  0  0  0
   58.3400   77.3373   96.5839 C   0  0  0  0  0  0  0  0  0  0  0  0
   60.9037   76.4693   96.0145 C   0  0  0  0  0  0  0  0  0  0  0  0
   59.4304   78.1099   96.8899 C   0  0  0  0  0  0  0  0  0  0  0  0
   60.7080   77.6859   96.6110 C   0  0  0  0  0  0  0  0  0  0  0  0
   61.8139   78.4884   96.9331 O   0  0  0  0  0  0  0  0  0  0  0  0
   55.7945   76.5060   93.3303 N   0  0  0  0  0  0  0  0  0  0  0  0
   54.5311   76.2304   92.6920 C   0  0  2  0  0  0  0  0  0  0  0  0
   53.5822   77.3260   93.1109 C   0  0  0  0  0  0  0  0  0  0  0  0
   52.7300   76.9989   93.9490 O   0  0  0  0  0  0  0  0  0  0  0  0
   53.9987   74.8687   92.8636 C   0  0  0  0  0  0  0  0  0  0  0  0
   52.7932   74.7763   92.1696 O   0  0  0  0  0  0  0  0  0  0  0  0
   53.6469   78.6246   92.5925 N   0  0  0  0  0  0  0  0  0  0  0  0
   52.7853   79.7221   92.7647 C   0  0  2  0  0  0  0  0  0  0  0  0
   51.3516   79.4665   92.8826 C   0  0  0  0  0  0  0  0  0  0  0  0
   50.9679   78.2694   92.6761 O   0  0  0  0  0  0  0  0  0  0  0  0
   53.1282   81.0235   92.0507 C   0  0  0  0  0  0  0  0  0  0  0  0
   54.3766   81.6765   92.4954 C   0  0  0  0  0  0  0  0  0  0  0  0
   54.7913   82.8971   91.7096 C   0  0  0  0  0  0  0  0  0  0  0  0
   53.7055   83.7794   91.3820 N   0  0  0  0  0  0  0  0  0  0  0  0
   53.2695   84.8232   92.2379 C   0  0  0  0  0  0  0  0  0  0  0  0
   52.7124   85.8392   91.6518 N   0  0  0  0  0  0  0  0  0  0  0  0
   53.4249   84.7747   93.6496 N   0  0  0  0  0  0  0  0  0  0  0  0
   50.3388   80.3872   93.1955 N   0  0  0  0  0  0  0  0  0  0  0  0
   48.9072   80.0200   92.9988 C   0  0  2  0  0  0  0  0  0  0  0  0
   48.1315   81.2484   93.2673 C   0  0  0  0  0  0  0  0  0  0  0  0
   47.1053   81.1045   94.0063 O   0  0  0  0  0  0  0  0  0  0  0  0
   48.6713   78.9418   93.9900 C   0  0  0  0  0  0  0  0  0  0  0  0
   47.8881   79.1186   95.2044 C   0  0  0  0  0  0  0  0  0  0  0  0
   47.1713   80.3293   95.5135 C   0  0  0  0  0  0  0  0  0  0  0  0
   46.3938   80.9494   94.5258 O   0  0  0  0  0  0  0  0  0  0  0  0
   47.2104   80.8675   96.6373 O   0  0  0  0  0  0  0  0  0  0  0  0
   48.4799   82.5228   92.7519 N   0  0  0  0  0  0  0  0  0  0  0  0
   47.6697   83.6928   92.8373 C   0  0  2  0  0  0  0  0  0  0  0  0
   47.0549   83.9930   91.5242 C   0  0  0  0  0  0  0  0  0  0  0  0
   46.5241   85.0590   91.2375 O   0  0  0  0  0  0  0  0  0  0  0  0
   48.2837   84.8712   93.5116 C   0  0  0  0  0  0  0  0  0  0  0  0
   49.3441   85.5090   92.6994 C   0  0  0  0  0  0  0  0  0  0  0  0
   50.3234   86.3494   93.3758 C   0  0  0  0  0  0  0  0  0  0  0  0
   51.1575   87.0298   92.7634 O   0  0  0  0  0  0  0  0  0  0  0  0
   50.3428   86.4144   94.8241 N   0  0  0  0  0  0  0  0  0  0  0  0
   47.0559   82.9907   90.4918 N   0  0  0  0  0  0  0  0  0  0  0  0
   46.1765   83.0963   89.3710 C   0  0  2  0  0  0  0  0  0  0  0  0
   44.7910   82.6855   89.8221 C   0  0  0  0  0  0  0  0  0  0  0  0
   43.8332   82.9703   89.0947 O   0  0  0  0  0  0  0  0  0  0  0  0
   46.6485   82.3992   88.1742 C   0  0  0  0  0  0  0  0  0  0  0  0
   47.8826   81.5795   88.2455 C   0  0  1  0  0  0  0  0  0  0  0  0
   48.2526   81.5417   89.7553 C   0  0  0  0  0  0  0  0  0  0  0  0
   47.7485   80.1416   87.8532 C   0  0  0  0  0  0  0  0  0  0  0  0
   44.5947   82.0072   91.0232 N   0  0  0  0  0  0  0  0  0  0  0  0
   43.4374   81.6682   91.7314 C   0  0  2  0  0  0  0  0  0  0  0  0
   42.3520   82.5551   92.0228 C   0  0  0  0  0  0  0  0  0  0  0  0
   41.9084   82.5400   93.2464 O   0  0  0  0  0  0  0  0  0  0  0  0
   43.8778   80.8232   92.8997 C   0  0  0  0  0  0  0  0  0  0  0  0
   44.1178   79.3880   92.6985 C   0  0  1  0  0  0  0  0  0  0  0  0
   42.8875   78.5781   92.3934 C   0  0  0  0  0  0  0  0  0  0  0  0
   44.9999   79.3253   91.3919 C   0  0  0  0  0  0  0  0  0  0  0  0
   41.8904   85.7731   90.5540 C   0  0  0  0  0  0  0  0  0  0  0  0
   41.6202   83.4724   91.2550 N   0  0  0  0  0  0  0  0  0  0  0  0
   41.5833   86.9713   90.5396 O   0  0  0  0  0  0  0  0  0  0  0  0
   41.3545   84.8519   91.6187 C   0  0  1  0  0  0  0  0  0  0  0  0
   41.6787   85.2647   92.9817 C   0  0  0  0  0  0  0  0  0  0  0  0
   41.0519   85.9953   95.3185 C   0  0  0  0  0  0  0  0  0  0  0  0
   41.0610   87.5166   95.3521 C   0  0  0  0  0  0  0  0  0  0  0  0
   40.6062   85.5794   93.9514 C   0  0  0  0  0  0  0  0  0  0  0  0
   39.8344   84.9917   91.4622 C   0  0  0  0  0  0  0  0  0  0  0  0
   42.7440   85.2166   89.6012 N   0  0  0  0  0  0  0  0  0  0  0  0
   43.2881   85.9604   88.5003 C   0  0  2  0  0  0  0  0  0  0  0  0
   43.9707   85.0190   87.5944 C   0  0  0  0  0  0  0  0  0  0  0  0
   45.0205   84.4621   87.9675 O   0  0  0  0  0  0  0  0  0  0  0  0
   44.2011   87.0557   89.0010 C   0  0  0  0  0  0  0  0  0  0  0  0
   45.6067   86.8946   88.5917 C   0  0  0  0  0  0  0  0  0  0  0  0
   46.1950   87.4740   87.4921 C   0  0  0  0  0  0  0  0  0  0  0  0
   46.4161   86.0837   89.3974 C   0  0  0  0  0  0  0  0  0  0  0  0
   47.5173   87.2773   87.1803 C   0  0  0  0  0  0  0  0  0  0  0  0
   47.7315   85.8691   89.1125 C   0  0  0  0  0  0  0  0  0  0  0  0
   48.2842   86.4762   87.9893 C   0  0  0  0  0  0  0  0  0  0  0  0
   43.4386   84.7541   86.3180 N   0  0  0  0  0  0  0  0  0  0  0  0
   42.2440   85.3776   85.8320 C   0  0  2  0  0  0  0  0  0  0  0  0
   41.2849   85.6014   86.9097 C   0  0  0  0  0  0  0  0  0  0  0  0
   40.9113   86.7396   87.2310 O   0  0  0  0  0  0  0  0  0  0  0  0
   41.7788   84.8677   84.5328 C   0  0  0  0  0  0  0  0  0  0  0  0
   42.7117   84.8946   83.3875 C   0  0  0  0  0  0  0  0  0  0  0  0
   42.1450   84.9047   82.0671 C   0  0  0  0  0  0  0  0  0  0  0  0
   42.7424   85.0078   81.0046 O   0  0  0  0  0  0  0  0  0  0  0  0
   40.6952   84.7788   81.9344 N   0  0  0  0  0  0  0  0  0  0  0  0
   40.7285   84.4818   87.6353 N   0  0  0  0  0  0  0  0  0  0  0  0
   39.4748   83.8548   87.2692 C   0  0  2  0  0  0  0  0  0  0  0  0
   39.1019   82.6558   87.9858 C   0  0  0  0  0  0  0  0  0  0  0  0
   38.0275   82.3990   88.5046 O   0  0  0  0  0  0  0  0  0  0  0  0
   39.3348   83.8831   85.7916 C   0  0  0  0  0  0  0  0  0  0  0  0
   39.2588   85.1402   85.0653 C   0  0  0  0  0  0  0  0  0  0  0  0
   39.1216   85.1083   83.6058 C   0  0  0  0  0  0  0  0  0  0  0  0
   39.9292   85.9627   82.8242 N   0  0  0  0  0  0  0  0  0  0  0  0
   39.3649   86.8907   81.8903 C   0  0  0  0  0  0  0  0  0  0  0  0
   39.1311   86.5341   80.6715 N   0  0  0  0  0  0  0  0  0  0  0  0
   39.0869   88.1945   82.3519 N   0  0  0  0  0  0  0  0  0  0  0  0
   59.1263   66.6786   95.8937 H   0  0  0  0  0  0  0  0  0  0  0  0
   52.7100   85.8534   90.6035 H   0  0  0  0  0  0  0  0  0  0  0  0
   38.7804   85.5704   80.5019 H   0  0  0  0  0  0  0  0  0  0  0  0
  2  1  1  0
  3  2  1  0
  2  5  1  1
  3  4  2  0
  6  3  1  0
  7  6  1  0
  8  7  1  0
  7 10  1  1
  8  9  2  0
 17  8  1  0
 10 11  1  0
 11 12  1  0
 12 13  1  0
 13 14  1  0
 14 15  1  0
 14 16  2  0
 18 17  1  0
 19 18  1  0
 18 21  1  1
 19 20  2  0
 29 19  1  0
 21 22  1  0
 22 23  2  0
 22 24  1  0
 23 25  1  0
 24 26  2  0
 25 27  2  0
 26 27  1  0
 27 28  1  0
 30 29  1  0
 31 30  1  0
 30 33  1  1
 31 32  2  0
 35 31  1  0
 33 34  1  0
 36 35  1  0
 37 36  1  0
 36 39  1  6
 37 38  2  0
 46 37  1  0
 39 40  1  0
 40 41  1  0
 41 42  1  0
 42 43  1  0
 43 44  2  0
 43 45  1  0
 47 46  1  0
 48 47  1  0
 47 50  1  1
 48 49  2  0
 55 48  1  0
 50 51  1  0
 51 52  1  0
 52 53  1  0
 52 54  2  0
 56 55  1  0
 57 56  1  0
 56 59  1  6
 57 58  2  0
 64 57  1  0
 59 60  1  0
 60 61  1  0
 61 62  2  0
 61 63  1  0
 65 64  1  0
 66 65  1  0
 65 68  1  6
 66 67  2  0
 72 66  1  0
 68 69  1  0
 69 70  1  1
 69 71  1  0
 73 72  1  0
 74 73  1  0
 73 76  1  1
 74 75  2  0
 81 74  1  0
 76 77  1  0
 77 78  1  6
 77 79  1  0
 80 82  2  0
 83 80  1  0
 80 89  1  0
 83 81  1  0
 84 83  1  0
 83 88  1  1
 87 84  1  0
 85 86  1  0
 85 87  1  0
 89 90  1  0
 90 91  1  0
 90 93  1  1
 91 92  2  0
 91100  1  0
 93 94  1  0
 94 95  2  0
 94 96  1  0
 95 97  1  0
 96 98  2  0
 97 99  2  0
 98 99  1  0
100101  1  0
101102  1  0
101104  1  6
102103  2  0
102109  1  0
104105  1  0
105106  1  0
106107  2  0
106108  1  0
109110  1  0
110111  1  0
110113  1  6
111112  2  0
113114  1  0
114115  1  0
115116  1  0
116117  1  0
117118  2  0
117119  1  0
 16120  1  0
 44121  1  0
118122  1  0
M  CHG  1   1   1
M  END
$$$$
