
     RDKit          3D

122123  0  0  0  0  0  0  0  0999 V2000
   62.1462   76.2197   96.4690 N   0  0  0  0  0  4  0  0  0  0  0  0
   62.0866   76.3473   95.0269 C   0  0  2  0  0  0  0  0  0  0  0  0
   60.7333   76.1712   94.4745 C   0  0  0  0  0  0  0  0  0  0  0  0
   60.4730   76.7767   93.3972 O   0  0  0  0  0  0  0  0  0  0  0  0
   63.0711   75.4729   94.3265 C   0  0  0  0  0  0  0  0  0  0  0  0
   59.7043   75.3941   95.0355 N   0  0  0  0  0  0  0  0  0  0  0  0
   58.5777   74.8627   94.3043 C   0  0  2  0  0  0  0  0  0  0  0  0
   57.7949   75.9816   93.7394 C   0  0  0  0  0  0  0  0  0  0  0  0
   58.2060   76.5182   92.6821 O   0  0  0  0  0  0  0  0  0  0  0  0
   57.7383   73.9497   95.1840 C   0  0  0  0  0  0  0  0  0  0  0  0
   58.4395   72.6533   95.3750 C   0  0  0  0  0  0  0  0  0  0  0  0
   57.6627   71.7127   96.2361 C   0  0  0  0  0  0  0  0  0  0  0  0
   58.2174   70.4359   96.5005 N   0  0  0  0  0  0  0  0  0  0  0  0
   57.6719   69.5061   97.4085 C   0  0  0  0  0  0  0  0  0  0  0  0
   57.5979   68.1255   97.1751 N   0  0  0  0  0  0  0  0  0  0  0  0
   57.1906   69.9610   98.5234 N   0  0  0  0  0  0  0  0  0  0  0  0
   56.5853   76.4885   94.3319 N   0  0  0  0  0  0  0  0  0  0  0  0
   55.8401   77.6026   93.8627 C   0  0  2  0  0  0  0  0  0  0  0  0
   54.5548   77.8822   94.4589 C   0  0  0  0  0  0  0  0  0  0  0  0
   54.1708   77.1067   95.3967 O   0  0  0  0  0  0  0  0  0  0  0  0
   55.8783   77.8593   92.3632 C   0  0  0  0  0  0  0  0  0  0  0  0
   55.0257   76.8500   91.6774 C   0  0  0  0  0  0  0  0  0  0  0  0
   55.0873   76.5322   90.3505 C   0  0  0  0  0  0  0  0  0  0  0  0
   54.0597   76.1606   92.4275 C   0  0  0  0  0  0  0  0  0  0  0  0
   54.2711   75.5955   89.7282 C   0  0  0  0  0  0  0  0  0  0  0  0
   53.2430   75.2324   91.8353 C   0  0  0  0  0  0  0  0  0  0  0  0
   53.3409   74.9458   90.4943 C   0  0  0  0  0  0  0  0  0  0  0  0
   52.4950   73.9941   89.9029 O   0  0  0  0  0  0  0  0  0  0  0  0
   53.6325   78.9184   94.1427 N   0  0  0  0  0  0  0  0  0  0  0  0
   52.5674   79.2807   95.0448 C   0  0  2  0  0  0  0  0  0  0  0  0
   51.2840   78.7827   94.4273 C   0  0  0  0  0  0  0  0  0  0  0  0
   51.3614   77.6881   93.8517 O   0  0  0  0  0  0  0  0  0  0  0  0
   52.5278   80.6887   95.4729 C   0  0  0  0  0  0  0  0  0  0  0  0
   51.4307   81.3018   94.8698 O   0  0  0  0  0  0  0  0  0  0  0  0
   50.0839   79.5005   94.4897 N   0  0  0  0  0  0  0  0  0  0  0  0
   48.7743   79.1245   94.1433 C   0  0  2  0  0  0  0  0  0  0  0  0
   47.6684   79.9641   94.5979 C   0  0  0  0  0  0  0  0  0  0  0  0
   47.3740   79.8969   95.8355 O   0  0  0  0  0  0  0  0  0  0  0  0
   48.4446   77.6381   94.0882 C   0  0  0  0  0  0  0  0  0  0  0  0
   47.1505   77.2567   94.6902 C   0  0  0  0  0  0  0  0  0  0  0  0
   46.6988   78.1009   95.8575 C   0  0  0  0  0  0  0  0  0  0  0  0
   45.5611   77.5714   96.5575 N   0  0  0  0  0  0  0  0  0  0  0  0
   44.5599   78.3898   97.1407 C   0  0  0  0  0  0  0  0  0  0  0  0
   43.3556   78.2201   96.6862 N   0  0  0  0  0  0  0  0  0  0  0  0
   44.8414   79.3398   98.1595 N   0  0  0  0  0  0  0  0  0  0  0  0
   46.8843   80.8399   93.8301 N   0  0  0  0  0  0  0  0  0  0  0  0
   47.2917   82.2655   93.6722 C   0  0  2  0  0  0  0  0  0  0  0  0
   46.4177   82.8242   92.6201 C   0  0  0  0  0  0  0  0  0  0  0  0
   46.4175   84.0928   92.5168 O   0  0  0  0  0  0  0  0  0  0  0  0
   48.7200   82.1916   93.2784 C   0  0  0  0  0  0  0  0  0  0  0  0
   49.8047   82.7622   94.0640 C   0  0  0  0  0  0  0  0  0  0  0  0
   49.7170   84.0410   94.7213 C   0  0  0  0  0  0  0  0  0  0  0  0
   49.1270   84.1329   95.9894 O   0  0  0  0  0  0  0  0  0  0  0  0
   50.1446   85.0935   94.2079 O   0  0  0  0  0  0  0  0  0  0  0  0
   45.6179   82.0275   91.7619 N   0  0  0  0  0  0  0  0  0  0  0  0
   45.3662   82.3010   90.3855 C   0  0  2  0  0  0  0  0  0  0  0  0
   43.9134   82.4575   90.1465 C   0  0  0  0  0  0  0  0  0  0  0  0
   43.4090   82.6261   89.0432 O   0  0  0  0  0  0  0  0  0  0  0  0
   46.0590   81.4216   89.4021 C   0  0  0  0  0  0  0  0  0  0  0  0
   46.0069   81.9522   88.0213 C   0  0  0  0  0  0  0  0  0  0  0  0
   47.0230   82.9116   87.6092 C   0  0  0  0  0  0  0  0  0  0  0  0
   46.8566   83.6992   86.6681 O   0  0  0  0  0  0  0  0  0  0  0  0
   48.2884   82.9718   88.3142 N   0  0  0  0  0  0  0  0  0  0  0  0
   43.0010   82.4204   91.2586 N   0  0  0  0  0  0  0  0  0  0  0  0
   41.7358   83.0797   91.1871 C   0  0  2  0  0  0  0  0  0  0  0  0
   41.8926   84.4609   91.7867 C   0  0  0  0  0  0  0  0  0  0  0  0
   42.2578   84.5467   92.9644 O   0  0  0  0  0  0  0  0  0  0  0  0
   40.6269   82.3058   91.7462 C   0  0  0  0  0  0  0  0  0  0  0  0
   40.3390   82.3873   93.1989 C   0  0  1  0  0  0  0  0  0  0  0  0
   39.9277   80.9446   93.6081 C   0  0  0  0  0  0  0  0  0  0  0  0
   41.4969   82.7166   94.0881 C   0  0  0  0  0  0  0  0  0  0  0  0
   41.6322   85.6066   91.0377 N   0  0  0  0  0  0  0  0  0  0  0  0
   42.4388   86.6850   90.6607 C   0  0  2  0  0  0  0  0  0  0  0  0
   42.5453   87.2200   89.3371 C   0  0  0  0  0  0  0  0  0  0  0  0
   43.2763   88.2889   89.2050 O   0  0  0  0  0  0  0  0  0  0  0  0
   43.7602   86.5026   91.3635 C   0  0  0  0  0  0  0  0  0  0  0  0
   44.0109   87.2207   92.6202 C   0  0  1  0  0  0  0  0  0  0  0  0
   45.3629   86.9725   93.2312 C   0  0  0  0  0  0  0  0  0  0  0  0
   44.0095   88.7417   92.2005 C   0  0  0  0  0  0  0  0  0  0  0  0
   43.0292   86.6191   85.9111 C   0  0  0  0  0  0  0  0  0  0  0  0
   42.0125   86.8428   88.0961 N   0  0  0  0  0  0  0  0  0  0  0  0
   42.8398   86.6503   84.6891 O   0  0  0  0  0  0  0  0  0  0  0  0
   42.2532   87.5205   86.8356 C   0  0  1  0  0  0  0  0  0  0  0  0
   42.7554   88.8908   86.8914 C   0  0  0  0  0  0  0  0  0  0  0  0
   42.4398   91.3980   86.9326 C   0  0  0  0  0  0  0  0  0  0  0  0
   43.2915   91.6647   85.7001 C   0  0  0  0  0  0  0  0  0  0  0  0
   41.8310   90.0401   86.7719 C   0  0  0  0  0  0  0  0  0  0  0  0
   40.8690   87.5815   86.1759 C   0  0  0  0  0  0  0  0  0  0  0  0
   43.9642   85.7630   86.4933 N   0  0  0  0  0  0  0  0  0  0  0  0
   44.8497   84.9280   85.7316 C   0  0  2  0  0  0  0  0  0  0  0  0
   44.8275   83.5735   86.3129 C   0  0  0  0  0  0  0  0  0  0  0  0
   45.4535   82.6553   85.7505 O   0  0  0  0  0  0  0  0  0  0  0  0
   46.2376   85.5246   85.6928 C   0  0  0  0  0  0  0  0  0  0  0  0
   46.3992   86.5954   84.6945 C   0  0  0  0  0  0  0  0  0  0  0  0
   45.6002   86.7946   83.5933 C   0  0  0  0  0  0  0  0  0  0  0  0
   47.4571   87.4927   84.8880 C   0  0  0  0  0  0  0  0  0  0  0  0
   45.8150   87.8227   82.7093 C   0  0  0  0  0  0  0  0  0  0  0  0
   47.6956   88.5219   84.0270 C   0  0  0  0  0  0  0  0  0  0  0  0
   46.8610   88.6848   82.9259 C   0  0  0  0  0  0  0  0  0  0  0  0
   44.1031   83.3226   87.4940 N   0  0  0  0  0  0  0  0  0  0  0  0
   43.9154   82.0045   88.0224 C   0  0  2  0  0  0  0  0  0  0  0  0
   42.7710   81.3418   87.4039 C   0  0  0  0  0  0  0  0  0  0  0  0
   42.6882   80.1065   87.3296 O   0  0  0  0  0  0  0  0  0  0  0  0
   44.1260   81.8972   89.4744 C   0  0  0  0  0  0  0  0  0  0  0  0
   45.0318   82.8623   90.1308 C   0  0  0  0  0  0  0  0  0  0  0  0
   46.0879   83.4294   89.3385 C   0  0  0  0  0  0  0  0  0  0  0  0
   46.2766   84.6127   89.0922 O   0  0  0  0  0  0  0  0  0  0  0  0
   47.0690   82.5251   88.7426 N   0  0  0  0  0  0  0  0  0  0  0  0
   41.6812   82.1219   86.8622 N   0  0  0  0  0  0  0  0  0  0  0  0
   40.6891   81.5662   85.9646 C   0  0  2  0  0  0  0  0  0  0  0  0
   40.9424   81.6829   84.5460 C   0  0  0  0  0  0  0  0  0  0  0  0
   41.9320   81.3194   83.9313 O   0  0  0  0  0  0  0  0  0  0  0  0
   39.3357   81.8879   86.4829 C   0  0  0  0  0  0  0  0  0  0  0  0
   38.8815   81.3850   87.7691 C   0  0  0  0  0  0  0  0  0  0  0  0
   37.8228   82.1093   88.4797 C   0  0  0  0  0  0  0  0  0  0  0  0
   36.9819   82.9786   87.7517 N   0  0  0  0  0  0  0  0  0  0  0  0
   36.2645   84.0435   88.3865 C   0  0  0  0  0  0  0  0  0  0  0  0
   35.7488   84.9967   87.6845 N   0  0  0  0  0  0  0  0  0  0  0  0
   36.1541   84.0097   89.7926 N   0  0  0  0  0  0  0  0  0  0  0  0
   57.1939   70.9638   98.7849 H   0  0  0  0  0  0  0  0  0  0  0  0
   43.2521   77.9011   95.6928 H   0  0  0  0  0  0  0  0  0  0  0  0
   36.0659   85.1069   86.7006 H   0  0  0  0  0  0  0  0  0  0  0  0
  2  1  1  0
  3  2  1  0
  2  5  1  6
  3  4  2  0
  6  3  1  0
  7  6  1  0
  8  7  1  0
  7 10  1  1
  8  9  2  0
 17  8  1  0
 10 11  1  0
 11 12  1  0
 12 13  1  0
 13 14  1  0
 14 15  1  0
 14 16  2  0
 18 17  1  0
 19 18  1  0
 18 21  1  6
 19 20  2  0
 29 19  1  0
 21 22  1  0
 22 23  2  0
 22 24  1  0
 23 25  1  0
 24 26  2  0
 25 27  2  0
 26 27  1  0
 27 28  1  0
 30 29  1  0
 31 30  1  0
 30 33  1  6
 31 32  2  0
 35 31  1  0
 33 34  1  0
 36 35  1  0
 37 36  1  0
 36 39  1  1
 37 38  2  0
 46 37  1  0
 39 40  1  0
 40 41  1  0
 41 42  1  0
 42 43  1  0
 43 44  2  0
 43 45  1  0
 47 46  1  0
 48 47  1  0
 47 50  1  6
 48 49  2  0
 55 48  1  0
 50 51  1  0
 51 52  1  0
 52 53  1  0
 52 54  2  0
 56 55  1  0
 57 56  1  0
 56 59  1  6
 57 58  2  0
 64 57  1  0
 59 60  1  0
 60 61  1  0
 61 62  2  0
 61 63  1  0
 65 64  1  0
 66 65  1  0
 65 68  1  1
 66 67  2  0
 72 66  1  0
 68 69  1  0
 69 70  1  1
 69 71  1  0
 73 72  1  0
 74 73  1  0
 73 76  1  6
 74 75  2  0
 81 74  1  0
 76 77  1  0
 77 78  1  6
 77 79  1  0
 80 82  2  0
 83 80  1  0
 80 89  1  0
 83 81  1  0
 84 83  1  0
 83 88  1  6
 87 84  1  0
 85 86  1  0
 85 87  1  0
 89 90  1  0
 90 91  1  0
 90 93  1  1
 91 92  2  0
 91100  1  0
 93 94  1  0
 94 95  2  0
 94 96  1  0
 95 97  1  0
 96 98  2  0
 97 99  2  0
 98 99  1  0
100101  1  0
101102  1  0
101104  1  1
102103  2  0
102109  1  0
104105  1  0
105106  1  0
106107  2  0
106108  1  0
109110  1  0
110111  1  0
110113  1  6
111112  2  0
113114  1  0
114115  1  0
115116  1  0
116117  1  0
117118  2  0
117119  1  0
 16120  1  0
 44121  1  0
118122  1  0
M  CHG  1   1   1
M  END
$$$$
