
     RDKit          3D

122123  0  0  0  0  0  0  0  0999 V2000
   57.6134   73.6655   96.7516 N   0  0  0  0  0  4  0  0  0  0  0  0
   57.0798   75.0124   96.7369 C   0  0  2  0  0  0  0  0  0  0  0  0
   55.7470   75.1124   96.1195 C   0  0  0  0  0  0  0  0  0  0  0  0
   55.6317   74.6838   94.9372 O   0  0  0  0  0  0  0  0  0  0  0  0
   58.0232   76.0032   96.1429 C   0  0  0  0  0  0  0  0  0  0  0  0
   54.5924   75.6419   96.7229 N   0  0  0  0  0  0  0  0  0  0  0  0
   53.3567   75.9287   96.0322 C   0  0  2  0  0  0  0  0  0  0  0  0
   53.6328   76.8412   94.9031 C   0  0  0  0  0  0  0  0  0  0  0  0
   54.5886   77.6470   95.0124 O   0  0  0  0  0  0  0  0  0  0  0  0
   52.3136   76.4843   96.9890 C   0  0  0  0  0  0  0  0  0  0  0  0
   50.9972   76.5658   96.3041 C   0  0  0  0  0  0  0  0  0  0  0  0
   49.9367   77.1391   97.1852 C   0  0  0  0  0  0  0  0  0  0  0  0
   48.8448   76.3100   97.5428 N   0  0  0  0  0  0  0  0  0  0  0  0
   47.5290   76.4815   97.0675 C   0  0  0  0  0  0  0  0  0  0  0  0
   47.1188   77.5404   96.2451 N   0  0  0  0  0  0  0  0  0  0  0  0
   46.6370   75.6131   97.4309 N   0  0  0  0  0  0  0  0  0  0  0  0
   52.8693   76.8553   93.6832 N   0  0  0  0  0  0  0  0  0  0  0  0
   53.0191   77.7920   92.6264 C   0  0  2  0  0  0  0  0  0  0  0  0
   52.1010   78.9040   92.5456 C   0  0  0  0  0  0  0  0  0  0  0  0
   50.8916   78.6819   92.8864 O   0  0  0  0  0  0  0  0  0  0  0  0
   53.3993   77.2236   91.2669 C   0  0  0  0  0  0  0  0  0  0  0  0
   53.3578   78.3160   90.2566 C   0  0  0  0  0  0  0  0  0  0  0  0
   53.6370   78.1755   88.9270 C   0  0  0  0  0  0  0  0  0  0  0  0
   53.0199   79.6121   90.6772 C   0  0  0  0  0  0  0  0  0  0  0  0
   53.6052   79.2134   88.0035 C   0  0  0  0  0  0  0  0  0  0  0  0
   52.9824   80.6518   89.7844 C   0  0  0  0  0  0  0  0  0  0  0  0
   53.2724   80.4626   88.4540 C   0  0  0  0  0  0  0  0  0  0  0  0
   53.2318   81.5387   87.5534 O   0  0  0  0  0  0  0  0  0  0  0  0
   52.3549   80.2403   92.1286 N   0  0  0  0  0  0  0  0  0  0  0  0
   51.8013   81.3687   92.8356 C   0  0  2  0  0  0  0  0  0  0  0  0
   50.5092   81.7262   92.1436 C   0  0  0  0  0  0  0  0  0  0  0  0
   49.7647   82.4924   92.7715 O   0  0  0  0  0  0  0  0  0  0  0  0
   52.7075   82.5081   93.0540 C   0  0  0  0  0  0  0  0  0  0  0  0
   51.9730   83.5551   93.6088 O   0  0  0  0  0  0  0  0  0  0  0  0
   50.1619   81.2296   90.8818 N   0  0  0  0  0  0  0  0  0  0  0  0
   49.0970   81.5660   90.0279 C   0  0  2  0  0  0  0  0  0  0  0  0
   47.9023   80.7251   90.0445 C   0  0  0  0  0  0  0  0  0  0  0  0
   46.9078   81.1354   89.3622 O   0  0  0  0  0  0  0  0  0  0  0  0
   49.4297   82.1465   88.6591 C   0  0  0  0  0  0  0  0  0  0  0  0
   48.4446   83.1102   88.1267 C   0  0  0  0  0  0  0  0  0  0  0  0
   47.9863   82.8607   86.7100 C   0  0  0  0  0  0  0  0  0  0  0  0
   48.0587   81.4840   86.3049 N   0  0  0  0  0  0  0  0  0  0  0  0
   47.0191   80.8286   85.5966 C   0  0  0  0  0  0  0  0  0  0  0  0
   47.3913   80.1199   84.5742 N   0  0  0  0  0  0  0  0  0  0  0  0
   45.6517   80.9309   85.9701 N   0  0  0  0  0  0  0  0  0  0  0  0
   47.7158   79.5130   90.7281 N   0  0  0  0  0  0  0  0  0  0  0  0
   46.3911   78.8297   90.6915 C   0  0  2  0  0  0  0  0  0  0  0  0
   45.3805   79.8914   90.8771 C   0  0  0  0  0  0  0  0  0  0  0  0
   45.8267   81.0831   90.8961 O   0  0  0  0  0  0  0  0  0  0  0  0
   46.4508   77.8653   91.8171 C   0  0  0  0  0  0  0  0  0  0  0  0
   47.6231   77.0609   92.1300 C   0  0  0  0  0  0  0  0  0  0  0  0
   48.8462   77.6156   92.6513 C   0  0  0  0  0  0  0  0  0  0  0  0
   48.8771   78.9482   93.0845 O   0  0  0  0  0  0  0  0  0  0  0  0
   49.9022   76.9584   92.7355 O   0  0  0  0  0  0  0  0  0  0  0  0
   43.9938   79.6347   91.0263 N   0  0  0  0  0  0  0  0  0  0  0  0
   42.9504   80.5578   90.7230 C   0  0  2  0  0  0  0  0  0  0  0  0
   42.4966   81.2476   91.9521 C   0  0  0  0  0  0  0  0  0  0  0  0
   42.0191   82.3753   91.9752 O   0  0  0  0  0  0  0  0  0  0  0  0
   41.8464   80.0446   89.8638 C   0  0  0  0  0  0  0  0  0  0  0  0
   41.6284   80.8707   88.6551 C   0  0  0  0  0  0  0  0  0  0  0  0
   40.5960   80.4603   87.7126 C   0  0  0  0  0  0  0  0  0  0  0  0
   40.2486   81.1624   86.7535 O   0  0  0  0  0  0  0  0  0  0  0  0
   39.9343   79.1808   87.8774 N   0  0  0  0  0  0  0  0  0  0  0  0
   42.6124   80.5851   93.2242 N   0  0  0  0  0  0  0  0  0  0  0  0
   42.3421   81.2857   94.4394 C   0  0  2  0  0  0  0  0  0  0  0  0
   43.5823   82.0683   94.8149 C   0  0  0  0  0  0  0  0  0  0  0  0
   43.6274   82.5856   95.9366 O   0  0  0  0  0  0  0  0  0  0  0  0
   41.8194   80.4395   95.5127 C   0  0  0  0  0  0  0  0  0  0  0  0
   42.2181   80.7099   96.9155 C   0  0  1  0  0  0  0  0  0  0  0  0
   41.4813   79.6300   97.7574 C   0  0  0  0  0  0  0  0  0  0  0  0
   43.6661   80.5210   97.2425 C   0  0  0  0  0  0  0  0  0  0  0  0
   44.6453   82.2068   93.9248 N   0  0  0  0  0  0  0  0  0  0  0  0
   45.9871   82.5537   94.1119 C   0  0  2  0  0  0  0  0  0  0  0  0
   46.9479   82.7496   93.0688 C   0  0  0  0  0  0  0  0  0  0  0  0
   47.5162   81.6764   92.6003 O   0  0  0  0  0  0  0  0  0  0  0  0
   46.4892   81.7291   95.2699 C   0  0  0  0  0  0  0  0  0  0  0  0
   45.9325   81.9579   96.6099 C   0  0  1  0  0  0  0  0  0  0  0  0
   45.9604   80.7599   97.5191 C   0  0  0  0  0  0  0  0  0  0  0  0
   46.9163   83.0056   97.2610 C   0  0  0  0  0  0  0  0  0  0  0  0
   47.9447   85.1200   90.3916 C   0  0  0  0  0  0  0  0  0  0  0  0
   47.4437   83.8849   92.4118 N   0  0  0  0  0  0  0  0  0  0  0  0
   48.8077   85.6092   89.6526 O   0  0  0  0  0  0  0  0  0  0  0  0
   48.2291   83.8756   91.1915 C   0  0  1  0  0  0  0  0  0  0  0  0
   48.2329   82.6474   90.4011 C   0  0  0  0  0  0  0  0  0  0  0  0
   49.1367   80.3099   90.0744 C   0  0  0  0  0  0  0  0  0  0  0  0
   48.4538   79.6741   91.2763 C   0  0  0  0  0  0  0  0  0  0  0  0
   49.4037   81.7426   90.4160 C   0  0  0  0  0  0  0  0  0  0  0  0
   49.6688   84.0974   91.6741 C   0  0  0  0  0  0  0  0  0  0  0  0
   46.6746   85.6826   90.5193 N   0  0  0  0  0  0  0  0  0  0  0  0
   46.2762   86.8891   89.8507 C   0  0  2  0  0  0  0  0  0  0  0  0
   44.8475   86.7795   89.5043 C   0  0  0  0  0  0  0  0  0  0  0  0
   44.0717   87.7064   89.8047 O   0  0  0  0  0  0  0  0  0  0  0  0
   47.1522   87.1406   88.6453 C   0  0  0  0  0  0  0  0  0  0  0  0
   48.5237   87.5592   88.9813 C   0  0  0  0  0  0  0  0  0  0  0  0
   49.2858   87.0623   90.0125 C   0  0  0  0  0  0  0  0  0  0  0  0
   49.1042   88.5467   88.1753 C   0  0  0  0  0  0  0  0  0  0  0  0
   50.5623   87.5033   90.2580 C   0  0  0  0  0  0  0  0  0  0  0  0
   50.3687   89.0051   88.3954 C   0  0  0  0  0  0  0  0  0  0  0  0
   51.1028   88.4732   89.4507 C   0  0  0  0  0  0  0  0  0  0  0  0
   44.3667   85.6349   88.8400 N   0  0  0  0  0  0  0  0  0  0  0  0
   43.0079   85.5050   88.4054 C   0  0  2  0  0  0  0  0  0  0  0  0
   42.1078   85.2844   89.5334 C   0  0  0  0  0  0  0  0  0  0  0  0
   40.9417   84.8919   89.3766 O   0  0  0  0  0  0  0  0  0  0  0  0
   42.8379   84.7241   87.1703 C   0  0  0  0  0  0  0  0  0  0  0  0
   42.4597   85.4343   85.9312 C   0  0  0  0  0  0  0  0  0  0  0  0
   41.7704   86.6878   86.0659 C   0  0  0  0  0  0  0  0  0  0  0  0
   41.3749   87.4170   85.1668 O   0  0  0  0  0  0  0  0  0  0  0  0
   41.4896   87.1829   87.4119 N   0  0  0  0  0  0  0  0  0  0  0  0
   42.5640   85.5115   90.8862 N   0  0  0  0  0  0  0  0  0  0  0  0
   41.6736   85.4870   92.0287 C   0  0  2  0  0  0  0  0  0  0  0  0
   40.5888   86.4427   92.0415 C   0  0  0  0  0  0  0  0  0  0  0  0
   40.6562   87.6472   92.2262 O   0  0  0  0  0  0  0  0  0  0  0  0
   42.4768   85.2936   93.2621 C   0  0  0  0  0  0  0  0  0  0  0  0
   43.0774   84.0076   93.5768 C   0  0  0  0  0  0  0  0  0  0  0  0
   44.0983   83.9402   94.6273 C   0  0  0  0  0  0  0  0  0  0  0  0
   45.2640   83.1770   94.4001 N   0  0  0  0  0  0  0  0  0  0  0  0
   46.3054   83.0785   95.3785 C   0  0  0  0  0  0  0  0  0  0  0  0
   46.0331   82.7382   96.5941 N   0  0  0  0  0  0  0  0  0  0  0  0
   47.6214   83.3725   94.9640 N   0  0  0  0  0  0  0  0  0  0  0  0
   46.6819   74.6064   97.1886 H   0  0  0  0  0  0  0  0  0  0  0  0
   48.4164   79.9308   84.4619 H   0  0  0  0  0  0  0  0  0  0  0  0
   46.1091   81.7335   96.8500 H   0  0  0  0  0  0  0  0  0  0  0  0
  2  1  1  0
  3  2  1  0
  2  5  1  6
  3  4  2  0
  6  3  1  0
  7  6  1  0
  8  7  1  0
  7 10  1  1
  8  9  2  0
 17  8  1  0
 10 11  1  0
 11 12  1  0
 12 13  1  0
 13 14  1  0
 14 15  1  0
 14 16  2  0
 18 17  1  0
 19 18  1  0
 18 21  1  6
 19 20  2  0
 29 19  1  0
 21 22  1  0
 22 23  2  0
 22 24  1  0
 23 25  1  0
 24 26  2  0
 25 27  2  0
 26 27  1  0
 27 28  1  0
 30 29  1  0
 31 30  1  0
 30 33  1  6
 31 32  2  0
 35 31  1  0
 33 34  1  0
 36 35  1  0
 37 36  1  0
 36 39  1  6
 37 38  2  0
 46 37  1  0
 39 40  1  0
 40 41  1  0
 41 42  1  0
 42 43  1  0
 43 44  2  0
 43 45  1  0
 47 46  1  0
 48 47  1  0
 47 50  1  1
 48 49  2  0
 55 48  1  0
 50 51  1  0
 51 52  1  0
 52 53  1  0
 52 54  2  0
 56 55  1  0
 57 56  1  0
 56 59  1  1
 57 58  2  0
 64 57  1  0
 59 60  1  0
 60 61  1  0
 61 62  2  0
 61 63  1  0
 65 64  1  0
 66 65  1  0
 65 68  1  1
 66 67  2  0
 72 66  1  0
 68 69  1  0
 69 70  1  1
 69 71  1  0
 73 72  1  0
 74 73  1  0
 73 76  1  1
 74 75  2  0
 81 74  1  0
 76 77  1  0
 77 78  1  1
 77 79  1  0
 80 82  2  0
 83 80  1  0
 80 89  1  0
 83 81  1  0
 84 83  1  0
 83 88  1  1
 87 84  1  0
 85 86  1  0
 85 87  1  0
 89 90  1  0
 90 91  1  0
 90 93  1  6
 91 92  2  0
 91100  1  0
 93 94  1  0
 94 95  2  0
 94 96  1  0
 95 97  1  0
 96 98  2  0
 97 99  2  0
 98 99  1  0
100101  1  0
101102  1  0
101104  1  6
102103  2  0
102109  1  0
104105  1  0
105106  1  0
106107  2  0
106108  1  0
109110  1  0
110111  1  0
110113  1  1
111112  2  0
113114  1  0
114115  1  0
115116  1  0
116117  1  0
117118  2  0
117119  1  0
 16120  1  0
 44121  1  0
118122  1  0
M  CHG  1   1   1
M  END
$$$$
