
     RDKit          3D

122123  0  0  0  0  0  0  0  0999 V2000
   63.8044   74.6123   93.3277 N   0  0  0  0  0  4  0  0  0  0  0  0
   62.9790   73.6259   93.9947 C   0  0  2  0  0  0  0  0  0  0  0  0
   61.6926   74.1591   94.4727 C   0  0  0  0  0  0  0  0  0  0  0  0
   61.4289   74.0019   95.6978 O   0  0  0  0  0  0  0  0  0  0  0  0
   63.7009   72.9069   95.0838 C   0  0  0  0  0  0  0  0  0  0  0  0
   60.7305   74.8247   93.6923 N   0  0  0  0  0  0  0  0  0  0  0  0
   59.8715   75.8847   94.1663 C   0  0  2  0  0  0  0  0  0  0  0  0
   59.0006   76.3342   93.0603 C   0  0  0  0  0  0  0  0  0  0  0  0
   59.4879   77.1045   92.1978 O   0  0  0  0  0  0  0  0  0  0  0  0
   60.6864   77.0203   94.7650 C   0  0  0  0  0  0  0  0  0  0  0  0
   61.2838   76.5839   96.0540 C   0  0  0  0  0  0  0  0  0  0  0  0
   60.5230   77.0978   97.2316 C   0  0  0  0  0  0  0  0  0  0  0  0
   59.9300   78.3811   97.1357 N   0  0  0  0  0  0  0  0  0  0  0  0
   59.4259   79.1066   98.2340 C   0  0  0  0  0  0  0  0  0  0  0  0
   59.9713   79.0643   99.5249 N   0  0  0  0  0  0  0  0  0  0  0  0
   58.3782   79.8460   98.0404 N   0  0  0  0  0  0  0  0  0  0  0  0
   57.6255   75.9352   92.9146 N   0  0  0  0  0  0  0  0  0  0  0  0
   56.7152   76.4463   91.9519 C   0  0  2  0  0  0  0  0  0  0  0  0
   55.9092   77.5944   92.2957 C   0  0  0  0  0  0  0  0  0  0  0  0
   55.8878   77.9396   93.5239 O   0  0  0  0  0  0  0  0  0  0  0  0
   55.9734   75.4188   91.1093 C   0  0  0  0  0  0  0  0  0  0  0  0
   55.0167   74.6800   91.9782 C   0  0  0  0  0  0  0  0  0  0  0  0
   55.3455   73.6717   92.8389 C   0  0  0  0  0  0  0  0  0  0  0  0
   53.6548   75.0158   91.9206 C   0  0  0  0  0  0  0  0  0  0  0  0
   54.4326   72.9861   93.6310 C   0  0  0  0  0  0  0  0  0  0  0  0
   52.7358   74.3530   92.6925 C   0  0  0  0  0  0  0  0  0  0  0  0
   53.1137   73.3427   93.5447 C   0  0  0  0  0  0  0  0  0  0  0  0
   52.1595   72.6724   94.3264 O   0  0  0  0  0  0  0  0  0  0  0  0
   55.1151   78.4124   91.4446 N   0  0  0  0  0  0  0  0  0  0  0  0
   54.3543   79.5229   91.9617 C   0  0  2  0  0  0  0  0  0  0  0  0
   52.9249   79.0551   92.0808 C   0  0  0  0  0  0  0  0  0  0  0  0
   52.2994   78.9817   91.0136 O   0  0  0  0  0  0  0  0  0  0  0  0
   54.5156   80.8061   91.2584 C   0  0  0  0  0  0  0  0  0  0  0  0
   55.8559   80.9478   90.9023 O   0  0  0  0  0  0  0  0  0  0  0  0
   52.3335   78.7281   93.3067 N   0  0  0  0  0  0  0  0  0  0  0  0
   50.9828   78.7165   93.6963 C   0  0  2  0  0  0  0  0  0  0  0  0
   50.3332   79.9930   93.9848 C   0  0  0  0  0  0  0  0  0  0  0  0
   50.6601   80.5645   95.0754 O   0  0  0  0  0  0  0  0  0  0  0  0
   50.4945   77.5610   94.5608 C   0  0  0  0  0  0  0  0  0  0  0  0
   51.4390   77.1109   95.6039 C   0  0  0  0  0  0  0  0  0  0  0  0
   51.0210   75.8847   96.3789 C   0  0  0  0  0  0  0  0  0  0  0  0
   49.8094   76.0532   97.1329 N   0  0  0  0  0  0  0  0  0  0  0  0
   49.3045   75.0677   98.0193 C   0  0  0  0  0  0  0  0  0  0  0  0
   50.1124   74.0898   98.2968 N   0  0  0  0  0  0  0  0  0  0  0  0
   47.9991   75.1326   98.5773 N   0  0  0  0  0  0  0  0  0  0  0  0
   49.3843   80.6691   93.2014 N   0  0  0  0  0  0  0  0  0  0  0  0
   49.0905   82.1081   93.4586 C   0  0  2  0  0  0  0  0  0  0  0  0
   48.4934   82.6306   92.2122 C   0  0  0  0  0  0  0  0  0  0  0  0
   47.9043   81.7732   91.4789 O   0  0  0  0  0  0  0  0  0  0  0  0
   50.4153   82.6968   93.7730 C   0  0  0  0  0  0  0  0  0  0  0  0
   51.3745   83.1138   92.7604 C   0  0  0  0  0  0  0  0  0  0  0  0
   51.2930   84.3728   92.0651 C   0  0  0  0  0  0  0  0  0  0  0  0
   51.9947   84.5520   90.8651 O   0  0  0  0  0  0  0  0  0  0  0  0
   50.6188   85.3330   92.4864 O   0  0  0  0  0  0  0  0  0  0  0  0
   48.5531   83.9941   91.8271 N   0  0  0  0  0  0  0  0  0  0  0  0
   47.6042   84.6541   90.9924 C   0  0  2  0  0  0  0  0  0  0  0  0
   47.6768   84.1278   89.6104 C   0  0  0  0  0  0  0  0  0  0  0  0
   47.2142   84.6967   88.6293 O   0  0  0  0  0  0  0  0  0  0  0  0
   47.5702   86.1411   91.0822 C   0  0  0  0  0  0  0  0  0  0  0  0
   46.4976   86.6378   91.9731 C   0  0  0  0  0  0  0  0  0  0  0  0
   46.6868   86.5270   93.4135 C   0  0  0  0  0  0  0  0  0  0  0  0
   45.7917   86.1425   94.1780 O   0  0  0  0  0  0  0  0  0  0  0  0
   47.9662   86.8704   94.0029 N   0  0  0  0  0  0  0  0  0  0  0  0
   48.3206   82.8651   89.3624 N   0  0  0  0  0  0  0  0  0  0  0  0
   48.4788   82.3755   88.0298 C   0  0  2  0  0  0  0  0  0  0  0  0
   47.1044   82.0536   87.4826 C   0  0  0  0  0  0  0  0  0  0  0  0
   47.0081   81.7579   86.2864 O   0  0  0  0  0  0  0  0  0  0  0  0
   49.4443   81.2831   87.9057 C   0  0  0  0  0  0  0  0  0  0  0  0
   49.1296   80.1260   87.0328 C   0  0  1  0  0  0  0  0  0  0  0  0
   49.4534   80.6109   85.5913 C   0  0  0  0  0  0  0  0  0  0  0  0
   49.9738   78.9045   87.2191 C   0  0  0  0  0  0  0  0  0  0  0  0
   45.9759   82.0899   88.2991 N   0  0  0  0  0  0  0  0  0  0  0  0
   44.6274   81.8165   88.0492 C   0  0  2  0  0  0  0  0  0  0  0  0
   43.6388   82.7828   87.6771 C   0  0  0  0  0  0  0  0  0  0  0  0
   42.5433   82.7860   88.3799 O   0  0  0  0  0  0  0  0  0  0  0  0
   44.1781   80.8492   89.1147 C   0  0  0  0  0  0  0  0  0  0  0  0
   45.1285   80.4331   90.1547 C   0  0  1  0  0  0  0  0  0  0  0  0
   44.5421   80.3106   91.5345 C   0  0  0  0  0  0  0  0  0  0  0  0
   45.5374   78.9674   89.7375 C   0  0  0  0  0  0  0  0  0  0  0  0
   42.8842   86.0643   86.9912 C   0  0  0  0  0  0  0  0  0  0  0  0
   43.5754   83.7660   86.6792 N   0  0  0  0  0  0  0  0  0  0  0  0
   43.2229   86.9562   86.2038 O   0  0  0  0  0  0  0  0  0  0  0  0
   42.4832   84.7022   86.4879 C   0  0  1  0  0  0  0  0  0  0  0  0
   41.1506   84.2796   86.9108 C   0  0  0  0  0  0  0  0  0  0  0  0
   39.5422   82.5830   87.8710 C   0  0  0  0  0  0  0  0  0  0  0  0
   39.7438   81.5517   88.9715 C   0  0  0  0  0  0  0  0  0  0  0  0
   40.8844   82.8700   87.2738 C   0  0  0  0  0  0  0  0  0  0  0  0
   42.4247   84.8999   84.9674 C   0  0  0  0  0  0  0  0  0  0  0  0
   42.8491   86.2692   88.3706 N   0  0  0  0  0  0  0  0  0  0  0  0
   42.7416   87.5685   88.9719 C   0  0  2  0  0  0  0  0  0  0  0  0
   41.4349   87.6621   89.6478 C   0  0  0  0  0  0  0  0  0  0  0  0
   40.7887   88.7252   89.5870 O   0  0  0  0  0  0  0  0  0  0  0  0
   42.9424   88.6499   87.9356 C   0  0  0  0  0  0  0  0  0  0  0  0
   44.3402   88.8057   87.4988 C   0  0  0  0  0  0  0  0  0  0  0  0
   44.7885   89.6776   86.5346 C   0  0  0  0  0  0  0  0  0  0  0  0
   45.2976   87.9978   88.1255 C   0  0  0  0  0  0  0  0  0  0  0  0
   46.1134   89.7663   86.1866 C   0  0  0  0  0  0  0  0  0  0  0  0
   46.6195   88.0627   87.8003 C   0  0  0  0  0  0  0  0  0  0  0  0
   47.0273   88.9601   86.8185 C   0  0  0  0  0  0  0  0  0  0  0  0
   40.9244   86.5576   90.3563 N   0  0  0  0  0  0  0  0  0  0  0  0
   39.8036   86.6568   91.2428 C   0  0  2  0  0  0  0  0  0  0  0  0
   39.1902   87.9800   91.1782 C   0  0  0  0  0  0  0  0  0  0  0  0
   39.7126   88.9168   90.5552 O   0  0  0  0  0  0  0  0  0  0  0  0
   40.0019   86.0053   92.5468 C   0  0  0  0  0  0  0  0  0  0  0  0
   40.4910   84.6114   92.5738 C   0  0  0  0  0  0  0  0  0  0  0  0
   41.7893   84.3721   93.1412 C   0  0  0  0  0  0  0  0  0  0  0  0
   42.1136   84.4668   94.3170 O   0  0  0  0  0  0  0  0  0  0  0  0
   42.8721   83.9670   92.2474 N   0  0  0  0  0  0  0  0  0  0  0  0
   37.9312   88.2338   91.8416 N   0  0  0  0  0  0  0  0  0  0  0  0
   36.6542   87.8544   91.2723 C   0  0  2  0  0  0  0  0  0  0  0  0
   35.5495   87.6765   92.1878 C   0  0  0  0  0  0  0  0  0  0  0  0
   35.0537   88.5079   92.9312 O   0  0  0  0  0  0  0  0  0  0  0  0
   36.8809   86.8402   90.2122 C   0  0  0  0  0  0  0  0  0  0  0  0
   35.7676   86.1890   89.5413 C   0  0  0  0  0  0  0  0  0  0  0  0
   35.5488   84.7556   89.7598 C   0  0  0  0  0  0  0  0  0  0  0  0
   36.0522   83.8351   88.8152 N   0  0  0  0  0  0  0  0  0  0  0  0
   35.2141   82.8512   88.1979 C   0  0  0  0  0  0  0  0  0  0  0  0
   34.3778   82.1659   88.9038 N   0  0  0  0  0  0  0  0  0  0  0  0
   35.3458   82.6612   86.8062 N   0  0  0  0  0  0  0  0  0  0  0  0
   57.9536   80.0097   97.1093 H   0  0  0  0  0  0  0  0  0  0  0  0
   50.9717   73.9873   97.7049 H   0  0  0  0  0  0  0  0  0  0  0  0
   34.5203   82.1297   89.9329 H   0  0  0  0  0  0  0  0  0  0  0  0
  2  1  1  0
  3  2  1  0
  2  5  1  1
  3  4  2  0
  6  3  1  0
  7  6  1  0
  8  7  1  0
  7 10  1  6
  8  9  2  0
 17  8  1  0
 10 11  1  0
 11 12  1  0
 12 13  1  0
 13 14  1  0
 14 15  1  0
 14 16  2  0
 18 17  1  0
 19 18  1  0
 18 21  1  1
 19 20  2  0
 29 19  1  0
 21 22  1  0
 22 23  2  0
 22 24  1  0
 23 25  1  0
 24 26  2  0
 25 27  2  0
 26 27  1  0
 27 28  1  0
 30 29  1  0
 31 30  1  0
 30 33  1  6
 31 32  2  0
 35 31  1  0
 33 34  1  0
 36 35  1  0
 37 36  1  0
 36 39  1  1
 37 38  2  0
 46 37  1  0
 39 40  1  0
 40 41  1  0
 41 42  1  0
 42 43  1  0
 43 44  2  0
 43 45  1  0
 47 46  1  0
 48 47  1  0
 47 50  1  6
 48 49  2  0
 55 48  1  0
 50 51  1  0
 51 52  1  0
 52 53  1  0
 52 54  2  0
 56 55  1  0
 57 56  1  0
 56 59  1  6
 57 58  2  0
 64 57  1  0
 59 60  1  0
 60 61  1  0
 61 62  2  0
 61 63  1  0
 65 64  1  0
 66 65  1  0
 65 68  1  1
 66 67  2  0
 72 66  1  0
 68 69  1  0
 69 70  1  6
 69 71  1  0
 73 72  1  0
 74 73  1  0
 73 76  1  1
 74 75  2  0
 81 74  1  0
 76 77  1  0
 77 78  1  1
 77 79  1  0
 80 82  2  0
 83 80  1  0
 80 89  1  0
 83 81  1  0
 84 83  1  0
 83 88  1  6
 87 84  1  0
 85 86  1  0
 85 87  1  0
 89 90  1  0
 90 91  1  0
 90 93  1  6
 91 92  2  0
 91100  1  0
 93 94  1  0
 94 95  2  0
 94 96  1  0
 95 97  1  0
 96 98  2  0
 97 99  2  0
 98 99  1  0
100101  1  0
101102  1  0
101104  1  1
102103  2  0
102109  1  0
104105  1  0
105106  1  0
106107  2  0
106108  1  0
109110  1  0
110111  1  0
110113  1  1
111112  2  0
113114  1  0
114115  1  0
115116  1  0
116117  1  0
117118  2  0
117119  1  0
 16120  1  0
 44121  1  0
118122  1  0
M  CHG  1   1   1
M  END
$$$$
