
     RDKit          3D

122123  0  0  0  0  0  0  0  0999 V2000
   58.4356   70.6615   96.7877 N   0  0  0  0  0  4  0  0  0  0  0  0
   58.0228   71.9559   97.2912 C   0  0  2  0  0  0  0  0  0  0  0  0
   56.8421   72.5065   96.6055 C   0  0  0  0  0  0  0  0  0  0  0  0
   56.5019   71.9544   95.5218 O   0  0  0  0  0  0  0  0  0  0  0  0
   59.1366   72.9472   97.3237 C   0  0  0  0  0  0  0  0  0  0  0  0
   56.0601   73.5899   97.0438 N   0  0  0  0  0  0  0  0  0  0  0  0
   54.9327   74.1388   96.3268 C   0  0  2  0  0  0  0  0  0  0  0  0
   55.0938   75.6037   96.2183 C   0  0  0  0  0  0  0  0  0  0  0  0
   55.8328   76.1820   97.0515 O   0  0  0  0  0  0  0  0  0  0  0  0
   53.6215   73.7438   96.9877 C   0  0  0  0  0  0  0  0  0  0  0  0
   53.7442   73.8736   98.4631 C   0  0  0  0  0  0  0  0  0  0  0  0
   53.1494   72.7089   99.1838 C   0  0  0  0  0  0  0  0  0  0  0  0
   53.2453   72.6778  100.5971 N   0  0  0  0  0  0  0  0  0  0  0  0
   53.0411   71.5246  101.3814 C   0  0  0  0  0  0  0  0  0  0  0  0
   53.4505   71.3953  102.7161 N   0  0  0  0  0  0  0  0  0  0  0  0
   52.4532   70.5115  100.8249 N   0  0  0  0  0  0  0  0  0  0  0  0
   54.4534   76.4044   95.2083 N   0  0  0  0  0  0  0  0  0  0  0  0
   54.3252   77.8185   95.2344 C   0  0  2  0  0  0  0  0  0  0  0  0
   53.1369   78.3998   95.8140 C   0  0  0  0  0  0  0  0  0  0  0  0
   52.1281   77.6317   95.9581 O   0  0  0  0  0  0  0  0  0  0  0  0
   54.8256   78.5663   94.0071 C   0  0  0  0  0  0  0  0  0  0  0  0
   54.9407   77.6107   92.8715 C   0  0  0  0  0  0  0  0  0  0  0  0
   55.4100   77.9150   91.6255 C   0  0  0  0  0  0  0  0  0  0  0  0
   54.5281   76.2824   93.0625 C   0  0  0  0  0  0  0  0  0  0  0  0
   55.4958   77.0090   90.5754 C   0  0  0  0  0  0  0  0  0  0  0  0
   54.6030   75.3710   92.0411 C   0  0  0  0  0  0  0  0  0  0  0  0
   55.0820   75.7238   90.8018 C   0  0  0  0  0  0  0  0  0  0  0  0
   55.1497   74.7787   89.7659 O   0  0  0  0  0  0  0  0  0  0  0  0
   52.9223   79.7355   96.2542 N   0  0  0  0  0  0  0  0  0  0  0  0
   52.0244   80.0356   97.3420 C   0  0  2  0  0  0  0  0  0  0  0  0
   51.1409   81.1676   96.8791 C   0  0  0  0  0  0  0  0  0  0  0  0
   50.5508   81.7827   97.7785 O   0  0  0  0  0  0  0  0  0  0  0  0
   52.6464   80.2515   98.6587 C   0  0  0  0  0  0  0  0  0  0  0  0
   51.8045   79.7224   99.6357 O   0  0  0  0  0  0  0  0  0  0  0  0
   50.9867   81.5063   95.5297 N   0  0  0  0  0  0  0  0  0  0  0  0
   51.4507   82.6195   94.8073 C   0  0  2  0  0  0  0  0  0  0  0  0
   51.3028   82.6139   93.3538 C   0  0  0  0  0  0  0  0  0  0  0  0
   51.7425   83.6357   92.7329 O   0  0  0  0  0  0  0  0  0  0  0  0
   52.7084   83.3232   95.3016 C   0  0  0  0  0  0  0  0  0  0  0  0
   52.4851   84.3768   96.3129 C   0  0  0  0  0  0  0  0  0  0  0  0
   53.3999   84.3349   97.5131 C   0  0  0  0  0  0  0  0  0  0  0  0
   54.3300   85.4282   97.5789 N   0  0  0  0  0  0  0  0  0  0  0  0
   54.8034   85.9708   98.8010 C   0  0  0  0  0  0  0  0  0  0  0  0
   54.2534   87.0859   99.1750 N   0  0  0  0  0  0  0  0  0  0  0  0
   55.8151   85.3452   99.5787 N   0  0  0  0  0  0  0  0  0  0  0  0
   50.7286   81.6131   92.5537 N   0  0  0  0  0  0  0  0  0  0  0  0
   50.8249   81.6961   91.0681 C   0  0  2  0  0  0  0  0  0  0  0  0
   50.1383   80.4957   90.5482 C   0  0  0  0  0  0  0  0  0  0  0  0
   50.7234   79.3862   90.7644 O   0  0  0  0  0  0  0  0  0  0  0  0
   52.2840   81.7067   90.8006 C   0  0  0  0  0  0  0  0  0  0  0  0
   53.1115   80.5090   90.7891 C   0  0  0  0  0  0  0  0  0  0  0  0
   52.8319   79.3629   89.9624 C   0  0  0  0  0  0  0  0  0  0  0  0
   51.7542   79.3968   89.0669 O   0  0  0  0  0  0  0  0  0  0  0  0
   53.5115   78.3186   90.0058 O   0  0  0  0  0  0  0  0  0  0  0  0
   48.9050   80.5401   89.8496 N   0  0  0  0  0  0  0  0  0  0  0  0
   47.7050   79.8886   90.2597 C   0  0  2  0  0  0  0  0  0  0  0  0
   46.5630   80.3391   89.4318 C   0  0  0  0  0  0  0  0  0  0  0  0
   46.6386   81.1923   88.5563 O   0  0  0  0  0  0  0  0  0  0  0  0
   47.4324   79.8717   91.7245 C   0  0  0  0  0  0  0  0  0  0  0  0
   46.1435   79.2263   92.0611 C   0  0  0  0  0  0  0  0  0  0  0  0
   46.1225   78.2378   93.1312 C   0  0  0  0  0  0  0  0  0  0  0  0
   45.2558   77.3568   93.2108 O   0  0  0  0  0  0  0  0  0  0  0  0
   47.1479   78.2600   94.1559 N   0  0  0  0  0  0  0  0  0  0  0  0
   45.2607   79.7648   89.6426 N   0  0  0  0  0  0  0  0  0  0  0  0
   44.0826   80.4500   89.2143 C   0  0  2  0  0  0  0  0  0  0  0  0
   44.2827   81.9291   89.4674 C   0  0  0  0  0  0  0  0  0  0  0  0
   44.4996   82.6622   88.4962 O   0  0  0  0  0  0  0  0  0  0  0  0
   42.8420   79.9091   89.7704 C   0  0  0  0  0  0  0  0  0  0  0  0
   42.5332   78.4683   89.6016 C   0  0  1  0  0  0  0  0  0  0  0  0
   41.2447   78.2330   90.4395 C   0  0  0  0  0  0  0  0  0  0  0  0
   42.1712   78.0242   88.2191 C   0  0  0  0  0  0  0  0  0  0  0  0
   44.2270   82.4546   90.7566 N   0  0  0  0  0  0  0  0  0  0  0  0
   44.3557   83.7588   91.2449 C   0  0  2  0  0  0  0  0  0  0  0  0
   44.8199   84.8853   90.4934 C   0  0  0  0  0  0  0  0  0  0  0  0
   45.2102   85.9173   91.1841 O   0  0  0  0  0  0  0  0  0  0  0  0
   44.9520   83.6464   92.6251 C   0  0  0  0  0  0  0  0  0  0  0  0
   44.2803   82.8147   93.6326 C   0  0  1  0  0  0  0  0  0  0  0  0
   42.8474   83.1838   93.9036 C   0  0  0  0  0  0  0  0  0  0  0  0
   44.2305   81.3808   92.9761 C   0  0  0  0  0  0  0  0  0  0  0  0
   45.4835   86.2582   87.0396 C   0  0  0  0  0  0  0  0  0  0  0  0
   44.9496   85.1453   89.1215 N   0  0  0  0  0  0  0  0  0  0  0  0
   46.2142   86.9831   86.3536 O   0  0  0  0  0  0  0  0  0  0  0  0
   45.4826   86.3645   88.5424 C   0  0  1  0  0  0  0  0  0  0  0  0
   46.7243   86.8909   89.1028 C   0  0  0  0  0  0  0  0  0  0  0  0
   49.2424   87.0860   89.1972 C   0  0  0  0  0  0  0  0  0  0  0  0
   49.8718   86.0606   90.1287 C   0  0  0  0  0  0  0  0  0  0  0  0
   48.0364   86.4502   88.5793 C   0  0  0  0  0  0  0  0  0  0  0  0
   44.3942   87.4117   88.8132 C   0  0  0  0  0  0  0  0  0  0  0  0
   44.6349   85.3099   86.4679 N   0  0  0  0  0  0  0  0  0  0  0  0
   44.4546   85.1663   85.0508 C   0  0  2  0  0  0  0  0  0  0  0  0
   43.0091   85.1002   84.7697 C   0  0  0  0  0  0  0  0  0  0  0  0
   42.5602   84.1593   84.0880 O   0  0  0  0  0  0  0  0  0  0  0  0
   45.2050   83.9575   84.5413 C   0  0  0  0  0  0  0  0  0  0  0  0
   45.1238   82.7862   85.4305 C   0  0  0  0  0  0  0  0  0  0  0  0
   45.0361   81.4749   85.0263 C   0  0  0  0  0  0  0  0  0  0  0  0
   45.1433   83.0305   86.8096 C   0  0  0  0  0  0  0  0  0  0  0  0
   44.9685   80.4359   85.9209 C   0  0  0  0  0  0  0  0  0  0  0  0
   45.0766   82.0197   87.7214 C   0  0  0  0  0  0  0  0  0  0  0  0
   44.9888   80.7080   87.2662 C   0  0  0  0  0  0  0  0  0  0  0  0
   42.1454   86.0942   85.2683 N   0  0  0  0  0  0  0  0  0  0  0  0
   41.1731   86.7565   84.4512 C   0  0  2  0  0  0  0  0  0  0  0  0
   41.4979   86.6336   83.0332 C   0  0  0  0  0  0  0  0  0  0  0  0
   40.6767   86.2110   82.2052 O   0  0  0  0  0  0  0  0  0  0  0  0
   40.7078   88.0456   84.9860 C   0  0  0  0  0  0  0  0  0  0  0  0
   39.3539   88.5138   84.6247 C   0  0  0  0  0  0  0  0  0  0  0  0
   38.8903   89.7356   85.2223 C   0  0  0  0  0  0  0  0  0  0  0  0
   38.5790   90.7702   84.6484 O   0  0  0  0  0  0  0  0  0  0  0  0
   38.7606   89.7898   86.6768 N   0  0  0  0  0  0  0  0  0  0  0  0
   42.8041   87.0180   82.5478 N   0  0  0  0  0  0  0  0  0  0  0  0
   43.1810   88.3979   82.3188 C   0  0  2  0  0  0  0  0  0  0  0  0
   42.4193   89.1366   81.3367 C   0  0  0  0  0  0  0  0  0  0  0  0
   42.0856   90.3098   81.3778 O   0  0  0  0  0  0  0  0  0  0  0  0
   44.6621   88.4974   82.3043 C   0  0  0  0  0  0  0  0  0  0  0  0
   45.4387   88.3642   83.5261 C   0  0  0  0  0  0  0  0  0  0  0  0
   45.5783   89.5277   84.4076 C   0  0  0  0  0  0  0  0  0  0  0  0
   46.8631   89.8835   84.8722 N   0  0  0  0  0  0  0  0  0  0  0  0
   47.3814   89.3900   86.1129 C   0  0  0  0  0  0  0  0  0  0  0  0
   47.5235   90.1796   87.1247 N   0  0  0  0  0  0  0  0  0  0  0  0
   47.7321   88.0250   86.1778 N   0  0  0  0  0  0  0  0  0  0  0  0
   51.9268   70.5698   99.9340 H   0  0  0  0  0  0  0  0  0  0  0  0
   53.5648   87.5307   98.5214 H   0  0  0  0  0  0  0  0  0  0  0  0
   47.2331   91.1718   87.0159 H   0  0  0  0  0  0  0  0  0  0  0  0
  2  1  1  0
  3  2  1  0
  2  5  1  6
  3  4  2  0
  6  3  1  0
  7  6  1  0
  8  7  1  0
  7 10  1  1
  8  9  2  0
 17  8  1  0
 10 11  1  0
 11 12  1  0
 12 13  1  0
 13 14  1  0
 14 15  1  0
 14 16  2  0
 18 17  1  0
 19 18  1  0
 18 21  1  6
 19 20  2  0
 29 19  1  0
 21 22  1  0
 22 23  2  0
 22 24  1  0
 23 25  1  0
 24 26  2  0
 25 27  2  0
 26 27  1  0
 27 28  1  0
 30 29  1  0
 31 30  1  0
 30 33  1  1
 31 32  2  0
 35 31  1  0
 33 34  1  0
 36 35  1  0
 37 36  1  0
 36 39  1  6
 37 38  2  0
 46 37  1  0
 39 40  1  0
 40 41  1  0
 41 42  1  0
 42 43  1  0
 43 44  2  0
 43 45  1  0
 47 46  1  0
 48 47  1  0
 47 50  1  1
 48 49  2  0
 55 48  1  0
 50 51  1  0
 51 52  1  0
 52 53  1  0
 52 54  2  0
 56 55  1  0
 57 56  1  0
 56 59  1  1
 57 58  2  0
 64 57  1  0
 59 60  1  0
 60 61  1  0
 61 62  2  0
 61 63  1  0
 65 64  1  0
 66 65  1  0
 65 68  1  1
 66 67  2  0
 72 66  1  0
 68 69  1  0
 69 70  1  1
 69 71  1  0
 73 72  1  0
 74 73  1  0
 73 76  1  1
 74 75  2  0
 81 74  1  0
 76 77  1  0
 77 78  1  6
 77 79  1  0
 80 82  2  0
 83 80  1  0
 80 89  1  0
 83 81  1  0
 84 83  1  0
 83 88  1  6
 87 84  1  0
 85 86  1  0
 85 87  1  0
 89 90  1  0
 90 91  1  0
 90 93  1  1
 91 92  2  0
 91100  1  0
 93 94  1  0
 94 95  2  0
 94 96  1  0
 95 97  1  0
 96 98  2  0
 97 99  2  0
 98 99  1  0
100101  1  0
101102  1  0
101104  1  1
102103  2  0
102109  1  0
104105  1  0
105106  1  0
106107  2  0
106108  1  0
109110  1  0
110111  1  0
110113  1  6
111112  2  0
113114  1  0
114115  1  0
115116  1  0
116117  1  0
117118  2  0
117119  1  0
 16120  1  0
 44121  1  0
118122  1  0
M  CHG  1   1   1
M  END
$$$$
