
     RDKit          3D

122123  0  0  0  0  0  0  0  0999 V2000
   55.9936   73.4730  101.3796 N   0  0  0  0  0  4  0  0  0  0  0  0
   55.5285   74.3215  100.3012 C   0  0  2  0  0  0  0  0  0  0  0  0
   54.3678   75.1520  100.6625 C   0  0  0  0  0  0  0  0  0  0  0  0
   53.2685   74.5540  100.8324 O   0  0  0  0  0  0  0  0  0  0  0  0
   55.2789   73.5690   99.0379 C   0  0  0  0  0  0  0  0  0  0  0  0
   54.3693   76.5477  100.8338 N   0  0  0  0  0  0  0  0  0  0  0  0
   53.2257   77.3318  101.2387 C   0  0  2  0  0  0  0  0  0  0  0  0
   52.4282   77.6787  100.0440 C   0  0  0  0  0  0  0  0  0  0  0  0
   52.6682   77.0690   98.9737 O   0  0  0  0  0  0  0  0  0  0  0  0
   53.6571   78.5579  102.0278 C   0  0  0  0  0  0  0  0  0  0  0  0
   55.1394   78.5942  102.1281 C   0  0  0  0  0  0  0  0  0  0  0  0
   55.6961   79.9360  101.7825 C   0  0  0  0  0  0  0  0  0  0  0  0
   57.0979   80.1214  101.8732 N   0  0  0  0  0  0  0  0  0  0  0  0
   57.7633   81.3186  101.5405 C   0  0  0  0  0  0  0  0  0  0  0  0
   57.1326   82.4477  100.9991 N   0  0  0  0  0  0  0  0  0  0  0  0
   59.0451   81.3706  101.7305 N   0  0  0  0  0  0  0  0  0  0  0  0
   51.3889   78.6742  100.0396 N   0  0  0  0  0  0  0  0  0  0  0  0
   50.3827   78.8128   99.0471 C   0  0  2  0  0  0  0  0  0  0  0  0
   50.2980   80.0513   98.3090 C   0  0  0  0  0  0  0  0  0  0  0  0
   50.0132   81.1027   98.9735 O   0  0  0  0  0  0  0  0  0  0  0  0
   49.0237   78.2101   99.3722 C   0  0  0  0  0  0  0  0  0  0  0  0
   48.0740   78.5363   98.2732 C   0  0  0  0  0  0  0  0  0  0  0  0
   47.9841   77.8739   97.0822 C   0  0  0  0  0  0  0  0  0  0  0  0
   47.1942   79.6176   98.4400 C   0  0  0  0  0  0  0  0  0  0  0  0
   47.0984   78.2049   96.0640 C   0  0  0  0  0  0  0  0  0  0  0  0
   46.3119   79.9630   97.4493 C   0  0  0  0  0  0  0  0  0  0  0  0
   46.2580   79.2668   96.2651 C   0  0  0  0  0  0  0  0  0  0  0  0
   45.3501   79.6353   95.2598 O   0  0  0  0  0  0  0  0  0  0  0  0
   50.4872   80.2731   96.9164 N   0  0  0  0  0  0  0  0  0  0  0  0
   50.4102   81.5955   96.3465 C   0  0  2  0  0  0  0  0  0  0  0  0
   50.7710   81.4638   94.8875 C   0  0  0  0  0  0  0  0  0  0  0  0
   50.2474   82.2962   94.1336 O   0  0  0  0  0  0  0  0  0  0  0  0
   51.1432   82.6549   97.0590 C   0  0  0  0  0  0  0  0  0  0  0  0
   52.4987   82.3294   97.0588 O   0  0  0  0  0  0  0  0  0  0  0  0
   51.6327   80.4712   94.4059 N   0  0  0  0  0  0  0  0  0  0  0  0
   51.4950   79.5886   93.3204 C   0  0  2  0  0  0  0  0  0  0  0  0
   50.1476   79.2536   92.8654 C   0  0  0  0  0  0  0  0  0  0  0  0
   49.9502   79.2738   91.6070 O   0  0  0  0  0  0  0  0  0  0  0  0
   52.4966   78.4479   93.1906 C   0  0  0  0  0  0  0  0  0  0  0  0
   52.4860   77.7445   91.8915 C   0  0  0  0  0  0  0  0  0  0  0  0
   53.4928   76.6292   91.7441 C   0  0  0  0  0  0  0  0  0  0  0  0
   53.5228   76.0364   90.4355 N   0  0  0  0  0  0  0  0  0  0  0  0
   54.2170   76.6108   89.3400 C   0  0  0  0  0  0  0  0  0  0  0  0
   55.3341   77.2065   89.6283 N   0  0  0  0  0  0  0  0  0  0  0  0
   53.7336   76.5465   88.0051 N   0  0  0  0  0  0  0  0  0  0  0  0
   49.0362   78.9125   93.6526 N   0  0  0  0  0  0  0  0  0  0  0  0
   47.7351   78.5788   93.0054 C   0  0  2  0  0  0  0  0  0  0  0  0
   47.0471   79.8679   92.7866 C   0  0  0  0  0  0  0  0  0  0  0  0
   45.9218   79.8014   92.1957 O   0  0  0  0  0  0  0  0  0  0  0  0
   47.0547   77.7041   93.9915 C   0  0  0  0  0  0  0  0  0  0  0  0
   45.7034   77.1909   93.8187 C   0  0  0  0  0  0  0  0  0  0  0  0
   44.5291   78.0239   93.8680 C   0  0  0  0  0  0  0  0  0  0  0  0
   44.5230   79.2583   93.2041 O   0  0  0  0  0  0  0  0  0  0  0  0
   43.4971   77.6982   94.4869 O   0  0  0  0  0  0  0  0  0  0  0  0
   47.5772   81.1177   93.1967 N   0  0  0  0  0  0  0  0  0  0  0  0
   46.8333   82.3291   93.3063 C   0  0  2  0  0  0  0  0  0  0  0  0
   47.2842   83.3066   92.2897 C   0  0  0  0  0  0  0  0  0  0  0  0
   46.6912   84.3431   92.0172 O   0  0  0  0  0  0  0  0  0  0  0  0
   46.6903   82.8920   94.6785 C   0  0  0  0  0  0  0  0  0  0  0  0
   45.8973   84.1415   94.7065 C   0  0  0  0  0  0  0  0  0  0  0  0
   44.4470   84.0438   94.6076 C   0  0  0  0  0  0  0  0  0  0  0  0
   43.6838   84.8620   95.1383 O   0  0  0  0  0  0  0  0  0  0  0  0
   43.8451   82.9568   93.8604 N   0  0  0  0  0  0  0  0  0  0  0  0
   48.4913   83.0563   91.5476 N   0  0  0  0  0  0  0  0  0  0  0  0
   48.8191   83.8419   90.4005 C   0  0  2  0  0  0  0  0  0  0  0  0
   48.2379   83.1571   89.1818 C   0  0  0  0  0  0  0  0  0  0  0  0
   48.6906   83.4596   88.0722 O   0  0  0  0  0  0  0  0  0  0  0  0
   50.2415   84.1654   90.2850 C   0  0  0  0  0  0  0  0  0  0  0  0
   50.9446   84.7866   91.4338 C   0  0  1  0  0  0  0  0  0  0  0  0
   50.8921   83.7180   92.5621 C   0  0  0  0  0  0  0  0  0  0  0  0
   52.4026   85.0676   91.2470 C   0  0  0  0  0  0  0  0  0  0  0  0
   47.2202   82.2130   89.3013 N   0  0  0  0  0  0  0  0  0  0  0  0
   46.3855   81.6080   88.3563 C   0  0  2  0  0  0  0  0  0  0  0  0
   45.2269   82.2074   87.7664 C   0  0  0  0  0  0  0  0  0  0  0  0
   45.1355   82.1309   86.4703 O   0  0  0  0  0  0  0  0  0  0  0  0
   46.1849   80.1832   88.8063 C   0  0  0  0  0  0  0  0  0  0  0  0
   47.2455   79.1965   88.5624 C   0  0  1  0  0  0  0  0  0  0  0  0
   48.6035   79.5880   89.0773 C   0  0  0  0  0  0  0  0  0  0  0  0
   46.8120   77.9461   89.4214 C   0  0  0  0  0  0  0  0  0  0  0  0
   43.0083   84.9574   87.6853 C   0  0  0  0  0  0  0  0  0  0  0  0
   44.1220   82.8950   88.2888 N   0  0  0  0  0  0  0  0  0  0  0  0
   42.1002   85.5025   88.3242 O   0  0  0  0  0  0  0  0  0  0  0  0
   43.0373   83.4615   87.5088 C   0  0  1  0  0  0  0  0  0  0  0  0
   41.7272   82.8242   87.6125 C   0  0  0  0  0  0  0  0  0  0  0  0
   39.4240   82.5717   88.6220 C   0  0  0  0  0  0  0  0  0  0  0  0
   38.9076   82.4737   87.1940 C   0  0  0  0  0  0  0  0  0  0  0  0
   40.7215   83.3169   88.5797 C   0  0  0  0  0  0  0  0  0  0  0  0
   43.4983   83.2949   86.0547 C   0  0  0  0  0  0  0  0  0  0  0  0
   44.0462   85.6871   87.1053 N   0  0  0  0  0  0  0  0  0  0  0  0
   44.0659   87.1217   87.0501 C   0  0  2  0  0  0  0  0  0  0  0  0
   44.2580   87.5311   85.6471 C   0  0  0  0  0  0  0  0  0  0  0  0
   45.2793   87.1636   85.0362 O   0  0  0  0  0  0  0  0  0  0  0  0
   45.1304   87.6724   87.9706 C   0  0  0  0  0  0  0  0  0  0  0  0
   45.5114   86.7554   89.0583 C   0  0  0  0  0  0  0  0  0  0  0  0
   46.7514   86.6791   89.6478 C   0  0  0  0  0  0  0  0  0  0  0  0
   44.5210   85.8887   89.5375 C   0  0  0  0  0  0  0  0  0  0  0  0
   47.0264   85.7971   90.6630 C   0  0  0  0  0  0  0  0  0  0  0  0
   44.7648   85.0019   90.5433 C   0  0  0  0  0  0  0  0  0  0  0  0
   46.0346   84.9599   91.1100 C   0  0  0  0  0  0  0  0  0  0  0  0
   43.2936   88.3318   85.0057 N   0  0  0  0  0  0  0  0  0  0  0  0
   43.5872   89.1175   83.8444 C   0  0  2  0  0  0  0  0  0  0  0  0
   44.7260   88.5749   83.1095 C   0  0  0  0  0  0  0  0  0  0  0  0
   45.8950   88.7534   83.4837 O   0  0  0  0  0  0  0  0  0  0  0  0
   43.4739   90.5698   84.0498 C   0  0  0  0  0  0  0  0  0  0  0  0
   42.7084   91.3652   83.0679 C   0  0  0  0  0  0  0  0  0  0  0  0
   43.3271   91.6306   81.7985 C   0  0  0  0  0  0  0  0  0  0  0  0
   42.7999   91.5965   80.6951 O   0  0  0  0  0  0  0  0  0  0  0  0
   44.7444   91.9860   81.7793 N   0  0  0  0  0  0  0  0  0  0  0  0
   44.5161   87.7932   81.9119 N   0  0  0  0  0  0  0  0  0  0  0  0
   45.5283   87.6418   80.8865 C   0  0  2  0  0  0  0  0  0  0  0  0
   46.0946   88.8516   80.3336 C   0  0  0  0  0  0  0  0  0  0  0  0
   46.7348   88.9732   79.3017 O   0  0  0  0  0  0  0  0  0  0  0  0
   45.1222   86.5508   79.9653 C   0  0  0  0  0  0  0  0  0  0  0  0
   45.2757   85.1537   80.3371 C   0  0  0  0  0  0  0  0  0  0  0  0
   45.8235   84.8278   81.6577 C   0  0  0  0  0  0  0  0  0  0  0  0
   45.8116   83.4840   82.0903 N   0  0  0  0  0  0  0  0  0  0  0  0
   44.6058   82.7117   82.1243 C   0  0  0  0  0  0  0  0  0  0  0  0
   43.6227   82.9956   81.3367 N   0  0  0  0  0  0  0  0  0  0  0  0
   44.5374   81.6476   83.0480 N   0  0  0  0  0  0  0  0  0  0  0  0
   59.6027   80.5842  102.1110 H   0  0  0  0  0  0  0  0  0  0  0  0
   55.6190   77.2422   90.6367 H   0  0  0  0  0  0  0  0  0  0  0  0
   43.4814   83.9900   81.0689 H   0  0  0  0  0  0  0  0  0  0  0  0
  2  1  1  0
  3  2  1  0
  2  5  1  6
  3  4  2  0
  6  3  1  0
  7  6  1  0
  8  7  1  0
  7 10  1  6
  8  9  2  0
 17  8  1  0
 10 11  1  0
 11 12  1  0
 12 13  1  0
 13 14  1  0
 14 15  1  0
 14 16  2  0
 18 17  1  0
 19 18  1  0
 18 21  1  1
 19 20  2  0
 29 19  1  0
 21 22  1  0
 22 23  2  0
 22 24  1  0
 23 25  1  0
 24 26  2  0
 25 27  2  0
 26 27  1  0
 27 28  1  0
 30 29  1  0
 31 30  1  0
 30 33  1  1
 31 32  2  0
 35 31  1  0
 33 34  1  0
 36 35  1  0
 37 36  1  0
 36 39  1  1
 37 38  2  0
 46 37  1  0
 39 40  1  0
 40 41  1  0
 41 42  1  0
 42 43  1  0
 43 44  2  0
 43 45  1  0
 47 46  1  0
 48 47  1  0
 47 50  1  1
 48 49  2  0
 55 48  1  0
 50 51  1  0
 51 52  1  0
 52 53  1  0
 52 54  2  0
 56 55  1  0
 57 56  1  0
 56 59  1  1
 57 58  2  0
 64 57  1  0
 59 60  1  0
 60 61  1  0
 61 62  2  0
 61 63  1  0
 65 64  1  0
 66 65  1  0
 65 68  1  6
 66 67  2  0
 72 66  1  0
 68 69  1  0
 69 70  1  1
 69 71  1  0
 73 72  1  0
 74 73  1  0
 73 76  1  1
 74 75  2  0
 81 74  1  0
 76 77  1  0
 77 78  1  1
 77 79  1  0
 80 82  2  0
 83 80  1  0
 80 89  1  0
 83 81  1  0
 84 83  1  0
 83 88  1  6
 87 84  1  0
 85 86  1  0
 85 87  1  0
 89 90  1  0
 90 91  1  0
 90 93  1  1
 91 92  2  0
 91100  1  0
 93 94  1  0
 94 95  2  0
 94 96  1  0
 95 97  1  0
 96 98  2  0
 97 99  2  0
 98 99  1  0
100101  1  0
101102  1  0
101104  1  1
102103  2  0
102109  1  0
104105  1  0
105106  1  0
106107  2  0
106108  1  0
109110  1  0
110111  1  0
110113  1  6
111112  2  0
113114  1  0
114115  1  0
115116  1  0
116117  1  0
117118  2  0
117119  1  0
 16120  1  0
 44121  1  0
118122  1  0
M  CHG  1   1   1
M  END
$$$$
