
     RDKit          3D

122123  0  0  0  0  0  0  0  0999 V2000
   56.5827   79.5309   91.0627 N   0  0  0  0  0  4  0  0  0  0  0  0
   55.4473   79.7865   90.1998 C   0  0  2  0  0  0  0  0  0  0  0  0
   54.1480   79.5291   90.8425 C   0  0  0  0  0  0  0  0  0  0  0  0
   53.1292   80.0348   90.2937 O   0  0  0  0  0  0  0  0  0  0  0  0
   55.5466   79.0843   88.8878 C   0  0  0  0  0  0  0  0  0  0  0  0
   53.9367   78.7748   92.0104 N   0  0  0  0  0  0  0  0  0  0  0  0
   52.6519   78.5609   92.6348 C   0  0  2  0  0  0  0  0  0  0  0  0
   52.4584   79.5643   93.7023 C   0  0  0  0  0  0  0  0  0  0  0  0
   53.3822   79.7286   94.5356 O   0  0  0  0  0  0  0  0  0  0  0  0
   52.5247   77.1344   93.1455 C   0  0  0  0  0  0  0  0  0  0  0  0
   53.0517   77.0491   94.5324 C   0  0  0  0  0  0  0  0  0  0  0  0
   54.4618   77.5302   94.6313 C   0  0  0  0  0  0  0  0  0  0  0  0
   55.1654   77.2938   95.8382 N   0  0  0  0  0  0  0  0  0  0  0  0
   54.8938   76.2279   96.7196 C   0  0  0  0  0  0  0  0  0  0  0  0
   55.6464   75.0467   96.7849 N   0  0  0  0  0  0  0  0  0  0  0  0
   53.8698   76.3408   97.5072 N   0  0  0  0  0  0  0  0  0  0  0  0
   51.2713   80.3665   93.8380 N   0  0  0  0  0  0  0  0  0  0  0  0
   51.1154   81.4672   94.7216 C   0  0  2  0  0  0  0  0  0  0  0  0
   50.6294   81.2233   96.0596 C   0  0  0  0  0  0  0  0  0  0  0  0
   50.8667   80.0741   96.5609 O   0  0  0  0  0  0  0  0  0  0  0  0
   50.5814   82.7548   94.1112 C   0  0  0  0  0  0  0  0  0  0  0  0
   50.6494   83.8382   95.1299 C   0  0  0  0  0  0  0  0  0  0  0  0
   49.9725   85.0230   95.0717 C   0  0  0  0  0  0  0  0  0  0  0  0
   51.4800   83.6623   96.2479 C   0  0  0  0  0  0  0  0  0  0  0  0
   50.0620   86.0268   96.0283 C   0  0  0  0  0  0  0  0  0  0  0  0
   51.5847   84.6387   97.2045 C   0  0  0  0  0  0  0  0  0  0  0  0
   50.8840   85.8171   97.1029 C   0  0  0  0  0  0  0  0  0  0  0  0
   51.0044   86.8079   98.0902 O   0  0  0  0  0  0  0  0  0  0  0  0
   49.9052   82.0972   96.9175 N   0  0  0  0  0  0  0  0  0  0  0  0
   49.6408   81.7549   98.2932 C   0  0  2  0  0  0  0  0  0  0  0  0
   48.1540   81.9030   98.5019 C   0  0  0  0  0  0  0  0  0  0  0  0
   47.7552   81.6853   99.6548 O   0  0  0  0  0  0  0  0  0  0  0  0
   50.4658   82.4372   99.3036 C   0  0  0  0  0  0  0  0  0  0  0  0
   50.9629   83.6137   98.7452 O   0  0  0  0  0  0  0  0  0  0  0  0
   47.2750   82.2567   97.4714 N   0  0  0  0  0  0  0  0  0  0  0  0
   45.8712   82.3303   97.4518 C   0  0  2  0  0  0  0  0  0  0  0  0
   45.1394   81.3928   96.6032 C   0  0  0  0  0  0  0  0  0  0  0  0
   45.5434   80.1847   96.6092 O   0  0  0  0  0  0  0  0  0  0  0  0
   45.2224   83.7042   97.5642 C   0  0  0  0  0  0  0  0  0  0  0  0
   45.5037   84.4336   98.8177 C   0  0  0  0  0  0  0  0  0  0  0  0
   44.8864   85.8070   98.9273 C   0  0  0  0  0  0  0  0  0  0  0  0
   44.4110   86.3366   97.6790 N   0  0  0  0  0  0  0  0  0  0  0  0
   43.8927   87.6497   97.5411 C   0  0  0  0  0  0  0  0  0  0  0  0
   44.7644   88.5775   97.2852 N   0  0  0  0  0  0  0  0  0  0  0  0
   42.5092   87.9473   97.6716 N   0  0  0  0  0  0  0  0  0  0  0  0
   44.0390   81.6648   95.7746 N   0  0  0  0  0  0  0  0  0  0  0  0
   43.8651   80.9213   94.4939 C   0  0  2  0  0  0  0  0  0  0  0  0
   44.3200   81.8366   93.4271 C   0  0  0  0  0  0  0  0  0  0  0  0
   44.1184   81.4403   92.2346 O   0  0  0  0  0  0  0  0  0  0  0  0
   42.4122   80.6264   94.4418 C   0  0  0  0  0  0  0  0  0  0  0  0
   41.5492   80.6088   95.6141 C   0  0  0  0  0  0  0  0  0  0  0  0
   42.0081   80.2367   96.9280 C   0  0  0  0  0  0  0  0  0  0  0  0
   41.6991   78.9692   97.4402 O   0  0  0  0  0  0  0  0  0  0  0  0
   42.6772   81.0017   97.6499 O   0  0  0  0  0  0  0  0  0  0  0  0
   44.9439   83.0848   93.6798 N   0  0  0  0  0  0  0  0  0  0  0  0
   45.4604   83.9619   92.6814 C   0  0  2  0  0  0  0  0  0  0  0  0
   46.9238   83.7839   92.5436 C   0  0  0  0  0  0  0  0  0  0  0  0
   47.5245   83.8025   91.4763 O   0  0  0  0  0  0  0  0  0  0  0  0
   45.0195   85.3830   92.7615 C   0  0  0  0  0  0  0  0  0  0  0  0
   43.5656   85.5202   93.0025 C   0  0  0  0  0  0  0  0  0  0  0  0
   42.9989   86.8604   93.0751 C   0  0  0  0  0  0  0  0  0  0  0  0
   41.7995   87.0680   93.3032 O   0  0  0  0  0  0  0  0  0  0  0  0
   43.8512   88.0170   92.8803 N   0  0  0  0  0  0  0  0  0  0  0  0
   47.7282   83.5671   93.7168 N   0  0  0  0  0  0  0  0  0  0  0  0
   49.1287   83.3094   93.6043 C   0  0  2  0  0  0  0  0  0  0  0  0
   49.3052   81.9619   92.9372 C   0  0  0  0  0  0  0  0  0  0  0  0
   49.5108   80.9781   93.6567 O   0  0  0  0  0  0  0  0  0  0  0  0
   49.8658   83.4580   94.8596 C   0  0  0  0  0  0  0  0  0  0  0  0
   51.3468   83.3783   94.8506 C   0  0  1  0  0  0  0  0  0  0  0  0
   51.7911   84.0131   96.1987 C   0  0  0  0  0  0  0  0  0  0  0  0
   51.9381   82.0036   94.8672 C   0  0  0  0  0  0  0  0  0  0  0  0
   49.2406   81.8285   91.5518 N   0  0  0  0  0  0  0  0  0  0  0  0
   48.8090   80.7837   90.7285 C   0  0  2  0  0  0  0  0  0  0  0  0
   48.1070   80.9373   89.4903 C   0  0  0  0  0  0  0  0  0  0  0  0
   46.8258   81.1502   89.5771 O   0  0  0  0  0  0  0  0  0  0  0  0
   48.2377   79.7252   91.6375 C   0  0  0  0  0  0  0  0  0  0  0  0
   47.3447   78.7023   91.0770 C   0  0  1  0  0  0  0  0  0  0  0  0
   48.0412   77.5866   90.3469 C   0  0  0  0  0  0  0  0  0  0  0  0
   46.6855   78.0317   92.3438 C   0  0  0  0  0  0  0  0  0  0  0  0
   46.9334   82.1190   86.7589 C   0  0  0  0  0  0  0  0  0  0  0  0
   48.5008   80.9024   88.1449 N   0  0  0  0  0  0  0  0  0  0  0  0
   46.4268   83.2285   86.5527 O   0  0  0  0  0  0  0  0  0  0  0  0
   48.3685   81.9961   87.2003 C   0  0  1  0  0  0  0  0  0  0  0  0
   49.3355   82.0647   86.1079 C   0  0  0  0  0  0  0  0  0  0  0  0
   49.6418   84.0606   84.5880 C   0  0  0  0  0  0  0  0  0  0  0  0
   50.5659   85.2602   84.4385 C   0  0  0  0  0  0  0  0  0  0  0  0
   50.0622   83.3211   85.8196 C   0  0  0  0  0  0  0  0  0  0  0  0
   48.5750   83.2533   88.0556 C   0  0  0  0  0  0  0  0  0  0  0  0
   46.2154   80.9349   86.5907 N   0  0  0  0  0  0  0  0  0  0  0  0
   44.8478   80.8976   86.1551 C   0  0  2  0  0  0  0  0  0  0  0  0
   43.9888   80.6914   87.3351 C   0  0  0  0  0  0  0  0  0  0  0  0
   42.7563   80.8364   87.2283 O   0  0  0  0  0  0  0  0  0  0  0  0
   44.6569   79.8327   85.1000 C   0  0  0  0  0  0  0  0  0  0  0  0
   45.2869   80.1532   83.8079 C   0  0  0  0  0  0  0  0  0  0  0  0
   46.4356   79.5837   83.3106 C   0  0  0  0  0  0  0  0  0  0  0  0
   44.6566   81.1195   83.0138 C   0  0  0  0  0  0  0  0  0  0  0  0
   46.9581   79.9349   82.0908 C   0  0  0  0  0  0  0  0  0  0  0  0
   45.1524   81.4894   81.7993 C   0  0  0  0  0  0  0  0  0  0  0  0
   46.3175   80.8862   81.3365 C   0  0  0  0  0  0  0  0  0  0  0  0
   44.5596   80.3343   88.5718 N   0  0  0  0  0  0  0  0  0  0  0  0
   43.7765   80.1052   89.7491 C   0  0  2  0  0  0  0  0  0  0  0  0
   43.0092   81.2916   90.1163 C   0  0  0  0  0  0  0  0  0  0  0  0
   42.2694   81.3138   91.1117 O   0  0  0  0  0  0  0  0  0  0  0  0
   44.4620   79.3257   90.7917 C   0  0  0  0  0  0  0  0  0  0  0  0
   44.1494   77.8875   90.9197 C   0  0  0  0  0  0  0  0  0  0  0  0
   45.0642   76.9517   90.3263 C   0  0  0  0  0  0  0  0  0  0  0  0
   45.2564   76.7573   89.1338 O   0  0  0  0  0  0  0  0  0  0  0  0
   45.8761   76.1199   91.2118 N   0  0  0  0  0  0  0  0  0  0  0  0
   43.1018   82.4954   89.3214 N   0  0  0  0  0  0  0  0  0  0  0  0
   42.3385   83.6909   89.6164 C   0  0  2  0  0  0  0  0  0  0  0  0
   42.2200   84.6754   88.5643 C   0  0  0  0  0  0  0  0  0  0  0  0
   42.5751   84.5726   87.4012 O   0  0  0  0  0  0  0  0  0  0  0  0
   42.6637   84.1435   90.9923 C   0  0  0  0  0  0  0  0  0  0  0  0
   43.4010   85.3743   91.2267 C   0  0  0  0  0  0  0  0  0  0  0  0
   42.9757   86.5974   90.5386 C   0  0  0  0  0  0  0  0  0  0  0  0
   43.9173   87.3089   89.7639 N   0  0  0  0  0  0  0  0  0  0  0  0
   43.5839   88.5401   89.1124 C   0  0  0  0  0  0  0  0  0  0  0  0
   43.2308   89.5727   89.8027 N   0  0  0  0  0  0  0  0  0  0  0  0
   43.6498   88.5725   87.7035 N   0  0  0  0  0  0  0  0  0  0  0  0
   53.3502   77.2257   97.6521 H   0  0  0  0  0  0  0  0  0  0  0  0
   44.8483   88.9042   96.2925 H   0  0  0  0  0  0  0  0  0  0  0  0
   43.0288   89.4400   90.8137 H   0  0  0  0  0  0  0  0  0  0  0  0
  2  1  1  0
  3  2  1  0
  2  5  1  6
  3  4  2  0
  6  3  1  0
  7  6  1  0
  8  7  1  0
  7 10  1  1
  8  9  2  0
 17  8  1  0
 10 11  1  0
 11 12  1  0
 12 13  1  0
 13 14  1  0
 14 15  1  0
 14 16  2  0
 18 17  1  0
 19 18  1  0
 18 21  1  6
 19 20  2  0
 29 19  1  0
 21 22  1  0
 22 23  2  0
 22 24  1  0
 23 25  1  0
 24 26  2  0
 25 27  2  0
 26 27  1  0
 27 28  1  0
 30 29  1  0
 31 30  1  0
 30 33  1  1
 31 32  2  0
 35 31  1  0
 33 34  1  0
 36 35  1  0
 37 36  1  0
 36 39  1  6
 37 38  2  0
 46 37  1  0
 39 40  1  0
 40 41  1  0
 41 42  1  0
 42 43  1  0
 43 44  2  0
 43 45  1  0
 47 46  1  0
 48 47  1  0
 47 50  1  6
 48 49  2  0
 55 48  1  0
 50 51  1  0
 51 52  1  0
 52 53  1  0
 52 54  2  0
 56 55  1  0
 57 56  1  0
 56 59  1  1
 57 58  2  0
 64 57  1  0
 59 60  1  0
 60 61  1  0
 61 62  2  0
 61 63  1  0
 65 64  1  0
 66 65  1  0
 65 68  1  1
 66 67  2  0
 72 66  1  0
 68 69  1  0
 69 70  1  1
 69 71  1  0
 73 72  1  0
 74 73  1  0
 73 76  1  1
 74 75  2  0
 81 74  1  0
 76 77  1  0
 77 78  1  1
 77 79  1  0
 80 82  2  0
 83 80  1  0
 80 89  1  0
 83 81  1  0
 84 83  1  0
 83 88  1  1
 87 84  1  0
 85 86  1  0
 85 87  1  0
 89 90  1  0
 90 91  1  0
 90 93  1  6
 91 92  2  0
 91100  1  0
 93 94  1  0
 94 95  2  0
 94 96  1  0
 95 97  1  0
 96 98  2  0
 97 99  2  0
 98 99  1  0
100101  1  0
101102  1  0
101104  1  1
102103  2  0
102109  1  0
104105  1  0
105106  1  0
106107  2  0
106108  1  0
109110  1  0
110111  1  0
110113  1  1
111112  2  0
113114  1  0
114115  1  0
115116  1  0
116117  1  0
117118  2  0
117119  1  0
 16120  1  0
 44121  1  0
118122  1  0
M  CHG  1   1   1
M  END
$$$$
