
     RDKit          3D

122123  0  0  0  0  0  0  0  0999 V2000
   54.9485   77.2493   99.3666 N   0  0  0  0  0  4  0  0  0  0  0  0
   54.0847   76.5641   98.4267 C   0  0  2  0  0  0  0  0  0  0  0  0
   54.1216   77.1322   97.0690 C   0  0  0  0  0  0  0  0  0  0  0  0
   53.5653   78.2539   96.9039 O   0  0  0  0  0  0  0  0  0  0  0  0
   52.6821   76.4340   98.9171 C   0  0  0  0  0  0  0  0  0  0  0  0
   54.7167   76.5417   95.9400 N   0  0  0  0  0  0  0  0  0  0  0  0
   54.7243   77.1157   94.6145 C   0  0  2  0  0  0  0  0  0  0  0  0
   53.3696   77.6109   94.2929 C   0  0  0  0  0  0  0  0  0  0  0  0
   52.4307   77.3169   95.0717 O   0  0  0  0  0  0  0  0  0  0  0  0
   55.2380   76.1160   93.5904 C   0  0  0  0  0  0  0  0  0  0  0  0
   56.6837   75.8598   93.8206 C   0  0  0  0  0  0  0  0  0  0  0  0
   57.5499   76.8869   93.1690 C   0  0  0  0  0  0  0  0  0  0  0  0
   58.1368   76.5702   91.9188 N   0  0  0  0  0  0  0  0  0  0  0  0
   59.0250   77.4144   91.2224 C   0  0  0  0  0  0  0  0  0  0  0  0
   59.4575   77.1920   89.9074 N   0  0  0  0  0  0  0  0  0  0  0  0
   59.4859   78.4536   91.8465 N   0  0  0  0  0  0  0  0  0  0  0  0
   53.0671   78.4148   93.1381 N   0  0  0  0  0  0  0  0  0  0  0  0
   51.7819   78.9080   92.7894 C   0  0  2  0  0  0  0  0  0  0  0  0
   51.6835   79.9683   91.8137 C   0  0  0  0  0  0  0  0  0  0  0  0
   52.3642   81.0244   92.0361 O   0  0  0  0  0  0  0  0  0  0  0  0
   50.7756   79.0368   93.9237 C   0  0  0  0  0  0  0  0  0  0  0  0
   50.5158   77.6873   94.4959 C   0  0  0  0  0  0  0  0  0  0  0  0
   50.2970   76.5496   93.7726 C   0  0  0  0  0  0  0  0  0  0  0  0
   50.4728   77.5427   95.8917 C   0  0  0  0  0  0  0  0  0  0  0  0
   50.0425   75.3018   94.3286 C   0  0  0  0  0  0  0  0  0  0  0  0
   50.2231   76.3217   96.4630 C   0  0  0  0  0  0  0  0  0  0  0  0
   50.0075   75.2030   95.6936 C   0  0  0  0  0  0  0  0  0  0  0  0
   49.7506   73.9606   96.2946 O   0  0  0  0  0  0  0  0  0  0  0  0
   50.9178   80.0079   90.6152 N   0  0  0  0  0  0  0  0  0  0  0  0
   51.1523   81.0085   89.6036 C   0  0  2  0  0  0  0  0  0  0  0  0
   50.4612   82.2673   90.0661 C   0  0  0  0  0  0  0  0  0  0  0  0
   51.0717   83.3219   89.8409 O   0  0  0  0  0  0  0  0  0  0  0  0
   50.8401   80.6193   88.2186 C   0  0  0  0  0  0  0  0  0  0  0  0
   49.6381   81.2226   87.8518 O   0  0  0  0  0  0  0  0  0  0  0  0
   49.2185   82.2572   90.7104 N   0  0  0  0  0  0  0  0  0  0  0  0
   48.3856   83.3179   91.1075 C   0  0  2  0  0  0  0  0  0  0  0  0
   47.2402   83.0173   91.9633 C   0  0  0  0  0  0  0  0  0  0  0  0
   47.2886   81.9244   92.6162 O   0  0  0  0  0  0  0  0  0  0  0  0
   48.1416   84.4492   90.1168 C   0  0  0  0  0  0  0  0  0  0  0  0
   49.3168   84.8511   89.3168 C   0  0  0  0  0  0  0  0  0  0  0  0
   49.0975   86.0040   88.3671 C   0  0  0  0  0  0  0  0  0  0  0  0
   50.3078   86.5424   87.8104 N   0  0  0  0  0  0  0  0  0  0  0  0
   50.3218   87.5785   86.8417 C   0  0  0  0  0  0  0  0  0  0  0  0
   51.4635   87.7957   86.2627 N   0  0  0  0  0  0  0  0  0  0  0  0
   49.1672   88.3396   86.5140 N   0  0  0  0  0  0  0  0  0  0  0  0
   46.0841   83.7912   92.1525 N   0  0  0  0  0  0  0  0  0  0  0  0
   44.7367   83.1623   92.0423 C   0  0  2  0  0  0  0  0  0  0  0  0
   44.9160   81.9606   91.2017 C   0  0  0  0  0  0  0  0  0  0  0  0
   45.4869   82.1500   90.0800 O   0  0  0  0  0  0  0  0  0  0  0  0
   43.8999   84.2099   91.4075 C   0  0  0  0  0  0  0  0  0  0  0  0
   42.7224   84.7928   92.0345 C   0  0  0  0  0  0  0  0  0  0  0  0
   42.0222   84.1736   93.1306 C   0  0  0  0  0  0  0  0  0  0  0  0
   41.9965   84.8013   94.3836 O   0  0  0  0  0  0  0  0  0  0  0  0
   41.4282   83.0831   93.0210 O   0  0  0  0  0  0  0  0  0  0  0  0
   44.4925   80.6639   91.5891 N   0  0  0  0  0  0  0  0  0  0  0  0
   44.7502   79.4645   90.8625 C   0  0  2  0  0  0  0  0  0  0  0  0
   44.4260   79.6482   89.4295 C   0  0  0  0  0  0  0  0  0  0  0  0
   44.0989   78.7417   88.6736 O   0  0  0  0  0  0  0  0  0  0  0  0
   44.2155   78.2070   91.4567 C   0  0  0  0  0  0  0  0  0  0  0  0
   44.4249   77.0273   90.5876 C   0  0  0  0  0  0  0  0  0  0  0  0
   45.4703   77.0900   89.5747 C   0  0  0  0  0  0  0  0  0  0  0  0
   46.4024   77.9038   89.6252 O   0  0  0  0  0  0  0  0  0  0  0  0
   45.4458   76.1718   88.4530 N   0  0  0  0  0  0  0  0  0  0  0  0
   44.4932   80.9623   88.8472 N   0  0  0  0  0  0  0  0  0  0  0  0
   44.7472   81.1302   87.4515 C   0  0  2  0  0  0  0  0  0  0  0  0
   45.7463   82.2560   87.2892 C   0  0  0  0  0  0  0  0  0  0  0  0
   46.7378   82.0570   86.5786 O   0  0  0  0  0  0  0  0  0  0  0  0
   43.5397   81.2785   86.6386 C   0  0  0  0  0  0  0  0  0  0  0  0
   42.2560   80.7205   87.1294 C   0  0  1  0  0  0  0  0  0  0  0  0
   41.2342   81.0043   85.9922 C   0  0  0  0  0  0  0  0  0  0  0  0
   42.2064   79.2371   87.3204 C   0  0  0  0  0  0  0  0  0  0  0  0
   45.5597   83.4833   87.9219 N   0  0  0  0  0  0  0  0  0  0  0  0
   45.0613   84.7080   87.4663 C   0  0  2  0  0  0  0  0  0  0  0  0
   44.2365   85.6019   88.2213 C   0  0  0  0  0  0  0  0  0  0  0  0
   42.9621   85.3372   88.2347 O   0  0  0  0  0  0  0  0  0  0  0  0
   44.5983   84.4857   86.0489 C   0  0  0  0  0  0  0  0  0  0  0  0
   45.5755   84.0832   85.0285 C   0  0  1  0  0  0  0  0  0  0  0  0
   44.9954   83.3407   83.8559 C   0  0  0  0  0  0  0  0  0  0  0  0
   46.1052   85.4494   84.4436 C   0  0  0  0  0  0  0  0  0  0  0  0
   43.2647   85.8188   90.8387 C   0  0  0  0  0  0  0  0  0  0  0  0
   44.4986   86.7531   88.9780 N   0  0  0  0  0  0  0  0  0  0  0  0
   42.0350   85.9365   90.7752 O   0  0  0  0  0  0  0  0  0  0  0  0
   44.1710   86.9315   90.3804 C   0  0  1  0  0  0  0  0  0  0  0  0
   43.7458   88.2611   90.8100 C   0  0  0  0  0  0  0  0  0  0  0  0
   42.5450   89.1388   88.7667 C   0  0  0  0  0  0  0  0  0  0  0  0
   42.5186   90.3857   87.8949 C   0  0  0  0  0  0  0  0  0  0  0  0
   43.5784   89.3551   89.8278 C   0  0  0  0  0  0  0  0  0  0  0  0
   45.4859   86.6282   91.1110 C   0  0  0  0  0  0  0  0  0  0  0  0
   43.8731   84.6620   91.3261 N   0  0  0  0  0  0  0  0  0  0  0  0
   43.2162   83.7368   92.2058 C   0  0  2  0  0  0  0  0  0  0  0  0
   44.1300   82.6088   92.4619 C   0  0  0  0  0  0  0  0  0  0  0  0
   45.3509   82.7520   92.2613 O   0  0  0  0  0  0  0  0  0  0  0  0
   41.8943   83.2968   91.6203 C   0  0  0  0  0  0  0  0  0  0  0  0
   41.1730   82.3142   92.4469 C   0  0  0  0  0  0  0  0  0  0  0  0
   39.9983   82.5420   93.1245 C   0  0  0  0  0  0  0  0  0  0  0  0
   41.7307   81.0333   92.5464 C   0  0  0  0  0  0  0  0  0  0  0  0
   39.3840   81.5687   93.8726 C   0  0  0  0  0  0  0  0  0  0  0  0
   41.1444   80.0473   93.2823 C   0  0  0  0  0  0  0  0  0  0  0  0
   39.9562   80.3234   93.9513 C   0  0  0  0  0  0  0  0  0  0  0  0
   43.6238   81.3805   92.9285 N   0  0  0  0  0  0  0  0  0  0  0  0
   44.3903   80.4865   93.7442 C   0  0  2  0  0  0  0  0  0  0  0  0
   45.8162   80.5869   93.4478 C   0  0  0  0  0  0  0  0  0  0  0  0
   46.2431   80.6467   92.2847 O   0  0  0  0  0  0  0  0  0  0  0  0
   43.7749   79.1646   93.9392 C   0  0  0  0  0  0  0  0  0  0  0  0
   44.3787   78.2417   94.9223 C   0  0  0  0  0  0  0  0  0  0  0  0
   43.6788   77.0191   95.2053 C   0  0  0  0  0  0  0  0  0  0  0  0
   42.4756   76.8162   95.1177 O   0  0  0  0  0  0  0  0  0  0  0  0
   44.4549   75.8633   95.6495 N   0  0  0  0  0  0  0  0  0  0  0  0
   46.7833   80.6305   94.5213 N   0  0  0  0  0  0  0  0  0  0  0  0
   48.2005   80.4168   94.3096 C   0  0  2  0  0  0  0  0  0  0  0  0
   48.6439   79.0518   94.1350 C   0  0  0  0  0  0  0  0  0  0  0  0
   49.3476   78.6028   93.2446 O   0  0  0  0  0  0  0  0  0  0  0  0
   48.9638   81.3111   95.2158 C   0  0  0  0  0  0  0  0  0  0  0  0
   48.4284   81.7115   96.5068 C   0  0  0  0  0  0  0  0  0  0  0  0
   48.9421   82.9302   97.1401 C   0  0  0  0  0  0  0  0  0  0  0  0
   48.0417   83.9736   97.4461 N   0  0  0  0  0  0  0  0  0  0  0  0
   48.4618   85.1562   98.1364 C   0  0  0  0  0  0  0  0  0  0  0  0
   48.2296   85.2961   99.3989 N   0  0  0  0  0  0  0  0  0  0  0  0
   49.1241   86.1504   97.3858 N   0  0  0  0  0  0  0  0  0  0  0  0
   59.8489   78.4279   92.8169 H   0  0  0  0  0  0  0  0  0  0  0  0
   52.3261   87.4424   86.7428 H   0  0  0  0  0  0  0  0  0  0  0  0
   47.8812   84.4712   99.9269 H   0  0  0  0  0  0  0  0  0  0  0  0
  2  1  1  0
  3  2  1  0
  2  5  1  1
  3  4  2  0
  6  3  1  0
  7  6  1  0
  8  7  1  0
  7 10  1  6
  8  9  2  0
 17  8  1  0
 10 11  1  0
 11 12  1  0
 12 13  1  0
 13 14  1  0
 14 15  1  0
 14 16  2  0
 18 17  1  0
 19 18  1  0
 18 21  1  1
 19 20  2  0
 29 19  1  0
 21 22  1  0
 22 23  2  0
 22 24  1  0
 23 25  1  0
 24 26  2  0
 25 27  2  0
 26 27  1  0
 27 28  1  0
 30 29  1  0
 31 30  1  0
 30 33  1  6
 31 32  2  0
 35 31  1  0
 33 34  1  0
 36 35  1  0
 37 36  1  0
 36 39  1  6
 37 38  2  0
 46 37  1  0
 39 40  1  0
 40 41  1  0
 41 42  1  0
 42 43  1  0
 43 44  2  0
 43 45  1  0
 47 46  1  0
 48 47  1  0
 47 50  1  6
 48 49  2  0
 55 48  1  0
 50 51  1  0
 51 52  1  0
 52 53  1  0
 52 54  2  0
 56 55  1  0
 57 56  1  0
 56 59  1  1
 57 58  2  0
 64 57  1  0
 59 60  1  0
 60 61  1  0
 61 62  2  0
 61 63  1  0
 65 64  1  0
 66 65  1  0
 65 68  1  6
 66 67  2  0
 72 66  1  0
 68 69  1  0
 69 70  1  6
 69 71  1  0
 73 72  1  0
 74 73  1  0
 73 76  1  6
 74 75  2  0
 81 74  1  0
 76 77  1  0
 77 78  1  6
 77 79  1  0
 80 82  2  0
 83 80  1  0
 80 89  1  0
 83 81  1  0
 84 83  1  0
 83 88  1  1
 87 84  1  0
 85 86  1  0
 85 87  1  0
 89 90  1  0
 90 91  1  0
 90 93  1  6
 91 92  2  0
 91100  1  0
 93 94  1  0
 94 95  2  0
 94 96  1  0
 95 97  1  0
 96 98  2  0
 97 99  2  0
 98 99  1  0
100101  1  0
101102  1  0
101104  1  6
102103  2  0
102109  1  0
104105  1  0
105106  1  0
106107  2  0
106108  1  0
109110  1  0
110111  1  0
110113  1  1
111112  2  0
113114  1  0
114115  1  0
115116  1  0
116117  1  0
117118  2  0
117119  1  0
 16120  1  0
 44121  1  0
118122  1  0
M  CHG  1   1   1
M  END
$$$$
