
     RDKit          3D

122123  0  0  0  0  0  0  0  0999 V2000
   56.0421   74.9893   96.9860 N   0  0  0  0  0  4  0  0  0  0  0  0
   54.7473   74.6462   96.4339 C   0  0  2  0  0  0  0  0  0  0  0  0
   53.8051   75.7768   96.3923 C   0  0  0  0  0  0  0  0  0  0  0  0
   53.6254   76.4103   97.4699 O   0  0  0  0  0  0  0  0  0  0  0  0
   54.1325   73.4580   97.0932 C   0  0  0  0  0  0  0  0  0  0  0  0
   53.0865   76.2149   95.2659 N   0  0  0  0  0  0  0  0  0  0  0  0
   52.2435   77.3872   95.2281 C   0  0  2  0  0  0  0  0  0  0  0  0
   50.8700   77.0097   95.6216 C   0  0  0  0  0  0  0  0  0  0  0  0
   50.4066   75.9262   95.1901 O   0  0  0  0  0  0  0  0  0  0  0  0
   52.2963   78.0530   93.8621 C   0  0  0  0  0  0  0  0  0  0  0  0
   52.5363   77.0279   92.8132 C   0  0  0  0  0  0  0  0  0  0  0  0
   52.4510   77.5986   91.4360 C   0  0  0  0  0  0  0  0  0  0  0  0
   52.6172   76.7197   90.3371 N   0  0  0  0  0  0  0  0  0  0  0  0
   52.5007   77.1064   88.9867 C   0  0  0  0  0  0  0  0  0  0  0  0
   52.3352   78.4306   88.5566 N   0  0  0  0  0  0  0  0  0  0  0  0
   52.5298   76.1737   88.0861 N   0  0  0  0  0  0  0  0  0  0  0  0
   50.0349   77.8131   96.4751 N   0  0  0  0  0  0  0  0  0  0  0  0
   48.7252   77.4729   96.9059 C   0  0  2  0  0  0  0  0  0  0  0  0
   47.7085   77.2198   95.9118 C   0  0  0  0  0  0  0  0  0  0  0  0
   47.8093   77.8507   94.8072 O   0  0  0  0  0  0  0  0  0  0  0  0
   48.2021   78.2109   98.1296 C   0  0  0  0  0  0  0  0  0  0  0  0
   48.0539   77.2437   99.2515 C   0  0  0  0  0  0  0  0  0  0  0  0
   48.2496   75.8948   99.1648 C   0  0  0  0  0  0  0  0  0  0  0  0
   47.6689   77.7264  100.5124 C   0  0  0  0  0  0  0  0  0  0  0  0
   48.0920   75.0084  100.2232 C   0  0  0  0  0  0  0  0  0  0  0  0
   47.5068   76.8708  101.5713 C   0  0  0  0  0  0  0  0  0  0  0  0
   47.7143   75.5186  101.4362 C   0  0  0  0  0  0  0  0  0  0  0  0
   47.5415   74.6559  102.5302 O   0  0  0  0  0  0  0  0  0  0  0  0
   46.5838   76.3519   95.9888 N   0  0  0  0  0  0  0  0  0  0  0  0
   45.5706   76.3382   94.9627 C   0  0  2  0  0  0  0  0  0  0  0  0
   44.3939   77.1142   95.5006 C   0  0  0  0  0  0  0  0  0  0  0  0
   43.3993   77.1503   94.7624 O   0  0  0  0  0  0  0  0  0  0  0  0
   45.2244   75.0193   94.4076 C   0  0  0  0  0  0  0  0  0  0  0  0
   44.0608   75.1513   93.6513 O   0  0  0  0  0  0  0  0  0  0  0  0
   44.4139   77.7571   96.7439 N   0  0  0  0  0  0  0  0  0  0  0  0
   43.4426   78.5507   97.3788 C   0  0  2  0  0  0  0  0  0  0  0  0
   43.3502   79.9614   97.0098 C   0  0  0  0  0  0  0  0  0  0  0  0
   42.2188   80.5216   97.1804 O   0  0  0  0  0  0  0  0  0  0  0  0
   43.1301   78.2693   98.8431 C   0  0  0  0  0  0  0  0  0  0  0  0
   43.0238   76.8401   99.2017 C   0  0  0  0  0  0  0  0  0  0  0  0
   41.6664   76.3860   99.6819 C   0  0  0  0  0  0  0  0  0  0  0  0
   41.3354   76.8305  101.0076 N   0  0  0  0  0  0  0  0  0  0  0  0
   40.1337   77.5175  101.3175 C   0  0  0  0  0  0  0  0  0  0  0  0
   39.1938   77.4430  100.4248 N   0  0  0  0  0  0  0  0  0  0  0  0
   39.9542   78.2453  102.5248 N   0  0  0  0  0  0  0  0  0  0  0  0
   44.3635   80.7789   96.4842 N   0  0  0  0  0  0  0  0  0  0  0  0
   44.0948   82.2192   96.2082 C   0  0  2  0  0  0  0  0  0  0  0  0
   43.8701   82.3193   94.7514 C   0  0  0  0  0  0  0  0  0  0  0  0
   43.3127   81.3130   94.2069 O   0  0  0  0  0  0  0  0  0  0  0  0
   45.3246   82.9106   96.6668 C   0  0  0  0  0  0  0  0  0  0  0  0
   45.8075   82.8736   98.0397 C   0  0  0  0  0  0  0  0  0  0  0  0
   46.2838   81.6733   98.6781 C   0  0  0  0  0  0  0  0  0  0  0  0
   46.2405   80.4539   97.9884 O   0  0  0  0  0  0  0  0  0  0  0  0
   46.7391   81.6622   99.8386 O   0  0  0  0  0  0  0  0  0  0  0  0
   44.2381   83.4498   93.9783 N   0  0  0  0  0  0  0  0  0  0  0  0
   43.7221   83.7651   92.6871 C   0  0  2  0  0  0  0  0  0  0  0  0
   44.2190   82.7987   91.6814 C   0  0  0  0  0  0  0  0  0  0  0  0
   43.5330   82.3169   90.7884 O   0  0  0  0  0  0  0  0  0  0  0  0
   43.8210   85.1919   92.2689 C   0  0  0  0  0  0  0  0  0  0  0  0
   42.5113   85.7734   91.8981 C   0  0  0  0  0  0  0  0  0  0  0  0
   41.6326   85.0026   91.0284 C   0  0  0  0  0  0  0  0  0  0  0  0
   40.4759   85.3566   90.7630 O   0  0  0  0  0  0  0  0  0  0  0  0
   42.1063   83.7687   90.4324 N   0  0  0  0  0  0  0  0  0  0  0  0
   45.5912   82.3679   91.7253 N   0  0  0  0  0  0  0  0  0  0  0  0
   46.1965   81.7422   90.5928 C   0  0  2  0  0  0  0  0  0  0  0  0
   46.9175   82.8097   89.7974 C   0  0  0  0  0  0  0  0  0  0  0  0
   47.1581   82.5856   88.6059 O   0  0  0  0  0  0  0  0  0  0  0  0
   45.2780   80.9228   89.8016 C   0  0  0  0  0  0  0  0  0  0  0  0
   45.3949   80.9156   88.3230 C   0  0  1  0  0  0  0  0  0  0  0  0
   46.7276   80.1704   88.0293 C   0  0  0  0  0  0  0  0  0  0  0  0
   44.3553   80.1382   87.5784 C   0  0  0  0  0  0  0  0  0  0  0  0
   47.3030   84.0119   90.3867 N   0  0  0  0  0  0  0  0  0  0  0  0
   47.8969   85.1653   89.8644 C   0  0  2  0  0  0  0  0  0  0  0  0
   48.4254   85.3012   88.5409 C   0  0  0  0  0  0  0  0  0  0  0  0
   47.8184   84.6285   87.6064 O   0  0  0  0  0  0  0  0  0  0  0  0
   48.7868   85.7212   90.9471 C   0  0  0  0  0  0  0  0  0  0  0  0
   48.2266   85.9651   92.2830 C   0  0  1  0  0  0  0  0  0  0  0  0
   49.0942   86.7935   93.1906 C   0  0  0  0  0  0  0  0  0  0  0  0
   46.9442   86.8422   92.0078 C   0  0  0  0  0  0  0  0  0  0  0  0
   49.3913   85.0382   85.7887 C   0  0  0  0  0  0  0  0  0  0  0  0
   49.4999   86.0204   87.9981 N   0  0  0  0  0  0  0  0  0  0  0  0
   49.8605   84.8736   84.6561 O   0  0  0  0  0  0  0  0  0  0  0  0
   49.7146   86.2751   86.5857 C   0  0  1  0  0  0  0  0  0  0  0  0
   50.9656   86.9223   86.1994 C   0  0  0  0  0  0  0  0  0  0  0  0
   53.4406   87.2250   86.6119 C   0  0  0  0  0  0  0  0  0  0  0  0
   53.2977   87.6545   85.1591 C   0  0  0  0  0  0  0  0  0  0  0  0
   52.0615   87.0940   87.1788 C   0  0  0  0  0  0  0  0  0  0  0  0
   48.5811   87.2367   86.2046 C   0  0  0  0  0  0  0  0  0  0  0  0
   48.5525   84.0972   86.3860 N   0  0  0  0  0  0  0  0  0  0  0  0
   47.9448   83.0137   85.6661 C   0  0  2  0  0  0  0  0  0  0  0  0
   46.6055   83.4418   85.2237 C   0  0  0  0  0  0  0  0  0  0  0  0
   45.9428   82.7013   84.4726 O   0  0  0  0  0  0  0  0  0  0  0  0
   47.9078   81.7664   86.5185 C   0  0  0  0  0  0  0  0  0  0  0  0
   47.1519   80.6547   85.9169 C   0  0  0  0  0  0  0  0  0  0  0  0
   46.0037   80.0951   86.4261 C   0  0  0  0  0  0  0  0  0  0  0  0
   47.6440   80.1250   84.7173 C   0  0  0  0  0  0  0  0  0  0  0  0
   45.3537   79.0604   85.8006 C   0  0  0  0  0  0  0  0  0  0  0  0
   47.0211   79.0974   84.0742 C   0  0  0  0  0  0  0  0  0  0  0  0
   45.8617   78.5625   84.6265 C   0  0  0  0  0  0  0  0  0  0  0  0
   46.0823   84.6785   85.6475 N   0  0  0  0  0  0  0  0  0  0  0  0
   44.7826   85.1422   85.2636 C   0  0  2  0  0  0  0  0  0  0  0  0
   44.8418   85.9388   84.0416 C   0  0  0  0  0  0  0  0  0  0  0  0
   44.4317   85.5056   82.9542 O   0  0  0  0  0  0  0  0  0  0  0  0
   43.9406   85.5855   86.3856 C   0  0  0  0  0  0  0  0  0  0  0  0
   43.0836   84.5905   87.0627 C   0  0  0  0  0  0  0  0  0  0  0  0
   41.7173   84.4845   86.6306 C   0  0  0  0  0  0  0  0  0  0  0  0
   40.9665   83.5293   86.7735 O   0  0  0  0  0  0  0  0  0  0  0  0
   41.1187   85.6245   85.9397 N   0  0  0  0  0  0  0  0  0  0  0  0
   45.3796   87.2803   84.0704 N   0  0  0  0  0  0  0  0  0  0  0  0
   46.5130   87.6885   83.2657 C   0  0  2  0  0  0  0  0  0  0  0  0
   46.8015   86.9051   82.0853 C   0  0  0  0  0  0  0  0  0  0  0  0
   47.1004   87.3108   80.9738 O   0  0  0  0  0  0  0  0  0  0  0  0
   47.6298   88.0727   84.1651 C   0  0  0  0  0  0  0  0  0  0  0  0
   47.6193   89.3372   84.8825 C   0  0  0  0  0  0  0  0  0  0  0  0
   48.8035   89.7226   85.6568 C   0  0  0  0  0  0  0  0  0  0  0  0
   48.6398   90.5434   86.7936 N   0  0  0  0  0  0  0  0  0  0  0  0
   48.4644   91.9607   86.6834 C   0  0  0  0  0  0  0  0  0  0  0  0
   49.2962   92.7704   87.2491 N   0  0  0  0  0  0  0  0  0  0  0  0
   47.3549   92.4265   85.9469 N   0  0  0  0  0  0  0  0  0  0  0  0
   52.6049   75.1637   88.3060 H   0  0  0  0  0  0  0  0  0  0  0  0
   39.4722   77.5337   99.4181 H   0  0  0  0  0  0  0  0  0  0  0  0
   49.6329   92.5376   88.2046 H   0  0  0  0  0  0  0  0  0  0  0  0
  2  1  1  0
  3  2  1  0
  2  5  1  1
  3  4  2  0
  6  3  1  0
  7  6  1  0
  8  7  1  0
  7 10  1  6
  8  9  2  0
 17  8  1  0
 10 11  1  0
 11 12  1  0
 12 13  1  0
 13 14  1  0
 14 15  1  0
 14 16  2  0
 18 17  1  0
 19 18  1  0
 18 21  1  1
 19 20  2  0
 29 19  1  0
 21 22  1  0
 22 23  2  0
 22 24  1  0
 23 25  1  0
 24 26  2  0
 25 27  2  0
 26 27  1  0
 27 28  1  0
 30 29  1  0
 31 30  1  0
 30 33  1  1
 31 32  2  0
 35 31  1  0
 33 34  1  0
 36 35  1  0
 37 36  1  0
 36 39  1  1
 37 38  2  0
 46 37  1  0
 39 40  1  0
 40 41  1  0
 41 42  1  0
 42 43  1  0
 43 44  2  0
 43 45  1  0
 47 46  1  0
 48 47  1  0
 47 50  1  6
 48 49  2  0
 55 48  1  0
 50 51  1  0
 51 52  1  0
 52 53  1  0
 52 54  2  0
 56 55  1  0
 57 56  1  0
 56 59  1  6
 57 58  2  0
 64 57  1  0
 59 60  1  0
 60 61  1  0
 61 62  2  0
 61 63  1  0
 65 64  1  0
 66 65  1  0
 65 68  1  6
 66 67  2  0
 72 66  1  0
 68 69  1  0
 69 70  1  1
 69 71  1  0
 73 72  1  0
 74 73  1  0
 73 76  1  1
 74 75  2  0
 81 74  1  0
 76 77  1  0
 77 78  1  1
 77 79  1  0
 80 82  2  0
 83 80  1  0
 80 89  1  0
 83 81  1  0
 84 83  1  0
 83 88  1  6
 87 84  1  0
 85 86  1  0
 85 87  1  0
 89 90  1  0
 90 91  1  0
 90 93  1  1
 91 92  2  0
 91100  1  0
 93 94  1  0
 94 95  2  0
 94 96  1  0
 95 97  1  0
 96 98  2  0
 97 99  2  0
 98 99  1  0
100101  1  0
101102  1  0
101104  1  1
102103  2  0
102109  1  0
104105  1  0
105106  1  0
106107  2  0
106108  1  0
109110  1  0
110111  1  0
110113  1  1
111112  2  0
113114  1  0
114115  1  0
115116  1  0
116117  1  0
117118  2  0
117119  1  0
 16120  1  0
 44121  1  0
118122  1  0
M  CHG  1   1   1
M  END
$$$$
