
     RDKit          3D

122123  0  0  0  0  0  0  0  0999 V2000
   53.3219   74.0563   90.6499 N   0  0  0  0  0  4  0  0  0  0  0  0
   53.9393   74.6746   91.8057 C   0  0  2  0  0  0  0  0  0  0  0  0
   53.6695   73.9667   93.0681 C   0  0  0  0  0  0  0  0  0  0  0  0
   52.5647   73.3614   93.1587 O   0  0  0  0  0  0  0  0  0  0  0  0
   53.6215   76.1269   91.9251 C   0  0  0  0  0  0  0  0  0  0  0  0
   54.5259   73.9036   94.1816 N   0  0  0  0  0  0  0  0  0  0  0  0
   55.9022   74.3419   94.1915 C   0  0  2  0  0  0  0  0  0  0  0  0
   55.9410   75.8187   94.1516 C   0  0  0  0  0  0  0  0  0  0  0  0
   56.9185   76.3708   93.5909 O   0  0  0  0  0  0  0  0  0  0  0  0
   56.6847   73.7072   93.0528 C   0  0  0  0  0  0  0  0  0  0  0  0
   57.7892   72.8791   93.6033 C   0  0  0  0  0  0  0  0  0  0  0  0
   57.3521   72.0604   94.7731 C   0  0  0  0  0  0  0  0  0  0  0  0
   57.1302   72.7220   96.0062 N   0  0  0  0  0  0  0  0  0  0  0  0
   56.0957   72.3969   96.9065 C   0  0  0  0  0  0  0  0  0  0  0  0
   55.4608   73.3225   97.7466 N   0  0  0  0  0  0  0  0  0  0  0  0
   55.7210   71.1572   96.9746 N   0  0  0  0  0  0  0  0  0  0  0  0
   54.9188   76.6595   94.7166 N   0  0  0  0  0  0  0  0  0  0  0  0
   55.0628   78.0372   95.0295 C   0  0  2  0  0  0  0  0  0  0  0  0
   53.9556   78.7315   95.6444 C   0  0  0  0  0  0  0  0  0  0  0  0
   52.7911   78.4862   95.1839 O   0  0  0  0  0  0  0  0  0  0  0  0
   55.8200   78.8855   94.0181 C   0  0  0  0  0  0  0  0  0  0  0  0
   55.0807   78.8734   92.7261 C   0  0  0  0  0  0  0  0  0  0  0  0
   53.9206   79.5476   92.4716 C   0  0  0  0  0  0  0  0  0  0  0  0
   55.5861   78.1036   91.6663 C   0  0  0  0  0  0  0  0  0  0  0  0
   53.2397   79.5107   91.2609 C   0  0  0  0  0  0  0  0  0  0  0  0
   54.9316   78.0515   90.4629 C   0  0  0  0  0  0  0  0  0  0  0  0
   53.7646   78.7472   90.2530 C   0  0  0  0  0  0  0  0  0  0  0  0
   53.1055   78.6810   89.0152 O   0  0  0  0  0  0  0  0  0  0  0  0
   53.9762   79.6729   96.7109 N   0  0  0  0  0  0  0  0  0  0  0  0
   52.7654   80.0814   97.3793 C   0  0  2  0  0  0  0  0  0  0  0  0
   52.3257   81.3729   96.7353 C   0  0  0  0  0  0  0  0  0  0  0  0
   51.2942   81.8755   97.2034 O   0  0  0  0  0  0  0  0  0  0  0  0
   52.8166   80.1239   98.8500 C   0  0  0  0  0  0  0  0  0  0  0  0
   54.1510   80.0506   99.2466 O   0  0  0  0  0  0  0  0  0  0  0  0
   53.0233   81.9695   95.6785 N   0  0  0  0  0  0  0  0  0  0  0  0
   52.7636   83.1513   94.9628 C   0  0  2  0  0  0  0  0  0  0  0  0
   51.4878   83.8287   95.1820 C   0  0  0  0  0  0  0  0  0  0  0  0
   51.4101   84.5777   96.2096 O   0  0  0  0  0  0  0  0  0  0  0  0
   53.2861   83.2562   93.5355 C   0  0  0  0  0  0  0  0  0  0  0  0
   54.7466   83.0916   93.3852 C   0  0  0  0  0  0  0  0  0  0  0  0
   55.3753   83.8501   92.2413 C   0  0  0  0  0  0  0  0  0  0  0  0
   56.7997   83.6881   92.1439 N   0  0  0  0  0  0  0  0  0  0  0  0
   57.5658   84.1968   91.0638 C   0  0  0  0  0  0  0  0  0  0  0  0
   58.8011   83.8005   91.0111 N   0  0  0  0  0  0  0  0  0  0  0  0
   57.0294   85.0846   90.0924 N   0  0  0  0  0  0  0  0  0  0  0  0
   50.3288   83.7516   94.3932 N   0  0  0  0  0  0  0  0  0  0  0  0
   49.1583   84.6240   94.6964 C   0  0  2  0  0  0  0  0  0  0  0  0
   48.6519   85.0938   93.3904 C   0  0  0  0  0  0  0  0  0  0  0  0
   47.3857   85.1144   93.2626 O   0  0  0  0  0  0  0  0  0  0  0  0
   49.7234   85.7076   95.5373 C   0  0  0  0  0  0  0  0  0  0  0  0
   49.0216   86.9478   95.8353 C   0  0  0  0  0  0  0  0  0  0  0  0
   49.6208   88.2497   95.6902 C   0  0  0  0  0  0  0  0  0  0  0  0
   48.8578   89.3988   95.9388 O   0  0  0  0  0  0  0  0  0  0  0  0
   50.8076   88.4107   95.3440 O   0  0  0  0  0  0  0  0  0  0  0  0
   49.4941   85.5041   92.3258 N   0  0  0  0  0  0  0  0  0  0  0  0
   49.0904   85.6412   90.9653 C   0  0  2  0  0  0  0  0  0  0  0  0
   48.9784   84.3121   90.3225 C   0  0  0  0  0  0  0  0  0  0  0  0
   48.4514   84.1128   89.2350 O   0  0  0  0  0  0  0  0  0  0  0  0
   49.8285   86.6533   90.1583 C   0  0  0  0  0  0  0  0  0  0  0  0
   49.6346   88.0346   90.6536 C   0  0  0  0  0  0  0  0  0  0  0  0
   48.8161   88.9451   89.8638 C   0  0  0  0  0  0  0  0  0  0  0  0
   48.4997   90.0748   90.2603 O   0  0  0  0  0  0  0  0  0  0  0  0
   48.3422   88.5402   88.5548 N   0  0  0  0  0  0  0  0  0  0  0  0
   49.5066   83.1519   90.9899 N   0  0  0  0  0  0  0  0  0  0  0  0
   49.7116   81.9304   90.2781 C   0  0  2  0  0  0  0  0  0  0  0  0
   48.4722   81.0772   90.4447 C   0  0  0  0  0  0  0  0  0  0  0  0
   48.5772   79.8576   90.2740 O   0  0  0  0  0  0  0  0  0  0  0  0
   50.9603   81.2458   90.6145 C   0  0  0  0  0  0  0  0  0  0  0  0
   51.2196   79.8906   90.0704 C   0  0  1  0  0  0  0  0  0  0  0  0
   50.3305   78.9398   90.9208 C   0  0  0  0  0  0  0  0  0  0  0  0
   50.7884   79.6484   88.6580 C   0  0  0  0  0  0  0  0  0  0  0  0
   47.2446   81.6453   90.7791 N   0  0  0  0  0  0  0  0  0  0  0  0
   46.1110   81.1254   91.4118 C   0  0  2  0  0  0  0  0  0  0  0  0
   45.0008   81.8927   91.8896 C   0  0  0  0  0  0  0  0  0  0  0  0
   43.8541   81.2787   91.9371 O   0  0  0  0  0  0  0  0  0  0  0  0
   46.5984   80.0741   92.3762 C   0  0  0  0  0  0  0  0  0  0  0  0
   47.1168   80.4866   93.6873 C   0  0  1  0  0  0  0  0  0  0  0  0
   46.2565   80.0972   94.8582 C   0  0  0  0  0  0  0  0  0  0  0  0
   48.4513   79.6607   93.8502 C   0  0  0  0  0  0  0  0  0  0  0  0
   43.2049   83.7049   90.6333 C   0  0  0  0  0  0  0  0  0  0  0  0
   44.8589   83.2160   92.3313 N   0  0  0  0  0  0  0  0  0  0  0  0
   42.1106   83.1321   90.5664 O   0  0  0  0  0  0  0  0  0  0  0  0
   43.7810   84.1154   91.9634 C   0  0  1  0  0  0  0  0  0  0  0  0
   44.0266   85.5497   92.0889 C   0  0  0  0  0  0  0  0  0  0  0  0
   44.0790   86.8554   94.2522 C   0  0  0  0  0  0  0  0  0  0  0  0
   43.1686   86.8127   95.4707 C   0  0  0  0  0  0  0  0  0  0  0  0
   43.2872   86.3589   93.0830 C   0  0  0  0  0  0  0  0  0  0  0  0
   42.6558   83.7697   92.9478 C   0  0  0  0  0  0  0  0  0  0  0  0
   43.9542   84.0043   89.4953 N   0  0  0  0  0  0  0  0  0  0  0  0
   43.5273   83.6810   88.1632 C   0  0  2  0  0  0  0  0  0  0  0  0
   42.8082   82.3949   88.2038 C   0  0  0  0  0  0  0  0  0  0  0  0
   41.7090   82.2893   87.6275 O   0  0  0  0  0  0  0  0  0  0  0  0
   44.7072   83.6612   87.2191 C   0  0  0  0  0  0  0  0  0  0  0  0
   45.8750   84.4140   87.7076 C   0  0  0  0  0  0  0  0  0  0  0  0
   45.9089   85.2036   88.8329 C   0  0  0  0  0  0  0  0  0  0  0  0
   47.0565   84.3115   86.9624 C   0  0  0  0  0  0  0  0  0  0  0  0
   47.0423   85.8715   89.2248 C   0  0  0  0  0  0  0  0  0  0  0  0
   48.1967   84.9636   87.3261 C   0  0  0  0  0  0  0  0  0  0  0  0
   48.1843   85.7516   88.4725 C   0  0  0  0  0  0  0  0  0  0  0  0
   43.3612   81.2967   88.8901 N   0  0  0  0  0  0  0  0  0  0  0  0
   42.9606   79.9446   88.6386 C   0  0  2  0  0  0  0  0  0  0  0  0
   41.5584   79.7324   88.9852 C   0  0  0  0  0  0  0  0  0  0  0  0
   40.8239   78.9836   88.3232 O   0  0  0  0  0  0  0  0  0  0  0  0
   43.9659   78.9355   89.0067 C   0  0  0  0  0  0  0  0  0  0  0  0
   43.6316   77.5073   88.8301 C   0  0  0  0  0  0  0  0  0  0  0  0
   42.8940   76.8612   89.8805 C   0  0  0  0  0  0  0  0  0  0  0  0
   41.7363   76.4679   89.8400 O   0  0  0  0  0  0  0  0  0  0  0  0
   43.5663   76.6276   91.1568 N   0  0  0  0  0  0  0  0  0  0  0  0
   40.9829   80.3930   90.1350 N   0  0  0  0  0  0  0  0  0  0  0  0
   39.5754   80.7238   90.2266 C   0  0  2  0  0  0  0  0  0  0  0  0
   38.9839   81.4120   89.1011 C   0  0  0  0  0  0  0  0  0  0  0  0
   37.8646   81.8921   89.0230 O   0  0  0  0  0  0  0  0  0  0  0  0
   39.2815   81.2052   91.5998 C   0  0  0  0  0  0  0  0  0  0  0  0
   39.4380   80.3346   92.7536 C   0  0  0  0  0  0  0  0  0  0  0  0
   39.2772   80.9017   94.0963 C   0  0  0  0  0  0  0  0  0  0  0  0
   39.4496   80.0623   95.2183 N   0  0  0  0  0  0  0  0  0  0  0  0
   40.3345   80.4066   96.2907 C   0  0  0  0  0  0  0  0  0  0  0  0
   40.6840   79.5206   97.1627 N   0  0  0  0  0  0  0  0  0  0  0  0
   40.7948   81.7386   96.3559 N   0  0  0  0  0  0  0  0  0  0  0  0
   55.0289   70.7293   96.3328 H   0  0  0  0  0  0  0  0  0  0  0  0
   59.1151   83.0944   91.7197 H   0  0  0  0  0  0  0  0  0  0  0  0
   40.0787   78.6837   97.2800 H   0  0  0  0  0  0  0  0  0  0  0  0
  2  1  1  0
  3  2  1  0
  2  5  1  1
  3  4  2  0
  6  3  1  0
  7  6  1  0
  8  7  1  0
  7 10  1  6
  8  9  2  0
 17  8  1  0
 10 11  1  0
 11 12  1  0
 12 13  1  0
 13 14  1  0
 14 15  1  0
 14 16  2  0
 18 17  1  0
 19 18  1  0
 18 21  1  6
 19 20  2  0
 29 19  1  0
 21 22  1  0
 22 23  2  0
 22 24  1  0
 23 25  1  0
 24 26  2  0
 25 27  2  0
 26 27  1  0
 27 28  1  0
 30 29  1  0
 31 30  1  0
 30 33  1  1
 31 32  2  0
 35 31  1  0
 33 34  1  0
 36 35  1  0
 37 36  1  0
 36 39  1  6
 37 38  2  0
 46 37  1  0
 39 40  1  0
 40 41  1  0
 41 42  1  0
 42 43  1  0
 43 44  2  0
 43 45  1  0
 47 46  1  0
 48 47  1  0
 47 50  1  1
 48 49  2  0
 55 48  1  0
 50 51  1  0
 51 52  1  0
 52 53  1  0
 52 54  2  0
 56 55  1  0
 57 56  1  0
 56 59  1  6
 57 58  2  0
 64 57  1  0
 59 60  1  0
 60 61  1  0
 61 62  2  0
 61 63  1  0
 65 64  1  0
 66 65  1  0
 65 68  1  1
 66 67  2  0
 72 66  1  0
 68 69  1  0
 69 70  1  1
 69 71  1  0
 73 72  1  0
 74 73  1  0
 73 76  1  1
 74 75  2  0
 81 74  1  0
 76 77  1  0
 77 78  1  1
 77 79  1  0
 80 82  2  0
 83 80  1  0
 80 89  1  0
 83 81  1  0
 84 83  1  0
 83 88  1  1
 87 84  1  0
 85 86  1  0
 85 87  1  0
 89 90  1  0
 90 91  1  0
 90 93  1  6
 91 92  2  0
 91100  1  0
 93 94  1  0
 94 95  2  0
 94 96  1  0
 95 97  1  0
 96 98  2  0
 97 99  2  0
 98 99  1  0
100101  1  0
101102  1  0
101104  1  1
102103  2  0
102109  1  0
104105  1  0
105106  1  0
106107  2  0
106108  1  0
109110  1  0
110111  1  0
110113  1  1
111112  2  0
113114  1  0
114115  1  0
115116  1  0
116117  1  0
117118  2  0
117119  1  0
 16120  1  0
 44121  1  0
118122  1  0
M  CHG  1   1   1
M  END
$$$$
