
     RDKit          3D

122123  0  0  0  0  0  0  0  0999 V2000
   40.4297   78.4494   98.0934 N   0  0  0  0  0  4  0  0  0  0  0  0
   41.6794   77.8152   98.4610 C   0  0  2  0  0  0  0  0  0  0  0  0
   42.7179   78.7646   98.8942 C   0  0  0  0  0  0  0  0  0  0  0  0
   42.3842   79.6192   99.7621 O   0  0  0  0  0  0  0  0  0  0  0  0
   42.1965   76.8976   97.4050 C   0  0  0  0  0  0  0  0  0  0  0  0
   44.0447   78.8093   98.4304 N   0  0  0  0  0  0  0  0  0  0  0  0
   45.0724   79.6816   98.9490 C   0  0  2  0  0  0  0  0  0  0  0  0
   46.1571   79.7991   97.9523 C   0  0  0  0  0  0  0  0  0  0  0  0
   46.2656   78.8981   97.0856 O   0  0  0  0  0  0  0  0  0  0  0  0
   45.5720   79.1930  100.2994 C   0  0  0  0  0  0  0  0  0  0  0  0
   44.5528   79.4752  101.3436 C   0  0  0  0  0  0  0  0  0  0  0  0
   44.1586   80.9151  101.3734 C   0  0  0  0  0  0  0  0  0  0  0  0
   43.8124   81.4874  102.6226 N   0  0  0  0  0  0  0  0  0  0  0  0
   42.6496   82.2504  102.8510 C   0  0  0  0  0  0  0  0  0  0  0  0
   41.3726   81.8999  102.3902 N   0  0  0  0  0  0  0  0  0  0  0  0
   42.7739   83.3578  103.5144 N   0  0  0  0  0  0  0  0  0  0  0  0
   47.0942   80.8909   97.9174 N   0  0  0  0  0  0  0  0  0  0  0  0
   48.1410   81.0504   96.9712 C   0  0  2  0  0  0  0  0  0  0  0  0
   48.9633   82.2360   97.0349 C   0  0  0  0  0  0  0  0  0  0  0  0
   48.4350   83.3285   96.6404 O   0  0  0  0  0  0  0  0  0  0  0  0
   47.8422   80.5991   95.5489 C   0  0  0  0  0  0  0  0  0  0  0  0
   47.1427   79.2858   95.5945 C   0  0  0  0  0  0  0  0  0  0  0  0
   45.8332   79.0979   95.9340 C   0  0  0  0  0  0  0  0  0  0  0  0
   47.8662   78.1243   95.2804 C   0  0  0  0  0  0  0  0  0  0  0  0
   45.2042   77.8599   95.9832 C   0  0  0  0  0  0  0  0  0  0  0  0
   47.2670   76.8920   95.3224 C   0  0  0  0  0  0  0  0  0  0  0  0
   45.9447   76.7514   95.6713 C   0  0  0  0  0  0  0  0  0  0  0  0
   45.3471   75.4818   95.7117 O   0  0  0  0  0  0  0  0  0  0  0  0
   50.3082   82.3644   97.4807 N   0  0  0  0  0  0  0  0  0  0  0  0
   50.8399   83.6318   97.9173 C   0  0  2  0  0  0  0  0  0  0  0  0
   50.5985   84.6151   96.7988 C   0  0  0  0  0  0  0  0  0  0  0  0
   49.4252   84.6986   96.4090 O   0  0  0  0  0  0  0  0  0  0  0  0
   52.2218   83.6178   98.4246 C   0  0  0  0  0  0  0  0  0  0  0  0
   52.6753   84.9336   98.5042 O   0  0  0  0  0  0  0  0  0  0  0  0
   51.6216   85.3822   96.2294 N   0  0  0  0  0  0  0  0  0  0  0  0
   51.9886   85.5631   94.8844 C   0  0  2  0  0  0  0  0  0  0  0  0
   52.7617   84.5109   94.2287 C   0  0  0  0  0  0  0  0  0  0  0  0
   53.3442   83.6732   94.9915 O   0  0  0  0  0  0  0  0  0  0  0  0
   52.3344   86.9715   94.4174 C   0  0  0  0  0  0  0  0  0  0  0  0
   52.5342   87.9618   95.4953 C   0  0  0  0  0  0  0  0  0  0  0  0
   53.8755   88.6546   95.5057 C   0  0  0  0  0  0  0  0  0  0  0  0
   54.0194   89.6367   96.5447 N   0  0  0  0  0  0  0  0  0  0  0  0
   53.8132   89.3482   97.9182 C   0  0  0  0  0  0  0  0  0  0  0  0
   53.8656   90.3654   98.7235 N   0  0  0  0  0  0  0  0  0  0  0  0
   53.5636   88.0341   98.3982 N   0  0  0  0  0  0  0  0  0  0  0  0
   52.9433   84.3116   92.8508 N   0  0  0  0  0  0  0  0  0  0  0  0
   52.7166   82.9644   92.2536 C   0  0  2  0  0  0  0  0  0  0  0  0
   51.9638   83.1949   91.0034 C   0  0  0  0  0  0  0  0  0  0  0  0
   52.0652   82.2840   90.1203 O   0  0  0  0  0  0  0  0  0  0  0  0
   51.9400   82.2369   93.2873 C   0  0  0  0  0  0  0  0  0  0  0  0
   50.4862   82.1621   93.3011 C   0  0  0  0  0  0  0  0  0  0  0  0
   49.7382   81.5083   94.3444 C   0  0  0  0  0  0  0  0  0  0  0  0
   49.9151   81.9006   95.6783 O   0  0  0  0  0  0  0  0  0  0  0  0
   48.9268   80.5895   94.1175 O   0  0  0  0  0  0  0  0  0  0  0  0
   51.1684   84.3454   90.7694 N   0  0  0  0  0  0  0  0  0  0  0  0
   50.4673   84.6270   89.5602 C   0  0  2  0  0  0  0  0  0  0  0  0
   50.7247   83.5707   88.5551 C   0  0  0  0  0  0  0  0  0  0  0  0
   50.0152   83.3575   87.5798 O   0  0  0  0  0  0  0  0  0  0  0  0
   50.5905   86.0165   89.0361 C   0  0  0  0  0  0  0  0  0  0  0  0
   51.0203   86.9841   90.0704 C   0  0  0  0  0  0  0  0  0  0  0  0
   51.1275   86.5230   91.4484 C   0  0  0  0  0  0  0  0  0  0  0  0
   52.1236   85.9259   91.8782 O   0  0  0  0  0  0  0  0  0  0  0  0
   50.0406   86.7628   92.3774 N   0  0  0  0  0  0  0  0  0  0  0  0
   51.8711   82.7134   88.7010 N   0  0  0  0  0  0  0  0  0  0  0  0
   52.1740   81.7253   87.7149 C   0  0  2  0  0  0  0  0  0  0  0  0
   51.3450   80.4945   88.0148 C   0  0  0  0  0  0  0  0  0  0  0  0
   51.3565   79.5702   87.1943 O   0  0  0  0  0  0  0  0  0  0  0  0
   53.6041   81.4604   87.5548 C   0  0  0  0  0  0  0  0  0  0  0  0
   54.1751   80.1946   88.0760 C   0  0  1  0  0  0  0  0  0  0  0  0
   53.6008   79.0844   87.1512 C   0  0  0  0  0  0  0  0  0  0  0  0
   55.6602   80.0430   87.9708 C   0  0  0  0  0  0  0  0  0  0  0  0
   50.5871   80.4013   89.1803 N   0  0  0  0  0  0  0  0  0  0  0  0
   49.5554   79.5380   89.5624 C   0  0  2  0  0  0  0  0  0  0  0  0
   48.1929   79.6302   89.1326 C   0  0  0  0  0  0  0  0  0  0  0  0
   47.3861   78.7090   89.5738 O   0  0  0  0  0  0  0  0  0  0  0  0
   49.7235   79.2913   91.0402 C   0  0  0  0  0  0  0  0  0  0  0  0
   51.0574   78.9767   91.5690 C   0  0  1  0  0  0  0  0  0  0  0  0
   51.0994   78.6812   93.0433 C   0  0  0  0  0  0  0  0  0  0  0  0
   51.4444   77.6237   90.8556 C   0  0  0  0  0  0  0  0  0  0  0  0
   45.4640   81.6904   88.8941 C   0  0  0  0  0  0  0  0  0  0  0  0
   47.4994   80.5223   88.3021 N   0  0  0  0  0  0  0  0  0  0  0  0
   45.5276   81.7130   90.1292 O   0  0  0  0  0  0  0  0  0  0  0  0
   46.0610   80.5500   88.1115 C   0  0  1  0  0  0  0  0  0  0  0  0
   45.3376   79.2889   88.2509 C   0  0  0  0  0  0  0  0  0  0  0  0
   45.8598   76.8591   87.7919 C   0  0  0  0  0  0  0  0  0  0  0  0
   45.0943   77.3116   86.5571 C   0  0  0  0  0  0  0  0  0  0  0  0
   46.0409   78.0567   88.6713 C   0  0  0  0  0  0  0  0  0  0  0  0
   45.8874   81.0028   86.6556 C   0  0  0  0  0  0  0  0  0  0  0  0
   44.8493   82.7093   88.1660 N   0  0  0  0  0  0  0  0  0  0  0  0
   44.2126   83.8413   88.7779 C   0  0  2  0  0  0  0  0  0  0  0  0
   42.7738   83.5500   88.9122 C   0  0  0  0  0  0  0  0  0  0  0  0
   42.0064   84.4357   89.3342 O   0  0  0  0  0  0  0  0  0  0  0  0
   44.4828   85.0962   87.9803 C   0  0  0  0  0  0  0  0  0  0  0  0
   45.9125   85.3513   87.7355 C   0  0  0  0  0  0  0  0  0  0  0  0
   46.8461   85.6765   88.6913 C   0  0  0  0  0  0  0  0  0  0  0  0
   46.3609   85.2479   86.4125 C   0  0  0  0  0  0  0  0  0  0  0  0
   48.1654   85.8952   88.3816 C   0  0  0  0  0  0  0  0  0  0  0  0
   47.6640   85.4604   86.0747 C   0  0  0  0  0  0  0  0  0  0  0  0
   48.5736   85.7873   87.0754 C   0  0  0  0  0  0  0  0  0  0  0  0
   42.2741   82.2798   88.5664 N   0  0  0  0  0  0  0  0  0  0  0  0
   40.8981   81.9175   88.7314 C   0  0  2  0  0  0  0  0  0  0  0  0
   40.6921   81.1588   89.9615 C   0  0  0  0  0  0  0  0  0  0  0  0
   40.8278   79.9266   90.0042 O   0  0  0  0  0  0  0  0  0  0  0  0
   40.2287   81.4958   87.4911 C   0  0  0  0  0  0  0  0  0  0  0  0
   38.8596   80.9473   87.5778 C   0  0  0  0  0  0  0  0  0  0  0  0
   38.2094   80.5823   86.3496 C   0  0  0  0  0  0  0  0  0  0  0  0
   37.1796   81.0537   85.8872 O   0  0  0  0  0  0  0  0  0  0  0  0
   38.8147   79.5348   85.5299 N   0  0  0  0  0  0  0  0  0  0  0  0
   40.3286   81.8373   91.1851 N   0  0  0  0  0  0  0  0  0  0  0  0
   40.6994   81.3437   92.4957 C   0  0  2  0  0  0  0  0  0  0  0  0
   39.6364   80.8438   93.3385 C   0  0  0  0  0  0  0  0  0  0  0  0
   38.5761   81.3865   93.6048 O   0  0  0  0  0  0  0  0  0  0  0  0
   41.7169   82.2513   93.0828 C   0  0  0  0  0  0  0  0  0  0  0  0
   42.3619   81.9428   94.3487 C   0  0  0  0  0  0  0  0  0  0  0  0
   43.3978   80.9055   94.3821 C   0  0  0  0  0  0  0  0  0  0  0  0
   43.6815   80.1841   93.2022 N   0  0  0  0  0  0  0  0  0  0  0  0
   44.5180   79.0214   93.2100 C   0  0  0  0  0  0  0  0  0  0  0  0
   44.9003   78.4961   94.3259 N   0  0  0  0  0  0  0  0  0  0  0  0
   44.9065   78.4877   91.9632 N   0  0  0  0  0  0  0  0  0  0  0  0
   43.6595   83.8919  103.5817 H   0  0  0  0  0  0  0  0  0  0  0  0
   53.7956   91.3226   98.3015 H   0  0  0  0  0  0  0  0  0  0  0  0
   44.2950   78.6259   95.1610 H   0  0  0  0  0  0  0  0  0  0  0  0
  2  1  1  0
  3  2  1  0
  2  5  1  6
  3  4  2  0
  6  3  1  0
  7  6  1  0
  8  7  1  0
  7 10  1  1
  8  9  2  0
 17  8  1  0
 10 11  1  0
 11 12  1  0
 12 13  1  0
 13 14  1  0
 14 15  1  0
 14 16  2  0
 18 17  1  0
 19 18  1  0
 18 21  1  6
 19 20  2  0
 29 19  1  0
 21 22  1  0
 22 23  2  0
 22 24  1  0
 23 25  1  0
 24 26  2  0
 25 27  2  0
 26 27  1  0
 27 28  1  0
 30 29  1  0
 31 30  1  0
 30 33  1  6
 31 32  2  0
 35 31  1  0
 33 34  1  0
 36 35  1  0
 37 36  1  0
 36 39  1  1
 37 38  2  0
 46 37  1  0
 39 40  1  0
 40 41  1  0
 41 42  1  0
 42 43  1  0
 43 44  2  0
 43 45  1  0
 47 46  1  0
 48 47  1  0
 47 50  1  1
 48 49  2  0
 55 48  1  0
 50 51  1  0
 51 52  1  0
 52 53  1  0
 52 54  2  0
 56 55  1  0
 57 56  1  0
 56 59  1  6
 57 58  2  0
 64 57  1  0
 59 60  1  0
 60 61  1  0
 61 62  2  0
 61 63  1  0
 65 64  1  0
 66 65  1  0
 65 68  1  1
 66 67  2  0
 72 66  1  0
 68 69  1  0
 69 70  1  6
 69 71  1  0
 73 72  1  0
 74 73  1  0
 73 76  1  1
 74 75  2  0
 81 74  1  0
 76 77  1  0
 77 78  1  1
 77 79  1  0
 80 82  2  0
 83 80  1  0
 80 89  1  0
 83 81  1  0
 84 83  1  0
 83 88  1  6
 87 84  1  0
 85 86  1  0
 85 87  1  0
 89 90  1  0
 90 91  1  0
 90 93  1  6
 91 92  2  0
 91100  1  0
 93 94  1  0
 94 95  2  0
 94 96  1  0
 95 97  1  0
 96 98  2  0
 97 99  2  0
 98 99  1  0
100101  1  0
101102  1  0
101104  1  6
102103  2  0
102109  1  0
104105  1  0
105106  1  0
106107  2  0
106108  1  0
109110  1  0
110111  1  0
110113  1  1
111112  2  0
113114  1  0
114115  1  0
115116  1  0
116117  1  0
117118  2  0
117119  1  0
 16120  1  0
 44121  1  0
118122  1  0
M  CHG  1   1   1
M  END
$$$$
