
     RDKit          3D

122123  0  0  0  0  0  0  0  0999 V2000
   60.7118   74.4481   93.8991 N   0  0  0  0  0  4  0  0  0  0  0  0
   59.9000   75.6474   93.9416 C   0  0  2  0  0  0  0  0  0  0  0  0
   58.4523   75.3814   93.9105 C   0  0  0  0  0  0  0  0  0  0  0  0
   57.8716   75.5114   92.7965 O   0  0  0  0  0  0  0  0  0  0  0  0
   60.2857   76.6455   92.9026 C   0  0  0  0  0  0  0  0  0  0  0  0
   57.6569   74.9983   95.0051 N   0  0  0  0  0  0  0  0  0  0  0  0
   56.2323   74.7667   94.9503 C   0  0  2  0  0  0  0  0  0  0  0  0
   55.6206   75.7277   94.0090 C   0  0  0  0  0  0  0  0  0  0  0  0
   56.3693   76.5593   93.4410 O   0  0  0  0  0  0  0  0  0  0  0  0
   55.6149   74.8367   96.3381 C   0  0  0  0  0  0  0  0  0  0  0  0
   54.9441   73.5487   96.6544 C   0  0  0  0  0  0  0  0  0  0  0  0
   54.3137   73.5579   98.0080 C   0  0  0  0  0  0  0  0  0  0  0  0
   53.5465   72.4314   98.3954 N   0  0  0  0  0  0  0  0  0  0  0  0
   52.8025   72.3506   99.5898 C   0  0  0  0  0  0  0  0  0  0  0  0
   52.6760   71.1883  100.3636 N   0  0  0  0  0  0  0  0  0  0  0  0
   52.1797   73.4164   99.9873 N   0  0  0  0  0  0  0  0  0  0  0  0
   54.2145   75.7613   93.7041 N   0  0  0  0  0  0  0  0  0  0  0  0
   53.4291   76.9355   93.5590 C   0  0  2  0  0  0  0  0  0  0  0  0
   52.2101   77.0574   94.3240 C   0  0  0  0  0  0  0  0  0  0  0  0
   52.1563   76.4259   95.4315 O   0  0  0  0  0  0  0  0  0  0  0  0
   53.3184   77.5063   92.1527 C   0  0  0  0  0  0  0  0  0  0  0  0
   54.6347   77.3714   91.4705 C   0  0  0  0  0  0  0  0  0  0  0  0
   55.5551   78.3695   91.3219 C   0  0  0  0  0  0  0  0  0  0  0  0
   54.9814   76.1311   90.9117 C   0  0  0  0  0  0  0  0  0  0  0  0
   56.7728   78.2243   90.6685 C   0  0  0  0  0  0  0  0  0  0  0  0
   56.1771   75.9641   90.2621 C   0  0  0  0  0  0  0  0  0  0  0  0
   57.0729   76.9992   90.1361 C   0  0  0  0  0  0  0  0  0  0  0  0
   58.2920   76.8121   89.4656 O   0  0  0  0  0  0  0  0  0  0  0  0
   51.0330   77.7934   94.0129 N   0  0  0  0  0  0  0  0  0  0  0  0
   49.8815   77.7757   94.8808 C   0  0  2  0  0  0  0  0  0  0  0  0
   48.8175   78.6101   94.2115 C   0  0  0  0  0  0  0  0  0  0  0  0
   49.1549   79.1466   93.1466 O   0  0  0  0  0  0  0  0  0  0  0  0
   50.1242   78.1205   96.2913 C   0  0  0  0  0  0  0  0  0  0  0  0
   51.2321   78.9644   96.3541 O   0  0  0  0  0  0  0  0  0  0  0  0
   47.5358   78.7779   94.7486 N   0  0  0  0  0  0  0  0  0  0  0  0
   46.2768   78.7929   94.1231 C   0  0  2  0  0  0  0  0  0  0  0  0
   45.5401   80.0538   94.0772 C   0  0  0  0  0  0  0  0  0  0  0  0
   44.6340   80.2161   94.9579 O   0  0  0  0  0  0  0  0  0  0  0  0
   45.3918   77.5604   94.2603 C   0  0  0  0  0  0  0  0  0  0  0  0
   43.9423   77.8057   94.1147 C   0  0  0  0  0  0  0  0  0  0  0  0
   43.2473   78.3588   95.3355 C   0  0  0  0  0  0  0  0  0  0  0  0
   42.9942   77.3817   96.3583 N   0  0  0  0  0  0  0  0  0  0  0  0
   41.7669   76.6799   96.4734 C   0  0  0  0  0  0  0  0  0  0  0  0
   40.8820   77.2139   97.2594 N   0  0  0  0  0  0  0  0  0  0  0  0
   41.5067   75.4679   95.7785 N   0  0  0  0  0  0  0  0  0  0  0  0
   45.7096   81.1140   93.1725 N   0  0  0  0  0  0  0  0  0  0  0  0
   46.3490   82.3844   93.6201 C   0  0  2  0  0  0  0  0  0  0  0  0
   47.3936   82.6884   92.6204 C   0  0  0  0  0  0  0  0  0  0  0  0
   47.6862   83.9193   92.4825 O   0  0  0  0  0  0  0  0  0  0  0  0
   46.8903   82.0627   94.9633 C   0  0  0  0  0  0  0  0  0  0  0  0
   47.7370   82.9653   95.7301 C   0  0  0  0  0  0  0  0  0  0  0  0
   47.2187   84.0320   96.5478 C   0  0  0  0  0  0  0  0  0  0  0  0
   46.7484   85.2063   95.9442 O   0  0  0  0  0  0  0  0  0  0  0  0
   47.1690   83.9645   97.7917 O   0  0  0  0  0  0  0  0  0  0  0  0
   48.0497   81.6969   91.8474 N   0  0  0  0  0  0  0  0  0  0  0  0
   48.5600   81.8872   90.5297 C   0  0  2  0  0  0  0  0  0  0  0  0
   47.4499   81.9955   89.5559 C   0  0  0  0  0  0  0  0  0  0  0  0
   47.5134   82.6170   88.5023 O   0  0  0  0  0  0  0  0  0  0  0  0
   49.6577   80.9711   90.1101 C   0  0  0  0  0  0  0  0  0  0  0  0
   50.9966   81.5932   90.2165 C   0  0  0  0  0  0  0  0  0  0  0  0
   51.6163   81.6825   91.5320 C   0  0  0  0  0  0  0  0  0  0  0  0
   51.6604   82.7367   92.1804 O   0  0  0  0  0  0  0  0  0  0  0  0
   52.2099   80.5041   92.1329 N   0  0  0  0  0  0  0  0  0  0  0  0
   46.1956   81.3464   89.8311 N   0  0  0  0  0  0  0  0  0  0  0  0
   45.1273   81.3908   88.8838 C   0  0  2  0  0  0  0  0  0  0  0  0
   44.3523   82.6713   89.1113 C   0  0  0  0  0  0  0  0  0  0  0  0
   43.3585   82.8835   88.4077 O   0  0  0  0  0  0  0  0  0  0  0  0
   44.2990   80.1848   88.8611 C   0  0  0  0  0  0  0  0  0  0  0  0
   44.8830   78.8898   89.2875 C   0  0  1  0  0  0  0  0  0  0  0  0
   43.6913   77.8910   89.2821 C   0  0  0  0  0  0  0  0  0  0  0  0
   45.8913   78.2800   88.3651 C   0  0  0  0  0  0  0  0  0  0  0  0
   44.7445   83.5892   90.0834 N   0  0  0  0  0  0  0  0  0  0  0  0
   44.5086   84.9599   90.2296 C   0  0  2  0  0  0  0  0  0  0  0  0
   45.0244   85.9873   89.3764 C   0  0  0  0  0  0  0  0  0  0  0  0
   44.3071   87.0691   89.2791 O   0  0  0  0  0  0  0  0  0  0  0  0
   44.6209   85.2629   91.7021 C   0  0  0  0  0  0  0  0  0  0  0  0
   44.0431   84.3259   92.6748 C   0  0  1  0  0  0  0  0  0  0  0  0
   43.9649   84.8460   94.0841 C   0  0  0  0  0  0  0  0  0  0  0  0
   42.5470   84.1564   92.2032 C   0  0  0  0  0  0  0  0  0  0  0  0
   46.1001   87.3356   86.5028 C   0  0  0  0  0  0  0  0  0  0  0  0
   46.1738   86.0966   88.5806 N   0  0  0  0  0  0  0  0  0  0  0  0
   46.6161   88.0694   85.6511 O   0  0  0  0  0  0  0  0  0  0  0  0
   46.6249   87.3045   87.9146 C   0  0  1  0  0  0  0  0  0  0  0  0
   48.0387   87.6518   88.0321 C   0  0  0  0  0  0  0  0  0  0  0  0
   50.2104   87.8222   89.3135 C   0  0  0  0  0  0  0  0  0  0  0  0
   50.7345   87.5977   90.7243 C   0  0  0  0  0  0  0  0  0  0  0  0
   48.7451   87.5169   89.3253 C   0  0  0  0  0  0  0  0  0  0  0  0
   45.8337   88.4256   88.6013 C   0  0  0  0  0  0  0  0  0  0  0  0
   45.0213   86.5024   86.2060 N   0  0  0  0  0  0  0  0  0  0  0  0
   44.7835   85.9561   84.8997 C   0  0  2  0  0  0  0  0  0  0  0  0
   43.4808   85.2665   84.9135 C   0  0  0  0  0  0  0  0  0  0  0  0
   43.2975   84.2886   84.1642 O   0  0  0  0  0  0  0  0  0  0  0  0
   45.9207   85.0491   84.4900 C   0  0  0  0  0  0  0  0  0  0  0  0
   45.7189   84.3897   83.1886 C   0  0  0  0  0  0  0  0  0  0  0  0
   45.8676   83.0461   82.9368 C   0  0  0  0  0  0  0  0  0  0  0  0
   45.3364   85.2032   82.1145 C   0  0  0  0  0  0  0  0  0  0  0  0
   45.6558   82.5065   81.6925 C   0  0  0  0  0  0  0  0  0  0  0  0
   45.1201   84.6964   80.8680 C   0  0  0  0  0  0  0  0  0  0  0  0
   45.2826   83.3305   80.6598 C   0  0  0  0  0  0  0  0  0  0  0  0
   42.4535   85.7122   85.7671 N   0  0  0  0  0  0  0  0  0  0  0  0
   41.3103   86.4333   85.2927 C   0  0  2  0  0  0  0  0  0  0  0  0
   40.5608   87.0270   86.3959 C   0  0  0  0  0  0  0  0  0  0  0  0
   41.1217   87.6413   87.3160 O   0  0  0  0  0  0  0  0  0  0  0  0
   40.5917   85.7744   84.1910 C   0  0  0  0  0  0  0  0  0  0  0  0
   39.9383   84.4749   84.4502 C   0  0  0  0  0  0  0  0  0  0  0  0
   38.5196   84.4766   84.6787 C   0  0  0  0  0  0  0  0  0  0  0  0
   37.6753   85.1415   84.0944 O   0  0  0  0  0  0  0  0  0  0  0  0
   37.9840   83.5983   85.7167 N   0  0  0  0  0  0  0  0  0  0  0  0
   39.1198   86.9213   86.4393 N   0  0  0  0  0  0  0  0  0  0  0  0
   38.2418   87.9556   85.9311 C   0  0  2  0  0  0  0  0  0  0  0  0
   36.8250   87.6685   85.9114 C   0  0  0  0  0  0  0  0  0  0  0  0
   35.9202   88.3382   86.3831 O   0  0  0  0  0  0  0  0  0  0  0  0
   38.8673   88.5748   84.7357 C   0  0  0  0  0  0  0  0  0  0  0  0
   38.0596   89.1922   83.6964 C   0  0  0  0  0  0  0  0  0  0  0  0
   38.7319   89.9107   82.6092 C   0  0  0  0  0  0  0  0  0  0  0  0
   38.8176   89.3026   81.3380 N   0  0  0  0  0  0  0  0  0  0  0  0
   37.7751   89.4359   80.3648 C   0  0  0  0  0  0  0  0  0  0  0  0
   37.5114   88.4697   79.5497 N   0  0  0  0  0  0  0  0  0  0  0  0
   37.0645   90.6542   80.3313 N   0  0  0  0  0  0  0  0  0  0  0  0
   52.3208   74.3545   99.5701 H   0  0  0  0  0  0  0  0  0  0  0  0
   41.2301   77.8155   98.0444 H   0  0  0  0  0  0  0  0  0  0  0  0
   37.9501   87.5445   79.7289 H   0  0  0  0  0  0  0  0  0  0  0  0
  2  1  1  0
  3  2  1  0
  2  5  1  6
  3  4  2  0
  6  3  1  0
  7  6  1  0
  8  7  1  0
  7 10  1  1
  8  9  2  0
 17  8  1  0
 10 11  1  0
 11 12  1  0
 12 13  1  0
 13 14  1  0
 14 15  1  0
 14 16  2  0
 18 17  1  0
 19 18  1  0
 18 21  1  6
 19 20  2  0
 29 19  1  0
 21 22  1  0
 22 23  2  0
 22 24  1  0
 23 25  1  0
 24 26  2  0
 25 27  2  0
 26 27  1  0
 27 28  1  0
 30 29  1  0
 31 30  1  0
 30 33  1  1
 31 32  2  0
 35 31  1  0
 33 34  1  0
 36 35  1  0
 37 36  1  0
 36 39  1  1
 37 38  2  0
 46 37  1  0
 39 40  1  0
 40 41  1  0
 41 42  1  0
 42 43  1  0
 43 44  2  0
 43 45  1  0
 47 46  1  0
 48 47  1  0
 47 50  1  1
 48 49  2  0
 55 48  1  0
 50 51  1  0
 51 52  1  0
 52 53  1  0
 52 54  2  0
 56 55  1  0
 57 56  1  0
 56 59  1  6
 57 58  2  0
 64 57  1  0
 59 60  1  0
 60 61  1  0
 61 62  2  0
 61 63  1  0
 65 64  1  0
 66 65  1  0
 65 68  1  1
 66 67  2  0
 72 66  1  0
 68 69  1  0
 69 70  1  6
 69 71  1  0
 73 72  1  0
 74 73  1  0
 73 76  1  1
 74 75  2  0
 81 74  1  0
 76 77  1  0
 77 78  1  1
 77 79  1  0
 80 82  2  0
 83 80  1  0
 80 89  1  0
 83 81  1  0
 84 83  1  0
 83 88  1  1
 87 84  1  0
 85 86  1  0
 85 87  1  0
 89 90  1  0
 90 91  1  0
 90 93  1  1
 91 92  2  0
 91100  1  0
 93 94  1  0
 94 95  2  0
 94 96  1  0
 95 97  1  0
 96 98  2  0
 97 99  2  0
 98 99  1  0
100101  1  0
101102  1  0
101104  1  1
102103  2  0
102109  1  0
104105  1  0
105106  1  0
106107  2  0
106108  1  0
109110  1  0
110111  1  0
110113  1  6
111112  2  0
113114  1  0
114115  1  0
115116  1  0
116117  1  0
117118  2  0
117119  1  0
 16120  1  0
 44121  1  0
118122  1  0
M  CHG  1   1   1
M  END
$$$$
