
     RDKit          3D

122123  0  0  0  0  0  0  0  0999 V2000
   60.6052   82.2656   96.2057 N   0  0  0  0  0  4  0  0  0  0  0  0
   60.5898   81.2776   95.1460 C   0  0  2  0  0  0  0  0  0  0  0  0
   59.5979   80.2090   95.3500 C   0  0  0  0  0  0  0  0  0  0  0  0
   60.0153   79.1323   95.8614 O   0  0  0  0  0  0  0  0  0  0  0  0
   61.9399   80.7110   94.8621 C   0  0  0  0  0  0  0  0  0  0  0  0
   58.2308   80.2751   95.0270 N   0  0  0  0  0  0  0  0  0  0  0  0
   57.2808   79.2065   95.2313 C   0  0  2  0  0  0  0  0  0  0  0  0
   57.2220   78.3707   94.0140 C   0  0  0  0  0  0  0  0  0  0  0  0
   57.9067   78.7196   93.0219 O   0  0  0  0  0  0  0  0  0  0  0  0
   55.9194   79.7556   95.6277 C   0  0  0  0  0  0  0  0  0  0  0  0
   56.0366   80.5192   96.8973 C   0  0  0  0  0  0  0  0  0  0  0  0
   54.7038   80.9032   97.4503 C   0  0  0  0  0  0  0  0  0  0  0  0
   54.5549   80.9568   98.8584 N   0  0  0  0  0  0  0  0  0  0  0  0
   53.4021   80.5353   99.5513 C   0  0  0  0  0  0  0  0  0  0  0  0
   52.2836   81.3466   99.7890 N   0  0  0  0  0  0  0  0  0  0  0  0
   53.3843   79.3242  100.0146 N   0  0  0  0  0  0  0  0  0  0  0  0
   56.4263   77.1766   93.9034 N   0  0  0  0  0  0  0  0  0  0  0  0
   56.2991   76.3744   92.7385 C   0  0  2  0  0  0  0  0  0  0  0  0
   54.9820   75.9490   92.3259 C   0  0  0  0  0  0  0  0  0  0  0  0
   54.9038   75.2741   91.2458 O   0  0  0  0  0  0  0  0  0  0  0  0
   57.3695   75.3136   92.5270 C   0  0  0  0  0  0  0  0  0  0  0  0
   58.6715   75.9855   92.2636 C   0  0  0  0  0  0  0  0  0  0  0  0
   59.0579   76.5219   91.0685 C   0  0  0  0  0  0  0  0  0  0  0  0
   59.6061   76.0792   93.3071 C   0  0  0  0  0  0  0  0  0  0  0  0
   60.2851   77.1328   90.8416 C   0  0  0  0  0  0  0  0  0  0  0  0
   60.8233   76.6772   93.1068 C   0  0  0  0  0  0  0  0  0  0  0  0
   61.1692   77.2029   91.8846 C   0  0  0  0  0  0  0  0  0  0  0  0
   62.4210   77.8097   91.6956 O   0  0  0  0  0  0  0  0  0  0  0  0
   53.7308   76.1816   92.9618 N   0  0  0  0  0  0  0  0  0  0  0  0
   52.5659   75.3927   92.6451 C   0  0  2  0  0  0  0  0  0  0  0  0
   51.3998   76.0294   93.3599 C   0  0  0  0  0  0  0  0  0  0  0  0
   51.3275   75.7924   94.5741 O   0  0  0  0  0  0  0  0  0  0  0  0
   52.6865   73.9406   92.8555 C   0  0  0  0  0  0  0  0  0  0  0  0
   52.4286   73.6672   94.1979 O   0  0  0  0  0  0  0  0  0  0  0  0
   50.4557   76.8305   92.7069 N   0  0  0  0  0  0  0  0  0  0  0  0
   49.3820   77.5800   93.2184 C   0  0  2  0  0  0  0  0  0  0  0  0
   48.1514   76.8764   93.5723 C   0  0  0  0  0  0  0  0  0  0  0  0
   47.9847   76.6064   94.8061 O   0  0  0  0  0  0  0  0  0  0  0  0
   49.1598   78.9837   92.6693 C   0  0  0  0  0  0  0  0  0  0  0  0
   49.7474   80.0753   93.4729 C   0  0  0  0  0  0  0  0  0  0  0  0
   49.5257   81.4706   92.9409 C   0  0  0  0  0  0  0  0  0  0  0  0
   50.5163   82.4223   93.3622 N   0  0  0  0  0  0  0  0  0  0  0  0
   50.1909   83.6698   93.9538 C   0  0  0  0  0  0  0  0  0  0  0  0
   51.1838   84.3246   94.4747 N   0  0  0  0  0  0  0  0  0  0  0  0
   48.8665   84.1845   93.9822 N   0  0  0  0  0  0  0  0  0  0  0  0
   47.1248   76.4571   92.7110 N   0  0  0  0  0  0  0  0  0  0  0  0
   45.8025   77.1458   92.7325 C   0  0  2  0  0  0  0  0  0  0  0  0
   45.9675   78.3687   91.9200 C   0  0  0  0  0  0  0  0  0  0  0  0
   46.6988   79.2772   92.4296 O   0  0  0  0  0  0  0  0  0  0  0  0
   45.5601   77.4180   94.1705 C   0  0  0  0  0  0  0  0  0  0  0  0
   44.2703   77.2357   94.8206 C   0  0  0  0  0  0  0  0  0  0  0  0
   43.3868   78.3267   95.1437 C   0  0  0  0  0  0  0  0  0  0  0  0
   43.4231   79.5014   94.3801 O   0  0  0  0  0  0  0  0  0  0  0  0
   42.5767   78.2803   96.0901 O   0  0  0  0  0  0  0  0  0  0  0  0
   45.3650   78.5517   90.6494 N   0  0  0  0  0  0  0  0  0  0  0  0
   44.6657   79.7223   90.2330 C   0  0  2  0  0  0  0  0  0  0  0  0
   45.6210   80.7865   89.8495 C   0  0  0  0  0  0  0  0  0  0  0  0
   45.6789   81.2947   88.7366 O   0  0  0  0  0  0  0  0  0  0  0  0
   43.5606   80.1803   91.1216 C   0  0  0  0  0  0  0  0  0  0  0  0
   42.7764   81.2909   90.5364 C   0  0  0  0  0  0  0  0  0  0  0  0
   42.0736   81.0567   89.2818 C   0  0  0  0  0  0  0  0  0  0  0  0
   42.4685   80.2431   88.4358 O   0  0  0  0  0  0  0  0  0  0  0  0
   40.8575   81.7890   88.9871 N   0  0  0  0  0  0  0  0  0  0  0  0
   46.5637   81.2797   90.8183 N   0  0  0  0  0  0  0  0  0  0  0  0
   47.6410   82.1298   90.4216 C   0  0  2  0  0  0  0  0  0  0  0  0
   47.0492   83.3958   89.8396 C   0  0  0  0  0  0  0  0  0  0  0  0
   46.1840   83.9886   90.4936 O   0  0  0  0  0  0  0  0  0  0  0  0
   48.6290   81.4789   89.5605 C   0  0  0  0  0  0  0  0  0  0  0  0
   49.5477   82.3104   88.7453 C   0  0  1  0  0  0  0  0  0  0  0  0
   49.3585   81.8055   87.2869 C   0  0  0  0  0  0  0  0  0  0  0  0
   49.2394   83.7734   88.6816 C   0  0  0  0  0  0  0  0  0  0  0  0
   47.4627   83.8828   88.6013 N   0  0  0  0  0  0  0  0  0  0  0  0
   47.0407   84.9722   87.8327 C   0  0  2  0  0  0  0  0  0  0  0  0
   45.8996   84.9869   86.9683 C   0  0  0  0  0  0  0  0  0  0  0  0
   45.4480   86.1600   86.6305 O   0  0  0  0  0  0  0  0  0  0  0  0
   48.2811   85.5833   87.2319 C   0  0  0  0  0  0  0  0  0  0  0  0
   48.9056   86.7376   87.8919 C   0  0  1  0  0  0  0  0  0  0  0  0
   48.9246   87.9997   87.0736 C   0  0  0  0  0  0  0  0  0  0  0  0
   47.9562   87.0411   89.1150 C   0  0  0  0  0  0  0  0  0  0  0  0
   42.8900   83.6949   87.2827 C   0  0  0  0  0  0  0  0  0  0  0  0
   45.1180   83.9812   86.3817 N   0  0  0  0  0  0  0  0  0  0  0  0
   42.0556   84.4718   87.7627 O   0  0  0  0  0  0  0  0  0  0  0  0
   43.7032   84.0851   86.0761 C   0  0  1  0  0  0  0  0  0  0  0  0
   43.2375   83.4900   84.8262 C   0  0  0  0  0  0  0  0  0  0  0  0
   42.9197   81.5447   83.2444 C   0  0  0  0  0  0  0  0  0  0  0  0
   43.3833   82.5387   82.1897 C   0  0  0  0  0  0  0  0  0  0  0  0
   43.4014   82.0415   84.5717 C   0  0  0  0  0  0  0  0  0  0  0  0
   43.4561   85.5957   85.9677 C   0  0  0  0  0  0  0  0  0  0  0  0
   43.1173   82.4282   87.8211 N   0  0  0  0  0  0  0  0  0  0  0  0
   42.5575   81.9900   89.0685 C   0  0  2  0  0  0  0  0  0  0  0  0
   43.0357   82.8886   90.1347 C   0  0  0  0  0  0  0  0  0  0  0  0
   44.1489   82.6840   90.6546 O   0  0  0  0  0  0  0  0  0  0  0  0
   42.9048   80.5419   89.3252 C   0  0  0  0  0  0  0  0  0  0  0  0
   42.4949   80.0563   90.6539 C   0  0  0  0  0  0  0  0  0  0  0  0
   41.4502   80.5467   91.4016 C   0  0  0  0  0  0  0  0  0  0  0  0
   43.2314   78.9980   91.2008 C   0  0  0  0  0  0  0  0  0  0  0  0
   41.1282   80.0348   92.6339 C   0  0  0  0  0  0  0  0  0  0  0  0
   42.9360   78.4699   92.4220 C   0  0  0  0  0  0  0  0  0  0  0  0
   41.8700   78.9980   93.1432 C   0  0  0  0  0  0  0  0  0  0  0  0
   42.2382   83.9681   90.5604 N   0  0  0  0  0  0  0  0  0  0  0  0
   42.7174   84.9804   91.4534 C   0  0  2  0  0  0  0  0  0  0  0  0
   41.8331   85.1357   92.6046 C   0  0  0  0  0  0  0  0  0  0  0  0
   42.2705   85.2273   93.7617 O   0  0  0  0  0  0  0  0  0  0  0  0
   43.2627   86.1715   90.7839 C   0  0  0  0  0  0  0  0  0  0  0  0
   42.3961   87.3591   90.6373 C   0  0  0  0  0  0  0  0  0  0  0  0
   41.7529   87.8641   91.8188 C   0  0  0  0  0  0  0  0  0  0  0  0
   40.9772   87.2678   92.5532 O   0  0  0  0  0  0  0  0  0  0  0  0
   42.0303   89.2404   92.2243 N   0  0  0  0  0  0  0  0  0  0  0  0
   40.4007   85.1986   92.4211 N   0  0  0  0  0  0  0  0  0  0  0  0
   39.4723   85.3108   93.5276 C   0  0  2  0  0  0  0  0  0  0  0  0
   38.0936   84.9589   93.2715 C   0  0  0  0  0  0  0  0  0  0  0  0
   37.1517   85.0159   94.0454 O   0  0  0  0  0  0  0  0  0  0  0  0
   39.7694   86.5542   94.2823 C   0  0  0  0  0  0  0  0  0  0  0  0
   41.0784   86.7841   94.8714 C   0  0  0  0  0  0  0  0  0  0  0  0
   41.1628   87.1604   96.2861 C   0  0  0  0  0  0  0  0  0  0  0  0
   40.0811   87.8493   96.8763 N   0  0  0  0  0  0  0  0  0  0  0  0
   40.2283   88.5827   98.0979 C   0  0  0  0  0  0  0  0  0  0  0  0
   40.9457   89.6556   98.1363 N   0  0  0  0  0  0  0  0  0  0  0  0
   39.5708   88.0844   99.2423 N   0  0  0  0  0  0  0  0  0  0  0  0
   54.0924   78.6063   99.7755 H   0  0  0  0  0  0  0  0  0  0  0  0
   52.1438   83.9169   94.3672 H   0  0  0  0  0  0  0  0  0  0  0  0
   41.6828   89.7258   98.8660 H   0  0  0  0  0  0  0  0  0  0  0  0
  2  1  1  0
  3  2  1  0
  2  5  1  1
  3  4  2  0
  6  3  1  0
  7  6  1  0
  8  7  1  0
  7 10  1  6
  8  9  2  0
 17  8  1  0
 10 11  1  0
 11 12  1  0
 12 13  1  0
 13 14  1  0
 14 15  1  0
 14 16  2  0
 18 17  1  0
 19 18  1  0
 18 21  1  1
 19 20  2  0
 29 19  1  0
 21 22  1  0
 22 23  2  0
 22 24  1  0
 23 25  1  0
 24 26  2  0
 25 27  2  0
 26 27  1  0
 27 28  1  0
 30 29  1  0
 31 30  1  0
 30 33  1  1
 31 32  2  0
 35 31  1  0
 33 34  1  0
 36 35  1  0
 37 36  1  0
 36 39  1  6
 37 38  2  0
 46 37  1  0
 39 40  1  0
 40 41  1  0
 41 42  1  0
 42 43  1  0
 43 44  2  0
 43 45  1  0
 47 46  1  0
 48 47  1  0
 47 50  1  1
 48 49  2  0
 55 48  1  0
 50 51  1  0
 51 52  1  0
 52 53  1  0
 52 54  2  0
 56 55  1  0
 57 56  1  0
 56 59  1  1
 57 58  2  0
 64 57  1  0
 59 60  1  0
 60 61  1  0
 61 62  2  0
 61 63  1  0
 65 64  1  0
 66 65  1  0
 65 68  1  6
 66 67  2  0
 72 66  1  0
 68 69  1  0
 69 70  1  6
 69 71  1  0
 73 72  1  0
 74 73  1  0
 73 76  1  6
 74 75  2  0
 81 74  1  0
 76 77  1  0
 77 78  1  6
 77 79  1  0
 80 82  2  0
 83 80  1  0
 80 89  1  0
 83 81  1  0
 84 83  1  0
 83 88  1  6
 87 84  1  0
 85 86  1  0
 85 87  1  0
 89 90  1  0
 90 91  1  0
 90 93  1  1
 91 92  2  0
 91100  1  0
 93 94  1  0
 94 95  2  0
 94 96  1  0
 95 97  1  0
 96 98  2  0
 97 99  2  0
 98 99  1  0
100101  1  0
101102  1  0
101104  1  6
102103  2  0
102109  1  0
104105  1  0
105106  1  0
106107  2  0
106108  1  0
109110  1  0
110111  1  0
110113  1  6
111112  2  0
113114  1  0
114115  1  0
115116  1  0
116117  1  0
117118  2  0
117119  1  0
 16120  1  0
 44121  1  0
118122  1  0
M  CHG  1   1   1
M  END
$$$$
