
     RDKit          3D

122123  0  0  0  0  0  0  0  0999 V2000
   50.0055   75.4553   93.9554 N   0  0  0  0  0  4  0  0  0  0  0  0
   51.1040   76.2581   94.4535 C   0  0  2  0  0  0  0  0  0  0  0  0
   51.3111   77.5064   93.7010 C   0  0  0  0  0  0  0  0  0  0  0  0
   50.3322   77.9379   93.0298 O   0  0  0  0  0  0  0  0  0  0  0  0
   52.3751   75.4879   94.5776 C   0  0  0  0  0  0  0  0  0  0  0  0
   52.4970   78.2610   93.6590 N   0  0  0  0  0  0  0  0  0  0  0  0
   52.8444   79.1969   92.6150 C   0  0  2  0  0  0  0  0  0  0  0  0
   51.8763   79.0674   91.5060 C   0  0  0  0  0  0  0  0  0  0  0  0
   51.5615   77.9137   91.1257 O   0  0  0  0  0  0  0  0  0  0  0  0
   54.2816   78.9977   92.1603 C   0  0  0  0  0  0  0  0  0  0  0  0
   54.8700   80.3053   91.7693 C   0  0  0  0  0  0  0  0  0  0  0  0
   56.2664   80.1662   91.2590 C   0  0  0  0  0  0  0  0  0  0  0  0
   56.9083   81.3205   90.7458 N   0  0  0  0  0  0  0  0  0  0  0  0
   57.8508   81.3048   89.6980 C   0  0  0  0  0  0  0  0  0  0  0  0
   58.3477   82.4536   89.0663 N   0  0  0  0  0  0  0  0  0  0  0  0
   58.2704   80.1512   89.2796 N   0  0  0  0  0  0  0  0  0  0  0  0
   51.2711   80.1904   90.8397 N   0  0  0  0  0  0  0  0  0  0  0  0
   50.8227   80.2073   89.4924 C   0  0  2  0  0  0  0  0  0  0  0  0
   49.6388   79.4578   89.1425 C   0  0  0  0  0  0  0  0  0  0  0  0
   49.5409   79.0614   87.9336 O   0  0  0  0  0  0  0  0  0  0  0  0
   51.9013   80.1668   88.4196 C   0  0  0  0  0  0  0  0  0  0  0  0
   52.1078   78.7555   87.9937 C   0  0  0  0  0  0  0  0  0  0  0  0
   51.1485   77.7834   87.9834 C   0  0  0  0  0  0  0  0  0  0  0  0
   53.3873   78.3569   87.5753 C   0  0  0  0  0  0  0  0  0  0  0  0
   51.3675   76.4675   87.5944 C   0  0  0  0  0  0  0  0  0  0  0  0
   53.6273   77.0641   87.1874 C   0  0  0  0  0  0  0  0  0  0  0  0
   52.6295   76.1186   87.1944 C   0  0  0  0  0  0  0  0  0  0  0  0
   52.8928   74.7983   86.7965 O   0  0  0  0  0  0  0  0  0  0  0  0
   48.5396   79.0920   89.9684 N   0  0  0  0  0  0  0  0  0  0  0  0
   47.3481   78.4954   89.4170 C   0  0  2  0  0  0  0  0  0  0  0  0
   46.6568   79.5664   88.6101 C   0  0  0  0  0  0  0  0  0  0  0  0
   45.7347   79.1713   87.8826 O   0  0  0  0  0  0  0  0  0  0  0  0
   46.4718   77.7928   90.3688 C   0  0  0  0  0  0  0  0  0  0  0  0
   46.9941   77.9552   91.6510 O   0  0  0  0  0  0  0  0  0  0  0  0
   47.0253   80.9156   88.6672 N   0  0  0  0  0  0  0  0  0  0  0  0
   46.2758   82.0796   88.4227 C   0  0  2  0  0  0  0  0  0  0  0  0
   46.4772   83.2311   89.2991 C   0  0  0  0  0  0  0  0  0  0  0  0
   46.3631   83.0210   90.5504 O   0  0  0  0  0  0  0  0  0  0  0  0
   44.8452   81.9210   87.9233 C   0  0  0  0  0  0  0  0  0  0  0  0
   44.5721   82.5088   86.5958 C   0  0  0  0  0  0  0  0  0  0  0  0
   43.2219   82.1852   86.0030 C   0  0  0  0  0  0  0  0  0  0  0  0
   42.4276   83.3409   85.6897 N   0  0  0  0  0  0  0  0  0  0  0  0
   41.0352   83.2766   85.4269 C   0  0  0  0  0  0  0  0  0  0  0  0
   40.5961   84.0800   84.5062 N   0  0  0  0  0  0  0  0  0  0  0  0
   40.1627   82.3937   86.1188 N   0  0  0  0  0  0  0  0  0  0  0  0
   46.7808   84.5503   88.9263 N   0  0  0  0  0  0  0  0  0  0  0  0
   47.4886   85.4528   89.8791 C   0  0  2  0  0  0  0  0  0  0  0  0
   46.4382   86.0542   90.7263 C   0  0  0  0  0  0  0  0  0  0  0  0
   46.8134   86.4483   91.8769 O   0  0  0  0  0  0  0  0  0  0  0  0
   48.1776   86.4329   89.0043 C   0  0  0  0  0  0  0  0  0  0  0  0
   48.0367   86.4611   87.5556 C   0  0  0  0  0  0  0  0  0  0  0  0
   47.0997   87.3130   86.8689 C   0  0  0  0  0  0  0  0  0  0  0  0
   45.8632   86.7977   86.4566 O   0  0  0  0  0  0  0  0  0  0  0  0
   47.3385   88.5097   86.6138 O   0  0  0  0  0  0  0  0  0  0  0  0
   45.0888   86.2000   90.3152 N   0  0  0  0  0  0  0  0  0  0  0  0
   44.0919   86.9394   91.0167 C   0  0  2  0  0  0  0  0  0  0  0  0
   43.1541   86.0216   91.7026 C   0  0  0  0  0  0  0  0  0  0  0  0
   41.9404   86.0243   91.5379 O   0  0  0  0  0  0  0  0  0  0  0  0
   43.4308   88.0379   90.2573 C   0  0  0  0  0  0  0  0  0  0  0  0
   43.1740   87.6843   88.8431 C   0  0  0  0  0  0  0  0  0  0  0  0
   41.8092   87.3643   88.4461 C   0  0  0  0  0  0  0  0  0  0  0  0
   41.5193   86.9645   87.3104 O   0  0  0  0  0  0  0  0  0  0  0  0
   40.7267   87.5065   89.4001 N   0  0  0  0  0  0  0  0  0  0  0  0
   43.6622   85.0515   92.6359 N   0  0  0  0  0  0  0  0  0  0  0  0
   43.0569   83.7628   92.7514 C   0  0  2  0  0  0  0  0  0  0  0  0
   43.8938   82.9356   93.7038 C   0  0  0  0  0  0  0  0  0  0  0  0
   43.7221   81.7116   93.7177 O   0  0  0  0  0  0  0  0  0  0  0  0
   42.7891   83.1118   91.4685 C   0  0  0  0  0  0  0  0  0  0  0  0
   42.2380   81.7350   91.4493 C   0  0  1  0  0  0  0  0  0  0  0  0
   40.9447   81.8322   90.5915 C   0  0  0  0  0  0  0  0  0  0  0  0
   43.0690   80.6964   90.7635 C   0  0  0  0  0  0  0  0  0  0  0  0
   44.8313   83.5316   94.5448 N   0  0  0  0  0  0  0  0  0  0  0  0
   46.2122   83.3594   94.6824 C   0  0  2  0  0  0  0  0  0  0  0  0
   47.0930   84.2399   95.3886 C   0  0  0  0  0  0  0  0  0  0  0  0
   47.4128   83.8853   96.5994 O   0  0  0  0  0  0  0  0  0  0  0  0
   46.7283   82.9143   93.3376 C   0  0  0  0  0  0  0  0  0  0  0  0
   45.7742   82.4697   92.3130 C   0  0  1  0  0  0  0  0  0  0  0  0
   44.3677   82.9693   92.4997 C   0  0  0  0  0  0  0  0  0  0  0  0
   46.2912   83.1485   90.9859 C   0  0  0  0  0  0  0  0  0  0  0  0
   49.7111   85.0682   96.3702 C   0  0  0  0  0  0  0  0  0  0  0  0
   47.7120   85.4549   95.0617 N   0  0  0  0  0  0  0  0  0  0  0  0
   50.9278   85.2879   96.4064 O   0  0  0  0  0  0  0  0  0  0  0  0
   48.7559   86.1026   95.8342 C   0  0  1  0  0  0  0  0  0  0  0  0
   48.3460   87.1012   96.8181 C   0  0  0  0  0  0  0  0  0  0  0  0
   48.6978   89.2374   98.1220 C   0  0  0  0  0  0  0  0  0  0  0  0
   47.5283   89.8742   97.3855 C   0  0  0  0  0  0  0  0  0  0  0  0
   49.2699   88.1820   97.2280 C   0  0  0  0  0  0  0  0  0  0  0  0
   49.5972   86.8360   94.7813 C   0  0  0  0  0  0  0  0  0  0  0  0
   49.1619   83.8686   96.8232 N   0  0  0  0  0  0  0  0  0  0  0  0
   49.9549   82.7486   97.2453 C   0  0  2  0  0  0  0  0  0  0  0  0
   49.2764   81.5109   96.8202 C   0  0  0  0  0  0  0  0  0  0  0  0
   48.1344   81.2600   97.2496 O   0  0  0  0  0  0  0  0  0  0  0  0
   50.1942   82.8012   98.7365 C   0  0  0  0  0  0  0  0  0  0  0  0
   49.5043   83.9128   99.4128 C   0  0  0  0  0  0  0  0  0  0  0  0
   48.5994   83.7906  100.4409 C   0  0  0  0  0  0  0  0  0  0  0  0
   49.8011   85.2090   98.9728 C   0  0  0  0  0  0  0  0  0  0  0  0
   48.0012   84.8802  101.0233 C   0  0  0  0  0  0  0  0  0  0  0  0
   49.2223   86.3096   99.5306 C   0  0  0  0  0  0  0  0  0  0  0  0
   48.3122   86.1377  100.5687 C   0  0  0  0  0  0  0  0  0  0  0  0
   49.9166   80.6212   95.9364 N   0  0  0  0  0  0  0  0  0  0  0  0
   49.4495   79.2865   95.7074 C   0  0  2  0  0  0  0  0  0  0  0  0
   50.4257   78.5032   94.9560 C   0  0  0  0  0  0  0  0  0  0  0  0
   50.0896   77.5527   94.2335 O   0  0  0  0  0  0  0  0  0  0  0  0
   48.0207   79.1933   95.3696 C   0  0  0  0  0  0  0  0  0  0  0  0
   47.5732   79.6810   94.0487 C   0  0  0  0  0  0  0  0  0  0  0  0
   46.1774   79.5572   93.7310 C   0  0  0  0  0  0  0  0  0  0  0  0
   45.6374   79.7915   92.6586 O   0  0  0  0  0  0  0  0  0  0  0  0
   45.2660   79.1021   94.7788 N   0  0  0  0  0  0  0  0  0  0  0  0
   51.8326   78.8277   95.0277 N   0  0  0  0  0  0  0  0  0  0  0  0
   52.8374   77.8728   95.4487 C   0  0  2  0  0  0  0  0  0  0  0  0
   52.7636   76.5439   94.8839 C   0  0  0  0  0  0  0  0  0  0  0  0
   52.3945   76.2272   93.7646 O   0  0  0  0  0  0  0  0  0  0  0  0
   53.0640   78.0229   96.9081 C   0  0  0  0  0  0  0  0  0  0  0  0
   53.3935   76.8783   97.7418 C   0  0  0  0  0  0  0  0  0  0  0  0
   53.9013   77.1115   99.0975 C   0  0  0  0  0  0  0  0  0  0  0  0
   54.0087   76.0189   99.9850 N   0  0  0  0  0  0  0  0  0  0  0  0
   55.0494   75.9416  100.9660 C   0  0  0  0  0  0  0  0  0  0  0  0
   55.5970   77.0162  101.4272 N   0  0  0  0  0  0  0  0  0  0  0  0
   55.4494   74.6584  101.3945 N   0  0  0  0  0  0  0  0  0  0  0  0
   57.9236   79.2456   89.6453 H   0  0  0  0  0  0  0  0  0  0  0  0
   41.2155   84.2545   83.6785 H   0  0  0  0  0  0  0  0  0  0  0  0
   55.1916   77.9314  101.1468 H   0  0  0  0  0  0  0  0  0  0  0  0
  2  1  1  0
  3  2  1  0
  2  5  1  6
  3  4  2  0
  6  3  1  0
  7  6  1  0
  8  7  1  0
  7 10  1  6
  8  9  2  0
 17  8  1  0
 10 11  1  0
 11 12  1  0
 12 13  1  0
 13 14  1  0
 14 15  1  0
 14 16  2  0
 18 17  1  0
 19 18  1  0
 18 21  1  6
 19 20  2  0
 29 19  1  0
 21 22  1  0
 22 23  2  0
 22 24  1  0
 23 25  1  0
 24 26  2  0
 25 27  2  0
 26 27  1  0
 27 28  1  0
 30 29  1  0
 31 30  1  0
 30 33  1  1
 31 32  2  0
 35 31  1  0
 33 34  1  0
 36 35  1  0
 37 36  1  0
 36 39  1  1
 37 38  2  0
 46 37  1  0
 39 40  1  0
 40 41  1  0
 41 42  1  0
 42 43  1  0
 43 44  2  0
 43 45  1  0
 47 46  1  0
 48 47  1  0
 47 50  1  6
 48 49  2  0
 55 48  1  0
 50 51  1  0
 51 52  1  0
 52 53  1  0
 52 54  2  0
 56 55  1  0
 57 56  1  0
 56 59  1  6
 57 58  2  0
 64 57  1  0
 59 60  1  0
 60 61  1  0
 61 62  2  0
 61 63  1  0
 65 64  1  0
 66 65  1  0
 65 68  1  6
 66 67  2  0
 72 66  1  0
 68 69  1  0
 69 70  1  6
 69 71  1  0
 73 72  1  0
 74 73  1  0
 73 76  1  6
 74 75  2  0
 81 74  1  0
 76 77  1  0
 77 78  1  1
 77 79  1  0
 80 82  2  0
 83 80  1  0
 80 89  1  0
 83 81  1  0
 84 83  1  0
 83 88  1  6
 87 84  1  0
 85 86  1  0
 85 87  1  0
 89 90  1  0
 90 91  1  0
 90 93  1  1
 91 92  2  0
 91100  1  0
 93 94  1  0
 94 95  2  0
 94 96  1  0
 95 97  1  0
 96 98  2  0
 97 99  2  0
 98 99  1  0
100101  1  0
101102  1  0
101104  1  6
102103  2  0
102109  1  0
104105  1  0
105106  1  0
106107  2  0
106108  1  0
109110  1  0
110111  1  0
110113  1  1
111112  2  0
113114  1  0
114115  1  0
115116  1  0
116117  1  0
117118  2  0
117119  1  0
 16120  1  0
 44121  1  0
118122  1  0
M  CHG  1   1   1
M  END
$$$$
