
     RDKit          3D

122123  0  0  0  0  0  0  0  0999 V2000
   60.8103   79.2083   94.2681 N   0  0  0  0  0  4  0  0  0  0  0  0
   60.7389   77.9335   94.9528 C   0  0  2  0  0  0  0  0  0  0  0  0
   59.5388   77.1496   94.6166 C   0  0  0  0  0  0  0  0  0  0  0  0
   59.1561   77.1788   93.4134 O   0  0  0  0  0  0  0  0  0  0  0  0
   60.9028   78.0588   96.4298 C   0  0  0  0  0  0  0  0  0  0  0  0
   58.7792   76.3738   95.5102 N   0  0  0  0  0  0  0  0  0  0  0  0
   57.6063   75.6109   95.1512 C   0  0  2  0  0  0  0  0  0  0  0  0
   56.5084   76.5403   94.8127 C   0  0  0  0  0  0  0  0  0  0  0  0
   56.4328   77.6229   95.4426 O   0  0  0  0  0  0  0  0  0  0  0  0
   57.2276   74.6399   96.2583 C   0  0  0  0  0  0  0  0  0  0  0  0
   58.1953   73.5123   96.2896 C   0  0  0  0  0  0  0  0  0  0  0  0
   57.6008   72.2436   95.7734 C   0  0  0  0  0  0  0  0  0  0  0  0
   58.4116   71.0816   95.7628 N   0  0  0  0  0  0  0  0  0  0  0  0
   59.5567   70.9201   94.9570 C   0  0  0  0  0  0  0  0  0  0  0  0
   59.5826   71.1312   93.5712 N   0  0  0  0  0  0  0  0  0  0  0  0
   60.6518   70.5327   95.5336 N   0  0  0  0  0  0  0  0  0  0  0  0
   55.5226   76.2751   93.7982 N   0  0  0  0  0  0  0  0  0  0  0  0
   54.4247   77.1155   93.4742 C   0  0  2  0  0  0  0  0  0  0  0  0
   53.0873   76.6631   93.7785 C   0  0  0  0  0  0  0  0  0  0  0  0
   52.3262   76.3997   92.7887 O   0  0  0  0  0  0  0  0  0  0  0  0
   54.5197   77.8765   92.1598 C   0  0  0  0  0  0  0  0  0  0  0  0
   53.4420   78.9025   92.1154 C   0  0  0  0  0  0  0  0  0  0  0  0
   53.2436   79.7988   91.1041 C   0  0  0  0  0  0  0  0  0  0  0  0
   52.5478   78.9894   93.1942 C   0  0  0  0  0  0  0  0  0  0  0  0
   52.2382   80.7579   91.0902 C   0  0  0  0  0  0  0  0  0  0  0  0
   51.5483   79.9277   93.2029 C   0  0  0  0  0  0  0  0  0  0  0  0
   51.3877   80.8109   92.1617 C   0  0  0  0  0  0  0  0  0  0  0  0
   50.3604   81.7673   92.1875 O   0  0  0  0  0  0  0  0  0  0  0  0
   52.4809   76.4673   95.0505 N   0  0  0  0  0  0  0  0  0  0  0  0
   51.1344   75.9662   95.1747 C   0  0  2  0  0  0  0  0  0  0  0  0
   50.2336   77.1674   95.3226 C   0  0  0  0  0  0  0  0  0  0  0  0
   49.0393   76.9716   95.0560 O   0  0  0  0  0  0  0  0  0  0  0  0
   50.9204   74.9195   96.1875 C   0  0  0  0  0  0  0  0  0  0  0  0
   51.5720   73.7607   95.7679 O   0  0  0  0  0  0  0  0  0  0  0  0
   50.7032   78.4223   95.7275 N   0  0  0  0  0  0  0  0  0  0  0  0
   50.0122   79.6219   95.9724 C   0  0  2  0  0  0  0  0  0  0  0  0
   49.4106   80.3197   94.8385 C   0  0  0  0  0  0  0  0  0  0  0  0
   48.8999   81.4618   95.0788 O   0  0  0  0  0  0  0  0  0  0  0  0
   50.5418   80.5464   97.0615 C   0  0  0  0  0  0  0  0  0  0  0  0
   51.7586   81.3056   96.7073 C   0  0  0  0  0  0  0  0  0  0  0  0
   52.3388   82.1607   97.8079 C   0  0  0  0  0  0  0  0  0  0  0  0
   52.9941   83.3512   97.3409 N   0  0  0  0  0  0  0  0  0  0  0  0
   52.7181   84.6423   97.8594 C   0  0  0  0  0  0  0  0  0  0  0  0
   53.7292   85.2717   98.3765 N   0  0  0  0  0  0  0  0  0  0  0  0
   51.4221   85.2242   97.8224 N   0  0  0  0  0  0  0  0  0  0  0  0
   49.3245   79.8798   93.5079 N   0  0  0  0  0  0  0  0  0  0  0  0
   48.7911   80.7881   92.4527 C   0  0  2  0  0  0  0  0  0  0  0  0
   48.8474   80.0226   91.1903 C   0  0  0  0  0  0  0  0  0  0  0  0
   49.8828   79.3009   91.0264 O   0  0  0  0  0  0  0  0  0  0  0  0
   49.7094   81.9529   92.4807 C   0  0  0  0  0  0  0  0  0  0  0  0
   51.1529   81.8397   92.6317 C   0  0  0  0  0  0  0  0  0  0  0  0
   51.9859   82.9184   93.0982 C   0  0  0  0  0  0  0  0  0  0  0  0
   53.2781   82.6468   93.5684 O   0  0  0  0  0  0  0  0  0  0  0  0
   51.6074   84.1062   93.1089 O   0  0  0  0  0  0  0  0  0  0  0  0
   47.8301   80.0647   90.2032 N   0  0  0  0  0  0  0  0  0  0  0  0
   47.8668   79.3747   88.9561 C   0  0  2  0  0  0  0  0  0  0  0  0
   46.7102   79.7618   88.1166 C   0  0  0  0  0  0  0  0  0  0  0  0
   46.7932   80.1155   86.9469 O   0  0  0  0  0  0  0  0  0  0  0  0
   48.1130   77.9066   89.0229 C   0  0  0  0  0  0  0  0  0  0  0  0
   49.5534   77.5660   89.0329 C   0  0  0  0  0  0  0  0  0  0  0  0
   50.1191   76.9137   87.8594 C   0  0  0  0  0  0  0  0  0  0  0  0
   49.4214   76.3445   87.0092 O   0  0  0  0  0  0  0  0  0  0  0  0
   51.5538   76.9190   87.6507 N   0  0  0  0  0  0  0  0  0  0  0  0
   45.3849   79.7393   88.6766 N   0  0  0  0  0  0  0  0  0  0  0  0
   44.2731   80.2533   87.9417 C   0  0  2  0  0  0  0  0  0  0  0  0
   44.7797   81.3544   87.0345 C   0  0  0  0  0  0  0  0  0  0  0  0
   44.9801   81.0833   85.8454 O   0  0  0  0  0  0  0  0  0  0  0  0
   43.1340   80.6398   88.7749 C   0  0  0  0  0  0  0  0  0  0  0  0
   41.9812   81.3390   88.1570 C   0  0  1  0  0  0  0  0  0  0  0  0
   41.4367   80.3488   87.0889 C   0  0  0  0  0  0  0  0  0  0  0  0
   40.8122   81.6107   89.0510 C   0  0  0  0  0  0  0  0  0  0  0  0
   45.0169   82.6383   87.5210 N   0  0  0  0  0  0  0  0  0  0  0  0
   46.0363   83.5627   87.2723 C   0  0  2  0  0  0  0  0  0  0  0  0
   47.1181   83.8654   88.1598 C   0  0  0  0  0  0  0  0  0  0  0  0
   47.8357   82.8555   88.5586 O   0  0  0  0  0  0  0  0  0  0  0  0
   45.3810   84.7739   86.6585 C   0  0  0  0  0  0  0  0  0  0  0  0
   44.8676   84.6943   85.2844 C   0  0  1  0  0  0  0  0  0  0  0  0
   45.8467   84.1626   84.2737 C   0  0  0  0  0  0  0  0  0  0  0  0
   43.7172   83.6176   85.3656 C   0  0  0  0  0  0  0  0  0  0  0  0
   46.8268   85.7443   90.9161 C   0  0  0  0  0  0  0  0  0  0  0  0
   47.5984   85.0538   88.7285 N   0  0  0  0  0  0  0  0  0  0  0  0
   46.8641   85.7583   92.1524 O   0  0  0  0  0  0  0  0  0  0  0  0
   47.9919   85.2248   90.1148 C   0  0  1  0  0  0  0  0  0  0  0  0
   49.2513   85.9160   90.3783 C   0  0  0  0  0  0  0  0  0  0  0  0
   49.8798   88.1160   91.4518 C   0  0  0  0  0  0  0  0  0  0  0  0
   51.1528   88.1024   90.6182 C   0  0  0  0  0  0  0  0  0  0  0  0
   49.4398   86.6955   91.6219 C   0  0  0  0  0  0  0  0  0  0  0  0
   48.1555   83.7903   90.6346 C   0  0  0  0  0  0  0  0  0  0  0  0
   45.7207   86.2084   90.2039 N   0  0  0  0  0  0  0  0  0  0  0  0
   44.7502   87.1110   90.7558 C   0  0  2  0  0  0  0  0  0  0  0  0
   43.4275   86.4626   90.7018 C   0  0  0  0  0  0  0  0  0  0  0  0
   42.4294   87.0704   91.1327 O   0  0  0  0  0  0  0  0  0  0  0  0
   44.7826   88.4341   90.0264 C   0  0  0  0  0  0  0  0  0  0  0  0
   43.7233   89.3700   90.4404 C   0  0  0  0  0  0  0  0  0  0  0  0
   43.5439   89.8708   91.7084 C   0  0  0  0  0  0  0  0  0  0  0  0
   42.8230   89.7906   89.4533 C   0  0  0  0  0  0  0  0  0  0  0  0
   42.5312   90.7457   92.0136 C   0  0  0  0  0  0  0  0  0  0  0  0
   41.8073   90.6571   89.7266 C   0  0  0  0  0  0  0  0  0  0  0  0
   41.6642   91.1382   91.0241 C   0  0  0  0  0  0  0  0  0  0  0  0
   43.2966   85.1663   90.1676 N   0  0  0  0  0  0  0  0  0  0  0  0
   42.1525   84.3398   90.4118 C   0  0  2  0  0  0  0  0  0  0  0  0
   40.9680   85.1431   90.6999 C   0  0  0  0  0  0  0  0  0  0  0  0
   39.8753   84.6265   90.9785 O   0  0  0  0  0  0  0  0  0  0  0  0
   42.4324   83.1367   91.2108 C   0  0  0  0  0  0  0  0  0  0  0  0
   42.5162   81.8331   90.5205 C   0  0  0  0  0  0  0  0  0  0  0  0
   43.8044   81.4152   90.0404 C   0  0  0  0  0  0  0  0  0  0  0  0
   44.7412   80.9918   90.7035 O   0  0  0  0  0  0  0  0  0  0  0  0
   44.0654   81.4874   88.6044 N   0  0  0  0  0  0  0  0  0  0  0  0
   41.0423   86.5866   90.6778 N   0  0  0  0  0  0  0  0  0  0  0  0
   39.9412   87.4351   91.0857 C   0  0  2  0  0  0  0  0  0  0  0  0
   38.6349   86.8226   91.1798 C   0  0  0  0  0  0  0  0  0  0  0  0
   38.1986   86.1281   92.0835 O   0  0  0  0  0  0  0  0  0  0  0  0
   40.0719   88.7517   90.4126 C   0  0  0  0  0  0  0  0  0  0  0  0
   38.9032   89.4780   89.9432 C   0  0  0  0  0  0  0  0  0  0  0  0
   38.4072   89.2223   88.5872 C   0  0  0  0  0  0  0  0  0  0  0  0
   37.3020   89.9613   88.1126 N   0  0  0  0  0  0  0  0  0  0  0  0
   37.4573   91.0414   87.1848 C   0  0  0  0  0  0  0  0  0  0  0  0
   38.2950   90.9501   86.2063 N   0  0  0  0  0  0  0  0  0  0  0  0
   36.6719   92.1956   87.3883 N   0  0  0  0  0  0  0  0  0  0  0  0
   60.7818   70.5037   96.5614 H   0  0  0  0  0  0  0  0  0  0  0  0
   54.6768   84.8349   98.2743 H   0  0  0  0  0  0  0  0  0  0  0  0
   39.0584   90.2483   86.2793 H   0  0  0  0  0  0  0  0  0  0  0  0
  2  1  1  0
  3  2  1  0
  2  5  1  1
  3  4  2  0
  6  3  1  0
  7  6  1  0
  8  7  1  0
  7 10  1  1
  8  9  2  0
 17  8  1  0
 10 11  1  0
 11 12  1  0
 12 13  1  0
 13 14  1  0
 14 15  1  0
 14 16  2  0
 18 17  1  0
 19 18  1  0
 18 21  1  6
 19 20  2  0
 29 19  1  0
 21 22  1  0
 22 23  2  0
 22 24  1  0
 23 25  1  0
 24 26  2  0
 25 27  2  0
 26 27  1  0
 27 28  1  0
 30 29  1  0
 31 30  1  0
 30 33  1  1
 31 32  2  0
 35 31  1  0
 33 34  1  0
 36 35  1  0
 37 36  1  0
 36 39  1  6
 37 38  2  0
 46 37  1  0
 39 40  1  0
 40 41  1  0
 41 42  1  0
 42 43  1  0
 43 44  2  0
 43 45  1  0
 47 46  1  0
 48 47  1  0
 47 50  1  6
 48 49  2  0
 55 48  1  0
 50 51  1  0
 51 52  1  0
 52 53  1  0
 52 54  2  0
 56 55  1  0
 57 56  1  0
 56 59  1  1
 57 58  2  0
 64 57  1  0
 59 60  1  0
 60 61  1  0
 61 62  2  0
 61 63  1  0
 65 64  1  0
 66 65  1  0
 65 68  1  1
 66 67  2  0
 72 66  1  0
 68 69  1  0
 69 70  1  6
 69 71  1  0
 73 72  1  0
 74 73  1  0
 73 76  1  1
 74 75  2  0
 81 74  1  0
 76 77  1  0
 77 78  1  6
 77 79  1  0
 80 82  2  0
 83 80  1  0
 80 89  1  0
 83 81  1  0
 84 83  1  0
 83 88  1  1
 87 84  1  0
 85 86  1  0
 85 87  1  0
 89 90  1  0
 90 91  1  0
 90 93  1  6
 91 92  2  0
 91100  1  0
 93 94  1  0
 94 95  2  0
 94 96  1  0
 95 97  1  0
 96 98  2  0
 97 99  2  0
 98 99  1  0
100101  1  0
101102  1  0
101104  1  1
102103  2  0
102109  1  0
104105  1  0
105106  1  0
106107  2  0
106108  1  0
109110  1  0
110111  1  0
110113  1  6
111112  2  0
113114  1  0
114115  1  0
115116  1  0
116117  1  0
117118  2  0
117119  1  0
 16120  1  0
 44121  1  0
118122  1  0
M  CHG  1   1   1
M  END
$$$$
