
     RDKit          3D

122123  0  0  0  0  0  0  0  0999 V2000
   49.4145   78.3075  100.3898 N   0  0  0  0  0  4  0  0  0  0  0  0
   49.6417   76.9419   99.9621 C   0  0  2  0  0  0  0  0  0  0  0  0
   48.9031   76.5750   98.7424 C   0  0  0  0  0  0  0  0  0  0  0  0
   49.2790   75.5310   98.1395 O   0  0  0  0  0  0  0  0  0  0  0  0
   49.4112   75.9479  101.0497 C   0  0  0  0  0  0  0  0  0  0  0  0
   47.8205   77.2795   98.1863 N   0  0  0  0  0  0  0  0  0  0  0  0
   47.1015   76.8854   96.9972 C   0  0  2  0  0  0  0  0  0  0  0  0
   47.9432   77.1498   95.8117 C   0  0  0  0  0  0  0  0  0  0  0  0
   47.5386   77.9915   94.9735 O   0  0  0  0  0  0  0  0  0  0  0  0
   45.7516   77.5810   96.9207 C   0  0  0  0  0  0  0  0  0  0  0  0
   44.7108   76.6108   96.4914 C   0  0  0  0  0  0  0  0  0  0  0  0
   43.3674   76.9374   97.0556 C   0  0  0  0  0  0  0  0  0  0  0  0
   42.2526   76.9171   96.1812 N   0  0  0  0  0  0  0  0  0  0  0  0
   42.1216   76.0443   95.0823 C   0  0  0  0  0  0  0  0  0  0  0  0
   41.7029   76.4417   93.8046 N   0  0  0  0  0  0  0  0  0  0  0  0
   42.3877   74.7893   95.2720 N   0  0  0  0  0  0  0  0  0  0  0  0
   49.2030   76.4988   95.5660 N   0  0  0  0  0  0  0  0  0  0  0  0
   49.9669   76.6022   94.3734 C   0  0  2  0  0  0  0  0  0  0  0  0
   49.6613   77.6610   93.4398 C   0  0  0  0  0  0  0  0  0  0  0  0
   50.3545   78.7286   93.5284 O   0  0  0  0  0  0  0  0  0  0  0  0
   50.3470   75.2929   93.6973 C   0  0  0  0  0  0  0  0  0  0  0  0
   51.4127   75.5584   92.6925 C   0  0  0  0  0  0  0  0  0  0  0  0
   52.0316   74.6122   91.9263 C   0  0  0  0  0  0  0  0  0  0  0  0
   51.8484   76.8796   92.5036 C   0  0  0  0  0  0  0  0  0  0  0  0
   53.0349   74.8816   91.0034 C   0  0  0  0  0  0  0  0  0  0  0  0
   52.8370   77.1696   91.5991 C   0  0  0  0  0  0  0  0  0  0  0  0
   53.4324   76.1827   90.8498 C   0  0  0  0  0  0  0  0  0  0  0  0
   54.4452   76.4964   89.9296 O   0  0  0  0  0  0  0  0  0  0  0  0
   48.6750   77.6878   92.4149 N   0  0  0  0  0  0  0  0  0  0  0  0
   48.9483   78.2615   91.1204 C   0  0  2  0  0  0  0  0  0  0  0  0
   47.6277   78.3564   90.3972 C   0  0  0  0  0  0  0  0  0  0  0  0
   47.6952   78.7148   89.2129 O   0  0  0  0  0  0  0  0  0  0  0  0
   50.0224   77.6251   90.3403 C   0  0  0  0  0  0  0  0  0  0  0  0
   50.0122   78.1644   89.0548 O   0  0  0  0  0  0  0  0  0  0  0  0
   46.4039   78.0667   91.0119 N   0  0  0  0  0  0  0  0  0  0  0  0
   45.1009   78.0337   90.4849 C   0  0  2  0  0  0  0  0  0  0  0  0
   44.1284   79.0061   90.9782 C   0  0  0  0  0  0  0  0  0  0  0  0
   43.2312   79.3815   90.1555 O   0  0  0  0  0  0  0  0  0  0  0  0
   44.5016   76.6773   90.1355 C   0  0  0  0  0  0  0  0  0  0  0  0
   43.4706   76.6973   89.0776 C   0  0  0  0  0  0  0  0  0  0  0  0
   43.3667   77.9815   88.2906 C   0  0  0  0  0  0  0  0  0  0  0  0
   42.3957   77.9428   87.2321 N   0  0  0  0  0  0  0  0  0  0  0  0
   42.2791   78.9590   86.2495 C   0  0  0  0  0  0  0  0  0  0  0  0
   43.2114   79.8627   86.2576 N   0  0  0  0  0  0  0  0  0  0  0  0
   41.2151   78.9993   85.3083 N   0  0  0  0  0  0  0  0  0  0  0  0
   44.0642   79.5823   92.2570 N   0  0  0  0  0  0  0  0  0  0  0  0
   43.3754   80.8898   92.4545 C   0  0  2  0  0  0  0  0  0  0  0  0
   44.3269   81.7430   93.1959 C   0  0  0  0  0  0  0  0  0  0  0  0
   43.8520   82.8299   93.6576 O   0  0  0  0  0  0  0  0  0  0  0  0
   42.1599   80.5441   93.2316 C   0  0  0  0  0  0  0  0  0  0  0  0
   42.1638   80.2860   94.6643 C   0  0  0  0  0  0  0  0  0  0  0  0
   42.7109   81.2030   95.6313 C   0  0  0  0  0  0  0  0  0  0  0  0
   42.3285   82.5512   95.6062 O   0  0  0  0  0  0  0  0  0  0  0  0
   43.5271   80.8525   96.5060 O   0  0  0  0  0  0  0  0  0  0  0  0
   45.6884   81.4030   93.4000 N   0  0  0  0  0  0  0  0  0  0  0  0
   46.6882   82.2848   93.9056 C   0  0  2  0  0  0  0  0  0  0  0  0
   46.4096   82.6265   95.3191 C   0  0  0  0  0  0  0  0  0  0  0  0
   45.3026   82.9192   95.7538 O   0  0  0  0  0  0  0  0  0  0  0  0
   47.0302   83.4538   93.0472 C   0  0  0  0  0  0  0  0  0  0  0  0
   47.3424   84.6698   93.8313 C   0  0  0  0  0  0  0  0  0  0  0  0
   46.3609   85.7461   93.8604 C   0  0  0  0  0  0  0  0  0  0  0  0
   45.2993   85.7006   93.2242 O   0  0  0  0  0  0  0  0  0  0  0  0
   46.6088   86.9289   94.6614 N   0  0  0  0  0  0  0  0  0  0  0  0
   47.4847   82.6317   96.2754 N   0  0  0  0  0  0  0  0  0  0  0  0
   47.4781   83.5418   97.3764 C   0  0  2  0  0  0  0  0  0  0  0  0
   48.4925   84.6289   97.0919 C   0  0  0  0  0  0  0  0  0  0  0  0
   48.8896   85.3173   98.0385 O   0  0  0  0  0  0  0  0  0  0  0  0
   47.6368   82.9005   98.6820 C   0  0  0  0  0  0  0  0  0  0  0  0
   48.9038   83.0764   99.4327 C   0  0  1  0  0  0  0  0  0  0  0  0
   49.0444   84.6124   99.6287 C   0  0  0  0  0  0  0  0  0  0  0  0
   48.9380   82.5139  100.8191 C   0  0  0  0  0  0  0  0  0  0  0  0
   48.9674   84.8529   95.8013 N   0  0  0  0  0  0  0  0  0  0  0  0
   49.8084   85.8348   95.2679 C   0  0  2  0  0  0  0  0  0  0  0  0
   50.0520   86.0522   93.8740 C   0  0  0  0  0  0  0  0  0  0  0  0
   51.2126   85.6701   93.4256 O   0  0  0  0  0  0  0  0  0  0  0  0
   51.0493   85.8524   96.1239 C   0  0  0  0  0  0  0  0  0  0  0  0
   51.9388   84.6833   96.1241 C   0  0  1  0  0  0  0  0  0  0  0  0
   53.2977   84.9231   96.7230 C   0  0  0  0  0  0  0  0  0  0  0  0
   51.2264   83.6585   97.0893 C   0  0  0  0  0  0  0  0  0  0  0  0
   50.6280   86.8579   90.8313 C   0  0  0  0  0  0  0  0  0  0  0  0
   49.2945   86.6144   92.8364 N   0  0  0  0  0  0  0  0  0  0  0  0
   50.8370   86.7939   89.6138 O   0  0  0  0  0  0  0  0  0  0  0  0
   49.3876   86.2519   91.4343 C   0  0  1  0  0  0  0  0  0  0  0  0
   48.1887   86.4107   90.6153 C   0  0  0  0  0  0  0  0  0  0  0  0
   47.3255   86.7118   88.2592 C   0  0  0  0  0  0  0  0  0  0  0  0
   46.4369   85.7310   87.5082 C   0  0  0  0  0  0  0  0  0  0  0  0
   48.1562   85.9196   89.2198 C   0  0  0  0  0  0  0  0  0  0  0  0
   49.7133   84.7526   91.4586 C   0  0  0  0  0  0  0  0  0  0  0  0
   51.5146   87.4921   91.7019 N   0  0  0  0  0  0  0  0  0  0  0  0
   52.7873   88.0130   91.2892 C   0  0  2  0  0  0  0  0  0  0  0  0
   53.8335   87.0519   91.6825 C   0  0  0  0  0  0  0  0  0  0  0  0
   54.8526   86.9328   90.9762 O   0  0  0  0  0  0  0  0  0  0  0  0
   53.0099   89.3898   91.8711 C   0  0  0  0  0  0  0  0  0  0  0  0
   54.2592   90.0307   91.4265 C   0  0  0  0  0  0  0  0  0  0  0  0
   55.1198   89.5390   90.4734 C   0  0  0  0  0  0  0  0  0  0  0  0
   54.5968   91.2516   92.0242 C   0  0  0  0  0  0  0  0  0  0  0  0
   56.2660   90.2013   90.1104 C   0  0  0  0  0  0  0  0  0  0  0  0
   55.7284   91.9313   91.6852 C   0  0  0  0  0  0  0  0  0  0  0  0
   56.5697   91.3955   90.7154 C   0  0  0  0  0  0  0  0  0  0  0  0
   53.6791   86.2756   92.8471 N   0  0  0  0  0  0  0  0  0  0  0  0
   54.7891   85.8430   93.6426 C   0  0  2  0  0  0  0  0  0  0  0  0
   54.6853   84.4249   93.9734 C   0  0  0  0  0  0  0  0  0  0  0  0
   54.5820   84.0291   95.1444 O   0  0  0  0  0  0  0  0  0  0  0  0
   55.2090   86.8057   94.6727 C   0  0  0  0  0  0  0  0  0  0  0  0
   56.3396   86.4494   95.5545 C   0  0  0  0  0  0  0  0  0  0  0  0
   57.3446   85.5688   95.0260 C   0  0  0  0  0  0  0  0  0  0  0  0
   58.3756   85.2057   95.5754 O   0  0  0  0  0  0  0  0  0  0  0  0
   57.1510   85.0224   93.6846 N   0  0  0  0  0  0  0  0  0  0  0  0
   54.6897   83.4290   92.9257 N   0  0  0  0  0  0  0  0  0  0  0  0
   55.5206   82.2432   92.9741 C   0  0  2  0  0  0  0  0  0  0  0  0
   56.1230   81.9100   94.2454 C   0  0  0  0  0  0  0  0  0  0  0  0
   57.3113   81.8181   94.5079 O   0  0  0  0  0  0  0  0  0  0  0  0
   56.3533   82.1874   91.7464 C   0  0  0  0  0  0  0  0  0  0  0  0
   56.1707   81.1367   90.7584 C   0  0  0  0  0  0  0  0  0  0  0  0
   57.1657   80.9859   89.6918 C   0  0  0  0  0  0  0  0  0  0  0  0
   58.4103   81.6398   89.8203 N   0  0  0  0  0  0  0  0  0  0  0  0
   58.9747   82.4073   88.7507 C   0  0  0  0  0  0  0  0  0  0  0  0
   60.1035   83.0152   88.9044 N   0  0  0  0  0  0  0  0  0  0  0  0
   58.2501   82.4753   87.5421 N   0  0  0  0  0  0  0  0  0  0  0  0
   41.7240   74.1188   95.7009 H   0  0  0  0  0  0  0  0  0  0  0  0
   44.1953   79.5436   86.4292 H   0  0  0  0  0  0  0  0  0  0  0  0
   60.9768   82.4702   88.7597 H   0  0  0  0  0  0  0  0  0  0  0  0
  2  1  1  0
  3  2  1  0
  2  5  1  1
  3  4  2  0
  6  3  1  0
  7  6  1  0
  8  7  1  0
  7 10  1  6
  8  9  2  0
 17  8  1  0
 10 11  1  0
 11 12  1  0
 12 13  1  0
 13 14  1  0
 14 15  1  0
 14 16  2  0
 18 17  1  0
 19 18  1  0
 18 21  1  6
 19 20  2  0
 29 19  1  0
 21 22  1  0
 22 23  2  0
 22 24  1  0
 23 25  1  0
 24 26  2  0
 25 27  2  0
 26 27  1  0
 27 28  1  0
 30 29  1  0
 31 30  1  0
 30 33  1  6
 31 32  2  0
 35 31  1  0
 33 34  1  0
 36 35  1  0
 37 36  1  0
 36 39  1  1
 37 38  2  0
 46 37  1  0
 39 40  1  0
 40 41  1  0
 41 42  1  0
 42 43  1  0
 43 44  2  0
 43 45  1  0
 47 46  1  0
 48 47  1  0
 47 50  1  1
 48 49  2  0
 55 48  1  0
 50 51  1  0
 51 52  1  0
 52 53  1  0
 52 54  2  0
 56 55  1  0
 57 56  1  0
 56 59  1  6
 57 58  2  0
 64 57  1  0
 59 60  1  0
 60 61  1  0
 61 62  2  0
 61 63  1  0
 65 64  1  0
 66 65  1  0
 65 68  1  1
 66 67  2  0
 72 66  1  0
 68 69  1  0
 69 70  1  1
 69 71  1  0
 73 72  1  0
 74 73  1  0
 73 76  1  1
 74 75  2  0
 81 74  1  0
 76 77  1  0
 77 78  1  1
 77 79  1  0
 80 82  2  0
 83 80  1  0
 80 89  1  0
 83 81  1  0
 84 83  1  0
 83 88  1  1
 87 84  1  0
 85 86  1  0
 85 87  1  0
 89 90  1  0
 90 91  1  0
 90 93  1  1
 91 92  2  0
 91100  1  0
 93 94  1  0
 94 95  2  0
 94 96  1  0
 95 97  1  0
 96 98  2  0
 97 99  2  0
 98 99  1  0
100101  1  0
101102  1  0
101104  1  1
102103  2  0
102109  1  0
104105  1  0
105106  1  0
106107  2  0
106108  1  0
109110  1  0
110111  1  0
110113  1  6
111112  2  0
113114  1  0
114115  1  0
115116  1  0
116117  1  0
117118  2  0
117119  1  0
 16120  1  0
 44121  1  0
118122  1  0
M  CHG  1   1   1
M  END
$$$$
