
     RDKit          3D

122123  0  0  0  0  0  0  0  0999 V2000
   55.3912   70.9944   99.0209 N   0  0  0  0  0  4  0  0  0  0  0  0
   54.9762   72.3399   99.3625 C   0  0  2  0  0  0  0  0  0  0  0  0
   54.1571   72.9864   98.3240 C   0  0  0  0  0  0  0  0  0  0  0  0
   54.7444   73.8008   97.5580 O   0  0  0  0  0  0  0  0  0  0  0  0
   56.1156   73.2123   99.7690 C   0  0  0  0  0  0  0  0  0  0  0  0
   52.7826   72.7828   98.1072 N   0  0  0  0  0  0  0  0  0  0  0  0
   51.9074   73.7084   97.4264 C   0  0  2  0  0  0  0  0  0  0  0  0
   52.7007   74.8552   96.9371 C   0  0  0  0  0  0  0  0  0  0  0  0
   53.6759   75.2389   97.6275 O   0  0  0  0  0  0  0  0  0  0  0  0
   50.7592   74.1358   98.3269 C   0  0  0  0  0  0  0  0  0  0  0  0
   49.7852   74.9446   97.5485 C   0  0  0  0  0  0  0  0  0  0  0  0
   48.4306   74.9557   98.1768 C   0  0  0  0  0  0  0  0  0  0  0  0
   47.4013   75.6861   97.5328 N   0  0  0  0  0  0  0  0  0  0  0  0
   46.4178   76.4359   98.2088 C   0  0  0  0  0  0  0  0  0  0  0  0
   45.2506   76.9291   97.6088 N   0  0  0  0  0  0  0  0  0  0  0  0
   46.6161   76.7020   99.4625 N   0  0  0  0  0  0  0  0  0  0  0  0
   52.4201   75.5547   95.7111 N   0  0  0  0  0  0  0  0  0  0  0  0
   53.1500   76.6641   95.2079 C   0  0  2  0  0  0  0  0  0  0  0  0
   52.5623   77.9807   95.2917 C   0  0  0  0  0  0  0  0  0  0  0  0
   51.3261   78.0828   94.9926 O   0  0  0  0  0  0  0  0  0  0  0  0
   53.9322   76.4332   93.9231 C   0  0  0  0  0  0  0  0  0  0  0  0
   53.9491   77.6948   93.1332 C   0  0  0  0  0  0  0  0  0  0  0  0
   53.1824   77.9494   92.0319 C   0  0  0  0  0  0  0  0  0  0  0  0
   54.8249   78.7217   93.5197 C   0  0  0  0  0  0  0  0  0  0  0  0
   53.2247   79.1305   91.3011 C   0  0  0  0  0  0  0  0  0  0  0  0
   54.8844   79.8955   92.8140 C   0  0  0  0  0  0  0  0  0  0  0  0
   54.0932   80.1067   91.7098 C   0  0  0  0  0  0  0  0  0  0  0  0
   54.1683   81.3137   90.9967 O   0  0  0  0  0  0  0  0  0  0  0  0
   53.1769   79.2085   95.6646 N   0  0  0  0  0  0  0  0  0  0  0  0
   52.4821   80.1869   96.4644 C   0  0  2  0  0  0  0  0  0  0  0  0
   52.7943   81.5379   95.8699 C   0  0  0  0  0  0  0  0  0  0  0  0
   51.8237   82.2968   95.7368 O   0  0  0  0  0  0  0  0  0  0  0  0
   52.6878   80.1026   97.9196 C   0  0  0  0  0  0  0  0  0  0  0  0
   51.9511   81.1177   98.5282 O   0  0  0  0  0  0  0  0  0  0  0  0
   54.0859   81.9179   95.4869 N   0  0  0  0  0  0  0  0  0  0  0  0
   54.5359   83.0494   94.7844 C   0  0  2  0  0  0  0  0  0  0  0  0
   54.2763   83.1228   93.3484 C   0  0  0  0  0  0  0  0  0  0  0  0
   53.9824   84.2709   92.8810 O   0  0  0  0  0  0  0  0  0  0  0  0
   55.8544   83.6825   95.2110 C   0  0  0  0  0  0  0  0  0  0  0  0
   56.7710   82.7915   95.9515 C   0  0  0  0  0  0  0  0  0  0  0  0
   58.0880   83.4045   96.3627 C   0  0  0  0  0  0  0  0  0  0  0  0
   58.9102   82.5419   97.1655 N   0  0  0  0  0  0  0  0  0  0  0  0
   60.0403   83.0014   97.8893 C   0  0  0  0  0  0  0  0  0  0  0  0
   59.7868   83.5954   99.0157 N   0  0  0  0  0  0  0  0  0  0  0  0
   61.3723   82.8296   97.4246 N   0  0  0  0  0  0  0  0  0  0  0  0
   54.3094   82.0738   92.4159 N   0  0  0  0  0  0  0  0  0  0  0  0
   53.5608   82.1906   91.1317 C   0  0  2  0  0  0  0  0  0  0  0  0
   52.1509   81.8885   91.4537 C   0  0  0  0  0  0  0  0  0  0  0  0
   51.6536   80.8753   90.8653 O   0  0  0  0  0  0  0  0  0  0  0  0
   54.1965   81.1812   90.2498 C   0  0  0  0  0  0  0  0  0  0  0  0
   54.3909   79.7883   90.6258 C   0  0  0  0  0  0  0  0  0  0  0  0
   55.4103   78.9489   90.0502 C   0  0  0  0  0  0  0  0  0  0  0  0
   55.7879   77.7665   90.7011 O   0  0  0  0  0  0  0  0  0  0  0  0
   55.9890   79.2277   88.9817 O   0  0  0  0  0  0  0  0  0  0  0  0
   51.3722   82.6562   92.3566 N   0  0  0  0  0  0  0  0  0  0  0  0
   50.0330   82.3585   92.7447 C   0  0  2  0  0  0  0  0  0  0  0  0
   49.4733   81.2862   91.8907 C   0  0  0  0  0  0  0  0  0  0  0  0
   49.6492   81.2036   90.6814 O   0  0  0  0  0  0  0  0  0  0  0  0
   49.1277   83.5265   92.9358 C   0  0  0  0  0  0  0  0  0  0  0  0
   49.8627   84.7931   93.1509 C   0  0  0  0  0  0  0  0  0  0  0  0
   49.6588   85.5081   94.4039 C   0  0  0  0  0  0  0  0  0  0  0  0
   50.4057   86.4204   94.7826 O   0  0  0  0  0  0  0  0  0  0  0  0
   48.5416   85.1613   95.2604 N   0  0  0  0  0  0  0  0  0  0  0  0
   48.6593   80.2574   92.4818 N   0  0  0  0  0  0  0  0  0  0  0  0
   47.7683   79.4806   91.6797 C   0  0  2  0  0  0  0  0  0  0  0  0
   46.6178   80.3709   91.2608 C   0  0  0  0  0  0  0  0  0  0  0  0
   45.9379   80.0253   90.2882 O   0  0  0  0  0  0  0  0  0  0  0  0
   47.3563   78.2190   92.2960 C   0  0  0  0  0  0  0  0  0  0  0  0
   48.3733   77.1757   92.5739 C   0  0  1  0  0  0  0  0  0  0  0  0
   47.6096   76.0684   93.3539 C   0  0  0  0  0  0  0  0  0  0  0  0
   48.9460   76.4727   91.3834 C   0  0  0  0  0  0  0  0  0  0  0  0
   46.3299   81.5488   91.9471 N   0  0  0  0  0  0  0  0  0  0  0  0
   45.2731   82.4593   91.8467 C   0  0  2  0  0  0  0  0  0  0  0  0
   45.2775   83.6535   91.0571 C   0  0  0  0  0  0  0  0  0  0  0  0
   44.1190   84.0671   90.6318 O   0  0  0  0  0  0  0  0  0  0  0  0
   44.7241   82.6392   93.2392 C   0  0  0  0  0  0  0  0  0  0  0  0
   44.0213   81.5222   93.8845 C   0  0  1  0  0  0  0  0  0  0  0  0
   42.8256   81.9183   94.7068 C   0  0  0  0  0  0  0  0  0  0  0  0
   43.4459   80.6825   92.6790 C   0  0  0  0  0  0  0  0  0  0  0  0
   45.9343   84.6144   88.2198 C   0  0  0  0  0  0  0  0  0  0  0  0
   46.2910   84.5142   90.6115 N   0  0  0  0  0  0  0  0  0  0  0  0
   46.4242   84.9590   87.1375 O   0  0  0  0  0  0  0  0  0  0  0  0
   46.1955   85.4088   89.4729 C   0  0  1  0  0  0  0  0  0  0  0  0
   47.2315   86.4279   89.3268 C   0  0  0  0  0  0  0  0  0  0  0  0
   49.6148   87.1700   88.9307 C   0  0  0  0  0  0  0  0  0  0  0  0
   51.0092   86.5677   89.0223 C   0  0  0  0  0  0  0  0  0  0  0  0
   48.6325   86.0460   89.0418 C   0  0  0  0  0  0  0  0  0  0  0  0
   44.8706   86.1509   89.6930 C   0  0  0  0  0  0  0  0  0  0  0  0
   45.1281   83.4824   88.3400 N   0  0  0  0  0  0  0  0  0  0  0  0
   44.7560   82.6578   87.2251 C   0  0  2  0  0  0  0  0  0  0  0  0
   43.5601   81.8812   87.5989 C   0  0  0  0  0  0  0  0  0  0  0  0
   43.5893   80.6382   87.5254 O   0  0  0  0  0  0  0  0  0  0  0  0
   45.9135   81.7821   86.8045 C   0  0  0  0  0  0  0  0  0  0  0  0
   45.6644   81.0148   85.5723 C   0  0  0  0  0  0  0  0  0  0  0  0
   45.1470   79.7423   85.5087 C   0  0  0  0  0  0  0  0  0  0  0  0
   45.9774   81.6394   84.3583 C   0  0  0  0  0  0  0  0  0  0  0  0
   44.9398   79.0950   84.3160 C   0  0  0  0  0  0  0  0  0  0  0  0
   45.7837   81.0215   83.1591 C   0  0  0  0  0  0  0  0  0  0  0  0
   45.2577   79.7337   83.1432 C   0  0  0  0  0  0  0  0  0  0  0  0
   42.3954   82.5420   88.0344 N   0  0  0  0  0  0  0  0  0  0  0  0
   41.1705   81.8522   88.3096 C   0  0  2  0  0  0  0  0  0  0  0  0
   40.1276   82.2200   87.3565 C   0  0  0  0  0  0  0  0  0  0  0  0
   39.8669   81.5211   86.3655 O   0  0  0  0  0  0  0  0  0  0  0  0
   40.8468   81.7379   89.7401 C   0  0  0  0  0  0  0  0  0  0  0  0
   39.4718   81.3591   90.1259 C   0  0  0  0  0  0  0  0  0  0  0  0
   39.0855   79.9861   89.9516 C   0  0  0  0  0  0  0  0  0  0  0  0
   38.1891   79.5525   89.2411 O   0  0  0  0  0  0  0  0  0  0  0  0
   39.8220   78.9605   90.6873 N   0  0  0  0  0  0  0  0  0  0  0  0
   39.3516   83.4237   87.5524 N   0  0  0  0  0  0  0  0  0  0  0  0
   39.2957   84.4893   86.5725 C   0  0  2  0  0  0  0  0  0  0  0  0
   40.5549   84.9917   86.0704 C   0  0  0  0  0  0  0  0  0  0  0  0
   41.4528   85.5237   86.7031 O   0  0  0  0  0  0  0  0  0  0  0  0
   38.2424   85.4564   86.9711 C   0  0  0  0  0  0  0  0  0  0  0  0
   37.8638   85.6272   88.3644 C   0  0  0  0  0  0  0  0  0  0  0  0
   36.7601   86.5351   88.6927 C   0  0  0  0  0  0  0  0  0  0  0  0
   36.3393   87.4767   87.7287 N   0  0  0  0  0  0  0  0  0  0  0  0
   35.2197   87.2302   86.8700 C   0  0  0  0  0  0  0  0  0  0  0  0
   34.1527   86.6661   87.3292 N   0  0  0  0  0  0  0  0  0  0  0  0
   35.3349   87.6183   85.5186 N   0  0  0  0  0  0  0  0  0  0  0  0
   47.2780   76.1784  100.0640 H   0  0  0  0  0  0  0  0  0  0  0  0
   58.7944   83.8772   99.2033 H   0  0  0  0  0  0  0  0  0  0  0  0
   34.2453   86.0443   88.1571 H   0  0  0  0  0  0  0  0  0  0  0  0
  2  1  1  0
  3  2  1  0
  2  5  1  6
  3  4  2  0
  6  3  1  0
  7  6  1  0
  8  7  1  0
  7 10  1  1
  8  9  2  0
 17  8  1  0
 10 11  1  0
 11 12  1  0
 12 13  1  0
 13 14  1  0
 14 15  1  0
 14 16  2  0
 18 17  1  0
 19 18  1  0
 18 21  1  6
 19 20  2  0
 29 19  1  0
 21 22  1  0
 22 23  2  0
 22 24  1  0
 23 25  1  0
 24 26  2  0
 25 27  2  0
 26 27  1  0
 27 28  1  0
 30 29  1  0
 31 30  1  0
 30 33  1  1
 31 32  2  0
 35 31  1  0
 33 34  1  0
 36 35  1  0
 37 36  1  0
 36 39  1  6
 37 38  2  0
 46 37  1  0
 39 40  1  0
 40 41  1  0
 41 42  1  0
 42 43  1  0
 43 44  2  0
 43 45  1  0
 47 46  1  0
 48 47  1  0
 47 50  1  6
 48 49  2  0
 55 48  1  0
 50 51  1  0
 51 52  1  0
 52 53  1  0
 52 54  2  0
 56 55  1  0
 57 56  1  0
 56 59  1  6
 57 58  2  0
 64 57  1  0
 59 60  1  0
 60 61  1  0
 61 62  2  0
 61 63  1  0
 65 64  1  0
 66 65  1  0
 65 68  1  1
 66 67  2  0
 72 66  1  0
 68 69  1  0
 69 70  1  1
 69 71  1  0
 73 72  1  0
 74 73  1  0
 73 76  1  1
 74 75  2  0
 81 74  1  0
 76 77  1  0
 77 78  1  1
 77 79  1  0
 80 82  2  0
 83 80  1  0
 80 89  1  0
 83 81  1  0
 84 83  1  0
 83 88  1  1
 87 84  1  0
 85 86  1  0
 85 87  1  0
 89 90  1  0
 90 91  1  0
 90 93  1  1
 91 92  2  0
 91100  1  0
 93 94  1  0
 94 95  2  0
 94 96  1  0
 95 97  1  0
 96 98  2  0
 97 99  2  0
 98 99  1  0
100101  1  0
101102  1  0
101104  1  1
102103  2  0
102109  1  0
104105  1  0
105106  1  0
106107  2  0
106108  1  0
109110  1  0
110111  1  0
110113  1  1
111112  2  0
113114  1  0
114115  1  0
115116  1  0
116117  1  0
117118  2  0
117119  1  0
 16120  1  0
 44121  1  0
118122  1  0
M  CHG  1   1   1
M  END
$$$$
