
     RDKit          3D

 31 33  0  0  0  0  0  0  0  0999 V2000
  115.0830  -24.7337  -20.7663 C   0  0  1  0  0  0  0  0  0  0  0  0
  116.4910  -29.0158  -22.8054 C   0  0  2  0  0  0  0  0  0  0  0  0
  119.0665  -29.6706  -20.8472 C   0  0  2  0  0  0  0  0  0  0  0  0
  114.7134  -23.9893  -19.5266 C   0  0  1  0  0  0  0  0  0  0  0  0
  115.0494  -29.2117  -22.3894 C   0  0  0  0  0  0  0  0  0  0  0  0
  119.3633  -30.8696  -19.9728 C   0  0  1  0  0  0  0  0  0  0  0  0
  114.5900  -22.4799  -19.7652 C   0  0  0  0  0  0  0  0  0  0  0  0
  114.3232  -27.9435  -22.1018 C   0  0  1  0  0  0  0  0  0  0  0  0
  120.3271  -30.4055  -18.8819 C   0  0  2  0  0  0  0  0  0  0  0  0
  113.6219  -22.2718  -20.8741 C   0  0  0  0  0  0  0  0  0  0  0  0
  115.2891  -26.8812  -21.6215 C   0  0  2  0  0  0  0  0  0  0  0  0
  121.5345  -29.8413  -19.5766 C   0  0  1  0  0  0  0  0  0  0  0  0
  113.5818  -23.1160  -21.8898 C   0  0  0  0  0  0  0  0  0  0  0  0
  116.4727  -27.4747  -20.8900 C   0  0  1  0  0  0  0  0  0  0  0  0
  121.0540  -28.5976  -20.3356 C   0  0  0  0  0  0  0  0  0  0  0  0
  112.6336  -22.9529  -23.0222 C   0  0  0  0  0  0  0  0  0  0  0  0
  117.3123  -28.4006  -21.6909 C   0  0  1  0  0  0  0  0  0  0  0  0
  122.6389  -29.4822  -18.6074 C   0  0  0  0  0  0  0  0  0  0  0  0
  120.1283  -32.7069  -18.4827 C   0  0  0  0  0  0  0  0  0  0  0  0
  116.6454  -28.1901  -23.9643 N   0  0  0  0  0  4  0  0  0  0  0  0
  113.4292  -24.4486  -19.0636 N   0  0  0  0  0  4  0  0  0  0  0  0
  113.5116  -27.4797  -23.2054 N   0  0  0  0  0  4  0  0  0  0  0  0
  120.6201  -31.4420  -17.9425 N   0  0  0  0  0  4  0  0  0  0  0  0
  111.4015  -22.3788  -22.4976 N   0  0  0  0  0  4  0  0  0  0  0  0
  114.6596  -26.0523  -20.6855 O   0  0  0  0  0  0  0  0  0  0  0  0
  118.2145  -31.4236  -19.4122 O   0  0  0  0  0  0  0  0  0  0  0  0
  121.9631  -30.7934  -20.5032 O   0  0  0  0  0  0  0  0  0  0  0  0
  114.4419  -24.1789  -21.9033 O   0  0  0  0  0  0  0  0  0  0  0  0
  117.2798  -26.3897  -20.5069 O   0  0  0  0  0  0  0  0  0  0  0  0
  119.6700  -28.5119  -20.3488 O   0  0  0  0  0  0  0  0  0  0  0  0
  117.7033  -29.4511  -20.8283 O   0  0  0  0  0  0  0  0  0  0  0  0
  1  4  1  0
  1 25  1  1
  1 28  1  0
  2  5  1  0
 17  2  1  0
  2 20  1  6
  3  6  1  0
  3 30  1  0
  3 31  1  1
  4  7  1  0
  4 21  1  6
  5  8  1  0
  6  9  1  0
  6 26  1  1
  7 10  1  0
 11  8  1  0
  8 22  1  6
  9 12  1  0
  9 23  1  1
 13 10  2  0
 14 11  1  0
 11 25  1  1
 15 12  1  0
 12 18  1  1
 12 27  1  0
 13 16  1  0
 28 13  1  0
 17 14  1  0
 14 29  1  6
 30 15  1  0
 16 24  1  0
 17 31  1  1
 23 19  1  0
M  CHG  5  20   1  21   1  22   1  23   1  24   1
M  END
$$$$
