
     RDKit          3D

 31 33  0  0  0  0  0  0  0  0999 V2000
  111.7351  -14.5217   -4.7576 C   0  0  1  0  0  0  0  0  0  0  0  0
  109.3622  -15.3100   -8.9845 C   0  0  2  0  0  0  0  0  0  0  0  0
  111.1796  -13.0882  -10.6771 C   0  0  2  0  0  0  0  0  0  0  0  0
  112.9639  -13.7300   -5.0588 C   0  0  1  0  0  0  0  0  0  0  0  0
  109.8813  -16.6735   -8.5834 C   0  0  0  0  0  0  0  0  0  0  0  0
  112.5944  -12.6561  -10.9962 C   0  0  1  0  0  0  0  0  0  0  0  0
  113.4539  -12.9268   -3.8484 C   0  0  0  0  0  0  0  0  0  0  0  0
  110.2324  -16.7887   -7.1405 C   0  0  1  0  0  0  0  0  0  0  0  0
  112.7884  -11.2651  -10.3945 C   0  0  2  0  0  0  0  0  0  0  0  0
  113.6400  -13.8745   -2.7181 C   0  0  0  0  0  0  0  0  0  0  0  0
  110.6496  -15.4410   -6.5911 C   0  0  2  0  0  0  0  0  0  0  0  0
  111.7296  -10.3800  -10.9898 C   0  0  1  0  0  0  0  0  0  0  0  0
  112.8094  -14.8893   -2.5567 C   0  0  0  0  0  0  0  0  0  0  0  0
  111.2870  -14.5663   -7.6480 C   0  0  1  0  0  0  0  0  0  0  0  0
  110.3837  -10.9214  -10.4906 C   0  0  0  0  0  0  0  0  0  0  0  0
  112.9517  -15.8641   -1.4442 C   0  0  0  0  0  0  0  0  0  0  0  0
  110.4186  -14.2388   -8.8065 C   0  0  1  0  0  0  0  0  0  0  0  0
  111.9030   -8.9308  -10.5924 C   0  0  0  0  0  0  0  0  0  0  0  0
  115.0500  -11.8409  -10.1731 C   0  0  0  0  0  0  0  0  0  0  0  0
  108.2022  -14.9009   -8.2526 N   0  0  0  0  0  4  0  0  0  0  0  0
  114.0278  -14.6286   -5.4262 N   0  0  0  0  0  4  0  0  0  0  0  0
  109.1955  -17.4031   -6.3411 N   0  0  0  0  0  4  0  0  0  0  0  0
  114.1228  -10.7830  -10.5665 N   0  0  0  0  0  4  0  0  0  0  0  0
  112.3161  -17.1095   -1.8539 N   0  0  0  0  0  4  0  0  0  0  0  0
  111.6363  -15.6095   -5.6127 O   0  0  0  0  0  0  0  0  0  0  0  0
  113.5507  -13.5427  -10.5061 O   0  0  0  0  0  0  0  0  0  0  0  0
  111.7888  -10.5361  -12.3757 O   0  0  0  0  0  0  0  0  0  0  0  0
  111.7808  -15.0520   -3.4429 O   0  0  0  0  0  0  0  0  0  0  0  0
  111.6190  -13.3595   -7.0087 O   0  0  0  0  0  0  0  0  0  0  0  0
  110.5288  -12.1519   -9.8679 O   0  0  0  0  0  0  0  0  0  0  0  0
  111.2411  -14.2648   -9.9569 O   0  0  0  0  0  0  0  0  0  0  0  0
  1  4  1  0
  1 25  1  6
  1 28  1  0
  2  5  1  0
 17  2  1  0
  2 20  1  1
  3  6  1  0
  3 30  1  0
  3 31  1  1
  4  7  1  0
  4 21  1  1
  5  8  1  0
  6  9  1  0
  6 26  1  1
  7 10  1  0
 11  8  1  0
  8 22  1  1
  9 12  1  0
  9 23  1  6
 13 10  2  0
 14 11  1  0
 11 25  1  1
 15 12  1  0
 12 18  1  6
 12 27  1  0
 13 16  1  0
 28 13  1  0
 17 14  1  0
 14 29  1  1
 30 15  1  0
 16 24  1  0
 17 31  1  6
 23 19  1  0
M  CHG  5  20   1  21   1  22   1  23   1  24   1
M  END
$$$$
