
     RDKit          3D

 31 33  0  0  0  0  0  0  0  0999 V2000
  112.1694  -15.2735   -6.4731 C   0  0  1  0  0  0  0  0  0  0  0  0
  112.0238  -12.2244  -10.3972 C   0  0  2  0  0  0  0  0  0  0  0  0
  108.7700  -11.8190  -10.8071 C   0  0  2  0  0  0  0  0  0  0  0  0
  110.9497  -15.7479   -5.7555 C   0  0  1  0  0  0  0  0  0  0  0  0
  112.8241  -11.5365   -9.3128 C   0  0  0  0  0  0  0  0  0  0  0  0
  107.6698  -10.8321  -10.4821 C   0  0  1  0  0  0  0  0  0  0  0  0
  111.1953  -17.0473   -4.9799 C   0  0  0  0  0  0  0  0  0  0  0  0
  113.2258  -12.4335   -8.1937 C   0  0  1  0  0  0  0  0  0  0  0  0
  106.4039  -11.6418  -10.2058 C   0  0  2  0  0  0  0  0  0  0  0  0
  112.3500  -16.8236   -4.0705 C   0  0  0  0  0  0  0  0  0  0  0  0
  112.2229  -13.5562   -8.0329 C   0  0  2  0  0  0  0  0  0  0  0  0
  106.1394  -12.4710  -11.4311 C   0  0  1  0  0  0  0  0  0  0  0  0
  113.3658  -16.0721   -4.4571 C   0  0  0  0  0  0  0  0  0  0  0  0
  110.8301  -13.1418   -8.4536 C   0  0  1  0  0  0  0  0  0  0  0  0
  107.3091  -13.4572  -11.5457 C   0  0  0  0  0  0  0  0  0  0  0  0
  114.5430  -15.8176   -3.5868 C   0  0  0  0  0  0  0  0  0  0  0  0
  110.6945  -12.7273   -9.8725 C   0  0  1  0  0  0  0  0  0  0  0  0
  104.8227  -13.2111  -11.3501 C   0  0  0  0  0  0  0  0  0  0  0  0
  105.4497   -9.5162  -10.4633 C   0  0  0  0  0  0  0  0  0  0  0  0
  112.7028  -13.3346  -10.9931 N   0  0  0  0  0  4  0  0  0  0  0  0
  110.5492  -14.7531   -4.7940 N   0  0  0  0  0  4  0  0  0  0  0  0
  114.5801  -12.9281   -8.3076 N   0  0  0  0  0  4  0  0  0  0  0  0
  105.3086  -10.8141   -9.8083 N   0  0  0  0  0  4  0  0  0  0  0  0
  115.0885  -17.1061   -3.1805 N   0  0  0  0  0  4  0  0  0  0  0  0
  112.1081  -13.9035   -6.6818 O   0  0  0  0  0  0  0  0  0  0  0  0
  107.9813  -10.0186   -9.3950 O   0  0  0  0  0  0  0  0  0  0  0  0
  106.1702  -11.6102  -12.5296 O   0  0  0  0  0  0  0  0  0  0  0  0
  113.3366  -15.5067   -5.7018 O   0  0  0  0  0  0  0  0  0  0  0  0
  110.0113  -14.2672   -8.2574 O   0  0  0  0  0  0  0  0  0  0  0  0
  108.3318  -13.1392  -10.6648 O   0  0  0  0  0  0  0  0  0  0  0  0
  109.7935  -11.6374   -9.8980 O   0  0  0  0  0  0  0  0  0  0  0  0
  1  4  1  0
  1 25  1  1
  1 28  1  0
  2  5  1  0
 17  2  1  0
  2 20  1  1
  3  6  1  0
  3 30  1  0
  3 31  1  1
  4  7  1  0
  4 21  1  1
  5  8  1  0
  6  9  1  0
  6 26  1  1
  7 10  1  0
 11  8  1  0
  8 22  1  6
  9 12  1  0
  9 23  1  6
 13 10  2  0
 14 11  1  0
 11 25  1  1
 15 12  1  0
 12 18  1  1
 12 27  1  0
 13 16  1  0
 28 13  1  0
 17 14  1  0
 14 29  1  6
 30 15  1  0
 16 24  1  0
 17 31  1  1
 23 19  1  0
M  CHG  5  20   1  21   1  22   1  23   1  24   1
M  END
$$$$
