
     RDKit          3D

 31 33  0  0  0  0  0  0  0  0999 V2000
  113.7064  -12.8694   -8.4935 C   0  0  1  0  0  0  0  0  0  0  0  0
  109.2371  -10.7746   -8.8796 C   0  0  2  0  0  0  0  0  0  0  0  0
  107.7763  -13.0895  -10.7506 C   0  0  2  0  0  0  0  0  0  0  0  0
  114.3961  -14.1805   -8.3123 C   0  0  1  0  0  0  0  0  0  0  0  0
  109.4943  -10.9388   -7.3976 C   0  0  0  0  0  0  0  0  0  0  0  0
  107.6625  -14.5825  -10.9696 C   0  0  1  0  0  0  0  0  0  0  0  0
  115.8903  -14.1070   -8.6473 C   0  0  0  0  0  0  0  0  0  0  0  0
  110.9189  -11.2064   -7.0550 C   0  0  1  0  0  0  0  0  0  0  0  0
  108.4028  -14.9065  -12.2663 C   0  0  2  0  0  0  0  0  0  0  0  0
  116.4883  -13.0215   -7.8260 C   0  0  0  0  0  0  0  0  0  0  0  0
  111.6107  -11.9171   -8.1989 C   0  0  2  0  0  0  0  0  0  0  0  0
  107.7691  -14.0794  -13.3495 C   0  0  1  0  0  0  0  0  0  0  0  0
  115.8024  -11.9197   -7.5781 C   0  0  0  0  0  0  0  0  0  0  0  0
  110.6564  -12.7786   -8.9962 C   0  0  1  0  0  0  0  0  0  0  0  0
  108.0593  -12.6141  -12.9994 C   0  0  0  0  0  0  0  0  0  0  0  0
  116.3541  -10.8061   -6.7636 C   0  0  0  0  0  0  0  0  0  0  0  0
  109.5340  -12.0509   -9.6399 C   0  0  1  0  0  0  0  0  0  0  0  0
  108.3099  -14.4181  -14.7209 C   0  0  0  0  0  0  0  0  0  0  0  0
  107.2326  -16.9144  -11.9592 C   0  0  0  0  0  0  0  0  0  0  0  0
  110.0013   -9.7241   -9.4805 N   0  0  0  0  0  4  0  0  0  0  0  0
  114.2932  -14.5829   -6.9332 N   0  0  0  0  0  4  0  0  0  0  0  0
  111.6424  -10.0279   -6.6316 N   0  0  0  0  0  4  0  0  0  0  0  0
  108.4298  -16.3095  -12.5375 N   0  0  0  0  0  4  0  0  0  0  0  0
  117.1941  -11.3839   -5.7227 N   0  0  0  0  0  4  0  0  0  0  0  0
  112.5715  -12.8035   -7.6984 O   0  0  0  0  0  0  0  0  0  0  0  0
  108.1803  -15.3224   -9.9088 O   0  0  0  0  0  0  0  0  0  0  0  0
  106.3910  -14.2916  -13.2815 O   0  0  0  0  0  0  0  0  0  0  0  0
  114.5395  -11.7957   -8.0876 O   0  0  0  0  0  0  0  0  0  0  0  0
  111.4222  -13.3701  -10.0156 O   0  0  0  0  0  0  0  0  0  0  0  0
  108.5839  -12.4899  -11.7218 O   0  0  0  0  0  0  0  0  0  0  0  0
  108.3923  -12.8789   -9.5327 O   0  0  0  0  0  0  0  0  0  0  0  0
  1  4  1  0
  1 25  1  1
  1 28  1  0
  2  5  1  0
 17  2  1  0
  2 20  1  6
  3  6  1  0
  3 30  1  0
  3 31  1  1
  4  7  1  0
  4 21  1  1
  5  8  1  0
  6  9  1  0
  6 26  1  1
  7 10  1  0
 11  8  1  0
  8 22  1  6
  9 12  1  0
  9 23  1  6
 13 10  2  0
 14 11  1  0
 11 25  1  1
 15 12  1  0
 12 18  1  6
 12 27  1  0
 13 16  1  0
 28 13  1  0
 17 14  1  0
 14 29  1  6
 30 15  1  0
 16 24  1  0
 17 31  1  1
 23 19  1  0
M  CHG  5  20   1  21   1  22   1  23   1  24   1
M  END
$$$$
