
     RDKit          3D

 31 33  0  0  0  0  0  0  0  0999 V2000
  107.5357  -15.0872   -9.6591 C   0  0  1  0  0  0  0  0  0  0  0  0
  109.9962  -10.8946   -8.5222 C   0  0  2  0  0  0  0  0  0  0  0  0
  112.8829  -11.6724   -7.1789 C   0  0  2  0  0  0  0  0  0  0  0  0
  107.7118  -16.5315   -9.3268 C   0  0  1  0  0  0  0  0  0  0  0  0
  109.6914  -11.0171   -9.9992 C   0  0  0  0  0  0  0  0  0  0  0  0
  114.2876  -12.1654   -7.4507 C   0  0  1  0  0  0  0  0  0  0  0  0
  106.4392  -17.3490   -9.5770 C   0  0  0  0  0  0  0  0  0  0  0  0
  108.7855  -12.1493  -10.3400 C   0  0  1  0  0  0  0  0  0  0  0  0
  114.6047  -13.2278   -6.3994 C   0  0  2  0  0  0  0  0  0  0  0  0
  106.0255  -17.1271  -10.9877 C   0  0  0  0  0  0  0  0  0  0  0  0
  108.9374  -13.2672   -9.3303 C   0  0  2  0  0  0  0  0  0  0  0  0
  114.4342  -12.5771   -5.0554 C   0  0  1  0  0  0  0  0  0  0  0  0
  106.1803  -15.9406  -11.5479 C   0  0  0  0  0  0  0  0  0  0  0  0
  110.3305  -13.3202   -8.7429 C   0  0  1  0  0  0  0  0  0  0  0  0
  112.9457  -12.2266   -4.9312 C   0  0  0  0  0  0  0  0  0  0  0  0
  105.7833  -15.6670  -12.9535 C   0  0  0  0  0  0  0  0  0  0  0  0
  110.7549  -12.1014   -8.0094 C   0  0  1  0  0  0  0  0  0  0  0  0
  114.8667  -13.4801   -3.9215 C   0  0  0  0  0  0  0  0  0  0  0  0
  116.6275  -13.0113   -7.5641 C   0  0  0  0  0  0  0  0  0  0  0  0
  108.8296  -10.7377   -7.7079 N   0  0  0  0  0  4  0  0  0  0  0  0
  108.7415  -17.0883  -10.1660 N   0  0  0  0  0  4  0  0  0  0  0  0
  107.4045  -11.7537  -10.5076 N   0  0  0  0  0  4  0  0  0  0  0  0
  115.8864  -13.8260   -6.6047 N   0  0  0  0  0  4  0  0  0  0  0  0
  104.3947  -16.0770  -13.1162 N   0  0  0  0  0  4  0  0  0  0  0  0
  108.7587  -14.5051   -9.9588 O   0  0  0  0  0  0  0  0  0  0  0  0
  114.4363  -12.6836   -8.7353 O   0  0  0  0  0  0  0  0  0  0  0  0
  115.1734  -11.3930   -5.0705 O   0  0  0  0  0  0  0  0  0  0  0  0
  106.7249  -14.9252  -10.8115 O   0  0  0  0  0  0  0  0  0  0  0  0
  110.3296  -14.3892   -7.8304 O   0  0  0  0  0  0  0  0  0  0  0  0
  112.2821  -12.3872   -6.1382 O   0  0  0  0  0  0  0  0  0  0  0  0
  112.1219  -11.8966   -8.3093 O   0  0  0  0  0  0  0  0  0  0  0  0
  1  4  1  0
  1 25  1  6
  1 28  1  0
  2  5  1  0
 17  2  1  0
  2 20  1  1
  3  6  1  0
  3 30  1  0
  3 31  1  6
  4  7  1  0
  4 21  1  6
  5  8  1  0
  6  9  1  0
  6 26  1  6
  7 10  1  0
 11  8  1  0
  8 22  1  1
  9 12  1  0
  9 23  1  6
 13 10  2  0
 14 11  1  0
 11 25  1  6
 15 12  1  0
 12 18  1  1
 12 27  1  0
 13 16  1  0
 28 13  1  0
 17 14  1  0
 14 29  1  1
 30 15  1  0
 16 24  1  0
 17 31  1  6
 23 19  1  0
M  CHG  5  20   1  21   1  22   1  23   1  24   1
M  END
$$$$
