
     RDKit          3D

 31 33  0  0  0  0  0  0  0  0999 V2000
  107.0965  -12.6236   -9.1060 C   0  0  1  0  0  0  0  0  0  0  0  0
  111.8994  -13.7209   -9.8694 C   0  0  2  0  0  0  0  0  0  0  0  0
  113.1669  -13.7746   -6.7853 C   0  0  2  0  0  0  0  0  0  0  0  0
  106.2095  -12.4699   -7.9155 C   0  0  1  0  0  0  0  0  0  0  0  0
  111.0321  -14.8274  -10.4285 C   0  0  0  0  0  0  0  0  0  0  0  0
  113.7629  -14.8524   -5.9060 C   0  0  1  0  0  0  0  0  0  0  0  0
  104.9191  -11.7089   -8.2415 C   0  0  0  0  0  0  0  0  0  0  0  0
  109.5831  -14.4888  -10.4930 C   0  0  1  0  0  0  0  0  0  0  0  0
  113.4814  -14.4598   -4.4565 C   0  0  2  0  0  0  0  0  0  0  0  0
  104.2523  -12.4067   -9.3723 C   0  0  0  0  0  0  0  0  0  0  0  0
  109.2272  -13.4904   -9.4119 C   0  0  2  0  0  0  0  0  0  0  0  0
  114.0827  -13.0983   -4.2478 C   0  0  1  0  0  0  0  0  0  0  0  0
  104.9730  -12.9478  -10.3385 C   0  0  0  0  0  0  0  0  0  0  0  0
  110.1065  -13.6354   -8.1894 C   0  0  1  0  0  0  0  0  0  0  0  0
  113.3003  -12.1376   -5.1526 C   0  0  0  0  0  0  0  0  0  0  0  0
  104.3557  -13.6557  -11.4900 C   0  0  0  0  0  0  0  0  0  0  0  0
  111.5568  -13.4227   -8.4241 C   0  0  1  0  0  0  0  0  0  0  0  0
  114.0079  -12.6529   -2.8043 C   0  0  0  0  0  0  0  0  0  0  0  0
  113.3512  -16.7355   -3.9091 C   0  0  0  0  0  0  0  0  0  0  0  0
  111.8036  -12.4937  -10.5998 N   0  0  0  0  0  4  0  0  0  0  0  0
  105.8212  -13.7738   -7.4429 N   0  0  0  0  0  4  0  0  0  0  0  0
  109.1505  -14.0491  -11.8012 N   0  0  0  0  0  4  0  0  0  0  0  0
  113.9331  -15.4503   -3.5305 N   0  0  0  0  0  4  0  0  0  0  0  0
  105.4269  -14.0923  -12.3759 N   0  0  0  0  0  4  0  0  0  0  0  0
  107.9252  -13.7258   -8.9552 O   0  0  0  0  0  0  0  0  0  0  0  0
  113.2486  -16.1173   -6.1826 O   0  0  0  0  0  0  0  0  0  0  0  0
  115.4047  -13.1557   -4.6927 O   0  0  0  0  0  0  0  0  0  0  0  0
  106.3361  -12.8552  -10.2807 O   0  0  0  0  0  0  0  0  0  0  0  0
  109.6734  -12.6570   -7.2780 O   0  0  0  0  0  0  0  0  0  0  0  0
  112.4741  -12.8233   -6.0302 O   0  0  0  0  0  0  0  0  0  0  0  0
  112.2449  -14.3662   -7.6261 O   0  0  0  0  0  0  0  0  0  0  0  0
  1  4  1  0
  1 25  1  1
  1 28  1  0
  2  5  1  0
 17  2  1  0
  2 20  1  6
  3  6  1  0
  3 30  1  0
  3 31  1  6
  4  7  1  0
  4 21  1  6
  5  8  1  0
  6  9  1  0
  6 26  1  6
  7 10  1  0
 11  8  1  0
  8 22  1  6
  9 12  1  0
  9 23  1  1
 13 10  2  0
 14 11  1  0
 11 25  1  1
 15 12  1  0
 12 18  1  1
 12 27  1  0
 13 16  1  0
 28 13  1  0
 17 14  1  0
 14 29  1  1
 30 15  1  0
 16 24  1  0
 17 31  1  1
 23 19  1  0
M  CHG  5  20   1  21   1  22   1  23   1  24   1
M  END
$$$$
