
     RDKit          3D

 31 33  0  0  0  0  0  0  0  0999 V2000
  107.8453  -16.5518   -9.3419 C   0  0  1  0  0  0  0  0  0  0  0  0
  109.8976  -12.0704   -8.5619 C   0  0  2  0  0  0  0  0  0  0  0  0
  112.4625  -12.8206   -6.3441 C   0  0  2  0  0  0  0  0  0  0  0  0
  107.8496  -17.8545  -10.0702 C   0  0  1  0  0  0  0  0  0  0  0  0
  109.9711  -12.5548   -9.9934 C   0  0  0  0  0  0  0  0  0  0  0  0
  113.7744  -12.0680   -6.3964 C   0  0  1  0  0  0  0  0  0  0  0  0
  106.4723  -18.2098  -10.6421 C   0  0  0  0  0  0  0  0  0  0  0  0
  109.1978  -13.8011  -10.2528 C   0  0  1  0  0  0  0  0  0  0  0  0
  114.8638  -13.0256   -5.9159 C   0  0  2  0  0  0  0  0  0  0  0  0
  106.0254  -17.0746  -11.4919 C   0  0  0  0  0  0  0  0  0  0  0  0
  109.1135  -14.6396   -8.9950 C   0  0  2  0  0  0  0  0  0  0  0  0
  114.4720  -13.4766   -4.5369 C   0  0  1  0  0  0  0  0  0  0  0  0
  106.3053  -15.8314  -11.1426 C   0  0  0  0  0  0  0  0  0  0  0  0
  110.3179  -14.4482   -8.0998 C   0  0  1  0  0  0  0  0  0  0  0  0
  113.1778  -14.2845   -4.6984 C   0  0  0  0  0  0  0  0  0  0  0  0
  105.8819  -14.6624  -11.9564 C   0  0  0  0  0  0  0  0  0  0  0  0
  110.5259  -13.0638   -7.6061 C   0  0  1  0  0  0  0  0  0  0  0  0
  115.5464  -14.3146   -3.8801 C   0  0  0  0  0  0  0  0  0  0  0  0
  116.5212  -12.2995   -7.4063 C   0  0  0  0  0  0  0  0  0  0  0  0
  108.5629  -11.8189   -8.1103 N   0  0  0  0  0  4  0  0  0  0  0  0
  108.7591  -17.7713  -11.1839 N   0  0  0  0  0  4  0  0  0  0  0  0
  107.8950  -13.5620  -10.8337 N   0  0  0  0  0  4  0  0  0  0  0  0
  116.1676  -12.4455   -5.9966 N   0  0  0  0  0  4  0  0  0  0  0  0
  104.4752  -14.4057  -11.6765 N   0  0  0  0  0  4  0  0  0  0  0  0
  109.1177  -15.9993   -9.3271 O   0  0  0  0  0  0  0  0  0  0  0  0
  114.0680  -11.5873   -7.6706 O   0  0  0  0  0  0  0  0  0  0  0  0
  114.1944  -12.3313   -3.7886 O   0  0  0  0  0  0  0  0  0  0  0  0
  107.0093  -15.6081   -9.9919 O   0  0  0  0  0  0  0  0  0  0  0  0
  110.1088  -15.2734   -6.9814 O   0  0  0  0  0  0  0  0  0  0  0  0
  112.6529  -14.1558   -5.9755 O   0  0  0  0  0  0  0  0  0  0  0  0
  111.9209  -12.8299   -7.6144 O   0  0  0  0  0  0  0  0  0  0  0  0
  1  4  1  0
  1 25  1  6
  1 28  1  0
  2  5  1  0
 17  2  1  0
  2 20  1  1
  3  6  1  0
  3 30  1  0
  3 31  1  6
  4  7  1  0
  4 21  1  6
  5  8  1  0
  6  9  1  0
  6 26  1  6
  7 10  1  0
 11  8  1  0
  8 22  1  1
  9 12  1  0
  9 23  1  1
 13 10  2  0
 14 11  1  0
 11 25  1  6
 15 12  1  0
 12 18  1  1
 12 27  1  0
 13 16  1  0
 28 13  1  0
 17 14  1  0
 14 29  1  1
 30 15  1  0
 16 24  1  0
 17 31  1  6
 23 19  1  0
M  CHG  5  20   1  21   1  22   1  23   1  24   1
M  END
$$$$
