
     RDKit          3D

 31 33  0  0  0  0  0  0  0  0999 V2000
  110.1179  -12.8877  -10.1343 C   0  0  1  0  0  0  0  0  0  0  0  0
  113.4257  -12.8957   -6.7354 C   0  0  2  0  0  0  0  0  0  0  0  0
  110.8686  -14.8360   -5.3535 C   0  0  2  0  0  0  0  0  0  0  0  0
  109.7691  -14.2179  -10.7144 C   0  0  1  0  0  0  0  0  0  0  0  0
  114.1291  -13.3841   -7.9828 C   0  0  0  0  0  0  0  0  0  0  0  0
  111.2741  -15.9134   -4.3712 C   0  0  1  0  0  0  0  0  0  0  0  0
  108.2906  -14.3152  -11.1079 C   0  0  0  0  0  0  0  0  0  0  0  0
  113.6019  -12.7968   -9.2460 C   0  0  1  0  0  0  0  0  0  0  0  0
  110.2505  -17.0415   -4.4900 C   0  0  2  0  0  0  0  0  0  0  0  0
  107.9890  -13.1869  -12.0279 C   0  0  0  0  0  0  0  0  0  0  0  0
  112.1399  -12.4362   -9.0888 C   0  0  2  0  0  0  0  0  0  0  0  0
  108.9017  -16.4385   -4.2143 C   0  0  1  0  0  0  0  0  0  0  0  0
  108.5570  -12.0082  -11.8441 C   0  0  0  0  0  0  0  0  0  0  0  0
  111.4319  -13.3398   -8.1036 C   0  0  1  0  0  0  0  0  0  0  0  0
  108.6336  -15.4427   -5.3502 C   0  0  0  0  0  0  0  0  0  0  0  0
  108.2894  -10.8491  -12.7345 C   0  0  0  0  0  0  0  0  0  0  0  0
  111.9690  -13.3115   -6.7199 C   0  0  1  0  0  0  0  0  0  0  0  0
  107.8087  -17.4821   -4.1497 C   0  0  0  0  0  0  0  0  0  0  0  0
  111.3260  -17.6692   -2.5040 C   0  0  0  0  0  0  0  0  0  0  0  0
  113.4727  -11.4746   -6.5707 N   0  0  0  0  0  4  0  0  0  0  0  0
  110.5386  -14.4279  -11.9136 N   0  0  0  0  0  4  0  0  0  0  0  0
  114.3852  -11.6845   -9.7369 N   0  0  0  0  0  4  0  0  0  0  0  0
  110.5767  -18.1574   -3.6589 N   0  0  0  0  0  4  0  0  0  0  0  0
  106.8473  -10.7437  -12.9138 N   0  0  0  0  0  4  0  0  0  0  0  0
  111.4692  -12.6234  -10.3031 O   0  0  0  0  0  0  0  0  0  0  0  0
  112.5626  -16.3914   -4.5991 O   0  0  0  0  0  0  0  0  0  0  0  0
  109.0000  -15.7326   -3.0139 O   0  0  0  0  0  0  0  0  0  0  0  0
  109.4226  -11.8449  -10.7981 O   0  0  0  0  0  0  0  0  0  0  0  0
  110.0994  -12.8959   -8.0535 O   0  0  0  0  0  0  0  0  0  0  0  0
  109.7675  -15.2303   -6.1197 O   0  0  0  0  0  0  0  0  0  0  0  0
  111.9160  -14.6378   -6.2314 O   0  0  0  0  0  0  0  0  0  0  0  0
  1  4  1  0
  1 25  1  6
  1 28  1  0
  2  5  1  0
 17  2  1  0
  2 20  1  6
  3  6  1  0
  3 30  1  0
  3 31  1  6
  4  7  1  0
  4 21  1  6
  5  8  1  0
  6  9  1  0
  6 26  1  6
  7 10  1  0
 11  8  1  0
  8 22  1  1
  9 12  1  0
  9 23  1  1
 13 10  2  0
 14 11  1  0
 11 25  1  6
 15 12  1  0
 12 18  1  1
 12 27  1  0
 13 16  1  0
 28 13  1  0
 17 14  1  0
 14 29  1  1
 30 15  1  0
 16 24  1  0
 17 31  1  6
 23 19  1  0
M  CHG  5  20   1  21   1  22   1  23   1  24   1
M  END
$$$$
