
     RDKit          3D

 31 33  0  0  0  0  0  0  0  0999 V2000
  108.4913  -10.8820  -11.4739 C   0  0  1  0  0  0  0  0  0  0  0  0
  110.8205  -14.8352   -9.5883 C   0  0  2  0  0  0  0  0  0  0  0  0
  113.0652  -13.7044   -7.2460 C   0  0  2  0  0  0  0  0  0  0  0  0
  109.0160   -9.6368  -12.1079 C   0  0  1  0  0  0  0  0  0  0  0  0
  109.3308  -14.6564   -9.3931 C   0  0  0  0  0  0  0  0  0  0  0  0
  113.2574  -14.5100   -5.9795 C   0  0  1  0  0  0  0  0  0  0  0  0
  107.9719   -8.9459  -12.9926 C   0  0  0  0  0  0  0  0  0  0  0  0
  108.7539  -13.5073  -10.1448 C   0  0  1  0  0  0  0  0  0  0  0  0
  113.7152  -13.5394   -4.8919 C   0  0  2  0  0  0  0  0  0  0  0  0
  106.7604   -8.7062  -12.1649 C   0  0  0  0  0  0  0  0  0  0  0  0
  109.7980  -12.4284  -10.3397 C   0  0  2  0  0  0  0  0  0  0  0  0
  114.9693  -12.8805   -5.3939 C   0  0  1  0  0  0  0  0  0  0  0  0
  106.3888   -9.5914  -11.2570 C   0  0  0  0  0  0  0  0  0  0  0  0
  110.8111  -12.4050   -9.2165 C   0  0  1  0  0  0  0  0  0  0  0  0
  114.5608  -12.0514   -6.6184 C   0  0  0  0  0  0  0  0  0  0  0  0
  105.1870   -9.3994  -10.4046 C   0  0  0  0  0  0  0  0  0  0  0  0
  111.5978  -13.6526   -9.0477 C   0  0  1  0  0  0  0  0  0  0  0  0
  115.6155  -12.0024   -4.3455 C   0  0  0  0  0  0  0  0  0  0  0  0
  113.8614  -15.6238   -3.8294 C   0  0  0  0  0  0  0  0  0  0  0  0
  111.2012  -15.0155  -10.9563 N   0  0  0  0  0  4  0  0  0  0  0  0
  109.3818   -8.6990  -11.0779 N   0  0  0  0  0  4  0  0  0  0  0  0
  108.1284  -13.8886  -11.3919 N   0  0  0  0  0  4  0  0  0  0  0  0
  113.8548  -14.1782   -3.6210 N   0  0  0  0  0  4  0  0  0  0  0  0
  104.0313   -9.2627  -11.2813 N   0  0  0  0  0  4  0  0  0  0  0  0
  109.1917  -11.1671  -10.3109 O   0  0  0  0  0  0  0  0  0  0  0  0
  112.1002  -15.1792   -5.5873 O   0  0  0  0  0  0  0  0  0  0  0  0
  115.8340  -13.8951   -5.8084 O   0  0  0  0  0  0  0  0  0  0  0  0
  107.1340  -10.7261  -11.0930 O   0  0  0  0  0  0  0  0  0  0  0  0
  111.7116  -11.3706   -9.5236 O   0  0  0  0  0  0  0  0  0  0  0  0
  113.2649  -12.3392   -7.0194 O   0  0  0  0  0  0  0  0  0  0  0  0
  111.7552  -13.8540   -7.6566 O   0  0  0  0  0  0  0  0  0  0  0  0
  1  4  1  0
  1 25  1  1
  1 28  1  0
  2  5  1  0
 17  2  1  0
  2 20  1  6
  3  6  1  0
  3 30  1  0
  3 31  1  1
  4  7  1  0
  4 21  1  1
  5  8  1  0
  6  9  1  0
  6 26  1  1
  7 10  1  0
 11  8  1  0
  8 22  1  6
  9 12  1  0
  9 23  1  1
 13 10  2  0
 14 11  1  0
 11 25  1  1
 15 12  1  0
 12 18  1  1
 12 27  1  0
 13 16  1  0
 28 13  1  0
 17 14  1  0
 14 29  1  6
 30 15  1  0
 16 24  1  0
 17 31  1  1
 23 19  1  0
M  CHG  5  20   1  21   1  22   1  23   1  24   1
M  END
$$$$
