
     RDKit          3D

 31 33  0  0  0  0  0  0  0  0999 V2000
  104.2039    0.4797   -8.1321 C   0  0  1  0  0  0  0  0  0  0  0  0
  104.9786   -2.2206  -12.2133 C   0  0  2  0  0  0  0  0  0  0  0  0
  106.5041   -4.8122  -10.7389 C   0  0  2  0  0  0  0  0  0  0  0  0
  104.2240    0.0652   -6.6984 C   0  0  1  0  0  0  0  0  0  0  0  0
  103.4851   -1.9908  -12.1354 C   0  0  0  0  0  0  0  0  0  0  0  0
  106.1811   -6.2837  -10.8816 C   0  0  1  0  0  0  0  0  0  0  0  0
  104.4750    1.2446   -5.7517 C   0  0  0  0  0  0  0  0  0  0  0  0
  103.0858   -0.9107  -11.1909 C   0  0  1  0  0  0  0  0  0  0  0  0
  106.6730   -6.9791   -9.6131 C   0  0  2  0  0  0  0  0  0  0  0  0
  103.4514    2.2842   -6.0380 C   0  0  0  0  0  0  0  0  0  0  0  0
  104.1010   -0.7857  -10.0747 C   0  0  2  0  0  0  0  0  0  0  0  0
  108.1419   -6.6840   -9.4946 C   0  0  1  0  0  0  0  0  0  0  0  0
  103.0455    2.4950   -7.2777 C   0  0  0  0  0  0  0  0  0  0  0  0
  104.7751   -2.1043   -9.7660 C   0  0  1  0  0  0  0  0  0  0  0  0
  108.2617   -5.1704   -9.2741 C   0  0  0  0  0  0  0  0  0  0  0  0
  102.0256    3.5211   -7.6167 C   0  0  0  0  0  0  0  0  0  0  0  0
  105.5361   -2.7045  -10.8904 C   0  0  1  0  0  0  0  0  0  0  0  0
  108.7898   -7.4424   -8.3575 C   0  0  0  0  0  0  0  0  0  0  0  0
  104.8968   -8.5084   -9.6541 C   0  0  0  0  0  0  0  0  0  0  0  0
  105.7180   -1.0561  -12.5954 N   0  0  0  0  0  4  0  0  0  0  0  0
  102.9422   -0.4903   -6.3481 N   0  0  0  0  0  4  0  0  0  0  0  0
  102.8320    0.3577  -11.8379 N   0  0  0  0  0  4  0  0  0  0  0  0
  106.3500   -8.3713   -9.5997 N   0  0  0  0  0  4  0  0  0  0  0  0
  102.0291    3.6974   -9.0631 N   0  0  0  0  0  4  0  0  0  0  0  0
  103.4602   -0.4161   -8.8863 O   0  0  0  0  0  0  0  0  0  0  0  0
  104.8221   -6.5193  -11.0771 O   0  0  0  0  0  0  0  0  0  0  0  0
  108.7303   -7.0061  -10.7189 O   0  0  0  0  0  0  0  0  0  0  0  0
  103.5806    1.7442   -8.2876 O   0  0  0  0  0  0  0  0  0  0  0  0
  105.6838   -1.8448   -8.7257 O   0  0  0  0  0  0  0  0  0  0  0  0
  107.0510   -4.5276   -9.4840 O   0  0  0  0  0  0  0  0  0  0  0  0
  105.3236   -4.1016  -10.8309 O   0  0  0  0  0  0  0  0  0  0  0  0
  1  4  1  0
  1 25  1  6
  1 28  1  0
  2  5  1  0
 17  2  1  0
  2 20  1  1
  3  6  1  0
  3 30  1  0
  3 31  1  1
  4  7  1  0
  4 21  1  1
  5  8  1  0
  6  9  1  0
  6 26  1  1
  7 10  1  0
 11  8  1  0
  8 22  1  6
  9 12  1  0
  9 23  1  6
 13 10  2  0
 14 11  1  0
 11 25  1  1
 15 12  1  0
 12 18  1  1
 12 27  1  0
 13 16  1  0
 28 13  1  0
 17 14  1  0
 14 29  1  1
 30 15  1  0
 16 24  1  0
 17 31  1  6
 23 19  1  0
M  CHG  5  20   1  21   1  22   1  23   1  24   1
M  END
$$$$
