
     RDKit          3D

 31 33  0  0  0  0  0  0  0  0999 V2000
  112.5534  -14.7251   -6.5518 C   0  0  1  0  0  0  0  0  0  0  0  0
  111.4710  -10.9335   -9.4669 C   0  0  2  0  0  0  0  0  0  0  0  0
  110.4969  -12.6118  -12.0255 C   0  0  2  0  0  0  0  0  0  0  0  0
  111.9054  -16.0379   -6.2613 C   0  0  1  0  0  0  0  0  0  0  0  0
  110.6346  -10.7014   -8.2275 C   0  0  0  0  0  0  0  0  0  0  0  0
  109.8508  -13.8672  -12.5702 C   0  0  1  0  0  0  0  0  0  0  0  0
  112.9029  -17.0813   -5.7451 C   0  0  0  0  0  0  0  0  0  0  0  0
  111.1198  -11.4306   -7.0228 C   0  0  1  0  0  0  0  0  0  0  0  0
  110.9586  -14.7065  -13.2049 C   0  0  2  0  0  0  0  0  0  0  0  0
  113.5943  -16.5042   -4.5621 C   0  0  0  0  0  0  0  0  0  0  0  0
  111.8396  -12.6989   -7.4296 C   0  0  2  0  0  0  0  0  0  0  0  0
  111.6097  -13.8492  -14.2538 C   0  0  1  0  0  0  0  0  0  0  0  0
  113.8931  -15.2175   -4.5280 C   0  0  0  0  0  0  0  0  0  0  0  0
  111.3018  -13.2706   -8.7228 C   0  0  1  0  0  0  0  0  0  0  0  0
  112.2746  -12.6849  -13.5080 C   0  0  0  0  0  0  0  0  0  0  0  0
  114.5831  -14.5920   -3.3701 C   0  0  0  0  0  0  0  0  0  0  0  0
  111.4232  -12.3826   -9.9062 C   0  0  1  0  0  0  0  0  0  0  0  0
  112.6296  -14.6139  -15.0681 C   0  0  0  0  0  0  0  0  0  0  0  0
  109.0372  -15.8489  -13.9106 C   0  0  0  0  0  0  0  0  0  0  0  0
  112.8471  -10.5748   -9.3045 N   0  0  0  0  0  4  0  0  0  0  0  0
  110.9134  -15.8589   -5.2326 N   0  0  0  0  0  4  0  0  0  0  0  0
  111.9189  -10.6139   -6.1362 N   0  0  0  0  0  4  0  0  0  0  0  0
  110.4764  -15.9621  -13.6880 N   0  0  0  0  0  4  0  0  0  0  0  0
  114.8887  -13.2114   -3.7214 N   0  0  0  0  0  4  0  0  0  0  0  0
  111.6253  -13.6971   -6.4720 O   0  0  0  0  0  0  0  0  0  0  0  0
  109.1811  -14.5959  -11.5897 O   0  0  0  0  0  0  0  0  0  0  0  0
  110.5931  -13.3400  -15.0636 O   0  0  0  0  0  0  0  0  0  0  0  0
  113.5572  -14.4300   -5.5942 O   0  0  0  0  0  0  0  0  0  0  0  0
  112.0533  -14.4301   -8.9802 O   0  0  0  0  0  0  0  0  0  0  0  0
  111.8865  -12.6443  -12.1773 O   0  0  0  0  0  0  0  0  0  0  0  0
  110.2443  -12.5515  -10.6693 O   0  0  0  0  0  0  0  0  0  0  0  0
  1  4  1  0
  1 25  1  1
  1 28  1  0
  2  5  1  0
 17  2  1  0
  2 20  1  1
  3  6  1  0
  3 30  1  0
  3 31  1  1
  4  7  1  0
  4 21  1  1
  5  8  1  0
  6  9  1  0
  6 26  1  1
  7 10  1  0
 11  8  1  0
  8 22  1  6
  9 12  1  0
  9 23  1  6
 13 10  2  0
 14 11  1  0
 11 25  1  1
 15 12  1  0
 12 18  1  6
 12 27  1  0
 13 16  1  0
 28 13  1  0
 17 14  1  0
 14 29  1  6
 30 15  1  0
 16 24  1  0
 17 31  1  6
 23 19  1  0
M  CHG  5  20   1  21   1  22   1  23   1  24   1
M  END
$$$$
