
     RDKit          3D

 31 33  0  0  0  0  0  0  0  0999 V2000
  108.3850  -15.1936  -10.4326 C   0  0  1  0  0  0  0  0  0  0  0  0
  110.2857  -10.8930   -8.8027 C   0  0  2  0  0  0  0  0  0  0  0  0
  112.8496  -11.8631   -6.9806 C   0  0  2  0  0  0  0  0  0  0  0  0
  108.8433  -16.6117  -10.5137 C   0  0  1  0  0  0  0  0  0  0  0  0
  110.2906  -10.8664  -10.3155 C   0  0  0  0  0  0  0  0  0  0  0  0
  114.3592  -11.8996   -7.0794 C   0  0  1  0  0  0  0  0  0  0  0  0
  107.6807  -17.5922  -10.7067 C   0  0  0  0  0  0  0  0  0  0  0  0
  109.4848  -11.9500  -10.9441 C   0  0  1  0  0  0  0  0  0  0  0  0
  114.8355  -13.1074   -6.2739 C   0  0  2  0  0  0  0  0  0  0  0  0
  106.9170  -17.1624  -11.9077 C   0  0  0  0  0  0  0  0  0  0  0  0
  109.4382  -13.1634  -10.0398 C   0  0  2  0  0  0  0  0  0  0  0  0
  114.3183  -12.9304   -4.8738 C   0  0  1  0  0  0  0  0  0  0  0  0
  106.7603  -15.8773  -12.1720 C   0  0  0  0  0  0  0  0  0  0  0  0
  110.6822  -13.2885   -9.1881 C   0  0  1  0  0  0  0  0  0  0  0  0
  112.7887  -13.0042   -4.9662 C   0  0  0  0  0  0  0  0  0  0  0  0
  106.0064  -15.3958  -13.3585 C   0  0  0  0  0  0  0  0  0  0  0  0
  110.9355  -12.1523   -8.2669 C   0  0  1  0  0  0  0  0  0  0  0  0
  114.8479  -13.9859   -3.9286 C   0  0  0  0  0  0  0  0  0  0  0  0
  116.6556  -13.1117   -7.7511 C   0  0  0  0  0  0  0  0  0  0  0  0
  108.9757  -10.8048   -8.2327 N   0  0  0  0  0  4  0  0  0  0  0  0
  109.7148  -16.7633  -11.6503 N   0  0  0  0  0  4  0  0  0  0  0  0
  108.1635  -11.5254  -11.3508 N   0  0  0  0  0  4  0  0  0  0  0  0
  116.2504  -13.2904   -6.3592 N   0  0  0  0  0  4  0  0  0  0  0  0
  105.0271  -14.4181  -12.9024 N   0  0  0  0  0  4  0  0  0  0  0  0
  109.4041  -14.3315  -10.8103 O   0  0  0  0  0  0  0  0  0  0  0  0
  114.8101  -11.9762   -8.3953 O   0  0  0  0  0  0  0  0  0  0  0  0
  114.6804  -11.6485   -4.4564 O   0  0  0  0  0  0  0  0  0  0  0  0
  107.3098  -14.9543  -11.3260 O   0  0  0  0  0  0  0  0  0  0  0  0
  110.5053  -14.4420   -8.4047 O   0  0  0  0  0  0  0  0  0  0  0  0
  112.3555  -12.9697   -6.2831 O   0  0  0  0  0  0  0  0  0  0  0  0
  112.3328  -11.9333   -8.2592 O   0  0  0  0  0  0  0  0  0  0  0  0
  1  4  1  0
  1 25  1  6
  1 28  1  0
  2  5  1  0
 17  2  1  0
  2 20  1  6
  3  6  1  0
  3 30  1  0
  3 31  1  6
  4  7  1  0
  4 21  1  6
  5  8  1  0
  6  9  1  0
  6 26  1  6
  7 10  1  0
 11  8  1  0
  8 22  1  1
  9 12  1  0
  9 23  1  1
 13 10  2  0
 14 11  1  0
 11 25  1  6
 15 12  1  0
 12 18  1  1
 12 27  1  0
 13 16  1  0
 28 13  1  0
 17 14  1  0
 14 29  1  1
 30 15  1  0
 16 24  1  0
 17 31  1  6
 23 19  1  0
M  CHG  5  20   1  21   1  22   1  23   1  24   1
M  END
$$$$
