
     RDKit          3D

 31 33  0  0  0  0  0  0  0  0999 V2000
  113.3423  -13.8182   -5.7569 C   0  0  1  0  0  0  0  0  0  0  0  0
  111.1481  -13.1331  -10.1860 C   0  0  2  0  0  0  0  0  0  0  0  0
  108.2668  -11.8468  -10.0687 C   0  0  2  0  0  0  0  0  0  0  0  0
  113.2761  -13.6157   -4.2797 C   0  0  1  0  0  0  0  0  0  0  0  0
  112.4384  -12.3664   -9.9944 C   0  0  0  0  0  0  0  0  0  0  0  0
  107.4601  -10.5681  -10.0031 C   0  0  1  0  0  0  0  0  0  0  0  0
  114.4370  -14.2942   -3.5435 C   0  0  0  0  0  0  0  0  0  0  0  0
  113.1747  -12.7192   -8.7487 C   0  0  1  0  0  0  0  0  0  0  0  0
  106.1729  -10.8845   -9.2433 C   0  0  2  0  0  0  0  0  0  0  0  0
  115.7059  -13.7975   -4.1382 C   0  0  0  0  0  0  0  0  0  0  0  0
  112.2086  -13.1868   -7.6809 C   0  0  2  0  0  0  0  0  0  0  0  0
  105.4912  -12.0004   -9.9843 C   0  0  1  0  0  0  0  0  0  0  0  0
  115.7840  -13.5580   -5.4352 C   0  0  0  0  0  0  0  0  0  0  0  0
  110.8482  -12.5398   -7.8191 C   0  0  1  0  0  0  0  0  0  0  0  0
  106.4134  -13.2211   -9.8700 C   0  0  0  0  0  0  0  0  0  0  0  0
  117.0279  -13.0610   -6.0785 C   0  0  0  0  0  0  0  0  0  0  0  0
  110.1445  -12.8127   -9.0973 C   0  0  1  0  0  0  0  0  0  0  0  0
  104.1219  -12.3107   -9.4216 C   0  0  0  0  0  0  0  0  0  0  0  0
  105.8148   -8.6843   -9.9684 C   0  0  0  0  0  0  0  0  0  0  0  0
  111.3240  -14.5534  -10.2091 N   0  0  0  0  0  4  0  0  0  0  0  0
  113.3601  -12.2072   -3.9907 N   0  0  0  0  0  4  0  0  0  0  0  0
  114.2485  -13.6646   -8.9605 N   0  0  0  0  0  4  0  0  0  0  0  0
  105.3603   -9.7249   -9.0496 N   0  0  0  0  0  4  0  0  0  0  0  0
  116.6705  -11.9473   -6.9473 N   0  0  0  0  0  4  0  0  0  0  0  0
  112.6703  -12.7999   -6.4174 O   0  0  0  0  0  0  0  0  0  0  0  0
  108.1520   -9.5270   -9.3880 O   0  0  0  0  0  0  0  0  0  0  0  0
  105.4140  -11.6217  -11.3258 O   0  0  0  0  0  0  0  0  0  0  0  0
  114.6832  -13.7739   -6.2171 O   0  0  0  0  0  0  0  0  0  0  0  0
  110.0601  -13.0602   -6.7782 O   0  0  0  0  0  0  0  0  0  0  0  0
  107.6522  -12.8769   -9.3503 O   0  0  0  0  0  0  0  0  0  0  0  0
  109.4892  -11.6157   -9.4694 O   0  0  0  0  0  0  0  0  0  0  0  0
  1  4  1  0
  1 25  1  6
  1 28  1  0
  2  5  1  0
 17  2  1  0
  2 20  1  1
  3  6  1  0
  3 30  1  0
  3 31  1  1
  4  7  1  0
  4 21  1  6
  5  8  1  0
  6  9  1  0
  6 26  1  1
  7 10  1  0
 11  8  1  0
  8 22  1  6
  9 12  1  0
  9 23  1  6
 13 10  2  0
 14 11  1  0
 11 25  1  1
 15 12  1  0
 12 18  1  1
 12 27  1  0
 13 16  1  0
 28 13  1  0
 17 14  1  0
 14 29  1  1
 30 15  1  0
 16 24  1  0
 17 31  1  6
 23 19  1  0
M  CHG  5  20   1  21   1  22   1  23   1  24   1
M  END
$$$$
