
     RDKit          3D

 31 33  0  0  0  0  0  0  0  0999 V2000
  109.9287  -13.7038  -13.3095 C   0  0  1  0  0  0  0  0  0  0  0  0
  108.9265  -12.0231   -8.7211 C   0  0  2  0  0  0  0  0  0  0  0  0
  111.5781  -13.3256   -6.9977 C   0  0  2  0  0  0  0  0  0  0  0  0
  110.9464  -14.7482  -13.6277 C   0  0  1  0  0  0  0  0  0  0  0  0
  109.0979  -10.8628   -9.6770 C   0  0  0  0  0  0  0  0  0  0  0  0
  112.1913  -12.5556   -5.8483 C   0  0  1  0  0  0  0  0  0  0  0  0
  110.6887  -15.4237  -14.9795 C   0  0  0  0  0  0  0  0  0  0  0  0
  109.1527  -11.2611  -11.1111 C   0  0  1  0  0  0  0  0  0  0  0  0
  113.6479  -13.0019   -5.7318 C   0  0  2  0  0  0  0  0  0  0  0  0
  110.6116  -14.3584  -16.0137 C   0  0  0  0  0  0  0  0  0  0  0  0
  109.7091  -12.6626  -11.2473 C   0  0  2  0  0  0  0  0  0  0  0  0
  113.6339  -14.4914   -5.5317 C   0  0  1  0  0  0  0  0  0  0  0  0
  110.0549  -13.1942  -15.7297 C   0  0  0  0  0  0  0  0  0  0  0  0
  110.6811  -13.0009  -10.1386 C   0  0  1  0  0  0  0  0  0  0  0  0
  113.0621  -15.0948   -6.8212 C   0  0  0  0  0  0  0  0  0  0  0  0
  109.9529  -12.0973  -16.7269 C   0  0  0  0  0  0  0  0  0  0  0  0
  110.1153  -12.9610   -8.7667 C   0  0  1  0  0  0  0  0  0  0  0  0
  115.0125  -15.0455   -5.2482 C   0  0  0  0  0  0  0  0  0  0  0  0
  114.4451  -10.8806   -5.1319 C   0  0  0  0  0  0  0  0  0  0  0  0
  107.7508  -12.8008   -8.9695 N   0  0  0  0  0  4  0  0  0  0  0  0
  112.2468  -14.1339  -13.7052 N   0  0  0  0  0  4  0  0  0  0  0  0
  107.8909  -11.1090  -11.8014 N   0  0  0  0  0  4  0  0  0  0  0  0
  114.3556  -12.2796   -4.7217 N   0  0  0  0  0  4  0  0  0  0  0  0
  109.4287  -12.6616  -17.9637 N   0  0  0  0  0  4  0  0  0  0  0  0
  110.4518  -12.7682  -12.4290 O   0  0  0  0  0  0  0  0  0  0  0  0
  112.1113  -11.1757   -6.0223 O   0  0  0  0  0  0  0  0  0  0  0  0
  112.7536  -14.7611   -4.4824 O   0  0  0  0  0  0  0  0  0  0  0  0
  109.5532  -12.9874  -14.4746 O   0  0  0  0  0  0  0  0  0  0  0  0
  111.1125  -14.3157  -10.3845 O   0  0  0  0  0  0  0  0  0  0  0  0
  112.5292  -14.1175   -7.6483 O   0  0  0  0  0  0  0  0  0  0  0  0
  111.1134  -12.4152   -7.9263 O   0  0  0  0  0  0  0  0  0  0  0  0
  1  4  1  0
  1 25  1  1
  1 28  1  0
  2  5  1  0
 17  2  1  0
  2 20  1  6
  3  6  1  0
  3 30  1  0
  3 31  1  6
  4  7  1  0
  4 21  1  6
  5  8  1  0
  6  9  1  0
  6 26  1  6
  7 10  1  0
 11  8  1  0
  8 22  1  1
  9 12  1  0
  9 23  1  1
 13 10  2  0
 14 11  1  0
 11 25  1  6
 15 12  1  0
 12 18  1  1
 12 27  1  0
 13 16  1  0
 28 13  1  0
 17 14  1  0
 14 29  1  6
 30 15  1  0
 16 24  1  0
 17 31  1  1
 23 19  1  0
M  CHG  5  20   1  21   1  22   1  23   1  24   1
M  END
$$$$
