
     RDKit          3D

 31 33  0  0  0  0  0  0  0  0999 V2000
  133.7626  -10.3398  -11.0510 C   0  0  1  0  0  0  0  0  0  0  0  0
  129.4049  -10.8142   -8.6634 C   0  0  2  0  0  0  0  0  0  0  0  0
  129.1475  -14.0062   -7.8138 C   0  0  2  0  0  0  0  0  0  0  0  0
  135.0394  -11.0454  -11.3665 C   0  0  1  0  0  0  0  0  0  0  0  0
  130.3192   -9.8338   -7.9618 C   0  0  0  0  0  0  0  0  0  0  0  0
  128.9206  -14.6112   -6.4454 C   0  0  1  0  0  0  0  0  0  0  0  0
  135.8681  -10.3102  -12.4262 C   0  0  0  0  0  0  0  0  0  0  0  0
  131.5389   -9.4785   -8.7394 C   0  0  1  0  0  0  0  0  0  0  0  0
  129.4544  -16.0422   -6.4901 C   0  0  2  0  0  0  0  0  0  0  0  0
  136.0800   -8.9169  -11.9526 C   0  0  0  0  0  0  0  0  0  0  0  0
  131.9320  -10.6203   -9.6526 C   0  0  2  0  0  0  0  0  0  0  0  0
  128.7241  -16.7465   -7.5990 C   0  0  1  0  0  0  0  0  0  0  0  0
  135.1251   -8.2858  -11.2925 C   0  0  0  0  0  0  0  0  0  0  0  0
  131.5351  -11.9661   -9.0872 C   0  0  1  0  0  0  0  0  0  0  0  0
  129.1420  -16.0510   -8.9011 C   0  0  0  0  0  0  0  0  0  0  0  0
  135.2866   -6.8939  -10.7980 C   0  0  0  0  0  0  0  0  0  0  0  0
  130.0793  -12.1554   -8.8667 C   0  0  1  0  0  0  0  0  0  0  0  0
  129.0494  -18.2227   -7.6536 C   0  0  0  0  0  0  0  0  0  0  0  0
  128.2404  -16.1179   -4.4862 C   0  0  0  0  0  0  0  0  0  0  0  0
  128.9504  -10.3592   -9.9421 N   0  0  0  0  0  4  0  0  0  0  0  0
  135.8470  -11.1176  -10.1761 N   0  0  0  0  0  4  0  0  0  0  0  0
  131.4236   -8.2268   -9.4546 N   0  0  0  0  0  4  0  0  0  0  0  0
  129.3644  -16.6928   -5.2208 N   0  0  0  0  0  4  0  0  0  0  0  0
  134.2274   -6.6345   -9.8316 N   0  0  0  0  0  4  0  0  0  0  0  0
  133.3252  -10.6732   -9.7775 O   0  0  0  0  0  0  0  0  0  0  0  0
  129.5381  -13.8868   -5.4282 O   0  0  0  0  0  0  0  0  0  0  0  0
  127.3590  -16.5354   -7.3968 O   0  0  0  0  0  0  0  0  0  0  0  0
  133.9445   -8.9331  -11.0537 O   0  0  0  0  0  0  0  0  0  0  0  0
  131.9527  -12.9238  -10.0272 O   0  0  0  0  0  0  0  0  0  0  0  0
  129.8450  -14.8820   -8.6514 O   0  0  0  0  0  0  0  0  0  0  0  0
  129.9375  -12.8837   -7.6625 O   0  0  0  0  0  0  0  0  0  0  0  0
  1  4  1  0
  1 25  1  1
  1 28  1  0
  2  5  1  0
 17  2  1  0
  2 20  1  6
  3  6  1  0
  3 30  1  0
  3 31  1  1
  4  7  1  0
  4 21  1  1
  5  8  1  0
  6  9  1  0
  6 26  1  1
  7 10  1  0
 11  8  1  0
  8 22  1  6
  9 12  1  0
  9 23  1  1
 13 10  2  0
 14 11  1  0
 11 25  1  1
 15 12  1  0
 12 18  1  6
 12 27  1  0
 13 16  1  0
 28 13  1  0
 17 14  1  0
 14 29  1  6
 30 15  1  0
 16 24  1  0
 17 31  1  1
 23 19  1  0
M  CHG  5  20   1  21   1  22   1  23   1  24   1
M  END
$$$$
