
     RDKit          3D

 31 33  0  0  0  0  0  0  0  0999 V2000
  113.2519  -13.6383   -6.0009 C   0  0  1  0  0  0  0  0  0  0  0  0
  111.0837  -13.6565  -10.4951 C   0  0  2  0  0  0  0  0  0  0  0  0
  107.8831  -12.7442   -9.3182 C   0  0  2  0  0  0  0  0  0  0  0  0
  113.0479  -13.2344   -4.5787 C   0  0  1  0  0  0  0  0  0  0  0  0
  112.1771  -12.6124  -10.4323 C   0  0  0  0  0  0  0  0  0  0  0  0
  106.9306  -11.8322  -10.0606 C   0  0  1  0  0  0  0  0  0  0  0  0
  114.1191  -13.8127   -3.6467 C   0  0  0  0  0  0  0  0  0  0  0  0
  113.0309  -12.7005   -9.2150 C   0  0  1  0  0  0  0  0  0  0  0  0
  106.2052  -10.9881   -9.0138 C   0  0  2  0  0  0  0  0  0  0  0  0
  115.4488  -13.4105   -4.1763 C   0  0  0  0  0  0  0  0  0  0  0  0
  112.2450  -13.2884   -8.0623 C   0  0  2  0  0  0  0  0  0  0  0  0
  105.5278  -11.9453   -8.0737 C   0  0  1  0  0  0  0  0  0  0  0  0
  115.6560  -13.3520   -5.4800 C   0  0  0  0  0  0  0  0  0  0  0  0
  110.7693  -12.9689   -8.1558 C   0  0  1  0  0  0  0  0  0  0  0  0
  106.6471  -12.7144   -7.3599 C   0  0  0  0  0  0  0  0  0  0  0  0
  116.9656  -12.9560   -6.0599 C   0  0  0  0  0  0  0  0  0  0  0  0
  110.0857  -13.4846   -9.3684 C   0  0  1  0  0  0  0  0  0  0  0  0
  104.6436  -11.2366   -7.0717 C   0  0  0  0  0  0  0  0  0  0  0  0
  106.0478   -9.3495  -10.6827 C   0  0  0  0  0  0  0  0  0  0  0  0
  111.5719  -15.0009  -10.4406 N   0  0  0  0  0  4  0  0  0  0  0  0
  113.1316  -11.8002   -4.4772 N   0  0  0  0  0  4  0  0  0  0  0  0
  114.2781  -13.3995   -9.4337 N   0  0  0  0  0  4  0  0  0  0  0  0
  105.3292  -10.0270   -9.6066 N   0  0  0  0  0  4  0  0  0  0  0  0
  116.7068  -12.1310   -7.2326 N   0  0  0  0  0  4  0  0  0  0  0  0
  112.6668  -12.7163   -6.8565 O   0  0  0  0  0  0  0  0  0  0  0  0
  107.5783  -11.0181  -10.9872 O   0  0  0  0  0  0  0  0  0  0  0  0
  104.7940  -12.8423   -8.8519 O   0  0  0  0  0  0  0  0  0  0  0  0
  114.6314  -13.6662   -6.3293 O   0  0  0  0  0  0  0  0  0  0  0  0
  110.1672  -13.5709   -7.0376 O   0  0  0  0  0  0  0  0  0  0  0  0
  107.8816  -12.4775   -7.9456 O   0  0  0  0  0  0  0  0  0  0  0  0
  109.1625  -12.4923   -9.7729 O   0  0  0  0  0  0  0  0  0  0  0  0
  1  4  1  0
  1 25  1  6
  1 28  1  0
  2  5  1  0
 17  2  1  0
  2 20  1  1
  3  6  1  0
  3 30  1  0
  3 31  1  6
  4  7  1  0
  4 21  1  6
  5  8  1  0
  6  9  1  0
  6 26  1  6
  7 10  1  0
 11  8  1  0
  8 22  1  6
  9 12  1  0
  9 23  1  6
 13 10  2  0
 14 11  1  0
 11 25  1  1
 15 12  1  0
 12 18  1  1
 12 27  1  0
 13 16  1  0
 28 13  1  0
 17 14  1  0
 14 29  1  1
 30 15  1  0
 16 24  1  0
 17 31  1  6
 23 19  1  0
M  CHG  5  20   1  21   1  22   1  23   1  24   1
M  END
$$$$
