
     RDKit          3D

 22 24  0  0  0  0  0  0  0  0999 V2000
  -18.6337   17.1928  138.4272 O   0  0  0  0  0  1  0  0  0  0  0  0
  -18.4239   16.9402  137.0876 C   0  0  0  0  0  0  0  0  0  0  0  0
  -17.2826   16.7469  136.6086 O   0  0  0  0  0  0  0  0  0  0  0  0
  -19.6282   16.9055  136.2163 C   0  0  0  0  0  0  0  0  0  0  0  0
  -20.7834   17.0499  136.7340 N   0  0  0  0  0  0  0  0  0  0  0  0
  -19.4695   16.7046  134.7663 C   0  0  0  0  0  0  0  0  0  0  0  0
  -18.6809   15.5891  134.4747 O   0  0  0  0  0  0  0  0  0  0  0  0
  -20.7442   16.6944  134.0468 C   0  0  0  0  0  0  0  0  0  0  0  0
  -20.8410   16.5365  132.7961 O   0  0  0  0  0  0  0  0  0  0  0  0
  -21.9963   16.8714  134.7646 C   0  0  0  0  0  0  0  0  0  0  0  0
  -22.0198   17.0452  136.0756 C   0  0  0  0  0  0  0  0  0  0  0  0
  -23.2842   17.2246  136.8049 C   0  0  0  0  0  0  0  0  0  0  0  0
  -23.3785   17.6191  138.1088 C   0  0  0  0  0  0  0  0  0  0  0  0
  -24.4579   16.9770  136.1241 C   0  0  0  0  0  0  0  0  0  0  0  0
  -25.6910   17.1239  136.7435 C   0  0  0  0  0  0  0  0  0  0  0  0
  -25.7786   17.5227  138.0607 C   0  0  0  0  0  0  0  0  0  0  0  0
  -24.6124   17.7719  138.7475 C   0  0  0  0  0  0  0  0  0  0  0  0
  -24.6824   18.1955  140.1442 C   0  0  0  0  0  0  0  0  0  0  0  0
  -25.4547   17.5907  141.0845 N   0  0  0  0  0  0  0  0  0  0  0  0
  -25.2939   18.2062  142.2310 N   0  0  0  0  0  0  0  0  0  0  0  0
  -24.4345   19.1901  142.0371 N   0  0  0  0  0  0  0  0  0  0  0  0
  -24.0657   19.1808  140.7707 N   0  0  0  0  0  0  0  0  0  0  0  0
  1  2  1  0
  2  3  2  0
  2  4  1  0
  4  5  2  0
  4  6  1  0
  5 11  1  0
  6  7  1  0
  6  8  1  0
  8  9  2  0
  8 10  1  0
 10 11  2  0
 11 12  1  0
 12 13  2  0
 12 14  1  0
 13 17  1  0
 14 15  2  0
 15 16  1  0
 16 17  2  0
 17 18  1  0
 18 19  2  0
 18 22  1  0
 19 20  1  0
 20 21  2  0
 21 22  1  0
M  CHG  1   1  -1
M  END
$$$$
