
     RDKit          3D

 22 24  0  0  0  0  0  0  0  0999 V2000
  -21.3355   20.1331  134.6824 O   0  0  0  0  0  1  0  0  0  0  0  0
  -20.5088   19.0625  134.4133 C   0  0  0  0  0  0  0  0  0  0  0  0
  -19.6207   19.1017  133.5305 O   0  0  0  0  0  0  0  0  0  0  0  0
  -20.7159   17.8356  135.2271 C   0  0  0  0  0  0  0  0  0  0  0  0
  -21.6218   17.8206  136.1230 N   0  0  0  0  0  0  0  0  0  0  0  0
  -19.8710   16.6538  134.9867 C   0  0  0  0  0  0  0  0  0  0  0  0
  -18.5106   16.9700  135.0025 O   0  0  0  0  0  0  0  0  0  0  0  0
  -20.1961   15.5291  135.8654 C   0  0  0  0  0  0  0  0  0  0  0  0
  -19.5959   14.4169  135.8304 O   0  0  0  0  0  0  0  0  0  0  0  0
  -21.2599   15.6474  136.8497 C   0  0  0  0  0  0  0  0  0  0  0  0
  -21.9578   16.7636  136.9786 C   0  0  0  0  0  0  0  0  0  0  0  0
  -23.0343   16.8868  137.9729 C   0  0  0  0  0  0  0  0  0  0  0  0
  -23.2673   17.9989  138.7303 C   0  0  0  0  0  0  0  0  0  0  0  0
  -23.8676   15.8026  138.1536 C   0  0  0  0  0  0  0  0  0  0  0  0
  -24.9062   15.8418  139.0731 C   0  0  0  0  0  0  0  0  0  0  0  0
  -25.1356   16.9683  139.8346 C   0  0  0  0  0  0  0  0  0  0  0  0
  -24.3089   18.0547  139.6608 C   0  0  0  0  0  0  0  0  0  0  0  0
  -24.5342   19.2587  140.4574 C   0  0  0  0  0  0  0  0  0  0  0  0
  -25.7622   19.7047  140.8307 N   0  0  0  0  0  0  0  0  0  0  0  0
  -25.6234   20.8027  141.5338 N   0  0  0  0  0  0  0  0  0  0  0  0
  -24.3309   21.0627  141.6142 N   0  0  0  0  0  0  0  0  0  0  0  0
  -23.6734   20.1245  140.9605 N   0  0  0  0  0  0  0  0  0  0  0  0
  1  2  1  0
  2  3  2  0
  2  4  1  0
  4  5  2  0
  4  6  1  0
  5 11  1  0
  6  7  1  0
  6  8  1  0
  8  9  2  0
  8 10  1  0
 10 11  2  0
 11 12  1  0
 12 13  2  0
 12 14  1  0
 13 17  1  0
 14 15  2  0
 15 16  1  0
 16 17  2  0
 17 18  1  0
 18 19  2  0
 18 22  1  0
 19 20  1  0
 20 21  2  0
 21 22  1  0
M  CHG  1   1  -1
M  END
$$$$
