
     RDKit          3D

 22 24  0  0  0  0  0  0  0  0999 V2000
  -21.4807   19.4164  135.9992 O   0  0  0  0  0  1  0  0  0  0  0  0
  -20.8653   18.3696  135.3563 C   0  0  0  0  0  0  0  0  0  0  0  0
  -20.4729   18.4999  134.1830 O   0  0  0  0  0  0  0  0  0  0  0  0
  -20.6765   17.1141  136.0529 C   0  0  0  0  0  0  0  0  0  0  0  0
  -21.0193   16.9910  137.2904 N   0  0  0  0  0  0  0  0  0  0  0  0
  -20.0753   15.9844  135.2845 C   0  0  0  0  0  0  0  0  0  0  0  0
  -18.8078   16.3164  134.7969 O   0  0  0  0  0  0  0  0  0  0  0  0
  -19.9271   14.7536  136.0864 C   0  0  0  0  0  0  0  0  0  0  0  0
  -19.4320   13.7577  135.5217 O   0  0  0  0  0  0  0  0  0  0  0  0
  -20.3594   14.7569  137.4817 C   0  0  0  0  0  0  0  0  0  0  0  0
  -20.8805   15.8140  138.0672 C   0  0  0  0  0  0  0  0  0  0  0  0
  -21.2964   15.7684  139.4603 C   0  0  0  0  0  0  0  0  0  0  0  0
  -22.2725   16.5398  140.0287 C   0  0  0  0  0  0  0  0  0  0  0  0
  -20.6556   14.8620  140.3165 C   0  0  0  0  0  0  0  0  0  0  0  0
  -20.9735   14.7396  141.6502 C   0  0  0  0  0  0  0  0  0  0  0  0
  -21.9498   15.5211  142.1886 C   0  0  0  0  0  0  0  0  0  0  0  0
  -22.6006   16.4225  141.3779 C   0  0  0  0  0  0  0  0  0  0  0  0
  -23.6471   17.2698  141.9253 C   0  0  0  0  0  0  0  0  0  0  0  0
  -23.7701   17.7331  143.1813 N   0  0  0  0  0  0  0  0  0  0  0  0
  -24.8581   18.4554  143.2306 N   0  0  0  0  0  0  0  0  0  0  0  0
  -25.4660   18.4896  142.0480 N   0  0  0  0  0  0  0  0  0  0  0  0
  -24.7075   17.7548  141.2561 N   0  0  0  0  0  0  0  0  0  0  0  0
  1  2  1  0
  2  3  2  0
  2  4  1  0
  4  5  2  0
  4  6  1  0
  5 11  1  0
  6  7  1  0
  6  8  1  0
  8  9  2  0
  8 10  1  0
 10 11  2  0
 11 12  1  0
 12 13  2  0
 12 14  1  0
 13 17  1  0
 14 15  2  0
 15 16  1  0
 16 17  2  0
 17 18  1  0
 18 19  2  0
 18 22  1  0
 19 20  1  0
 20 21  2  0
 21 22  1  0
M  CHG  1   1  -1
M  END
$$$$
