
     RDKit          3D

 22 24  0  0  0  0  0  0  0  0999 V2000
  -22.6132   18.5623  135.3311 O   0  0  0  0  0  1  0  0  0  0  0  0
  -21.5870   17.8206  134.7843 C   0  0  0  0  0  0  0  0  0  0  0  0
  -21.2431   17.9272  133.5844 O   0  0  0  0  0  0  0  0  0  0  0  0
  -20.8904   16.8708  135.6917 C   0  0  0  0  0  0  0  0  0  0  0  0
  -21.2457   16.7920  136.9127 N   0  0  0  0  0  0  0  0  0  0  0  0
  -19.7987   16.0336  135.1666 C   0  0  0  0  0  0  0  0  0  0  0  0
  -18.8355   16.7892  134.4941 O   0  0  0  0  0  0  0  0  0  0  0  0
  -19.2147   15.1529  136.1795 C   0  0  0  0  0  0  0  0  0  0  0  0
  -18.2658   14.3504  135.9465 O   0  0  0  0  0  0  0  0  0  0  0  0
  -19.7184   15.1639  137.5435 C   0  0  0  0  0  0  0  0  0  0  0  0
  -20.7091   15.9620  137.9053 C   0  0  0  0  0  0  0  0  0  0  0  0
  -21.2211   15.9758  139.2839 C   0  0  0  0  0  0  0  0  0  0  0  0
  -22.2105   16.8012  139.7358 C   0  0  0  0  0  0  0  0  0  0  0  0
  -20.6625   15.0928  140.1843 C   0  0  0  0  0  0  0  0  0  0  0  0
  -21.0919   15.0457  141.5030 C   0  0  0  0  0  0  0  0  0  0  0  0
  -22.0917   15.8823  141.9525 C   0  0  0  0  0  0  0  0  0  0  0  0
  -22.6545   16.7665  141.0607 C   0  0  0  0  0  0  0  0  0  0  0  0
  -23.7155   17.6622  141.5160 C   0  0  0  0  0  0  0  0  0  0  0  0
  -23.6639   19.0161  141.4132 N   0  0  0  0  0  0  0  0  0  0  0  0
  -24.7652   19.5254  141.9100 N   0  0  0  0  0  0  0  0  0  0  0  0
  -25.5153   18.5212  142.3263 N   0  0  0  0  0  0  0  0  0  0  0  0
  -24.8758   17.3929  142.0858 N   0  0  0  0  0  0  0  0  0  0  0  0
  1  2  1  0
  2  3  2  0
  2  4  1  0
  4  5  2  0
  4  6  1  0
  5 11  1  0
  6  7  1  0
  6  8  1  0
  8  9  2  0
  8 10  1  0
 10 11  2  0
 11 12  1  0
 12 13  2  0
 12 14  1  0
 13 17  1  0
 14 15  2  0
 15 16  1  0
 16 17  2  0
 17 18  1  0
 18 19  2  0
 18 22  1  0
 19 20  1  0
 20 21  2  0
 21 22  1  0
M  CHG  1   1  -1
M  END
$$$$
