
     RDKit          3D

 22 24  0  0  0  0  0  0  0  0999 V2000
  -19.6233   19.9125  136.9874 O   0  0  0  0  0  1  0  0  0  0  0  0
  -19.0676   18.8354  136.3291 C   0  0  0  0  0  0  0  0  0  0  0  0
  -17.8530   18.7834  136.0267 O   0  0  0  0  0  0  0  0  0  0  0  0
  -19.9836   17.7158  135.9851 C   0  0  0  0  0  0  0  0  0  0  0  0
  -21.1872   17.7370  136.4026 N   0  0  0  0  0  0  0  0  0  0  0  0
  -19.4872   16.5973  135.1662 C   0  0  0  0  0  0  0  0  0  0  0  0
  -18.3036   16.0589  135.6764 O   0  0  0  0  0  0  0  0  0  0  0  0
  -20.5055   15.5763  134.9141 C   0  0  0  0  0  0  0  0  0  0  0  0
  -20.2956   14.5310  134.2344 O   0  0  0  0  0  0  0  0  0  0  0  0
  -21.8476   15.7261  135.4532 C   0  0  0  0  0  0  0  0  0  0  0  0
  -22.1842   16.7787  136.1799 C   0  0  0  0  0  0  0  0  0  0  0  0
  -23.5407   16.9335  136.7267 C   0  0  0  0  0  0  0  0  0  0  0  0
  -23.8333   17.5348  137.9172 C   0  0  0  0  0  0  0  0  0  0  0  0
  -24.5918   16.4363  135.9848 C   0  0  0  0  0  0  0  0  0  0  0  0
  -25.9005   16.5439  136.4336 C   0  0  0  0  0  0  0  0  0  0  0  0
  -26.1886   17.1525  137.6370 C   0  0  0  0  0  0  0  0  0  0  0  0
  -25.1458   17.6514  138.3836 C   0  0  0  0  0  0  0  0  0  0  0  0
  -25.4286   18.3002  139.6620 C   0  0  0  0  0  0  0  0  0  0  0  0
  -26.2147   17.7615  140.6306 N   0  0  0  0  0  0  0  0  0  0  0  0
  -26.2676   18.5875  141.6475 N   0  0  0  0  0  0  0  0  0  0  0  0
  -25.5305   19.6404  141.3435 N   0  0  0  0  0  0  0  0  0  0  0  0
  -25.0232   19.4628  140.1389 N   0  0  0  0  0  0  0  0  0  0  0  0
  1  2  1  0
  2  3  2  0
  2  4  1  0
  4  5  2  0
  4  6  1  0
  5 11  1  0
  6  7  1  0
  6  8  1  0
  8  9  2  0
  8 10  1  0
 10 11  2  0
 11 12  1  0
 12 13  2  0
 12 14  1  0
 13 17  1  0
 14 15  2  0
 15 16  1  0
 16 17  2  0
 17 18  1  0
 18 19  2  0
 18 22  1  0
 19 20  1  0
 20 21  2  0
 21 22  1  0
M  CHG  1   1  -1
M  END
$$$$
