
     RDKit          3D

 22 24  0  0  0  0  0  0  0  0999 V2000
  -17.5520   18.6609  136.3435 O   0  0  0  0  0  1  0  0  0  0  0  0
  -18.8059   18.6744  136.9051 C   0  0  0  0  0  0  0  0  0  0  0  0
  -19.0050   19.2748  137.9763 O   0  0  0  0  0  0  0  0  0  0  0  0
  -19.8938   17.9855  136.2423 C   0  0  0  0  0  0  0  0  0  0  0  0
  -21.0729   17.9628  136.7649 N   0  0  0  0  0  0  0  0  0  0  0  0
  -19.5926   17.3120  134.9447 C   0  0  0  0  0  0  0  0  0  0  0  0
  -18.5941   16.3446  135.0916 O   0  0  0  0  0  0  0  0  0  0  0  0
  -20.7682   16.6412  134.3547 C   0  0  0  0  0  0  0  0  0  0  0  0
  -20.6062   16.0519  133.2674 O   0  0  0  0  0  0  0  0  0  0  0  0
  -22.0470   16.6967  135.0587 C   0  0  0  0  0  0  0  0  0  0  0  0
  -22.2062   17.3217  136.2057 C   0  0  0  0  0  0  0  0  0  0  0  0
  -23.5004   17.3492  136.8691 C   0  0  0  0  0  0  0  0  0  0  0  0
  -23.7858   18.0000  138.0378 C   0  0  0  0  0  0  0  0  0  0  0  0
  -24.5655   16.6551  136.2784 C   0  0  0  0  0  0  0  0  0  0  0  0
  -25.8287   16.6178  136.8240 C   0  0  0  0  0  0  0  0  0  0  0  0
  -26.0835   17.2753  137.9887 C   0  0  0  0  0  0  0  0  0  0  0  0
  -25.0617   17.9674  138.5971 C   0  0  0  0  0  0  0  0  0  0  0  0
  -25.3045   18.6786  139.8413 C   0  0  0  0  0  0  0  0  0  0  0  0
  -25.0195   19.9588  140.1367 N   0  0  0  0  0  0  0  0  0  0  0  0
  -25.4087   20.1763  141.3651 N   0  0  0  0  0  0  0  0  0  0  0  0
  -25.9446   19.0826  141.9000 N   0  0  0  0  0  0  0  0  0  0  0  0
  -25.8725   18.1703  140.9487 N   0  0  0  0  0  0  0  0  0  0  0  0
  1  2  1  0
  2  3  2  0
  2  4  1  0
  4  5  2  0
  4  6  1  0
  5 11  1  0
  6  7  1  0
  6  8  1  0
  8  9  2  0
  8 10  1  0
 10 11  2  0
 11 12  1  0
 12 13  2  0
 12 14  1  0
 13 17  1  0
 14 15  2  0
 15 16  1  0
 16 17  2  0
 17 18  1  0
 18 19  2  0
 18 22  1  0
 19 20  1  0
 20 21  2  0
 21 22  1  0
M  CHG  1   1  -1
M  END
$$$$
