
     RDKit          3D

 22 24  0  0  0  0  0  0  0  0999 V2000
  -17.2373   16.2614  136.1491 O   0  0  0  0  0  1  0  0  0  0  0  0
  -18.3833   16.5074  136.8660 C   0  0  0  0  0  0  0  0  0  0  0  0
  -18.3523   16.5212  138.1095 O   0  0  0  0  0  0  0  0  0  0  0  0
  -19.6270   16.7503  136.1650 C   0  0  0  0  0  0  0  0  0  0  0  0
  -20.7287   16.9098  136.8168 N   0  0  0  0  0  0  0  0  0  0  0  0
  -19.5769   16.8069  134.6742 C   0  0  0  0  0  0  0  0  0  0  0  0
  -19.0900   15.6127  134.1343 O   0  0  0  0  0  0  0  0  0  0  0  0
  -20.8958   17.0589  134.0603 C   0  0  0  0  0  0  0  0  0  0  0  0
  -20.9462   17.1219  132.8156 O   0  0  0  0  0  0  0  0  0  0  0  0
  -22.0633   17.2204  134.9233 C   0  0  0  0  0  0  0  0  0  0  0  0
  -21.9983   17.1519  136.2359 C   0  0  0  0  0  0  0  0  0  0  0  0
  -23.1896   17.3194  137.0534 C   0  0  0  0  0  0  0  0  0  0  0  0
  -23.2075   17.5715  138.3977 C   0  0  0  0  0  0  0  0  0  0  0  0
  -24.4423   17.2181  136.4323 C   0  0  0  0  0  0  0  0  0  0  0  0
  -25.6295   17.3603  137.1144 C   0  0  0  0  0  0  0  0  0  0  0  0
  -25.6164   17.6109  138.4526 C   0  0  0  0  0  0  0  0  0  0  0  0
  -24.4046   17.7168  139.0959 C   0  0  0  0  0  0  0  0  0  0  0  0
  -24.3600   17.9839  140.5240 C   0  0  0  0  0  0  0  0  0  0  0  0
  -23.4712   18.7294  141.2032 N   0  0  0  0  0  0  0  0  0  0  0  0
  -23.8102   18.6956  142.4649 N   0  0  0  0  0  0  0  0  0  0  0  0
  -24.8970   17.9514  142.6505 N   0  0  0  0  0  0  0  0  0  0  0  0
  -25.2224   17.5210  141.4458 N   0  0  0  0  0  0  0  0  0  0  0  0
  1  2  1  0
  2  3  2  0
  2  4  1  0
  4  5  2  0
  4  6  1  0
  5 11  1  0
  6  7  1  0
  6  8  1  0
  8  9  2  0
  8 10  1  0
 10 11  2  0
 11 12  1  0
 12 13  2  0
 12 14  1  0
 13 17  1  0
 14 15  2  0
 15 16  1  0
 16 17  2  0
 17 18  1  0
 18 19  2  0
 18 22  1  0
 19 20  1  0
 20 21  2  0
 21 22  1  0
M  CHG  1   1  -1
M  END
$$$$
