
     RDKit          3D

 22 24  0  0  0  0  0  0  0  0999 V2000
  -17.0150   17.0310  137.4077 O   0  0  0  0  0  1  0  0  0  0  0  0
  -17.8012   16.8740  136.2855 C   0  0  0  0  0  0  0  0  0  0  0  0
  -17.3877   17.1310  135.1312 O   0  0  0  0  0  0  0  0  0  0  0  0
  -19.1861   16.3783  136.5024 C   0  0  0  0  0  0  0  0  0  0  0  0
  -19.5814   16.1131  137.6842 N   0  0  0  0  0  0  0  0  0  0  0  0
  -20.0826   16.2005  135.3478 C   0  0  0  0  0  0  0  0  0  0  0  0
  -19.4925   15.4358  134.3388 O   0  0  0  0  0  0  0  0  0  0  0  0
  -21.4087   15.7073  135.7232 C   0  0  0  0  0  0  0  0  0  0  0  0
  -22.3340   15.4839  134.8911 O   0  0  0  0  0  0  0  0  0  0  0  0
  -21.7290   15.4442  137.1169 C   0  0  0  0  0  0  0  0  0  0  0  0
  -20.8404   15.6409  138.0767 C   0  0  0  0  0  0  0  0  0  0  0  0
  -21.1609   15.3760  139.4873 C   0  0  0  0  0  0  0  0  0  0  0  0
  -20.8342   16.2009  140.5253 C   0  0  0  0  0  0  0  0  0  0  0  0
  -21.8393   14.2120  139.7832 C   0  0  0  0  0  0  0  0  0  0  0  0
  -22.1775   13.8916  141.0903 C   0  0  0  0  0  0  0  0  0  0  0  0
  -21.8444   14.7295  142.1337 C   0  0  0  0  0  0  0  0  0  0  0  0
  -21.1674   15.8930  141.8474 C   0  0  0  0  0  0  0  0  0  0  0  0
  -20.8046   16.7952  142.9380 C   0  0  0  0  0  0  0  0  0  0  0  0
  -20.7872   16.4359  144.2483 N   0  0  0  0  0  0  0  0  0  0  0  0
  -20.4211   17.4674  144.9702 N   0  0  0  0  0  0  0  0  0  0  0  0
  -20.2056   18.4749  144.1438 N   0  0  0  0  0  0  0  0  0  0  0  0
  -20.4391   18.0638  142.9123 N   0  0  0  0  0  0  0  0  0  0  0  0
  1  2  1  0
  2  3  2  0
  2  4  1  0
  4  5  2  0
  4  6  1  0
  5 11  1  0
  6  7  1  0
  6  8  1  0
  8  9  2  0
  8 10  1  0
 10 11  2  0
 11 12  1  0
 12 13  2  0
 12 14  1  0
 13 17  1  0
 14 15  2  0
 15 16  1  0
 16 17  2  0
 17 18  1  0
 18 19  2  0
 18 22  1  0
 19 20  1  0
 20 21  2  0
 21 22  1  0
M  CHG  1   1  -1
M  END
$$$$
