
     RDKit          3D

 22 24  0  0  0  0  0  0  0  0999 V2000
  -22.6222   18.7090  136.2678 O   0  0  0  0  0  1  0  0  0  0  0  0
  -21.7447   18.0652  135.4207 C   0  0  0  0  0  0  0  0  0  0  0  0
  -21.6277   18.3712  134.2116 O   0  0  0  0  0  0  0  0  0  0  0  0
  -20.9266   16.9720  136.0092 C   0  0  0  0  0  0  0  0  0  0  0  0
  -20.9987   16.7354  137.2591 N   0  0  0  0  0  0  0  0  0  0  0  0
  -20.0435   16.1772  135.1393 C   0  0  0  0  0  0  0  0  0  0  0  0
  -19.2094   16.9838  134.3617 O   0  0  0  0  0  0  0  0  0  0  0  0
  -19.3059   15.1418  135.8648 C   0  0  0  0  0  0  0  0  0  0  0  0
  -18.4925   14.3456  135.3143 O   0  0  0  0  0  0  0  0  0  0  0  0
  -19.4834   14.9794  137.2989 C   0  0  0  0  0  0  0  0  0  0  0  0
  -20.3083   15.7548  137.9828 C   0  0  0  0  0  0  0  0  0  0  0  0
  -20.4903   15.5934  139.4332 C   0  0  0  0  0  0  0  0  0  0  0  0
  -21.3723   16.3112  140.1891 C   0  0  0  0  0  0  0  0  0  0  0  0
  -19.7155   14.6504  140.0758 C   0  0  0  0  0  0  0  0  0  0  0  0
  -19.8292   14.4394  141.4426 C   0  0  0  0  0  0  0  0  0  0  0  0
  -20.7222   15.1681  142.1997 C   0  0  0  0  0  0  0  0  0  0  0  0
  -21.4992   16.1111  141.5666 C   0  0  0  0  0  0  0  0  0  0  0  0
  -22.4519   16.8945  142.3499 C   0  0  0  0  0  0  0  0  0  0  0  0
  -22.2788   17.2145  143.6591 N   0  0  0  0  0  0  0  0  0  0  0  0
  -23.3059   17.9200  144.0668 N   0  0  0  0  0  0  0  0  0  0  0  0
  -24.1282   18.0543  143.0420 N   0  0  0  0  0  0  0  0  0  0  0  0
  -23.6073   17.4314  142.0026 N   0  0  0  0  0  0  0  0  0  0  0  0
  1  2  1  0
  2  3  2  0
  2  4  1  0
  4  5  2  0
  4  6  1  0
  5 11  1  0
  6  7  1  0
  6  8  1  0
  8  9  2  0
  8 10  1  0
 10 11  2  0
 11 12  1  0
 12 13  2  0
 12 14  1  0
 13 17  1  0
 14 15  2  0
 15 16  1  0
 16 17  2  0
 17 18  1  0
 18 19  2  0
 18 22  1  0
 19 20  1  0
 20 21  2  0
 21 22  1  0
M  CHG  1   1  -1
M  END
$$$$
