
     RDKit          3D

 22 24  0  0  0  0  0  0  0  0999 V2000
  -22.2702   19.4140  136.3415 O   0  0  0  0  0  1  0  0  0  0  0  0
  -21.5648   18.5611  135.5187 C   0  0  0  0  0  0  0  0  0  0  0  0
  -21.4062   18.7818  134.2958 O   0  0  0  0  0  0  0  0  0  0  0  0
  -20.9883   17.3453  136.1512 C   0  0  0  0  0  0  0  0  0  0  0  0
  -21.1208   17.1659  137.4057 N   0  0  0  0  0  0  0  0  0  0  0  0
  -20.2717   16.3644  135.3190 C   0  0  0  0  0  0  0  0  0  0  0  0
  -19.2843   16.9647  134.5342 O   0  0  0  0  0  0  0  0  0  0  0  0
  -19.7641   15.2253  136.0855 C   0  0  0  0  0  0  0  0  0  0  0  0
  -19.1197   14.2667  135.5713 O   0  0  0  0  0  0  0  0  0  0  0  0
  -19.9871   15.1452  137.5201 C   0  0  0  0  0  0  0  0  0  0  0  0
  -20.6485   16.0898  138.1680 C   0  0  0  0  0  0  0  0  0  0  0  0
  -20.8760   16.0121  139.6189 C   0  0  0  0  0  0  0  0  0  0  0  0
  -21.7765   16.7756  140.3050 C   0  0  0  0  0  0  0  0  0  0  0  0
  -20.1270   15.1039  140.3377 C   0  0  0  0  0  0  0  0  0  0  0  0
  -20.2838   14.9716  141.7101 C   0  0  0  0  0  0  0  0  0  0  0  0
  -21.1953   15.7461  142.3965 C   0  0  0  0  0  0  0  0  0  0  0  0
  -21.9468   16.6548  141.6871 C   0  0  0  0  0  0  0  0  0  0  0  0
  -22.9185   17.4856  142.3947 C   0  0  0  0  0  0  0  0  0  0  0  0
  -23.5124   17.1320  143.5646 N   0  0  0  0  0  0  0  0  0  0  0  0
  -24.3281   18.0887  143.9368 N   0  0  0  0  0  0  0  0  0  0  0  0
  -24.2638   19.0430  143.0260 N   0  0  0  0  0  0  0  0  0  0  0  0
  -23.4081   18.6741  142.0924 N   0  0  0  0  0  0  0  0  0  0  0  0
  1  2  1  0
  2  3  2  0
  2  4  1  0
  4  5  2  0
  4  6  1  0
  5 11  1  0
  6  7  1  0
  6  8  1  0
  8  9  2  0
  8 10  1  0
 10 11  2  0
 11 12  1  0
 12 13  2  0
 12 14  1  0
 13 17  1  0
 14 15  2  0
 15 16  1  0
 16 17  2  0
 17 18  1  0
 18 19  2  0
 18 22  1  0
 19 20  1  0
 20 21  2  0
 21 22  1  0
M  CHG  1   1  -1
M  END
$$$$
