
     RDKit          3D

 22 24  0  0  0  0  0  0  0  0999 V2000
  -18.2817   16.7349  138.2274 O   0  0  0  0  0  1  0  0  0  0  0  0
  -18.2780   16.7587  136.8536 C   0  0  0  0  0  0  0  0  0  0  0  0
  -17.2114   16.6202  136.2285 O   0  0  0  0  0  0  0  0  0  0  0  0
  -19.5232   16.9460  136.1382 C   0  0  0  0  0  0  0  0  0  0  0  0
  -20.6345   17.0847  136.7783 N   0  0  0  0  0  0  0  0  0  0  0  0
  -19.4629   16.9710  134.6470 C   0  0  0  0  0  0  0  0  0  0  0  0
  -18.9340   15.7813  134.1377 O   0  0  0  0  0  0  0  0  0  0  0  0
  -20.7843   17.1669  134.0180 C   0  0  0  0  0  0  0  0  0  0  0  0
  -20.8266   17.2006  132.7719 O   0  0  0  0  0  0  0  0  0  0  0  0
  -21.9632   17.3101  134.8686 C   0  0  0  0  0  0  0  0  0  0  0  0
  -21.9065   17.2730  136.1828 C   0  0  0  0  0  0  0  0  0  0  0  0
  -23.1091   17.4205  136.9877 C   0  0  0  0  0  0  0  0  0  0  0  0
  -23.1455   17.6872  138.3288 C   0  0  0  0  0  0  0  0  0  0  0  0
  -24.3531   17.2815  136.3566 C   0  0  0  0  0  0  0  0  0  0  0  0
  -25.5497   17.4022  137.0263 C   0  0  0  0  0  0  0  0  0  0  0  0
  -25.5550   17.6682  138.3616 C   0  0  0  0  0  0  0  0  0  0  0  0
  -24.3522   17.8110  139.0145 C   0  0  0  0  0  0  0  0  0  0  0  0
  -24.3274   18.0951  140.4397 C   0  0  0  0  0  0  0  0  0  0  0  0
  -24.5067   17.2400  141.4615 N   0  0  0  0  0  0  0  0  0  0  0  0
  -24.4013   17.9230  142.5707 N   0  0  0  0  0  0  0  0  0  0  0  0
  -24.1574   19.2069  142.3230 N   0  0  0  0  0  0  0  0  0  0  0  0
  -24.1150   19.2956  141.0066 N   0  0  0  0  0  0  0  0  0  0  0  0
  1  2  1  0
  2  3  2  0
  2  4  1  0
  4  5  2  0
  4  6  1  0
  5 11  1  0
  6  7  1  0
  6  8  1  0
  8  9  2  0
  8 10  1  0
 10 11  2  0
 11 12  1  0
 12 13  2  0
 12 14  1  0
 13 17  1  0
 14 15  2  0
 15 16  1  0
 16 17  2  0
 17 18  1  0
 18 19  2  0
 18 22  1  0
 19 20  1  0
 20 21  2  0
 21 22  1  0
M  CHG  1   1  -1
M  END
$$$$
