
     RDKit          3D

 22 24  0  0  0  0  0  0  0  0999 V2000
  -21.1841   19.8470  137.0433 O   0  0  0  0  0  1  0  0  0  0  0  0
  -20.9457   19.0328  135.9559 C   0  0  0  0  0  0  0  0  0  0  0  0
  -20.8473   19.4780  134.7890 O   0  0  0  0  0  0  0  0  0  0  0  0
  -20.8073   17.5774  136.2268 C   0  0  0  0  0  0  0  0  0  0  0  0
  -20.8577   17.1536  137.4273 N   0  0  0  0  0  0  0  0  0  0  0  0
  -20.6139   16.6452  135.1035 C   0  0  0  0  0  0  0  0  0  0  0  0
  -19.5664   17.0407  134.2684 O   0  0  0  0  0  0  0  0  0  0  0  0
  -20.4948   15.2503  135.5312 C   0  0  0  0  0  0  0  0  0  0  0  0
  -20.3239   14.2853  134.7324 O   0  0  0  0  0  0  0  0  0  0  0  0
  -20.5706   14.9035  136.9413 C   0  0  0  0  0  0  0  0  0  0  0  0
  -20.7476   15.8290  137.8695 C   0  0  0  0  0  0  0  0  0  0  0  0
  -20.8248   15.4819  139.2965 C   0  0  0  0  0  0  0  0  0  0  0  0
  -21.0453   16.3788  140.3023 C   0  0  0  0  0  0  0  0  0  0  0  0
  -20.6631   14.1569  139.6439 C   0  0  0  0  0  0  0  0  0  0  0  0
  -20.7225   13.7506  140.9694 C   0  0  0  0  0  0  0  0  0  0  0  0
  -20.9456   14.6620  141.9800 C   0  0  0  0  0  0  0  0  0  0  0  0
  -21.1080   15.9862  141.6423 C   0  0  0  0  0  0  0  0  0  0  0  0
  -21.3454   16.9687  142.6975 C   0  0  0  0  0  0  0  0  0  0  0  0
  -20.7435   18.1857  142.7527 N   0  0  0  0  0  0  0  0  0  0  0  0
  -21.1675   18.8250  143.8160 N   0  0  0  0  0  0  0  0  0  0  0  0
  -22.0270   18.0377  144.4372 N   0  0  0  0  0  0  0  0  0  0  0  0
  -22.1325   16.9129  143.7563 N   0  0  0  0  0  0  0  0  0  0  0  0
  1  2  1  0
  2  3  2  0
  2  4  1  0
  4  5  2  0
  4  6  1  0
  5 11  1  0
  6  7  1  0
  6  8  1  0
  8  9  2  0
  8 10  1  0
 10 11  2  0
 11 12  1  0
 12 13  2  0
 12 14  1  0
 13 17  1  0
 14 15  2  0
 15 16  1  0
 16 17  2  0
 17 18  1  0
 18 19  2  0
 18 22  1  0
 19 20  1  0
 20 21  2  0
 21 22  1  0
M  CHG  1   1  -1
M  END
$$$$
