
     RDKit          3D

 22 24  0  0  0  0  0  0  0  0999 V2000
  -18.7590   17.9601  138.2771 O   0  0  0  0  0  1  0  0  0  0  0  0
  -18.5298   17.4345  137.0228 C   0  0  0  0  0  0  0  0  0  0  0  0
  -17.3765   17.2475  136.5706 O   0  0  0  0  0  0  0  0  0  0  0  0
  -19.7276   17.0913  136.2116 C   0  0  0  0  0  0  0  0  0  0  0  0
  -20.8897   17.2361  136.7136 N   0  0  0  0  0  0  0  0  0  0  0  0
  -19.5546   16.5885  134.8385 C   0  0  0  0  0  0  0  0  0  0  0  0
  -18.6605   15.5170  134.7812 O   0  0  0  0  0  0  0  0  0  0  0  0
  -20.8245   16.2963  134.1715 C   0  0  0  0  0  0  0  0  0  0  0  0
  -20.9093   15.8552  132.9897 O   0  0  0  0  0  0  0  0  0  0  0  0
  -22.0855   16.5081  134.8638 C   0  0  0  0  0  0  0  0  0  0  0  0
  -22.1217   16.9664  136.1040 C   0  0  0  0  0  0  0  0  0  0  0  0
  -23.3952   17.1819  136.8072 C   0  0  0  0  0  0  0  0  0  0  0  0
  -23.5095   17.4445  138.1423 C   0  0  0  0  0  0  0  0  0  0  0  0
  -24.5566   17.1139  136.0661 C   0  0  0  0  0  0  0  0  0  0  0  0
  -25.7971   17.3058  136.6576 C   0  0  0  0  0  0  0  0  0  0  0  0
  -25.9049   17.5707  138.0067 C   0  0  0  0  0  0  0  0  0  0  0  0
  -24.7512   17.6403  138.7536 C   0  0  0  0  0  0  0  0  0  0  0  0
  -24.8425   17.9199  140.1849 C   0  0  0  0  0  0  0  0  0  0  0  0
  -25.8164   17.4285  140.9951 N   0  0  0  0  0  0  0  0  0  0  0  0
  -25.6169   17.8625  142.2161 N   0  0  0  0  0  0  0  0  0  0  0  0
  -24.5351   18.6200  142.1972 N   0  0  0  0  0  0  0  0  0  0  0  0
  -24.0682   18.6527  140.9640 N   0  0  0  0  0  0  0  0  0  0  0  0
  1  2  1  0
  2  3  2  0
  2  4  1  0
  4  5  2  0
  4  6  1  0
  5 11  1  0
  6  7  1  0
  6  8  1  0
  8  9  2  0
  8 10  1  0
 10 11  2  0
 11 12  1  0
 12 13  2  0
 12 14  1  0
 13 17  1  0
 14 15  2  0
 15 16  1  0
 16 17  2  0
 17 18  1  0
 18 19  2  0
 18 22  1  0
 19 20  1  0
 20 21  2  0
 21 22  1  0
M  CHG  1   1  -1
M  END
$$$$
