
     RDKit          3D

 22 24  0  0  0  0  0  0  0  0999 V2000
  -21.0101   19.0261  134.3440 O   0  0  0  0  0  1  0  0  0  0  0  0
  -21.1707   18.8052  135.6906 C   0  0  0  0  0  0  0  0  0  0  0  0
  -21.6003   19.7118  136.4262 O   0  0  0  0  0  0  0  0  0  0  0  0
  -20.8368   17.5109  136.2478 C   0  0  0  0  0  0  0  0  0  0  0  0
  -20.9811   17.2811  137.5089 N   0  0  0  0  0  0  0  0  0  0  0  0
  -20.3251   16.4691  135.3093 C   0  0  0  0  0  0  0  0  0  0  0  0
  -19.1589   16.8918  134.6644 O   0  0  0  0  0  0  0  0  0  0  0  0
  -20.0158   15.1897  135.9783 C   0  0  0  0  0  0  0  0  0  0  0  0
  -19.5817   14.2613  135.2673 O   0  0  0  0  0  0  0  0  0  0  0  0
  -20.2283   15.0702  137.4186 C   0  0  0  0  0  0  0  0  0  0  0  0
  -20.6869   16.0568  138.1589 C   0  0  0  0  0  0  0  0  0  0  0  0
  -20.8819   15.8893  139.5905 C   0  0  0  0  0  0  0  0  0  0  0  0
  -21.6721   16.6722  140.3865 C   0  0  0  0  0  0  0  0  0  0  0  0
  -20.2117   14.8402  140.2350 C   0  0  0  0  0  0  0  0  0  0  0  0
  -20.3277   14.5951  141.5846 C   0  0  0  0  0  0  0  0  0  0  0  0
  -21.1218   15.3913  142.3521 C   0  0  0  0  0  0  0  0  0  0  0  0
  -21.7952   16.4313  141.7534 C   0  0  0  0  0  0  0  0  0  0  0  0
  -22.6501   17.2977  142.5479 C   0  0  0  0  0  0  0  0  0  0  0  0
  -22.5605   17.5785  143.8596 N   0  0  0  0  0  0  0  0  0  0  0  0
  -23.5322   18.4012  144.1542 N   0  0  0  0  0  0  0  0  0  0  0  0
  -24.2682   18.6791  143.0816 N   0  0  0  0  0  0  0  0  0  0  0  0
  -23.7116   17.9918  142.1018 N   0  0  0  0  0  0  0  0  0  0  0  0
  1  2  1  0
  2  3  2  0
  2  4  1  0
  4  5  2  0
  4  6  1  0
  5 11  1  0
  6  7  1  0
  6  8  1  0
  8  9  2  0
  8 10  1  0
 10 11  2  0
 11 12  1  0
 12 13  2  0
 12 14  1  0
 13 17  1  0
 14 15  2  0
 15 16  1  0
 16 17  2  0
 17 18  1  0
 18 19  2  0
 18 22  1  0
 19 20  1  0
 20 21  2  0
 21 22  1  0
M  CHG  1   1  -1
M  END
$$$$
