
     RDKit          3D

 22 24  0  0  0  0  0  0  0  0999 V2000
  -19.7925   20.2022  136.3801 O   0  0  0  0  0  1  0  0  0  0  0  0
  -19.1936   19.0516  135.9114 C   0  0  0  0  0  0  0  0  0  0  0  0
  -17.9974   19.0169  135.5410 O   0  0  0  0  0  0  0  0  0  0  0  0
  -20.0390   17.8295  135.8616 C   0  0  0  0  0  0  0  0  0  0  0  0
  -21.2096   17.8536  136.3642 N   0  0  0  0  0  0  0  0  0  0  0  0
  -19.5118   16.6074  135.2317 C   0  0  0  0  0  0  0  0  0  0  0  0
  -18.2575   16.2566  135.7365 O   0  0  0  0  0  0  0  0  0  0  0  0
  -20.4605   15.4930  135.2614 C   0  0  0  0  0  0  0  0  0  0  0  0
  -20.2147   14.3512  134.7773 O   0  0  0  0  0  0  0  0  0  0  0  0
  -21.7709   15.6576  135.8699 C   0  0  0  0  0  0  0  0  0  0  0  0
  -22.1402   16.8076  136.4090 C   0  0  0  0  0  0  0  0  0  0  0  0
  -23.4646   16.9777  137.0252 C   0  0  0  0  0  0  0  0  0  0  0  0
  -23.7217   17.7738  138.1045 C   0  0  0  0  0  0  0  0  0  0  0  0
  -24.5221   16.2842  136.4744 C   0  0  0  0  0  0  0  0  0  0  0  0
  -25.8020   16.3925  136.9995 C   0  0  0  0  0  0  0  0  0  0  0  0
  -26.0543   17.1985  138.0897 C   0  0  0  0  0  0  0  0  0  0  0  0
  -25.0049   17.8940  138.6455 C   0  0  0  0  0  0  0  0  0  0  0  0
  -25.2500   18.7538  139.8012 C   0  0  0  0  0  0  0  0  0  0  0  0
  -26.2669   18.5701  140.6836 N   0  0  0  0  0  0  0  0  0  0  0  0
  -26.2118   19.5053  141.6010 N   0  0  0  0  0  0  0  0  0  0  0  0
  -25.1796   20.2793  141.3183 N   0  0  0  0  0  0  0  0  0  0  0  0
  -24.5987   19.8208  140.2264 N   0  0  0  0  0  0  0  0  0  0  0  0
  1  2  1  0
  2  3  2  0
  2  4  1  0
  4  5  2  0
  4  6  1  0
  5 11  1  0
  6  7  1  0
  6  8  1  0
  8  9  2  0
  8 10  1  0
 10 11  2  0
 11 12  1  0
 12 13  2  0
 12 14  1  0
 13 17  1  0
 14 15  2  0
 15 16  1  0
 16 17  2  0
 17 18  1  0
 18 19  2  0
 18 22  1  0
 19 20  1  0
 20 21  2  0
 21 22  1  0
M  CHG  1   1  -1
M  END
$$$$
