
     RDKit          3D

 22 24  0  0  0  0  0  0  0  0999 V2000
  -19.7464   19.6575  137.0539 O   0  0  0  0  0  1  0  0  0  0  0  0
  -19.8778   18.7831  135.9954 C   0  0  0  0  0  0  0  0  0  0  0  0
  -19.7114   19.1358  134.8049 O   0  0  0  0  0  0  0  0  0  0  0  0
  -20.2315   17.3778  136.3280 C   0  0  0  0  0  0  0  0  0  0  0  0
  -20.3411   17.0288  137.5484 N   0  0  0  0  0  0  0  0  0  0  0  0
  -20.4506   16.4079  135.2418 C   0  0  0  0  0  0  0  0  0  0  0  0
  -19.3920   16.3933  134.3306 O   0  0  0  0  0  0  0  0  0  0  0  0
  -20.7905   15.0700  135.7289 C   0  0  0  0  0  0  0  0  0  0  0  0
  -21.0193   14.0856  134.9692 O   0  0  0  0  0  0  0  0  0  0  0  0
  -20.8827   14.8074  137.1561 C   0  0  0  0  0  0  0  0  0  0  0  0
  -20.6642   15.7602  138.0470 C   0  0  0  0  0  0  0  0  0  0  0  0
  -20.7565   15.4983  139.4912 C   0  0  0  0  0  0  0  0  0  0  0  0
  -21.3195   16.3483  140.3995 C   0  0  0  0  0  0  0  0  0  0  0  0
  -20.2378   14.3100  139.9619 C   0  0  0  0  0  0  0  0  0  0  0  0
  -20.2869   13.9907  141.3114 C   0  0  0  0  0  0  0  0  0  0  0  0
  -20.8571   14.8541  142.2231 C   0  0  0  0  0  0  0  0  0  0  0  0
  -21.3771   16.0419  141.7620 C   0  0  0  0  0  0  0  0  0  0  0  0
  -21.9859   16.9714  142.7109 C   0  0  0  0  0  0  0  0  0  0  0  0
  -21.7259   18.3047  142.7427 N   0  0  0  0  0  0  0  0  0  0  0  0
  -22.4272   18.8548  143.7042 N   0  0  0  0  0  0  0  0  0  0  0  0
  -23.1276   17.8968  144.2838 N   0  0  0  0  0  0  0  0  0  0  0  0
  -22.8577   16.7561  143.6791 N   0  0  0  0  0  0  0  0  0  0  0  0
  1  2  1  0
  2  3  2  0
  2  4  1  0
  4  5  2  0
  4  6  1  0
  5 11  1  0
  6  7  1  0
  6  8  1  0
  8  9  2  0
  8 10  1  0
 10 11  2  0
 11 12  1  0
 12 13  2  0
 12 14  1  0
 13 17  1  0
 14 15  2  0
 15 16  1  0
 16 17  2  0
 17 18  1  0
 18 19  2  0
 18 22  1  0
 19 20  1  0
 20 21  2  0
 21 22  1  0
M  CHG  1   1  -1
M  END
$$$$
