
     RDKit          3D

 22 24  0  0  0  0  0  0  0  0999 V2000
  -21.8194   18.4661  134.6071 O   0  0  0  0  0  1  0  0  0  0  0  0
  -21.9175   18.2545  135.9664 C   0  0  0  0  0  0  0  0  0  0  0  0
  -22.5296   19.0382  136.7283 O   0  0  0  0  0  0  0  0  0  0  0  0
  -21.2557   17.0363  136.5038 C   0  0  0  0  0  0  0  0  0  0  0  0
  -21.2677   16.8157  137.7585 N   0  0  0  0  0  0  0  0  0  0  0  0
  -20.5951   16.1010  135.5780 C   0  0  0  0  0  0  0  0  0  0  0  0
  -19.6992   16.7513  134.7263 O   0  0  0  0  0  0  0  0  0  0  0  0
  -19.9914   14.9535  136.2575 C   0  0  0  0  0  0  0  0  0  0  0  0
  -19.3740   14.0288  135.6557 O   0  0  0  0  0  0  0  0  0  0  0  0
  -20.0793   14.8241  137.7032 C   0  0  0  0  0  0  0  0  0  0  0  0
  -20.7011   15.7304  138.4391 C   0  0  0  0  0  0  0  0  0  0  0  0
  -20.7919   15.6028  139.9014 C   0  0  0  0  0  0  0  0  0  0  0  0
  -21.5512   16.4046  140.7045 C   0  0  0  0  0  0  0  0  0  0  0  0
  -20.0584   14.6025  140.5047 C   0  0  0  0  0  0  0  0  0  0  0  0
  -20.0916   14.4184  141.8797 C   0  0  0  0  0  0  0  0  0  0  0  0
  -20.8608   15.2322  142.6846 C   0  0  0  0  0  0  0  0  0  0  0  0
  -21.5959   16.2327  142.0909 C   0  0  0  0  0  0  0  0  0  0  0  0
  -22.4178   17.1065  142.9252 C   0  0  0  0  0  0  0  0  0  0  0  0
  -22.4997   18.4534  142.7657 N   0  0  0  0  0  0  0  0  0  0  0  0
  -23.3163   18.9424  143.6675 N   0  0  0  0  0  0  0  0  0  0  0  0
  -23.7546   17.9322  144.3967 N   0  0  0  0  0  0  0  0  0  0  0  0
  -23.2078   16.8204  143.9439 N   0  0  0  0  0  0  0  0  0  0  0  0
  1  2  1  0
  2  3  2  0
  2  4  1  0
  4  5  2  0
  4  6  1  0
  5 11  1  0
  6  7  1  0
  6  8  1  0
  8  9  2  0
  8 10  1  0
 10 11  2  0
 11 12  1  0
 12 13  2  0
 12 14  1  0
 13 17  1  0
 14 15  2  0
 15 16  1  0
 16 17  2  0
 17 18  1  0
 18 19  2  0
 18 22  1  0
 19 20  1  0
 20 21  2  0
 21 22  1  0
M  CHG  1   1  -1
M  END
$$$$
