
     RDKit          3D

 22 24  0  0  0  0  0  0  0  0999 V2000
  -21.0735   19.7387  134.1396 O   0  0  0  0  0  1  0  0  0  0  0  0
  -20.3994   18.5416  134.1209 C   0  0  0  0  0  0  0  0  0  0  0  0
  -19.5248   18.3297  133.2619 O   0  0  0  0  0  0  0  0  0  0  0  0
  -20.7134   17.5286  135.1070 C   0  0  0  0  0  0  0  0  0  0  0  0
  -21.6598   17.7157  135.9632 N   0  0  0  0  0  0  0  0  0  0  0  0
  -19.9031   16.2751  135.0878 C   0  0  0  0  0  0  0  0  0  0  0  0
  -18.5435   16.5436  135.2721 O   0  0  0  0  0  0  0  0  0  0  0  0
  -20.3041   15.3112  136.1318 C   0  0  0  0  0  0  0  0  0  0  0  0
  -19.6782   14.2338  136.1882 O   0  0  0  0  0  0  0  0  0  0  0  0
  -21.3975   15.6563  137.0369 C   0  0  0  0  0  0  0  0  0  0  0  0
  -22.0510   16.7964  136.9681 C   0  0  0  0  0  0  0  0  0  0  0  0
  -23.1337   17.0948  137.8926 C   0  0  0  0  0  0  0  0  0  0  0  0
  -22.9881   17.4605  139.2025 C   0  0  0  0  0  0  0  0  0  0  0  0
  -24.4519   17.0070  137.4238 C   0  0  0  0  0  0  0  0  0  0  0  0
  -25.5469   17.2685  138.2160 C   0  0  0  0  0  0  0  0  0  0  0  0
  -25.3713   17.6305  139.5166 C   0  0  0  0  0  0  0  0  0  0  0  0
  -24.0910   17.7270  140.0115 C   0  0  0  0  0  0  0  0  0  0  0  0
  -23.8733   18.1114  141.3962 C   0  0  0  0  0  0  0  0  0  0  0  0
  -24.5093   19.0596  142.1059 N   0  0  0  0  0  0  0  0  0  0  0  0
  -23.9944   19.0654  143.3070 N   0  0  0  0  0  0  0  0  0  0  0  0
  -23.0348   18.1516  143.4227 N   0  0  0  0  0  0  0  0  0  0  0  0
  -22.9732   17.5735  142.2377 N   0  0  0  0  0  0  0  0  0  0  0  0
  1  2  1  0
  2  3  2  0
  2  4  1  0
  4  5  2  0
  4  6  1  0
  5 11  1  0
  6  7  1  0
  6  8  1  0
  8  9  2  0
  8 10  1  0
 10 11  2  0
 11 12  1  0
 12 13  2  0
 12 14  1  0
 13 17  1  0
 14 15  2  0
 15 16  1  0
 16 17  2  0
 17 18  1  0
 18 19  2  0
 18 22  1  0
 19 20  1  0
 20 21  2  0
 21 22  1  0
M  CHG  1   1  -1
M  END
$$$$
