
     RDKit          3D

 22 24  0  0  0  0  0  0  0  0999 V2000
  -22.2262   18.9742  136.1795 O   0  0  0  0  0  1  0  0  0  0  0  0
  -21.4703   18.0987  135.4380 C   0  0  0  0  0  0  0  0  0  0  0  0
  -21.2992   18.2952  134.2216 O   0  0  0  0  0  0  0  0  0  0  0  0
  -20.8742   16.9463  136.0813 C   0  0  0  0  0  0  0  0  0  0  0  0
  -21.0123   16.7569  137.3497 N   0  0  0  0  0  0  0  0  0  0  0  0
  -20.1033   16.0005  135.2215 C   0  0  0  0  0  0  0  0  0  0  0  0
  -19.0387   16.6434  134.5830 O   0  0  0  0  0  0  0  0  0  0  0  0
  -19.5390   14.8629  135.9748 C   0  0  0  0  0  0  0  0  0  0  0  0
  -18.8784   14.0217  135.3331 O   0  0  0  0  0  0  0  0  0  0  0  0
  -19.7755   14.7747  137.4136 C   0  0  0  0  0  0  0  0  0  0  0  0
  -20.4743   15.6684  138.0804 C   0  0  0  0  0  0  0  0  0  0  0  0
  -20.6826   15.5372  139.5139 C   0  0  0  0  0  0  0  0  0  0  0  0
  -21.4032   16.3950  140.2987 C   0  0  0  0  0  0  0  0  0  0  0  0
  -20.1041   14.4434  140.1728 C   0  0  0  0  0  0  0  0  0  0  0  0
  -20.2402   14.2270  141.5254 C   0  0  0  0  0  0  0  0  0  0  0  0
  -20.9635   15.0980  142.2816 C   0  0  0  0  0  0  0  0  0  0  0  0
  -21.5461   16.1835  141.6686 C   0  0  0  0  0  0  0  0  0  0  0  0
  -22.3239   17.1300  142.4508 C   0  0  0  0  0  0  0  0  0  0  0  0
  -22.1816   18.4649  142.5225 N   0  0  0  0  0  0  0  0  0  0  0  0
  -23.0923   18.9152  143.3445 N   0  0  0  0  0  0  0  0  0  0  0  0
  -23.8385   17.9241  143.8244 N   0  0  0  0  0  0  0  0  0  0  0  0
  -23.3522   16.8323  143.2641 N   0  0  0  0  0  0  0  0  0  0  0  0
  1  2  1  0
  2  3  2  0
  2  4  1  0
  4  5  2  0
  4  6  1  0
  5 11  1  0
  6  7  1  0
  6  8  1  0
  8  9  2  0
  8 10  1  0
 10 11  2  0
 11 12  1  0
 12 13  2  0
 12 14  1  0
 13 17  1  0
 14 15  2  0
 15 16  1  0
 16 17  2  0
 17 18  1  0
 18 19  2  0
 18 22  1  0
 19 20  1  0
 20 21  2  0
 21 22  1  0
M  CHG  1   1  -1
M  END
$$$$
