
     RDKit          3D

 22 24  0  0  0  0  0  0  0  0999 V2000
  -19.0051   18.9255  138.4988 O   0  0  0  0  0  1  0  0  0  0  0  0
  -18.6093   18.0017  137.5543 C   0  0  0  0  0  0  0  0  0  0  0  0
  -17.4586   17.5067  137.5361 O   0  0  0  0  0  0  0  0  0  0  0  0
  -19.6208   17.6079  136.5382 C   0  0  0  0  0  0  0  0  0  0  0  0
  -20.8548   17.5870  136.8544 N   0  0  0  0  0  0  0  0  0  0  0  0
  -19.1824   17.2471  135.1796 C   0  0  0  0  0  0  0  0  0  0  0  0
  -18.1716   16.2832  135.1934 O   0  0  0  0  0  0  0  0  0  0  0  0
  -20.2925   16.8836  134.2974 C   0  0  0  0  0  0  0  0  0  0  0  0
  -20.1436   16.5406  133.0896 O   0  0  0  0  0  0  0  0  0  0  0  0
  -21.6606   16.9024  134.7896 C   0  0  0  0  0  0  0  0  0  0  0  0
  -21.9392   17.2449  136.0364 C   0  0  0  0  0  0  0  0  0  0  0  0
  -23.3217   17.2650  136.5376 C   0  0  0  0  0  0  0  0  0  0  0  0
  -23.7559   18.0248  137.5858 C   0  0  0  0  0  0  0  0  0  0  0  0
  -24.2452   16.4596  135.9044 C   0  0  0  0  0  0  0  0  0  0  0  0
  -25.5690   16.4234  136.3189 C   0  0  0  0  0  0  0  0  0  0  0  0
  -26.0005   17.1936  137.3784 C   0  0  0  0  0  0  0  0  0  0  0  0
  -25.0857   18.0001  138.0159 C   0  0  0  0  0  0  0  0  0  0  0  0
  -25.5216   18.8243  139.1409 C   0  0  0  0  0  0  0  0  0  0  0  0
  -26.1095   18.3310  140.2622 N   0  0  0  0  0  0  0  0  0  0  0  0
  -26.3787   19.3230  141.0762 N   0  0  0  0  0  0  0  0  0  0  0  0
  -25.9732   20.4368  140.4936 N   0  0  0  0  0  0  0  0  0  0  0  0
  -25.4540   20.1308  139.3203 N   0  0  0  0  0  0  0  0  0  0  0  0
  1  2  1  0
  2  3  2  0
  2  4  1  0
  4  5  2  0
  4  6  1  0
  5 11  1  0
  6  7  1  0
  6  8  1  0
  8  9  2  0
  8 10  1  0
 10 11  2  0
 11 12  1  0
 12 13  2  0
 12 14  1  0
 13 17  1  0
 14 15  2  0
 15 16  1  0
 16 17  2  0
 17 18  1  0
 18 19  2  0
 18 22  1  0
 19 20  1  0
 20 21  2  0
 21 22  1  0
M  CHG  1   1  -1
M  END
$$$$
