
     RDKit          3D

 22 24  0  0  0  0  0  0  0  0999 V2000
  -18.7046   17.5901  138.3693 O   0  0  0  0  0  1  0  0  0  0  0  0
  -18.4691   17.2207  137.0616 C   0  0  0  0  0  0  0  0  0  0  0  0
  -17.3145   17.0480  136.6072 O   0  0  0  0  0  0  0  0  0  0  0  0
  -19.6619   17.0313  136.1943 C   0  0  0  0  0  0  0  0  0  0  0  0
  -20.8270   17.2002  136.6815 N   0  0  0  0  0  0  0  0  0  0  0  0
  -19.4804   16.6510  134.7834 C   0  0  0  0  0  0  0  0  0  0  0  0
  -18.6509   15.5359  134.6435 O   0  0  0  0  0  0  0  0  0  0  0  0
  -20.7461   16.5030  134.0630 C   0  0  0  0  0  0  0  0  0  0  0  0
  -20.8236   16.1820  132.8425 O   0  0  0  0  0  0  0  0  0  0  0  0
  -22.0113   16.7267  134.7438 C   0  0  0  0  0  0  0  0  0  0  0  0
  -22.0551   17.0669  136.0212 C   0  0  0  0  0  0  0  0  0  0  0  0
  -23.3329   17.2940  136.7130 C   0  0  0  0  0  0  0  0  0  0  0  0
  -23.4563   17.5636  138.0459 C   0  0  0  0  0  0  0  0  0  0  0  0
  -24.4886   17.2301  135.9628 C   0  0  0  0  0  0  0  0  0  0  0  0
  -25.7326   17.4329  136.5433 C   0  0  0  0  0  0  0  0  0  0  0  0
  -25.8496   17.7048  137.8902 C   0  0  0  0  0  0  0  0  0  0  0  0
  -24.7016   17.7703  138.6462 C   0  0  0  0  0  0  0  0  0  0  0  0
  -24.8027   18.0571  140.0754 C   0  0  0  0  0  0  0  0  0  0  0  0
  -25.4723   19.1206  140.5920 N   0  0  0  0  0  0  0  0  0  0  0  0
  -25.3744   19.0942  141.8992 N   0  0  0  0  0  0  0  0  0  0  0  0
  -24.6556   18.0344  142.2229 N   0  0  0  0  0  0  0  0  0  0  0  0
  -24.3106   17.4078  141.1146 N   0  0  0  0  0  0  0  0  0  0  0  0
  1  2  1  0
  2  3  2  0
  2  4  1  0
  4  5  2  0
  4  6  1  0
  5 11  1  0
  6  7  1  0
  6  8  1  0
  8  9  2  0
  8 10  1  0
 10 11  2  0
 11 12  1  0
 12 13  2  0
 12 14  1  0
 13 17  1  0
 14 15  2  0
 15 16  1  0
 16 17  2  0
 17 18  1  0
 18 19  2  0
 18 22  1  0
 19 20  1  0
 20 21  2  0
 21 22  1  0
M  CHG  1   1  -1
M  END
$$$$
