
     RDKit          3D

 22 24  0  0  0  0  0  0  0  0999 V2000
  -18.6186   17.3694  138.5787 O   0  0  0  0  0  1  0  0  0  0  0  0
  -18.4153   17.0841  137.2501 C   0  0  0  0  0  0  0  0  0  0  0  0
  -17.2636   16.8917  136.8208 O   0  0  0  0  0  0  0  0  0  0  0  0
  -19.5497   17.0088  136.3531 C   0  0  0  0  0  0  0  0  0  0  0  0
  -20.7511   17.1568  136.7988 N   0  0  0  0  0  0  0  0  0  0  0  0
  -19.2694   16.7554  134.9090 C   0  0  0  0  0  0  0  0  0  0  0  0
  -18.5883   15.5483  134.7256 O   0  0  0  0  0  0  0  0  0  0  0  0
  -20.4925   16.6975  134.0840 C   0  0  0  0  0  0  0  0  0  0  0  0
  -20.3506   16.4892  132.8624 O   0  0  0  0  0  0  0  0  0  0  0  0
  -21.7923   16.8834  134.7242 C   0  0  0  0  0  0  0  0  0  0  0  0
  -21.9300   17.1027  136.0144 C   0  0  0  0  0  0  0  0  0  0  0  0
  -23.2466   17.2818  136.6062 C   0  0  0  0  0  0  0  0  0  0  0  0
  -23.4982   17.6845  137.8889 C   0  0  0  0  0  0  0  0  0  0  0  0
  -24.3732   17.0255  135.8123 C   0  0  0  0  0  0  0  0  0  0  0  0
  -25.6621   17.1642  136.2752 C   0  0  0  0  0  0  0  0  0  0  0  0
  -25.8821   17.5668  137.5571 C   0  0  0  0  0  0  0  0  0  0  0  0
  -24.7997   17.8275  138.3657 C   0  0  0  0  0  0  0  0  0  0  0  0
  -25.0044   18.2588  139.7385 C   0  0  0  0  0  0  0  0  0  0  0  0
  -24.5119   19.3504  140.3495 N   0  0  0  0  0  0  0  0  0  0  0  0
  -24.9499   19.3449  141.5807 N   0  0  0  0  0  0  0  0  0  0  0  0
  -25.7192   18.2847  141.8121 N   0  0  0  0  0  0  0  0  0  0  0  0
  -25.7422   17.6269  140.6679 N   0  0  0  0  0  0  0  0  0  0  0  0
  1  2  1  0
  2  3  2  0
  2  4  1  0
  4  5  2  0
  4  6  1  0
  5 11  1  0
  6  7  1  0
  6  8  1  0
  8  9  2  0
  8 10  1  0
 10 11  2  0
 11 12  1  0
 12 13  2  0
 12 14  1  0
 13 17  1  0
 14 15  2  0
 15 16  1  0
 16 17  2  0
 17 18  1  0
 18 19  2  0
 18 22  1  0
 19 20  1  0
 20 21  2  0
 21 22  1  0
M  CHG  1   1  -1
M  END
$$$$
