
     RDKit          3D

 22 24  0  0  0  0  0  0  0  0999 V2000
  -21.8640   19.4165  136.7415 O   0  0  0  0  0  1  0  0  0  0  0  0
  -21.3342   18.5171  135.8401 C   0  0  0  0  0  0  0  0  0  0  0  0
  -21.2206   18.7738  134.6192 O   0  0  0  0  0  0  0  0  0  0  0  0
  -20.8944   17.2049  136.3836 C   0  0  0  0  0  0  0  0  0  0  0  0
  -20.9692   16.9861  137.6365 N   0  0  0  0  0  0  0  0  0  0  0  0
  -20.3782   16.1754  135.4660 C   0  0  0  0  0  0  0  0  0  0  0  0
  -19.3693   16.6706  134.6366 O   0  0  0  0  0  0  0  0  0  0  0  0
  -19.9871   14.9422  136.1509 C   0  0  0  0  0  0  0  0  0  0  0  0
  -19.5185   13.9295  135.5563 O   0  0  0  0  0  0  0  0  0  0  0  0
  -20.1256   14.8256  137.5936 C   0  0  0  0  0  0  0  0  0  0  0  0
  -20.6043   15.8204  138.3221 C   0  0  0  0  0  0  0  0  0  0  0  0
  -20.7458   15.7060  139.7814 C   0  0  0  0  0  0  0  0  0  0  0  0
  -21.4101   16.6020  140.5692 C   0  0  0  0  0  0  0  0  0  0  0  0
  -20.1666   14.6167  140.3985 C   0  0  0  0  0  0  0  0  0  0  0  0
  -20.2566   14.4387  141.7718 C   0  0  0  0  0  0  0  0  0  0  0  0
  -20.9291   15.3478  142.5611 C   0  0  0  0  0  0  0  0  0  0  0  0
  -21.5099   16.4375  141.9536 C   0  0  0  0  0  0  0  0  0  0  0  0
  -22.2274   17.4131  142.7712 C   0  0  0  0  0  0  0  0  0  0  0  0
  -21.9357   18.7398  142.8031 N   0  0  0  0  0  0  0  0  0  0  0  0
  -22.7577   19.3390  143.6303 N   0  0  0  0  0  0  0  0  0  0  0  0
  -23.5659   18.4187  144.1244 N   0  0  0  0  0  0  0  0  0  0  0  0
  -23.2416   17.2520  143.6014 N   0  0  0  0  0  0  0  0  0  0  0  0
  1  2  1  0
  2  3  2  0
  2  4  1  0
  4  5  2  0
  4  6  1  0
  5 11  1  0
  6  7  1  0
  6  8  1  0
  8  9  2  0
  8 10  1  0
 10 11  2  0
 11 12  1  0
 12 13  2  0
 12 14  1  0
 13 17  1  0
 14 15  2  0
 15 16  1  0
 16 17  2  0
 17 18  1  0
 18 19  2  0
 18 22  1  0
 19 20  1  0
 20 21  2  0
 21 22  1  0
M  CHG  1   1  -1
M  END
$$$$
