
     RDKit          3D

 22 24  0  0  0  0  0  0  0  0999 V2000
  -22.6824   19.1213  136.3693 O   0  0  0  0  0  1  0  0  0  0  0  0
  -21.8798   18.3642  135.5418 C   0  0  0  0  0  0  0  0  0  0  0  0
  -21.7584   18.6024  134.3179 O   0  0  0  0  0  0  0  0  0  0  0  0
  -21.1496   17.2318  136.1704 C   0  0  0  0  0  0  0  0  0  0  0  0
  -21.2549   17.0344  137.4247 N   0  0  0  0  0  0  0  0  0  0  0  0
  -20.3141   16.3535  135.3345 C   0  0  0  0  0  0  0  0  0  0  0  0
  -19.4144   17.0778  134.5491 O   0  0  0  0  0  0  0  0  0  0  0  0
  -19.6618   15.2880  136.0974 C   0  0  0  0  0  0  0  0  0  0  0  0
  -18.9001   14.4217  135.5798 O   0  0  0  0  0  0  0  0  0  0  0  0
  -19.8693   15.1769  137.5323 C   0  0  0  0  0  0  0  0  0  0  0  0
  -20.6458   16.0268  138.1837 C   0  0  0  0  0  0  0  0  0  0  0  0
  -20.8579   15.9175  139.6348 C   0  0  0  0  0  0  0  0  0  0  0  0
  -21.5633   16.8139  140.3855 C   0  0  0  0  0  0  0  0  0  0  0  0
  -20.3055   14.8330  140.2838 C   0  0  0  0  0  0  0  0  0  0  0  0
  -20.4617   14.6599  141.6517 C   0  0  0  0  0  0  0  0  0  0  0  0
  -21.1754   15.5693  142.4036 C   0  0  0  0  0  0  0  0  0  0  0  0
  -21.7300   16.6544  141.7641 C   0  0  0  0  0  0  0  0  0  0  0  0
  -22.4902   17.6303  142.5417 C   0  0  0  0  0  0  0  0  0  0  0  0
  -23.5193   17.3083  143.3687 N   0  0  0  0  0  0  0  0  0  0  0  0
  -23.9877   18.4039  143.9157 N   0  0  0  0  0  0  0  0  0  0  0  0
  -23.2761   19.4155  143.4523 N   0  0  0  0  0  0  0  0  0  0  0  0
  -22.3690   18.9429  142.6195 N   0  0  0  0  0  0  0  0  0  0  0  0
  1  2  1  0
  2  3  2  0
  2  4  1  0
  4  5  2  0
  4  6  1  0
  5 11  1  0
  6  7  1  0
  6  8  1  0
  8  9  2  0
  8 10  1  0
 10 11  2  0
 11 12  1  0
 12 13  2  0
 12 14  1  0
 13 17  1  0
 14 15  2  0
 15 16  1  0
 16 17  2  0
 17 18  1  0
 18 19  2  0
 18 22  1  0
 19 20  1  0
 20 21  2  0
 21 22  1  0
M  CHG  1   1  -1
M  END
$$$$
