
     RDKit          3D

 22 24  0  0  0  0  0  0  0  0999 V2000
  -18.9788   18.6384  138.2174 O   0  0  0  0  0  1  0  0  0  0  0  0
  -18.6095   18.0238  137.0392 C   0  0  0  0  0  0  0  0  0  0  0  0
  -17.4158   17.9388  136.6685 O   0  0  0  0  0  0  0  0  0  0  0  0
  -19.7040   17.4546  136.2094 C   0  0  0  0  0  0  0  0  0  0  0  0
  -20.9093   17.5405  136.6134 N   0  0  0  0  0  0  0  0  0  0  0  0
  -19.3801   16.7989  134.9313 C   0  0  0  0  0  0  0  0  0  0  0  0
  -18.3858   15.8287  135.0770 O   0  0  0  0  0  0  0  0  0  0  0  0
  -20.5619   16.2910  134.2327 C   0  0  0  0  0  0  0  0  0  0  0  0
  -20.5143   15.6940  133.1192 O   0  0  0  0  0  0  0  0  0  0  0  0
  -21.8863   16.4574  134.8095 C   0  0  0  0  0  0  0  0  0  0  0  0
  -22.0601   17.0663  135.9707 C   0  0  0  0  0  0  0  0  0  0  0  0
  -23.3981   17.2364  136.5571 C   0  0  0  0  0  0  0  0  0  0  0  0
  -23.6374   17.6193  137.8457 C   0  0  0  0  0  0  0  0  0  0  0  0
  -24.4884   16.9918  135.7485 C   0  0  0  0  0  0  0  0  0  0  0  0
  -25.7829   17.1303  136.2289 C   0  0  0  0  0  0  0  0  0  0  0  0
  -26.0171   17.5175  137.5315 C   0  0  0  0  0  0  0  0  0  0  0  0
  -24.9349   17.7636  138.3452 C   0  0  0  0  0  0  0  0  0  0  0  0
  -25.1604   18.1749  139.7291 C   0  0  0  0  0  0  0  0  0  0  0  0
  -24.4552   17.6988  140.7884 N   0  0  0  0  0  0  0  0  0  0  0  0
  -24.8982   18.2630  141.8859 N   0  0  0  0  0  0  0  0  0  0  0  0
  -25.8711   19.0882  141.5442 N   0  0  0  0  0  0  0  0  0  0  0  0
  -26.0275   19.0323  140.2356 N   0  0  0  0  0  0  0  0  0  0  0  0
  1  2  1  0
  2  3  2  0
  2  4  1  0
  4  5  2  0
  4  6  1  0
  5 11  1  0
  6  7  1  0
  6  8  1  0
  8  9  2  0
  8 10  1  0
 10 11  2  0
 11 12  1  0
 12 13  2  0
 12 14  1  0
 13 17  1  0
 14 15  2  0
 15 16  1  0
 16 17  2  0
 17 18  1  0
 18 19  2  0
 18 22  1  0
 19 20  1  0
 20 21  2  0
 21 22  1  0
M  CHG  1   1  -1
M  END
$$$$
