
     RDKit          3D

 22 24  0  0  0  0  0  0  0  0999 V2000
  -20.6912   19.0238  134.4575 O   0  0  0  0  0  1  0  0  0  0  0  0
  -20.8406   18.7873  135.8027 C   0  0  0  0  0  0  0  0  0  0  0  0
  -21.1141   19.7229  136.5756 O   0  0  0  0  0  0  0  0  0  0  0  0
  -20.6776   17.4426  136.3148 C   0  0  0  0  0  0  0  0  0  0  0  0
  -20.8067   17.1989  137.5749 N   0  0  0  0  0  0  0  0  0  0  0  0
  -20.3578   16.3659  135.3315 C   0  0  0  0  0  0  0  0  0  0  0  0
  -19.1674   16.6350  134.6494 O   0  0  0  0  0  0  0  0  0  0  0  0
  -20.2128   15.0362  135.9567 C   0  0  0  0  0  0  0  0  0  0  0  0
  -19.9449   14.0763  135.2066 O   0  0  0  0  0  0  0  0  0  0  0  0
  -20.3866   14.9062  137.4012 C   0  0  0  0  0  0  0  0  0  0  0  0
  -20.6692   15.9263  138.1830 C   0  0  0  0  0  0  0  0  0  0  0  0
  -20.8330   15.7467  139.6171 C   0  0  0  0  0  0  0  0  0  0  0  0
  -21.4989   16.5954  140.4580 C   0  0  0  0  0  0  0  0  0  0  0  0
  -20.2677   14.6112  140.2141 C   0  0  0  0  0  0  0  0  0  0  0  0
  -20.3648   14.3474  141.5616 C   0  0  0  0  0  0  0  0  0  0  0  0
  -21.0341   15.2106  142.3746 C   0  0  0  0  0  0  0  0  0  0  0  0
  -21.6021   16.3361  141.8232 C   0  0  0  0  0  0  0  0  0  0  0  0
  -22.3225   17.2752  142.6669 C   0  0  0  0  0  0  0  0  0  0  0  0
  -22.0783   17.5980  143.9489 N   0  0  0  0  0  0  0  0  0  0  0  0
  -22.9707   18.4817  144.3100 N   0  0  0  0  0  0  0  0  0  0  0  0
  -23.8033   18.7598  143.3106 N   0  0  0  0  0  0  0  0  0  0  0  0
  -23.3902   18.0087  142.3069 N   0  0  0  0  0  0  0  0  0  0  0  0
  1  2  1  0
  2  3  2  0
  2  4  1  0
  4  5  2  0
  4  6  1  0
  5 11  1  0
  6  7  1  0
  6  8  1  0
  8  9  2  0
  8 10  1  0
 10 11  2  0
 11 12  1  0
 12 13  2  0
 12 14  1  0
 13 17  1  0
 14 15  2  0
 15 16  1  0
 16 17  2  0
 17 18  1  0
 18 19  2  0
 18 22  1  0
 19 20  1  0
 20 21  2  0
 21 22  1  0
M  CHG  1   1  -1
M  END
$$$$
