
     RDKit          3D

 28 30  0  0  0  0  0  0  0  0999 V2000
   20.3851  -14.9195   -0.2469 B   0  0  0  0  0  0  0  0  0  0  0  0
   22.2908  -13.8419    0.8733 C   0  0  0  0  0  0  0  0  0  0  0  0
   23.0605  -12.7145    1.0993 C   0  0  0  0  0  0  0  0  0  0  0  0
   22.7037  -11.4861    0.4215 C   0  0  0  0  0  0  0  0  0  0  0  0
   24.1361  -12.7957    1.9570 C   0  0  0  0  0  0  0  0  0  0  0  0
   24.4690  -13.9700    2.5985 C   0  0  0  0  0  0  0  0  0  0  0  0
   23.6855  -15.0769    2.3552 C   0  0  0  0  0  0  0  0  0  0  0  0
   22.5834  -15.0351    1.4898 C   0  0  0  0  0  0  0  0  0  0  0  0
   21.8463  -16.2977    1.3328 C   0  0  0  0  0  0  0  0  0  0  0  0
   20.4176  -16.0482    0.8948 C   0  0  2  0  0  0  0  0  0  0  0  0
   20.4429  -18.5015    0.3173 C   0  0  0  0  0  0  0  0  0  0  0  0
   21.9148  -18.5790    0.4273 C   0  0  0  0  0  0  0  0  0  0  0  0
   22.5589  -18.1832   -0.8467 C   0  0  2  0  0  0  0  0  0  0  0  0
   23.0915  -19.2691   -1.7032 C   0  0  0  0  0  0  0  0  0  0  0  0
   24.2347  -19.9439   -0.9902 C   0  0  0  0  0  0  0  0  0  0  0  0
   25.3536  -19.0025   -0.6470 C   0  0  2  0  0  0  0  0  0  0  0  0
   27.0743  -19.9955   -2.0040 C   0  0  0  0  0  0  0  0  0  0  0  0
   28.2978  -19.6537   -2.8082 C   0  0  0  0  0  0  0  0  0  0  0  0
   24.9053  -17.6839   -0.1121 C   0  0  0  0  0  0  0  0  0  0  0  0
   23.6475  -17.1525   -0.6818 C   0  0  0  0  0  0  0  0  0  0  0  0
   19.7498  -17.2418    0.4811 N   0  0  0  0  0  0  0  0  0  0  0  0
   26.2316  -18.8321   -1.7915 N   0  0  0  0  0  4  0  0  0  0  0  0
   27.8360  -19.1152   -4.0838 N   0  0  0  0  0  4  0  0  0  0  0  0
   19.5336  -15.0573   -1.4268 O   0  0  0  0  0  3  0  0  0  0  0  0
   21.2202  -13.7293    0.0091 O   0  0  0  0  0  0  0  0  0  0  0  0
   21.6330  -10.7385    0.8850 O   0  0  0  0  0  1  0  0  0  0  0  0
   23.3327  -11.0798   -0.5694 O   0  0  0  0  0  0  0  0  0  0  0  0
   19.6808  -19.4731    0.0820 O   0  0  0  0  0  0  0  0  0  0  0  0
 10  1  1  0
  1 24  1  0
  1 25  1  0
  2  3  2  0
  8  2  1  0
 25  2  1  0
  3  4  1  0
  3  5  1  0
  4 26  1  0
  4 27  2  0
  6  5  2  0
  7  6  1  0
  8  7  2  0
  9  8  1  0
 10  9  1  0
 10 21  1  6
 12 11  1  0
 11 21  1  0
 11 28  2  0
 13 12  1  1
 14 13  1  0
 13 20  1  0
 15 14  1  0
 16 15  1  0
 16 19  1  0
 16 22  1  6
 17 18  1  0
 17 22  1  0
 18 23  1  0
 19 20  1  0
M  CHG  4  22   1  23   1  24   1  26  -1
M  END
$$$$
