
     RDKit          3D

 28 30  0  0  0  0  0  0  0  0999 V2000
   20.4469  -14.6415    0.1206 B   0  0  0  0  0  0  0  0  0  0  0  0
   22.4620  -13.5181    0.9720 C   0  0  0  0  0  0  0  0  0  0  0  0
   23.1986  -12.3600    1.1476 C   0  0  0  0  0  0  0  0  0  0  0  0
   22.6615  -11.1151    0.6404 C   0  0  0  0  0  0  0  0  0  0  0  0
   24.4129  -12.4274    1.7957 C   0  0  0  0  0  0  0  0  0  0  0  0
   24.9172  -13.6176    2.2757 C   0  0  0  0  0  0  0  0  0  0  0  0
   24.1629  -14.7551    2.0871 C   0  0  0  0  0  0  0  0  0  0  0  0
   22.9232  -14.7281    1.4330 C   0  0  0  0  0  0  0  0  0  0  0  0
   22.2383  -16.0233    1.3088 C   0  0  0  0  0  0  0  0  0  0  0  0
   20.7431  -15.8400    1.1475 C   0  0  2  0  0  0  0  0  0  0  0  0
   20.6602  -17.9946   -0.1578 C   0  0  0  0  0  0  0  0  0  0  0  0
   21.9689  -18.6214    0.1235 C   0  0  0  0  0  0  0  0  0  0  0  0
   22.9429  -18.3088   -0.9481 C   0  0  2  0  0  0  0  0  0  0  0  0
   23.1745  -19.3490   -1.9782 C   0  0  0  0  0  0  0  0  0  0  0  0
   23.8191  -20.5480   -1.3322 C   0  0  0  0  0  0  0  0  0  0  0  0
   25.1252  -20.2267   -0.6637 C   0  0  2  0  0  0  0  0  0  0  0  0
   27.4255  -19.6719   -1.0986 C   0  0  0  0  0  0  0  0  0  0  0  0
   28.6189  -20.5264   -1.4241 C   0  0  0  0  0  0  0  0  0  0  0  0
   25.1189  -18.9568    0.1194 C   0  0  0  0  0  0  0  0  0  0  0  0
   24.2891  -17.8640   -0.4338 C   0  0  0  0  0  0  0  0  0  0  0  0
   20.0766  -17.0446    0.7646 N   0  0  0  0  0  0  0  0  0  0  0  0
   26.2010  -20.2348   -1.6396 N   0  0  0  0  0  4  0  0  0  0  0  0
   29.6323  -19.6469   -1.9989 N   0  0  0  0  0  4  0  0  0  0  0  0
   19.4069  -14.7556   -0.8999 O   0  0  0  0  0  3  0  0  0  0  0  0
   21.2498  -13.4187    0.3192 O   0  0  0  0  0  0  0  0  0  0  0  0
   21.8764  -10.3255    1.4654 O   0  0  0  0  0  1  0  0  0  0  0  0
   22.8848  -10.7311   -0.5194 O   0  0  0  0  0  0  0  0  0  0  0  0
   19.9558  -18.2117   -1.1760 O   0  0  0  0  0  0  0  0  0  0  0  0
 10  1  1  0
  1 24  1  0
  1 25  1  0
  2  3  2  0
  8  2  1  0
 25  2  1  0
  3  4  1  0
  3  5  1  0
  4 26  1  0
  4 27  2  0
  6  5  2  0
  7  6  1  0
  8  7  2  0
  9  8  1  0
 10  9  1  0
 10 21  1  6
 12 11  1  0
 11 21  1  0
 11 28  2  0
 13 12  1  1
 14 13  1  0
 13 20  1  0
 15 14  1  0
 16 15  1  0
 16 19  1  0
 16 22  1  6
 17 18  1  0
 17 22  1  0
 18 23  1  0
 19 20  1  0
M  CHG  4  22   1  23   1  24   1  26  -1
M  END
$$$$
