
     RDKit          3D

 28 30  0  0  0  0  0  0  0  0999 V2000
   20.4583  -14.8939   -0.4894 B   0  0  0  0  0  0  0  0  0  0  0  0
   22.3017  -13.8232    0.7366 C   0  0  0  0  0  0  0  0  0  0  0  0
   23.0173  -12.6838    1.0594 C   0  0  0  0  0  0  0  0  0  0  0  0
   22.6124  -11.4235    0.4734 C   0  0  0  0  0  0  0  0  0  0  0  0
   24.0866  -12.7836    1.9230 C   0  0  0  0  0  0  0  0  0  0  0  0
   24.4657  -13.9882    2.4766 C   0  0  0  0  0  0  0  0  0  0  0  0
   23.7356  -15.1066    2.1380 C   0  0  0  0  0  0  0  0  0  0  0  0
   22.6416  -15.0465    1.2633 C   0  0  0  0  0  0  0  0  0  0  0  0
   21.9641  -16.3246    0.9993 C   0  0  0  0  0  0  0  0  0  0  0  0
   20.5301  -16.1053    0.5623 C   0  0  2  0  0  0  0  0  0  0  0  0
   20.4088  -18.6155    0.3703 C   0  0  0  0  0  0  0  0  0  0  0  0
   21.6057  -19.1679   -0.2983 C   0  0  0  0  0  0  0  0  0  0  0  0
   22.5923  -18.0987   -0.5778 C   0  0  2  0  0  0  0  0  0  0  0  0
   23.3095  -18.1599   -1.8733 C   0  0  0  0  0  0  0  0  0  0  0  0
   24.1863  -19.3852   -1.8942 C   0  0  0  0  0  0  0  0  0  0  0  0
   25.1930  -19.4092   -0.7798 C   0  0  2  0  0  0  0  0  0  0  0  0
   27.4619  -18.8360   -0.2214 C   0  0  0  0  0  0  0  0  0  0  0  0
   28.7824  -18.8938   -0.9378 C   0  0  0  0  0  0  0  0  0  0  0  0
   24.6537  -18.9846    0.5449 C   0  0  0  0  0  0  0  0  0  0  0  0
   23.6225  -17.9242    0.5098 C   0  0  0  0  0  0  0  0  0  0  0  0
   19.9212  -17.2916    0.0487 N   0  0  0  0  0  0  0  0  0  0  0  0
   26.3609  -18.6266   -1.1449 N   0  0  0  0  0  4  0  0  0  0  0  0
   29.3562  -17.5525   -0.8887 N   0  0  0  0  0  4  0  0  0  0  0  0
   19.6261  -14.9773   -1.6879 O   0  0  0  0  0  3  0  0  0  0  0  0
   21.2361  -13.6915   -0.1309 O   0  0  0  0  0  0  0  0  0  0  0  0
   23.4411  -10.3193    0.5927 O   0  0  0  0  0  1  0  0  0  0  0  0
   21.5376  -11.3018   -0.1369 O   0  0  0  0  0  0  0  0  0  0  0  0
   19.7262  -19.2095    1.2429 O   0  0  0  0  0  0  0  0  0  0  0  0
 10  1  1  0
  1 24  1  0
  1 25  1  0
  2  3  2  0
  8  2  1  0
 25  2  1  0
  3  4  1  0
  3  5  1  0
  4 26  1  0
  4 27  2  0
  6  5  2  0
  7  6  1  0
  8  7  2  0
  9  8  1  0
 10  9  1  0
 10 21  1  6
 12 11  1  0
 11 21  1  0
 11 28  2  0
 13 12  1  1
 14 13  1  0
 13 20  1  0
 15 14  1  0
 16 15  1  0
 16 19  1  0
 16 22  1  6
 17 18  1  0
 17 22  1  0
 18 23  1  0
 19 20  1  0
M  CHG  4  22   1  23   1  24   1  26  -1
M  END
$$$$
