
     RDKit          3D

 28 30  0  0  0  0  0  0  0  0999 V2000
   14.4186   18.6048   22.1908 B   0  0  0  0  0  0  0  0  0  0  0  0
   12.9505   20.4108   22.9850 C   0  0  0  0  0  0  0  0  0  0  0  0
   11.9907   20.8656   23.8719 C   0  0  0  0  0  0  0  0  0  0  0  0
   11.5076   19.9601   24.8927 C   0  0  0  0  0  0  0  0  0  0  0  0
   11.5274   22.1584   23.7563 C   0  0  0  0  0  0  0  0  0  0  0  0
   11.9930   23.0144   22.7808 C   0  0  0  0  0  0  0  0  0  0  0  0
   12.9484   22.5354   21.9113 C   0  0  0  0  0  0  0  0  0  0  0  0
   13.4450   21.2271   21.9959 C   0  0  0  0  0  0  0  0  0  0  0  0
   14.4608   20.8637   20.9967 C   0  0  0  0  0  0  0  0  0  0  0  0
   15.3302   19.7242   21.4876 C   0  0  2  0  0  0  0  0  0  0  0  0
   16.5365   19.9251   19.2837 C   0  0  0  0  0  0  0  0  0  0  0  0
   16.6617   21.3970   19.3340 C   0  0  0  0  0  0  0  0  0  0  0  0
   18.0088   21.8256   18.8907 C   0  0  2  0  0  0  0  0  0  0  0  0
   18.5107   23.1223   19.4037 C   0  0  0  0  0  0  0  0  0  0  0  0
   17.6517   24.2340   18.8589 C   0  0  0  0  0  0  0  0  0  0  0  0
   17.6299   24.2808   17.3578 C   0  0  2  0  0  0  0  0  0  0  0  0
   18.9617   24.8324   15.4316 C   0  0  0  0  0  0  0  0  0  0  0  0
   20.2037   25.5206   14.9374 C   0  0  0  0  0  0  0  0  0  0  0  0
   17.5062   22.9460   16.7029 C   0  0  0  0  0  0  0  0  0  0  0  0
   18.1832   21.8259   17.3926 C   0  0  0  0  0  0  0  0  0  0  0  0
   16.1503   19.1707   20.4566 N   0  0  0  0  0  0  0  0  0  0  0  0
   18.7905   25.0009   16.8637 N   0  0  0  0  0  4  0  0  0  0  0  0
   20.1673   26.8885   15.4457 N   0  0  0  0  0  4  0  0  0  0  0  0
   14.6429   17.1810   21.9490 O   0  0  0  0  0  3  0  0  0  0  0  0
   13.3948   19.1115   23.1260 O   0  0  0  0  0  0  0  0  0  0  0  0
   10.7694   18.8474   24.5223 O   0  0  0  0  0  1  0  0  0  0  0  0
   11.7366   20.1519   26.0983 O   0  0  0  0  0  0  0  0  0  0  0  0
   16.7423   19.2138   18.2679 O   0  0  0  0  0  0  0  0  0  0  0  0
 10  1  1  0
  1 24  1  0
  1 25  1  0
  2  3  2  0
  8  2  1  0
 25  2  1  0
  3  4  1  0
  3  5  1  0
  4 26  1  0
  4 27  2  0
  6  5  2  0
  7  6  1  0
  8  7  2  0
  9  8  1  0
 10  9  1  0
 10 21  1  6
 12 11  1  0
 11 21  1  0
 11 28  2  0
 13 12  1  6
 14 13  1  0
 13 20  1  0
 15 14  1  0
 16 15  1  0
 16 19  1  0
 16 22  1  6
 17 18  1  0
 17 22  1  0
 18 23  1  0
 19 20  1  0
M  CHG  4  22   1  23   1  24   1  26  -1
M  END
$$$$
