
     RDKit          3D

 28 30  0  0  0  0  0  0  0  0999 V2000
   11.8696   19.8601   24.0957 B   0  0  0  0  0  0  0  0  0  0  0  0
   13.9445   20.0146   22.7847 C   0  0  0  0  0  0  0  0  0  0  0  0
   15.1589   19.4715   22.4041 C   0  0  0  0  0  0  0  0  0  0  0  0
   15.5481   18.1917   22.9573 C   0  0  0  0  0  0  0  0  0  0  0  0
   15.9551   20.1618   21.5159 C   0  0  0  0  0  0  0  0  0  0  0  0
   15.5767   21.3805   20.9938 C   0  0  0  0  0  0  0  0  0  0  0  0
   14.3627   21.8978   21.3899 C   0  0  0  0  0  0  0  0  0  0  0  0
   13.5243   21.2267   22.2911 C   0  0  0  0  0  0  0  0  0  0  0  0
   12.2619   21.9068   22.6168 C   0  0  0  0  0  0  0  0  0  0  0  0
   11.2118   20.9200   23.0845 C   0  0  2  0  0  0  0  0  0  0  0  0
   10.1310   22.8764   24.2493 C   0  0  0  0  0  0  0  0  0  0  0  0
   11.4246   23.5697   24.4252 C   0  0  0  0  0  0  0  0  0  0  0  0
   11.4235   24.8719   23.7188 C   0  0  2  0  0  0  0  0  0  0  0  0
   12.7409   25.4586   23.3767 C   0  0  0  0  0  0  0  0  0  0  0  0
   13.4687   25.8115   24.6480 C   0  0  0  0  0  0  0  0  0  0  0  0
   12.7134   26.7823   25.5100 C   0  0  2  0  0  0  0  0  0  0  0  0
   11.8785   29.0380   25.4557 C   0  0  0  0  0  0  0  0  0  0  0  0
   12.3607   30.0745   26.4323 C   0  0  0  0  0  0  0  0  0  0  0  0
   11.2532   26.4976   25.6220 C   0  0  0  0  0  0  0  0  0  0  0  0
   10.6122   25.9376   24.4119 C   0  0  0  0  0  0  0  0  0  0  0  0
   10.0678   21.5588   23.6545 N   0  0  0  0  0  0  0  0  0  0  0  0
   12.9485   28.1416   25.0553 N   0  0  0  0  0  4  0  0  0  0  0  0
   11.9666   31.3772   25.9047 N   0  0  0  0  0  4  0  0  0  0  0  0
   11.1822   19.4496   25.3184 O   0  0  0  0  0  3  0  0  0  0  0  0
   13.1693   19.2998   23.6756 O   0  0  0  0  0  0  0  0  0  0  0  0
   14.5792   17.2307   23.1984 O   0  0  0  0  0  1  0  0  0  0  0  0
   16.7321   17.9276   23.2239 O   0  0  0  0  0  0  0  0  0  0  0  0
    9.0098   23.3375   24.5817 O   0  0  0  0  0  0  0  0  0  0  0  0
 10  1  1  0
  1 24  1  0
  1 25  1  0
  2  3  2  0
  8  2  1  0
 25  2  1  0
  3  4  1  0
  3  5  1  0
  4 26  1  0
  4 27  2  0
  6  5  2  0
  7  6  1  0
  8  7  2  0
  9  8  1  0
 10  9  1  0
 10 21  1  1
 12 11  1  0
 11 21  1  0
 11 28  2  0
 13 12  1  1
 14 13  1  0
 13 20  1  0
 15 14  1  0
 16 15  1  0
 16 19  1  0
 16 22  1  6
 17 18  1  0
 17 22  1  0
 18 23  1  0
 19 20  1  0
M  CHG  4  22   1  23   1  24   1  26  -1
M  END
$$$$
