
     RDKit          3D

 28 30  0  0  0  0  0  0  0  0999 V2000
   20.7147  -14.6453    0.0861 B   0  0  0  0  0  0  0  0  0  0  0  0
   22.7472  -13.4793    0.8326 C   0  0  0  0  0  0  0  0  0  0  0  0
   23.4589  -12.3030    0.9891 C   0  0  0  0  0  0  0  0  0  0  0  0
   22.8527  -11.0641    0.5496 C   0  0  0  0  0  0  0  0  0  0  0  0
   24.7148  -12.3473    1.5548 C   0  0  0  0  0  0  0  0  0  0  0  0
   25.2848  -13.5320    1.9705 C   0  0  0  0  0  0  0  0  0  0  0  0
   24.5540  -14.6879    1.8027 C   0  0  0  0  0  0  0  0  0  0  0  0
   23.2737  -14.6846    1.2318 C   0  0  0  0  0  0  0  0  0  0  0  0
   22.6209  -15.9974    1.1197 C   0  0  0  0  0  0  0  0  0  0  0  0
   21.1135  -15.8575    1.0609 C   0  0  2  0  0  0  0  0  0  0  0  0
   20.7774  -17.7863   -0.5264 C   0  0  0  0  0  0  0  0  0  0  0  0
   22.1542  -18.2504   -0.7982 C   0  0  0  0  0  0  0  0  0  0  0  0
   22.2338  -19.7282   -0.7309 C   0  0  2  0  0  0  0  0  0  0  0  0
   23.4956  -20.3167   -0.2229 C   0  0  0  0  0  0  0  0  0  0  0  0
   24.6095  -20.0035   -1.1881 C   0  0  0  0  0  0  0  0  0  0  0  0
   24.3534  -20.5243   -2.5734 C   0  0  2  0  0  0  0  0  0  0  0  0
   23.9250  -22.6470   -3.6217 C   0  0  0  0  0  0  0  0  0  0  0  0
   24.5594  -23.9538   -4.0093 C   0  0  0  0  0  0  0  0  0  0  0  0
   22.9580  -20.3182   -3.0594 C   0  0  0  0  0  0  0  0  0  0  0  0
   21.8982  -20.4139   -2.0316 C   0  0  0  0  0  0  0  0  0  0  0  0
   20.4595  -17.0732    0.6919 N   0  0  0  0  0  0  0  0  0  0  0  0
   24.7369  -21.9226   -2.6600 N   0  0  0  0  0  4  0  0  0  0  0  0
   23.4758  -24.8805   -4.3223 N   0  0  0  0  0  4  0  0  0  0  0  0
   19.6136  -14.7681   -0.8670 O   0  0  0  0  0  3  0  0  0  0  0  0
   21.4921  -13.4028    0.2629 O   0  0  0  0  0  0  0  0  0  0  0  0
   21.8627  -10.4784    1.3224 O   0  0  0  0  0  1  0  0  0  0  0  0
   23.1957  -10.5069   -0.5061 O   0  0  0  0  0  0  0  0  0  0  0  0
   19.7914  -17.9550   -1.2877 O   0  0  0  0  0  0  0  0  0  0  0  0
 10  1  1  0
  1 24  1  0
  1 25  1  0
  2  3  2  0
  8  2  1  0
 25  2  1  0
  3  4  1  0
  3  5  1  0
  4 26  1  0
  4 27  2  0
  6  5  2  0
  7  6  1  0
  8  7  2  0
  9  8  1  0
 10  9  1  0
 10 21  1  6
 12 11  1  0
 11 21  1  0
 11 28  2  0
 13 12  1  6
 14 13  1  0
 13 20  1  0
 15 14  1  0
 16 15  1  0
 16 19  1  0
 16 22  1  1
 17 18  1  0
 17 22  1  0
 18 23  1  0
 19 20  1  0
M  CHG  4  22   1  23   1  24   1  26  -1
M  END
$$$$
