
     RDKit          3D

 28 30  0  0  0  0  0  0  0  0999 V2000
   20.1854  -14.6707    0.7022 B   0  0  0  0  0  0  0  0  0  0  0  0
   22.1722  -13.3719    1.3451 C   0  0  0  0  0  0  0  0  0  0  0  0
   22.8282  -12.1563    1.4271 C   0  0  0  0  0  0  0  0  0  0  0  0
   22.1536  -10.9720    0.9395 C   0  0  0  0  0  0  0  0  0  0  0  0
   24.0954  -12.1114    1.9669 C   0  0  0  0  0  0  0  0  0  0  0  0
   24.7308  -13.2446    2.4289 C   0  0  0  0  0  0  0  0  0  0  0  0
   24.0545  -14.4413    2.3350 C   0  0  0  0  0  0  0  0  0  0  0  0
   22.7648  -14.5286    1.7926 C   0  0  0  0  0  0  0  0  0  0  0  0
   22.1752  -15.8753    1.7605 C   0  0  0  0  0  0  0  0  0  0  0  0
   20.6619  -15.8111    1.7275 C   0  0  2  0  0  0  0  0  0  0  0  0
   20.6407  -18.0088    0.4937 C   0  0  0  0  0  0  0  0  0  0  0  0
   22.0771  -18.3529    0.5512 C   0  0  0  0  0  0  0  0  0  0  0  0
   22.5961  -18.6706   -0.7995 C   0  0  2  0  0  0  0  0  0  0  0  0
   22.2478  -19.9955   -1.3652 C   0  0  0  0  0  0  0  0  0  0  0  0
   22.8990  -21.0723   -0.5364 C   0  0  0  0  0  0  0  0  0  0  0  0
   24.3946  -20.9472   -0.4768 C   0  0  2  0  0  0  0  0  0  0  0  0
   25.1650  -22.9893   -1.4891 C   0  0  0  0  0  0  0  0  0  0  0  0
   25.9562  -23.5843   -2.6206 C   0  0  0  0  0  0  0  0  0  0  0  0
   24.8876  -19.5525   -0.2836 C   0  0  0  0  0  0  0  0  0  0  0  0
   24.0875  -18.4915   -0.9341 C   0  0  0  0  0  0  0  0  0  0  0  0
   20.0613  -17.0740    1.4341 N   0  0  0  0  0  0  0  0  0  0  0  0
   24.9938  -21.5564   -1.6514 N   0  0  0  0  0  4  0  0  0  0  0  0
   26.4069  -24.9018   -2.1828 N   0  0  0  0  0  4  0  0  0  0  0  0
   19.0734  -14.8948   -0.2194 O   0  0  0  0  0  3  0  0  0  0  0  0
   20.9042  -13.3849    0.7997 O   0  0  0  0  0  0  0  0  0  0  0  0
   22.3455  -10.5704   -0.3729 O   0  0  0  0  0  1  0  0  0  0  0  0
   21.4033  -10.3009    1.6669 O   0  0  0  0  0  0  0  0  0  0  0  0
   19.8169  -18.4699   -0.3364 O   0  0  0  0  0  0  0  0  0  0  0  0
 10  1  1  0
  1 24  1  0
  1 25  1  0
  2  3  2  0
  8  2  1  0
 25  2  1  0
  3  4  1  0
  3  5  1  0
  4 26  1  0
  4 27  2  0
  6  5  2  0
  7  6  1  0
  8  7  2  0
  9  8  1  0
 10  9  1  0
 10 21  1  6
 12 11  1  0
 11 21  1  0
 11 28  2  0
 13 12  1  1
 14 13  1  0
 13 20  1  0
 15 14  1  0
 16 15  1  0
 16 19  1  0
 16 22  1  6
 17 18  1  0
 17 22  1  0
 18 23  1  0
 19 20  1  0
M  CHG  4  22   1  23   1  24   1  26  -1
M  END
$$$$
