
     RDKit          3D

 28 30  0  0  0  0  0  0  0  0999 V2000
   12.1961   19.3004   23.7263 B   0  0  0  0  0  0  0  0  0  0  0  0
   14.3101   19.6518   22.5200 C   0  0  0  0  0  0  0  0  0  0  0  0
   15.5557   19.1883   22.1349 C   0  0  0  0  0  0  0  0  0  0  0  0
   15.9692   17.8717   22.5719 C   0  0  0  0  0  0  0  0  0  0  0  0
   16.3587   19.9896   21.3524 C   0  0  0  0  0  0  0  0  0  0  0  0
   15.9569   21.2427   20.9407 C   0  0  0  0  0  0  0  0  0  0  0  0
   14.7121   21.6790   21.3386 C   0  0  0  0  0  0  0  0  0  0  0  0
   13.8659   20.8941   22.1343 C   0  0  0  0  0  0  0  0  0  0  0  0
   12.5696   21.4980   22.4766 C   0  0  0  0  0  0  0  0  0  0  0  0
   11.5385   20.4365   22.8014 C   0  0  2  0  0  0  0  0  0  0  0  0
   10.3737   22.1466   24.2406 C   0  0  0  0  0  0  0  0  0  0  0  0
   11.0205   23.3998   23.7981 C   0  0  0  0  0  0  0  0  0  0  0  0
   11.7168   24.0593   24.9271 C   0  0  2  0  0  0  0  0  0  0  0  0
   11.0081   25.1709   25.6044 C   0  0  0  0  0  0  0  0  0  0  0  0
   10.8547   26.3184   24.6399 C   0  0  0  0  0  0  0  0  0  0  0  0
   12.1668   26.8268   24.1147 C   0  0  2  0  0  0  0  0  0  0  0  0
   14.1396   27.4392   25.3481 C   0  0  0  0  0  0  0  0  0  0  0  0
   14.9713   28.6788   25.5271 C   0  0  0  0  0  0  0  0  0  0  0  0
   13.1373   25.7559   23.7447 C   0  0  0  0  0  0  0  0  0  0  0  0
   13.1053   24.5397   24.5866 C   0  0  0  0  0  0  0  0  0  0  0  0
   10.3531   20.9783   23.3872 N   0  0  0  0  0  0  0  0  0  0  0  0
   12.7538   27.7621   25.0585 N   0  0  0  0  0  4  0  0  0  0  0  0
   15.1440   28.8759   26.9631 N   0  0  0  0  0  4  0  0  0  0  0  0
   11.4799   18.7468   24.8737 O   0  0  0  0  0  3  0  0  0  0  0  0
   13.5288   18.8265   23.3035 O   0  0  0  0  0  0  0  0  0  0  0  0
   16.7938   17.1115   21.7579 O   0  0  0  0  0  1  0  0  0  0  0  0
   15.6047   17.4001   23.6615 O   0  0  0  0  0  0  0  0  0  0  0  0
    9.8039   21.9762   25.3481 O   0  0  0  0  0  0  0  0  0  0  0  0
 10  1  1  0
  1 24  1  0
  1 25  1  0
  2  3  2  0
  8  2  1  0
 25  2  1  0
  3  4  1  0
  3  5  1  0
  4 26  1  0
  4 27  2  0
  6  5  2  0
  7  6  1  0
  8  7  2  0
  9  8  1  0
 10  9  1  0
 10 21  1  1
 12 11  1  0
 11 21  1  0
 11 28  2  0
 13 12  1  6
 14 13  1  0
 13 20  1  0
 15 14  1  0
 16 15  1  0
 16 19  1  0
 16 22  1  1
 17 18  1  0
 17 22  1  0
 18 23  1  0
 19 20  1  0
M  CHG  4  22   1  23   1  24   1  26  -1
M  END
$$$$
