
     RDKit          3D

 28 30  0  0  0  0  0  0  0  0999 V2000
   12.1876   19.6576   24.2902 B   0  0  0  0  0  0  0  0  0  0  0  0
   14.0593   19.7207   22.6963 C   0  0  0  0  0  0  0  0  0  0  0  0
   15.2099   19.1482   22.1836 C   0  0  0  0  0  0  0  0  0  0  0  0
   15.6748   17.9010   22.7527 C   0  0  0  0  0  0  0  0  0  0  0  0
   15.8734   19.7793   21.1536 C   0  0  0  0  0  0  0  0  0  0  0  0
   15.4236   20.9674   20.6175 C   0  0  0  0  0  0  0  0  0  0  0  0
   14.2756   21.5150   21.1471 C   0  0  0  0  0  0  0  0  0  0  0  0
   13.5722   20.9040   22.1946 C   0  0  0  0  0  0  0  0  0  0  0  0
   12.3662   21.6104   22.6516 C   0  0  0  0  0  0  0  0  0  0  0  0
   11.3934   20.6598   23.3189 C   0  0  2  0  0  0  0  0  0  0  0  0
   10.1706   22.7746   23.9398 C   0  0  0  0  0  0  0  0  0  0  0  0
   11.3116   23.6601   23.6257 C   0  0  0  0  0  0  0  0  0  0  0  0
   12.0137   24.0722   24.8634 C   0  0  2  0  0  0  0  0  0  0  0  0
   12.0661   25.5229   25.1622 C   0  0  0  0  0  0  0  0  0  0  0  0
   12.8926   26.2138   24.1086 C   0  0  0  0  0  0  0  0  0  0  0  0
   14.2955   25.6851   24.0188 C   0  0  2  0  0  0  0  0  0  0  0  0
   16.2865   26.9719   24.4291 C   0  0  0  0  0  0  0  0  0  0  0  0
   17.2067   27.5311   25.4784 C   0  0  0  0  0  0  0  0  0  0  0  0
   14.3981   24.1986   24.0933 C   0  0  0  0  0  0  0  0  0  0  0  0
   13.4164   23.5293   24.9749 C   0  0  0  0  0  0  0  0  0  0  0  0
   10.3386   21.3387   24.0034 N   0  0  0  0  0  0  0  0  0  0  0  0
   15.1331   26.3187   25.0222 N   0  0  0  0  0  4  0  0  0  0  0  0
   18.3533   28.1058   24.7814 N   0  0  0  0  0  4  0  0  0  0  0  0
   11.6779   19.3250   25.6189 O   0  0  0  0  0  3  0  0  0  0  0  0
   13.4171   19.0651   23.7275 O   0  0  0  0  0  0  0  0  0  0  0  0
   16.9002   17.3873   22.3588 O   0  0  0  0  0  1  0  0  0  0  0  0
   15.0040   17.2737   23.5888 O   0  0  0  0  0  0  0  0  0  0  0  0
    8.9965   23.1589   24.1722 O   0  0  0  0  0  0  0  0  0  0  0  0
 10  1  1  0
  1 24  1  0
  1 25  1  0
  2  3  2  0
  8  2  1  0
 25  2  1  0
  3  4  1  0
  3  5  1  0
  4 26  1  0
  4 27  2  0
  6  5  2  0
  7  6  1  0
  8  7  2  0
  9  8  1  0
 10  9  1  0
 10 21  1  1
 12 11  1  0
 11 21  1  0
 11 28  2  0
 13 12  1  6
 14 13  1  0
 13 20  1  0
 15 14  1  0
 16 15  1  0
 16 19  1  0
 16 22  1  1
 17 18  1  0
 17 22  1  0
 18 23  1  0
 19 20  1  0
M  CHG  4  22   1  23   1  24   1  26  -1
M  END
$$$$
