
     RDKit          3D

 28 30  0  0  0  0  0  0  0  0999 V2000
   12.1930   19.7198   23.9047 B   0  0  0  0  0  0  0  0  0  0  0  0
   14.0882   19.8706   22.3449 C   0  0  0  0  0  0  0  0  0  0  0  0
   15.2675   19.3465   21.8456 C   0  0  0  0  0  0  0  0  0  0  0  0
   15.7677   18.1099   22.4079 C   0  0  0  0  0  0  0  0  0  0  0  0
   15.9251   20.0141   20.8351 C   0  0  0  0  0  0  0  0  0  0  0  0
   15.4417   21.1918   20.3054 C   0  0  0  0  0  0  0  0  0  0  0  0
   14.2656   21.6909   20.8212 C   0  0  0  0  0  0  0  0  0  0  0  0
   13.5671   21.0417   21.8488 C   0  0  0  0  0  0  0  0  0  0  0  0
   12.3285   21.6982   22.2929 C   0  0  0  0  0  0  0  0  0  0  0  0
   11.3796   20.7047   22.9316 C   0  0  2  0  0  0  0  0  0  0  0  0
   10.3103   22.7360   23.9725 C   0  0  0  0  0  0  0  0  0  0  0  0
   11.4993   23.3357   24.6139 C   0  0  0  0  0  0  0  0  0  0  0  0
   11.1944   24.6940   25.1207 C   0  0  2  0  0  0  0  0  0  0  0  0
   11.1828   25.7992   24.1334 C   0  0  0  0  0  0  0  0  0  0  0  0
   12.5756   25.9908   23.5912 C   0  0  0  0  0  0  0  0  0  0  0  0
   13.5859   26.3026   24.6580 C   0  0  2  0  0  0  0  0  0  0  0  0
   13.9707   27.9824   26.3369 C   0  0  0  0  0  0  0  0  0  0  0  0
   14.0456   29.4568   26.6212 C   0  0  0  0  0  0  0  0  0  0  0  0
   13.4477   25.4800   25.8949 C   0  0  0  0  0  0  0  0  0  0  0  0
   12.0644   25.1199   26.2767 C   0  0  0  0  0  0  0  0  0  0  0  0
   10.2893   21.3364   23.6055 N   0  0  0  0  0  0  0  0  0  0  0  0
   13.5635   27.7216   24.9676 N   0  0  0  0  0  4  0  0  0  0  0  0
   14.3047   30.1261   25.3502 N   0  0  0  0  0  4  0  0  0  0  0  0
   11.6730   19.3522   25.2202 O   0  0  0  0  0  3  0  0  0  0  0  0
   13.4527   19.1792   23.3567 O   0  0  0  0  0  0  0  0  0  0  0  0
   15.0719   16.9316   22.1890 O   0  0  0  0  0  1  0  0  0  0  0  0
   16.8083   18.0733   23.0848 O   0  0  0  0  0  0  0  0  0  0  0  0
    9.2490   23.3495   23.6942 O   0  0  0  0  0  0  0  0  0  0  0  0
 10  1  1  0
  1 24  1  0
  1 25  1  0
  2  3  2  0
  8  2  1  0
 25  2  1  0
  3  4  1  0
  3  5  1  0
  4 26  1  0
  4 27  2  0
  6  5  2  0
  7  6  1  0
  8  7  2  0
  9  8  1  0
 10  9  1  0
 10 21  1  1
 12 11  1  0
 11 21  1  0
 11 28  2  0
 13 12  1  6
 14 13  1  0
 13 20  1  0
 15 14  1  0
 16 15  1  0
 16 19  1  0
 16 22  1  1
 17 18  1  0
 17 22  1  0
 18 23  1  0
 19 20  1  0
M  CHG  4  22   1  23   1  24   1  26  -1
M  END
$$$$
