
     RDKit          3D

 28 30  0  0  0  0  0  0  0  0999 V2000
   12.1831   19.9981   24.2310 B   0  0  0  0  0  0  0  0  0  0  0  0
   14.0559   19.6203   22.6825 C   0  0  0  0  0  0  0  0  0  0  0  0
   15.0239   18.7790   22.1632 C   0  0  0  0  0  0  0  0  0  0  0  0
   15.1105   17.4267   22.6724 C   0  0  0  0  0  0  0  0  0  0  0  0
   15.8702   19.2518   21.1836 C   0  0  0  0  0  0  0  0  0  0  0  0
   15.7809   20.5415   20.7043 C   0  0  0  0  0  0  0  0  0  0  0  0
   14.8080   21.3575   21.2391 C   0  0  0  0  0  0  0  0  0  0  0  0
   13.9282   20.9142   22.2365 C   0  0  0  0  0  0  0  0  0  0  0  0
   12.9453   21.9019   22.7063 C   0  0  0  0  0  0  0  0  0  0  0  0
   11.7272   21.2244   23.2999 C   0  0  2  0  0  0  0  0  0  0  0  0
   11.1781   23.5429   24.1218 C   0  0  0  0  0  0  0  0  0  0  0  0
   10.2134   24.4771   24.7393 C   0  0  0  0  0  0  0  0  0  0  0  0
   10.8470   25.2325   25.8450 C   0  0  2  0  0  0  0  0  0  0  0  0
    9.9564   26.0399   26.7119 C   0  0  0  0  0  0  0  0  0  0  0  0
    9.3544   27.1557   25.8975 C   0  0  0  0  0  0  0  0  0  0  0  0
   10.3847   28.0595   25.2830 C   0  0  2  0  0  0  0  0  0  0  0  0
   10.7327   30.4028   25.7030 C   0  0  0  0  0  0  0  0  0  0  0  0
   11.2911   31.4205   26.6584 C   0  0  0  0  0  0  0  0  0  0  0  0
   11.5553   27.3463   24.6941 C   0  0  0  0  0  0  0  0  0  0  0  0
   11.9833   26.1192   25.4012 C   0  0  0  0  0  0  0  0  0  0  0  0
   10.8744   22.1335   23.9985 N   0  0  0  0  0  0  0  0  0  0  0  0
   10.8112   29.0587   26.2472 N   0  0  0  0  0  4  0  0  0  0  0  0
   11.6112   32.6116   25.8775 N   0  0  0  0  0  4  0  0  0  0  0  0
   11.5556   19.7557   25.5285 O   0  0  0  0  0  3  0  0  0  0  0  0
   13.2233   19.1182   23.6624 O   0  0  0  0  0  0  0  0  0  0  0  0
   14.1866   16.4815   22.2562 O   0  0  0  0  0  1  0  0  0  0  0  0
   15.9939   17.0862   23.4763 O   0  0  0  0  0  0  0  0  0  0  0  0
   12.3046   23.8612   23.6635 O   0  0  0  0  0  0  0  0  0  0  0  0
 10  1  1  0
  1 24  1  0
  1 25  1  0
  2  3  2  0
  8  2  1  0
 25  2  1  0
  3  4  1  0
  3  5  1  0
  4 26  1  0
  4 27  2  0
  6  5  2  0
  7  6  1  0
  8  7  2  0
  9  8  1  0
 10  9  1  0
 10 21  1  1
 12 11  1  0
 11 21  1  0
 11 28  2  0
 13 12  1  6
 14 13  1  0
 13 20  1  0
 15 14  1  0
 16 15  1  0
 16 19  1  0
 16 22  1  1
 17 18  1  0
 17 22  1  0
 18 23  1  0
 19 20  1  0
M  CHG  4  22   1  23   1  24   1  26  -1
M  END
$$$$
