
     RDKit          3D

 28 30  0  0  0  0  0  0  0  0999 V2000
   20.4720  -14.4399   -0.0407 B   0  0  0  0  0  0  0  0  0  0  0  0
   22.4179  -13.3400    0.9849 C   0  0  0  0  0  0  0  0  0  0  0  0
   23.1594  -12.1937    1.2104 C   0  0  0  0  0  0  0  0  0  0  0  0
   22.7034  -10.9493    0.6282 C   0  0  0  0  0  0  0  0  0  0  0  0
   24.3018  -12.2721    1.9772 C   0  0  0  0  0  0  0  0  0  0  0  0
   24.7290  -13.4618    2.5279 C   0  0  0  0  0  0  0  0  0  0  0  0
   23.9717  -14.5874    2.2874 C   0  0  0  0  0  0  0  0  0  0  0  0
   22.8037  -14.5490    1.5129 C   0  0  0  0  0  0  0  0  0  0  0  0
   22.1053  -15.8322    1.3464 C   0  0  0  0  0  0  0  0  0  0  0  0
   20.6379  -15.6218    1.0337 C   0  0  2  0  0  0  0  0  0  0  0  0
   20.6486  -17.8199   -0.1995 C   0  0  0  0  0  0  0  0  0  0  0  0
   22.1236  -17.8821   -0.2732 C   0  0  0  0  0  0  0  0  0  0  0  0
   22.5980  -19.2798   -0.1466 C   0  0  2  0  0  0  0  0  0  0  0  0
   23.9744  -19.4849    0.3632 C   0  0  0  0  0  0  0  0  0  0  0  0
   24.9576  -18.9273   -0.6332 C   0  0  0  0  0  0  0  0  0  0  0  0
   24.8432  -19.5586   -1.9912 C   0  0  2  0  0  0  0  0  0  0  0  0
   25.0720  -21.7143   -3.0348 C   0  0  0  0  0  0  0  0  0  0  0  0
   26.0908  -22.7510   -3.4192 C   0  0  0  0  0  0  0  0  0  0  0  0
   23.4410  -19.7564   -2.4610 C   0  0  0  0  0  0  0  0  0  0  0  0
   22.4517  -20.0873   -1.4119 C   0  0  0  0  0  0  0  0  0  0  0  0
   19.9856  -16.8204    0.6100 N   0  0  0  0  0  0  0  0  0  0  0  0
   25.5880  -20.8051   -2.0269 N   0  0  0  0  0  4  0  0  0  0  0  0
   27.3002  -22.4692   -2.6519 N   0  0  0  0  0  4  0  0  0  0  0  0
   19.5358  -14.5546   -1.1571 O   0  0  0  0  0  3  0  0  0  0  0  0
   21.2787  -13.2298    0.2130 O   0  0  0  0  0  0  0  0  0  0  0  0
   23.5834   -9.8840    0.5223 O   0  0  0  0  0  1  0  0  0  0  0  0
   21.5397  -10.8070    0.2181 O   0  0  0  0  0  0  0  0  0  0  0  0
   19.8590  -18.5903   -0.8022 O   0  0  0  0  0  0  0  0  0  0  0  0
 10  1  1  0
  1 24  1  0
  1 25  1  0
  2  3  2  0
  8  2  1  0
 25  2  1  0
  3  4  1  0
  3  5  1  0
  4 26  1  0
  4 27  2  0
  6  5  2  0
  7  6  1  0
  8  7  2  0
  9  8  1  0
 10  9  1  0
 10 21  1  6
 12 11  1  0
 11 21  1  0
 11 28  2  0
 13 12  1  6
 14 13  1  0
 13 20  1  0
 15 14  1  0
 16 15  1  0
 16 19  1  0
 16 22  1  1
 17 18  1  0
 17 22  1  0
 18 23  1  0
 19 20  1  0
M  CHG  4  22   1  23   1  24   1  26  -1
M  END
$$$$
