
     RDKit          3D

 28 30  0  0  0  0  0  0  0  0999 V2000
   11.9139   19.8356   24.4900 B   0  0  0  0  0  0  0  0  0  0  0  0
   13.7580   19.9576   22.8675 C   0  0  0  0  0  0  0  0  0  0  0  0
   14.9207   19.4242   22.3401 C   0  0  0  0  0  0  0  0  0  0  0  0
   15.4389   18.1977   22.9081 C   0  0  0  0  0  0  0  0  0  0  0  0
   15.5453   20.0733   21.2971 C   0  0  0  0  0  0  0  0  0  0  0  0
   15.0448   21.2414   20.7621 C   0  0  0  0  0  0  0  0  0  0  0  0
   13.8858   21.7501   21.3064 C   0  0  0  0  0  0  0  0  0  0  0  0
   13.2209   21.1198   22.3675 C   0  0  0  0  0  0  0  0  0  0  0  0
   11.9971   21.7846   22.8394 C   0  0  0  0  0  0  0  0  0  0  0  0
   11.0694   20.8032   23.5261 C   0  0  2  0  0  0  0  0  0  0  0  0
   10.0319   22.8542   24.5604 C   0  0  0  0  0  0  0  0  0  0  0  0
   11.3032   23.5263   24.9022 C   0  0  0  0  0  0  0  0  0  0  0  0
   11.5369   24.6909   24.0169 C   0  0  2  0  0  0  0  0  0  0  0  0
   12.5918   24.5569   22.9846 C   0  0  0  0  0  0  0  0  0  0  0  0
   13.9313   24.4262   23.6624 C   0  0  0  0  0  0  0  0  0  0  0  0
   14.2616   25.5950   24.5460 C   0  0  2  0  0  0  0  0  0  0  0  0
   15.9616   27.2921   24.4112 C   0  0  0  0  0  0  0  0  0  0  0  0
   16.6054   28.3352   23.5406 C   0  0  0  0  0  0  0  0  0  0  0  0
   13.1230   26.0744   25.3824 C   0  0  0  0  0  0  0  0  0  0  0  0
   11.7837   25.9792   24.7612 C   0  0  0  0  0  0  0  0  0  0  0  0
   10.0013   21.4473   24.2233 N   0  0  0  0  0  0  0  0  0  0  0  0
   14.8218   26.6766   23.7548 N   0  0  0  0  0  4  0  0  0  0  0  0
   17.7272   28.8889   24.2927 N   0  0  0  0  0  4  0  0  0  0  0  0
   11.4367   19.4919   25.8280 O   0  0  0  0  0  3  0  0  0  0  0  0
   13.1555   19.2848   23.9116 O   0  0  0  0  0  0  0  0  0  0  0  0
   16.5950   18.2356   23.6713 O   0  0  0  0  0  1  0  0  0  0  0  0
   14.8747   17.1055   22.7307 O   0  0  0  0  0  0  0  0  0  0  0  0
    8.9039   23.4081   24.5291 O   0  0  0  0  0  0  0  0  0  0  0  0
 10  1  1  0
  1 24  1  0
  1 25  1  0
  2  3  2  0
  8  2  1  0
 25  2  1  0
  3  4  1  0
  3  5  1  0
  4 26  1  0
  4 27  2  0
  6  5  2  0
  7  6  1  0
  8  7  2  0
  9  8  1  0
 10  9  1  0
 10 21  1  1
 12 11  1  0
 11 21  1  0
 11 28  2  0
 13 12  1  1
 14 13  1  0
 13 20  1  0
 15 14  1  0
 16 15  1  0
 16 19  1  0
 16 22  1  6
 17 18  1  0
 17 22  1  0
 18 23  1  0
 19 20  1  0
M  CHG  4  22   1  23   1  24   1  26  -1
M  END
$$$$
