
     RDKit          3D

 28 30  0  0  0  0  0  0  0  0999 V2000
   20.3106  -14.9897   -0.6559 B   0  0  0  0  0  0  0  0  0  0  0  0
   22.1630  -13.9289    0.5652 C   0  0  0  0  0  0  0  0  0  0  0  0
   22.9420  -12.8136    0.8179 C   0  0  0  0  0  0  0  0  0  0  0  0
   22.6589  -11.5933    0.0926 C   0  0  0  0  0  0  0  0  0  0  0  0
   23.9569  -12.8990    1.7464 C   0  0  0  0  0  0  0  0  0  0  0  0
   24.2199  -14.0656    2.4327 C   0  0  0  0  0  0  0  0  0  0  0  0
   23.4288  -15.1605    2.1614 C   0  0  0  0  0  0  0  0  0  0  0  0
   22.3870  -15.1141    1.2244 C   0  0  0  0  0  0  0  0  0  0  0  0
   21.6329  -16.3637    1.0453 C   0  0  0  0  0  0  0  0  0  0  0  0
   20.2421  -16.0932    0.5088 C   0  0  2  0  0  0  0  0  0  0  0  0
   20.2121  -18.5803    0.1012 C   0  0  0  0  0  0  0  0  0  0  0  0
   21.4657  -18.8265   -0.6421 C   0  0  0  0  0  0  0  0  0  0  0  0
   22.5015  -17.8352   -0.2692 C   0  0  2  0  0  0  0  0  0  0  0  0
   23.2945  -17.2370   -1.3692 C   0  0  0  0  0  0  0  0  0  0  0  0
   24.1310  -18.3112   -2.0149 C   0  0  0  0  0  0  0  0  0  0  0  0
   25.0661  -18.9879   -1.0539 C   0  0  2  0  0  0  0  0  0  0  0  0
   26.9464  -17.9868   -2.1722 C   0  0  0  0  0  0  0  0  0  0  0  0
   28.4242  -18.2445   -2.0728 C   0  0  0  0  0  0  0  0  0  0  0  0
   24.4606  -19.3061    0.2720 C   0  0  0  0  0  0  0  0  0  0  0  0
   23.4682  -18.3317    0.7765 C   0  0  0  0  0  0  0  0  0  0  0  0
   19.5755  -17.2810    0.0768 N   0  0  0  0  0  0  0  0  0  0  0  0
   26.2788  -18.2032   -0.9009 N   0  0  0  0  0  4  0  0  0  0  0  0
   28.8416  -18.8415   -3.3377 N   0  0  0  0  0  4  0  0  0  0  0  0
   19.5354  -15.1354   -1.8863 O   0  0  0  0  0  3  0  0  0  0  0  0
   21.1543  -13.8125   -0.3700 O   0  0  0  0  0  0  0  0  0  0  0  0
   23.4456  -11.2492   -0.9951 O   0  0  0  0  0  1  0  0  0  0  0  0
   21.7260  -10.8408    0.4182 O   0  0  0  0  0  0  0  0  0  0  0  0
   19.6013  -19.4316    0.7958 O   0  0  0  0  0  0  0  0  0  0  0  0
 10  1  1  0
  1 24  1  0
  1 25  1  0
  2  3  2  0
  8  2  1  0
 25  2  1  0
  3  4  1  0
  3  5  1  0
  4 26  1  0
  4 27  2  0
  6  5  2  0
  7  6  1  0
  8  7  2  0
  9  8  1  0
 10  9  1  0
 10 21  1  6
 12 11  1  0
 11 21  1  0
 11 28  2  0
 13 12  1  6
 14 13  1  0
 13 20  1  0
 15 14  1  0
 16 15  1  0
 16 19  1  0
 16 22  1  1
 17 18  1  0
 17 22  1  0
 18 23  1  0
 19 20  1  0
M  CHG  4  22   1  23   1  24   1  26  -1
M  END
$$$$
