
     RDKit          3D

 28 30  0  0  0  0  0  0  0  0999 V2000
   20.3094  -14.4492   -0.0288 B   0  0  0  0  0  0  0  0  0  0  0  0
   22.4164  -13.5428    0.8584 C   0  0  0  0  0  0  0  0  0  0  0  0
   23.2280  -12.4550    1.1274 C   0  0  0  0  0  0  0  0  0  0  0  0
   22.7524  -11.1335    0.7767 C   0  0  0  0  0  0  0  0  0  0  0  0
   24.4563  -12.6622    1.7169 C   0  0  0  0  0  0  0  0  0  0  0  0
   24.9018  -13.9246    2.0476 C   0  0  0  0  0  0  0  0  0  0  0  0
   24.0733  -14.9895    1.7685 C   0  0  0  0  0  0  0  0  0  0  0  0
   22.8170  -14.8203    1.1697 C   0  0  0  0  0  0  0  0  0  0  0  0
   22.0501  -16.0527    0.9352 C   0  0  0  0  0  0  0  0  0  0  0  0
   20.5645  -15.7671    0.8525 C   0  0  2  0  0  0  0  0  0  0  0  0
   20.2329  -17.6645   -0.7731 C   0  0  0  0  0  0  0  0  0  0  0  0
   21.3850  -18.5860   -0.6819 C   0  0  0  0  0  0  0  0  0  0  0  0
   22.4598  -18.0028    0.1544 C   0  0  2  0  0  0  0  0  0  0  0  0
   23.6165  -17.4014   -0.5507 C   0  0  0  0  0  0  0  0  0  0  0  0
   24.3654  -18.4848   -1.2829 C   0  0  0  0  0  0  0  0  0  0  0  0
   24.8617  -19.5746   -0.3763 C   0  0  2  0  0  0  0  0  0  0  0  0
   26.9527  -20.3325    0.5413 C   0  0  0  0  0  0  0  0  0  0  0  0
   28.4149  -19.9851    0.5013 C   0  0  0  0  0  0  0  0  0  0  0  0
   23.8776  -20.0107    0.6567 C   0  0  0  0  0  0  0  0  0  0  0  0
   22.9991  -18.9498    1.1968 C   0  0  0  0  0  0  0  0  0  0  0  0
   19.8131  -16.8827    0.3699 N   0  0  0  0  0  0  0  0  0  0  0  0
   26.1210  -19.1828    0.2326 N   0  0  0  0  0  4  0  0  0  0  0  0
   28.7091  -19.5227   -0.8516 N   0  0  0  0  0  4  0  0  0  0  0  0
   19.2318  -14.3918   -1.0144 O   0  0  0  0  0  3  0  0  0  0  0  0
   21.1920  -13.3035    0.2674 O   0  0  0  0  0  0  0  0  0  0  0  0
   23.0198  -10.0672    1.6204 O   0  0  0  0  0  1  0  0  0  0  0  0
   22.1077  -10.9257   -0.2643 O   0  0  0  0  0  0  0  0  0  0  0  0
   19.5348  -17.4754   -1.8013 O   0  0  0  0  0  0  0  0  0  0  0  0
 10  1  1  0
  1 24  1  0
  1 25  1  0
  2  3  2  0
  8  2  1  0
 25  2  1  0
  3  4  1  0
  3  5  1  0
  4 26  1  0
  4 27  2  0
  6  5  2  0
  7  6  1  0
  8  7  2  0
  9  8  1  0
 10  9  1  0
 10 21  1  6
 12 11  1  0
 11 21  1  0
 11 28  2  0
 13 12  1  6
 14 13  1  0
 13 20  1  0
 15 14  1  0
 16 15  1  0
 16 19  1  0
 16 22  1  1
 17 18  1  0
 17 22  1  0
 18 23  1  0
 19 20  1  0
M  CHG  4  22   1  23   1  24   1  26  -1
M  END
$$$$
