
     RDKit          3D

 28 30  0  0  0  0  0  0  0  0999 V2000
   15.2685   19.8848   23.1960 B   0  0  0  0  0  0  0  0  0  0  0  0
   12.8159   20.0657   23.1909 C   0  0  0  0  0  0  0  0  0  0  0  0
   11.5751   19.4704   23.3347 C   0  0  0  0  0  0  0  0  0  0  0  0
   11.5173   18.0559   23.6367 C   0  0  0  0  0  0  0  0  0  0  0  0
   10.4401   20.2380   23.1866 C   0  0  0  0  0  0  0  0  0  0  0  0
   10.5043   21.5849   22.8987 C   0  0  0  0  0  0  0  0  0  0  0  0
   11.7526   22.1516   22.7609 C   0  0  0  0  0  0  0  0  0  0  0  0
   12.9305   21.4050   22.9040 C   0  0  0  0  0  0  0  0  0  0  0  0
   14.1851   22.1513   22.7274 C   0  0  0  0  0  0  0  0  0  0  0  0
   15.3340   21.4703   23.4426 C   0  0  2  0  0  0  0  0  0  0  0  0
   16.7626   23.0030   22.0418 C   0  0  0  0  0  0  0  0  0  0  0  0
   16.3868   24.4138   22.2724 C   0  0  0  0  0  0  0  0  0  0  0  0
   17.4267   25.1126   23.0629 C   0  0  2  0  0  0  0  0  0  0  0  0
   17.0254   26.3563   23.7619 C   0  0  0  0  0  0  0  0  0  0  0  0
   16.6753   27.4059   22.7390 C   0  0  0  0  0  0  0  0  0  0  0  0
   17.8078   27.7182   21.8032 C   0  0  2  0  0  0  0  0  0  0  0  0
   19.1973   29.6498   21.4470 C   0  0  0  0  0  0  0  0  0  0  0  0
   20.3984   30.3906   21.9655 C   0  0  0  0  0  0  0  0  0  0  0  0
   18.5516   26.5198   21.3169 C   0  0  0  0  0  0  0  0  0  0  0  0
   18.6841   25.4085   22.2845 C   0  0  0  0  0  0  0  0  0  0  0  0
   16.6070   22.0116   23.0842 N   0  0  0  0  0  0  0  0  0  0  0  0
   18.7081   28.6816   22.4125 N   0  0  0  0  0  4  0  0  0  0  0  0
   20.5864   29.9840   23.3548 N   0  0  0  0  0  4  0  0  0  0  0  0
   16.4732   19.1121   22.9001 O   0  0  0  0  0  3  0  0  0  0  0  0
   13.9342   19.2710   23.3450 O   0  0  0  0  0  0  0  0  0  0  0  0
   11.8052   17.1346   22.6423 O   0  0  0  0  0  1  0  0  0  0  0  0
   11.2155   17.6407   24.7677 O   0  0  0  0  0  0  0  0  0  0  0  0
   17.2324   22.5433   20.9702 O   0  0  0  0  0  0  0  0  0  0  0  0
 10  1  1  0
  1 24  1  0
  1 25  1  0
  2  3  2  0
  8  2  1  0
 25  2  1  0
  3  4  1  0
  3  5  1  0
  4 26  1  0
  4 27  2  0
  6  5  2  0
  7  6  1  0
  8  7  2  0
  9  8  1  0
 10  9  1  0
 10 21  1  6
 12 11  1  0
 11 21  1  0
 11 28  2  0
 13 12  1  6
 14 13  1  0
 13 20  1  0
 15 14  1  0
 16 15  1  0
 16 19  1  0
 16 22  1  1
 17 18  1  0
 17 22  1  0
 18 23  1  0
 19 20  1  0
M  CHG  4  22   1  23   1  24   1  26  -1
M  END
$$$$
