
     RDKit          3D

 13 13  0  0  0  0  0  0  0  0999 V2000
  -22.6858   14.7981  -12.0739 C   0  0  0  0  0  0  0  0  0  0  0  0
  -22.6117   15.7456  -13.1181 C   0  0  0  0  0  0  0  0  0  0  0  0
  -22.6772   17.0883  -12.8350 C   0  0  0  0  0  0  0  0  0  0  0  0
  -22.6021   18.0093  -13.8812 O   0  0  0  0  0  0  0  0  0  0  0  0
  -22.8147   17.5542  -11.5499 C   0  0  0  0  0  0  0  0  0  0  0  0
  -22.8756   18.9199  -11.3219 O   0  0  0  0  0  0  0  0  0  0  0  0
  -22.8880   16.6506  -10.5275 C   0  0  0  0  0  0  0  0  0  0  0  0
  -22.8226   15.2695  -10.7981 C   0  0  0  0  0  0  0  0  0  0  0  0
  -22.6142   13.4042  -12.4047 C   0  0  0  0  0  0  0  0  0  0  0  0
  -22.0764   12.6832  -13.3025 C   0  0  0  0  0  0  0  0  0  0  0  0
  -21.8384   11.2900  -13.4651 C   0  0  0  0  0  0  0  0  0  0  0  0
  -22.3277   10.7100  -14.5073 O   0  0  0  0  0  0  0  0  0  0  0  0
  -21.6530   17.8243  -14.9301 C   0  0  0  0  0  0  0  0  0  0  0  0
  1  2  2  0
  1  8  1  0
  1  9  1  0
  2  3  1  0
  3  4  1  0
  3  5  2  0
  4 13  1  0
  5  6  1  0
  5  7  1  0
  7  8  2  0
  9 10  2  0
 10 11  1  0
 11 12  2  0
M  END
$$$$
