
     RDKit          3D

 13 13  0  0  0  0  0  0  0  0999 V2000
  -22.7799   14.7086  -11.7895 C   0  0  0  0  0  0  0  0  0  0  0  0
  -22.5935   15.7148  -12.7623 C   0  0  0  0  0  0  0  0  0  0  0  0
  -22.7814   17.0350  -12.4318 C   0  0  0  0  0  0  0  0  0  0  0  0
  -22.5921   18.0149  -13.4076 O   0  0  0  0  0  0  0  0  0  0  0  0
  -23.1510   17.4217  -11.1664 C   0  0  0  0  0  0  0  0  0  0  0  0
  -23.3268   18.7681  -10.8882 O   0  0  0  0  0  0  0  0  0  0  0  0
  -23.3357   16.4606  -10.2129 C   0  0  0  0  0  0  0  0  0  0  0  0
  -23.1477   15.1015  -10.5329 C   0  0  0  0  0  0  0  0  0  0  0  0
  -22.5754   13.3403  -12.1684 C   0  0  0  0  0  0  0  0  0  0  0  0
  -22.1737   12.7044  -13.1928 C   0  0  0  0  0  0  0  0  0  0  0  0
  -21.8911   11.3406  -13.4833 C   0  0  0  0  0  0  0  0  0  0  0  0
  -22.2615   10.8762  -14.6275 O   0  0  0  0  0  0  0  0  0  0  0  0
  -22.7174   17.6820  -14.7891 C   0  0  0  0  0  0  0  0  0  0  0  0
  1  2  2  0
  1  8  1  0
  1  9  1  0
  2  3  1  0
  3  4  1  0
  3  5  2  0
  4 13  1  0
  5  6  1  0
  5  7  1  0
  7  8  2  0
  9 10  2  0
 10 11  1  0
 11 12  2  0
M  END
$$$$
