
     RDKit          3D

 13 13  0  0  0  0  0  0  0  0999 V2000
  -22.8065   14.5587  -12.0293 C   0  0  0  0  0  0  0  0  0  0  0  0
  -22.7362   15.5780  -13.0039 C   0  0  0  0  0  0  0  0  0  0  0  0
  -22.7967   16.8973  -12.6258 C   0  0  0  0  0  0  0  0  0  0  0  0
  -22.7255   17.8902  -13.6042 O   0  0  0  0  0  0  0  0  0  0  0  0
  -22.9254   17.2708  -11.3100 C   0  0  0  0  0  0  0  0  0  0  0  0
  -22.9815   18.6170  -10.9850 O   0  0  0  0  0  0  0  0  0  0  0  0
  -22.9949   16.2970  -10.3540 C   0  0  0  0  0  0  0  0  0  0  0  0
  -22.9346   14.9385  -10.7224 C   0  0  0  0  0  0  0  0  0  0  0  0
  -22.7404   13.1917  -12.4588 C   0  0  0  0  0  0  0  0  0  0  0  0
  -23.1013   12.5113  -13.4697 C   0  0  0  0  0  0  0  0  0  0  0  0
  -22.9688   11.1513  -13.8662 C   0  0  0  0  0  0  0  0  0  0  0  0
  -22.0051   10.8452  -14.6659 O   0  0  0  0  0  0  0  0  0  0  0  0
  -22.6534   17.5314  -14.9831 C   0  0  0  0  0  0  0  0  0  0  0  0
  1  2  2  0
  1  8  1  0
  1  9  1  0
  2  3  1  0
  3  4  1  0
  3  5  2  0
  4 13  1  0
  5  6  1  0
  5  7  1  0
  7  8  2  0
  9 10  2  0
 10 11  1  0
 11 12  2  0
M  END
$$$$
