
     RDKit          3D

 13 13  0  0  0  0  0  0  0  0999 V2000
  -23.0788   14.7869  -12.2503 C   0  0  0  0  0  0  0  0  0  0  0  0
  -23.0206   15.8149  -13.2164 C   0  0  0  0  0  0  0  0  0  0  0  0
  -22.9725   17.1295  -12.8206 C   0  0  0  0  0  0  0  0  0  0  0  0
  -22.9153   18.1313  -13.7910 O   0  0  0  0  0  0  0  0  0  0  0  0
  -22.9790   17.4900  -11.4949 C   0  0  0  0  0  0  0  0  0  0  0  0
  -22.9290   18.8320  -11.1522 O   0  0  0  0  0  0  0  0  0  0  0  0
  -23.0351   16.5075  -10.5469 C   0  0  0  0  0  0  0  0  0  0  0  0
  -23.0849   15.1536  -10.9334 C   0  0  0  0  0  0  0  0  0  0  0  0
  -23.1279   13.4251  -12.6982 C   0  0  0  0  0  0  0  0  0  0  0  0
  -23.1763   12.8075  -13.8078 C   0  0  0  0  0  0  0  0  0  0  0  0
  -23.1235   11.4414  -14.2019 C   0  0  0  0  0  0  0  0  0  0  0  0
  -21.9637   10.8947  -14.3362 O   0  0  0  0  0  0  0  0  0  0  0  0
  -22.3127   17.8671  -15.0568 C   0  0  0  0  0  0  0  0  0  0  0  0
  1  2  2  0
  1  8  1  0
  1  9  1  0
  2  3  1  0
  3  4  1  0
  3  5  2  0
  4 13  1  0
  5  6  1  0
  5  7  1  0
  7  8  2  0
  9 10  2  0
 10 11  1  0
 11 12  2  0
M  END
$$$$
