
     RDKit          3D

 13 13  0  0  0  0  0  0  0  0999 V2000
  -22.6449   14.5239  -12.3591 C   0  0  0  0  0  0  0  0  0  0  0  0
  -22.6752   15.8011  -12.9604 C   0  0  0  0  0  0  0  0  0  0  0  0
  -22.8560   16.9219  -12.1869 C   0  0  0  0  0  0  0  0  0  0  0  0
  -22.8830   18.1755  -12.8002 O   0  0  0  0  0  0  0  0  0  0  0  0
  -23.0114   16.8468  -10.8240 C   0  0  0  0  0  0  0  0  0  0  0  0
  -23.1906   18.0103  -10.0923 O   0  0  0  0  0  0  0  0  0  0  0  0
  -22.9846   15.6185  -10.2260 C   0  0  0  0  0  0  0  0  0  0  0  0
  -22.8003   14.4576  -11.0027 C   0  0  0  0  0  0  0  0  0  0  0  0
  -22.4543   13.3748  -13.1963 C   0  0  0  0  0  0  0  0  0  0  0  0
  -22.4044   13.1233  -14.4410 C   0  0  0  0  0  0  0  0  0  0  0  0
  -21.8965   12.0553  -15.2319 C   0  0  0  0  0  0  0  0  0  0  0  0
  -21.9561   10.8621  -14.7476 O   0  0  0  0  0  0  0  0  0  0  0  0
  -22.0500   18.4379  -13.9281 C   0  0  0  0  0  0  0  0  0  0  0  0
  1  2  2  0
  1  8  1  0
  1  9  1  0
  2  3  1  0
  3  4  1  0
  3  5  2  0
  4 13  1  0
  5  6  1  0
  5  7  1  0
  7  8  2  0
  9 10  2  0
 10 11  1  0
 11 12  2  0
M  END
$$$$
