
     RDKit          3D

 13 13  0  0  0  0  0  0  0  0999 V2000
  -22.6621   14.7118  -12.1964 C   0  0  0  0  0  0  0  0  0  0  0  0
  -22.4084   15.6980  -13.1746 C   0  0  0  0  0  0  0  0  0  0  0  0
  -22.6431   17.0222  -12.8941 C   0  0  0  0  0  0  0  0  0  0  0  0
  -22.3859   17.9819  -13.8744 O   0  0  0  0  0  0  0  0  0  0  0  0
  -23.1247   17.4323  -11.6746 C   0  0  0  0  0  0  0  0  0  0  0  0
  -23.3433   18.7817  -11.4458 O   0  0  0  0  0  0  0  0  0  0  0  0
  -23.3757   16.4908  -10.7166 C   0  0  0  0  0  0  0  0  0  0  0  0
  -23.1412   15.1280  -10.9857 C   0  0  0  0  0  0  0  0  0  0  0  0
  -22.4060   13.3387  -12.5226 C   0  0  0  0  0  0  0  0  0  0  0  0
  -22.3093   12.6300  -13.5731 C   0  0  0  0  0  0  0  0  0  0  0  0
  -21.8615   11.3101  -13.8584 C   0  0  0  0  0  0  0  0  0  0  0  0
  -22.5816   10.5829  -14.6424 O   0  0  0  0  0  0  0  0  0  0  0  0
  -23.4011   18.3365  -14.8118 C   0  0  0  0  0  0  0  0  0  0  0  0
  1  2  2  0
  1  8  1  0
  1  9  1  0
  2  3  1  0
  3  4  1  0
  3  5  2  0
  4 13  1  0
  5  6  1  0
  5  7  1  0
  7  8  2  0
  9 10  2  0
 10 11  1  0
 11 12  2  0
M  END
$$$$
