
     RDKit          3D

 13 13  0  0  0  0  0  0  0  0999 V2000
  -22.5608   13.8513  -12.9235 C   0  0  0  0  0  0  0  0  0  0  0  0
  -22.3824   13.6725  -14.2755 C   0  0  0  0  0  0  0  0  0  0  0  0
  -22.3197   12.4290  -14.8635 C   0  0  0  0  0  0  0  0  0  0  0  0
  -22.1416   12.2886  -16.2096 O   0  0  0  0  0  0  0  0  0  0  0  0
  -22.4443   11.3388  -14.0353 C   0  0  0  0  0  0  0  0  0  0  0  0
  -22.3882   10.0731  -14.5760 O   0  0  0  0  0  0  0  0  0  0  0  0
  -22.6242   11.4721  -12.6761 C   0  0  0  0  0  0  0  0  0  0  0  0
  -22.6829   12.7499  -12.1148 C   0  0  0  0  0  0  0  0  0  0  0  0
  -22.6158   15.1842  -12.3840 C   0  0  0  0  0  0  0  0  0  0  0  0
  -22.2437   16.2713  -13.0326 C   0  0  0  0  0  0  0  0  0  0  0  0
  -22.1626   17.5638  -12.3696 C   0  0  0  0  0  0  0  0  0  0  0  0
  -23.0191   18.4560  -12.5321 O   0  0  0  0  0  0  0  0  0  0  0  0
  -22.0075   13.3292  -17.1269 C   0  0  0  0  0  0  0  0  0  0  0  0
  1  2  2  0
  1  8  1  0
  1  9  1  0
  2  3  1  0
  3  4  1  0
  3  5  2  0
 13  4  1  6
  5  6  1  0
  5  7  1  0
  7  8  2  0
  9 10  2  0
 10 11  1  0
 11 12  2  0
M  END
$$$$
