
     RDKit          3D

 13 13  0  0  0  0  0  0  0  0999 V2000
  -22.9491   14.6255  -11.8847 C   0  0  0  0  0  0  0  0  0  0  0  0
  -22.8105   15.5795  -12.8657 C   0  0  0  0  0  0  0  0  0  0  0  0
  -22.9249   16.9291  -12.6178 C   0  0  0  0  0  0  0  0  0  0  0  0
  -22.7813   17.8488  -13.6162 O   0  0  0  0  0  0  0  0  0  0  0  0
  -23.1895   17.3067  -11.3226 C   0  0  0  0  0  0  0  0  0  0  0  0
  -23.3130   18.6457  -11.0239 O   0  0  0  0  0  0  0  0  0  0  0  0
  -23.3358   16.3848  -10.3095 C   0  0  0  0  0  0  0  0  0  0  0  0
  -23.2130   15.0237  -10.5986 C   0  0  0  0  0  0  0  0  0  0  0  0
  -22.8154   13.2333  -12.2231 C   0  0  0  0  0  0  0  0  0  0  0  0
  -22.5117   12.7798  -13.4244 C   0  0  0  0  0  0  0  0  0  0  0  0
  -22.2852   11.3637  -13.6694 C   0  0  0  0  0  0  0  0  0  0  0  0
  -22.4973   10.8324  -14.7779 O   0  0  0  0  0  0  0  0  0  0  0  0
  -22.3623   17.5799  -14.9179 C   0  0  0  0  0  0  0  0  0  0  0  0
  1  2  2  0
  1  8  1  0
  1  9  1  0
  2  3  1  0
  3  4  1  0
  3  5  2  0
 13  4  1  6
  5  6  1  0
  5  7  1  0
  7  8  2  0
  9 10  2  0
 10 11  1  0
 11 12  2  0
M  END
$$$$
