
     RDKit          3D

 13 13  0  0  0  0  0  0  0  0999 V2000
  -23.1746   14.6967  -12.1393 C   0  0  0  0  0  0  0  0  0  0  0  0
  -23.0510   15.6789  -13.1462 C   0  0  0  0  0  0  0  0  0  0  0  0
  -23.2024   17.0080  -12.8335 C   0  0  0  0  0  0  0  0  0  0  0  0
  -23.0764   17.9637  -13.8429 O   0  0  0  0  0  0  0  0  0  0  0  0
  -23.4747   17.4270  -11.5537 C   0  0  0  0  0  0  0  0  0  0  0  0
  -23.6175   18.7810  -11.2947 O   0  0  0  0  0  0  0  0  0  0  0  0
  -23.5975   16.4894  -10.5673 C   0  0  0  0  0  0  0  0  0  0  0  0
  -23.4456   15.1216  -10.8686 C   0  0  0  0  0  0  0  0  0  0  0  0
  -23.0107   13.3182  -12.5004 C   0  0  0  0  0  0  0  0  0  0  0  0
  -22.6649   12.6563  -13.5287 C   0  0  0  0  0  0  0  0  0  0  0  0
  -22.4657   11.2775  -13.8174 C   0  0  0  0  0  0  0  0  0  0  0  0
  -22.7741   10.8551  -14.9958 O   0  0  0  0  0  0  0  0  0  0  0  0
  -22.2214   17.7176  -14.9581 C   0  0  0  0  0  0  0  0  0  0  0  0
  1  2  2  0
  1  8  1  0
  1  9  1  0
  2  3  1  0
  3  4  1  0
  3  5  2  0
  4 13  1  0
  5  6  1  0
  5  7  1  0
  7  8  2  0
  9 10  2  0
 10 11  1  0
 11 12  2  0
M  END
$$$$
