
     RDKit          3D

 13 13  0  0  0  0  0  0  0  0999 V2000
  -22.6521   13.9081  -12.9569 C   0  0  0  0  0  0  0  0  0  0  0  0
  -22.4222   13.7652  -14.3427 C   0  0  0  0  0  0  0  0  0  0  0  0
  -22.2769   12.5139  -14.8909 C   0  0  0  0  0  0  0  0  0  0  0  0
  -22.0503   12.3936  -16.2629 O   0  0  0  0  0  0  0  0  0  0  0  0
  -22.3480   11.3736  -14.1279 C   0  0  0  0  0  0  0  0  0  0  0  0
  -22.1941   10.1365  -14.7336 O   0  0  0  0  0  0  0  0  0  0  0  0
  -22.5700   11.4940  -12.7850 C   0  0  0  0  0  0  0  0  0  0  0  0
  -22.7215   12.7688  -12.2047 C   0  0  0  0  0  0  0  0  0  0  0  0
  -22.7991   15.2291  -12.4175 C   0  0  0  0  0  0  0  0  0  0  0  0
  -22.9604   16.4080  -12.8637 C   0  0  0  0  0  0  0  0  0  0  0  0
  -23.1884   17.6835  -12.2762 C   0  0  0  0  0  0  0  0  0  0  0  0
  -22.4151   18.6557  -12.6211 O   0  0  0  0  0  0  0  0  0  0  0  0
  -21.9000   13.5616  -17.0680 C   0  0  0  0  0  0  0  0  0  0  0  0
  1  2  2  0
  1  8  1  0
  1  9  1  0
  2  3  1  0
  3  4  1  0
  3  5  2  0
  4 13  1  0
  5  6  1  0
  5  7  1  0
  7  8  2  0
  9 10  2  0
 10 11  1  0
 11 12  2  0
M  END
$$$$
