
     RDKit          3D

 13 13  0  0  0  0  0  0  0  0999 V2000
  -22.7904   15.2332  -13.5444 C   0  0  0  0  0  0  0  0  0  0  0  0
  -23.2838   16.2885  -12.8133 C   0  0  0  0  0  0  0  0  0  0  0  0
  -23.2621   17.5881  -13.2676 C   0  0  0  0  0  0  0  0  0  0  0  0
  -23.7610   18.6117  -12.5148 O   0  0  0  0  0  0  0  0  0  0  0  0
  -22.7167   17.8069  -14.5105 C   0  0  0  0  0  0  0  0  0  0  0  0
  -22.6719   19.0900  -15.0094 O   0  0  0  0  0  0  0  0  0  0  0  0
  -22.2112   16.7795  -15.2763 C   0  0  0  0  0  0  0  0  0  0  0  0
  -22.2503   15.4734  -14.7825 C   0  0  0  0  0  0  0  0  0  0  0  0
  -22.8491   13.9024  -13.0003 C   0  0  0  0  0  0  0  0  0  0  0  0
  -22.4392   12.8170  -13.6286 C   0  0  0  0  0  0  0  0  0  0  0  0
  -22.4505   11.5130  -12.9835 C   0  0  0  0  0  0  0  0  0  0  0  0
  -22.7989   10.4733  -13.5782 O   0  0  0  0  0  0  0  0  0  0  0  0
  -23.1757   19.1378  -11.3647 C   0  0  0  0  0  0  0  0  0  0  0  0
  1  2  2  0
  1  8  1  0
  1  9  1  0
  2  3  1  0
  3  4  1  0
  3  5  2  0
 13  4  1  6
  5  6  1  0
  5  7  1  0
  7  8  2  0
  9 10  2  0
 10 11  1  0
 11 12  2  0
M  END
$$$$
