
     RDKit          3D

 13 13  0  0  0  0  0  0  0  0999 V2000
  -22.5145   14.8868  -12.4507 C   0  0  0  0  0  0  0  0  0  0  0  0
  -22.7182   16.1067  -13.0524 C   0  0  0  0  0  0  0  0  0  0  0  0
  -23.0791   17.2354  -12.3513 C   0  0  0  0  0  0  0  0  0  0  0  0
  -23.2731   18.4307  -12.9815 O   0  0  0  0  0  0  0  0  0  0  0  0
  -23.2346   17.1039  -10.9917 C   0  0  0  0  0  0  0  0  0  0  0  0
  -23.5950   18.2046  -10.2460 O   0  0  0  0  0  0  0  0  0  0  0  0
  -23.0407   15.9014  -10.3483 C   0  0  0  0  0  0  0  0  0  0  0  0
  -22.6750   14.7773  -11.0925 C   0  0  0  0  0  0  0  0  0  0  0  0
  -22.1386   13.7527  -13.2524 C   0  0  0  0  0  0  0  0  0  0  0  0
  -22.0607   12.5130  -12.8075 C   0  0  0  0  0  0  0  0  0  0  0  0
  -21.5264   11.4397  -13.6317 C   0  0  0  0  0  0  0  0  0  0  0  0
  -22.2571   10.6689  -14.2857 O   0  0  0  0  0  0  0  0  0  0  0  0
  -22.2758   19.3400  -13.3292 C   0  0  0  0  0  0  0  0  0  0  0  0
  1  2  2  0
  1  8  1  0
  1  9  1  0
  2  3  1  0
  3  4  1  0
  3  5  2  0
 13  4  1  6
  5  6  1  0
  5  7  1  0
  7  8  2  0
  9 10  2  0
 10 11  1  0
 11 12  2  0
M  END
$$$$
