
     RDKit          3D

 13 13  0  0  0  0  0  0  0  0999 V2000
  -23.2127   14.5791  -12.1295 C   0  0  0  0  0  0  0  0  0  0  0  0
  -23.1303   15.4887  -13.1579 C   0  0  0  0  0  0  0  0  0  0  0  0
  -23.2014   16.8495  -12.9601 C   0  0  0  0  0  0  0  0  0  0  0  0
  -23.1159   17.7240  -14.0048 O   0  0  0  0  0  0  0  0  0  0  0  0
  -23.3619   17.2858  -11.6663 C   0  0  0  0  0  0  0  0  0  0  0  0
  -23.4384   18.6383  -11.4168 O   0  0  0  0  0  0  0  0  0  0  0  0
  -23.4489   16.4098  -10.6067 C   0  0  0  0  0  0  0  0  0  0  0  0
  -23.3728   15.0356  -10.8457 C   0  0  0  0  0  0  0  0  0  0  0  0
  -23.1299   13.1717  -12.4171 C   0  0  0  0  0  0  0  0  0  0  0  0
  -22.5766   12.6591  -13.4997 C   0  0  0  0  0  0  0  0  0  0  0  0
  -22.3943   11.2242  -13.6558 C   0  0  0  0  0  0  0  0  0  0  0  0
  -22.7348   10.6132  -14.6886 O   0  0  0  0  0  0  0  0  0  0  0  0
  -22.1478   18.7141  -14.1617 C   0  0  0  0  0  0  0  0  0  0  0  0
  1  2  2  0
  1  8  1  0
  1  9  1  0
  2  3  1  0
  3  4  1  0
  3  5  2  0
 13  4  1  6
  5  6  1  0
  5  7  1  0
  7  8  2  0
  9 10  2  0
 10 11  1  0
 11 12  2  0
M  END
$$$$
