
     RDKit          3D

 13 13  0  0  0  0  0  0  0  0999 V2000
  -23.0825   14.7864  -12.1875 C   0  0  0  0  0  0  0  0  0  0  0  0
  -22.9290   15.5702  -13.3073 C   0  0  0  0  0  0  0  0  0  0  0  0
  -22.9870   16.9454  -13.2711 C   0  0  0  0  0  0  0  0  0  0  0  0
  -22.8301   17.6925  -14.4028 O   0  0  0  0  0  0  0  0  0  0  0  0
  -23.2095   17.5298  -12.0468 C   0  0  0  0  0  0  0  0  0  0  0  0
  -23.2760   18.9029  -11.9586 O   0  0  0  0  0  0  0  0  0  0  0  0
  -23.3688   16.7831  -10.9003 C   0  0  0  0  0  0  0  0  0  0  0  0
  -23.3037   15.3898  -10.9754 C   0  0  0  0  0  0  0  0  0  0  0  0
  -23.0087   13.3543  -12.3068 C   0  0  0  0  0  0  0  0  0  0  0  0
  -23.1580   12.6875  -13.4356 C   0  0  0  0  0  0  0  0  0  0  0  0
  -22.9093   11.2561  -13.5136 C   0  0  0  0  0  0  0  0  0  0  0  0
  -22.1759   10.7493  -14.3860 O   0  0  0  0  0  0  0  0  0  0  0  0
  -23.6630   18.7307  -14.8159 C   0  0  0  0  0  0  0  0  0  0  0  0
  1  2  2  0
  1  8  1  0
  1  9  1  0
  2  3  1  0
  3  4  1  0
  3  5  2  0
 13  4  1  6
  5  6  1  0
  5  7  1  0
  7  8  2  0
  9 10  2  0
 10 11  1  0
 11 12  2  0
M  END
$$$$
