
     RDKit          3D

 13 13  0  0  0  0  0  0  0  0999 V2000
  -22.7609   14.7323  -11.8883 C   0  0  0  0  0  0  0  0  0  0  0  0
  -22.6047   15.6499  -12.9501 C   0  0  0  0  0  0  0  0  0  0  0  0
  -22.7592   16.9962  -12.7247 C   0  0  0  0  0  0  0  0  0  0  0  0
  -22.6008   17.8872  -13.7874 O   0  0  0  0  0  0  0  0  0  0  0  0
  -23.0658   17.4943  -11.4816 C   0  0  0  0  0  0  0  0  0  0  0  0
  -23.2102   18.8622  -11.3111 O   0  0  0  0  0  0  0  0  0  0  0  0
  -23.2204   16.6200  -10.4429 C   0  0  0  0  0  0  0  0  0  0  0  0
  -23.0658   15.2358  -10.6546 C   0  0  0  0  0  0  0  0  0  0  0  0
  -22.5926   13.3337  -12.1587 C   0  0  0  0  0  0  0  0  0  0  0  0
  -22.4018   12.5946  -13.1748 C   0  0  0  0  0  0  0  0  0  0  0  0
  -22.2943   11.1928  -13.3931 C   0  0  0  0  0  0  0  0  0  0  0  0
  -22.4801   10.7507  -14.5898 O   0  0  0  0  0  0  0  0  0  0  0  0
  -22.3956   17.3935  -15.1100 C   0  0  0  0  0  0  0  0  0  0  0  0
  1  2  2  0
  1  8  1  0
  1  9  1  0
  2  3  1  0
  3  4  1  0
  3  5  2  0
  4 13  1  0
  5  6  1  0
  5  7  1  0
  7  8  2  0
  9 10  2  0
 10 11  1  0
 11 12  2  0
M  END
$$$$
