
     RDKit          3D

 13 13  0  0  0  0  0  0  0  0999 V2000
  -22.7670   14.8524  -11.8998 C   0  0  0  0  0  0  0  0  0  0  0  0
  -22.5286   15.8651  -12.8544 C   0  0  0  0  0  0  0  0  0  0  0  0
  -22.6894   17.1857  -12.5117 C   0  0  0  0  0  0  0  0  0  0  0  0
  -22.4488   18.1720  -13.4697 O   0  0  0  0  0  0  0  0  0  0  0  0
  -23.0810   17.5668  -11.2512 C   0  0  0  0  0  0  0  0  0  0  0  0
  -23.2276   18.9139  -10.9602 O   0  0  0  0  0  0  0  0  0  0  0  0
  -23.3158   16.5994  -10.3153 C   0  0  0  0  0  0  0  0  0  0  0  0
  -23.1562   15.2397  -10.6480 C   0  0  0  0  0  0  0  0  0  0  0  0
  -22.5895   13.4838  -12.2911 C   0  0  0  0  0  0  0  0  0  0  0  0
  -22.0950   12.8499  -13.2753 C   0  0  0  0  0  0  0  0  0  0  0  0
  -21.8204   11.4823  -13.5554 C   0  0  0  0  0  0  0  0  0  0  0  0
  -22.2464   10.9955  -14.6706 O   0  0  0  0  0  0  0  0  0  0  0  0
  -22.5846   17.8695  -14.8572 C   0  0  0  0  0  0  0  0  0  0  0  0
  1  2  2  0
  1  8  1  0
  1  9  1  0
  2  3  1  0
  3  4  1  0
  3  5  2  0
  4 13  1  0
  5  6  1  0
  5  7  1  0
  7  8  2  0
  9 10  2  0
 10 11  1  0
 11 12  2  0
M  END
$$$$
