
     RDKit          3D

 13 13  0  0  0  0  0  0  0  0999 V2000
  -22.9452   15.2149  -13.3357 C   0  0  0  0  0  0  0  0  0  0  0  0
  -23.0983   16.1357  -12.2763 C   0  0  0  0  0  0  0  0  0  0  0  0
  -23.1878   17.4808  -12.5409 C   0  0  0  0  0  0  0  0  0  0  0  0
  -23.3389   18.3751  -11.4799 O   0  0  0  0  0  0  0  0  0  0  0  0
  -23.1330   17.9745  -13.8218 C   0  0  0  0  0  0  0  0  0  0  0  0
  -23.2284   19.3413  -14.0311 O   0  0  0  0  0  0  0  0  0  0  0  0
  -22.9851   17.0970  -14.8587 C   0  0  0  0  0  0  0  0  0  0  0  0
  -22.8916   15.7140  -14.6071 C   0  0  0  0  0  0  0  0  0  0  0  0
  -22.8550   13.8177  -13.0238 C   0  0  0  0  0  0  0  0  0  0  0  0
  -23.1350   12.7142  -13.5886 C   0  0  0  0  0  0  0  0  0  0  0  0
  -22.3775   11.6129  -14.0759 C   0  0  0  0  0  0  0  0  0  0  0  0
  -22.5237   10.4724  -13.4927 O   0  0  0  0  0  0  0  0  0  0  0  0
  -23.4697   17.8865  -10.1460 C   0  0  0  0  0  0  0  0  0  0  0  0
  1  2  2  0
  1  8  1  0
  1  9  1  0
  2  3  1  0
  3  4  1  0
  3  5  2  0
  4 13  1  0
  5  6  1  0
  5  7  1  0
  7  8  2  0
  9 10  2  0
 10 11  1  0
 11 12  2  0
M  END
$$$$
