
     RDKit          3D

 13 13  0  0  0  0  0  0  0  0999 V2000
  -23.0113   14.8260  -12.3483 C   0  0  0  0  0  0  0  0  0  0  0  0
  -22.8199   16.0445  -12.9569 C   0  0  0  0  0  0  0  0  0  0  0  0
  -22.8453   17.2365  -12.2683 C   0  0  0  0  0  0  0  0  0  0  0  0
  -22.6512   18.4284  -12.9050 O   0  0  0  0  0  0  0  0  0  0  0  0
  -23.0743   17.1717  -10.9143 C   0  0  0  0  0  0  0  0  0  0  0  0
  -23.1090   18.3373  -10.1810 O   0  0  0  0  0  0  0  0  0  0  0  0
  -23.2710   15.9731  -10.2644 C   0  0  0  0  0  0  0  0  0  0  0  0
  -23.2384   14.7836  -10.9960 C   0  0  0  0  0  0  0  0  0  0  0  0
  -22.9702   13.6233  -13.1371 C   0  0  0  0  0  0  0  0  0  0  0  0
  -22.5542   12.4514  -12.6959 C   0  0  0  0  0  0  0  0  0  0  0  0
  -22.7473   11.2339  -13.4687 C   0  0  0  0  0  0  0  0  0  0  0  0
  -21.9346   10.8535  -14.3351 O   0  0  0  0  0  0  0  0  0  0  0  0
  -23.1289   18.7634  -14.1706 C   0  0  0  0  0  0  0  0  0  0  0  0
  1  2  2  0
  1  8  1  0
  1  9  1  0
  2  3  1  0
  3  4  1  0
  3  5  2  0
 13  4  1  6
  5  6  1  0
  5  7  1  0
  7  8  2  0
  9 10  2  0
 10 11  1  0
 11 12  2  0
M  END
$$$$
