
     RDKit          3D

 13 13  0  0  0  0  0  0  0  0999 V2000
  -22.9055   14.9077  -12.2948 C   0  0  0  0  0  0  0  0  0  0  0  0
  -22.7546   15.7085  -13.4479 C   0  0  0  0  0  0  0  0  0  0  0  0
  -22.8283   17.0768  -13.3502 C   0  0  0  0  0  0  0  0  0  0  0  0
  -22.6765   17.8510  -14.5017 O   0  0  0  0  0  0  0  0  0  0  0  0
  -23.0474   17.7088  -12.1502 C   0  0  0  0  0  0  0  0  0  0  0  0
  -23.1125   19.0927  -12.1095 O   0  0  0  0  0  0  0  0  0  0  0  0
  -23.1956   16.9488  -11.0244 C   0  0  0  0  0  0  0  0  0  0  0  0
  -23.1232   15.5441  -11.1047 C   0  0  0  0  0  0  0  0  0  0  0  0
  -22.8231   13.4823  -12.4326 C   0  0  0  0  0  0  0  0  0  0  0  0
  -22.3091   12.6501  -13.2440 C   0  0  0  0  0  0  0  0  0  0  0  0
  -22.2001   11.2325  -13.2965 C   0  0  0  0  0  0  0  0  0  0  0  0
  -22.4478   10.6476  -14.4184 O   0  0  0  0  0  0  0  0  0  0  0  0
  -22.4162   17.2234  -15.7561 C   0  0  0  0  0  0  0  0  0  0  0  0
  1  2  2  0
  1  8  1  0
  1  9  1  0
  2  3  1  0
  3  4  1  0
  3  5  2  0
  4 13  1  0
  5  6  1  0
  5  7  1  0
  7  8  2  0
  9 10  2  0
 10 11  1  0
 11 12  2  0
M  END
$$$$
