
     RDKit          3D

 13 13  0  0  0  0  0  0  0  0999 V2000
  -23.0625   14.6897  -12.4085 C   0  0  0  0  0  0  0  0  0  0  0  0
  -23.1498   15.7881  -13.2317 C   0  0  0  0  0  0  0  0  0  0  0  0
  -23.1007   17.0812  -12.7610 C   0  0  0  0  0  0  0  0  0  0  0  0
  -23.1904   18.1485  -13.6073 O   0  0  0  0  0  0  0  0  0  0  0  0
  -22.9575   17.2475  -11.4038 C   0  0  0  0  0  0  0  0  0  0  0  0
  -22.9031   18.5220  -10.8840 O   0  0  0  0  0  0  0  0  0  0  0  0
  -22.8661   16.1757  -10.5433 C   0  0  0  0  0  0  0  0  0  0  0  0
  -22.9199   14.8779  -11.0570 C   0  0  0  0  0  0  0  0  0  0  0  0
  -23.1219   13.3691  -12.9768 C   0  0  0  0  0  0  0  0  0  0  0  0
  -22.5402   13.0121  -14.1060 C   0  0  0  0  0  0  0  0  0  0  0  0
  -22.6666   11.6627  -14.6349 C   0  0  0  0  0  0  0  0  0  0  0  0
  -21.7596   10.8129  -14.5289 O   0  0  0  0  0  0  0  0  0  0  0  0
  -22.1576   18.6527  -14.3955 C   0  0  0  0  0  0  0  0  0  0  0  0
  1  2  2  0
  1  8  1  0
  1  9  1  0
  2  3  1  0
  3  4  1  0
  3  5  2  0
 13  4  1  6
  5  6  1  0
  5  7  1  0
  7  8  2  0
  9 10  2  0
 10 11  1  0
 11 12  2  0
M  END
$$$$
