
     RDKit          3D

 13 13  0  0  0  0  0  0  0  0999 V2000
  -22.6704   14.8879  -12.1210 C   0  0  0  0  0  0  0  0  0  0  0  0
  -22.5494   15.8012  -13.1910 C   0  0  0  0  0  0  0  0  0  0  0  0
  -22.6291   17.1522  -12.9552 C   0  0  0  0  0  0  0  0  0  0  0  0
  -22.5070   18.0389  -14.0263 O   0  0  0  0  0  0  0  0  0  0  0  0
  -22.8260   17.6592  -11.6936 C   0  0  0  0  0  0  0  0  0  0  0  0
  -22.8986   19.0315  -11.5132 O   0  0  0  0  0  0  0  0  0  0  0  0
  -22.9453   16.7892  -10.6467 C   0  0  0  0  0  0  0  0  0  0  0  0
  -22.8662   15.4002  -10.8689 C   0  0  0  0  0  0  0  0  0  0  0  0
  -22.5824   13.4841  -12.4026 C   0  0  0  0  0  0  0  0  0  0  0  0
  -22.9379   12.6933  -13.3317 C   0  0  0  0  0  0  0  0  0  0  0  0
  -22.7223   11.3164  -13.6181 C   0  0  0  0  0  0  0  0  0  0  0  0
  -21.7289   11.0047  -14.3783 O   0  0  0  0  0  0  0  0  0  0  0  0
  -22.8771   17.6273  -15.3411 C   0  0  0  0  0  0  0  0  0  0  0  0
  1  2  2  0
  1  8  1  0
  1  9  1  0
  2  3  1  0
  3  4  1  0
  3  5  2  0
  4 13  1  0
  5  6  1  0
  5  7  1  0
  7  8  2  0
  9 10  2  0
 10 11  1  0
 11 12  2  0
M  END
$$$$
