
     RDKit          3D

 13 13  0  0  0  0  0  0  0  0999 V2000
  -22.8175   14.0001  -13.0149 C   0  0  0  0  0  0  0  0  0  0  0  0
  -22.7007   13.9350  -14.4206 C   0  0  0  0  0  0  0  0  0  0  0  0
  -22.5601   12.7190  -15.0440 C   0  0  0  0  0  0  0  0  0  0  0  0
  -22.4462   12.6756  -16.4345 O   0  0  0  0  0  0  0  0  0  0  0  0
  -22.5281   11.5403  -14.3388 C   0  0  0  0  0  0  0  0  0  0  0  0
  -22.3842   10.3415  -15.0194 O   0  0  0  0  0  0  0  0  0  0  0  0
  -22.6397   11.5854  -12.9777 C   0  0  0  0  0  0  0  0  0  0  0  0
  -22.7846   12.8231  -12.3206 C   0  0  0  0  0  0  0  0  0  0  0  0
  -22.9629   15.2862  -12.3964 C   0  0  0  0  0  0  0  0  0  0  0  0
  -22.8049   16.5039  -12.7240 C   0  0  0  0  0  0  0  0  0  0  0  0
  -23.0760   17.7555  -12.1043 C   0  0  0  0  0  0  0  0  0  0  0  0
  -22.8691   18.8276  -12.7898 O   0  0  0  0  0  0  0  0  0  0  0  0
  -21.2064   13.0005  -17.0609 C   0  0  0  0  0  0  0  0  0  0  0  0
  1  2  2  0
  1  8  1  0
  1  9  1  0
  2  3  1  0
  3  4  1  0
  3  5  2  0
  4 13  1  0
  5  6  1  0
  5  7  1  0
  7  8  2  0
  9 10  2  0
 10 11  1  0
 11 12  2  0
M  END
$$$$
