
     RDKit          3D

 13 13  0  0  0  0  0  0  0  0999 V2000
  -23.0341   15.0932  -12.4458 C   0  0  0  0  0  0  0  0  0  0  0  0
  -22.8739   15.9282  -13.5269 C   0  0  0  0  0  0  0  0  0  0  0  0
  -22.8183   17.2991  -13.4112 C   0  0  0  0  0  0  0  0  0  0  0  0
  -22.6582   18.0980  -14.5065 O   0  0  0  0  0  0  0  0  0  0  0  0
  -22.9310   17.8249  -12.1460 C   0  0  0  0  0  0  0  0  0  0  0  0
  -22.8814   19.1912  -11.9780 O   0  0  0  0  0  0  0  0  0  0  0  0
  -23.0927   17.0257  -11.0357 C   0  0  0  0  0  0  0  0  0  0  0  0
  -23.1447   15.6385  -11.1917 C   0  0  0  0  0  0  0  0  0  0  0  0
  -23.0828   13.6695  -12.6484 C   0  0  0  0  0  0  0  0  0  0  0  0
  -22.1261   12.9600  -13.2162 C   0  0  0  0  0  0  0  0  0  0  0  0
  -22.2020   11.5097  -13.3026 C   0  0  0  0  0  0  0  0  0  0  0  0
  -22.2082   10.9020  -14.3918 O   0  0  0  0  0  0  0  0  0  0  0  0
  -22.3687   17.6618  -15.7980 C   0  0  0  0  0  0  0  0  0  0  0  0
  1  2  2  0
  1  8  1  0
  1  9  1  0
  2  3  1  0
  3  4  1  0
  3  5  2  0
 13  4  1  6
  5  6  1  0
  5  7  1  0
  7  8  2  0
  9 10  2  0
 10 11  1  0
 11 12  2  0
M  END
$$$$
