
     RDKit          3D

 13 13  0  0  0  0  0  0  0  0999 V2000
  -22.9565   14.5595  -11.9645 C   0  0  0  0  0  0  0  0  0  0  0  0
  -22.7679   15.5034  -12.9469 C   0  0  0  0  0  0  0  0  0  0  0  0
  -22.8436   16.8572  -12.7075 C   0  0  0  0  0  0  0  0  0  0  0  0
  -22.6508   17.7667  -13.7071 O   0  0  0  0  0  0  0  0  0  0  0  0
  -23.1215   17.2499  -11.4197 C   0  0  0  0  0  0  0  0  0  0  0  0
  -23.2076   18.5937  -11.1295 O   0  0  0  0  0  0  0  0  0  0  0  0
  -23.3173   16.3385  -10.4054 C   0  0  0  0  0  0  0  0  0  0  0  0
  -23.2328   14.9727  -10.6858 C   0  0  0  0  0  0  0  0  0  0  0  0
  -22.8611   13.1620  -12.2939 C   0  0  0  0  0  0  0  0  0  0  0  0
  -22.4776   12.6926  -13.4659 C   0  0  0  0  0  0  0  0  0  0  0  0
  -22.2971   11.2670  -13.6937 C   0  0  0  0  0  0  0  0  0  0  0  0
  -22.4744   10.7383  -14.8095 O   0  0  0  0  0  0  0  0  0  0  0  0
  -22.6831   17.4948  -15.0736 C   0  0  0  0  0  0  0  0  0  0  0  0
  1  2  2  0
  1  8  1  0
  1  9  1  0
  2  3  1  0
  3  4  1  0
  3  5  2  0
 13  4  1  6
  5  6  1  0
  5  7  1  0
  7  8  2  0
  9 10  2  0
 10 11  1  0
 11 12  2  0
M  END
$$$$
