
     RDKit          3D

 13 13  0  0  0  0  0  0  0  0999 V2000
  -22.8883   13.9926  -13.1664 C   0  0  0  0  0  0  0  0  0  0  0  0
  -22.7391   13.6745  -14.5340 C   0  0  0  0  0  0  0  0  0  0  0  0
  -22.6194   12.3635  -14.9266 C   0  0  0  0  0  0  0  0  0  0  0  0
  -22.4728   12.0696  -16.2833 O   0  0  0  0  0  0  0  0  0  0  0  0
  -22.6396   11.3294  -14.0224 C   0  0  0  0  0  0  0  0  0  0  0  0
  -22.5146   10.0251  -14.4743 O   0  0  0  0  0  0  0  0  0  0  0  0
  -22.7832   11.6197  -12.6949 C   0  0  0  0  0  0  0  0  0  0  0  0
  -22.9074   12.9581  -12.2730 C   0  0  0  0  0  0  0  0  0  0  0  0
  -23.0107   15.3716  -12.7911 C   0  0  0  0  0  0  0  0  0  0  0  0
  -22.7835   16.5066  -13.3158 C   0  0  0  0  0  0  0  0  0  0  0  0
  -23.1521   17.8469  -13.0127 C   0  0  0  0  0  0  0  0  0  0  0  0
  -22.2114   18.6888  -12.7511 O   0  0  0  0  0  0  0  0  0  0  0  0
  -21.5880   12.8440  -17.0912 C   0  0  0  0  0  0  0  0  0  0  0  0
  1  2  2  0
  1  8  1  0
  1  9  1  0
  2  3  1  0
  3  4  1  0
  3  5  2  0
  4 13  1  0
  5  6  1  0
  5  7  1  0
  7  8  2  0
  9 10  2  0
 10 11  1  0
 11 12  2  0
M  END
$$$$
