
     RDKit          3D

 13 13  0  0  0  0  0  0  0  0999 V2000
  -22.8541   14.4822  -12.0356 C   0  0  0  0  0  0  0  0  0  0  0  0
  -22.6995   15.3841  -13.0625 C   0  0  0  0  0  0  0  0  0  0  0  0
  -22.7799   16.7464  -12.8797 C   0  0  0  0  0  0  0  0  0  0  0  0
  -22.6212   17.6131  -13.9224 O   0  0  0  0  0  0  0  0  0  0  0  0
  -23.0265   17.1925  -11.6029 C   0  0  0  0  0  0  0  0  0  0  0  0
  -23.1160   18.5470  -11.3688 O   0  0  0  0  0  0  0  0  0  0  0  0
  -23.1879   16.3245  -10.5455 C   0  0  0  0  0  0  0  0  0  0  0  0
  -23.0996   14.9484  -10.7689 C   0  0  0  0  0  0  0  0  0  0  0  0
  -22.7560   13.0725  -12.3069 C   0  0  0  0  0  0  0  0  0  0  0  0
  -22.3573   12.5559  -13.4537 C   0  0  0  0  0  0  0  0  0  0  0  0
  -22.1277   11.1274  -13.6070 C   0  0  0  0  0  0  0  0  0  0  0  0
  -22.3163   10.5296  -14.6854 O   0  0  0  0  0  0  0  0  0  0  0  0
  -22.8000   17.3077  -15.2704 C   0  0  0  0  0  0  0  0  0  0  0  0
  1  2  2  0
  1  8  1  0
  1  9  1  0
  2  3  1  0
  3  4  1  0
  3  5  2  0
 13  4  1  6
  5  6  1  0
  5  7  1  0
  7  8  2  0
  9 10  2  0
 10 11  1  0
 11 12  2  0
M  END
$$$$
