
     RDKit          3D

 13 13  0  0  0  0  0  0  0  0999 V2000
  -22.9318   14.6033  -12.0438 C   0  0  0  0  0  0  0  0  0  0  0  0
  -22.8312   15.7520  -12.8587 C   0  0  0  0  0  0  0  0  0  0  0  0
  -22.9945   17.0011  -12.3108 C   0  0  0  0  0  0  0  0  0  0  0  0
  -22.8912   18.1243  -13.1330 O   0  0  0  0  0  0  0  0  0  0  0  0
  -23.2572   17.1796  -10.9741 C   0  0  0  0  0  0  0  0  0  0  0  0
  -23.4130   18.4630  -10.4746 O   0  0  0  0  0  0  0  0  0  0  0  0
  -23.3579   16.0785  -10.1713 C   0  0  0  0  0  0  0  0  0  0  0  0
  -23.1934   14.7892  -10.7150 C   0  0  0  0  0  0  0  0  0  0  0  0
  -22.7558   13.3145  -12.6483 C   0  0  0  0  0  0  0  0  0  0  0  0
  -22.2775   12.8465  -13.7288 C   0  0  0  0  0  0  0  0  0  0  0  0
  -21.8389   11.5645  -14.1625 C   0  0  0  0  0  0  0  0  0  0  0  0
  -22.6832   10.8144  -14.7842 O   0  0  0  0  0  0  0  0  0  0  0  0
  -22.3682   17.9976  -14.4542 C   0  0  0  0  0  0  0  0  0  0  0  0
  1  2  2  0
  1  8  1  0
  1  9  1  0
  2  3  1  0
  3  4  1  0
  3  5  2  0
  4 13  1  0
  5  6  1  0
  5  7  1  0
  7  8  2  0
  9 10  2  0
 10 11  1  0
 11 12  2  0
M  END
$$$$
