
     RDKit          3D

 26 27  0  0  0  0  0  0  0  0999 V2000
   -0.5632   -7.1603  -21.1480 C   0  0  1  0  0  0  0  0  0  0  0  0
   -1.7835   -6.2991  -20.9919 C   0  0  1  0  0  0  0  0  0  0  0  0
   -1.6548   -5.0204  -21.8296 C   0  0  2  0  0  0  0  0  0  0  0  0
   -1.5010   -5.4515  -23.2282 C   0  0  0  0  0  0  0  0  0  0  0  0
   -0.9383   -6.6169  -23.5134 C   0  0  0  0  0  0  0  0  0  0  0  0
   -0.8064   -7.0038  -24.9114 C   0  0  0  0  0  0  0  0  0  0  0  0
   -2.8635   -7.0154  -21.5254 O   0  0  0  0  0  0  0  0  0  0  0  0
   -0.5373   -4.2887  -21.4691 O   0  0  0  0  0  0  0  0  0  0  0  0
   -0.4720   -7.4788  -22.5291 O   0  0  0  0  0  0  0  0  0  0  0  0
    0.3823   -7.5254  -25.3997 O   0  0  0  0  0  0  0  0  0  0  0  0
   -1.7607   -6.8790  -25.7200 O   0  0  0  0  0  0  0  0  0  0  0  0
    3.5761   -7.6197  -18.9606 C   0  0  2  0  0  0  0  0  0  0  0  0
    2.1273   -7.1345  -18.9963 C   0  0  1  0  0  0  0  0  0  0  0  0
    1.6302   -7.3239  -20.3861 C   0  0  2  0  0  0  0  0  0  0  0  0
    2.7979   -7.1458  -21.3472 C   0  0  1  0  0  0  0  0  0  0  0  0
    3.7849   -8.2568  -21.1829 C   0  0  1  0  0  0  0  0  0  0  0  0
    5.1313   -7.8527  -21.7410 C   0  0  0  0  0  0  0  0  0  0  0  0
    0.8564   -7.2630  -16.8875 C   0  0  0  0  0  0  0  0  0  0  0  0
    0.3203   -7.9963  -15.7135 C   0  0  0  0  0  0  0  0  0  0  0  0
    1.4140   -7.9066  -18.0131 N   0  0  0  0  0  0  0  0  0  0  0  0
    4.4657   -6.5496  -19.1421 O   0  0  0  0  0  0  0  0  0  0  0  0
    0.6112   -6.5534  -20.7980 O   0  0  0  0  0  0  0  0  0  0  0  0
    2.2581   -7.1200  -22.6540 O   0  0  0  0  0  0  0  0  0  0  0  0
    3.8353   -8.6180  -19.8643 O   0  0  0  0  0  0  0  0  0  0  0  0
    5.3760   -6.4942  -21.5558 O   0  0  0  0  0  0  0  0  0  0  0  0
    0.7968   -5.9992  -16.8482 O   0  0  0  0  0  0  0  0  0  0  0  0
  1  2  1  0
  1  9  1  0
  1 22  1  6
  2  3  1  0
  2  7  1  6
  3  4  1  0
  3  8  1  1
  5  4  2  0
  5  6  1  0
  9  5  1  0
  6 10  1  0
  6 11  2  0
 13 12  1  0
 12 21  1  6
 12 24  1  0
 13 14  1  0
 13 20  1  1
 14 15  1  0
 14 22  1  6
 15 16  1  0
 15 23  1  6
 16 17  1  1
 24 16  1  0
 17 25  1  0
 18 19  1  0
 18 20  1  0
 18 26  2  0
M  END
$$$$
