
     RDKit          3D

 26 27  0  0  0  0  0  0  0  0999 V2000
   -0.3687   -7.1729  -21.0321 C   0  0  1  0  0  0  0  0  0  0  0  0
   -1.3788   -6.0744  -20.8644 C   0  0  1  0  0  0  0  0  0  0  0  0
   -1.0063   -4.8600  -21.7245 C   0  0  2  0  0  0  0  0  0  0  0  0
   -0.9786   -5.3290  -23.1191 C   0  0  0  0  0  0  0  0  0  0  0  0
   -0.6779   -6.5893  -23.3975 C   0  0  0  0  0  0  0  0  0  0  0  0
   -0.6623   -7.0106  -24.7917 C   0  0  0  0  0  0  0  0  0  0  0  0
   -2.5965   -6.5555  -21.3641 O   0  0  0  0  0  0  0  0  0  0  0  0
    0.2473   -4.3735  -21.3988 O   0  0  0  0  0  0  0  0  0  0  0  0
   -0.3782   -7.5186  -22.4097 O   0  0  0  0  0  0  0  0  0  0  0  0
    0.2436   -7.9593  -25.2418 O   0  0  0  0  0  0  0  0  0  0  0  0
   -1.4656   -6.5312  -25.6314 O   0  0  0  0  0  0  0  0  0  0  0  0
    3.5716   -8.2821  -18.6898 C   0  0  2  0  0  0  0  0  0  0  0  0
    2.3010   -7.4438  -18.8264 C   0  0  1  0  0  0  0  0  0  0  0  0
    1.7120   -7.7454  -20.1593 C   0  0  2  0  0  0  0  0  0  0  0  0
    2.8427   -8.0637  -21.1285 C   0  0  1  0  0  0  0  0  0  0  0  0
    3.5092   -9.3477  -20.7511 C   0  0  1  0  0  0  0  0  0  0  0  0
    4.8891   -9.4259  -21.3655 C   0  0  0  0  0  0  0  0  0  0  0  0
    1.0551   -6.8182  -16.7931 C   0  0  0  0  0  0  0  0  0  0  0  0
    0.4189   -7.1359  -15.4901 C   0  0  0  0  0  0  0  0  0  0  0  0
    1.4532   -7.8045  -17.7207 N   0  0  0  0  0  0  0  0  0  0  0  0
    4.7023   -7.5395  -19.0630 O   0  0  0  0  0  0  0  0  0  0  0  0
    0.9143   -6.8204  -20.7161 O   0  0  0  0  0  0  0  0  0  0  0  0
    2.2725   -8.1350  -22.4206 O   0  0  0  0  0  0  0  0  0  0  0  0
    3.5200   -9.4614  -19.3877 O   0  0  0  0  0  0  0  0  0  0  0  0
    5.2844   -8.2000  -21.8952 O   0  0  0  0  0  0  0  0  0  0  0  0
    1.2365   -5.5935  -17.0571 O   0  0  0  0  0  0  0  0  0  0  0  0
  1  2  1  0
  1  9  1  0
  1 22  1  6
  2  3  1  0
  2  7  1  6
  3  4  1  0
  3  8  1  1
  5  4  2  0
  5  6  1  0
  9  5  1  0
  6 10  1  0
  6 11  2  0
 13 12  1  0
 12 21  1  6
 12 24  1  0
 13 14  1  0
 13 20  1  1
 14 15  1  0
 14 22  1  6
 15 16  1  0
 15 23  1  6
 16 17  1  1
 24 16  1  0
 17 25  1  0
 18 19  1  0
 18 20  1  0
 18 26  2  0
M  END
$$$$
