
     RDKit          3D

 26 27  0  0  0  0  0  0  0  0999 V2000
    0.4337   -6.9960  -21.3697 C   0  0  1  0  0  0  0  0  0  0  0  0
   -0.4123   -5.7580  -21.1579 C   0  0  1  0  0  0  0  0  0  0  0  0
   -1.7808   -6.0755  -21.7295 C   0  0  2  0  0  0  0  0  0  0  0  0
   -1.5992   -6.3325  -23.1737 C   0  0  0  0  0  0  0  0  0  0  0  0
   -0.4781   -6.8806  -23.6730 C   0  0  0  0  0  0  0  0  0  0  0  0
   -0.3372   -7.1183  -25.1038 C   0  0  0  0  0  0  0  0  0  0  0  0
   -0.4473   -5.3366  -19.8551 O   0  0  0  0  0  0  0  0  0  0  0  0
   -2.6866   -5.0566  -21.4942 O   0  0  0  0  0  0  0  0  0  0  0  0
    0.5216   -7.2025  -22.7666 O   0  0  0  0  0  0  0  0  0  0  0  0
   -1.3620   -6.9117  -26.0029 O   0  0  0  0  0  0  0  0  0  0  0  0
    0.7644   -7.5280  -25.5299 O   0  0  0  0  0  0  0  0  0  0  0  0
    4.1324   -8.1810  -18.6366 C   0  0  2  0  0  0  0  0  0  0  0  0
    2.7069   -7.6813  -18.7668 C   0  0  1  0  0  0  0  0  0  0  0  0
    2.1025   -7.9822  -20.1000 C   0  0  2  0  0  0  0  0  0  0  0  0
    3.0719   -8.8202  -20.8950 C   0  0  1  0  0  0  0  0  0  0  0  0
    3.5645   -9.9417  -20.0262 C   0  0  1  0  0  0  0  0  0  0  0  0
    4.3899  -10.8753  -20.8981 C   0  0  0  0  0  0  0  0  0  0  0  0
    1.3686   -7.6302  -16.6150 C   0  0  0  0  0  0  0  0  0  0  0  0
    0.4562   -8.2847  -15.6323 C   0  0  0  0  0  0  0  0  0  0  0  0
    1.9460   -8.3085  -17.7035 N   0  0  0  0  0  0  0  0  0  0  0  0
    5.0202   -7.3946  -19.3722 O   0  0  0  0  0  0  0  0  0  0  0  0
    1.6823   -6.8540  -20.7844 O   0  0  0  0  0  0  0  0  0  0  0  0
    2.3598   -9.4210  -21.9588 O   0  0  0  0  0  0  0  0  0  0  0  0
    4.2464   -9.5283  -18.9105 O   0  0  0  0  0  0  0  0  0  0  0  0
    5.6787  -10.3415  -21.0027 O   0  0  0  0  0  0  0  0  0  0  0  0
    1.6362   -6.4109  -16.4643 O   0  0  0  0  0  0  0  0  0  0  0  0
  1  2  1  0
  1  9  1  0
  1 22  1  6
  2  3  1  0
  2  7  1  1
  3  4  1  0
  3  8  1  6
  5  4  2  0
  5  6  1  0
  9  5  1  0
  6 10  1  0
  6 11  2  0
 13 12  1  0
 12 21  1  6
 12 24  1  0
 13 14  1  0
 13 20  1  1
 14 15  1  0
 14 22  1  6
 15 16  1  0
 15 23  1  6
 16 17  1  0
 16 24  1  1
 17 25  1  6
 19 18  1  6
 18 20  1  0
 18 26  2  0
M  END
$$$$
