
     RDKit          3D

 26 27  0  0  0  0  0  0  0  0999 V2000
    0.0662   -6.7353  -21.4092 C   0  0  1  0  0  0  0  0  0  0  0  0
   -0.7105   -5.4363  -21.3589 C   0  0  1  0  0  0  0  0  0  0  0  0
   -2.0724   -5.7319  -21.9572 C   0  0  2  0  0  0  0  0  0  0  0  0
   -1.8507   -6.1437  -23.3593 C   0  0  0  0  0  0  0  0  0  0  0  0
   -0.7463   -6.8021  -23.7511 C   0  0  0  0  0  0  0  0  0  0  0  0
   -0.5645   -7.1911  -25.1437 C   0  0  0  0  0  0  0  0  0  0  0  0
   -0.7705   -4.8838  -20.1069 O   0  0  0  0  0  0  0  0  0  0  0  0
   -2.9230   -4.6448  -21.8645 O   0  0  0  0  0  0  0  0  0  0  0  0
    0.1958   -7.0868  -22.7735 O   0  0  0  0  0  0  0  0  0  0  0  0
    0.5924   -7.7753  -25.6144 O   0  0  0  0  0  0  0  0  0  0  0  0
   -1.5028   -6.9835  -25.9434 O   0  0  0  0  0  0  0  0  0  0  0  0
    3.5135   -8.0731  -18.4804 C   0  0  2  0  0  0  0  0  0  0  0  0
    2.0681   -7.7638  -18.8182 C   0  0  1  0  0  0  0  0  0  0  0  0
    1.7915   -7.7993  -20.2864 C   0  0  2  0  0  0  0  0  0  0  0  0
    3.0344   -8.2623  -21.0039 C   0  0  1  0  0  0  0  0  0  0  0  0
    3.5626   -9.4860  -20.3120 C   0  0  1  0  0  0  0  0  0  0  0  0
    4.6995  -10.0413  -21.1561 C   0  0  0  0  0  0  0  0  0  0  0  0
    0.3766   -8.4517  -17.0604 C   0  0  0  0  0  0  0  0  0  0  0  0
   -0.4471   -9.4885  -16.3727 C   0  0  0  0  0  0  0  0  0  0  0  0
    1.2575   -8.7413  -18.1180 N   0  0  0  0  0  0  0  0  0  0  0  0
    4.3549   -7.0084  -18.8060 O   0  0  0  0  0  0  0  0  0  0  0  0
    1.2974   -6.6057  -20.7854 O   0  0  0  0  0  0  0  0  0  0  0  0
    2.6614   -8.6683  -22.3061 O   0  0  0  0  0  0  0  0  0  0  0  0
    3.9329   -9.2768  -19.0083 O   0  0  0  0  0  0  0  0  0  0  0  0
    4.8044   -9.2564  -22.3091 O   0  0  0  0  0  0  0  0  0  0  0  0
    0.2800   -7.2581  -16.6768 O   0  0  0  0  0  0  0  0  0  0  0  0
  1  2  1  0
  1  9  1  0
  1 22  1  6
  2  3  1  0
  2  7  1  1
  3  4  1  0
  3  8  1  6
  5  4  2  0
  5  6  1  0
  9  5  1  0
  6 10  1  0
  6 11  2  0
 13 12  1  0
 12 21  1  6
 12 24  1  0
 13 14  1  0
 13 20  1  1
 14 15  1  0
 14 22  1  6
 15 16  1  0
 15 23  1  6
 16 17  1  0
 16 24  1  1
 17 25  1  6
 19 18  1  6
 18 20  1  0
 18 26  2  0
M  END
$$$$
