
     RDKit          3D

 26 27  0  0  0  0  0  0  0  0999 V2000
    0.0654   -6.7534  -21.5838 C   0  0  1  0  0  0  0  0  0  0  0  0
   -0.7692   -5.4921  -21.5079 C   0  0  1  0  0  0  0  0  0  0  0  0
   -2.1291   -5.8473  -22.0777 C   0  0  2  0  0  0  0  0  0  0  0  0
   -1.9202   -6.2408  -23.4870 C   0  0  0  0  0  0  0  0  0  0  0  0
   -0.7957   -6.8451  -23.9075 C   0  0  0  0  0  0  0  0  0  0  0  0
   -0.6275   -7.2177  -25.3063 C   0  0  0  0  0  0  0  0  0  0  0  0
   -0.8265   -4.9498  -20.2513 O   0  0  0  0  0  0  0  0  0  0  0  0
   -3.0267   -4.8013  -21.9591 O   0  0  0  0  0  0  0  0  0  0  0  0
    0.1804   -7.0911  -22.9529 O   0  0  0  0  0  0  0  0  0  0  0  0
    0.5328   -7.7762  -25.7994 O   0  0  0  0  0  0  0  0  0  0  0  0
   -1.5811   -7.0199  -26.0902 O   0  0  0  0  0  0  0  0  0  0  0  0
    3.6791   -7.8234  -18.7149 C   0  0  2  0  0  0  0  0  0  0  0  0
    2.2231   -7.4724  -18.9509 C   0  0  1  0  0  0  0  0  0  0  0  0
    1.7875   -7.7068  -20.3611 C   0  0  2  0  0  0  0  0  0  0  0  0
    2.9202   -8.3525  -21.1186 C   0  0  1  0  0  0  0  0  0  0  0  0
    3.4580   -9.4923  -20.3020 C   0  0  1  0  0  0  0  0  0  0  0  0
    4.4671  -10.2409  -21.1591 C   0  0  0  0  0  0  0  0  0  0  0  0
    0.6619   -7.7746  -16.9772 C   0  0  0  0  0  0  0  0  0  0  0  0
   -0.1236   -8.6421  -16.0515 C   0  0  0  0  0  0  0  0  0  0  0  0
    1.4449   -8.2793  -18.0310 N   0  0  0  0  0  0  0  0  0  0  0  0
    4.5328   -6.8769  -19.2830 O   0  0  0  0  0  0  0  0  0  0  0  0
    1.3030   -6.5703  -20.9867 O   0  0  0  0  0  0  0  0  0  0  0  0
    2.3882   -8.9214  -22.2988 O   0  0  0  0  0  0  0  0  0  0  0  0
    3.9775   -9.1171  -19.0896 O   0  0  0  0  0  0  0  0  0  0  0  0
    5.0312   -9.3292  -22.0575 O   0  0  0  0  0  0  0  0  0  0  0  0
    0.6233   -6.5291  -16.8086 O   0  0  0  0  0  0  0  0  0  0  0  0
  1  2  1  0
  1  9  1  0
  1 22  1  6
  2  3  1  0
  2  7  1  1
  3  4  1  0
  3  8  1  6
  5  4  2  0
  5  6  1  0
  9  5  1  0
  6 10  1  0
  6 11  2  0
 13 12  1  0
 12 21  1  6
 12 24  1  0
 13 14  1  0
 13 20  1  1
 14 15  1  0
 14 22  1  6
 15 16  1  0
 15 23  1  6
 16 17  1  0
 16 24  1  1
 17 25  1  6
 19 18  1  6
 18 20  1  0
 18 26  2  0
M  END
$$$$
