
     RDKit          3D

 26 27  0  0  0  0  0  0  0  0999 V2000
    0.3224   -6.8991  -21.4719 C   0  0  1  0  0  0  0  0  0  0  0  0
   -0.3909   -5.5930  -21.1918 C   0  0  1  0  0  0  0  0  0  0  0  0
   -1.8176   -5.7762  -21.6724 C   0  0  2  0  0  0  0  0  0  0  0  0
   -1.7569   -6.0262  -23.1279 C   0  0  0  0  0  0  0  0  0  0  0  0
   -0.7263   -6.6658  -23.7070 C   0  0  0  0  0  0  0  0  0  0  0  0
   -0.7033   -6.8931  -25.1462 C   0  0  0  0  0  0  0  0  0  0  0  0
   -0.3004   -5.1903  -19.8856 O   0  0  0  0  0  0  0  0  0  0  0  0
   -2.6088   -4.6832  -21.3667 O   0  0  0  0  0  0  0  0  0  0  0  0
    0.2979   -7.0910  -22.8734 O   0  0  0  0  0  0  0  0  0  0  0  0
   -1.7620   -6.5793  -25.9721 O   0  0  0  0  0  0  0  0  0  0  0  0
    0.3250   -7.3954  -25.6496 O   0  0  0  0  0  0  0  0  0  0  0  0
    3.9756   -8.3771  -18.8352 C   0  0  2  0  0  0  0  0  0  0  0  0
    2.5848   -7.7865  -18.9606 C   0  0  1  0  0  0  0  0  0  0  0  0
    1.9624   -8.0379  -20.2958 C   0  0  2  0  0  0  0  0  0  0  0  0
    2.8763   -8.9298  -21.0978 C   0  0  1  0  0  0  0  0  0  0  0  0
    3.2964  -10.0871  -20.2380 C   0  0  1  0  0  0  0  0  0  0  0  0
    4.0606  -11.0646  -21.1176 C   0  0  0  0  0  0  0  0  0  0  0  0
    1.2374   -7.6636  -16.8174 C   0  0  0  0  0  0  0  0  0  0  0  0
    0.5022   -8.3202  -15.6973 C   0  0  0  0  0  0  0  0  0  0  0  0
    1.7856   -8.3721  -17.9018 N   0  0  0  0  0  0  0  0  0  0  0  0
    4.9117   -7.6432  -19.5651 O   0  0  0  0  0  0  0  0  0  0  0  0
    1.6149   -6.8799  -20.9712 O   0  0  0  0  0  0  0  0  0  0  0  0
    2.1273   -9.4756  -22.1658 O   0  0  0  0  0  0  0  0  0  0  0  0
    4.0034   -9.7268  -19.1195 O   0  0  0  0  0  0  0  0  0  0  0  0
    5.4252  -10.7851  -20.9893 O   0  0  0  0  0  0  0  0  0  0  0  0
    1.3752   -6.4141  -16.7928 O   0  0  0  0  0  0  0  0  0  0  0  0
  1  2  1  0
  1  9  1  0
  1 22  1  6
  2  3  1  0
  2  7  1  1
  3  4  1  0
  3  8  1  6
  5  4  2  0
  5  6  1  0
  9  5  1  0
  6 10  1  0
  6 11  2  0
 13 12  1  0
 12 21  1  6
 12 24  1  0
 13 14  1  0
 13 20  1  1
 14 15  1  0
 14 22  1  6
 15 16  1  0
 15 23  1  6
 16 17  1  0
 16 24  1  1
 17 25  1  6
 19 18  1  6
 18 20  1  0
 18 26  2  0
M  END
$$$$
