
     RDKit          3D

 26 27  0  0  0  0  0  0  0  0999 V2000
   -0.5225   -7.4383  -21.1984 C   0  0  1  0  0  0  0  0  0  0  0  0
   -1.5966   -6.4155  -20.9629 C   0  0  1  0  0  0  0  0  0  0  0  0
   -1.2540   -5.0976  -21.6694 C   0  0  2  0  0  0  0  0  0  0  0  0
   -1.1419   -5.4097  -23.1032 C   0  0  0  0  0  0  0  0  0  0  0  0
   -0.7622   -6.6157  -23.5000 C   0  0  0  0  0  0  0  0  0  0  0  0
   -0.6648   -6.8809  -24.9288 C   0  0  0  0  0  0  0  0  0  0  0  0
   -2.7644   -6.8982  -21.5690 O   0  0  0  0  0  0  0  0  0  0  0  0
   -0.0434   -4.5888  -21.2338 O   0  0  0  0  0  0  0  0  0  0  0  0
   -0.4550   -7.6315  -22.6039 O   0  0  0  0  0  0  0  0  0  0  0  0
    0.4164   -7.5713  -25.4558 O   0  0  0  0  0  0  0  0  0  0  0  0
   -1.5532   -6.4951  -25.7302 O   0  0  0  0  0  0  0  0  0  0  0  0
    3.4550   -8.5638  -18.8907 C   0  0  2  0  0  0  0  0  0  0  0  0
    2.1836   -7.7187  -18.9630 C   0  0  1  0  0  0  0  0  0  0  0  0
    1.5403   -7.9968  -20.2757 C   0  0  2  0  0  0  0  0  0  0  0  0
    2.6299   -8.3038  -21.2944 C   0  0  1  0  0  0  0  0  0  0  0  0
    3.3054   -9.5962  -20.9643 C   0  0  1  0  0  0  0  0  0  0  0  0
    4.6591   -9.6698  -21.6348 C   0  0  0  0  0  0  0  0  0  0  0  0
    0.9894   -7.1130  -16.8928 C   0  0  0  0  0  0  0  0  0  0  0  0
    0.4334   -7.4402  -15.5560 C   0  0  0  0  0  0  0  0  0  0  0  0
    1.3792   -8.0937  -17.8299 N   0  0  0  0  0  0  0  0  0  0  0  0
    4.5731   -7.8195  -19.2972 O   0  0  0  0  0  0  0  0  0  0  0  0
    0.7250   -7.0600  -20.7853 O   0  0  0  0  0  0  0  0  0  0  0  0
    2.0080   -8.3524  -22.5635 O   0  0  0  0  0  0  0  0  0  0  0  0
    3.3703   -9.7316  -19.6044 O   0  0  0  0  0  0  0  0  0  0  0  0
    5.6160   -8.9345  -20.9396 O   0  0  0  0  0  0  0  0  0  0  0  0
    1.1078   -5.8853  -17.1778 O   0  0  0  0  0  0  0  0  0  0  0  0
  1  2  1  0
  1  9  1  0
  1 22  1  6
  2  3  1  0
  2  7  1  6
  3  4  1  0
  3  8  1  1
  5  4  2  0
  5  6  1  0
  9  5  1  0
  6 10  1  0
  6 11  2  0
 13 12  1  0
 12 21  1  6
 12 24  1  0
 13 14  1  0
 13 20  1  1
 14 15  1  0
 14 22  1  6
 15 16  1  0
 15 23  1  6
 16 17  1  1
 24 16  1  0
 17 25  1  0
 18 19  1  0
 18 20  1  0
 18 26  2  0
M  END
$$$$
