
     RDKit          3D

 26 27  0  0  0  0  0  0  0  0999 V2000
    0.2725   -6.9782  -21.4170 C   0  0  1  0  0  0  0  0  0  0  0  0
   -0.5895   -5.7437  -21.2558 C   0  0  1  0  0  0  0  0  0  0  0  0
   -1.9643   -6.1141  -21.7781 C   0  0  2  0  0  0  0  0  0  0  0  0
   -1.8094   -6.4489  -23.2094 C   0  0  0  0  0  0  0  0  0  0  0  0
   -0.6901   -7.0065  -23.7022 C   0  0  0  0  0  0  0  0  0  0  0  0
   -0.5759   -7.3219  -25.1204 C   0  0  0  0  0  0  0  0  0  0  0  0
   -0.6037   -5.2504  -19.9780 O   0  0  0  0  0  0  0  0  0  0  0  0
   -2.8820   -5.0980  -21.5799 O   0  0  0  0  0  0  0  0  0  0  0  0
    0.3341   -7.2614  -22.8019 O   0  0  0  0  0  0  0  0  0  0  0  0
    0.6360   -7.4962  -25.7547 O   0  0  0  0  0  0  0  0  0  0  0  0
   -1.6270   -7.4386  -25.7871 O   0  0  0  0  0  0  0  0  0  0  0  0
    3.7897   -7.9381  -18.4308 C   0  0  2  0  0  0  0  0  0  0  0  0
    2.3390   -7.6641  -18.7764 C   0  0  1  0  0  0  0  0  0  0  0  0
    2.0280   -7.9014  -20.2187 C   0  0  2  0  0  0  0  0  0  0  0  0
    3.2504   -8.4727  -20.8919 C   0  0  1  0  0  0  0  0  0  0  0  0
    3.7860   -9.5932  -20.0475 C   0  0  1  0  0  0  0  0  0  0  0  0
    4.8988  -10.2726  -20.8307 C   0  0  0  0  0  0  0  0  0  0  0  0
    0.8073   -8.1004  -16.8048 C   0  0  0  0  0  0  0  0  0  0  0  0
    0.3819   -9.0187  -15.7083 C   0  0  0  0  0  0  0  0  0  0  0  0
    1.5381   -8.5259  -17.9287 N   0  0  0  0  0  0  0  0  0  0  0  0
    4.6307   -6.9379  -18.9205 O   0  0  0  0  0  0  0  0  0  0  0  0
    1.5308   -6.7840  -20.8686 O   0  0  0  0  0  0  0  0  0  0  0  0
    2.8442   -9.0526  -22.1159 O   0  0  0  0  0  0  0  0  0  0  0  0
    4.1880   -9.2079  -18.7944 O   0  0  0  0  0  0  0  0  0  0  0  0
    4.7514   -9.9275  -22.1782 O   0  0  0  0  0  0  0  0  0  0  0  0
    0.4981   -6.8845  -16.7219 O   0  0  0  0  0  0  0  0  0  0  0  0
  1  2  1  0
  1  9  1  0
  1 22  1  6
  2  3  1  0
  2  7  1  1
  3  4  1  0
  3  8  1  6
  5  4  2  0
  5  6  1  0
  9  5  1  0
  6 10  1  0
  6 11  2  0
 13 12  1  0
 12 21  1  6
 12 24  1  0
 13 14  1  0
 13 20  1  1
 14 15  1  0
 14 22  1  6
 15 16  1  0
 15 23  1  6
 16 17  1  0
 16 24  1  1
 17 25  1  6
 19 18  1  6
 18 20  1  0
 18 26  2  0
M  END
$$$$
