
     RDKit          3D

 26 27  0  0  0  0  0  0  0  0999 V2000
   -0.2952   -7.1157  -21.3663 C   0  0  1  0  0  0  0  0  0  0  0  0
   -1.5909   -6.3767  -21.1926 C   0  0  1  0  0  0  0  0  0  0  0  0
   -1.5858   -5.0759  -22.0059 C   0  0  2  0  0  0  0  0  0  0  0  0
   -1.3961   -5.4641  -23.4126 C   0  0  0  0  0  0  0  0  0  0  0  0
   -0.7267   -6.5656  -23.7206 C   0  0  0  0  0  0  0  0  0  0  0  0
   -0.5628   -6.9118  -25.1258 C   0  0  0  0  0  0  0  0  0  0  0  0
   -2.5999   -7.1815  -21.7384 O   0  0  0  0  0  0  0  0  0  0  0  0
   -0.5414   -4.2488  -21.6327 O   0  0  0  0  0  0  0  0  0  0  0  0
   -0.1782   -7.3980  -22.7533 O   0  0  0  0  0  0  0  0  0  0  0  0
    0.6063   -7.4992  -25.5858 O   0  0  0  0  0  0  0  0  0  0  0  0
   -1.4710   -6.6913  -25.9665 O   0  0  0  0  0  0  0  0  0  0  0  0
    3.8995   -7.2271  -19.2358 C   0  0  2  0  0  0  0  0  0  0  0  0
    2.4107   -6.8819  -19.2399 C   0  0  1  0  0  0  0  0  0  0  0  0
    1.9119   -7.0861  -20.6270 C   0  0  2  0  0  0  0  0  0  0  0  0
    3.0419   -6.7752  -21.5994 C   0  0  1  0  0  0  0  0  0  0  0  0
    4.1326   -7.7903  -21.4756 C   0  0  1  0  0  0  0  0  0  0  0  0
    5.4255   -7.2467  -22.0420 C   0  0  0  0  0  0  0  0  0  0  0  0
    1.2251   -7.1828  -17.0993 C   0  0  0  0  0  0  0  0  0  0  0  0
    0.7171   -8.0009  -15.9696 C   0  0  0  0  0  0  0  0  0  0  0  0
    1.7898   -7.7409  -18.2661 N   0  0  0  0  0  0  0  0  0  0  0  0
    4.6802   -6.0731  -19.4033 O   0  0  0  0  0  0  0  0  0  0  0  0
    0.8177   -6.4072  -21.0061 O   0  0  0  0  0  0  0  0  0  0  0  0
    2.4813   -6.7712  -22.8976 O   0  0  0  0  0  0  0  0  0  0  0  0
    4.2381   -8.1751  -20.1669 O   0  0  0  0  0  0  0  0  0  0  0  0
    5.8712   -6.1371  -21.3280 O   0  0  0  0  0  0  0  0  0  0  0  0
    1.1337   -5.9258  -16.9813 O   0  0  0  0  0  0  0  0  0  0  0  0
  1  2  1  0
  1  9  1  0
  1 22  1  6
  2  3  1  0
  2  7  1  6
  3  4  1  0
  3  8  1  1
  5  4  2  0
  5  6  1  0
  9  5  1  0
  6 10  1  0
  6 11  2  0
 13 12  1  0
 12 21  1  6
 12 24  1  0
 13 14  1  0
 13 20  1  1
 14 15  1  0
 14 22  1  6
 15 16  1  0
 15 23  1  6
 16 17  1  1
 24 16  1  0
 17 25  1  0
 18 19  1  0
 18 20  1  0
 18 26  2  0
M  END
$$$$
