
     RDKit          3D

 26 27  0  0  0  0  0  0  0  0999 V2000
   -0.5383   -7.4348  -20.7888 C   0  0  1  0  0  0  0  0  0  0  0  0
   -1.6611   -6.4555  -20.6003 C   0  0  1  0  0  0  0  0  0  0  0  0
   -1.3705   -5.1478  -21.3478 C   0  0  2  0  0  0  0  0  0  0  0  0
   -1.2262   -5.5024  -22.7687 C   0  0  0  0  0  0  0  0  0  0  0  0
   -0.7865   -6.7023  -23.1197 C   0  0  0  0  0  0  0  0  0  0  0  0
   -0.6592   -7.0108  -24.5375 C   0  0  0  0  0  0  0  0  0  0  0  0
   -2.7977   -7.0120  -21.2023 O   0  0  0  0  0  0  0  0  0  0  0  0
   -0.1901   -4.5690  -20.9166 O   0  0  0  0  0  0  0  0  0  0  0  0
   -0.4443   -7.6720  -22.1860 O   0  0  0  0  0  0  0  0  0  0  0  0
    0.2725   -7.9344  -24.9873 O   0  0  0  0  0  0  0  0  0  0  0  0
   -1.3858   -6.4532  -25.3985 O   0  0  0  0  0  0  0  0  0  0  0  0
    3.5094   -8.4128  -18.5613 C   0  0  2  0  0  0  0  0  0  0  0  0
    2.1535   -7.7081  -18.5852 C   0  0  1  0  0  0  0  0  0  0  0  0
    1.5855   -7.8854  -19.9491 C   0  0  2  0  0  0  0  0  0  0  0  0
    2.7330   -7.9407  -20.9489 C   0  0  1  0  0  0  0  0  0  0  0  0
    3.5399   -9.1837  -20.7506 C   0  0  1  0  0  0  0  0  0  0  0  0
    4.9128   -9.0244  -21.3649 C   0  0  0  0  0  0  0  0  0  0  0  0
    0.8268   -7.5013  -16.5174 C   0  0  0  0  0  0  0  0  0  0  0  0
    0.0977   -8.0502  -15.3467 C   0  0  0  0  0  0  0  0  0  0  0  0
    1.3630   -8.3089  -17.5432 N   0  0  0  0  0  0  0  0  0  0  0  0
    4.5480   -7.5062  -18.8238 O   0  0  0  0  0  0  0  0  0  0  0  0
    0.6853   -6.9854  -20.3753 O   0  0  0  0  0  0  0  0  0  0  0  0
    2.1590   -7.8949  -22.2405 O   0  0  0  0  0  0  0  0  0  0  0  0
    3.5788   -9.4828  -19.4161 O   0  0  0  0  0  0  0  0  0  0  0  0
    5.8577   -9.8197  -20.7211 O   0  0  0  0  0  0  0  0  0  0  0  0
    0.9582   -6.2434  -16.5707 O   0  0  0  0  0  0  0  0  0  0  0  0
  1  2  1  0
  1  9  1  0
  1 22  1  6
  2  3  1  0
  2  7  1  6
  3  4  1  0
  3  8  1  1
  5  4  2  0
  5  6  1  0
  9  5  1  0
  6 10  1  0
  6 11  2  0
 13 12  1  0
 12 21  1  6
 12 24  1  0
 13 14  1  0
 13 20  1  1
 14 15  1  0
 14 22  1  6
 15 16  1  0
 15 23  1  6
 16 17  1  1
 24 16  1  0
 17 25  1  0
 18 19  1  0
 18 20  1  0
 18 26  2  0
M  END
$$$$
