
     RDKit          3D

 26 27  0  0  0  0  0  0  0  0999 V2000
    0.1006   -7.0058  -21.3369 C   0  0  1  0  0  0  0  0  0  0  0  0
   -0.7187   -5.7492  -21.1297 C   0  0  1  0  0  0  0  0  0  0  0  0
   -2.1036   -6.0509  -21.6696 C   0  0  2  0  0  0  0  0  0  0  0  0
   -1.9548   -6.3349  -23.1125 C   0  0  0  0  0  0  0  0  0  0  0  0
   -0.8536   -6.9115  -23.6239 C   0  0  0  0  0  0  0  0  0  0  0  0
   -0.7448   -7.1753  -25.0529 C   0  0  0  0  0  0  0  0  0  0  0  0
   -0.7208   -5.3059  -19.8337 O   0  0  0  0  0  0  0  0  0  0  0  0
   -2.9861   -5.0120  -21.4341 O   0  0  0  0  0  0  0  0  0  0  0  0
    0.1576   -7.2368  -22.7315 O   0  0  0  0  0  0  0  0  0  0  0  0
   -1.7838   -6.9668  -25.9352 O   0  0  0  0  0  0  0  0  0  0  0  0
    0.3414   -7.6099  -25.4935 O   0  0  0  0  0  0  0  0  0  0  0  0
    3.8489   -8.2739  -18.7178 C   0  0  2  0  0  0  0  0  0  0  0  0
    2.4050   -7.8232  -18.8228 C   0  0  1  0  0  0  0  0  0  0  0  0
    1.8237   -8.0392  -20.1825 C   0  0  2  0  0  0  0  0  0  0  0  0
    2.8327   -8.7702  -21.0319 C   0  0  1  0  0  0  0  0  0  0  0  0
    3.3643   -9.9376  -20.2511 C   0  0  1  0  0  0  0  0  0  0  0  0
    4.2341  -10.7634  -21.1865 C   0  0  0  0  0  0  0  0  0  0  0  0
    0.9751   -7.9916  -16.7369 C   0  0  0  0  0  0  0  0  0  0  0  0
    0.3855   -8.7930  -15.6249 C   0  0  0  0  0  0  0  0  0  0  0  0
    1.6625   -8.5647  -17.8220 N   0  0  0  0  0  0  0  0  0  0  0  0
    4.7092   -7.3953  -19.3777 O   0  0  0  0  0  0  0  0  0  0  0  0
    1.3627   -6.8770  -20.7781 O   0  0  0  0  0  0  0  0  0  0  0  0
    2.1540   -9.3109  -22.1484 O   0  0  0  0  0  0  0  0  0  0  0  0
    4.0202   -9.5889  -19.0983 O   0  0  0  0  0  0  0  0  0  0  0  0
    5.3424  -11.2129  -20.4611 O   0  0  0  0  0  0  0  0  0  0  0  0
    0.8525   -6.7406  -16.7044 O   0  0  0  0  0  0  0  0  0  0  0  0
  1  2  1  0
  1  9  1  0
  1 22  1  6
  2  3  1  0
  2  7  1  1
  3  4  1  0
  3  8  1  6
  5  4  2  0
  5  6  1  0
  9  5  1  0
  6 10  1  0
  6 11  2  0
 13 12  1  0
 12 21  1  6
 12 24  1  0
 13 14  1  0
 13 20  1  1
 14 15  1  0
 14 22  1  6
 15 16  1  0
 15 23  1  6
 16 17  1  0
 16 24  1  1
 17 25  1  6
 19 18  1  6
 18 20  1  0
 18 26  2  0
M  END
$$$$
