
     RDKit          3D

 26 27  0  0  0  0  0  0  0  0999 V2000
   -0.5086   -7.1895  -20.9256 C   0  0  1  0  0  0  0  0  0  0  0  0
   -1.4385   -6.0160  -20.8101 C   0  0  1  0  0  0  0  0  0  0  0  0
   -0.9876   -4.8749  -21.7309 C   0  0  2  0  0  0  0  0  0  0  0  0
   -1.0016   -5.4134  -23.1003 C   0  0  0  0  0  0  0  0  0  0  0  0
   -0.7914   -6.7039  -23.3163 C   0  0  0  0  0  0  0  0  0  0  0  0
   -0.8141   -7.1940  -24.6877 C   0  0  0  0  0  0  0  0  0  0  0  0
   -2.6900   -6.4349  -21.2816 O   0  0  0  0  0  0  0  0  0  0  0  0
    0.2989   -4.4618  -21.4335 O   0  0  0  0  0  0  0  0  0  0  0  0
   -0.5510   -7.6017  -22.2841 O   0  0  0  0  0  0  0  0  0  0  0  0
   -0.3660   -8.4691  -24.9988 O   0  0  0  0  0  0  0  0  0  0  0  0
   -1.2386   -6.4816  -25.6325 O   0  0  0  0  0  0  0  0  0  0  0  0
    3.3763   -8.6006  -18.6804 C   0  0  2  0  0  0  0  0  0  0  0  0
    2.1242   -7.7290  -18.7721 C   0  0  1  0  0  0  0  0  0  0  0  0
    1.5649   -7.8988  -20.1405 C   0  0  2  0  0  0  0  0  0  0  0  0
    2.7147   -8.1511  -21.1066 C   0  0  1  0  0  0  0  0  0  0  0  0
    3.3492   -9.4764  -20.8299 C   0  0  1  0  0  0  0  0  0  0  0  0
    4.7430   -9.5260  -21.4152 C   0  0  0  0  0  0  0  0  0  0  0  0
    0.8422   -7.2652  -16.7178 C   0  0  0  0  0  0  0  0  0  0  0  0
    0.0845   -7.6749  -15.5089 C   0  0  0  0  0  0  0  0  0  0  0  0
    1.2420   -8.1705  -17.7241 N   0  0  0  0  0  0  0  0  0  0  0  0
    4.5289   -7.8496  -18.9578 O   0  0  0  0  0  0  0  0  0  0  0  0
    0.7978   -6.9125  -20.6312 O   0  0  0  0  0  0  0  0  0  0  0  0
    2.1771   -8.0957  -22.4133 O   0  0  0  0  0  0  0  0  0  0  0  0
    3.3227   -9.7115  -19.4824 O   0  0  0  0  0  0  0  0  0  0  0  0
    5.3374   -8.2666  -21.4308 O   0  0  0  0  0  0  0  0  0  0  0  0
    1.1294   -6.0370  -16.8235 O   0  0  0  0  0  0  0  0  0  0  0  0
  1  2  1  0
  1  9  1  0
  1 22  1  6
  2  3  1  0
  2  7  1  6
  3  4  1  0
  3  8  1  1
  5  4  2  0
  5  6  1  0
  9  5  1  0
  6 10  1  0
  6 11  2  0
 13 12  1  0
 12 21  1  6
 12 24  1  0
 13 14  1  0
 13 20  1  1
 14 15  1  0
 14 22  1  6
 15 16  1  0
 15 23  1  6
 16 17  1  1
 24 16  1  0
 17 25  1  0
 18 19  1  0
 18 20  1  0
 18 26  2  0
M  END
$$$$
