
     RDKit          3D

 26 27  0  0  0  0  0  0  0  0999 V2000
   -0.4087   -7.4768  -21.1032 C   0  0  1  0  0  0  0  0  0  0  0  0
   -1.4797   -6.4422  -20.9087 C   0  0  1  0  0  0  0  0  0  0  0  0
   -1.1341   -5.1554  -21.6689 C   0  0  2  0  0  0  0  0  0  0  0  0
   -1.0245   -5.5261  -23.0888 C   0  0  0  0  0  0  0  0  0  0  0  0
   -0.6484   -6.7484  -23.4363 C   0  0  0  0  0  0  0  0  0  0  0  0
   -0.5533   -7.0722  -24.8532 C   0  0  0  0  0  0  0  0  0  0  0  0
   -2.6494   -6.9461  -21.4935 O   0  0  0  0  0  0  0  0  0  0  0  0
    0.0783   -4.6325  -21.2556 O   0  0  0  0  0  0  0  0  0  0  0  0
   -0.3432   -7.7276  -22.4996 O   0  0  0  0  0  0  0  0  0  0  0  0
    0.3709   -7.9975  -25.3146 O   0  0  0  0  0  0  0  0  0  0  0  0
   -1.3019   -6.5267  -25.7029 O   0  0  0  0  0  0  0  0  0  0  0  0
    3.5474   -8.5617  -18.7588 C   0  0  2  0  0  0  0  0  0  0  0  0
    2.2506   -7.7584  -18.8522 C   0  0  1  0  0  0  0  0  0  0  0  0
    1.6682   -8.0114  -20.1980 C   0  0  2  0  0  0  0  0  0  0  0  0
    2.8061   -8.2447  -21.1828 C   0  0  1  0  0  0  0  0  0  0  0  0
    3.5138   -9.5242  -20.8708 C   0  0  1  0  0  0  0  0  0  0  0  0
    4.8939   -9.5278  -21.4895 C   0  0  0  0  0  0  0  0  0  0  0  0
    1.0045   -7.2786  -16.7796 C   0  0  0  0  0  0  0  0  0  0  0  0
    0.2909   -7.6770  -15.5405 C   0  0  0  0  0  0  0  0  0  0  0  0
    1.4173   -8.2007  -17.7652 N   0  0  0  0  0  0  0  0  0  0  0  0
    4.6532   -7.7659  -19.0952 O   0  0  0  0  0  0  0  0  0  0  0  0
    0.8403   -7.0854  -20.7070 O   0  0  0  0  0  0  0  0  0  0  0  0
    2.2353   -8.2693  -22.4764 O   0  0  0  0  0  0  0  0  0  0  0  0
    3.5315   -9.7056  -19.5148 O   0  0  0  0  0  0  0  0  0  0  0  0
    5.7961   -8.7827  -20.7342 O   0  0  0  0  0  0  0  0  0  0  0  0
    1.2403   -6.0443  -16.9318 O   0  0  0  0  0  0  0  0  0  0  0  0
  1  2  1  0
  1  9  1  0
  1 22  1  6
  2  3  1  0
  2  7  1  6
  3  4  1  0
  3  8  1  1
  5  4  2  0
  5  6  1  0
  9  5  1  0
  6 10  1  0
  6 11  2  0
 13 12  1  0
 12 21  1  6
 12 24  1  0
 13 14  1  0
 13 20  1  1
 14 15  1  0
 14 22  1  6
 15 16  1  0
 15 23  1  6
 16 17  1  1
 24 16  1  0
 17 25  1  0
 18 19  1  0
 18 20  1  0
 18 26  2  0
M  END
$$$$
