
     RDKit          3D

 26 27  0  0  0  0  0  0  0  0999 V2000
   -0.5785   -7.3302  -21.0149 C   0  0  1  0  0  0  0  0  0  0  0  0
   -1.7179   -6.3634  -20.8661 C   0  0  1  0  0  0  0  0  0  0  0  0
   -1.4774   -5.1080  -21.7144 C   0  0  2  0  0  0  0  0  0  0  0  0
   -1.3632   -5.5626  -23.1094 C   0  0  0  0  0  0  0  0  0  0  0  0
   -0.9057   -6.7755  -23.3848 C   0  0  0  0  0  0  0  0  0  0  0  0
   -0.8093   -7.1841  -24.7795 C   0  0  0  0  0  0  0  0  0  0  0  0
   -2.8572   -6.9860  -21.3937 O   0  0  0  0  0  0  0  0  0  0  0  0
   -0.2995   -4.4748  -21.3600 O   0  0  0  0  0  0  0  0  0  0  0  0
   -0.5166   -7.6670  -22.3933 O   0  0  0  0  0  0  0  0  0  0  0  0
    0.0233   -8.2245  -25.1638 O   0  0  0  0  0  0  0  0  0  0  0  0
   -1.4743   -6.6107  -25.6790 O   0  0  0  0  0  0  0  0  0  0  0  0
    3.4294   -8.0848  -18.6779 C   0  0  2  0  0  0  0  0  0  0  0  0
    2.0363   -7.4662  -18.7890 C   0  0  1  0  0  0  0  0  0  0  0  0
    1.5705   -7.6707  -20.1874 C   0  0  2  0  0  0  0  0  0  0  0  0
    2.7817   -7.6483  -21.1102 C   0  0  1  0  0  0  0  0  0  0  0  0
    3.6506   -8.8395  -20.8619 C   0  0  1  0  0  0  0  0  0  0  0  0
    5.0478   -8.5911  -21.3849 C   0  0  0  0  0  0  0  0  0  0  0  0
    0.6058   -7.3601  -16.7838 C   0  0  0  0  0  0  0  0  0  0  0  0
   -0.1507   -7.9652  -15.6590 C   0  0  0  0  0  0  0  0  0  0  0  0
    1.2190   -8.1213  -17.8019 N   0  0  0  0  0  0  0  0  0  0  0  0
    4.4239   -7.1135  -18.8704 O   0  0  0  0  0  0  0  0  0  0  0  0
    0.6451   -6.8264  -20.6699 O   0  0  0  0  0  0  0  0  0  0  0  0
    2.2913   -7.6310  -22.4365 O   0  0  0  0  0  0  0  0  0  0  0  0
    3.6213   -9.1433  -19.5282 O   0  0  0  0  0  0  0  0  0  0  0  0
    5.0583   -8.4468  -22.7701 O   0  0  0  0  0  0  0  0  0  0  0  0
    0.6876   -6.0971  -16.8038 O   0  0  0  0  0  0  0  0  0  0  0  0
  1  2  1  0
  1  9  1  0
  1 22  1  6
  2  3  1  0
  2  7  1  6
  3  4  1  0
  3  8  1  1
  5  4  2  0
  5  6  1  0
  9  5  1  0
  6 10  1  0
  6 11  2  0
 13 12  1  0
 12 21  1  6
 12 24  1  0
 13 14  1  0
 13 20  1  1
 14 15  1  0
 14 22  1  6
 15 16  1  0
 15 23  1  6
 16 17  1  1
 24 16  1  0
 17 25  1  0
 18 19  1  0
 18 20  1  0
 18 26  2  0
M  END
$$$$
