
     RDKit          3D

 26 27  0  0  0  0  0  0  0  0999 V2000
   -0.6442   -7.2762  -20.9020 C   0  0  1  0  0  0  0  0  0  0  0  0
   -1.5939   -6.1316  -20.6943 C   0  0  1  0  0  0  0  0  0  0  0  0
   -1.2151   -4.9443  -21.5889 C   0  0  2  0  0  0  0  0  0  0  0  0
   -1.2842   -5.4288  -22.9768 C   0  0  0  0  0  0  0  0  0  0  0  0
   -1.0554   -6.7042  -23.2546 C   0  0  0  0  0  0  0  0  0  0  0  0
   -1.1344   -7.1405  -24.6420 C   0  0  0  0  0  0  0  0  0  0  0  0
   -2.8572   -6.5625  -21.1214 O   0  0  0  0  0  0  0  0  0  0  0  0
    0.0747   -4.5114  -21.3375 O   0  0  0  0  0  0  0  0  0  0  0  0
   -0.7440   -7.6356  -22.2724 O   0  0  0  0  0  0  0  0  0  0  0  0
   -0.6335   -8.3730  -25.0336 O   0  0  0  0  0  0  0  0  0  0  0  0
   -1.6567   -6.4184  -25.5285 O   0  0  0  0  0  0  0  0  0  0  0  0
    3.3838   -8.6838  -18.9214 C   0  0  2  0  0  0  0  0  0  0  0  0
    2.1089   -7.8410  -18.9097 C   0  0  1  0  0  0  0  0  0  0  0  0
    1.4826   -7.9655  -20.2538 C   0  0  2  0  0  0  0  0  0  0  0  0
    2.5858   -8.1466  -21.2880 C   0  0  1  0  0  0  0  0  0  0  0  0
    3.2642   -9.4661  -21.1036 C   0  0  1  0  0  0  0  0  0  0  0  0
    4.6261   -9.4552  -21.7613 C   0  0  0  0  0  0  0  0  0  0  0  0
    0.8814   -7.4856  -16.8013 C   0  0  0  0  0  0  0  0  0  0  0  0
    0.0942   -7.9402  -15.6278 C   0  0  0  0  0  0  0  0  0  0  0  0
    1.2933   -8.3496  -17.8385 N   0  0  0  0  0  0  0  0  0  0  0  0
    4.5027   -7.8926  -19.2240 O   0  0  0  0  0  0  0  0  0  0  0  0
    0.6685   -6.9786  -20.6601 O   0  0  0  0  0  0  0  0  0  0  0  0
    1.9792   -8.0483  -22.5616 O   0  0  0  0  0  0  0  0  0  0  0  0
    3.3138   -9.7600  -19.7682 O   0  0  0  0  0  0  0  0  0  0  0  0
    5.6445   -9.6638  -20.8345 O   0  0  0  0  0  0  0  0  0  0  0  0
    1.1831   -6.2570  -16.8461 O   0  0  0  0  0  0  0  0  0  0  0  0
  1  2  1  0
  1  9  1  0
  1 22  1  6
  2  3  1  0
  2  7  1  6
  3  4  1  0
  3  8  1  1
  5  4  2  0
  5  6  1  0
  9  5  1  0
  6 10  1  0
  6 11  2  0
 13 12  1  0
 12 21  1  6
 12 24  1  0
 13 14  1  0
 13 20  1  1
 14 15  1  0
 14 22  1  6
 15 16  1  0
 15 23  1  6
 16 17  1  1
 24 16  1  0
 17 25  1  0
 18 19  1  0
 18 20  1  0
 18 26  2  0
M  END
$$$$
