
     RDKit          3D

 26 27  0  0  0  0  0  0  0  0999 V2000
   -0.6493   -7.4088  -21.0365 C   0  0  1  0  0  0  0  0  0  0  0  0
   -1.6865   -6.3387  -20.8518 C   0  0  1  0  0  0  0  0  0  0  0  0
   -1.3423   -5.1004  -21.6894 C   0  0  2  0  0  0  0  0  0  0  0  0
   -1.3002   -5.5438  -23.0920 C   0  0  0  0  0  0  0  0  0  0  0  0
   -0.9679   -6.7912  -23.3920 C   0  0  0  0  0  0  0  0  0  0  0  0
   -0.9391   -7.1872  -24.7933 C   0  0  0  0  0  0  0  0  0  0  0  0
   -2.8910   -6.8407  -21.3630 O   0  0  0  0  0  0  0  0  0  0  0  0
   -0.1018   -4.5891  -21.3521 O   0  0  0  0  0  0  0  0  0  0  0  0
   -0.6475   -7.7302  -22.4199 O   0  0  0  0  0  0  0  0  0  0  0  0
   -0.0909   -8.1915  -25.2352 O   0  0  0  0  0  0  0  0  0  0  0  0
   -1.6785   -6.6350  -25.6469 O   0  0  0  0  0  0  0  0  0  0  0  0
    3.3190   -8.4952  -18.7374 C   0  0  2  0  0  0  0  0  0  0  0  0
    2.0184   -7.6995  -18.8428 C   0  0  1  0  0  0  0  0  0  0  0  0
    1.4520   -7.9527  -20.1954 C   0  0  2  0  0  0  0  0  0  0  0  0
    2.6018   -8.1766  -21.1685 C   0  0  1  0  0  0  0  0  0  0  0  0
    3.3140   -9.4525  -20.8520 C   0  0  1  0  0  0  0  0  0  0  0  0
    4.7007   -9.4461  -21.4559 C   0  0  0  0  0  0  0  0  0  0  0  0
    0.7215   -7.2264  -16.8001 C   0  0  0  0  0  0  0  0  0  0  0  0
   -0.0110   -7.6271  -15.5728 C   0  0  0  0  0  0  0  0  0  0  0  0
    1.1762   -8.1496  -17.7659 N   0  0  0  0  0  0  0  0  0  0  0  0
    4.4234   -7.6917  -19.0600 O   0  0  0  0  0  0  0  0  0  0  0  0
    0.6240   -7.0306  -20.7111 O   0  0  0  0  0  0  0  0  0  0  0  0
    2.0451   -8.2015  -22.4682 O   0  0  0  0  0  0  0  0  0  0  0  0
    3.3183   -9.6372  -19.4964 O   0  0  0  0  0  0  0  0  0  0  0  0
    5.0947   -8.1611  -21.8210 O   0  0  0  0  0  0  0  0  0  0  0  0
    0.9338   -5.9889  -16.9608 O   0  0  0  0  0  0  0  0  0  0  0  0
  1  2  1  0
  1  9  1  0
  1 22  1  6
  2  3  1  0
  2  7  1  6
  3  4  1  0
  3  8  1  1
  5  4  2  0
  5  6  1  0
  9  5  1  0
  6 10  1  0
  6 11  2  0
 13 12  1  0
 12 21  1  6
 12 24  1  0
 13 14  1  0
 13 20  1  1
 14 15  1  0
 14 22  1  6
 15 16  1  0
 15 23  1  6
 16 17  1  1
 24 16  1  0
 17 25  1  0
 18 19  1  0
 18 20  1  0
 18 26  2  0
M  END
$$$$
