
     RDKit          3D

 26 27  0  0  0  0  0  0  0  0999 V2000
    0.4699   -6.8749  -22.1158 C   0  0  1  0  0  0  0  0  0  0  0  0
    0.3545   -7.2763  -23.5714 C   0  0  1  0  0  0  0  0  0  0  0  0
   -0.3889   -6.1510  -24.2650 C   0  0  2  0  0  0  0  0  0  0  0  0
   -1.7291   -6.0700  -23.6469 C   0  0  0  0  0  0  0  0  0  0  0  0
   -1.9468   -6.3732  -22.3557 C   0  0  0  0  0  0  0  0  0  0  0  0
   -3.2836   -6.2808  -21.7830 C   0  0  0  0  0  0  0  0  0  0  0  0
    1.5581   -7.5773  -24.1521 O   0  0  0  0  0  0  0  0  0  0  0  0
   -0.4598   -6.3464  -25.6328 O   0  0  0  0  0  0  0  0  0  0  0  0
   -0.8473   -6.7723  -21.6097 O   0  0  0  0  0  0  0  0  0  0  0  0
   -3.5416   -6.4846  -20.4438 O   0  0  0  0  0  0  0  0  0  0  0  0
   -4.2357   -6.0041  -22.5444 O   0  0  0  0  0  0  0  0  0  0  0  0
    3.7608   -8.2718  -19.0070 C   0  0  2  0  0  0  0  0  0  0  0  0
    3.3492   -7.5565  -20.2790 C   0  0  1  0  0  0  0  0  0  0  0  0
    1.8908   -7.2330  -20.3207 C   0  0  2  0  0  0  0  0  0  0  0  0
    1.2702   -7.6155  -19.0007 C   0  0  1  0  0  0  0  0  0  0  0  0
    2.1255   -7.0742  -17.8913 C   0  0  1  0  0  0  0  0  0  0  0  0
    1.3885   -7.3079  -16.5816 C   0  0  0  0  0  0  0  0  0  0  0  0
    5.2330   -6.1500  -21.2261 C   0  0  0  0  0  0  0  0  0  0  0  0
    6.0310   -4.8899  -21.2681 C   0  0  0  0  0  0  0  0  0  0  0  0
    4.1468   -6.3477  -20.3547 N   0  0  0  0  0  0  0  0  0  0  0  0
    3.3244   -9.5973  -19.0006 O   0  0  0  0  0  0  0  0  0  0  0  0
    1.2316   -7.7889  -21.4044 O   0  0  0  0  0  0  0  0  0  0  0  0
    0.0210   -6.9607  -18.8992 O   0  0  0  0  0  0  0  0  0  0  0  0
    3.4012   -7.5769  -17.8708 O   0  0  0  0  0  0  0  0  0  0  0  0
    1.0468   -8.6627  -16.5143 O   0  0  0  0  0  0  0  0  0  0  0  0
    5.5457   -7.0836  -22.0082 O   0  0  0  0  0  0  0  0  0  0  0  0
  1  2  1  0
  1  9  1  0
  1 22  1  1
  2  3  1  0
  2  7  1  6
  3  4  1  0
  3  8  1  6
  5  4  2  0
  5  6  1  0
  9  5  1  0
  6 10  1  0
  6 11  2  0
 13 12  1  0
 12 21  1  1
 12 24  1  0
 13 14  1  0
 13 20  1  1
 14 15  1  0
 14 22  1  6
 15 16  1  0
 15 23  1  6
 16 17  1  0
 16 24  1  1
 17 25  1  6
 19 18  1  6
 18 20  1  0
 18 26  2  0
M  END
$$$$
