
     RDKit          3D

 26 27  0  0  0  0  0  0  0  0999 V2000
   -0.4188   -7.0304  -21.0375 C   0  0  1  0  0  0  0  0  0  0  0  0
   -1.6150   -6.1311  -20.9127 C   0  0  1  0  0  0  0  0  0  0  0  0
   -1.4562   -4.8918  -21.8029 C   0  0  2  0  0  0  0  0  0  0  0  0
   -1.3206   -5.3840  -23.1831 C   0  0  0  0  0  0  0  0  0  0  0  0
   -0.7905   -6.5749  -23.4220 C   0  0  0  0  0  0  0  0  0  0  0  0
   -0.6755   -7.0224  -24.8033 C   0  0  0  0  0  0  0  0  0  0  0  0
   -2.7162   -6.8395  -21.4123 O   0  0  0  0  0  0  0  0  0  0  0  0
   -0.3180   -4.1760  -21.4770 O   0  0  0  0  0  0  0  0  0  0  0  0
   -0.3426   -7.4077  -22.4046 O   0  0  0  0  0  0  0  0  0  0  0  0
    0.3461   -7.8740  -25.1962 O   0  0  0  0  0  0  0  0  0  0  0  0
   -1.4942   -6.6539  -25.6831 O   0  0  0  0  0  0  0  0  0  0  0  0
    3.7280   -7.5147  -18.8681 C   0  0  2  0  0  0  0  0  0  0  0  0
    2.2921   -6.9928  -18.9088 C   0  0  1  0  0  0  0  0  0  0  0  0
    1.7758   -7.2222  -20.2854 C   0  0  2  0  0  0  0  0  0  0  0  0
    2.9376   -7.1121  -21.2638 C   0  0  1  0  0  0  0  0  0  0  0  0
    3.8968   -8.2419  -21.0660 C   0  0  1  0  0  0  0  0  0  0  0  0
    5.2474   -7.8955  -21.6520 C   0  0  0  0  0  0  0  0  0  0  0  0
    1.1020   -7.0188  -16.7498 C   0  0  0  0  0  0  0  0  0  0  0  0
    0.4893   -7.7001  -15.5819 C   0  0  0  0  0  0  0  0  0  0  0  0
    1.5692   -7.7074  -17.8898 N   0  0  0  0  0  0  0  0  0  0  0  0
    4.6434   -6.4764  -19.0993 O   0  0  0  0  0  0  0  0  0  0  0  0
    0.7730   -6.4412  -20.7171 O   0  0  0  0  0  0  0  0  0  0  0  0
    2.3849   -7.1223  -22.5654 O   0  0  0  0  0  0  0  0  0  0  0  0
    3.9515   -8.5534  -19.7349 O   0  0  0  0  0  0  0  0  0  0  0  0
    5.4998   -6.5275  -21.5842 O   0  0  0  0  0  0  0  0  0  0  0  0
    1.1965   -5.7579  -16.6912 O   0  0  0  0  0  0  0  0  0  0  0  0
  1  2  1  0
  1  9  1  0
  1 22  1  6
  2  3  1  0
  2  7  1  6
  3  4  1  0
  3  8  1  1
  5  4  2  0
  5  6  1  0
  9  5  1  0
  6 10  1  0
  6 11  2  0
 13 12  1  0
 12 21  1  6
 12 24  1  0
 13 14  1  0
 13 20  1  1
 14 15  1  0
 14 22  1  6
 15 16  1  0
 15 23  1  6
 16 17  1  1
 24 16  1  0
 17 25  1  0
 18 19  1  0
 18 20  1  0
 18 26  2  0
M  END
$$$$
