
     RDKit          3D

 26 27  0  0  0  0  0  0  0  0999 V2000
    0.0831   -7.1642  -21.4026 C   0  0  1  0  0  0  0  0  0  0  0  0
   -0.6053   -5.8439  -21.1268 C   0  0  1  0  0  0  0  0  0  0  0  0
   -2.0416   -6.0096  -21.5848 C   0  0  2  0  0  0  0  0  0  0  0  0
   -2.0060   -6.2764  -23.0381 C   0  0  0  0  0  0  0  0  0  0  0  0
   -0.9940   -6.9385  -23.6249 C   0  0  0  0  0  0  0  0  0  0  0  0
   -0.9956   -7.1818  -25.0617 C   0  0  0  0  0  0  0  0  0  0  0  0
   -0.4895   -5.4286  -19.8266 O   0  0  0  0  0  0  0  0  0  0  0  0
   -2.8109   -4.9009  -21.2800 O   0  0  0  0  0  0  0  0  0  0  0  0
    0.0353   -7.3709  -22.8014 O   0  0  0  0  0  0  0  0  0  0  0  0
    0.0783   -7.7302  -25.7306 O   0  0  0  0  0  0  0  0  0  0  0  0
   -2.0189   -6.8777  -25.7122 O   0  0  0  0  0  0  0  0  0  0  0  0
    3.6432   -8.6527  -18.6756 C   0  0  2  0  0  0  0  0  0  0  0  0
    2.2375   -8.1245  -18.8849 C   0  0  1  0  0  0  0  0  0  0  0  0
    1.7366   -8.3343  -20.2771 C   0  0  2  0  0  0  0  0  0  0  0  0
    2.7567   -9.1367  -21.0449 C   0  0  1  0  0  0  0  0  0  0  0  0
    3.1680  -10.3164  -20.2117 C   0  0  1  0  0  0  0  0  0  0  0  0
    4.0497  -11.2074  -21.0731 C   0  0  0  0  0  0  0  0  0  0  0  0
    0.9185   -8.2433  -16.7239 C   0  0  0  0  0  0  0  0  0  0  0  0
    0.4043   -9.0588  -15.5850 C   0  0  0  0  0  0  0  0  0  0  0  0
    1.3892   -8.8039  -17.9249 N   0  0  0  0  0  0  0  0  0  0  0  0
    4.5940   -7.8363  -19.2897 O   0  0  0  0  0  0  0  0  0  0  0  0
    1.3829   -7.1602  -20.9207 O   0  0  0  0  0  0  0  0  0  0  0  0
    2.1241   -9.6605  -22.1960 O   0  0  0  0  0  0  0  0  0  0  0  0
    3.7645   -9.9823  -19.0229 O   0  0  0  0  0  0  0  0  0  0  0  0
    5.1568  -10.4555  -21.4800 O   0  0  0  0  0  0  0  0  0  0  0  0
    0.9327   -6.9915  -16.6061 O   0  0  0  0  0  0  0  0  0  0  0  0
  1  2  1  0
  1  9  1  0
  1 22  1  6
  2  3  1  0
  2  7  1  1
  3  4  1  0
  3  8  1  6
  5  4  2  0
  5  6  1  0
  9  5  1  0
  6 10  1  0
  6 11  2  0
 13 12  1  0
 12 21  1  6
 12 24  1  0
 13 14  1  0
 13 20  1  1
 14 15  1  0
 14 22  1  6
 15 16  1  0
 15 23  1  6
 16 17  1  0
 16 24  1  1
 17 25  1  6
 19 18  1  6
 18 20  1  0
 18 26  2  0
M  END
$$$$
