
     RDKit          3D

 26 27  0  0  0  0  0  0  0  0999 V2000
    0.3949   -7.1408  -21.5261 C   0  0  1  0  0  0  0  0  0  0  0  0
   -0.3626   -5.8646  -21.2249 C   0  0  1  0  0  0  0  0  0  0  0  0
   -1.7750   -6.0783  -21.7344 C   0  0  2  0  0  0  0  0  0  0  0  0
   -1.6828   -6.2882  -23.1946 C   0  0  0  0  0  0  0  0  0  0  0  0
   -0.6237   -6.8810  -23.7722 C   0  0  0  0  0  0  0  0  0  0  0  0
   -0.5702   -7.0698  -25.2161 C   0  0  0  0  0  0  0  0  0  0  0  0
   -0.3059   -5.4937  -19.9075 O   0  0  0  0  0  0  0  0  0  0  0  0
   -2.6043   -5.0181  -21.4145 O   0  0  0  0  0  0  0  0  0  0  0  0
    0.3993   -7.2966  -22.9323 O   0  0  0  0  0  0  0  0  0  0  0  0
    0.5707   -7.4713  -25.8783 O   0  0  0  0  0  0  0  0  0  0  0  0
   -1.6081   -6.8568  -25.8796 O   0  0  0  0  0  0  0  0  0  0  0  0
    3.9593   -8.4253  -18.6784 C   0  0  2  0  0  0  0  0  0  0  0  0
    2.5770   -7.8416  -18.8959 C   0  0  1  0  0  0  0  0  0  0  0  0
    1.9962   -8.1969  -20.2262 C   0  0  2  0  0  0  0  0  0  0  0  0
    2.9299   -9.1535  -20.9241 C   0  0  1  0  0  0  0  0  0  0  0  0
    3.3149  -10.2397  -19.9613 C   0  0  1  0  0  0  0  0  0  0  0  0
    4.1009  -11.2874  -20.7346 C   0  0  0  0  0  0  0  0  0  0  0  0
    1.3731   -7.6031  -16.6783 C   0  0  0  0  0  0  0  0  0  0  0  0
    0.5330   -8.1625  -15.5794 C   0  0  0  0  0  0  0  0  0  0  0  0
    1.7405   -8.3376  -17.8202 N   0  0  0  0  0  0  0  0  0  0  0  0
    4.9229   -7.7557  -19.4338 O   0  0  0  0  0  0  0  0  0  0  0  0
    1.6778   -7.0955  -21.0030 O   0  0  0  0  0  0  0  0  0  0  0  0
    2.2121   -9.7805  -21.9689 O   0  0  0  0  0  0  0  0  0  0  0  0
    3.9878   -9.7935  -18.8528 O   0  0  0  0  0  0  0  0  0  0  0  0
    5.3904  -10.7892  -20.9480 O   0  0  0  0  0  0  0  0  0  0  0  0
    1.7740   -6.4153  -16.5807 O   0  0  0  0  0  0  0  0  0  0  0  0
  1  2  1  0
  1  9  1  0
  1 22  1  6
  2  3  1  0
  2  7  1  1
  3  4  1  0
  3  8  1  6
  5  4  2  0
  5  6  1  0
  9  5  1  0
  6 10  1  0
  6 11  2  0
 13 12  1  0
 12 21  1  6
 12 24  1  0
 13 14  1  0
 13 20  1  1
 14 15  1  0
 14 22  1  6
 15 16  1  0
 15 23  1  6
 16 17  1  0
 16 24  1  1
 17 25  1  6
 19 18  1  6
 18 20  1  0
 18 26  2  0
M  END
$$$$
