
     RDKit          3D

 26 27  0  0  0  0  0  0  0  0999 V2000
    0.5201   -6.5861  -21.2498 C   0  0  1  0  0  0  0  0  0  0  0  0
    0.8630   -5.5832  -22.3137 C   0  0  1  0  0  0  0  0  0  0  0  0
    0.9114   -6.2523  -23.6933 C   0  0  2  0  0  0  0  0  0  0  0  0
   -0.4257   -6.8200  -23.9290 C   0  0  0  0  0  0  0  0  0  0  0  0
   -1.1773   -7.2124  -22.9105 C   0  0  0  0  0  0  0  0  0  0  0  0
   -2.4942   -7.7686  -23.1896 C   0  0  0  0  0  0  0  0  0  0  0  0
   -0.1872   -4.6565  -22.3593 O   0  0  0  0  0  0  0  0  0  0  0  0
    1.8378   -7.2795  -23.7264 O   0  0  0  0  0  0  0  0  0  0  0  0
   -0.7542   -7.1121  -21.5913 O   0  0  0  0  0  0  0  0  0  0  0  0
   -3.3185   -8.2042  -22.1629 O   0  0  0  0  0  0  0  0  0  0  0  0
   -2.9273   -7.8724  -24.3651 O   0  0  0  0  0  0  0  0  0  0  0  0
    2.7262   -9.1601  -18.1327 C   0  0  2  0  0  0  0  0  0  0  0  0
    2.4468   -7.9378  -19.0067 C   0  0  1  0  0  0  0  0  0  0  0  0
    1.4308   -8.3384  -20.0175 C   0  0  2  0  0  0  0  0  0  0  0  0
    1.6270   -9.8127  -20.3445 C   0  0  1  0  0  0  0  0  0  0  0  0
    1.2849  -10.6608  -19.1616 C   0  0  1  0  0  0  0  0  0  0  0  0
    1.9220  -12.0266  -19.2903 C   0  0  0  0  0  0  0  0  0  0  0  0
    2.7607   -5.7081  -18.0028 C   0  0  0  0  0  0  0  0  0  0  0  0
    2.4345   -4.6268  -17.0395 C   0  0  0  0  0  0  0  0  0  0  0  0
    2.0049   -6.8942  -18.1196 N   0  0  0  0  0  0  0  0  0  0  0  0
    3.8506   -9.8597  -18.5972 O   0  0  0  0  0  0  0  0  0  0  0  0
    1.3815   -7.6448  -21.1657 O   0  0  0  0  0  0  0  0  0  0  0  0
    0.7961  -10.1054  -21.4507 O   0  0  0  0  0  0  0  0  0  0  0  0
    1.6499  -10.0022  -18.0193 O   0  0  0  0  0  0  0  0  0  0  0  0
    0.9634  -13.0344  -19.3619 O   0  0  0  0  0  0  0  0  0  0  0  0
    3.7723   -5.5288  -18.7424 O   0  0  0  0  0  0  0  0  0  0  0  0
  1  2  1  0
  1  9  1  0
  1 22  1  6
  2  3  1  0
  2  7  1  6
  3  4  1  0
  3  8  1  1
  5  4  2  0
  5  6  1  0
  9  5  1  0
  6 10  1  0
  6 11  2  0
 13 12  1  0
 12 21  1  6
 12 24  1  0
 13 14  1  0
 13 20  1  1
 14 15  1  0
 14 22  1  6
 15 16  1  0
 15 23  1  6
 16 17  1  6
 24 16  1  0
 17 25  1  0
 18 19  1  0
 18 20  1  0
 18 26  2  0
M  END
$$$$
