
     RDKit          3D

 26 27  0  0  0  0  0  0  0  0999 V2000
   -0.5183   -7.2234  -21.0699 C   0  0  1  0  0  0  0  0  0  0  0  0
   -1.5156   -6.1128  -20.9051 C   0  0  1  0  0  0  0  0  0  0  0  0
   -1.1180   -4.8975  -21.7527 C   0  0  2  0  0  0  0  0  0  0  0  0
   -1.0817   -5.3573  -23.1502 C   0  0  0  0  0  0  0  0  0  0  0  0
   -0.7947   -6.6195  -23.4342 C   0  0  0  0  0  0  0  0  0  0  0  0
   -0.7699   -7.0314  -24.8311 C   0  0  0  0  0  0  0  0  0  0  0  0
   -2.7342   -6.5742  -21.4209 O   0  0  0  0  0  0  0  0  0  0  0  0
    0.1383   -4.4299  -21.4104 O   0  0  0  0  0  0  0  0  0  0  0  0
   -0.5179   -7.5595  -22.4498 O   0  0  0  0  0  0  0  0  0  0  0  0
   -1.6614   -6.4980  -25.7497 O   0  0  0  0  0  0  0  0  0  0  0  0
    0.0565   -7.8807  -25.2505 O   0  0  0  0  0  0  0  0  0  0  0  0
    3.4545   -8.5067  -18.8775 C   0  0  2  0  0  0  0  0  0  0  0  0
    2.1753   -7.6716  -18.9255 C   0  0  1  0  0  0  0  0  0  0  0  0
    1.5767   -7.8548  -20.2755 C   0  0  2  0  0  0  0  0  0  0  0  0
    2.7011   -8.0715  -21.2794 C   0  0  1  0  0  0  0  0  0  0  0  0
    3.3824   -9.3784  -21.0276 C   0  0  1  0  0  0  0  0  0  0  0  0
    4.7571   -9.3864  -21.6583 C   0  0  0  0  0  0  0  0  0  0  0  0
    0.9089   -7.2386  -16.8551 C   0  0  0  0  0  0  0  0  0  0  0  0
    0.1448   -7.6577  -15.6533 C   0  0  0  0  0  0  0  0  0  0  0  0
    1.3411   -8.1408  -17.8507 N   0  0  0  0  0  0  0  0  0  0  0  0
    4.5752   -7.7220  -19.1901 O   0  0  0  0  0  0  0  0  0  0  0  0
    0.7657   -6.8901  -20.7379 O   0  0  0  0  0  0  0  0  0  0  0  0
    2.1196   -8.0290  -22.5677 O   0  0  0  0  0  0  0  0  0  0  0  0
    3.4068   -9.6171  -19.6807 O   0  0  0  0  0  0  0  0  0  0  0  0
    5.7628   -9.3522  -20.6955 O   0  0  0  0  0  0  0  0  0  0  0  0
    1.1706   -6.0050  -16.9645 O   0  0  0  0  0  0  0  0  0  0  0  0
  1  2  1  0
  1  9  1  0
  1 22  1  6
  2  3  1  0
  2  7  1  6
  3  4  1  0
  3  8  1  1
  5  4  2  0
  5  6  1  0
  9  5  1  0
  6 10  1  0
  6 11  2  0
 13 12  1  0
 12 21  1  6
 12 24  1  0
 13 14  1  0
 13 20  1  1
 14 15  1  0
 14 22  1  6
 15 16  1  0
 15 23  1  6
 16 17  1  1
 24 16  1  0
 17 25  1  0
 18 19  1  0
 18 20  1  0
 18 26  2  0
M  END
$$$$
