
     RDKit          3D

 26 27  0  0  0  0  0  0  0  0999 V2000
   -0.5196   -7.0987  -20.9373 C   0  0  1  0  0  0  0  0  0  0  0  0
   -1.7688   -6.2783  -20.7906 C   0  0  1  0  0  0  0  0  0  0  0  0
   -1.6950   -5.0186  -21.6631 C   0  0  2  0  0  0  0  0  0  0  0  0
   -1.5397   -5.4811  -23.0515 C   0  0  0  0  0  0  0  0  0  0  0  0
   -0.9379   -6.6327  -23.3120 C   0  0  0  0  0  0  0  0  0  0  0  0
   -0.8059   -7.0518  -24.7006 C   0  0  0  0  0  0  0  0  0  0  0  0
   -2.8273   -7.0470  -21.2932 O   0  0  0  0  0  0  0  0  0  0  0  0
   -0.6014   -4.2376  -21.3344 O   0  0  0  0  0  0  0  0  0  0  0  0
   -0.4307   -7.4505  -22.3104 O   0  0  0  0  0  0  0  0  0  0  0  0
    0.2562   -7.8438  -25.1106 O   0  0  0  0  0  0  0  0  0  0  0  0
   -1.6461   -6.7119  -25.5717 O   0  0  0  0  0  0  0  0  0  0  0  0
    3.6161   -7.5329  -18.8202 C   0  0  2  0  0  0  0  0  0  0  0  0
    2.1249   -7.2001  -18.8594 C   0  0  1  0  0  0  0  0  0  0  0  0
    1.7152   -7.1681  -20.2896 C   0  0  2  0  0  0  0  0  0  0  0  0
    2.8973   -6.6901  -21.1222 C   0  0  1  0  0  0  0  0  0  0  0  0
    3.9946   -7.7055  -21.1038 C   0  0  1  0  0  0  0  0  0  0  0  0
    5.3107   -7.0664  -21.4874 C   0  0  0  0  0  0  0  0  0  0  0  0
    0.6365   -7.8431  -17.0021 C   0  0  0  0  0  0  0  0  0  0  0  0
   -0.0196   -8.8256  -16.1033 C   0  0  0  0  0  0  0  0  0  0  0  0
    1.4597   -8.2157  -18.0863 N   0  0  0  0  0  0  0  0  0  0  0  0
    4.3869   -6.3629  -18.7403 O   0  0  0  0  0  0  0  0  0  0  0  0
    0.6354   -6.4407  -20.6163 O   0  0  0  0  0  0  0  0  0  0  0  0
    2.4171   -6.4684  -22.4337 O   0  0  0  0  0  0  0  0  0  0  0  0
    4.0262   -8.3067  -19.8753 O   0  0  0  0  0  0  0  0  0  0  0  0
    5.2062   -5.6792  -21.5554 O   0  0  0  0  0  0  0  0  0  0  0  0
    0.4288   -6.6184  -16.7590 O   0  0  0  0  0  0  0  0  0  0  0  0
  1  2  1  0
  1  9  1  0
  1 22  1  6
  2  3  1  0
  2  7  1  6
  3  4  1  0
  3  8  1  1
  5  4  2  0
  5  6  1  0
  9  5  1  0
  6 10  1  0
  6 11  2  0
 13 12  1  0
 12 21  1  6
 12 24  1  0
 13 14  1  0
 13 20  1  1
 14 15  1  0
 14 22  1  1
 15 16  1  0
 15 23  1  6
 16 17  1  1
 24 16  1  0
 17 25  1  0
 18 19  1  0
 18 20  1  0
 18 26  2  0
M  END
$$$$
