
     RDKit          3D

 26 27  0  0  0  0  0  0  0  0999 V2000
   -0.3489   -7.6139  -21.0928 C   0  0  1  0  0  0  0  0  0  0  0  0
   -1.4119   -6.5734  -20.8863 C   0  0  1  0  0  0  0  0  0  0  0  0
   -1.0537   -5.2788  -21.6273 C   0  0  2  0  0  0  0  0  0  0  0  0
   -0.9435   -5.6303  -23.0521 C   0  0  0  0  0  0  0  0  0  0  0  0
   -0.5768   -6.8507  -23.4159 C   0  0  0  0  0  0  0  0  0  0  0  0
   -0.4807   -7.1551  -24.8370 C   0  0  0  0  0  0  0  0  0  0  0  0
   -2.5842   -7.0592  -21.4810 O   0  0  0  0  0  0  0  0  0  0  0  0
    0.1619   -4.7719  -21.2037 O   0  0  0  0  0  0  0  0  0  0  0  0
   -0.2820   -7.8455  -22.4925 O   0  0  0  0  0  0  0  0  0  0  0  0
    0.3356   -8.1783  -25.2954 O   0  0  0  0  0  0  0  0  0  0  0  0
   -1.1312   -6.5042  -25.6933 O   0  0  0  0  0  0  0  0  0  0  0  0
    3.4924   -8.7003  -18.5767 C   0  0  2  0  0  0  0  0  0  0  0  0
    2.2113   -7.8854  -18.7516 C   0  0  1  0  0  0  0  0  0  0  0  0
    1.6931   -8.1619  -20.1189 C   0  0  2  0  0  0  0  0  0  0  0  0
    2.8753   -8.4290  -21.0408 C   0  0  1  0  0  0  0  0  0  0  0  0
    3.5517   -9.7088  -20.6666 C   0  0  1  0  0  0  0  0  0  0  0  0
    4.9606   -9.7407  -21.2160 C   0  0  0  0  0  0  0  0  0  0  0  0
    0.8553   -7.3430  -16.7653 C   0  0  0  0  0  0  0  0  0  0  0  0
    0.1058   -7.7064  -15.5366 C   0  0  0  0  0  0  0  0  0  0  0  0
    1.3203   -8.2947  -17.6980 N   0  0  0  0  0  0  0  0  0  0  0  0
    4.6227   -7.9239  -18.8750 O   0  0  0  0  0  0  0  0  0  0  0  0
    0.9022   -7.2386  -20.6881 O   0  0  0  0  0  0  0  0  0  0  0  0
    2.3688   -8.4761  -22.3603 O   0  0  0  0  0  0  0  0  0  0  0  0
    3.5004   -9.8604  -19.3078 O   0  0  0  0  0  0  0  0  0  0  0  0
    5.2671  -10.9818  -21.7686 O   0  0  0  0  0  0  0  0  0  0  0  0
    1.0729   -6.1111  -16.9588 O   0  0  0  0  0  0  0  0  0  0  0  0
  1  2  1  0
  1  9  1  0
  1 22  1  6
  2  3  1  0
  2  7  1  6
  3  4  1  0
  3  8  1  1
  5  4  2  0
  5  6  1  0
  9  5  1  0
  6 10  1  0
  6 11  2  0
 13 12  1  0
 12 21  1  6
 12 24  1  0
 13 14  1  0
 13 20  1  1
 14 15  1  0
 14 22  1  6
 15 16  1  0
 15 23  1  6
 16 17  1  1
 24 16  1  0
 17 25  1  0
 18 19  1  0
 18 20  1  0
 18 26  2  0
M  END
$$$$
