
     RDKit          3D

 26 27  0  0  0  0  0  0  0  0999 V2000
    0.1344   -6.9372  -21.3695 C   0  0  1  0  0  0  0  0  0  0  0  0
   -0.7097   -5.6867  -21.2401 C   0  0  1  0  0  0  0  0  0  0  0  0
   -2.0763   -6.0368  -21.7970 C   0  0  2  0  0  0  0  0  0  0  0  0
   -1.8888   -6.3846  -23.2212 C   0  0  0  0  0  0  0  0  0  0  0  0
   -0.7666   -6.9653  -23.6797 C   0  0  0  0  0  0  0  0  0  0  0  0
   -0.6197   -7.2929  -25.0921 C   0  0  0  0  0  0  0  0  0  0  0  0
   -0.7497   -5.1840  -19.9665 O   0  0  0  0  0  0  0  0  0  0  0  0
   -2.9808   -5.0034  -21.6305 O   0  0  0  0  0  0  0  0  0  0  0  0
    0.2283   -7.2315  -22.7502 O   0  0  0  0  0  0  0  0  0  0  0  0
    0.5742   -7.7035  -25.6466 O   0  0  0  0  0  0  0  0  0  0  0  0
   -1.6244   -7.1956  -25.8297 O   0  0  0  0  0  0  0  0  0  0  0  0
    3.7773   -7.9760  -18.5175 C   0  0  2  0  0  0  0  0  0  0  0  0
    2.3330   -7.5644  -18.7263 C   0  0  1  0  0  0  0  0  0  0  0  0
    1.8305   -7.8748  -20.0991 C   0  0  2  0  0  0  0  0  0  0  0  0
    2.8977   -8.6331  -20.8473 C   0  0  1  0  0  0  0  0  0  0  0  0
    3.4081   -9.7393  -19.9693 C   0  0  1  0  0  0  0  0  0  0  0  0
    4.3427  -10.6005  -20.8048 C   0  0  0  0  0  0  0  0  0  0  0  0
    0.8939   -7.6463  -16.6415 C   0  0  0  0  0  0  0  0  0  0  0  0
    0.3679   -8.4008  -15.4666 C   0  0  0  0  0  0  0  0  0  0  0  0
    1.5514   -8.2605  -17.7226 N   0  0  0  0  0  0  0  0  0  0  0  0
    4.6554   -7.1200  -19.1836 O   0  0  0  0  0  0  0  0  0  0  0  0
    1.3806   -6.7611  -20.7885 O   0  0  0  0  0  0  0  0  0  0  0  0
    2.2909   -9.2550  -21.9630 O   0  0  0  0  0  0  0  0  0  0  0  0
    3.9937   -9.3074  -18.8070 O   0  0  0  0  0  0  0  0  0  0  0  0
    5.2732   -9.7565  -21.4199 O   0  0  0  0  0  0  0  0  0  0  0  0
    0.7429   -6.3983  -16.6687 O   0  0  0  0  0  0  0  0  0  0  0  0
  1  2  1  0
  1  9  1  0
  1 22  1  6
  2  3  1  0
  2  7  1  1
  3  4  1  0
  3  8  1  6
  5  4  2  0
  5  6  1  0
  9  5  1  0
  6 10  1  0
  6 11  2  0
 13 12  1  0
 12 21  1  6
 12 24  1  0
 13 14  1  0
 13 20  1  1
 14 15  1  0
 14 22  1  6
 15 16  1  0
 15 23  1  6
 16 17  1  0
 16 24  1  1
 17 25  1  6
 19 18  1  6
 18 20  1  0
 18 26  2  0
M  END
$$$$
