
     RDKit          3D

 26 27  0  0  0  0  0  0  0  0999 V2000
   -0.2474   -6.6173  -21.1763 C   0  0  1  0  0  0  0  0  0  0  0  0
   -1.1910   -5.4353  -21.1021 C   0  0  1  0  0  0  0  0  0  0  0  0
   -2.5145   -5.9116  -21.6693 C   0  0  2  0  0  0  0  0  0  0  0  0
   -2.2729   -6.2882  -23.0780 C   0  0  0  0  0  0  0  0  0  0  0  0
   -1.0995   -6.7909  -23.4987 C   0  0  0  0  0  0  0  0  0  0  0  0
   -0.9003   -7.1503  -24.8968 C   0  0  0  0  0  0  0  0  0  0  0  0
   -1.2950   -4.8973  -19.8467 O   0  0  0  0  0  0  0  0  0  0  0  0
   -3.5016   -4.9495  -21.5519 O   0  0  0  0  0  0  0  0  0  0  0  0
   -0.1043   -6.9466  -22.5448 O   0  0  0  0  0  0  0  0  0  0  0  0
   -1.9159   -7.1268  -25.8293 O   0  0  0  0  0  0  0  0  0  0  0  0
    0.2447   -7.4946  -25.2620 O   0  0  0  0  0  0  0  0  0  0  0  0
    3.5128   -7.4962  -18.4520 C   0  0  2  0  0  0  0  0  0  0  0  0
    2.0195   -7.3802  -18.6877 C   0  0  1  0  0  0  0  0  0  0  0  0
    1.6505   -7.4433  -20.1345 C   0  0  2  0  0  0  0  0  0  0  0  0
    2.8919   -7.7322  -20.9404 C   0  0  1  0  0  0  0  0  0  0  0  0
    3.6236   -8.8788  -20.3039 C   0  0  1  0  0  0  0  0  0  0  0  0
    4.7637   -9.2726  -21.2304 C   0  0  0  0  0  0  0  0  0  0  0  0
    0.5643   -8.2984  -16.8268 C   0  0  0  0  0  0  0  0  0  0  0  0
    0.0011   -9.4420  -16.0513 C   0  0  0  0  0  0  0  0  0  0  0  0
    1.3953   -8.4612  -17.9498 N   0  0  0  0  0  0  0  0  0  0  0  0
    4.1814   -6.3269  -18.8169 O   0  0  0  0  0  0  0  0  0  0  0  0
    0.9696   -6.3232  -20.5813 O   0  0  0  0  0  0  0  0  0  0  0  0
    2.4880   -8.1763  -22.2208 O   0  0  0  0  0  0  0  0  0  0  0  0
    4.0509   -8.6300  -19.0248 O   0  0  0  0  0  0  0  0  0  0  0  0
    4.4162   -8.8890  -22.5299 O   0  0  0  0  0  0  0  0  0  0  0  0
    0.2830   -7.1291  -16.4596 O   0  0  0  0  0  0  0  0  0  0  0  0
  1  2  1  0
  1  9  1  0
  1 22  1  6
  2  3  1  0
  2  7  1  1
  3  4  1  0
  3  8  1  6
  5  4  2  0
  5  6  1  0
  9  5  1  0
  6 10  1  0
  6 11  2  0
 13 12  1  0
 12 21  1  6
 12 24  1  0
 13 14  1  0
 13 20  1  1
 14 15  1  0
 14 22  1  6
 15 16  1  0
 15 23  1  6
 16 17  1  0
 16 24  1  1
 17 25  1  6
 19 18  1  6
 18 20  1  0
 18 26  2  0
M  END
$$$$
