
     RDKit          3D

 26 27  0  0  0  0  0  0  0  0999 V2000
    0.1922   -6.9770  -21.7615 C   0  0  1  0  0  0  0  0  0  0  0  0
   -0.5510   -5.6652  -21.6197 C   0  0  1  0  0  0  0  0  0  0  0  0
   -1.9492   -5.9089  -22.1545 C   0  0  2  0  0  0  0  0  0  0  0  0
   -1.8117   -6.2695  -23.5813 C   0  0  0  0  0  0  0  0  0  0  0  0
   -0.7450   -6.9346  -24.0571 C   0  0  0  0  0  0  0  0  0  0  0  0
   -0.6463   -7.2720  -25.4713 C   0  0  0  0  0  0  0  0  0  0  0  0
   -0.5318   -5.1614  -20.3461 O   0  0  0  0  0  0  0  0  0  0  0  0
   -2.7687   -4.8089  -21.9745 O   0  0  0  0  0  0  0  0  0  0  0  0
    0.2411   -7.2770  -23.1433 O   0  0  0  0  0  0  0  0  0  0  0  0
    0.4800   -7.8378  -26.0306 O   0  0  0  0  0  0  0  0  0  0  0  0
   -1.6299   -7.0358  -26.2060 O   0  0  0  0  0  0  0  0  0  0  0  0
    3.6944   -8.2195  -18.8288 C   0  0  2  0  0  0  0  0  0  0  0  0
    2.2866   -7.7232  -19.0945 C   0  0  1  0  0  0  0  0  0  0  0  0
    1.8131   -8.0251  -20.4794 C   0  0  2  0  0  0  0  0  0  0  0  0
    2.8561   -8.8603  -21.1784 C   0  0  1  0  0  0  0  0  0  0  0  0
    3.2662   -9.9810  -20.2667 C   0  0  1  0  0  0  0  0  0  0  0  0
    4.1735  -10.9122  -21.0560 C   0  0  0  0  0  0  0  0  0  0  0  0
    0.8381   -7.6956  -17.0149 C   0  0  0  0  0  0  0  0  0  0  0  0
    0.0905   -8.4076  -15.9375 C   0  0  0  0  0  0  0  0  0  0  0  0
    1.4292   -8.3528  -18.1089 N   0  0  0  0  0  0  0  0  0  0  0  0
    4.6464   -7.4307  -19.4760 O   0  0  0  0  0  0  0  0  0  0  0  0
    1.4574   -6.8975  -21.2006 O   0  0  0  0  0  0  0  0  0  0  0  0
    2.2504   -9.4623  -22.3054 O   0  0  0  0  0  0  0  0  0  0  0  0
    3.8373   -9.5665  -19.0909 O   0  0  0  0  0  0  0  0  0  0  0  0
    4.9512  -10.1303  -21.9164 O   0  0  0  0  0  0  0  0  0  0  0  0
    0.9463   -6.4449  -16.9430 O   0  0  0  0  0  0  0  0  0  0  0  0
  1  2  1  0
  1  9  1  0
  1 22  1  6
  2  3  1  0
  2  7  1  1
  3  4  1  0
  3  8  1  6
  5  4  2  0
  5  6  1  0
  9  5  1  0
  6 10  1  0
  6 11  2  0
 13 12  1  0
 12 21  1  6
 12 24  1  0
 13 14  1  0
 13 20  1  1
 14 15  1  0
 14 22  1  6
 15 16  1  0
 15 23  1  6
 16 17  1  0
 16 24  1  1
 17 25  1  6
 19 18  1  6
 18 20  1  0
 18 26  2  0
M  END
$$$$
