
     RDKit          3D

 26 27  0  0  0  0  0  0  0  0999 V2000
    0.3980   -6.9045  -21.4608 C   0  0  1  0  0  0  0  0  0  0  0  0
   -0.3041   -5.5776  -21.2620 C   0  0  1  0  0  0  0  0  0  0  0  0
   -1.7296   -5.7750  -21.7407 C   0  0  2  0  0  0  0  0  0  0  0  0
   -1.6624   -6.1099  -23.1787 C   0  0  0  0  0  0  0  0  0  0  0  0
   -0.6345   -6.7919  -23.7127 C   0  0  0  0  0  0  0  0  0  0  0  0
   -0.6049   -7.1029  -25.1361 C   0  0  0  0  0  0  0  0  0  0  0  0
   -0.2176   -5.1004  -19.9809 O   0  0  0  0  0  0  0  0  0  0  0  0
   -2.5118   -4.6586  -21.5045 O   0  0  0  0  0  0  0  0  0  0  0  0
    0.3803   -7.1775  -22.8489 O   0  0  0  0  0  0  0  0  0  0  0  0
    0.5121   -7.6028  -25.7715 O   0  0  0  0  0  0  0  0  0  0  0  0
   -1.6415   -6.9057  -25.8065 O   0  0  0  0  0  0  0  0  0  0  0  0
    3.9981   -8.3280  -18.7380 C   0  0  2  0  0  0  0  0  0  0  0  0
    2.5870   -7.8055  -18.9242 C   0  0  1  0  0  0  0  0  0  0  0  0
    2.0574   -8.0337  -20.3029 C   0  0  2  0  0  0  0  0  0  0  0  0
    3.0631   -8.8434  -21.0819 C   0  0  1  0  0  0  0  0  0  0  0  0
    3.4947  -10.0118  -20.2430 C   0  0  1  0  0  0  0  0  0  0  0  0
    4.3602  -10.9116  -21.1116 C   0  0  0  0  0  0  0  0  0  0  0  0
    1.1077   -7.8396  -16.8664 C   0  0  0  0  0  0  0  0  0  0  0  0
    0.4816   -8.5812  -15.7331 C   0  0  0  0  0  0  0  0  0  0  0  0
    1.7607   -8.4747  -17.9382 N   0  0  0  0  0  0  0  0  0  0  0  0
    4.9338   -7.5174  -19.3821 O   0  0  0  0  0  0  0  0  0  0  0  0
    1.6875   -6.8684  -20.9535 O   0  0  0  0  0  0  0  0  0  0  0  0
    2.4077   -9.3829  -22.2129 O   0  0  0  0  0  0  0  0  0  0  0  0
    4.1152   -9.6617  -19.0713 O   0  0  0  0  0  0  0  0  0  0  0  0
    5.3253  -10.1126  -21.7336 O   0  0  0  0  0  0  0  0  0  0  0  0
    1.0499   -6.5836  -16.8654 O   0  0  0  0  0  0  0  0  0  0  0  0
  1  2  1  0
  1  9  1  0
  1 22  1  6
  2  3  1  0
  2  7  1  1
  3  4  1  0
  3  8  1  6
  5  4  2  0
  5  6  1  0
  9  5  1  0
  6 10  1  0
  6 11  2  0
 13 12  1  0
 12 21  1  6
 12 24  1  0
 13 14  1  0
 13 20  1  1
 14 15  1  0
 14 22  1  6
 15 16  1  0
 15 23  1  6
 16 17  1  0
 16 24  1  1
 17 25  1  6
 19 18  1  6
 18 20  1  0
 18 26  2  0
M  END
$$$$
