
     RDKit          3D

 26 27  0  0  0  0  0  0  0  0999 V2000
   -0.6798   -7.4825  -21.2052 C   0  0  1  0  0  0  0  0  0  0  0  0
   -1.8232   -6.5246  -21.0314 C   0  0  1  0  0  0  0  0  0  0  0  0
   -1.5580   -5.2204  -21.7942 C   0  0  2  0  0  0  0  0  0  0  0  0
   -1.4027   -5.5893  -23.2103 C   0  0  0  0  0  0  0  0  0  0  0  0
   -0.9372   -6.7839  -23.5455 C   0  0  0  0  0  0  0  0  0  0  0  0
   -0.7997   -7.1070  -24.9591 C   0  0  0  0  0  0  0  0  0  0  0  0
   -2.9464   -7.1120  -21.6292 O   0  0  0  0  0  0  0  0  0  0  0  0
   -0.3910   -4.6118  -21.3674 O   0  0  0  0  0  0  0  0  0  0  0  0
   -0.5773   -7.7348  -22.5992 O   0  0  0  0  0  0  0  0  0  0  0  0
    0.2047   -7.9531  -25.4047 O   0  0  0  0  0  0  0  0  0  0  0  0
   -1.5830   -6.6325  -25.8202 O   0  0  0  0  0  0  0  0  0  0  0  0
    3.3314   -8.3255  -18.8648 C   0  0  2  0  0  0  0  0  0  0  0  0
    1.9655   -7.6446  -18.9454 C   0  0  1  0  0  0  0  0  0  0  0  0
    1.4361   -7.8738  -20.3172 C   0  0  2  0  0  0  0  0  0  0  0  0
    2.6099   -7.9411  -21.2851 C   0  0  1  0  0  0  0  0  0  0  0  0
    3.4311   -9.1636  -21.0271 C   0  0  1  0  0  0  0  0  0  0  0  0
    4.8168   -9.0007  -21.6109 C   0  0  0  0  0  0  0  0  0  0  0  0
    0.6315   -7.4038  -16.8861 C   0  0  0  0  0  0  0  0  0  0  0  0
   -0.0670   -7.9373  -15.6899 C   0  0  0  0  0  0  0  0  0  0  0  0
    1.1578   -8.2258  -17.9056 N   0  0  0  0  0  0  0  0  0  0  0  0
    4.3619   -7.4104  -19.1291 O   0  0  0  0  0  0  0  0  0  0  0  0
    0.5331   -7.0027  -20.7943 O   0  0  0  0  0  0  0  0  0  0  0  0
    2.0691   -7.9451  -22.5917 O   0  0  0  0  0  0  0  0  0  0  0  0
    3.4399   -9.4203  -19.6833 O   0  0  0  0  0  0  0  0  0  0  0  0
    5.2080   -7.6643  -21.6372 O   0  0  0  0  0  0  0  0  0  0  0  0
    0.7453   -6.1457  -16.9679 O   0  0  0  0  0  0  0  0  0  0  0  0
  1  2  1  0
  1  9  1  0
  1 22  1  6
  2  3  1  0
  2  7  1  6
  3  4  1  0
  3  8  1  1
  5  4  2  0
  5  6  1  0
  9  5  1  0
  6 10  1  0
  6 11  2  0
 13 12  1  0
 12 21  1  6
 12 24  1  0
 13 14  1  0
 13 20  1  1
 14 15  1  0
 14 22  1  6
 15 16  1  0
 15 23  1  6
 16 17  1  1
 24 16  1  0
 17 25  1  0
 18 19  1  0
 18 20  1  0
 18 26  2  0
M  END
$$$$
