
     RDKit          3D

 26 27  0  0  0  0  0  0  0  0999 V2000
   -0.4474   -7.1181  -20.7388 C   0  0  1  0  0  0  0  0  0  0  0  0
   -0.9334   -5.7299  -21.0416 C   0  0  1  0  0  0  0  0  0  0  0  0
   -0.3933   -5.2501  -22.3949 C   0  0  2  0  0  0  0  0  0  0  0  0
   -0.8869   -6.2024  -23.4025 C   0  0  0  0  0  0  0  0  0  0  0  0
   -1.1254   -7.4638  -23.0738 C   0  0  0  0  0  0  0  0  0  0  0  0
   -1.6131   -8.3720  -24.1027 C   0  0  0  0  0  0  0  0  0  0  0  0
   -2.3267   -5.8014  -21.1736 O   0  0  0  0  0  0  0  0  0  0  0  0
    0.9899   -5.2593  -22.4208 O   0  0  0  0  0  0  0  0  0  0  0  0
   -0.9272   -7.9477  -21.7870 O   0  0  0  0  0  0  0  0  0  0  0  0
   -1.7617   -9.7272  -23.8481 O   0  0  0  0  0  0  0  0  0  0  0  0
   -1.9148   -7.9611  -25.2517 O   0  0  0  0  0  0  0  0  0  0  0  0
    3.0072   -9.1614  -18.4154 C   0  0  2  0  0  0  0  0  0  0  0  0
    1.9687   -8.0740  -18.6888 C   0  0  1  0  0  0  0  0  0  0  0  0
    1.4387   -8.3019  -20.0605 C   0  0  2  0  0  0  0  0  0  0  0  0
    2.5466   -8.9034  -20.9148 C   0  0  1  0  0  0  0  0  0  0  0  0
    2.8800  -10.2827  -20.4439 C   0  0  1  0  0  0  0  0  0  0  0  0
    4.2540  -10.6878  -20.9292 C   0  0  0  0  0  0  0  0  0  0  0  0
    0.8016   -7.1381  -16.7292 C   0  0  0  0  0  0  0  0  0  0  0  0
    0.0397   -7.2847  -15.4637 C   0  0  0  0  0  0  0  0  0  0  0  0
    0.9746   -8.1897  -17.6544 N   0  0  0  0  0  0  0  0  0  0  0  0
    4.3007   -8.7008  -18.7055 O   0  0  0  0  0  0  0  0  0  0  0  0
    0.9132   -7.2525  -20.7120 O   0  0  0  0  0  0  0  0  0  0  0  0
    2.0824   -8.9090  -22.2506 O   0  0  0  0  0  0  0  0  0  0  0  0
    2.7538  -10.3324  -19.0824 O   0  0  0  0  0  0  0  0  0  0  0  0
    4.8264   -9.7016  -21.7289 O   0  0  0  0  0  0  0  0  0  0  0  0
    1.3093   -6.0023  -16.9624 O   0  0  0  0  0  0  0  0  0  0  0  0
  1  2  1  0
  1  9  1  0
  1 22  1  6
  2  3  1  0
  2  7  1  6
  3  4  1  0
  3  8  1  1
  5  4  2  0
  5  6  1  0
  9  5  1  0
  6 10  1  0
  6 11  2  0
 13 12  1  0
 12 21  1  6
 12 24  1  0
 13 14  1  0
 13 20  1  1
 14 15  1  0
 14 22  1  6
 15 16  1  0
 15 23  1  6
 16 17  1  1
 24 16  1  0
 17 25  1  0
 18 19  1  0
 18 20  1  0
 18 26  2  0
M  END
$$$$
