
     RDKit          3D

 26 27  0  0  0  0  0  0  0  0999 V2000
   -0.0196   -6.8137  -21.4018 C   0  0  1  0  0  0  0  0  0  0  0  0
   -0.8806   -5.5796  -21.2323 C   0  0  1  0  0  0  0  0  0  0  0  0
   -2.2487   -5.9372  -21.7805 C   0  0  2  0  0  0  0  0  0  0  0  0
   -2.0740   -6.2483  -23.2149 C   0  0  0  0  0  0  0  0  0  0  0  0
   -0.9491   -6.8008  -23.7008 C   0  0  0  0  0  0  0  0  0  0  0  0
   -0.8152   -7.0927  -25.1222 C   0  0  0  0  0  0  0  0  0  0  0  0
   -0.9119   -5.1078  -19.9467 O   0  0  0  0  0  0  0  0  0  0  0  0
   -3.1664   -4.9218  -21.5784 O   0  0  0  0  0  0  0  0  0  0  0  0
    0.0612   -7.0738  -22.7901 O   0  0  0  0  0  0  0  0  0  0  0  0
    0.3662   -7.5171  -25.6927 O   0  0  0  0  0  0  0  0  0  0  0  0
   -1.8198   -6.9503  -25.8527 O   0  0  0  0  0  0  0  0  0  0  0  0
    3.7333   -7.9465  -18.7370 C   0  0  2  0  0  0  0  0  0  0  0  0
    2.2641   -7.6019  -18.8832 C   0  0  1  0  0  0  0  0  0  0  0  0
    1.7572   -7.7870  -20.2768 C   0  0  2  0  0  0  0  0  0  0  0  0
    2.8540   -8.3916  -21.1166 C   0  0  1  0  0  0  0  0  0  0  0  0
    3.4433   -9.5561  -20.3736 C   0  0  1  0  0  0  0  0  0  0  0  0
    4.4123  -10.2610  -21.3103 C   0  0  0  0  0  0  0  0  0  0  0  0
    0.8088   -7.9949  -16.8456 C   0  0  0  0  0  0  0  0  0  0  0  0
    0.1555   -8.9086  -15.8634 C   0  0  0  0  0  0  0  0  0  0  0  0
    1.5419   -8.4513  -17.9559 N   0  0  0  0  0  0  0  0  0  0  0  0
    4.5483   -6.9704  -19.3119 O   0  0  0  0  0  0  0  0  0  0  0  0
    1.2311   -6.6325  -20.8321 O   0  0  0  0  0  0  0  0  0  0  0  0
    2.2657   -8.9207  -22.2886 O   0  0  0  0  0  0  0  0  0  0  0  0
    4.0224   -9.2220  -19.1763 O   0  0  0  0  0  0  0  0  0  0  0  0
    5.0514   -9.2864  -22.0838 O   0  0  0  0  0  0  0  0  0  0  0  0
    0.6998   -6.7541  -16.6742 O   0  0  0  0  0  0  0  0  0  0  0  0
  1  2  1  0
  1  9  1  0
  1 22  1  6
  2  3  1  0
  2  7  1  1
  3  4  1  0
  3  8  1  6
  5  4  2  0
  5  6  1  0
  9  5  1  0
  6 10  1  0
  6 11  2  0
 13 12  1  0
 12 21  1  6
 12 24  1  0
 13 14  1  0
 13 20  1  1
 14 15  1  0
 14 22  1  6
 15 16  1  0
 15 23  1  6
 16 17  1  0
 16 24  1  1
 17 25  1  6
 19 18  1  6
 18 20  1  0
 18 26  2  0
M  END
$$$$
