
     RDKit          3D

 26 27  0  0  0  0  0  0  0  0999 V2000
    0.2949   -7.0959  -21.5327 C   0  0  1  0  0  0  0  0  0  0  0  0
   -0.5106   -5.8398  -21.2748 C   0  0  1  0  0  0  0  0  0  0  0  0
   -1.9039   -6.1110  -21.8091 C   0  0  2  0  0  0  0  0  0  0  0  0
   -1.7732   -6.3480  -23.2622 C   0  0  0  0  0  0  0  0  0  0  0  0
   -0.6829   -6.9169  -23.8046 C   0  0  0  0  0  0  0  0  0  0  0  0
   -0.5919   -7.1336  -25.2428 C   0  0  0  0  0  0  0  0  0  0  0  0
   -0.4947   -5.4400  -19.9647 O   0  0  0  0  0  0  0  0  0  0  0  0
   -2.7743   -5.0728  -21.5294 O   0  0  0  0  0  0  0  0  0  0  0  0
    0.3348   -7.2806  -22.9348 O   0  0  0  0  0  0  0  0  0  0  0  0
    0.5576   -7.5749  -25.8636 O   0  0  0  0  0  0  0  0  0  0  0  0
   -1.6045   -6.9079  -25.9404 O   0  0  0  0  0  0  0  0  0  0  0  0
    3.9213   -8.3555  -18.7534 C   0  0  2  0  0  0  0  0  0  0  0  0
    2.4971   -7.8705  -18.9415 C   0  0  1  0  0  0  0  0  0  0  0  0
    1.9653   -8.1396  -20.3119 C   0  0  2  0  0  0  0  0  0  0  0  0
    2.9855   -8.9411  -21.0805 C   0  0  1  0  0  0  0  0  0  0  0  0
    3.4496  -10.0814  -20.2205 C   0  0  1  0  0  0  0  0  0  0  0  0
    4.3314  -10.9780  -21.0759 C   0  0  0  0  0  0  0  0  0  0  0  0
    1.0819   -7.9060  -16.8391 C   0  0  0  0  0  0  0  0  0  0  0  0
    0.2959   -8.6390  -15.8041 C   0  0  0  0  0  0  0  0  0  0  0  0
    1.6925   -8.5387  -17.9370 N   0  0  0  0  0  0  0  0  0  0  0  0
    4.8337   -7.5363  -19.4197 O   0  0  0  0  0  0  0  0  0  0  0  0
    1.5640   -6.9970  -20.9839 O   0  0  0  0  0  0  0  0  0  0  0  0
    2.3368   -9.5191  -22.1961 O   0  0  0  0  0  0  0  0  0  0  0  0
    4.0682   -9.6926  -19.0600 O   0  0  0  0  0  0  0  0  0  0  0  0
    5.1122  -10.1585  -21.8977 O   0  0  0  0  0  0  0  0  0  0  0  0
    1.2060   -6.6599  -16.7263 O   0  0  0  0  0  0  0  0  0  0  0  0
  1  2  1  0
  1  9  1  0
  1 22  1  6
  2  3  1  0
  2  7  1  1
  3  4  1  0
  3  8  1  6
  5  4  2  0
  5  6  1  0
  9  5  1  0
  6 10  1  0
  6 11  2  0
 13 12  1  0
 12 21  1  6
 12 24  1  0
 13 14  1  0
 13 20  1  1
 14 15  1  0
 14 22  1  6
 15 16  1  0
 15 23  1  6
 16 17  1  0
 16 24  1  1
 17 25  1  6
 19 18  1  6
 18 20  1  0
 18 26  2  0
M  END
$$$$
