
     RDKit          3D

 23 25  0  0  0  0  0  0  0  0999 V2000
   -6.9002  124.4721   48.9840 O   0  0  0  0  0  0  0  0  0  0  0  0
   -6.3181  123.9260   47.8245 C   0  0  0  0  0  0  0  0  0  0  0  0
   -5.0769  124.7496   47.5137 C   0  0  0  0  0  0  0  0  0  0  0  0
   -3.9714  124.4157   48.3605 N   0  0  0  0  0  0  0  0  0  0  0  0
   -2.7056  125.0534   48.3351 C   0  0  0  0  0  0  0  0  0  0  0  0
   -2.5039  125.9491   47.4833 O   0  0  0  0  0  0  0  0  0  0  0  0
   -1.6430  124.6968   49.2658 C   0  0  1  0  0  0  0  0  0  0  0  0
   -0.6666  123.8757   48.7561 O   0  0  0  0  0  0  0  0  0  0  0  0
   -0.8236  125.8988   49.7233 C   0  0  1  0  0  0  0  0  0  0  0  0
   -1.5144  126.6947   50.6125 O   0  0  0  0  0  0  0  0  0  0  0  0
    0.3507  125.1831   50.3881 C   0  0  1  0  0  0  0  0  0  0  0  0
    0.0983  125.2290   51.7641 O   0  0  0  0  0  0  0  0  0  0  0  0
    0.1940  123.7765   49.8632 C   0  0  2  0  0  0  0  0  0  0  0  0
    1.4215  123.1286   49.5591 N   0  0  0  0  0  0  0  0  0  0  0  0
    1.6357  122.3006   48.5197 C   0  0  0  0  0  0  0  0  0  0  0  0
    2.9067  121.8825   48.5536 N   0  0  0  0  0  0  0  0  0  0  0  0
    3.5325  122.4318   49.6122 C   0  0  0  0  0  0  0  0  0  0  0  0
    2.5707  123.2140   50.2291 C   0  0  0  0  0  0  0  0  0  0  0  0
    2.9072  123.8983   51.3349 N   0  0  0  0  0  0  0  0  0  0  0  0
    4.1813  123.8044   51.8176 C   0  0  0  0  0  0  0  0  0  0  0  0
    5.1092  123.0415   51.2110 N   0  0  0  0  0  0  0  0  0  0  0  0
    4.8174  122.3276   50.0859 C   0  0  0  0  0  0  0  0  0  0  0  0
    5.7853  121.5208   49.4381 N   0  0  0  0  0  0  0  0  0  0  0  0
  2  1  1  1
  2  3  1  0
  3  4  1  6
  4  5  1  0
  5  6  2  0
  7  5  1  6
  7  8  1  0
  7  9  1  0
  8 13  1  0
  9 10  1  1
  9 11  1  0
 11 12  1  1
 11 13  1  0
 13 14  1  6
 14 15  1  0
 14 18  1  0
 15 16  2  0
 16 17  1  0
 17 18  2  0
 17 22  1  0
 18 19  1  0
 19 20  2  0
 20 21  1  0
 21 22  2  0
 22 23  1  0
M  END
$$$$
