
     RDKit          3D

 23 25  0  0  0  0  0  0  0  0999 V2000
   -4.8662  128.0100   47.9069 O   0  0  0  0  0  0  0  0  0  0  0  0
   -5.5430  126.9094   48.4336 C   0  0  0  0  0  0  0  0  0  0  0  0
   -4.7614  125.6851   48.0838 C   0  0  0  0  0  0  0  0  0  0  0  0
   -3.7616  125.3545   49.0845 N   0  0  0  0  0  0  0  0  0  0  0  0
   -2.4201  125.7628   49.0023 C   0  0  0  0  0  0  0  0  0  0  0  0
   -2.0809  126.5096   48.0483 O   0  0  0  0  0  0  0  0  0  0  0  0
   -1.3602  125.3783   49.9628 C   0  0  1  0  0  0  0  0  0  0  0  0
   -0.5339  124.3769   49.4553 O   0  0  0  0  0  0  0  0  0  0  0  0
   -0.3426  126.5111   50.1513 C   0  0  1  0  0  0  0  0  0  0  0  0
   -0.8290  127.5155   50.9551 O   0  0  0  0  0  0  0  0  0  0  0  0
    0.8049  125.7467   50.7864 C   0  0  1  0  0  0  0  0  0  0  0  0
    0.6938  125.8134   52.1929 O   0  0  0  0  0  0  0  0  0  0  0  0
    0.5056  124.3321   50.3440 C   0  0  2  0  0  0  0  0  0  0  0  0
    1.6986  123.7160   49.8030 N   0  0  0  0  0  0  0  0  0  0  0  0
    1.6915  122.9925   48.6678 C   0  0  0  0  0  0  0  0  0  0  0  0
    2.9423  122.5439   48.4098 N   0  0  0  0  0  0  0  0  0  0  0  0
    3.7415  122.9858   49.3853 C   0  0  0  0  0  0  0  0  0  0  0  0
    2.9561  123.7211   50.2577 C   0  0  0  0  0  0  0  0  0  0  0  0
    3.4525  124.3128   51.3602 N   0  0  0  0  0  0  0  0  0  0  0  0
    4.7710  124.1680   51.6018 C   0  0  0  0  0  0  0  0  0  0  0  0
    5.5548  123.4564   50.7662 N   0  0  0  0  0  0  0  0  0  0  0  0
    5.0899  122.8535   49.6571 C   0  0  0  0  0  0  0  0  0  0  0  0
    5.8846  122.1040   48.7660 N   0  0  0  0  0  0  0  0  0  0  0  0
  1  2  1  0
  2  3  1  0
  3  4  1  0
  4  5  1  0
  5  6  2  0
  7  5  1  6
  7  8  1  0
  7  9  1  0
  8 13  1  0
  9 10  1  1
  9 11  1  0
 11 12  1  1
 11 13  1  0
 13 14  1  6
 14 15  1  0
 14 18  1  0
 15 16  2  0
 16 17  1  0
 17 18  2  0
 17 22  1  0
 18 19  1  0
 19 20  2  0
 20 21  1  0
 21 22  2  0
 22 23  1  0
M  END
$$$$
