
     RDKit          3D

 23 25  0  0  0  0  0  0  0  0999 V2000
   -5.6423  123.4225   46.4362 O   0  0  0  0  0  0  0  0  0  0  0  0
   -5.1595  124.7295   46.5098 C   0  0  0  0  0  0  0  0  0  0  0  0
   -5.1409  125.1269   47.9499 C   0  0  0  0  0  0  0  0  0  0  0  0
   -3.9937  124.5925   48.6631 N   0  0  0  0  0  0  0  0  0  0  0  0
   -2.7218  125.1883   48.6395 C   0  0  0  0  0  0  0  0  0  0  0  0
   -2.4511  125.9804   47.7003 O   0  0  0  0  0  0  0  0  0  0  0  0
   -1.6610  124.9540   49.6464 C   0  0  1  0  0  0  0  0  0  0  0  0
   -0.7557  123.9778   49.2335 O   0  0  0  0  0  0  0  0  0  0  0  0
   -0.7289  126.1670   49.7649 C   0  0  1  0  0  0  0  0  0  0  0  0
   -1.3026  127.1928   50.4792 O   0  0  0  0  0  0  0  0  0  0  0  0
    0.4532  125.5363   50.4785 C   0  0  1  0  0  0  0  0  0  0  0  0
    0.3043  125.7020   51.8733 O   0  0  0  0  0  0  0  0  0  0  0  0
    0.2630  124.0745   50.1419 C   0  0  2  0  0  0  0  0  0  0  0  0
    1.5083  123.5049   49.6725 N   0  0  0  0  0  0  0  0  0  0  0  0
    1.5986  122.7972   48.5309 C   0  0  0  0  0  0  0  0  0  0  0  0
    2.8776  122.3930   48.3496 N   0  0  0  0  0  0  0  0  0  0  0  0
    3.5970  122.8471   49.3800 C   0  0  0  0  0  0  0  0  0  0  0  0
    2.7329  123.5446   50.2079 C   0  0  0  0  0  0  0  0  0  0  0  0
    3.1371  124.1368   51.3472 N   0  0  0  0  0  0  0  0  0  0  0  0
    4.4414  124.0315   51.6722 C   0  0  0  0  0  0  0  0  0  0  0  0
    5.3008  123.3573   50.8811 N   0  0  0  0  0  0  0  0  0  0  0  0
    4.9287  122.7549   49.7373 C   0  0  0  0  0  0  0  0  0  0  0  0
    5.8038  122.0439   48.8911 N   0  0  0  0  0  0  0  0  0  0  0  0
  1  2  1  0
  2  3  1  0
  3  4  1  0
  4  5  1  0
  5  6  2  0
  7  5  1  6
  7  8  1  0
  7  9  1  0
  8 13  1  0
  9 10  1  1
  9 11  1  0
 11 12  1  1
 11 13  1  0
 13 14  1  6
 14 15  1  0
 14 18  1  0
 15 16  2  0
 16 17  1  0
 17 18  2  0
 17 22  1  0
 18 19  1  0
 19 20  2  0
 20 21  1  0
 21 22  2  0
 22 23  1  0
M  END
$$$$
