
     RDKit          3D

 23 25  0  0  0  0  0  0  0  0999 V2000
   -4.8018  129.1582   48.1736 O   0  0  0  0  0  0  0  0  0  0  0  0
   -3.8807  128.8486   47.1550 C   0  0  0  0  0  0  0  0  0  0  0  0
   -3.8965  127.3373   46.9788 C   0  0  0  0  0  0  0  0  0  0  0  0
   -3.1621  126.6582   48.0037 N   0  0  0  0  0  0  0  0  0  0  0  0
   -1.7874  126.8571   48.2871 C   0  0  0  0  0  0  0  0  0  0  0  0
   -1.1927  127.8071   47.7283 O   0  0  0  0  0  0  0  0  0  0  0  0
   -1.0554  125.9927   49.2033 C   0  0  1  0  0  0  0  0  0  0  0  0
   -0.1863  125.1096   48.6099 O   0  0  0  0  0  0  0  0  0  0  0  0
   -0.1223  126.7627   50.1317 C   0  0  1  0  0  0  0  0  0  0  0  0
   -0.8082  127.4440   51.1149 O   0  0  0  0  0  0  0  0  0  0  0  0
    0.6989  125.6078   50.7017 C   0  0  1  0  0  0  0  0  0  0  0  0
    0.1652  125.3469   51.9691 O   0  0  0  0  0  0  0  0  0  0  0  0
    0.3687  124.4896   49.7428 C   0  0  2  0  0  0  0  0  0  0  0  0
    1.4681  123.6443   49.4337 N   0  0  0  0  0  0  0  0  0  0  0  0
    1.4688  122.6622   48.5132 C   0  0  0  0  0  0  0  0  0  0  0  0
    2.6749  122.0820   48.4995 N   0  0  0  0  0  0  0  0  0  0  0  0
    3.4706  122.6778   49.4081 C   0  0  0  0  0  0  0  0  0  0  0  0
    2.6826  123.6606   49.9830 C   0  0  0  0  0  0  0  0  0  0  0  0
    3.2146  124.4350   50.9431 N   0  0  0  0  0  0  0  0  0  0  0  0
    4.5105  124.2330   51.3236 C   0  0  0  0  0  0  0  0  0  0  0  0
    5.2686  123.2752   50.7589 N   0  0  0  0  0  0  0  0  0  0  0  0
    4.7751  122.4630   49.7804 C   0  0  0  0  0  0  0  0  0  0  0  0
    5.5630  121.4511   49.1782 N   0  0  0  0  0  0  0  0  0  0  0  0
  2  1  1  1
  2  3  1  0
  3  4  1  6
  4  5  1  0
  5  6  2  0
  7  5  1  6
  7  8  1  0
  7  9  1  0
  8 13  1  0
  9 10  1  1
  9 11  1  0
 11 12  1  1
 11 13  1  0
 13 14  1  6
 14 15  1  0
 14 18  1  0
 15 16  2  0
 16 17  1  0
 17 18  2  0
 17 22  1  0
 18 19  1  0
 19 20  2  0
 20 21  1  0
 21 22  2  0
 22 23  1  0
M  END
$$$$
