
     RDKit          3D

 23 25  0  0  0  0  0  0  0  0999 V2000
   -6.6240  125.8438   48.3438 O   0  0  0  0  0  0  0  0  0  0  0  0
   -6.0043  125.6146   47.1148 C   0  0  0  0  0  0  0  0  0  0  0  0
   -5.0601  124.4698   47.2882 C   0  0  0  0  0  0  0  0  0  0  0  0
   -4.1857  124.6347   48.4365 N   0  0  0  0  0  0  0  0  0  0  0  0
   -2.8282  124.9803   48.3319 C   0  0  0  0  0  0  0  0  0  0  0  0
   -2.4281  125.5114   47.2639 O   0  0  0  0  0  0  0  0  0  0  0  0
   -1.8182  124.7659   49.3939 C   0  0  1  0  0  0  0  0  0  0  0  0
   -0.8519  123.8354   49.0153 O   0  0  0  0  0  0  0  0  0  0  0  0
   -0.9444  126.0117   49.5903 C   0  0  1  0  0  0  0  0  0  0  0  0
   -1.5991  126.9983   50.2901 O   0  0  0  0  0  0  0  0  0  0  0  0
    0.2195  125.4125   50.3588 C   0  0  1  0  0  0  0  0  0  0  0  0
   -0.0156  125.5415   51.7456 O   0  0  0  0  0  0  0  0  0  0  0  0
    0.1083  123.9521   49.9831 C   0  0  2  0  0  0  0  0  0  0  0  0
    1.4005  123.4423   49.5757 N   0  0  0  0  0  0  0  0  0  0  0  0
    1.5766  122.7259   48.4497 C   0  0  0  0  0  0  0  0  0  0  0  0
    2.8815  122.3868   48.3291 N   0  0  0  0  0  0  0  0  0  0  0  0
    3.5311  122.8908   49.3824 C   0  0  0  0  0  0  0  0  0  0  0  0
    2.5971  123.5527   50.1623 C   0  0  0  0  0  0  0  0  0  0  0  0
    2.9205  124.1796   51.3088 N   0  0  0  0  0  0  0  0  0  0  0  0
    4.2130  124.1467   51.6907 C   0  0  0  0  0  0  0  0  0  0  0  0
    5.1396  123.5083   50.9471 N   0  0  0  0  0  0  0  0  0  0  0  0
    4.8491  122.8728   49.7975 C   0  0  0  0  0  0  0  0  0  0  0  0
    5.7955  122.1978   49.0001 N   0  0  0  0  0  0  0  0  0  0  0  0
  1  2  1  0
  2  3  1  0
  3  4  1  0
  4  5  1  0
  5  6  2  0
  7  5  1  6
  7  8  1  0
  7  9  1  0
  8 13  1  0
  9 10  1  1
  9 11  1  0
 11 12  1  1
 11 13  1  0
 13 14  1  6
 14 15  1  0
 14 18  1  0
 15 16  2  0
 16 17  1  0
 17 18  2  0
 17 22  1  0
 18 19  1  0
 19 20  2  0
 20 21  1  0
 21 22  2  0
 22 23  1  0
M  END
$$$$
