
     RDKit          3D

 23 25  0  0  0  0  0  0  0  0999 V2000
   -5.3116  128.5267   47.9491 O   0  0  0  0  0  0  0  0  0  0  0  0
   -4.0637  129.1651   47.8185 C   0  0  0  0  0  0  0  0  0  0  0  0
   -3.1108  128.1637   47.1824 C   0  0  0  0  0  0  0  0  0  0  0  0
   -2.5823  127.2307   48.1317 N   0  0  0  0  0  0  0  0  0  0  0  0
   -1.2969  127.3125   48.7237 C   0  0  0  0  0  0  0  0  0  0  0  0
   -0.6245  128.3551   48.5522 O   0  0  0  0  0  0  0  0  0  0  0  0
   -0.7430  126.2250   49.5193 C   0  0  1  0  0  0  0  0  0  0  0  0
    0.1142  125.3852   48.8504 O   0  0  0  0  0  0  0  0  0  0  0  0
    0.1386  126.7132   50.6639 C   0  0  1  0  0  0  0  0  0  0  0  0
   -0.5967  127.2652   51.6914 O   0  0  0  0  0  0  0  0  0  0  0  0
    0.7965  125.3969   51.0733 C   0  0  1  0  0  0  0  0  0  0  0  0
    0.1054  124.9601   52.2094 O   0  0  0  0  0  0  0  0  0  0  0  0
    0.4879  124.5141   49.8884 C   0  0  2  0  0  0  0  0  0  0  0  0
    1.5444  123.6357   49.5262 N   0  0  0  0  0  0  0  0  0  0  0  0
    1.4307  122.5589   48.7266 C   0  0  0  0  0  0  0  0  0  0  0  0
    2.6300  121.9759   48.6120 N   0  0  0  0  0  0  0  0  0  0  0  0
    3.5353  122.6643   49.3333 C   0  0  0  0  0  0  0  0  0  0  0  0
    2.8219  123.7072   49.8997 C   0  0  0  0  0  0  0  0  0  0  0  0
    3.4709  124.5798   50.6882 N   0  0  0  0  0  0  0  0  0  0  0  0
    4.8087  124.4156   50.9083 C   0  0  0  0  0  0  0  0  0  0  0  0
    5.4935  123.3988   50.3532 N   0  0  0  0  0  0  0  0  0  0  0  0
    4.8806  122.4864   49.5454 C   0  0  0  0  0  0  0  0  0  0  0  0
    5.5904  121.4116   48.9552 N   0  0  0  0  0  0  0  0  0  0  0  0
  2  1  1  1
  2  3  1  0
  3  4  1  6
  4  5  1  0
  5  6  2  0
  7  5  1  6
  7  8  1  0
  7  9  1  0
  8 13  1  0
  9 10  1  1
  9 11  1  0
 11 12  1  1
 11 13  1  0
 13 14  1  6
 14 15  1  0
 14 18  1  0
 15 16  2  0
 16 17  1  0
 17 18  2  0
 17 22  1  0
 18 19  1  0
 19 20  2  0
 20 21  1  0
 21 22  2  0
 22 23  1  0
M  END
$$$$
