
     RDKit          3D

 23 25  0  0  0  0  0  0  0  0999 V2000
   -4.7347  128.3375   47.2589 O   0  0  0  0  0  0  0  0  0  0  0  0
   -5.4389  127.3149   47.8955 C   0  0  0  0  0  0  0  0  0  0  0  0
   -4.7677  126.0231   47.5592 C   0  0  0  0  0  0  0  0  0  0  0  0
   -3.8658  125.5723   48.6050 N   0  0  0  0  0  0  0  0  0  0  0  0
   -2.4737  125.4822   48.4402 C   0  0  0  0  0  0  0  0  0  0  0  0
   -1.9800  125.8257   47.3352 O   0  0  0  0  0  0  0  0  0  0  0  0
   -1.5296  125.0085   49.4786 C   0  0  1  0  0  0  0  0  0  0  0  0
   -0.6467  124.0502   48.9835 O   0  0  0  0  0  0  0  0  0  0  0  0
   -0.5446  126.1141   49.8810 C   0  0  1  0  0  0  0  0  0  0  0  0
   -1.1240  127.0475   50.7085 O   0  0  0  0  0  0  0  0  0  0  0  0
    0.5252  125.2899   50.5741 C   0  0  1  0  0  0  0  0  0  0  0  0
    0.2531  125.2342   51.9590 O   0  0  0  0  0  0  0  0  0  0  0  0
    0.2840  123.9214   49.9783 C   0  0  2  0  0  0  0  0  0  0  0  0
    1.5337  123.3473   49.5258 N   0  0  0  0  0  0  0  0  0  0  0  0
    1.6166  122.5461   48.4472 C   0  0  0  0  0  0  0  0  0  0  0  0
    2.9021  122.1629   48.2666 N   0  0  0  0  0  0  0  0  0  0  0  0
    3.6330  122.7240   49.2342 C   0  0  0  0  0  0  0  0  0  0  0  0
    2.7695  123.4667   50.0224 C   0  0  0  0  0  0  0  0  0  0  0  0
    3.1840  124.1662   51.0952 N   0  0  0  0  0  0  0  0  0  0  0  0
    4.4984  124.1252   51.3925 C   0  0  0  0  0  0  0  0  0  0  0  0
    5.3576  123.4086   50.6391 N   0  0  0  0  0  0  0  0  0  0  0  0
    4.9753  122.6994   49.5618 C   0  0  0  0  0  0  0  0  0  0  0  0
    5.8498  121.9419   48.7564 N   0  0  0  0  0  0  0  0  0  0  0  0
  1  2  1  0
  2  3  1  0
  3  4  1  0
  4  5  1  0
  5  6  2  0
  7  5  1  6
  7  8  1  0
  7  9  1  0
  8 13  1  0
  9 10  1  1
  9 11  1  0
 11 12  1  1
 11 13  1  0
 13 14  1  6
 14 15  1  0
 14 18  1  0
 15 16  2  0
 16 17  1  0
 17 18  2  0
 17 22  1  0
 18 19  1  0
 19 20  2  0
 20 21  1  0
 21 22  2  0
 22 23  1  0
M  END
$$$$
