
     RDKit          3D

 23 25  0  0  0  0  0  0  0  0999 V2000
   -5.3332  128.3726   48.7469 O   0  0  0  0  0  0  0  0  0  0  0  0
   -4.9239  128.0203   47.4469 C   0  0  0  0  0  0  0  0  0  0  0  0
   -4.7082  126.5141   47.4360 C   0  0  0  0  0  0  0  0  0  0  0  0
   -3.6935  126.0990   48.3573 N   0  0  0  0  0  0  0  0  0  0  0  0
   -2.2981  126.2267   48.1425 C   0  0  0  0  0  0  0  0  0  0  0  0
   -1.9031  126.7971   47.0998 O   0  0  0  0  0  0  0  0  0  0  0  0
   -1.3208  125.7161   49.0947 C   0  0  1  0  0  0  0  0  0  0  0  0
   -0.4976  124.7252   48.6173 O   0  0  0  0  0  0  0  0  0  0  0  0
   -0.3089  126.7696   49.5325 C   0  0  1  0  0  0  0  0  0  0  0  0
   -0.8580  127.6963   50.3933 O   0  0  0  0  0  0  0  0  0  0  0  0
    0.7182  125.8791   50.2290 C   0  0  1  0  0  0  0  0  0  0  0  0
    0.4669  126.0042   51.6002 O   0  0  0  0  0  0  0  0  0  0  0  0
    0.3240  124.5076   49.7369 C   0  0  2  0  0  0  0  0  0  0  0  0
    1.4228  123.6491   49.4639 N   0  0  0  0  0  0  0  0  0  0  0  0
    1.4635  122.7075   48.5029 C   0  0  0  0  0  0  0  0  0  0  0  0
    2.6547  122.0985   48.5432 N   0  0  0  0  0  0  0  0  0  0  0  0
    3.4007  122.6349   49.5278 C   0  0  0  0  0  0  0  0  0  0  0  0
    2.5978  123.6116   50.0923 C   0  0  0  0  0  0  0  0  0  0  0  0
    3.0811  124.3308   51.1187 N   0  0  0  0  0  0  0  0  0  0  0  0
    4.3439  124.0806   51.5747 C   0  0  0  0  0  0  0  0  0  0  0  0
    5.1169  123.1291   51.0194 N   0  0  0  0  0  0  0  0  0  0  0  0
    4.6723  122.3720   49.9755 C   0  0  0  0  0  0  0  0  0  0  0  0
    5.4763  121.3674   49.3824 N   0  0  0  0  0  0  0  0  0  0  0  0
  2  1  1  1
  2  3  1  0
  3  4  1  6
  4  5  1  0
  5  6  2  0
  7  5  1  6
  7  8  1  0
  7  9  1  0
  8 13  1  0
  9 10  1  1
  9 11  1  0
 11 12  1  1
 11 13  1  0
 13 14  1  6
 14 15  1  0
 14 18  1  0
 15 16  2  0
 16 17  1  0
 17 18  2  0
 17 22  1  0
 18 19  1  0
 19 20  2  0
 20 21  1  0
 21 22  2  0
 22 23  1  0
M  END
$$$$
