
     RDKit          3D

 23 25  0  0  0  0  0  0  0  0999 V2000
   -6.3115  126.4010   47.4650 O   0  0  0  0  0  0  0  0  0  0  0  0
   -6.3777  125.0290   47.7106 C   0  0  0  0  0  0  0  0  0  0  0  0
   -5.0775  124.4280   47.2857 C   0  0  0  0  0  0  0  0  0  0  0  0
   -4.1251  124.3255   48.3778 N   0  0  0  0  0  0  0  0  0  0  0  0
   -2.9991  125.1560   48.5029 C   0  0  0  0  0  0  0  0  0  0  0  0
   -2.8693  126.1113   47.6947 O   0  0  0  0  0  0  0  0  0  0  0  0
   -1.9393  124.9930   49.5248 C   0  0  1  0  0  0  0  0  0  0  0  0
   -1.0129  124.0156   49.1649 O   0  0  0  0  0  0  0  0  0  0  0  0
   -1.0316  126.2286   49.5868 C   0  0  1  0  0  0  0  0  0  0  0  0
   -1.6289  127.2771   50.2466 O   0  0  0  0  0  0  0  0  0  0  0  0
    0.1588  125.6576   50.3359 C   0  0  1  0  0  0  0  0  0  0  0  0
   -0.0007  125.8895   51.7201 O   0  0  0  0  0  0  0  0  0  0  0  0
   -0.0011  124.1775   50.0718 C   0  0  2  0  0  0  0  0  0  0  0  0
    1.2575  123.6098   49.6367 N   0  0  0  0  0  0  0  0  0  0  0  0
    1.3720  122.8679   48.5193 C   0  0  0  0  0  0  0  0  0  0  0  0
    2.6585  122.4752   48.3673 N   0  0  0  0  0  0  0  0  0  0  0  0
    3.3582  122.9708   49.3921 C   0  0  0  0  0  0  0  0  0  0  0  0
    2.4743  123.6825   50.1864 C   0  0  0  0  0  0  0  0  0  0  0  0
    2.8557  124.3155   51.3115 N   0  0  0  0  0  0  0  0  0  0  0  0
    4.1567  124.2377   51.6565 C   0  0  0  0  0  0  0  0  0  0  0  0
    5.0352  123.5504   50.8982 N   0  0  0  0  0  0  0  0  0  0  0  0
    4.6861  122.9075   49.7692 C   0  0  0  0  0  0  0  0  0  0  0  0
    5.5814  122.1819   48.9573 N   0  0  0  0  0  0  0  0  0  0  0  0
  1  2  1  0
  2  3  1  0
  3  4  1  0
  4  5  1  0
  5  6  2  0
  7  5  1  6
  7  8  1  0
  7  9  1  0
  8 13  1  0
  9 10  1  1
  9 11  1  0
 11 12  1  1
 11 13  1  0
 13 14  1  6
 14 15  1  0
 14 18  1  0
 15 16  2  0
 16 17  1  0
 17 18  2  0
 17 22  1  0
 18 19  1  0
 19 20  2  0
 20 21  1  0
 21 22  2  0
 22 23  1  0
M  END
$$$$
