
     RDKit          3D

 23 25  0  0  0  0  0  0  0  0999 V2000
   -6.6100  123.8133   48.7923 O   0  0  0  0  0  0  0  0  0  0  0  0
   -5.8652  123.9492   47.6055 C   0  0  0  0  0  0  0  0  0  0  0  0
   -5.1141  125.2695   47.6948 C   0  0  0  0  0  0  0  0  0  0  0  0
   -3.9902  125.2020   48.5798 N   0  0  0  0  0  0  0  0  0  0  0  0
   -2.6330  125.2839   48.1789 C   0  0  0  0  0  0  0  0  0  0  0  0
   -2.3762  125.6347   47.0044 O   0  0  0  0  0  0  0  0  0  0  0  0
   -1.5392  124.9732   49.0897 C   0  0  1  0  0  0  0  0  0  0  0  0
   -0.6018  124.0942   48.6038 O   0  0  0  0  0  0  0  0  0  0  0  0
   -0.6773  126.1867   49.4216 C   0  0  1  0  0  0  0  0  0  0  0  0
   -1.3138  127.0622   50.2757 O   0  0  0  0  0  0  0  0  0  0  0  0
    0.5096  125.4955   50.0899 C   0  0  1  0  0  0  0  0  0  0  0  0
    0.3168  125.6495   51.4676 O   0  0  0  0  0  0  0  0  0  0  0  0
    0.3028  124.0578   49.6791 C   0  0  2  0  0  0  0  0  0  0  0  0
    1.5031  123.3609   49.3749 N   0  0  0  0  0  0  0  0  0  0  0  0
    1.6786  122.5120   48.3452 C   0  0  0  0  0  0  0  0  0  0  0  0
    2.9335  122.0476   48.3755 N   0  0  0  0  0  0  0  0  0  0  0  0
    3.5873  122.5872   49.4219 C   0  0  0  0  0  0  0  0  0  0  0  0
    2.6599  123.4125   50.0353 C   0  0  0  0  0  0  0  0  0  0  0  0
    3.0301  124.0983   51.1293 N   0  0  0  0  0  0  0  0  0  0  0  0
    4.3035  123.9638   51.6040 C   0  0  0  0  0  0  0  0  0  0  0  0
    5.1979  123.1591   51.0010 N   0  0  0  0  0  0  0  0  0  0  0  0
    4.8712  122.4418   49.8877 C   0  0  0  0  0  0  0  0  0  0  0  0
    5.8036  121.5913   49.2437 N   0  0  0  0  0  0  0  0  0  0  0  0
  2  1  1  1
  2  3  1  0
  3  4  1  6
  4  5  1  0
  5  6  2  0
  7  5  1  6
  7  8  1  0
  7  9  1  0
  8 13  1  0
  9 10  1  1
  9 11  1  0
 11 12  1  1
 11 13  1  0
 13 14  1  6
 14 15  1  0
 14 18  1  0
 15 16  2  0
 16 17  1  0
 17 18  2  0
 17 22  1  0
 18 19  1  0
 19 20  2  0
 20 21  1  0
 21 22  2  0
 22 23  1  0
M  END
$$$$
