
     RDKit          3D

 23 25  0  0  0  0  0  0  0  0999 V2000
   -6.3288  126.4563   49.1560 O   0  0  0  0  0  0  0  0  0  0  0  0
   -5.9190  126.4422   47.8093 C   0  0  0  0  0  0  0  0  0  0  0  0
   -5.2295  125.1082   47.5632 C   0  0  0  0  0  0  0  0  0  0  0  0
   -4.1032  124.9063   48.4243 N   0  0  0  0  0  0  0  0  0  0  0  0
   -2.7576  125.1962   48.0852 C   0  0  0  0  0  0  0  0  0  0  0  0
   -2.5196  125.7108   46.9684 O   0  0  0  0  0  0  0  0  0  0  0  0
   -1.6546  124.9135   48.9941 C   0  0  1  0  0  0  0  0  0  0  0  0
   -0.7142  124.0313   48.5201 O   0  0  0  0  0  0  0  0  0  0  0  0
   -0.7996  126.1404   49.2930 C   0  0  1  0  0  0  0  0  0  0  0  0
   -1.4363  127.0294   50.1330 O   0  0  0  0  0  0  0  0  0  0  0  0
    0.3976  125.4728   49.9669 C   0  0  1  0  0  0  0  0  0  0  0  0
    0.2139  125.6550   51.3425 O   0  0  0  0  0  0  0  0  0  0  0  0
    0.1987  124.0250   49.5889 C   0  0  2  0  0  0  0  0  0  0  0  0
    1.4020  123.3307   49.2906 N   0  0  0  0  0  0  0  0  0  0  0  0
    1.5795  122.4697   48.2713 C   0  0  0  0  0  0  0  0  0  0  0  0
    2.8370  122.0124   48.3044 N   0  0  0  0  0  0  0  0  0  0  0  0
    3.4905  122.5689   49.3422 C   0  0  0  0  0  0  0  0  0  0  0  0
    2.5601  123.3969   49.9473 C   0  0  0  0  0  0  0  0  0  0  0  0
    2.9293  124.0986   51.0316 N   0  0  0  0  0  0  0  0  0  0  0  0
    4.2046  123.9770   51.5048 C   0  0  0  0  0  0  0  0  0  0  0  0
    5.1018  123.1695   50.9098 N   0  0  0  0  0  0  0  0  0  0  0  0
    4.7763  122.4363   49.8066 C   0  0  0  0  0  0  0  0  0  0  0  0
    5.7117  121.5827   49.1712 N   0  0  0  0  0  0  0  0  0  0  0  0
  2  1  1  1
  2  3  1  0
  3  4  1  6
  4  5  1  0
  5  6  2  0
  7  5  1  6
  7  8  1  0
  7  9  1  0
  8 13  1  0
  9 10  1  1
  9 11  1  0
 11 12  1  1
 11 13  1  0
 13 14  1  6
 14 15  1  0
 14 18  1  0
 15 16  2  0
 16 17  1  0
 17 18  2  0
 17 22  1  0
 18 19  1  0
 19 20  2  0
 20 21  1  0
 21 22  2  0
 22 23  1  0
M  END
$$$$
