
     RDKit          3D

 23 25  0  0  0  0  0  0  0  0999 V2000
   -4.8844  123.5549   46.5492 O   0  0  0  0  0  0  0  0  0  0  0  0
   -5.5804  124.2032   47.5702 C   0  0  0  0  0  0  0  0  0  0  0  0
   -5.0160  125.5802   47.7018 C   0  0  0  0  0  0  0  0  0  0  0  0
   -3.9950  125.6705   48.7313 N   0  0  0  0  0  0  0  0  0  0  0  0
   -2.6235  125.5035   48.4775 C   0  0  0  0  0  0  0  0  0  0  0  0
   -2.2215  125.5912   47.2886 O   0  0  0  0  0  0  0  0  0  0  0  0
   -1.6007  125.2288   49.5130 C   0  0  1  0  0  0  0  0  0  0  0  0
   -0.7383  124.2009   49.1353 O   0  0  0  0  0  0  0  0  0  0  0  0
   -0.6092  126.3931   49.6383 C   0  0  1  0  0  0  0  0  0  0  0  0
   -1.1451  127.4577   50.3247 O   0  0  0  0  0  0  0  0  0  0  0  0
    0.5209  125.7120   50.3888 C   0  0  1  0  0  0  0  0  0  0  0  0
    0.3478  125.9053   51.7773 O   0  0  0  0  0  0  0  0  0  0  0  0
    0.2622  124.2574   50.0670 C   0  0  2  0  0  0  0  0  0  0  0  0
    1.4867  123.6168   49.6357 N   0  0  0  0  0  0  0  0  0  0  0  0
    1.5532  122.8428   48.5364 C   0  0  0  0  0  0  0  0  0  0  0  0
    2.8169  122.3825   48.3835 N   0  0  0  0  0  0  0  0  0  0  0  0
    3.5504  122.8675   49.3896 C   0  0  0  0  0  0  0  0  0  0  0  0
    2.7108  123.6420   50.1732 C   0  0  0  0  0  0  0  0  0  0  0  0
    3.1342  124.2826   51.2788 N   0  0  0  0  0  0  0  0  0  0  0  0
    4.4329  124.1482   51.6147 C   0  0  0  0  0  0  0  0  0  0  0  0
    5.2686  123.3992   50.8666 N   0  0  0  0  0  0  0  0  0  0  0  0
    4.8770  122.7470   49.7571 C   0  0  0  0  0  0  0  0  0  0  0  0
    5.7272  121.9576   48.9561 N   0  0  0  0  0  0  0  0  0  0  0  0
  1  2  1  0
  2  3  1  0
  3  4  1  0
  4  5  1  0
  5  6  2  0
  7  5  1  6
  7  8  1  0
  7  9  1  0
  8 13  1  0
  9 10  1  1
  9 11  1  0
 11 12  1  1
 11 13  1  0
 13 14  1  6
 14 15  1  0
 14 18  1  0
 15 16  2  0
 16 17  1  0
 17 18  2  0
 17 22  1  0
 18 19  1  0
 19 20  2  0
 20 21  1  0
 21 22  2  0
 22 23  1  0
M  END
$$$$
