
     RDKit          3D

 23 25  0  0  0  0  0  0  0  0999 V2000
   -5.0941  124.1261   46.2168 O   0  0  0  0  0  0  0  0  0  0  0  0
   -5.5054  124.8623   47.3439 C   0  0  0  0  0  0  0  0  0  0  0  0
   -4.6290  126.1042   47.4142 C   0  0  0  0  0  0  0  0  0  0  0  0
   -3.7031  126.0607   48.5058 N   0  0  0  0  0  0  0  0  0  0  0  0
   -2.3022  126.2450   48.3921 C   0  0  0  0  0  0  0  0  0  0  0  0
   -1.8695  127.0029   47.4938 O   0  0  0  0  0  0  0  0  0  0  0  0
   -1.3615  125.5816   49.2851 C   0  0  1  0  0  0  0  0  0  0  0  0
   -0.4747  124.7279   48.6752 O   0  0  0  0  0  0  0  0  0  0  0  0
   -0.4178  126.5537   49.9852 C   0  0  1  0  0  0  0  0  0  0  0  0
   -1.0506  127.2756   50.9750 O   0  0  0  0  0  0  0  0  0  0  0  0
    0.6018  125.5703   50.5563 C   0  0  1  0  0  0  0  0  0  0  0  0
    0.2682  125.4134   51.9066 O   0  0  0  0  0  0  0  0  0  0  0  0
    0.2898  124.3140   49.7798 C   0  0  2  0  0  0  0  0  0  0  0  0
    1.4349  123.5568   49.4134 N   0  0  0  0  0  0  0  0  0  0  0  0
    1.4929  122.6537   48.4169 C   0  0  0  0  0  0  0  0  0  0  0  0
    2.7287  122.1421   48.3673 N   0  0  0  0  0  0  0  0  0  0  0  0
    3.4870  122.7045   49.3277 C   0  0  0  0  0  0  0  0  0  0  0  0
    2.6442  123.5939   49.9728 C   0  0  0  0  0  0  0  0  0  0  0  0
    3.1291  124.3157   50.9966 N   0  0  0  0  0  0  0  0  0  0  0  0
    4.4324  124.1537   51.3711 C   0  0  0  0  0  0  0  0  0  0  0  0
    5.2439  123.2867   50.7379 N   0  0  0  0  0  0  0  0  0  0  0  0
    4.7995  122.5308   49.6930 C   0  0  0  0  0  0  0  0  0  0  0  0
    5.6438  121.6147   49.0182 N   0  0  0  0  0  0  0  0  0  0  0  0
  2  1  1  1
  2  3  1  0
  3  4  1  6
  4  5  1  0
  5  6  2  0
  7  5  1  6
  7  8  1  0
  7  9  1  0
  8 13  1  0
  9 10  1  1
  9 11  1  0
 11 12  1  1
 11 13  1  0
 13 14  1  6
 14 15  1  0
 14 18  1  0
 15 16  2  0
 16 17  1  0
 17 18  2  0
 17 22  1  0
 18 19  1  0
 19 20  2  0
 20 21  1  0
 21 22  2  0
 22 23  1  0
M  END
$$$$
