
     RDKit          3D

 23 25  0  0  0  0  0  0  0  0999 V2000
   -6.2333  123.7564   48.1309 O   0  0  0  0  0  0  0  0  0  0  0  0
   -5.5044  124.2909   47.0679 C   0  0  0  0  0  0  0  0  0  0  0  0
   -5.0374  125.6504   47.4750 C   0  0  0  0  0  0  0  0  0  0  0  0
   -4.0187  125.6056   48.5097 N   0  0  0  0  0  0  0  0  0  0  0  0
   -2.6893  125.2201   48.2704 C   0  0  0  0  0  0  0  0  0  0  0  0
   -2.3259  125.0375   47.0798 O   0  0  0  0  0  0  0  0  0  0  0  0
   -1.6689  125.0091   49.3231 C   0  0  1  0  0  0  0  0  0  0  0  0
   -0.7683  124.0012   48.9827 O   0  0  0  0  0  0  0  0  0  0  0  0
   -0.7189  126.2096   49.4256 C   0  0  1  0  0  0  0  0  0  0  0  0
   -1.2977  127.2738   50.0767 O   0  0  0  0  0  0  0  0  0  0  0  0
    0.4255  125.5884   50.2059 C   0  0  1  0  0  0  0  0  0  0  0  0
    0.2311  125.8139   51.5866 O   0  0  0  0  0  0  0  0  0  0  0  0
    0.2197  124.1175   49.9223 C   0  0  2  0  0  0  0  0  0  0  0  0
    1.4697  123.5074   49.5211 N   0  0  0  0  0  0  0  0  0  0  0  0
    1.5735  122.7034   48.4465 C   0  0  0  0  0  0  0  0  0  0  0  0
    2.8538  122.2831   48.3184 N   0  0  0  0  0  0  0  0  0  0  0  0
    3.5604  122.8237   49.3153 C   0  0  0  0  0  0  0  0  0  0  0  0
    2.6871  123.5916   50.0678 C   0  0  0  0  0  0  0  0  0  0  0  0
    3.0774  124.2797   51.1569 N   0  0  0  0  0  0  0  0  0  0  0  0
    4.3768  124.2011   51.5077 C   0  0  0  0  0  0  0  0  0  0  0  0
    5.2451  123.4595   50.7898 N   0  0  0  0  0  0  0  0  0  0  0  0
    4.8869  122.7608   49.6975 C   0  0  0  0  0  0  0  0  0  0  0  0
    5.7715  121.9779   48.9282 N   0  0  0  0  0  0  0  0  0  0  0  0
  1  2  1  0
  2  3  1  0
  3  4  1  0
  4  5  1  0
  5  6  2  0
  7  5  1  6
  7  8  1  0
  7  9  1  0
  8 13  1  0
  9 10  1  1
  9 11  1  0
 11 12  1  1
 11 13  1  0
 13 14  1  6
 14 15  1  0
 14 18  1  0
 15 16  2  0
 16 17  1  0
 17 18  2  0
 17 22  1  0
 18 19  1  0
 19 20  2  0
 20 21  1  0
 21 22  2  0
 22 23  1  0
M  END
$$$$
