
     RDKit          3D

 23 25  0  0  0  0  0  0  0  0999 V2000
   -5.8248  124.3744   47.2035 O   0  0  0  0  0  0  0  0  0  0  0  0
   -5.3438  125.6929   47.0946 C   0  0  0  0  0  0  0  0  0  0  0  0
   -3.8274  125.6118   46.9978 C   0  0  0  0  0  0  0  0  0  0  0  0
   -3.2289  125.0943   48.1914 N   0  0  0  0  0  0  0  0  0  0  0  0
   -2.5724  125.8744   49.1764 C   0  0  0  0  0  0  0  0  0  0  0  0
   -2.9584  127.0511   49.3628 O   0  0  0  0  0  0  0  0  0  0  0  0
   -1.4703  125.3471   49.9701 C   0  0  1  0  0  0  0  0  0  0  0  0
   -0.6023  124.5230   49.2957 O   0  0  0  0  0  0  0  0  0  0  0  0
   -0.5283  126.4337   50.4775 C   0  0  1  0  0  0  0  0  0  0  0  0
   -1.0845  127.1720   51.5007 O   0  0  0  0  0  0  0  0  0  0  0  0
    0.6365  125.5720   50.9607 C   0  0  1  0  0  0  0  0  0  0  0  0
    0.4971  125.4835   52.3507 O   0  0  0  0  0  0  0  0  0  0  0  0
    0.3324  124.2452   50.3082 C   0  0  2  0  0  0  0  0  0  0  0  0
    1.4793  123.5534   49.8339 N   0  0  0  0  0  0  0  0  0  0  0  0
    1.5205  122.7485   48.7558 C   0  0  0  0  0  0  0  0  0  0  0  0
    2.7643  122.2740   48.6166 N   0  0  0  0  0  0  0  0  0  0  0  0
    3.5445  122.7630   49.5995 C   0  0  0  0  0  0  0  0  0  0  0  0
    2.7069  123.5677   50.3532 C   0  0  0  0  0  0  0  0  0  0  0  0
    3.2129  124.2028   51.4232 N   0  0  0  0  0  0  0  0  0  0  0  0
    4.5320  124.0385   51.7366 C   0  0  0  0  0  0  0  0  0  0  0  0
    5.3383  123.2541   50.9978 N   0  0  0  0  0  0  0  0  0  0  0  0
    4.8727  122.5881   49.9022 C   0  0  0  0  0  0  0  0  0  0  0  0
    5.7113  121.7594   49.1164 N   0  0  0  0  0  0  0  0  0  0  0  0
  2  1  1  1
  2  3  1  0
  3  4  1  6
  4  5  1  0
  5  6  2  0
  7  5  1  6
  7  8  1  0
  7  9  1  0
  8 13  1  0
  9 10  1  1
  9 11  1  0
 11 12  1  1
 11 13  1  0
 13 14  1  6
 14 15  1  0
 14 18  1  0
 15 16  2  0
 16 17  1  0
 17 18  2  0
 17 22  1  0
 18 19  1  0
 19 20  2  0
 20 21  1  0
 21 22  2  0
 22 23  1  0
M  END
$$$$
