
     RDKit          3D

 23 25  0  0  0  0  0  0  0  0999 V2000
   -3.8397  130.3197   47.5625 O   0  0  0  0  0  0  0  0  0  0  0  0
   -2.4378  130.3262   47.4345 C   0  0  0  0  0  0  0  0  0  0  0  0
   -2.0475  129.0522   46.6998 C   0  0  0  0  0  0  0  0  0  0  0  0
   -2.0174  127.9094   47.5623 N   0  0  0  0  0  0  0  0  0  0  0  0
   -1.0600  127.6860   48.5836 C   0  0  0  0  0  0  0  0  0  0  0  0
   -0.4138  128.6650   49.0224 O   0  0  0  0  0  0  0  0  0  0  0  0
   -0.8107  126.3591   49.1309 C   0  0  1  0  0  0  0  0  0  0  0  0
    0.1969  125.6518   48.5211 O   0  0  0  0  0  0  0  0  0  0  0  0
   -0.3288  126.3921   50.5774 C   0  0  1  0  0  0  0  0  0  0  0  0
   -1.3409  126.7088   51.4586 O   0  0  0  0  0  0  0  0  0  0  0  0
    0.1371  124.9461   50.7360 C   0  0  1  0  0  0  0  0  0  0  0  0
   -0.8884  124.2862   51.4230 O   0  0  0  0  0  0  0  0  0  0  0  0
    0.2028  124.4823   49.3010 C   0  0  2  0  0  0  0  0  0  0  0  0
    1.3010  123.6271   49.0154 N   0  0  0  0  0  0  0  0  0  0  0  0
    1.2990  122.6173   48.1254 C   0  0  0  0  0  0  0  0  0  0  0  0
    2.5046  122.0361   48.1269 N   0  0  0  0  0  0  0  0  0  0  0  0
    3.3028  122.6588   49.0151 C   0  0  0  0  0  0  0  0  0  0  0  0
    2.5167  123.6593   49.5613 C   0  0  0  0  0  0  0  0  0  0  0  0
    3.0513  124.4622   50.4961 N   0  0  0  0  0  0  0  0  0  0  0  0
    4.3480  124.2711   50.8798 C   0  0  0  0  0  0  0  0  0  0  0  0
    5.1041  123.2958   50.3430 N   0  0  0  0  0  0  0  0  0  0  0  0
    4.6079  122.4545   49.3909 C   0  0  0  0  0  0  0  0  0  0  0  0
    5.3937  121.4240   48.8181 N   0  0  0  0  0  0  0  0  0  0  0  0
  2  1  1  1
  2  3  1  0
  3  4  1  6
  4  5  1  0
  5  6  2  0
  7  5  1  6
  7  8  1  0
  7  9  1  0
  8 13  1  0
  9 10  1  1
  9 11  1  0
 11 12  1  1
 11 13  1  0
 13 14  1  1
 14 15  1  0
 14 18  1  0
 15 16  2  0
 16 17  1  0
 17 18  2  0
 17 22  1  0
 18 19  1  0
 19 20  2  0
 20 21  1  0
 21 22  2  0
 22 23  1  0
M  END
$$$$
