
     RDKit          3D

 23 25  0  0  0  0  0  0  0  0999 V2000
   -5.9738  127.6813   48.7750 O   0  0  0  0  0  0  0  0  0  0  0  0
   -5.3603  127.5717   47.5266 C   0  0  0  0  0  0  0  0  0  0  0  0
   -4.8138  126.1862   47.4088 C   0  0  0  0  0  0  0  0  0  0  0  0
   -3.9759  125.8174   48.5368 N   0  0  0  0  0  0  0  0  0  0  0  0
   -2.5775  125.7097   48.4593 C   0  0  0  0  0  0  0  0  0  0  0  0
   -2.0097  126.0644   47.3941 O   0  0  0  0  0  0  0  0  0  0  0  0
   -1.7081  125.2049   49.5470 C   0  0  1  0  0  0  0  0  0  0  0  0
   -0.8764  124.1733   49.1145 O   0  0  0  0  0  0  0  0  0  0  0  0
   -0.6640  126.2523   49.9561 C   0  0  1  0  0  0  0  0  0  0  0  0
   -1.2071  127.2486   50.7333 O   0  0  0  0  0  0  0  0  0  0  0  0
    0.3192  125.3786   50.7139 C   0  0  1  0  0  0  0  0  0  0  0  0
   -0.0075  125.3849   52.0881 O   0  0  0  0  0  0  0  0  0  0  0  0
    0.0054  124.0120   50.1483 C   0  0  2  0  0  0  0  0  0  0  0  0
    1.2279  123.3397   49.7618 N   0  0  0  0  0  0  0  0  0  0  0  0
    1.2952  122.5031   48.7094 C   0  0  0  0  0  0  0  0  0  0  0  0
    2.5566  122.0266   48.5907 N   0  0  0  0  0  0  0  0  0  0  0  0
    3.2878  122.5641   49.5714 C   0  0  0  0  0  0  0  0  0  0  0  0
    2.4492  123.3879   50.3041 C   0  0  0  0  0  0  0  0  0  0  0  0
    2.8708  124.0885   51.3734 N   0  0  0  0  0  0  0  0  0  0  0  0
    4.1668  123.9653   51.7241 C   0  0  0  0  0  0  0  0  0  0  0  0
    5.0015  123.1690   51.0253 N   0  0  0  0  0  0  0  0  0  0  0  0
    4.6115  122.4564   49.9530 C   0  0  0  0  0  0  0  0  0  0  0  0
    5.4607  121.6167   49.2038 N   0  0  0  0  0  0  0  0  0  0  0  0
  1  2  1  0
  2  3  1  0
  3  4  1  0
  4  5  1  0
  5  6  2  0
  7  5  1  6
  7  8  1  0
  7  9  1  0
  8 13  1  0
  9 10  1  1
  9 11  1  0
 11 12  1  1
 11 13  1  0
 13 14  1  6
 14 15  1  0
 14 18  1  0
 15 16  2  0
 16 17  1  0
 17 18  2  0
 17 22  1  0
 18 19  1  0
 19 20  2  0
 20 21  1  0
 21 22  2  0
 22 23  1  0
M  END
$$$$
