
     RDKit          3D

 23 25  0  0  0  0  0  0  0  0999 V2000
   -6.1202  123.6612   48.6357 O   0  0  0  0  0  0  0  0  0  0  0  0
   -6.5553  124.8013   47.9592 C   0  0  0  0  0  0  0  0  0  0  0  0
   -5.3453  125.5733   47.5443 C   0  0  0  0  0  0  0  0  0  0  0  0
   -4.3132  125.5879   48.5665 N   0  0  0  0  0  0  0  0  0  0  0  0
   -2.9663  125.2820   48.3106 C   0  0  0  0  0  0  0  0  0  0  0  0
   -2.6103  125.1081   47.1165 O   0  0  0  0  0  0  0  0  0  0  0  0
   -1.9193  125.1462   49.3494 C   0  0  1  0  0  0  0  0  0  0  0  0
   -1.0132  124.1308   49.0479 O   0  0  0  0  0  0  0  0  0  0  0  0
   -0.9833  126.3621   49.3580 C   0  0  1  0  0  0  0  0  0  0  0  0
   -1.5612  127.4561   49.9586 O   0  0  0  0  0  0  0  0  0  0  0  0
    0.1870  125.8022   50.1462 C   0  0  1  0  0  0  0  0  0  0  0  0
    0.0214  126.1072   51.5154 O   0  0  0  0  0  0  0  0  0  0  0  0
   -0.0056  124.3147   49.9552 C   0  0  2  0  0  0  0  0  0  0  0  0
    1.2430  123.6969   49.5612 N   0  0  0  0  0  0  0  0  0  0  0  0
    1.3615  122.9406   48.4539 C   0  0  0  0  0  0  0  0  0  0  0  0
    2.6362  122.4994   48.3422 N   0  0  0  0  0  0  0  0  0  0  0  0
    3.3245  122.9787   49.3823 C   0  0  0  0  0  0  0  0  0  0  0  0
    2.4455  123.7300   50.1449 C   0  0  0  0  0  0  0  0  0  0  0  0
    2.8182  124.3593   51.2750 N   0  0  0  0  0  0  0  0  0  0  0  0
    4.1051  124.2369   51.6578 C   0  0  0  0  0  0  0  0  0  0  0  0
    4.9785  123.5104   50.9309 N   0  0  0  0  0  0  0  0  0  0  0  0
    4.6380  122.8701   49.7979 C   0  0  0  0  0  0  0  0  0  0  0  0
    5.5284  122.1042   49.0182 N   0  0  0  0  0  0  0  0  0  0  0  0
  1  2  1  0
  2  3  1  0
  3  4  1  0
  4  5  1  0
  5  6  2  0
  7  5  1  6
  7  8  1  0
  7  9  1  0
  8 13  1  0
  9 10  1  1
  9 11  1  0
 11 12  1  1
 11 13  1  0
 13 14  1  6
 14 15  1  0
 14 18  1  0
 15 16  2  0
 16 17  1  0
 17 18  2  0
 17 22  1  0
 18 19  1  0
 19 20  2  0
 20 21  1  0
 21 22  2  0
 22 23  1  0
M  END
$$$$
