
     RDKit          3D

 23 25  0  0  0  0  0  0  0  0999 V2000
   -6.3635  124.6898   47.5657 O   0  0  0  0  0  0  0  0  0  0  0  0
   -5.6760  124.4226   46.3666 C   0  0  0  0  0  0  0  0  0  0  0  0
   -4.3444  125.1554   46.4389 C   0  0  0  0  0  0  0  0  0  0  0  0
   -3.4832  124.6286   47.4546 N   0  0  0  0  0  0  0  0  0  0  0  0
   -2.6661  125.4069   48.3125 C   0  0  0  0  0  0  0  0  0  0  0  0
   -2.7595  126.6546   48.2579 O   0  0  0  0  0  0  0  0  0  0  0  0
   -1.7291  124.7982   49.2474 C   0  0  1  0  0  0  0  0  0  0  0  0
   -0.4750  124.5500   48.7444 O   0  0  0  0  0  0  0  0  0  0  0  0
   -1.4087  125.6950   50.4385 C   0  0  1  0  0  0  0  0  0  0  0  0
   -2.4554  125.7701   51.3330 O   0  0  0  0  0  0  0  0  0  0  0  0
   -0.2107  124.9471   51.0203 C   0  0  1  0  0  0  0  0  0  0  0  0
   -0.7060  124.2152   52.1057 O   0  0  0  0  0  0  0  0  0  0  0  0
    0.1633  124.0280   49.8828 C   0  0  2  0  0  0  0  0  0  0  0  0
    1.5632  123.8576   49.7084 N   0  0  0  0  0  0  0  0  0  0  0  0
    2.3932  124.7362   49.1159 C   0  0  0  0  0  0  0  0  0  0  0  0
    3.6355  124.2386   49.1341 N   0  0  0  0  0  0  0  0  0  0  0  0
    3.6285  123.0341   49.7366 C   0  0  0  0  0  0  0  0  0  0  0  0
    2.3068  122.8189   50.0890 C   0  0  0  0  0  0  0  0  0  0  0  0
    1.9845  121.6770   50.7187 N   0  0  0  0  0  0  0  0  0  0  0  0
    2.9634  120.7649   50.9926 C   0  0  0  0  0  0  0  0  0  0  0  0
    4.2453  120.9831   50.6460 N   0  0  0  0  0  0  0  0  0  0  0  0
    4.6236  122.1263   50.0052 C   0  0  0  0  0  0  0  0  0  0  0  0
    5.9697  122.3678   49.6352 N   0  0  0  0  0  0  0  0  0  0  0  0
  2  1  1  1
  2  3  1  0
  3  4  1  6
  4  5  1  0
  5  6  2  0
  7  5  1  6
  7  8  1  0
  7  9  1  0
  8 13  1  0
  9 10  1  1
  9 11  1  0
 11 12  1  1
 11 13  1  0
 13 14  1  6
 14 15  1  0
 14 18  1  0
 15 16  2  0
 16 17  1  0
 17 18  2  0
 17 22  1  0
 18 19  1  0
 19 20  2  0
 20 21  1  0
 21 22  2  0
 22 23  1  0
M  END
$$$$
