
     RDKit          3D

 23 25  0  0  0  0  0  0  0  0999 V2000
   -6.1465  123.7209   48.6877 O   0  0  0  0  0  0  0  0  0  0  0  0
   -5.5463  124.0918   47.4696 C   0  0  0  0  0  0  0  0  0  0  0  0
   -4.8472  125.4236   47.7000 C   0  0  0  0  0  0  0  0  0  0  0  0
   -3.7747  125.3237   48.6436 N   0  0  0  0  0  0  0  0  0  0  0  0
   -2.4021  125.5016   48.3369 C   0  0  0  0  0  0  0  0  0  0  0  0
   -2.0973  126.0362   47.2462 O   0  0  0  0  0  0  0  0  0  0  0  0
   -1.3468  125.0825   49.2497 C   0  0  1  0  0  0  0  0  0  0  0  0
   -0.4258  124.2103   48.7220 O   0  0  0  0  0  0  0  0  0  0  0  0
   -0.4546  126.2350   49.6982 C   0  0  1  0  0  0  0  0  0  0  0  0
   -1.0860  127.0644   50.6008 O   0  0  0  0  0  0  0  0  0  0  0  0
    0.6881  125.4521   50.3421 C   0  0  1  0  0  0  0  0  0  0  0  0
    0.4600  125.5062   51.7220 O   0  0  0  0  0  0  0  0  0  0  0  0
    0.4449  124.0586   49.8150 C   0  0  2  0  0  0  0  0  0  0  0  0
    1.6295  123.3445   49.4896 N   0  0  0  0  0  0  0  0  0  0  0  0
    1.7769  122.5000   48.4519 C   0  0  0  0  0  0  0  0  0  0  0  0
    3.0244  122.0151   48.4618 N   0  0  0  0  0  0  0  0  0  0  0  0
    3.7012  122.5368   49.5027 C   0  0  0  0  0  0  0  0  0  0  0  0
    2.7958  123.3727   50.1343 C   0  0  0  0  0  0  0  0  0  0  0  0
    3.1921  124.0449   51.2276 N   0  0  0  0  0  0  0  0  0  0  0  0
    4.4695  123.8864   51.6838 C   0  0  0  0  0  0  0  0  0  0  0  0
    5.3424  123.0716   51.0631 N   0  0  0  0  0  0  0  0  0  0  0  0
    4.9888  122.3673   49.9497 C   0  0  0  0  0  0  0  0  0  0  0  0
    5.8983  121.5063   49.2872 N   0  0  0  0  0  0  0  0  0  0  0  0
  2  1  1  1
  2  3  1  0
  3  4  1  6
  4  5  1  0
  5  6  2  0
  7  5  1  6
  7  8  1  0
  7  9  1  0
  8 13  1  0
  9 10  1  1
  9 11  1  0
 11 12  1  1
 11 13  1  0
 13 14  1  6
 14 15  1  0
 14 18  1  0
 15 16  2  0
 16 17  1  0
 17 18  2  0
 17 22  1  0
 18 19  1  0
 19 20  2  0
 20 21  1  0
 21 22  2  0
 22 23  1  0
M  END
$$$$
