
     RDKit          3D

 23 25  0  0  0  0  0  0  0  0999 V2000
   -5.3053  127.3283   48.1023 O   0  0  0  0  0  0  0  0  0  0  0  0
   -4.7631  126.6171   47.0313 C   0  0  0  0  0  0  0  0  0  0  0  0
   -4.5925  125.1984   47.4676 C   0  0  0  0  0  0  0  0  0  0  0  0
   -3.6707  125.0626   48.5821 N   0  0  0  0  0  0  0  0  0  0  0  0
   -2.2927  125.3158   48.4817 C   0  0  0  0  0  0  0  0  0  0  0  0
   -1.8600  125.8548   47.4304 O   0  0  0  0  0  0  0  0  0  0  0  0
   -1.2966  124.9939   49.5296 C   0  0  1  0  0  0  0  0  0  0  0  0
   -0.3978  124.0137   49.1120 O   0  0  0  0  0  0  0  0  0  0  0  0
   -0.3384  126.1688   49.7660 C   0  0  1  0  0  0  0  0  0  0  0  0
   -0.9215  127.1718   50.5046 O   0  0  0  0  0  0  0  0  0  0  0  0
    0.7838  125.4634   50.5058 C   0  0  1  0  0  0  0  0  0  0  0  0
    0.5624  125.5576   51.8976 O   0  0  0  0  0  0  0  0  0  0  0  0
    0.5712  124.0289   50.0781 C   0  0  2  0  0  0  0  0  0  0  0  0
    1.8240  123.4467   49.6453 N   0  0  0  0  0  0  0  0  0  0  0  0
    1.9193  122.6480   48.5660 C   0  0  0  0  0  0  0  0  0  0  0  0
    3.2048  122.2555   48.4061 N   0  0  0  0  0  0  0  0  0  0  0  0
    3.9233  122.8084   49.3877 C   0  0  0  0  0  0  0  0  0  0  0  0
    3.0520  123.5554   50.1633 C   0  0  0  0  0  0  0  0  0  0  0  0
    3.4534  124.2487   51.2450 N   0  0  0  0  0  0  0  0  0  0  0  0
    4.7622  124.1969   51.5646 C   0  0  0  0  0  0  0  0  0  0  0  0
    5.6287  123.4760   50.8239 N   0  0  0  0  0  0  0  0  0  0  0  0
    5.2596  122.7728   49.7381 C   0  0  0  0  0  0  0  0  0  0  0  0
    6.1420  122.0110   48.9454 N   0  0  0  0  0  0  0  0  0  0  0  0
  1  2  1  0
  2  3  1  0
  3  4  1  0
  4  5  1  0
  5  6  2  0
  7  5  1  6
  7  8  1  0
  7  9  1  0
  8 13  1  0
  9 10  1  1
  9 11  1  0
 11 12  1  1
 11 13  1  0
 13 14  1  6
 14 15  1  0
 14 18  1  0
 15 16  2  0
 16 17  1  0
 17 18  2  0
 17 22  1  0
 18 19  1  0
 19 20  2  0
 20 21  1  0
 21 22  2  0
 22 23  1  0
M  END
$$$$
