
     RDKit          3D

 23 25  0  0  0  0  0  0  0  0999 V2000
   -5.5285  123.1387   47.5568 O   0  0  0  0  0  0  0  0  0  0  0  0
   -6.0442  124.4084   47.8189 C   0  0  0  0  0  0  0  0  0  0  0  0
   -4.9343  125.3940   47.6486 C   0  0  0  0  0  0  0  0  0  0  0  0
   -3.9330  125.2957   48.6964 N   0  0  0  0  0  0  0  0  0  0  0  0
   -2.5746  125.0392   48.4469 C   0  0  0  0  0  0  0  0  0  0  0  0
   -2.1873  124.9850   47.2512 O   0  0  0  0  0  0  0  0  0  0  0  0
   -1.5497  124.8248   49.4945 C   0  0  1  0  0  0  0  0  0  0  0  0
   -0.6413  123.8287   49.1402 O   0  0  0  0  0  0  0  0  0  0  0  0
   -0.6096  126.0322   49.6084 C   0  0  1  0  0  0  0  0  0  0  0  0
   -1.1958  127.0838   50.2732 O   0  0  0  0  0  0  0  0  0  0  0  0
    0.5421  125.4119   50.3784 C   0  0  1  0  0  0  0  0  0  0  0  0
    0.3495  125.6199   51.7622 O   0  0  0  0  0  0  0  0  0  0  0  0
    0.3481  123.9427   50.0785 C   0  0  2  0  0  0  0  0  0  0  0  0
    1.6022  123.3480   49.6670 N   0  0  0  0  0  0  0  0  0  0  0  0
    1.7159  122.5810   48.5666 C   0  0  0  0  0  0  0  0  0  0  0  0
    2.9978  122.1668   48.4348 N   0  0  0  0  0  0  0  0  0  0  0  0
    3.6955  122.6740   49.4552 C   0  0  0  0  0  0  0  0  0  0  0  0
    2.8150  123.4149   50.2262 C   0  0  0  0  0  0  0  0  0  0  0  0
    3.1955  124.0661   51.3412 N   0  0  0  0  0  0  0  0  0  0  0  0
    4.4921  123.9770   51.6997 C   0  0  0  0  0  0  0  0  0  0  0  0
    5.3672  123.2613   50.9642 N   0  0  0  0  0  0  0  0  0  0  0  0
    5.0189  122.5996   49.8459 C   0  0  0  0  0  0  0  0  0  0  0  0
    5.9108  121.8442   49.0576 N   0  0  0  0  0  0  0  0  0  0  0  0
  1  2  1  0
  2  3  1  0
  3  4  1  0
  4  5  1  0
  5  6  2  0
  7  5  1  6
  7  8  1  0
  7  9  1  0
  8 13  1  0
  9 10  1  1
  9 11  1  0
 11 12  1  1
 11 13  1  0
 13 14  1  6
 14 15  1  0
 14 18  1  0
 15 16  2  0
 16 17  1  0
 17 18  2  0
 17 22  1  0
 18 19  1  0
 19 20  2  0
 20 21  1  0
 21 22  2  0
 22 23  1  0
M  END
$$$$
