
     RDKit          3D

 23 25  0  0  0  0  0  0  0  0999 V2000
   -5.4118  124.0714   47.3177 O   0  0  0  0  0  0  0  0  0  0  0  0
   -4.5285  124.9543   46.6955 C   0  0  0  0  0  0  0  0  0  0  0  0
   -4.4893  126.2069   47.5091 C   0  0  0  0  0  0  0  0  0  0  0  0
   -3.5338  126.1353   48.6009 N   0  0  0  0  0  0  0  0  0  0  0  0
   -2.1925  125.7539   48.4315 C   0  0  0  0  0  0  0  0  0  0  0  0
   -1.6744  125.8838   47.2924 O   0  0  0  0  0  0  0  0  0  0  0  0
   -1.3294  125.2041   49.5024 C   0  0  1  0  0  0  0  0  0  0  0  0
   -0.4717  124.2144   49.0251 O   0  0  0  0  0  0  0  0  0  0  0  0
   -0.3120  126.2455   49.9867 C   0  0  1  0  0  0  0  0  0  0  0  0
   -0.8856  127.1856   50.8105 O   0  0  0  0  0  0  0  0  0  0  0  0
    0.6768  125.3484   50.7090 C   0  0  1  0  0  0  0  0  0  0  0  0
    0.3300  125.2701   52.0760 O   0  0  0  0  0  0  0  0  0  0  0  0
    0.3979  124.0106   50.0617 C   0  0  2  0  0  0  0  0  0  0  0  0
    1.6387  123.3843   49.6569 N   0  0  0  0  0  0  0  0  0  0  0  0
    1.7297  122.5817   48.5800 C   0  0  0  0  0  0  0  0  0  0  0  0
    3.0038  122.1440   48.4488 N   0  0  0  0  0  0  0  0  0  0  0  0
    3.7193  122.6720   49.4461 C   0  0  0  0  0  0  0  0  0  0  0  0
    2.8579  123.4500   50.2020 C   0  0  0  0  0  0  0  0  0  0  0  0
    3.2595  124.1297   51.2923 N   0  0  0  0  0  0  0  0  0  0  0  0
    4.5582  124.0320   51.6409 C   0  0  0  0  0  0  0  0  0  0  0  0
    5.4150  123.2804   50.9197 N   0  0  0  0  0  0  0  0  0  0  0  0
    5.0454  122.5897   49.8260 C   0  0  0  0  0  0  0  0  0  0  0  0
    5.9178  121.7965   49.0532 N   0  0  0  0  0  0  0  0  0  0  0  0
  1  2  1  0
  2  3  1  0
  3  4  1  0
  4  5  1  0
  5  6  2  0
  7  5  1  6
  7  8  1  0
  7  9  1  0
  8 13  1  0
  9 10  1  1
  9 11  1  0
 11 12  1  1
 11 13  1  0
 13 14  1  6
 14 15  1  0
 14 18  1  0
 15 16  2  0
 16 17  1  0
 17 18  2  0
 17 22  1  0
 18 19  1  0
 19 20  2  0
 20 21  1  0
 21 22  2  0
 22 23  1  0
M  END
$$$$
