
     RDKit          3D

 23 25  0  0  0  0  0  0  0  0999 V2000
   -4.8809  128.6040   49.2194 O   0  0  0  0  0  0  0  0  0  0  0  0
   -4.8692  128.4350   47.8219 C   0  0  0  0  0  0  0  0  0  0  0  0
   -4.4819  126.9893   47.5471 C   0  0  0  0  0  0  0  0  0  0  0  0
   -3.5130  126.4949   48.4785 N   0  0  0  0  0  0  0  0  0  0  0  0
   -2.1390  126.2938   48.1932 C   0  0  0  0  0  0  0  0  0  0  0  0
   -1.7060  126.6321   47.0678 O   0  0  0  0  0  0  0  0  0  0  0  0
   -1.2263  125.7090   49.1665 C   0  0  1  0  0  0  0  0  0  0  0  0
   -0.3943  124.7309   48.6781 O   0  0  0  0  0  0  0  0  0  0  0  0
   -0.2230  126.7146   49.7215 C   0  0  1  0  0  0  0  0  0  0  0  0
   -0.8043  127.6007   50.6035 O   0  0  0  0  0  0  0  0  0  0  0  0
    0.7475  125.7644   50.4203 C   0  0  1  0  0  0  0  0  0  0  0  0
    0.4209  125.8149   51.7804 O   0  0  0  0  0  0  0  0  0  0  0  0
    0.3585  124.4320   49.8269 C   0  0  2  0  0  0  0  0  0  0  0  0
    1.4562  123.5686   49.5653 N   0  0  0  0  0  0  0  0  0  0  0  0
    1.4712  122.5687   48.6643 C   0  0  0  0  0  0  0  0  0  0  0  0
    2.6703  121.9749   48.6960 N   0  0  0  0  0  0  0  0  0  0  0  0
    3.4472  122.5795   49.6151 C   0  0  0  0  0  0  0  0  0  0  0  0
    2.6549  123.5821   50.1484 C   0  0  0  0  0  0  0  0  0  0  0  0
    3.1688  124.3692   51.1079 N   0  0  0  0  0  0  0  0  0  0  0  0
    4.4511  124.1603   51.5288 C   0  0  0  0  0  0  0  0  0  0  0  0
    5.2135  123.1831   51.0044 N   0  0  0  0  0  0  0  0  0  0  0  0
    4.7381  122.3575   50.0281 C   0  0  0  0  0  0  0  0  0  0  0  0
    5.5307  121.3252   49.4680 N   0  0  0  0  0  0  0  0  0  0  0  0
  2  1  1  1
  2  3  1  0
  3  4  1  6
  4  5  1  0
  5  6  2  0
  7  5  1  6
  7  8  1  0
  7  9  1  0
  8 13  1  0
  9 10  1  1
  9 11  1  0
 11 12  1  1
 11 13  1  0
 13 14  1  6
 14 15  1  0
 14 18  1  0
 15 16  2  0
 16 17  1  0
 17 18  2  0
 17 22  1  0
 18 19  1  0
 19 20  2  0
 20 21  1  0
 21 22  2  0
 22 23  1  0
M  END
$$$$
