
     RDKit          3D

 23 25  0  0  0  0  0  0  0  0999 V2000
   -5.1548  127.5697   47.6396 O   0  0  0  0  0  0  0  0  0  0  0  0
   -5.7117  126.5689   48.4582 C   0  0  0  0  0  0  0  0  0  0  0  0
   -5.0585  125.2518   48.0657 C   0  0  0  0  0  0  0  0  0  0  0  0
   -3.9067  124.9524   48.8624 N   0  0  0  0  0  0  0  0  0  0  0  0
   -2.5793  125.3410   48.5517 C   0  0  0  0  0  0  0  0  0  0  0  0
   -2.3738  125.9730   47.4902 O   0  0  0  0  0  0  0  0  0  0  0  0
   -1.4583  125.0268   49.4276 C   0  0  1  0  0  0  0  0  0  0  0  0
   -0.5344  124.1523   48.9086 O   0  0  0  0  0  0  0  0  0  0  0  0
   -0.5887  126.2399   49.7407 C   0  0  1  0  0  0  0  0  0  0  0  0
   -1.2007  127.1092   50.6187 O   0  0  0  0  0  0  0  0  0  0  0  0
    0.6188  125.5469   50.3690 C   0  0  1  0  0  0  0  0  0  0  0  0
    0.4670  125.6924   51.7529 O   0  0  0  0  0  0  0  0  0  0  0  0
    0.4020  124.1112   49.9562 C   0  0  2  0  0  0  0  0  0  0  0  0
    1.5938  123.4183   49.6120 N   0  0  0  0  0  0  0  0  0  0  0  0
    1.7292  122.5463   48.5956 C   0  0  0  0  0  0  0  0  0  0  0  0
    2.9889  122.0943   48.5774 N   0  0  0  0  0  0  0  0  0  0  0  0
    3.6857  122.6651   49.5786 C   0  0  0  0  0  0  0  0  0  0  0  0
    2.7798  123.4964   50.2154 C   0  0  0  0  0  0  0  0  0  0  0  0
    3.1941  124.2120   51.2740 N   0  0  0  0  0  0  0  0  0  0  0  0
    4.4898  124.1007   51.6909 C   0  0  0  0  0  0  0  0  0  0  0  0
    5.3630  123.2899   51.0654 N   0  0  0  0  0  0  0  0  0  0  0  0
    4.9916  122.5428   49.9862 C   0  0  0  0  0  0  0  0  0  0  0  0
    5.9014  121.6856   49.3192 N   0  0  0  0  0  0  0  0  0  0  0  0
  2  1  1  1
  2  3  1  0
  3  4  1  6
  4  5  1  0
  5  6  2  0
  7  5  1  6
  7  8  1  0
  7  9  1  0
  8 13  1  0
  9 10  1  1
  9 11  1  0
 11 12  1  1
 11 13  1  0
 13 14  1  6
 14 15  1  0
 14 18  1  0
 15 16  2  0
 16 17  1  0
 17 18  2  0
 17 22  1  0
 18 19  1  0
 19 20  2  0
 20 21  1  0
 21 22  2  0
 22 23  1  0
M  END
$$$$
