
     RDKit          3D

 23 25  0  0  0  0  0  0  0  0999 V2000
   -6.1397  123.7416   48.8674 O   0  0  0  0  0  0  0  0  0  0  0  0
   -5.8196  124.2544   47.5961 C   0  0  0  0  0  0  0  0  0  0  0  0
   -5.0883  125.5710   47.8135 C   0  0  0  0  0  0  0  0  0  0  0  0
   -3.9629  125.4349   48.6887 N   0  0  0  0  0  0  0  0  0  0  0  0
   -2.6094  125.3799   48.2709 C   0  0  0  0  0  0  0  0  0  0  0  0
   -2.3398  125.6524   47.0786 O   0  0  0  0  0  0  0  0  0  0  0  0
   -1.5339  125.0178   49.1845 C   0  0  1  0  0  0  0  0  0  0  0  0
   -0.6102  124.1329   48.6832 O   0  0  0  0  0  0  0  0  0  0  0  0
   -0.6496  126.2013   49.5626 C   0  0  1  0  0  0  0  0  0  0  0  0
   -1.2770  127.0650   50.4353 O   0  0  0  0  0  0  0  0  0  0  0  0
    0.5136  125.4642   50.2234 C   0  0  1  0  0  0  0  0  0  0  0  0
    0.3074  125.5813   51.6029 O   0  0  0  0  0  0  0  0  0  0  0  0
    0.2802  124.0443   49.7673 C   0  0  2  0  0  0  0  0  0  0  0  0
    1.4685  123.3302   49.4561 N   0  0  0  0  0  0  0  0  0  0  0  0
    1.6337  122.4987   48.4105 C   0  0  0  0  0  0  0  0  0  0  0  0
    2.8791  122.0092   48.4387 N   0  0  0  0  0  0  0  0  0  0  0  0
    3.5368  122.5147   49.4997 C   0  0  0  0  0  0  0  0  0  0  0  0
    2.6219  123.3457   50.1241 C   0  0  0  0  0  0  0  0  0  0  0  0
    2.9986  124.0020   51.2339 N   0  0  0  0  0  0  0  0  0  0  0  0
    4.2662  123.8329   51.7132 C   0  0  0  0  0  0  0  0  0  0  0  0
    5.1484  123.0230   51.0993 N   0  0  0  0  0  0  0  0  0  0  0  0
    4.8147  122.3347   49.9699 C   0  0  0  0  0  0  0  0  0  0  0  0
    5.7343  121.4791   49.3143 N   0  0  0  0  0  0  0  0  0  0  0  0
  2  1  1  1
  2  3  1  0
  3  4  1  6
  4  5  1  0
  5  6  2  0
  7  5  1  6
  7  8  1  0
  7  9  1  0
  8 13  1  0
  9 10  1  1
  9 11  1  0
 11 12  1  1
 11 13  1  0
 13 14  1  6
 14 15  1  0
 14 18  1  0
 15 16  2  0
 16 17  1  0
 17 18  2  0
 17 22  1  0
 18 19  1  0
 19 20  2  0
 20 21  1  0
 21 22  2  0
 22 23  1  0
M  END
$$$$
