
     RDKit          3D

 23 25  0  0  0  0  0  0  0  0999 V2000
   -4.4209  124.2768   45.8362 O   0  0  0  0  0  0  0  0  0  0  0  0
   -5.0066  124.3359   47.1013 C   0  0  0  0  0  0  0  0  0  0  0  0
   -4.7057  125.6803   47.6793 C   0  0  0  0  0  0  0  0  0  0  0  0
   -3.7005  125.6268   48.7267 N   0  0  0  0  0  0  0  0  0  0  0  0
   -2.3326  125.4271   48.4769 C   0  0  0  0  0  0  0  0  0  0  0  0
   -1.9303  125.4745   47.2858 O   0  0  0  0  0  0  0  0  0  0  0  0
   -1.3141  125.1617   49.5190 C   0  0  1  0  0  0  0  0  0  0  0  0
   -0.4745  124.1048   49.1714 O   0  0  0  0  0  0  0  0  0  0  0  0
   -0.2978  126.3078   49.6083 C   0  0  1  0  0  0  0  0  0  0  0  0
   -0.8095  127.4037   50.2630 O   0  0  0  0  0  0  0  0  0  0  0  0
    0.8188  125.6255   50.3776 C   0  0  1  0  0  0  0  0  0  0  0  0
    0.6524  125.8641   51.7598 O   0  0  0  0  0  0  0  0  0  0  0  0
    0.5286  124.1678   50.0999 C   0  0  2  0  0  0  0  0  0  0  0  0
    1.7384  123.4885   49.6866 N   0  0  0  0  0  0  0  0  0  0  0  0
    1.7863  122.6800   48.6114 C   0  0  0  0  0  0  0  0  0  0  0  0
    3.0396  122.1885   48.4709 N   0  0  0  0  0  0  0  0  0  0  0  0
    3.7853  122.6885   49.4606 C   0  0  0  0  0  0  0  0  0  0  0  0
    2.9639  123.5042   50.2213 C   0  0  0  0  0  0  0  0  0  0  0  0
    3.4030  124.1692   51.3062 N   0  0  0  0  0  0  0  0  0  0  0  0
    4.6994  124.0177   51.6442 C   0  0  0  0  0  0  0  0  0  0  0  0
    5.5175  123.2286   50.9181 N   0  0  0  0  0  0  0  0  0  0  0  0
    5.1099  122.5512   49.8297 C   0  0  0  0  0  0  0  0  0  0  0  0
    5.9414  121.7199   49.0520 N   0  0  0  0  0  0  0  0  0  0  0  0
  1  2  1  0
  2  3  1  0
  3  4  1  0
  4  5  1  0
  5  6  2  0
  7  5  1  6
  7  8  1  0
  7  9  1  0
  8 13  1  0
  9 10  1  1
  9 11  1  0
 11 12  1  1
 11 13  1  0
 13 14  1  6
 14 15  1  0
 14 18  1  0
 15 16  2  0
 16 17  1  0
 17 18  2  0
 17 22  1  0
 18 19  1  0
 19 20  2  0
 20 21  1  0
 21 22  2  0
 22 23  1  0
M  END
$$$$
