
     RDKit          3D

 23 25  0  0  0  0  0  0  0  0999 V2000
   -4.2629  126.6799   45.6407 O   0  0  0  0  0  0  0  0  0  0  0  0
   -4.8633  126.8980   46.8812 C   0  0  0  0  0  0  0  0  0  0  0  0
   -4.9771  125.5770   47.5698 C   0  0  0  0  0  0  0  0  0  0  0  0
   -4.0047  125.4166   48.6370 N   0  0  0  0  0  0  0  0  0  0  0  0
   -2.6512  125.1156   48.4117 C   0  0  0  0  0  0  0  0  0  0  0  0
   -2.2593  124.9819   47.2238 O   0  0  0  0  0  0  0  0  0  0  0  0
   -1.6366  124.9412   49.4766 C   0  0  1  0  0  0  0  0  0  0  0  0
   -0.7228  123.9351   49.1674 O   0  0  0  0  0  0  0  0  0  0  0  0
   -0.7001  126.1540   49.5567 C   0  0  1  0  0  0  0  0  0  0  0  0
   -1.2950  127.2274   50.1775 O   0  0  0  0  0  0  0  0  0  0  0  0
    0.4450  125.5642   50.3601 C   0  0  1  0  0  0  0  0  0  0  0  0
    0.2379  125.8211   51.7335 O   0  0  0  0  0  0  0  0  0  0  0  0
    0.2568  124.0848   50.1109 C   0  0  2  0  0  0  0  0  0  0  0  0
    1.5161  123.4786   49.7337 N   0  0  0  0  0  0  0  0  0  0  0  0
    1.6542  122.7157   48.6332 C   0  0  0  0  0  0  0  0  0  0  0  0
    2.9350  122.2884   48.5372 N   0  0  0  0  0  0  0  0  0  0  0  0
    3.6075  122.7831   49.5805 C   0  0  0  0  0  0  0  0  0  0  0  0
    2.7125  123.5297   50.3289 C   0  0  0  0  0  0  0  0  0  0  0  0
    3.0667  124.1714   51.4580 N   0  0  0  0  0  0  0  0  0  0  0  0
    4.3511  124.0667   51.8542 C   0  0  0  0  0  0  0  0  0  0  0  0
    5.2399  123.3451   51.1413 N   0  0  0  0  0  0  0  0  0  0  0  0
    4.9179  122.6927   50.0097 C   0  0  0  0  0  0  0  0  0  0  0  0
    5.8247  121.9315   49.2444 N   0  0  0  0  0  0  0  0  0  0  0  0
  1  2  1  0
  2  3  1  0
  3  4  1  0
  4  5  1  0
  5  6  2  0
  7  5  1  6
  7  8  1  0
  7  9  1  0
  8 13  1  0
  9 10  1  1
  9 11  1  0
 11 12  1  1
 11 13  1  0
 13 14  1  6
 14 15  1  0
 14 18  1  0
 15 16  2  0
 16 17  1  0
 17 18  2  0
 17 22  1  0
 18 19  1  0
 19 20  2  0
 20 21  1  0
 21 22  2  0
 22 23  1  0
M  END
$$$$
