
     RDKit          3D

 23 25  0  0  0  0  0  0  0  0999 V2000
   -6.7154  125.3651   49.0845 O   0  0  0  0  0  0  0  0  0  0  0  0
   -6.5056  124.4983   48.0114 C   0  0  0  0  0  0  0  0  0  0  0  0
   -5.1013  124.6911   47.5392 C   0  0  0  0  0  0  0  0  0  0  0  0
   -4.1610  124.8592   48.6337 N   0  0  0  0  0  0  0  0  0  0  0  0
   -2.7851  125.0713   48.4460 C   0  0  0  0  0  0  0  0  0  0  0  0
   -2.3859  125.4268   47.3071 O   0  0  0  0  0  0  0  0  0  0  0  0
   -1.7545  124.9070   49.4971 C   0  0  1  0  0  0  0  0  0  0  0  0
   -0.7931  123.9622   49.1425 O   0  0  0  0  0  0  0  0  0  0  0  0
   -0.8804  126.1621   49.6201 C   0  0  1  0  0  0  0  0  0  0  0  0
   -1.5244  127.1782   50.2868 O   0  0  0  0  0  0  0  0  0  0  0  0
    0.2995  125.6005   50.3925 C   0  0  1  0  0  0  0  0  0  0  0  0
    0.0904  125.7918   51.7763 O   0  0  0  0  0  0  0  0  0  0  0  0
    0.1851  124.1244   50.0855 C   0  0  2  0  0  0  0  0  0  0  0  0
    1.4707  123.5990   49.6770 N   0  0  0  0  0  0  0  0  0  0  0  0
    1.6295  122.8440   48.5739 C   0  0  0  0  0  0  0  0  0  0  0  0
    2.9321  122.4991   48.4459 N   0  0  0  0  0  0  0  0  0  0  0  0
    3.5977  123.0381   49.4714 C   0  0  0  0  0  0  0  0  0  0  0  0
    2.6759  123.7278   50.2417 C   0  0  0  0  0  0  0  0  0  0  0  0
    3.0167  124.3934   51.3610 N   0  0  0  0  0  0  0  0  0  0  0  0
    4.3148  124.3718   51.7248 C   0  0  0  0  0  0  0  0  0  0  0  0
    5.2297  123.7068   50.9901 N   0  0  0  0  0  0  0  0  0  0  0  0
    4.9216  123.0325   49.8675 C   0  0  0  0  0  0  0  0  0  0  0  0
    5.8556  122.3291   49.0799 N   0  0  0  0  0  0  0  0  0  0  0  0
  1  2  1  0
  2  3  1  0
  3  4  1  0
  4  5  1  0
  5  6  2  0
  7  5  1  6
  7  8  1  0
  7  9  1  0
  8 13  1  0
  9 10  1  1
  9 11  1  0
 11 12  1  1
 11 13  1  0
 13 14  1  6
 14 15  1  0
 14 18  1  0
 15 16  2  0
 16 17  1  0
 17 18  2  0
 17 22  1  0
 18 19  1  0
 19 20  2  0
 20 21  1  0
 21 22  2  0
 22 23  1  0
M  END
$$$$
