
     RDKit          3D

 23 25  0  0  0  0  0  0  0  0999 V2000
   -5.8755  127.6238   47.6991 O   0  0  0  0  0  0  0  0  0  0  0  0
   -6.1785  126.3296   48.1630 C   0  0  0  0  0  0  0  0  0  0  0  0
   -5.1574  125.3820   47.5507 C   0  0  0  0  0  0  0  0  0  0  0  0
   -4.1037  125.0488   48.4615 N   0  0  0  0  0  0  0  0  0  0  0  0
   -2.7598  125.4848   48.3455 C   0  0  0  0  0  0  0  0  0  0  0  0
   -2.4611  126.2595   47.4078 O   0  0  0  0  0  0  0  0  0  0  0  0
   -1.7268  125.0588   49.2803 C   0  0  1  0  0  0  0  0  0  0  0  0
   -0.7371  124.2716   48.7434 O   0  0  0  0  0  0  0  0  0  0  0  0
   -0.9191  126.2219   49.8462 C   0  0  1  0  0  0  0  0  0  0  0  0
   -1.6349  126.9560   50.7682 O   0  0  0  0  0  0  0  0  0  0  0  0
    0.2329  125.4559   50.4938 C   0  0  1  0  0  0  0  0  0  0  0  0
   -0.0611  125.4056   51.8613 O   0  0  0  0  0  0  0  0  0  0  0  0
    0.0891  124.0907   49.8661 C   0  0  2  0  0  0  0  0  0  0  0  0
    1.3239  123.4606   49.5541 N   0  0  0  0  0  0  0  0  0  0  0  0
    1.5258  122.5798   48.5565 C   0  0  0  0  0  0  0  0  0  0  0  0
    2.8091  122.1999   48.5670 N   0  0  0  0  0  0  0  0  0  0  0  0
    3.4553  122.8270   49.5684 C   0  0  0  0  0  0  0  0  0  0  0  0
    2.4931  123.6167   50.1750 C   0  0  0  0  0  0  0  0  0  0  0  0
    2.8481  124.3732   51.2266 N   0  0  0  0  0  0  0  0  0  0  0  0
    4.1407  124.3431   51.6663 C   0  0  0  0  0  0  0  0  0  0  0  0
    5.0689  123.5723   51.0701 N   0  0  0  0  0  0  0  0  0  0  0  0
    4.7588  122.7863   49.9992 C   0  0  0  0  0  0  0  0  0  0  0  0
    5.7269  121.9705   49.3630 N   0  0  0  0  0  0  0  0  0  0  0  0
  2  1  1  1
  2  3  1  0
  3  4  1  6
  4  5  1  0
  5  6  2  0
  7  5  1  6
  7  8  1  0
  7  9  1  0
  8 13  1  0
  9 10  1  1
  9 11  1  0
 11 12  1  1
 11 13  1  0
 13 14  1  6
 14 15  1  0
 14 18  1  0
 15 16  2  0
 16 17  1  0
 17 18  2  0
 17 22  1  0
 18 19  1  0
 19 20  2  0
 20 21  1  0
 21 22  2  0
 22 23  1  0
M  END
$$$$
