
     RDKit          3D

 23 25  0  0  0  0  0  0  0  0999 V2000
   -5.6411  127.2433   48.7259 O   0  0  0  0  0  0  0  0  0  0  0  0
   -6.0894  125.9180   48.5695 C   0  0  0  0  0  0  0  0  0  0  0  0
   -5.0070  125.1636   47.8115 C   0  0  0  0  0  0  0  0  0  0  0  0
   -3.8968  124.8130   48.6455 N   0  0  0  0  0  0  0  0  0  0  0  0
   -2.5338  125.0181   48.3142 C   0  0  0  0  0  0  0  0  0  0  0  0
   -2.2537  125.4442   47.1704 O   0  0  0  0  0  0  0  0  0  0  0  0
   -1.4604  124.7483   49.2616 C   0  0  1  0  0  0  0  0  0  0  0  0
   -0.4600  123.9286   48.7981 O   0  0  0  0  0  0  0  0  0  0  0  0
   -0.6771  125.9989   49.6463 C   0  0  1  0  0  0  0  0  0  0  0  0
   -1.3908  126.8242   50.4893 O   0  0  0  0  0  0  0  0  0  0  0  0
    0.5186  125.3586   50.3487 C   0  0  1  0  0  0  0  0  0  0  0  0
    0.2659  125.4770   51.7203 O   0  0  0  0  0  0  0  0  0  0  0  0
    0.4038  123.9198   49.9069 C   0  0  2  0  0  0  0  0  0  0  0  0
    1.6500  123.2923   49.6381 N   0  0  0  0  0  0  0  0  0  0  0  0
    1.8912  122.4206   48.6412 C   0  0  0  0  0  0  0  0  0  0  0  0
    3.1731  122.0404   48.6987 N   0  0  0  0  0  0  0  0  0  0  0  0
    3.7794  122.6582   49.7305 C   0  0  0  0  0  0  0  0  0  0  0  0
    2.7939  123.4425   50.3058 C   0  0  0  0  0  0  0  0  0  0  0  0
    3.1071  124.1894   51.3775 N   0  0  0  0  0  0  0  0  0  0  0  0
    4.3814  124.1550   51.8674 C   0  0  0  0  0  0  0  0  0  0  0  0
    5.3325  123.3895   51.3013 N   0  0  0  0  0  0  0  0  0  0  0  0
    5.0649  122.6134   50.2119 C   0  0  0  0  0  0  0  0  0  0  0  0
    6.0574  121.8032   49.6069 N   0  0  0  0  0  0  0  0  0  0  0  0
  2  1  1  1
  2  3  1  0
  3  4  1  6
  4  5  1  0
  5  6  2  0
  7  5  1  6
  7  8  1  0
  7  9  1  0
  8 13  1  0
  9 10  1  1
  9 11  1  0
 11 12  1  1
 11 13  1  0
 13 14  1  6
 14 15  1  0
 14 18  1  0
 15 16  2  0
 16 17  1  0
 17 18  2  0
 17 22  1  0
 18 19  1  0
 19 20  2  0
 20 21  1  0
 21 22  2  0
 22 23  1  0
M  END
$$$$
