
     RDKit          3D

 23 25  0  0  0  0  0  0  0  0999 V2000
   -4.5207  128.2788   48.1428 O   0  0  0  0  0  0  0  0  0  0  0  0
   -3.3982  128.7270   47.4457 C   0  0  0  0  0  0  0  0  0  0  0  0
   -2.5544  129.5102   48.3980 C   0  0  0  0  0  0  0  0  0  0  0  0
   -1.8531  128.6654   49.3492 N   0  0  0  0  0  0  0  0  0  0  0  0
   -0.6301  128.0341   49.0685 C   0  0  0  0  0  0  0  0  0  0  0  0
   -0.0366  128.3310   47.9997 O   0  0  0  0  0  0  0  0  0  0  0  0
    0.0239  127.0336   49.9434 C   0  0  1  0  0  0  0  0  0  0  0  0
    0.7045  126.0636   49.2093 O   0  0  0  0  0  0  0  0  0  0  0  0
    1.1861  127.6562   50.7284 C   0  0  1  0  0  0  0  0  0  0  0  0
    0.7470  128.4214   51.7834 O   0  0  0  0  0  0  0  0  0  0  0  0
    1.9214  126.4037   51.1699 C   0  0  1  0  0  0  0  0  0  0  0  0
    1.4627  126.0142   52.4478 O   0  0  0  0  0  0  0  0  0  0  0  0
    1.4355  125.3953   50.1534 C   0  0  2  0  0  0  0  0  0  0  0  0
    2.5563  124.6640   49.6015 N   0  0  0  0  0  0  0  0  0  0  0  0
    3.2962  125.1319   48.5789 C   0  0  0  0  0  0  0  0  0  0  0  0
    4.2685  124.2393   48.2788 N   0  0  0  0  0  0  0  0  0  0  0  0
    4.1419  123.2046   49.1148 C   0  0  0  0  0  0  0  0  0  0  0  0
    3.0656  123.4758   49.9433 C   0  0  0  0  0  0  0  0  0  0  0  0
    2.6613  122.6308   50.9101 N   0  0  0  0  0  0  0  0  0  0  0  0
    3.3495  121.4808   51.0566 C   0  0  0  0  0  0  0  0  0  0  0  0
    4.4008  121.1958   50.2613 N   0  0  0  0  0  0  0  0  0  0  0  0
    4.8295  122.0183   49.2869 C   0  0  0  0  0  0  0  0  0  0  0  0
    5.9242  121.7472   48.4409 N   0  0  0  0  0  0  0  0  0  0  0  0
  1  2  1  0
  2  3  1  0
  3  4  1  0
  4  5  1  0
  5  6  2  0
  7  5  1  6
  7  8  1  0
  7  9  1  0
  8 13  1  0
  9 10  1  1
  9 11  1  0
 11 12  1  1
 11 13  1  0
 13 14  1  6
 14 15  1  0
 14 18  1  0
 15 16  2  0
 16 17  1  0
 17 18  2  0
 17 22  1  0
 18 19  1  0
 19 20  2  0
 20 21  1  0
 21 22  2  0
 22 23  1  0
M  END
$$$$
