
     RDKit          3D

 23 25  0  0  0  0  0  0  0  0999 V2000
   -4.7213  130.1177   48.4232 O   0  0  0  0  0  0  0  0  0  0  0  0
   -3.9162  129.5520   47.4164 C   0  0  0  0  0  0  0  0  0  0  0  0
   -4.1632  128.0506   47.4337 C   0  0  0  0  0  0  0  0  0  0  0  0
   -3.2688  127.3581   48.3119 N   0  0  0  0  0  0  0  0  0  0  0  0
   -2.1781  126.5548   47.8941 C   0  0  0  0  0  0  0  0  0  0  0  0
   -2.0218  126.3485   46.6688 O   0  0  0  0  0  0  0  0  0  0  0  0
   -1.2428  125.9685   48.8449 C   0  0  1  0  0  0  0  0  0  0  0  0
   -0.4855  124.9299   48.3597 O   0  0  0  0  0  0  0  0  0  0  0  0
   -0.1647  126.9462   49.3002 C   0  0  1  0  0  0  0  0  0  0  0  0
   -0.6550  127.8977   50.1693 O   0  0  0  0  0  0  0  0  0  0  0  0
    0.7962  125.9804   49.9909 C   0  0  1  0  0  0  0  0  0  0  0  0
    0.5461  126.1063   51.3623 O   0  0  0  0  0  0  0  0  0  0  0  0
    0.3132  124.6444   49.4805 C   0  0  2  0  0  0  0  0  0  0  0  0
    1.3532  123.7170   49.2026 N   0  0  0  0  0  0  0  0  0  0  0  0
    1.3246  122.7681   48.2484 C   0  0  0  0  0  0  0  0  0  0  0  0
    2.4758  122.0861   48.2809 N   0  0  0  0  0  0  0  0  0  0  0  0
    3.2645  122.5817   49.2537 C   0  0  0  0  0  0  0  0  0  0  0  0
    2.5303  123.6105   49.8191 C   0  0  0  0  0  0  0  0  0  0  0  0
    3.0688  124.3051   50.8349 N   0  0  0  0  0  0  0  0  0  0  0  0
    4.3183  123.9796   51.2796 C   0  0  0  0  0  0  0  0  0  0  0  0
    5.0243  122.9778   50.7236 N   0  0  0  0  0  0  0  0  0  0  0  0
    4.5220  122.2428   49.6901 C   0  0  0  0  0  0  0  0  0  0  0  0
    5.2551  121.1858   49.0962 N   0  0  0  0  0  0  0  0  0  0  0  0
  2  1  1  1
  2  3  1  0
  3  4  1  6
  4  5  1  0
  5  6  2  0
  7  5  1  6
  7  8  1  0
  7  9  1  0
  8 13  1  0
  9 10  1  1
  9 11  1  0
 11 12  1  1
 11 13  1  0
 13 14  1  6
 14 15  1  0
 14 18  1  0
 15 16  2  0
 16 17  1  0
 17 18  2  0
 17 22  1  0
 18 19  1  0
 19 20  2  0
 20 21  1  0
 21 22  2  0
 22 23  1  0
M  END
$$$$
