
     RDKit          3D

 23 25  0  0  0  0  0  0  0  0999 V2000
    0.0582  131.6990   51.8656 O   0  0  0  0  0  0  0  0  0  0  0  0
   -1.0733  131.4835   51.0779 C   0  0  0  0  0  0  0  0  0  0  0  0
   -0.6773  130.5891   49.9486 C   0  0  0  0  0  0  0  0  0  0  0  0
   -0.9644  129.1903   50.2154 N   0  0  0  0  0  0  0  0  0  0  0  0
    0.0079  128.2671   50.6343 C   0  0  0  0  0  0  0  0  0  0  0  0
    1.1515  128.6986   50.9322 O   0  0  0  0  0  0  0  0  0  0  0  0
   -0.2105  126.8070   50.7544 C   0  0  1  0  0  0  0  0  0  0  0  0
    0.5051  126.0915   49.7958 O   0  0  0  0  0  0  0  0  0  0  0  0
    0.4169  126.2546   52.0411 C   0  0  1  0  0  0  0  0  0  0  0  0
   -0.3382  126.5478   53.1525 O   0  0  0  0  0  0  0  0  0  0  0  0
    0.4455  124.7716   51.7180 C   0  0  1  0  0  0  0  0  0  0  0  0
   -0.7307  124.1606   52.2061 O   0  0  0  0  0  0  0  0  0  0  0  0
    0.3891  124.7916   50.2071 C   0  0  2  0  0  0  0  0  0  0  0  0
    1.4080  123.9217   49.6586 N   0  0  0  0  0  0  0  0  0  0  0  0
    1.1508  123.0216   48.6913 C   0  0  0  0  0  0  0  0  0  0  0  0
    2.2872  122.3555   48.3799 N   0  0  0  0  0  0  0  0  0  0  0  0
    3.2649  122.8366   49.1532 C   0  0  0  0  0  0  0  0  0  0  0  0
    2.7081  123.8198   49.9544 C   0  0  0  0  0  0  0  0  0  0  0  0
    3.4249  124.5135   50.8582 N   0  0  0  0  0  0  0  0  0  0  0  0
    4.7362  124.2197   50.9679 C   0  0  0  0  0  0  0  0  0  0  0  0
    5.2997  123.2663   50.1981 N   0  0  0  0  0  0  0  0  0  0  0  0
    4.6114  122.5557   49.2864 C   0  0  0  0  0  0  0  0  0  0  0  0
    5.1730  121.5542   48.4686 N   0  0  0  0  0  0  0  0  0  0  0  0
  1  2  1  0
  2  3  1  0
  3  4  1  0
  4  5  1  0
  5  6  2  0
  7  5  1  6
  7  8  1  0
  7  9  1  0
  8 13  1  0
  9 10  1  1
  9 11  1  0
 11 12  1  1
 11 13  1  0
 13 14  1  6
 14 15  1  0
 14 18  1  0
 15 16  2  0
 16 17  1  0
 17 18  2  0
 17 22  1  0
 18 19  1  0
 19 20  2  0
 20 21  1  0
 21 22  2  0
 22 23  1  0
M  END
$$$$
