
     RDKit          3D

 23 25  0  0  0  0  0  0  0  0999 V2000
   -6.5229  125.9158   48.7994 O   0  0  0  0  0  0  0  0  0  0  0  0
   -5.8045  126.3149   47.6564 C   0  0  0  0  0  0  0  0  0  0  0  0
   -4.8623  125.1754   47.2969 C   0  0  0  0  0  0  0  0  0  0  0  0
   -3.8649  124.9517   48.2999 N   0  0  0  0  0  0  0  0  0  0  0  0
   -2.5305  125.4264   48.2403 C   0  0  0  0  0  0  0  0  0  0  0  0
   -2.2312  126.2604   47.3552 O   0  0  0  0  0  0  0  0  0  0  0  0
   -1.5078  124.9732   49.1736 C   0  0  1  0  0  0  0  0  0  0  0  0
   -0.5349  124.1676   48.6333 O   0  0  0  0  0  0  0  0  0  0  0  0
   -0.6755  126.1156   49.7462 C   0  0  1  0  0  0  0  0  0  0  0  0
   -1.3759  126.8601   50.6715 O   0  0  0  0  0  0  0  0  0  0  0  0
    0.4591  125.3214   50.3905 C   0  0  1  0  0  0  0  0  0  0  0  0
    0.1629  125.2703   51.7576 O   0  0  0  0  0  0  0  0  0  0  0  0
    0.2863  123.9629   49.7556 C   0  0  2  0  0  0  0  0  0  0  0  0
    1.5074  123.3079   49.4412 N   0  0  0  0  0  0  0  0  0  0  0  0
    1.6961  122.4436   48.4267 C   0  0  0  0  0  0  0  0  0  0  0  0
    2.9691  122.0305   48.4405 N   0  0  0  0  0  0  0  0  0  0  0  0
    3.6217  122.6193   49.4609 C   0  0  0  0  0  0  0  0  0  0  0  0
    2.6743  123.4205   50.0756 C   0  0  0  0  0  0  0  0  0  0  0  0
    3.0386  124.1451   51.1464 N   0  0  0  0  0  0  0  0  0  0  0  0
    4.3258  124.0722   51.5968 C   0  0  0  0  0  0  0  0  0  0  0  0
    5.2396  123.2905   50.9926 N   0  0  0  0  0  0  0  0  0  0  0  0
    4.9196  122.5357   49.9023 C   0  0  0  0  0  0  0  0  0  0  0  0
    5.8723  121.7089   49.2574 N   0  0  0  0  0  0  0  0  0  0  0  0
  2  1  1  1
  2  3  1  0
  3  4  1  6
  4  5  1  0
  5  6  2  0
  7  5  1  6
  7  8  1  0
  7  9  1  0
  8 13  1  0
  9 10  1  1
  9 11  1  0
 11 12  1  1
 11 13  1  0
 13 14  1  6
 14 15  1  0
 14 18  1  0
 15 16  2  0
 16 17  1  0
 17 18  2  0
 17 22  1  0
 18 19  1  0
 19 20  2  0
 20 21  1  0
 21 22  2  0
 22 23  1  0
M  END
$$$$
