
     RDKit          3D

 81 81  0  0  0  0  0  0  0  0999 V2000
   56.9379  -34.9858   -3.5519 N   0  0  0  0  0  4  0  0  0  0  0  0
   56.6721  -33.5874   -3.0804 C   0  0  2  0  0  0  0  0  0  0  0  0
   55.6418  -32.9287   -4.0385 C   0  0  0  0  0  0  0  0  0  0  0  0
   54.5268  -32.6384   -3.6206 O   0  0  0  0  0  0  0  0  0  0  0  0
   57.9762  -32.7904   -3.0766 C   0  0  0  0  0  0  0  0  0  0  0  0
   58.1857  -31.8725   -1.8766 C   0  0  0  0  0  0  0  0  0  0  0  0
   57.9717  -32.5686   -0.5262 C   0  0  0  0  0  0  0  0  0  0  0  0
   57.0653  -31.7745    0.2877 N   0  0  0  0  0  0  0  0  0  0  0  0
   57.3178  -31.5596    1.6046 C   0  0  0  0  0  0  0  0  0  0  0  0
   57.6637  -30.4320    2.1095 N   0  0  0  0  0  0  0  0  0  0  0  0
   57.1676  -32.6917    2.3218 N   0  0  0  0  0  0  0  0  0  0  0  0
   56.0630  -32.7057   -5.3344 N   0  0  0  0  0  0  0  0  0  0  0  0
   55.5469  -33.5711   -6.4145 C   0  0  2  0  0  0  0  0  0  0  0  0
   54.6445  -34.5912   -5.6926 C   0  0  0  0  0  0  0  0  0  0  0  0
   55.1431  -35.6081   -5.2081 O   0  0  0  0  0  0  0  0  0  0  0  0
   56.6807  -34.3680   -7.0991 C   0  0  0  0  0  0  0  0  0  0  0  0
   56.3218  -34.8540   -8.4997 C   0  0  0  0  0  0  0  0  0  0  0  0
   56.7217  -36.3049   -8.7513 C   0  0  0  0  0  0  0  0  0  0  0  0
   55.5739  -37.1521   -8.9920 N   0  0  0  0  0  0  0  0  0  0  0  0
   55.7179  -38.4120   -9.4680 C   0  0  0  0  0  0  0  0  0  0  0  0
   56.3513  -39.2207   -8.5878 N   0  0  0  0  0  0  0  0  0  0  0  0
   55.3126  -38.8037  -10.6203 N   0  0  0  0  0  0  0  0  0  0  0  0
   53.2833  -34.3702   -5.7647 N   0  0  0  0  0  0  0  0  0  0  0  0
   52.3695  -35.4309   -5.3049 C   0  0  2  0  0  0  0  0  0  0  0  0
   51.9007  -35.2100   -3.8462 C   0  0  0  0  0  0  0  0  0  0  0  0
   52.6925  -35.2623   -2.9032 O   0  0  0  0  0  0  0  0  0  0  0  0
   53.0281  -36.8272   -5.3617 C   0  0  0  0  0  0  0  0  0  0  0  0
   52.0235  -37.9751   -5.3082 C   0  0  0  0  0  0  0  0  0  0  0  0
   51.5866  -38.4185   -6.7043 C   0  0  0  0  0  0  0  0  0  0  0  0
   50.7358  -39.5915   -6.6241 N   0  0  0  0  0  0  0  0  0  0  0  0
   49.8448  -39.7580   -5.6110 C   0  0  0  0  0  0  0  0  0  0  0  0
   49.4955  -38.8327   -4.7924 N   0  0  0  0  0  0  0  0  0  0  0  0
   49.3562  -41.0231   -5.6018 N   0  0  0  0  0  0  0  0  0  0  0  0
   50.5708  -34.8741   -3.6982 N   0  0  0  0  0  0  0  0  0  0  0  0
   49.5841  -35.3585   -4.6568 C   0  0  2  0  0  0  0  0  0  0  0  0
   49.4910  -34.3581   -5.8361 C   0  0  0  0  0  0  0  0  0  0  0  0
   49.6657  -33.1491   -5.7319 O   0  0  0  0  0  0  0  0  0  0  0  0
   48.1909  -35.5397   -4.0213 C   0  0  0  0  0  0  0  0  0  0  0  0
   47.2044  -34.4376   -4.4102 C   0  0  0  0  0  0  0  0  0  0  0  0
   45.8270  -34.6166   -3.7735 C   0  0  0  0  0  0  0  0  0  0  0  0
   45.7428  -35.8133   -2.9520 N   0  0  0  0  0  0  0  0  0  0  0  0
   45.5795  -37.0422   -3.5136 C   0  0  0  0  0  0  0  0  0  0  0  0
   45.3177  -38.1152   -2.8704 N   0  0  0  0  0  0  0  0  0  0  0  0
   45.7841  -36.9922   -4.8441 N   0  0  0  0  0  0  0  0  0  0  0  0
   48.4509  -34.6841   -9.5121 C   0  0  0  0  0  0  0  0  0  0  0  0
   49.1768  -34.9525   -7.0490 N   0  0  0  0  0  0  0  0  0  0  0  0
   48.6200  -34.1677  -10.6241 O   0  0  0  0  0  0  0  0  0  0  0  0
   49.3702  -34.2648   -8.3226 C   0  0  1  0  0  0  0  0  0  0  0  0
   50.8477  -34.2829   -8.7781 C   0  0  0  0  0  0  0  0  0  0  0  0
   52.5170  -32.8107   -7.4901 C   0  0  0  0  0  0  0  0  0  0  0  0
   53.6366  -33.8561   -7.4838 C   0  0  0  0  0  0  0  0  0  0  0  0
   51.5145  -32.8976   -8.6422 C   0  0  0  0  0  0  0  0  0  0  0  0
   54.1124  -34.1149   -6.1171 N   0  0  0  0  0  4  0  0  0  0  0  0
   47.4165  -35.5499   -9.2232 N   0  0  0  0  0  0  0  0  0  0  0  0
   47.0330  -36.6577  -10.1145 C   0  0  2  0  0  0  0  0  0  0  0  0
   46.5213  -37.9427   -9.4102 C   0  0  0  0  0  0  0  0  0  0  0  0
   46.9071  -38.2340   -8.2770 O   0  0  0  0  0  0  0  0  0  0  0  0
   48.0318  -37.0601  -11.2271 C   0  0  0  0  0  0  0  0  0  0  0  0
   47.9309  -36.2891  -12.5449 C   0  0  0  0  0  0  0  0  0  0  0  0
   48.3915  -34.8346  -12.3751 C   0  0  0  0  0  0  0  0  0  0  0  0
   48.3098  -34.1452  -13.6453 N   0  0  0  0  0  0  0  0  0  0  0  0
   49.2931  -33.3655  -14.1439 C   0  0  0  0  0  0  0  0  0  0  0  0
   49.0986  -32.1987  -14.6566 N   0  0  0  0  0  0  0  0  0  0  0  0
   50.5233  -33.8896  -13.9756 N   0  0  0  0  0  0  0  0  0  0  0  0
   45.5444  -38.6711  -10.0581 N   0  0  0  0  0  0  0  0  0  0  0  0
   44.1574  -38.6101   -9.5836 C   0  0  0  0  0  0  0  0  0  0  0  0
   43.8870  -39.3196   -8.2813 C   0  0  0  0  0  0  0  0  0  0  0  0
   44.5217  -40.5353   -7.9654 C   0  0  0  0  0  0  0  0  0  0  0  0
   44.3420  -41.1415   -6.7217 C   0  0  0  0  0  0  0  0  0  0  0  0
   43.4693  -40.5690   -5.7972 C   0  0  0  0  0  0  0  0  0  0  0  0
   43.3523  -41.1149   -4.4170 C   0  0  0  0  0  0  0  0  0  0  0  0
   42.4181  -40.6571   -3.5424 N   0  0  0  0  0  0  0  0  0  0  0  0
   44.1549  -42.0853   -4.0702 N   0  0  0  0  0  0  0  0  0  0  0  0
   42.7577  -39.4180   -6.1319 C   0  0  0  0  0  0  0  0  0  0  0  0
   42.9627  -38.7934   -7.3643 C   0  0  0  0  0  0  0  0  0  0  0  0
   58.6207  -30.2144    1.8258 H   0  0  0  0  0  0  0  0  0  0  0  0
   56.0534  -38.6817  -11.3127 H   0  0  0  0  0  0  0  0  0  0  0  0
   50.0084  -37.9769   -5.0531 H   0  0  0  0  0  0  0  0  0  0  0  0
   45.5142  -38.9367   -3.4546 H   0  0  0  0  0  0  0  0  0  0  0  0
   49.9876  -31.6818  -14.5877 H   0  0  0  0  0  0  0  0  0  0  0  0
   43.8763  -42.9255   -4.5969 H   0  0  0  0  0  0  0  0  0  0  0  0
  2  1  1  6
  3  2  1  0
  2  5  1  0
  3  4  2  0
 12  3  1  0
  5  6  1  0
  6  7  1  0
  7  8  1  0
  8  9  1  0
  9 10  2  0
  9 11  1  0
 13 12  1  0
 14 13  1  0
 13 16  1  1
 14 15  2  0
 23 14  1  0
 16 17  1  0
 17 18  1  0
 18 19  1  0
 19 20  1  0
 20 21  1  0
 20 22  2  0
 24 23  1  0
 25 24  1  0
 24 27  1  1
 25 26  2  0
 34 25  1  0
 27 28  1  0
 28 29  1  0
 29 30  1  0
 30 31  1  0
 31 32  2  0
 31 33  1  0
 35 34  1  0
 36 35  1  0
 35 38  1  1
 36 37  2  0
 46 36  1  0
 38 39  1  0
 39 40  1  0
 40 41  1  0
 41 42  1  0
 42 43  2  0
 42 44  1  0
 45 47  2  0
 48 45  1  0
 45 54  1  0
 48 46  1  0
 48 49  1  6
 52 49  1  0
 50 51  1  0
 50 52  1  0
 51 53  1  0
 54 55  1  0
 55 56  1  0
 55 58  1  1
 56 57  2  0
 56 65  1  0
 58 59  1  0
 59 60  1  0
 60 61  1  0
 61 62  1  0
 62 63  2  0
 62 64  1  0
 65 66  1  0
 66 67  1  0
 67 68  2  0
 67 75  1  0
 68 69  1  0
 69 70  2  0
 70 71  1  0
 70 74  1  0
 71 72  1  0
 71 73  2  0
 74 75  2  0
 10 76  1  0
 22 77  1  0
 32 78  1  0
 43 79  1  0
 63 80  1  0
 73 81  1  0
M  CHG  2   1   1  53   1
M  END
$$$$
