
     RDKit          3D

 81 81  0  0  0  0  0  0  0  0999 V2000
   54.9577  -35.1960   -2.7093 N   0  0  0  0  0  4  0  0  0  0  0  0
   56.2921  -34.9093   -2.0883 C   0  0  2  0  0  0  0  0  0  0  0  0
   56.9338  -33.7028   -2.8273 C   0  0  0  0  0  0  0  0  0  0  0  0
   58.1081  -33.4207   -2.6187 O   0  0  0  0  0  0  0  0  0  0  0  0
   57.1890  -36.1409   -2.2077 C   0  0  0  0  0  0  0  0  0  0  0  0
   58.5778  -36.0090   -1.5907 C   0  0  0  0  0  0  0  0  0  0  0  0
   59.4289  -37.2794   -1.7165 C   0  0  0  0  0  0  0  0  0  0  0  0
   60.8286  -36.9105   -1.8559 N   0  0  0  0  0  0  0  0  0  0  0  0
   61.7929  -37.8611   -1.9584 C   0  0  0  0  0  0  0  0  0  0  0  0
   63.0479  -37.6216   -2.0752 N   0  0  0  0  0  0  0  0  0  0  0  0
   61.2619  -39.1005   -1.9314 N   0  0  0  0  0  0  0  0  0  0  0  0
   56.1156  -33.0091   -3.6967 N   0  0  0  0  0  0  0  0  0  0  0  0
   54.9767  -33.7111   -4.3229 C   0  0  2  0  0  0  0  0  0  0  0  0
   54.6538  -32.8776   -5.5787 C   0  0  0  0  0  0  0  0  0  0  0  0
   54.3783  -31.6827   -5.4611 O   0  0  0  0  0  0  0  0  0  0  0  0
   53.7221  -33.6827   -3.4205 C   0  0  0  0  0  0  0  0  0  0  0  0
   53.9603  -33.0154   -2.0697 C   0  0  0  0  0  0  0  0  0  0  0  0
   52.6796  -32.8215   -1.2631 C   0  0  0  0  0  0  0  0  0  0  0  0
   52.9454  -32.3241    0.0692 N   0  0  0  0  0  0  0  0  0  0  0  0
   51.9416  -32.1135    0.9539 C   0  0  0  0  0  0  0  0  0  0  0  0
   52.3981  -31.9709    2.2192 N   0  0  0  0  0  0  0  0  0  0  0  0
   50.6982  -32.0610    0.6425 N   0  0  0  0  0  0  0  0  0  0  0  0
   54.5460  -33.5707   -6.7682 N   0  0  0  0  0  0  0  0  0  0  0  0
   54.2872  -32.8144   -8.0062 C   0  0  2  0  0  0  0  0  0  0  0  0
   54.2454  -33.7287   -9.2545 C   0  0  0  0  0  0  0  0  0  0  0  0
   55.2119  -33.8226  -10.0135 O   0  0  0  0  0  0  0  0  0  0  0  0
   55.3690  -31.7426   -8.2667 C   0  0  0  0  0  0  0  0  0  0  0  0
   56.2888  -32.0803   -9.4370 C   0  0  0  0  0  0  0  0  0  0  0  0
   57.7374  -32.2739   -8.9888 C   0  0  0  0  0  0  0  0  0  0  0  0
   58.6346  -32.2278  -10.1287 N   0  0  0  0  0  0  0  0  0  0  0  0
   58.5909  -31.2108  -11.0297 C   0  0  0  0  0  0  0  0  0  0  0  0
   57.6938  -30.2925  -11.0445 N   0  0  0  0  0  0  0  0  0  0  0  0
   59.6372  -31.2832  -11.8895 N   0  0  0  0  0  0  0  0  0  0  0  0
   53.0957  -34.4777   -9.3993 N   0  0  0  0  0  0  0  0  0  0  0  0
   51.8504  -34.0299   -8.7864 C   0  0  2  0  0  0  0  0  0  0  0  0
   50.6871  -34.9152   -9.2996 C   0  0  0  0  0  0  0  0  0  0  0  0
   49.7669  -34.5089  -10.0005 O   0  0  0  0  0  0  0  0  0  0  0  0
   51.5471  -32.5493   -9.0924 C   0  0  0  0  0  0  0  0  0  0  0  0
   50.1548  -32.1133   -8.6339 C   0  0  0  0  0  0  0  0  0  0  0  0
   49.8736  -30.6352   -8.9000 C   0  0  0  0  0  0  0  0  0  0  0  0
   48.4931  -30.3898   -9.2849 N   0  0  0  0  0  0  0  0  0  0  0  0
   47.4594  -30.8561   -8.5325 C   0  0  0  0  0  0  0  0  0  0  0  0
   47.4545  -30.9313   -7.2567 N   0  0  0  0  0  0  0  0  0  0  0  0
   46.4505  -31.2830   -9.3164 N   0  0  0  0  0  0  0  0  0  0  0  0
   48.2060  -36.5204   -8.7067 C   0  0  0  0  0  0  0  0  0  0  0  0
   50.7659  -36.2361   -8.8848 N   0  0  0  0  0  0  0  0  0  0  0  0
   48.1099  -35.3384   -8.3526 O   0  0  0  0  0  0  0  0  0  0  0  0
   49.6191  -37.1379   -8.9468 C   0  0  1  0  0  0  0  0  0  0  0  0
   49.8024  -38.3794   -8.0434 C   0  0  0  0  0  0  0  0  0  0  0  0
   51.1762  -37.2279   -6.1997 C   0  0  0  0  0  0  0  0  0  0  0  0
   50.5456  -37.5567   -4.8429 C   0  0  0  0  0  0  0  0  0  0  0  0
   51.1287  -38.3338   -7.2554 C   0  0  0  0  0  0  0  0  0  0  0  0
   50.6462  -36.4156   -3.9214 N   0  0  0  0  0  4  0  0  0  0  0  0
   47.1283  -37.3757   -8.8079 N   0  0  0  0  0  0  0  0  0  0  0  0
   46.3356  -37.5151  -10.0411 C   0  0  2  0  0  0  0  0  0  0  0  0
   45.0971  -38.4454   -9.9442 C   0  0  0  0  0  0  0  0  0  0  0  0
   44.2876  -38.5123  -10.8706 O   0  0  0  0  0  0  0  0  0  0  0  0
   47.0985  -37.8312  -11.3508 C   0  0  0  0  0  0  0  0  0  0  0  0
   46.2634  -37.8761  -12.6321 C   0  0  0  0  0  0  0  0  0  0  0  0
   45.7974  -36.4720  -13.0418 C   0  0  0  0  0  0  0  0  0  0  0  0
   46.2432  -36.1832  -14.3883 N   0  0  0  0  0  0  0  0  0  0  0  0
   46.3072  -37.1035  -15.3744 C   0  0  0  0  0  0  0  0  0  0  0  0
   47.3814  -37.3860  -16.0289 N   0  0  0  0  0  0  0  0  0  0  0  0
   45.1496  -37.7696  -15.5552 N   0  0  0  0  0  0  0  0  0  0  0  0
   45.0077  -39.2641   -8.8368 N   0  0  0  0  0  0  0  0  0  0  0  0
   43.7221  -39.8805   -8.4905 C   0  0  0  0  0  0  0  0  0  0  0  0
   43.5582  -40.2661   -7.0424 C   0  0  0  0  0  0  0  0  0  0  0  0
   44.4568  -39.8128   -6.0588 C   0  0  0  0  0  0  0  0  0  0  0  0
   44.2499  -40.0932   -4.7078 C   0  0  0  0  0  0  0  0  0  0  0  0
   43.1702  -40.8898   -4.3283 C   0  0  0  0  0  0  0  0  0  0  0  0
   42.8449  -41.1016   -2.8910 C   0  0  0  0  0  0  0  0  0  0  0  0
   41.6684  -41.6565   -2.4971 N   0  0  0  0  0  0  0  0  0  0  0  0
   43.7440  -40.7721   -2.0026 N   0  0  0  0  0  0  0  0  0  0  0  0
   42.3271  -41.4281   -5.2991 C   0  0  0  0  0  0  0  0  0  0  0  0
   42.5154  -41.1201   -6.6485 C   0  0  0  0  0  0  0  0  0  0  0  0
   63.1785  -36.7467   -2.5864 H   0  0  0  0  0  0  0  0  0  0  0  0
   50.3081  -33.0037    0.5965 H   0  0  0  0  0  0  0  0  0  0  0  0
   57.0636  -30.4604  -10.2457 H   0  0  0  0  0  0  0  0  0  0  0  0
   48.4029  -30.7903   -6.8887 H   0  0  0  0  0  0  0  0  0  0  0  0
   48.1759  -37.0106  -15.4903 H   0  0  0  0  0  0  0  0  0  0  0  0
   44.6266  -40.5924   -2.5022 H   0  0  0  0  0  0  0  0  0  0  0  0
  2  1  1  6
  3  2  1  0
  2  5  1  0
  3  4  2  0
 12  3  1  0
  5  6  1  0
  6  7  1  0
  7  8  1  0
  8  9  1  0
  9 10  2  0
  9 11  1  0
 13 12  1  0
 14 13  1  0
 13 16  1  1
 14 15  2  0
 23 14  1  0
 16 17  1  0
 17 18  1  0
 18 19  1  0
 19 20  1  0
 20 21  1  0
 20 22  2  0
 24 23  1  0
 25 24  1  0
 24 27  1  6
 25 26  2  0
 34 25  1  0
 27 28  1  0
 28 29  1  0
 29 30  1  0
 30 31  1  0
 31 32  2  0
 31 33  1  0
 35 34  1  0
 36 35  1  0
 35 38  1  6
 36 37  2  0
 46 36  1  0
 38 39  1  0
 39 40  1  0
 40 41  1  0
 41 42  1  0
 42 43  2  0
 42 44  1  0
 45 47  2  0
 48 45  1  0
 45 54  1  0
 48 46  1  0
 48 49  1  1
 52 49  1  0
 50 51  1  0
 50 52  1  0
 51 53  1  0
 54 55  1  0
 55 56  1  0
 55 58  1  6
 56 57  2  0
 56 65  1  0
 58 59  1  0
 59 60  1  0
 60 61  1  0
 61 62  1  0
 62 63  2  0
 62 64  1  0
 65 66  1  0
 66 67  1  0
 67 68  2  0
 67 75  1  0
 68 69  1  0
 69 70  2  0
 70 71  1  0
 70 74  1  0
 71 72  1  0
 71 73  2  0
 74 75  2  0
 10 76  1  0
 22 77  1  0
 32 78  1  0
 43 79  1  0
 63 80  1  0
 73 81  1  0
M  CHG  2   1   1  53   1
M  END
$$$$
