
     RDKit          3D

 81 81  0  0  0  0  0  0  0  0999 V2000
   56.6036  -31.3407   -2.9162 N   0  0  0  0  0  4  0  0  0  0  0  0
   56.3631  -31.6753   -1.4744 C   0  0  2  0  0  0  0  0  0  0  0  0
   55.2214  -32.7258   -1.3931 C   0  0  0  0  0  0  0  0  0  0  0  0
   55.1999  -33.5250   -0.4642 O   0  0  0  0  0  0  0  0  0  0  0  0
   55.9731  -30.4096   -0.7118 C   0  0  0  0  0  0  0  0  0  0  0  0
   56.3869  -30.3689    0.7558 C   0  0  0  0  0  0  0  0  0  0  0  0
   57.6641  -29.5582    1.0114 C   0  0  0  0  0  0  0  0  0  0  0  0
   58.8255  -30.3818    0.7155 N   0  0  0  0  0  0  0  0  0  0  0  0
   59.9283  -30.3416    1.5069 C   0  0  0  0  0  0  0  0  0  0  0  0
   59.9085  -30.2588    2.7870 N   0  0  0  0  0  0  0  0  0  0  0  0
   61.0585  -30.3906    0.7726 N   0  0  0  0  0  0  0  0  0  0  0  0
   54.2782  -32.6873   -2.4008 N   0  0  0  0  0  0  0  0  0  0  0  0
   52.9003  -33.1330   -2.1098 C   0  0  2  0  0  0  0  0  0  0  0  0
   52.1474  -32.9522   -3.4426 C   0  0  0  0  0  0  0  0  0  0  0  0
   50.9742  -32.5767   -3.4322 O   0  0  0  0  0  0  0  0  0  0  0  0
   52.2125  -32.2204   -1.0690 C   0  0  0  0  0  0  0  0  0  0  0  0
   50.7392  -32.5499   -0.8513 C   0  0  0  0  0  0  0  0  0  0  0  0
   50.5114  -33.9716   -0.3464 C   0  0  0  0  0  0  0  0  0  0  0  0
   49.1899  -34.1443    0.2166 N   0  0  0  0  0  0  0  0  0  0  0  0
   48.9808  -34.0737    1.5530 C   0  0  0  0  0  0  0  0  0  0  0  0
   47.6825  -34.2715    1.8775 N   0  0  0  0  0  0  0  0  0  0  0  0
   49.8967  -33.8394    2.4201 N   0  0  0  0  0  0  0  0  0  0  0  0
   52.8023  -33.3736   -4.5830 N   0  0  0  0  0  0  0  0  0  0  0  0
   52.8270  -34.8142   -4.8926 C   0  0  2  0  0  0  0  0  0  0  0  0
   51.4602  -35.3274   -5.4067 C   0  0  0  0  0  0  0  0  0  0  0  0
   50.4249  -35.1506   -4.7620 O   0  0  0  0  0  0  0  0  0  0  0  0
   53.1940  -35.6656   -3.6568 C   0  0  0  0  0  0  0  0  0  0  0  0
   54.5500  -36.3560   -3.7761 C   0  0  0  0  0  0  0  0  0  0  0  0
   54.8782  -37.1903   -2.5381 C   0  0  0  0  0  0  0  0  0  0  0  0
   55.6665  -38.3536   -2.9010 N   0  0  0  0  0  0  0  0  0  0  0  0
   55.0870  -39.5572   -3.1530 C   0  0  0  0  0  0  0  0  0  0  0  0
   55.0246  -40.5233   -2.3099 N   0  0  0  0  0  0  0  0  0  0  0  0
   54.5608  -39.5866   -4.4027 N   0  0  0  0  0  0  0  0  0  0  0  0
   51.4813  -35.9114   -6.6566 N   0  0  0  0  0  0  0  0  0  0  0  0
   50.3544  -35.7332   -7.5651 C   0  0  2  0  0  0  0  0  0  0  0  0
   49.3177  -36.8564   -7.3115 C   0  0  0  0  0  0  0  0  0  0  0  0
   49.4563  -37.7506   -6.4843 O   0  0  0  0  0  0  0  0  0  0  0  0
   50.7870  -35.7536   -9.0450 C   0  0  0  0  0  0  0  0  0  0  0  0
   50.0547  -34.7185   -9.9001 C   0  0  0  0  0  0  0  0  0  0  0  0
   50.1373  -33.3042   -9.3276 C   0  0  0  0  0  0  0  0  0  0  0  0
   49.6725  -32.2945  -10.2649 N   0  0  0  0  0  0  0  0  0  0  0  0
   49.6796  -30.9737   -9.9370 C   0  0  0  0  0  0  0  0  0  0  0  0
   49.5738  -30.5105   -8.7505 N   0  0  0  0  0  0  0  0  0  0  0  0
   49.7599  -30.2062  -11.0412 N   0  0  0  0  0  0  0  0  0  0  0  0
   45.8408  -37.4696   -8.9203 C   0  0  0  0  0  0  0  0  0  0  0  0
   48.1954  -36.7736   -8.1219 N   0  0  0  0  0  0  0  0  0  0  0  0
   45.1736  -36.4273   -8.9036 O   0  0  0  0  0  0  0  0  0  0  0  0
   47.0325  -37.6347   -7.9260 C   0  0  1  0  0  0  0  0  0  0  0  0
   46.5060  -37.5842   -6.4731 C   0  0  0  0  0  0  0  0  0  0  0  0
   45.4903  -39.2556   -4.8034 C   0  0  0  0  0  0  0  0  0  0  0  0
   44.4389  -38.7610   -3.8052 C   0  0  0  0  0  0  0  0  0  0  0  0
   45.4264  -38.6552   -6.2088 C   0  0  0  0  0  0  0  0  0  0  0  0
   44.7198  -39.2573   -2.4502 N   0  0  0  0  0  4  0  0  0  0  0  0
   45.5320  -38.5598   -9.7071 N   0  0  0  0  0  0  0  0  0  0  0  0
   45.7900  -38.5942  -11.1566 C   0  0  2  0  0  0  0  0  0  0  0  0
   44.8676  -39.5296  -11.9830 C   0  0  0  0  0  0  0  0  0  0  0  0
   45.2018  -39.9089  -13.1065 O   0  0  0  0  0  0  0  0  0  0  0  0
   47.2537  -38.7980  -11.6186 C   0  0  0  0  0  0  0  0  0  0  0  0
   47.9180  -37.6120  -12.3211 C   0  0  0  0  0  0  0  0  0  0  0  0
   47.4456  -37.4919  -13.7767 C   0  0  0  0  0  0  0  0  0  0  0  0
   48.3420  -36.6243  -14.5108 N   0  0  0  0  0  0  0  0  0  0  0  0
   48.2535  -35.2768  -14.5118 C   0  0  0  0  0  0  0  0  0  0  0  0
   49.0913  -34.4993  -15.1082 N   0  0  0  0  0  0  0  0  0  0  0  0
   47.1462  -34.8169  -13.8965 N   0  0  0  0  0  0  0  0  0  0  0  0
   43.7266  -39.9984  -11.3642 N   0  0  0  0  0  0  0  0  0  0  0  0
   43.7999  -41.1895  -10.5106 C   0  0  0  0  0  0  0  0  0  0  0  0
   44.6338  -42.3230  -11.0512 C   0  0  0  0  0  0  0  0  0  0  0  0
   44.2387  -43.6638  -10.8882 C   0  0  0  0  0  0  0  0  0  0  0  0
   44.9622  -44.7053  -11.4699 C   0  0  0  0  0  0  0  0  0  0  0  0
   46.1330  -44.4212  -12.1720 C   0  0  0  0  0  0  0  0  0  0  0  0
   46.8579  -45.4897  -12.9132 C   0  0  0  0  0  0  0  0  0  0  0  0
   46.5615  -46.8054  -12.7452 N   0  0  0  0  0  0  0  0  0  0  0  0
   47.7748  -45.1287  -13.7707 N   0  0  0  0  0  0  0  0  0  0  0  0
   46.5910  -43.1075  -12.2590 C   0  0  0  0  0  0  0  0  0  0  0  0
   45.8490  -42.0619  -11.7047 C   0  0  0  0  0  0  0  0  0  0  0  0
   60.2811  -29.3514    3.0725 H   0  0  0  0  0  0  0  0  0  0  0  0
   50.7379  -34.3727    2.1943 H   0  0  0  0  0  0  0  0  0  0  0  0
   55.9742  -40.6718   -1.9363 H   0  0  0  0  0  0  0  0  0  0  0  0
   49.6059  -31.2756   -8.0661 H   0  0  0  0  0  0  0  0  0  0  0  0
   49.7480  -35.0988  -15.6294 H   0  0  0  0  0  0  0  0  0  0  0  0
   48.0672  -45.9695  -14.2889 H   0  0  0  0  0  0  0  0  0  0  0  0
  2  1  1  6
  3  2  1  0
  2  5  1  0
  3  4  2  0
 12  3  1  0
  5  6  1  0
  6  7  1  0
  7  8  1  0
  8  9  1  0
  9 10  2  0
  9 11  1  0
 13 12  1  0
 14 13  1  0
 13 16  1  1
 14 15  2  0
 23 14  1  0
 16 17  1  0
 17 18  1  0
 18 19  1  0
 19 20  1  0
 20 21  1  0
 20 22  2  0
 24 23  1  0
 25 24  1  0
 24 27  1  1
 25 26  2  0
 34 25  1  0
 27 28  1  0
 28 29  1  0
 29 30  1  0
 30 31  1  0
 31 32  2  0
 31 33  1  0
 35 34  1  0
 36 35  1  0
 35 38  1  6
 36 37  2  0
 46 36  1  0
 38 39  1  0
 39 40  1  0
 40 41  1  0
 41 42  1  0
 42 43  2  0
 42 44  1  0
 45 47  2  0
 48 45  1  0
 45 54  1  0
 48 46  1  0
 48 49  1  1
 52 49  1  0
 50 51  1  0
 50 52  1  0
 51 53  1  0
 54 55  1  0
 55 56  1  0
 55 58  1  1
 56 57  2  0
 56 65  1  0
 58 59  1  0
 59 60  1  0
 60 61  1  0
 61 62  1  0
 62 63  2  0
 62 64  1  0
 65 66  1  0
 66 67  1  0
 67 68  2  0
 67 75  1  0
 68 69  1  0
 69 70  2  0
 70 71  1  0
 70 74  1  0
 71 72  1  0
 71 73  2  0
 74 75  2  0
 10 76  1  0
 22 77  1  0
 32 78  1  0
 43 79  1  0
 63 80  1  0
 73 81  1  0
M  CHG  2   1   1  53   1
M  END
$$$$
