
     RDKit          3D

 81 81  0  0  0  0  0  0  0  0999 V2000
   51.9302  -34.9600   -9.6178 N   0  0  0  0  0  4  0  0  0  0  0  0
   52.7413  -34.0466   -8.7481 C   0  0  2  0  0  0  0  0  0  0  0  0
   53.8518  -34.8813   -8.0526 C   0  0  0  0  0  0  0  0  0  0  0  0
   54.0726  -36.0266   -8.4286 O   0  0  0  0  0  0  0  0  0  0  0  0
   51.8362  -33.3951   -7.7032 C   0  0  0  0  0  0  0  0  0  0  0  0
   50.6069  -34.2025   -7.2985 C   0  0  0  0  0  0  0  0  0  0  0  0
   49.9361  -33.6977   -6.0143 C   0  0  0  0  0  0  0  0  0  0  0  0
   48.7031  -34.4358   -5.7919 N   0  0  0  0  0  0  0  0  0  0  0  0
   47.4961  -33.8723   -6.0565 C   0  0  0  0  0  0  0  0  0  0  0  0
   47.1748  -33.3173   -7.1676 N   0  0  0  0  0  0  0  0  0  0  0  0
   46.6720  -33.9609   -4.9926 N   0  0  0  0  0  0  0  0  0  0  0  0
   54.5376  -34.2589   -7.0284 N   0  0  0  0  0  0  0  0  0  0  0  0
   55.6084  -34.9989   -6.3299 C   0  0  2  0  0  0  0  0  0  0  0  0
   54.8638  -35.8806   -5.3081 C   0  0  0  0  0  0  0  0  0  0  0  0
   55.4975  -36.6844   -4.6227 O   0  0  0  0  0  0  0  0  0  0  0  0
   56.5297  -34.0504   -5.5294 C   0  0  0  0  0  0  0  0  0  0  0  0
   58.0144  -34.3502   -5.7096 C   0  0  0  0  0  0  0  0  0  0  0  0
   58.9127  -33.4677   -4.8481 C   0  0  0  0  0  0  0  0  0  0  0  0
   58.3622  -33.2554   -3.5271 N   0  0  0  0  0  0  0  0  0  0  0  0
   57.7712  -32.0836   -3.1921 C   0  0  0  0  0  0  0  0  0  0  0  0
   56.5547  -32.2681   -2.6299 N   0  0  0  0  0  0  0  0  0  0  0  0
   58.2901  -30.9267   -3.3869 N   0  0  0  0  0  0  0  0  0  0  0  0
   53.4844  -35.8191   -5.3297 N   0  0  0  0  0  0  0  0  0  0  0  0
   52.7219  -36.7447   -4.4732 C   0  0  2  0  0  0  0  0  0  0  0  0
   51.1937  -36.6125   -4.6812 C   0  0  0  0  0  0  0  0  0  0  0  0
   50.3980  -36.8817   -3.7794 O   0  0  0  0  0  0  0  0  0  0  0  0
   52.9965  -36.5035   -2.9721 C   0  0  0  0  0  0  0  0  0  0  0  0
   54.1151  -37.3775   -2.4114 C   0  0  0  0  0  0  0  0  0  0  0  0
   55.3292  -36.5510   -1.9877 C   0  0  0  0  0  0  0  0  0  0  0  0
   55.0616  -35.8515   -0.7446 N   0  0  0  0  0  0  0  0  0  0  0  0
   56.0671  -35.3723    0.0346 C   0  0  0  0  0  0  0  0  0  0  0  0
   56.3638  -35.8275    1.1978 N   0  0  0  0  0  0  0  0  0  0  0  0
   56.7294  -34.3703   -0.5953 N   0  0  0  0  0  0  0  0  0  0  0  0
   50.8065  -36.1002   -5.9023 N   0  0  0  0  0  0  0  0  0  0  0  0
   50.1523  -34.7987   -5.9739 C   0  0  2  0  0  0  0  0  0  0  0  0
   49.2425  -34.7581   -7.2274 C   0  0  0  0  0  0  0  0  0  0  0  0
   48.4073  -33.8879   -7.4470 O   0  0  0  0  0  0  0  0  0  0  0  0
   51.1649  -33.6373   -6.0323 C   0  0  0  0  0  0  0  0  0  0  0  0
   51.3606  -33.0802   -7.4430 C   0  0  0  0  0  0  0  0  0  0  0  0
   52.2026  -31.8054   -7.4706 C   0  0  0  0  0  0  0  0  0  0  0  0
   51.9179  -30.9731   -8.6283 N   0  0  0  0  0  0  0  0  0  0  0  0
   52.8872  -30.2080   -9.2003 C   0  0  0  0  0  0  0  0  0  0  0  0
   52.9293  -28.9310   -9.1690 N   0  0  0  0  0  0  0  0  0  0  0  0
   53.7785  -30.9755   -9.8569 N   0  0  0  0  0  0  0  0  0  0  0  0
   47.9661  -37.4451   -9.4499 C   0  0  0  0  0  0  0  0  0  0  0  0
   49.4464  -35.8168   -8.0997 N   0  0  0  0  0  0  0  0  0  0  0  0
   48.6991  -38.4184   -9.6669 O   0  0  0  0  0  0  0  0  0  0  0  0
   48.6006  -36.0304   -9.2706 C   0  0  1  0  0  0  0  0  0  0  0  0
   49.3006  -35.6064  -10.5825 C   0  0  0  0  0  0  0  0  0  0  0  0
   51.5854  -35.3902  -11.7426 C   0  0  0  0  0  0  0  0  0  0  0  0
   52.1262  -36.3268  -12.8274 C   0  0  0  0  0  0  0  0  0  0  0  0
   50.7796  -36.0464  -10.6202 C   0  0  0  0  0  0  0  0  0  0  0  0
   52.7151  -37.5375  -12.2369 N   0  0  0  0  0  4  0  0  0  0  0  0
   46.5882  -37.5122   -9.4562 N   0  0  0  0  0  0  0  0  0  0  0  0
   45.8533  -38.7667   -9.6904 C   0  0  2  0  0  0  0  0  0  0  0  0
   45.8383  -39.2749  -11.1568 C   0  0  0  0  0  0  0  0  0  0  0  0
   45.8799  -38.4803  -12.0975 O   0  0  0  0  0  0  0  0  0  0  0  0
   44.4236  -38.8786   -9.1066 C   0  0  0  0  0  0  0  0  0  0  0  0
   44.1868  -38.2098   -7.7509 C   0  0  0  0  0  0  0  0  0  0  0  0
   42.9079  -38.7378   -7.0860 C   0  0  0  0  0  0  0  0  0  0  0  0
   42.9298  -38.4294   -5.6719 N   0  0  0  0  0  0  0  0  0  0  0  0
   43.3430  -39.2923   -4.7189 C   0  0  0  0  0  0  0  0  0  0  0  0
   43.3510  -39.0246   -3.4578 N   0  0  0  0  0  0  0  0  0  0  0  0
   43.6693  -40.5056   -5.2064 N   0  0  0  0  0  0  0  0  0  0  0  0
   45.8888  -40.6401  -11.3522 N   0  0  0  0  0  0  0  0  0  0  0  0
   46.2861  -41.1728  -12.6603 C   0  0  0  0  0  0  0  0  0  0  0  0
   47.7707  -41.2139  -12.9187 C   0  0  0  0  0  0  0  0  0  0  0  0
   48.5672  -42.2709  -12.4403 C   0  0  0  0  0  0  0  0  0  0  0  0
   49.9226  -42.3553  -12.7602 C   0  0  0  0  0  0  0  0  0  0  0  0
   50.5158  -41.3430  -13.5137 C   0  0  0  0  0  0  0  0  0  0  0  0
   51.9238  -41.4640  -13.9821 C   0  0  0  0  0  0  0  0  0  0  0  0
   52.4873  -40.5396  -14.8038 N   0  0  0  0  0  0  0  0  0  0  0  0
   52.6302  -42.4743  -13.5501 N   0  0  0  0  0  0  0  0  0  0  0  0
   49.7629  -40.2395  -13.9120 C   0  0  0  0  0  0  0  0  0  0  0  0
   48.3987  -40.1716  -13.6197 C   0  0  0  0  0  0  0  0  0  0  0  0
   46.8024  -32.3840   -6.9836 H   0  0  0  0  0  0  0  0  0  0  0  0
   58.1313  -30.3298   -2.5736 H   0  0  0  0  0  0  0  0  0  0  0  0
   57.0153  -35.1592    1.6364 H   0  0  0  0  0  0  0  0  0  0  0  0
   53.8008  -28.5936   -9.5950 H   0  0  0  0  0  0  0  0  0  0  0  0
   43.2021  -38.0094   -3.3592 H   0  0  0  0  0  0  0  0  0  0  0  0
   53.5953  -42.3485  -13.8874 H   0  0  0  0  0  0  0  0  0  0  0  0
  2  1  1  6
  3  2  1  0
  2  5  1  0
  3  4  2  0
 12  3  1  0
  5  6  1  0
  6  7  1  0
  7  8  1  0
  8  9  1  0
  9 10  2  0
  9 11  1  0
 13 12  1  0
 14 13  1  0
 13 16  1  1
 14 15  2  0
 23 14  1  0
 16 17  1  0
 17 18  1  0
 18 19  1  0
 19 20  1  0
 20 21  1  0
 20 22  2  0
 24 23  1  0
 25 24  1  0
 24 27  1  1
 25 26  2  0
 34 25  1  0
 27 28  1  0
 28 29  1  0
 29 30  1  0
 30 31  1  0
 31 32  2  0
 31 33  1  0
 35 34  1  0
 36 35  1  0
 35 38  1  6
 36 37  2  0
 46 36  1  0
 38 39  1  0
 39 40  1  0
 40 41  1  0
 41 42  1  0
 42 43  2  0
 42 44  1  0
 45 47  2  0
 48 45  1  0
 45 54  1  0
 48 46  1  0
 48 49  1  6
 52 49  1  0
 50 51  1  0
 50 52  1  0
 51 53  1  0
 54 55  1  0
 55 56  1  0
 55 58  1  6
 56 57  2  0
 56 65  1  0
 58 59  1  0
 59 60  1  0
 60 61  1  0
 61 62  1  0
 62 63  2  0
 62 64  1  0
 65 66  1  0
 66 67  1  0
 67 68  2  0
 67 75  1  0
 68 69  1  0
 69 70  2  0
 70 71  1  0
 70 74  1  0
 71 72  1  0
 71 73  2  0
 74 75  2  0
 10 76  1  0
 22 77  1  0
 32 78  1  0
 43 79  1  0
 63 80  1  0
 73 81  1  0
M  CHG  2   1   1  53   1
M  END
$$$$
