
     RDKit          3D

 81 81  0  0  0  0  0  0  0  0999 V2000
   56.1505  -30.4690   -2.6173 N   0  0  0  0  0  4  0  0  0  0  0  0
   56.5857  -31.6701   -1.8321 C   0  0  2  0  0  0  0  0  0  0  0  0
   55.8393  -32.9176   -2.3799 C   0  0  0  0  0  0  0  0  0  0  0  0
   56.3886  -34.0127   -2.3498 O   0  0  0  0  0  0  0  0  0  0  0  0
   56.2572  -31.4636   -0.3539 C   0  0  0  0  0  0  0  0  0  0  0  0
   54.7989  -31.6836    0.0356 C   0  0  0  0  0  0  0  0  0  0  0  0
   53.8000  -31.0500   -0.9415 C   0  0  0  0  0  0  0  0  0  0  0  0
   52.5388  -30.8145   -0.2570 N   0  0  0  0  0  0  0  0  0  0  0  0
   51.5435  -30.1087   -0.8530 C   0  0  0  0  0  0  0  0  0  0  0  0
   51.5882  -29.6464   -2.0490 N   0  0  0  0  0  0  0  0  0  0  0  0
   50.4952  -29.9442   -0.0207 N   0  0  0  0  0  0  0  0  0  0  0  0
   54.5690  -32.7042   -2.8773 N   0  0  0  0  0  0  0  0  0  0  0  0
   53.7969  -33.8553   -3.3881 C   0  0  2  0  0  0  0  0  0  0  0  0
   52.6296  -33.2200   -4.1690 C   0  0  0  0  0  0  0  0  0  0  0  0
   51.7843  -32.5570   -3.5662 O   0  0  0  0  0  0  0  0  0  0  0  0
   53.1801  -34.6847   -2.2388 C   0  0  0  0  0  0  0  0  0  0  0  0
   54.1987  -35.5402   -1.4923 C   0  0  0  0  0  0  0  0  0  0  0  0
   53.9586  -35.5801    0.0140 C   0  0  0  0  0  0  0  0  0  0  0  0
   54.6775  -36.6617    0.6515 N   0  0  0  0  0  0  0  0  0  0  0  0
   54.0277  -37.7435    1.1435 C   0  0  0  0  0  0  0  0  0  0  0  0
   53.8280  -38.6917    0.1996 N   0  0  0  0  0  0  0  0  0  0  0  0
   53.6351  -37.8642    2.3588 N   0  0  0  0  0  0  0  0  0  0  0  0
   52.5193  -33.5642   -5.5018 N   0  0  0  0  0  0  0  0  0  0  0  0
   52.1694  -34.9536   -5.8466 C   0  0  2  0  0  0  0  0  0  0  0  0
   50.7051  -35.2978   -5.4813 C   0  0  0  0  0  0  0  0  0  0  0  0
   50.1014  -34.6808   -4.6017 O   0  0  0  0  0  0  0  0  0  0  0  0
   53.0697  -35.9754   -5.1170 C   0  0  0  0  0  0  0  0  0  0  0  0
   52.9573  -37.3913   -5.6758 C   0  0  0  0  0  0  0  0  0  0  0  0
   53.8275  -38.3822   -4.9028 C   0  0  0  0  0  0  0  0  0  0  0  0
   53.6699  -39.7231   -5.4353 N   0  0  0  0  0  0  0  0  0  0  0  0
   53.9236  -40.0062   -6.7404 C   0  0  0  0  0  0  0  0  0  0  0  0
   53.5043  -41.0553   -7.3502 N   0  0  0  0  0  0  0  0  0  0  0  0
   54.6537  -39.0182   -7.3149 N   0  0  0  0  0  0  0  0  0  0  0  0
   50.1162  -36.2727   -6.2600 N   0  0  0  0  0  0  0  0  0  0  0  0
   48.9263  -35.9614   -7.0438 C   0  0  2  0  0  0  0  0  0  0  0  0
   48.4434  -37.2463   -7.7622 C   0  0  0  0  0  0  0  0  0  0  0  0
   49.0764  -37.8288   -8.6358 O   0  0  0  0  0  0  0  0  0  0  0  0
   49.1847  -34.8533   -8.0845 C   0  0  0  0  0  0  0  0  0  0  0  0
   48.7574  -33.4656   -7.6043 C   0  0  0  0  0  0  0  0  0  0  0  0
   48.2121  -33.4689   -6.1769 C   0  0  0  0  0  0  0  0  0  0  0  0
   48.0817  -32.1297   -5.6260 N   0  0  0  0  0  0  0  0  0  0  0  0
   47.9637  -31.0435   -6.4373 C   0  0  0  0  0  0  0  0  0  0  0  0
   48.7188  -30.0130   -6.4000 N   0  0  0  0  0  0  0  0  0  0  0  0
   46.9038  -31.1717   -7.2588 N   0  0  0  0  0  0  0  0  0  0  0  0
   45.9023  -38.8632   -9.2334 C   0  0  0  0  0  0  0  0  0  0  0  0
   47.2018  -37.6920   -7.3346 N   0  0  0  0  0  0  0  0  0  0  0  0
   45.2865  -39.8529   -9.6493 O   0  0  0  0  0  0  0  0  0  0  0  0
   46.6039  -38.9244   -7.8406 C   0  0  1  0  0  0  0  0  0  0  0  0
   45.6548  -39.5793   -6.8105 C   0  0  0  0  0  0  0  0  0  0  0  0
   45.1452  -39.8805   -4.3080 C   0  0  0  0  0  0  0  0  0  0  0  0
   43.9301  -39.0986   -3.7993 C   0  0  0  0  0  0  0  0  0  0  0  0
   46.0079  -39.1831   -5.3612 C   0  0  0  0  0  0  0  0  0  0  0  0
   43.3605  -39.7268   -2.5984 N   0  0  0  0  0  4  0  0  0  0  0  0
   46.0993  -37.7194   -9.9790 N   0  0  0  0  0  0  0  0  0  0  0  0
   45.1130  -37.2252  -10.9545 C   0  0  2  0  0  0  0  0  0  0  0  0
   44.6416  -38.2545  -12.0163 C   0  0  0  0  0  0  0  0  0  0  0  0
   44.1192  -37.8788  -13.0669 O   0  0  0  0  0  0  0  0  0  0  0  0
   45.4154  -35.8805  -11.6600 C   0  0  0  0  0  0  0  0  0  0  0  0
   46.8347  -35.6994  -12.2022 C   0  0  0  0  0  0  0  0  0  0  0  0
   46.9762  -34.3708  -12.9579 C   0  0  0  0  0  0  0  0  0  0  0  0
   48.3772  -34.0817  -13.1789 N   0  0  0  0  0  0  0  0  0  0  0  0
   49.3374  -34.2476  -12.2440 C   0  0  0  0  0  0  0  0  0  0  0  0
   49.2847  -33.7436  -11.0585 N   0  0  0  0  0  0  0  0  0  0  0  0
   50.3281  -35.0708  -12.6404 N   0  0  0  0  0  0  0  0  0  0  0  0
   44.9330  -39.5828  -11.7806 N   0  0  0  0  0  0  0  0  0  0  0  0
   45.4484  -40.4183  -12.8709 C   0  0  0  0  0  0  0  0  0  0  0  0
   46.1195  -41.6987  -12.4436 C   0  0  0  0  0  0  0  0  0  0  0  0
   45.8586  -42.9156  -13.1005 C   0  0  0  0  0  0  0  0  0  0  0  0
   46.5503  -44.0798  -12.7649 C   0  0  0  0  0  0  0  0  0  0  0  0
   47.4710  -44.0552  -11.7179 C   0  0  0  0  0  0  0  0  0  0  0  0
   48.3190  -45.2416  -11.4180 C   0  0  0  0  0  0  0  0  0  0  0  0
   49.1126  -45.2946  -10.3159 N   0  0  0  0  0  0  0  0  0  0  0  0
   48.2553  -46.2632  -12.2295 N   0  0  0  0  0  0  0  0  0  0  0  0
   47.6691  -42.8814  -10.9927 C   0  0  0  0  0  0  0  0  0  0  0  0
   47.0008  -41.7081  -11.3502 C   0  0  0  0  0  0  0  0  0  0  0  0
   52.5228  -29.7955   -2.4338 H   0  0  0  0  0  0  0  0  0  0  0  0
   53.6731  -36.9595    2.8311 H   0  0  0  0  0  0  0  0  0  0  0  0
   53.9149  -41.8747   -6.8776 H   0  0  0  0  0  0  0  0  0  0  0  0
   48.5597  -29.4256   -7.2274 H   0  0  0  0  0  0  0  0  0  0  0  0
   48.2890  -33.6205  -10.8220 H   0  0  0  0  0  0  0  0  0  0  0  0
   49.1335  -46.2911  -12.7671 H   0  0  0  0  0  0  0  0  0  0  0  0
  2  1  1  6
  3  2  1  0
  2  5  1  0
  3  4  2  0
 12  3  1  0
  5  6  1  0
  6  7  1  0
  7  8  1  0
  8  9  1  0
  9 10  2  0
  9 11  1  0
 13 12  1  0
 14 13  1  0
 13 16  1  1
 14 15  2  0
 23 14  1  0
 16 17  1  0
 17 18  1  0
 18 19  1  0
 19 20  1  0
 20 21  1  0
 20 22  2  0
 24 23  1  0
 25 24  1  0
 24 27  1  1
 25 26  2  0
 34 25  1  0
 27 28  1  0
 28 29  1  0
 29 30  1  0
 30 31  1  0
 31 32  2  0
 31 33  1  0
 35 34  1  0
 36 35  1  0
 35 38  1  6
 36 37  2  0
 46 36  1  0
 38 39  1  0
 39 40  1  0
 40 41  1  0
 41 42  1  0
 42 43  2  0
 42 44  1  0
 45 47  2  0
 48 45  1  0
 45 54  1  0
 48 46  1  0
 48 49  1  1
 52 49  1  0
 50 51  1  0
 50 52  1  0
 51 53  1  0
 54 55  1  0
 55 56  1  0
 55 58  1  6
 56 57  2  0
 56 65  1  0
 58 59  1  0
 59 60  1  0
 60 61  1  0
 61 62  1  0
 62 63  2  0
 62 64  1  0
 65 66  1  0
 66 67  1  0
 67 68  2  0
 67 75  1  0
 68 69  1  0
 69 70  2  0
 70 71  1  0
 70 74  1  0
 71 72  1  0
 71 73  2  0
 74 75  2  0
 10 76  1  0
 22 77  1  0
 32 78  1  0
 43 79  1  0
 63 80  1  0
 73 81  1  0
M  CHG  2   1   1  53   1
M  END
$$$$
