
     RDKit          3D

 81 81  0  0  0  0  0  0  0  0999 V2000
   57.2215  -36.0617   -2.8463 N   0  0  0  0  0  4  0  0  0  0  0  0
   55.7999  -35.5860   -2.8103 C   0  0  2  0  0  0  0  0  0  0  0  0
   55.0856  -36.0600   -4.1060 C   0  0  0  0  0  0  0  0  0  0  0  0
   54.7686  -37.2378   -4.2256 O   0  0  0  0  0  0  0  0  0  0  0  0
   55.7711  -34.0608   -2.7178 C   0  0  0  0  0  0  0  0  0  0  0  0
   56.3367  -33.3153   -3.9224 C   0  0  0  0  0  0  0  0  0  0  0  0
   57.8541  -33.0987   -3.8535 C   0  0  0  0  0  0  0  0  0  0  0  0
   58.2750  -33.0734   -2.4618 N   0  0  0  0  0  0  0  0  0  0  0  0
   59.5846  -32.9297   -2.1323 C   0  0  0  0  0  0  0  0  0  0  0  0
   60.0347  -32.8606   -0.9329 N   0  0  0  0  0  0  0  0  0  0  0  0
   60.3603  -32.8586   -3.2332 N   0  0  0  0  0  0  0  0  0  0  0  0
   54.8467  -35.0948   -5.0640 N   0  0  0  0  0  0  0  0  0  0  0  0
   54.1227  -35.4712   -6.2953 C   0  0  2  0  0  0  0  0  0  0  0  0
   54.0827  -34.1759   -7.1299 C   0  0  0  0  0  0  0  0  0  0  0  0
   53.0958  -33.4414   -7.0655 O   0  0  0  0  0  0  0  0  0  0  0  0
   52.6588  -35.8689   -5.9983 C   0  0  0  0  0  0  0  0  0  0  0  0
   51.6410  -34.8345   -6.4680 C   0  0  0  0  0  0  0  0  0  0  0  0
   50.1965  -35.2617   -6.2245 C   0  0  0  0  0  0  0  0  0  0  0  0
   49.2512  -34.3814   -6.8761 N   0  0  0  0  0  0  0  0  0  0  0  0
   49.1914  -33.0635   -6.5691 C   0  0  0  0  0  0  0  0  0  0  0  0
   49.4770  -32.2783   -7.6329 N   0  0  0  0  0  0  0  0  0  0  0  0
   48.9060  -32.6007   -5.4072 N   0  0  0  0  0  0  0  0  0  0  0  0
   55.1133  -33.9899   -8.0299 N   0  0  0  0  0  0  0  0  0  0  0  0
   55.0866  -32.8004   -8.8994 C   0  0  2  0  0  0  0  0  0  0  0  0
   53.6821  -32.5411   -9.4961 C   0  0  0  0  0  0  0  0  0  0  0  0
   53.2290  -31.3995   -9.5977 O   0  0  0  0  0  0  0  0  0  0  0  0
   56.0659  -32.9296  -10.0874 C   0  0  0  0  0  0  0  0  0  0  0  0
   56.0975  -31.6955  -10.9850 C   0  0  0  0  0  0  0  0  0  0  0  0
   56.9986  -31.8971  -12.2033 C   0  0  0  0  0  0  0  0  0  0  0  0
   57.8754  -30.7548  -12.3840 N   0  0  0  0  0  0  0  0  0  0  0  0
   57.4913  -29.6684  -13.1052 C   0  0  0  0  0  0  0  0  0  0  0  0
   56.4408  -28.9712  -12.8633 N   0  0  0  0  0  0  0  0  0  0  0  0
   58.3822  -29.4065  -14.0937 N   0  0  0  0  0  0  0  0  0  0  0  0
   53.0276  -33.6586   -9.9720 N   0  0  0  0  0  0  0  0  0  0  0  0
   51.6851  -33.5370  -10.5288 C   0  0  2  0  0  0  0  0  0  0  0  0
   51.0146  -34.9337  -10.5421 C   0  0  0  0  0  0  0  0  0  0  0  0
   51.4871  -35.9216  -11.0933 O   0  0  0  0  0  0  0  0  0  0  0  0
   51.6944  -32.9543  -11.9564 C   0  0  0  0  0  0  0  0  0  0  0  0
   53.0455  -33.1016  -12.6575 C   0  0  0  0  0  0  0  0  0  0  0  0
   53.0088  -32.6694  -14.1226 C   0  0  0  0  0  0  0  0  0  0  0  0
   54.1709  -31.8823  -14.5019 N   0  0  0  0  0  0  0  0  0  0  0  0
   54.2761  -30.5705  -14.1549 C   0  0  0  0  0  0  0  0  0  0  0  0
   53.6740  -30.0201  -13.1710 N   0  0  0  0  0  0  0  0  0  0  0  0
   55.0635  -29.9067  -15.0232 N   0  0  0  0  0  0  0  0  0  0  0  0
   48.2720  -36.5050   -8.4605 C   0  0  0  0  0  0  0  0  0  0  0  0
   49.8013  -34.9769   -9.8719 N   0  0  0  0  0  0  0  0  0  0  0  0
   47.9820  -36.9752   -7.3530 O   0  0  0  0  0  0  0  0  0  0  0  0
   49.6220  -35.7430   -8.6418 C   0  0  1  0  0  0  0  0  0  0  0  0
   49.9142  -34.8988   -7.3797 C   0  0  0  0  0  0  0  0  0  0  0  0
   52.4124  -35.3968   -7.0284 C   0  0  0  0  0  0  0  0  0  0  0  0
   52.6435  -36.4936   -8.0726 C   0  0  0  0  0  0  0  0  0  0  0  0
   51.3552  -34.3459   -7.3714 C   0  0  0  0  0  0  0  0  0  0  0  0
   51.3816  -37.1555   -8.4341 N   0  0  0  0  0  4  0  0  0  0  0  0
   47.5115  -36.7009   -9.5946 N   0  0  0  0  0  0  0  0  0  0  0  0
   46.1182  -37.1755   -9.5468 C   0  0  2  0  0  0  0  0  0  0  0  0
   45.8486  -38.3792   -8.6049 C   0  0  0  0  0  0  0  0  0  0  0  0
   46.7674  -39.1224   -8.2565 O   0  0  0  0  0  0  0  0  0  0  0  0
   45.3997  -37.4238  -10.8956 C   0  0  0  0  0  0  0  0  0  0  0  0
   45.3577  -36.2466  -11.8723 C   0  0  0  0  0  0  0  0  0  0  0  0
   46.7662  -35.8751  -12.3566 C   0  0  0  0  0  0  0  0  0  0  0  0
   47.0450  -36.5469  -13.6081 N   0  0  0  0  0  0  0  0  0  0  0  0
   48.2116  -36.4360  -14.2791 C   0  0  0  0  0  0  0  0  0  0  0  0
   48.8887  -37.4408  -14.7198 N   0  0  0  0  0  0  0  0  0  0  0  0
   48.5640  -35.1585  -14.5242 N   0  0  0  0  0  0  0  0  0  0  0  0
   44.5726  -38.5084   -8.0953 N   0  0  0  0  0  0  0  0  0  0  0  0
   44.0165  -39.8454   -7.8585 C   0  0  0  0  0  0  0  0  0  0  0  0
   43.2650  -40.0137   -6.5625 C   0  0  0  0  0  0  0  0  0  0  0  0
   43.9419  -40.2234   -5.3467 C   0  0  0  0  0  0  0  0  0  0  0  0
   43.2500  -40.2850   -4.1367 C   0  0  0  0  0  0  0  0  0  0  0  0
   41.8581  -40.2015   -4.1353 C   0  0  0  0  0  0  0  0  0  0  0  0
   41.0980  -40.1332   -2.8570 C   0  0  0  0  0  0  0  0  0  0  0  0
   39.7701  -39.8449   -2.8278 N   0  0  0  0  0  0  0  0  0  0  0  0
   41.7358  -40.3973   -1.7481 N   0  0  0  0  0  0  0  0  0  0  0  0
   41.1662  -40.0924   -5.3404 C   0  0  0  0  0  0  0  0  0  0  0  0
   41.8608  -39.9977   -6.5485 C   0  0  0  0  0  0  0  0  0  0  0  0
   60.1541  -31.8798   -0.6731 H   0  0  0  0  0  0  0  0  0  0  0  0
   49.4925  -33.0451   -4.6989 H   0  0  0  0  0  0  0  0  0  0  0  0
   55.9685  -29.3926  -12.0493 H   0  0  0  0  0  0  0  0  0  0  0  0
   52.6566  -30.0936  -13.2908 H   0  0  0  0  0  0  0  0  0  0  0  0
   48.3604  -38.2936  -14.4831 H   0  0  0  0  0  0  0  0  0  0  0  0
   42.7003  -40.6599   -1.9966 H   0  0  0  0  0  0  0  0  0  0  0  0
  2  1  1  6
  3  2  1  0
  2  5  1  0
  3  4  2  0
 12  3  1  0
  5  6  1  0
  6  7  1  0
  7  8  1  0
  8  9  1  0
  9 10  2  0
  9 11  1  0
 13 12  1  0
 14 13  1  0
 13 16  1  1
 14 15  2  0
 23 14  1  0
 16 17  1  0
 17 18  1  0
 18 19  1  0
 19 20  1  0
 20 21  1  0
 20 22  2  0
 24 23  1  0
 25 24  1  0
 24 27  1  6
 25 26  2  0
 34 25  1  0
 27 28  1  0
 28 29  1  0
 29 30  1  0
 30 31  1  0
 31 32  2  0
 31 33  1  0
 35 34  1  0
 36 35  1  0
 35 38  1  6
 36 37  2  0
 46 36  1  0
 38 39  1  0
 39 40  1  0
 40 41  1  0
 41 42  1  0
 42 43  2  0
 42 44  1  0
 45 47  2  0
 48 45  1  0
 45 54  1  0
 48 46  1  0
 48 49  1  1
 52 49  1  0
 50 51  1  0
 50 52  1  0
 51 53  1  0
 54 55  1  0
 55 56  1  0
 55 58  1  6
 56 57  2  0
 56 65  1  0
 58 59  1  0
 59 60  1  0
 60 61  1  0
 61 62  1  0
 62 63  2  0
 62 64  1  0
 65 66  1  0
 66 67  1  0
 67 68  2  0
 67 75  1  0
 68 69  1  0
 69 70  2  0
 70 71  1  0
 70 74  1  0
 71 72  1  0
 71 73  2  0
 74 75  2  0
 10 76  1  0
 22 77  1  0
 32 78  1  0
 43 79  1  0
 63 80  1  0
 73 81  1  0
M  CHG  2   1   1  53   1
M  END
$$$$
