
     RDKit          3D

 81 81  0  0  0  0  0  0  0  0999 V2000
   54.3346  -35.3174   -1.9246 N   0  0  0  0  0  4  0  0  0  0  0  0
   53.0047  -35.9899   -1.7586 C   0  0  2  0  0  0  0  0  0  0  0  0
   51.8935  -35.0165   -2.2396 C   0  0  0  0  0  0  0  0  0  0  0  0
   50.9024  -34.8376   -1.5413 O   0  0  0  0  0  0  0  0  0  0  0  0
   52.7920  -36.3511   -0.2889 C   0  0  0  0  0  0  0  0  0  0  0  0
   52.9561  -35.2044    0.7035 C   0  0  0  0  0  0  0  0  0  0  0  0
   52.8838  -35.6470    2.1707 C   0  0  0  0  0  0  0  0  0  0  0  0
   53.1252  -34.5010    3.0328 N   0  0  0  0  0  0  0  0  0  0  0  0
   54.3574  -34.2683    3.5541 C   0  0  0  0  0  0  0  0  0  0  0  0
   55.3337  -35.1002    3.5256 N   0  0  0  0  0  0  0  0  0  0  0  0
   54.4256  -33.0458    4.1194 N   0  0  0  0  0  0  0  0  0  0  0  0
   52.1030  -34.3981   -3.4563 N   0  0  0  0  0  0  0  0  0  0  0  0
   51.1292  -33.3911   -3.9251 C   0  0  2  0  0  0  0  0  0  0  0  0
   51.6649  -32.9489   -5.3012 C   0  0  0  0  0  0  0  0  0  0  0  0
   51.0732  -32.0705   -5.9303 O   0  0  0  0  0  0  0  0  0  0  0  0
   51.1177  -32.1411   -3.0160 C   0  0  0  0  0  0  0  0  0  0  0  0
   52.5098  -31.6899   -2.5857 C   0  0  0  0  0  0  0  0  0  0  0  0
   52.4929  -30.4229   -1.7355 C   0  0  0  0  0  0  0  0  0  0  0  0
   53.8230  -30.0177   -1.3358 N   0  0  0  0  0  0  0  0  0  0  0  0
   54.2173  -30.0802   -0.0414 C   0  0  0  0  0  0  0  0  0  0  0  0
   53.2057  -30.4350    0.7836 N   0  0  0  0  0  0  0  0  0  0  0  0
   55.4062  -29.8271    0.3686 N   0  0  0  0  0  0  0  0  0  0  0  0
   52.7118  -33.6842   -5.8209 N   0  0  0  0  0  0  0  0  0  0  0  0
   52.9982  -33.5849   -7.2630 C   0  0  2  0  0  0  0  0  0  0  0  0
   52.0591  -34.4771   -8.1105 C   0  0  0  0  0  0  0  0  0  0  0  0
   51.7294  -34.1568   -9.2540 O   0  0  0  0  0  0  0  0  0  0  0  0
   54.4462  -34.0081   -7.5962 C   0  0  0  0  0  0  0  0  0  0  0  0
   54.7680  -33.9498   -9.0871 C   0  0  0  0  0  0  0  0  0  0  0  0
   54.6408  -32.5323   -9.6448 C   0  0  0  0  0  0  0  0  0  0  0  0
   54.6163  -32.5552  -11.0958 N   0  0  0  0  0  0  0  0  0  0  0  0
   54.4493  -31.4196  -11.8240 C   0  0  0  0  0  0  0  0  0  0  0  0
   54.0462  -30.3004  -11.3410 N   0  0  0  0  0  0  0  0  0  0  0  0
   54.7930  -31.6231  -13.1201 N   0  0  0  0  0  0  0  0  0  0  0  0
   51.6969  -35.6738   -7.5272 N   0  0  0  0  0  0  0  0  0  0  0  0
   50.9402  -36.6592   -8.2911 C   0  0  2  0  0  0  0  0  0  0  0  0
   49.5716  -36.0503   -8.6867 C   0  0  0  0  0  0  0  0  0  0  0  0
   48.6861  -35.7642   -7.8886 O   0  0  0  0  0  0  0  0  0  0  0  0
   50.7164  -37.9650   -7.5021 C   0  0  0  0  0  0  0  0  0  0  0  0
   51.6765  -38.1274   -6.3229 C   0  0  0  0  0  0  0  0  0  0  0  0
   51.0777  -37.6624   -4.9962 C   0  0  0  0  0  0  0  0  0  0  0  0
   51.9288  -37.9746   -3.8595 N   0  0  0  0  0  0  0  0  0  0  0  0
   51.4893  -37.8021   -2.5831 C   0  0  0  0  0  0  0  0  0  0  0  0
   52.0663  -38.2606   -1.5390 N   0  0  0  0  0  0  0  0  0  0  0  0
   50.3257  -37.1236   -2.5644 N   0  0  0  0  0  0  0  0  0  0  0  0
   46.8601  -35.6185   -9.8139 C   0  0  0  0  0  0  0  0  0  0  0  0
   49.4197  -35.8581  -10.0517 N   0  0  0  0  0  0  0  0  0  0  0  0
   46.9152  -35.6641   -8.5784 O   0  0  0  0  0  0  0  0  0  0  0  0
   48.1675  -35.3825  -10.6331 C   0  0  1  0  0  0  0  0  0  0  0  0
   47.9685  -35.8835  -12.0823 C   0  0  0  0  0  0  0  0  0  0  0  0
   47.1633  -35.1915  -14.4244 C   0  0  0  0  0  0  0  0  0  0  0  0
   48.5449  -35.1302  -15.0833 C   0  0  0  0  0  0  0  0  0  0  0  0
   47.1155  -34.9090  -12.9219 C   0  0  0  0  0  0  0  0  0  0  0  0
   48.4348  -34.8320  -16.5186 N   0  0  0  0  0  4  0  0  0  0  0  0
   45.7110  -35.8682  -10.5354 N   0  0  0  0  0  0  0  0  0  0  0  0
   44.5606  -36.5960   -9.9736 C   0  0  2  0  0  0  0  0  0  0  0  0
   44.9072  -37.8114   -9.0727 C   0  0  0  0  0  0  0  0  0  0  0  0
   45.4258  -38.8210   -9.5520 O   0  0  0  0  0  0  0  0  0  0  0  0
   43.4252  -37.0002  -10.9455 C   0  0  0  0  0  0  0  0  0  0  0  0
   43.8538  -37.4603  -12.3405 C   0  0  0  0  0  0  0  0  0  0  0  0
   43.9230  -38.9915  -12.4244 C   0  0  0  0  0  0  0  0  0  0  0  0
   43.4320  -39.4325  -13.7127 N   0  0  0  0  0  0  0  0  0  0  0  0
   44.2225  -39.9164  -14.6948 C   0  0  0  0  0  0  0  0  0  0  0  0
   45.4958  -39.7238  -14.7567 N   0  0  0  0  0  0  0  0  0  0  0  0
   43.5628  -40.7018  -15.5690 N   0  0  0  0  0  0  0  0  0  0  0  0
   44.7131  -37.6657   -7.7141 N   0  0  0  0  0  0  0  0  0  0  0  0
   43.9909  -38.7022   -6.9679 C   0  0  0  0  0  0  0  0  0  0  0  0
   44.7083  -39.2488   -5.7600 C   0  0  0  0  0  0  0  0  0  0  0  0
   44.0146  -39.9356   -4.7462 C   0  0  0  0  0  0  0  0  0  0  0  0
   44.6929  -40.5215   -3.6770 C   0  0  0  0  0  0  0  0  0  0  0  0
   46.0754  -40.3715   -3.5744 C   0  0  0  0  0  0  0  0  0  0  0  0
   46.8460  -41.0894   -2.5221 C   0  0  0  0  0  0  0  0  0  0  0  0
   46.2284  -41.7803   -1.5279 N   0  0  0  0  0  0  0  0  0  0  0  0
   48.1500  -41.0726   -2.5963 N   0  0  0  0  0  0  0  0  0  0  0  0
   46.7649  -39.6110   -4.5175 C   0  0  0  0  0  0  0  0  0  0  0  0
   46.0902  -39.0523   -5.6054 C   0  0  0  0  0  0  0  0  0  0  0  0
   55.0693  -35.9120    2.9645 H   0  0  0  0  0  0  0  0  0  0  0  0
   55.8422  -29.1251   -0.2315 H   0  0  0  0  0  0  0  0  0  0  0  0
   53.0163  -30.2921  -11.3932 H   0  0  0  0  0  0  0  0  0  0  0  0
   52.9420  -38.7322   -1.7949 H   0  0  0  0  0  0  0  0  0  0  0  0
   45.7604  -39.7438  -15.7527 H   0  0  0  0  0  0  0  0  0  0  0  0
   48.4084  -40.5561   -3.4492 H   0  0  0  0  0  0  0  0  0  0  0  0
  2  1  1  1
  3  2  1  0
  2  5  1  0
  3  4  2  0
 12  3  1  0
  5  6  1  0
  6  7  1  0
  7  8  1  0
  8  9  1  0
  9 10  2  0
  9 11  1  0
 13 12  1  0
 14 13  1  0
 13 16  1  1
 14 15  2  0
 23 14  1  0
 16 17  1  0
 17 18  1  0
 18 19  1  0
 19 20  1  0
 20 21  1  0
 20 22  2  0
 24 23  1  0
 25 24  1  0
 24 27  1  1
 25 26  2  0
 34 25  1  0
 27 28  1  0
 28 29  1  0
 29 30  1  0
 30 31  1  0
 31 32  2  0
 31 33  1  0
 35 34  1  0
 36 35  1  0
 35 38  1  1
 36 37  2  0
 46 36  1  0
 38 39  1  0
 39 40  1  0
 40 41  1  0
 41 42  1  0
 42 43  2  0
 42 44  1  0
 45 47  2  0
 48 45  1  0
 45 54  1  0
 48 46  1  0
 48 49  1  6
 52 49  1  0
 50 51  1  0
 50 52  1  0
 51 53  1  0
 54 55  1  0
 55 56  1  0
 55 58  1  6
 56 57  2  0
 56 65  1  0
 58 59  1  0
 59 60  1  0
 60 61  1  0
 61 62  1  0
 62 63  2  0
 62 64  1  0
 65 66  1  0
 66 67  1  0
 67 68  2  0
 67 75  1  0
 68 69  1  0
 69 70  2  0
 70 71  1  0
 70 74  1  0
 71 72  1  0
 71 73  2  0
 74 75  2  0
 10 76  1  0
 22 77  1  0
 32 78  1  0
 43 79  1  0
 63 80  1  0
 73 81  1  0
M  CHG  2   1   1  53   1
M  END
$$$$
