
     RDKit          3D

 81 81  0  0  0  0  0  0  0  0999 V2000
   57.6057  -32.2301   -3.8995 N   0  0  0  0  0  4  0  0  0  0  0  0
   56.3560  -33.0099   -3.6188 C   0  0  2  0  0  0  0  0  0  0  0  0
   56.6036  -34.4962   -3.9973 C   0  0  0  0  0  0  0  0  0  0  0  0
   57.7059  -34.9947   -3.8010 O   0  0  0  0  0  0  0  0  0  0  0  0
   55.2001  -32.4401   -4.4403 C   0  0  0  0  0  0  0  0  0  0  0  0
   55.5479  -32.0138   -5.8629 C   0  0  0  0  0  0  0  0  0  0  0  0
   54.3348  -31.5474   -6.6782 C   0  0  0  0  0  0  0  0  0  0  0  0
   54.6122  -30.2399   -7.2510 N   0  0  0  0  0  0  0  0  0  0  0  0
   55.8795  -29.8761   -7.5759 C   0  0  0  0  0  0  0  0  0  0  0  0
   56.4724  -28.8229   -7.1453 N   0  0  0  0  0  0  0  0  0  0  0  0
   56.4402  -30.7628   -8.4234 N   0  0  0  0  0  0  0  0  0  0  0  0
   55.5342  -35.1774   -4.5439 N   0  0  0  0  0  0  0  0  0  0  0  0
   55.5275  -36.6539   -4.5006 C   0  0  2  0  0  0  0  0  0  0  0  0
   54.2158  -37.0539   -5.2046 C   0  0  0  0  0  0  0  0  0  0  0  0
   53.8400  -38.2265   -5.1693 O   0  0  0  0  0  0  0  0  0  0  0  0
   55.4473  -37.1825   -3.0503 C   0  0  0  0  0  0  0  0  0  0  0  0
   56.6672  -36.8277   -2.2060 C   0  0  0  0  0  0  0  0  0  0  0  0
   56.5992  -37.3898   -0.7891 C   0  0  0  0  0  0  0  0  0  0  0  0
   57.7581  -37.0262   -0.0030 N   0  0  0  0  0  0  0  0  0  0  0  0
   57.8886  -37.4284    1.2839 C   0  0  0  0  0  0  0  0  0  0  0  0
   58.9141  -38.2956    1.4459 N   0  0  0  0  0  0  0  0  0  0  0  0
   57.1302  -37.0454    2.2449 N   0  0  0  0  0  0  0  0  0  0  0  0
   53.6069  -36.0815   -5.9730 N   0  0  0  0  0  0  0  0  0  0  0  0
   52.4884  -36.4710   -6.8500 C   0  0  2  0  0  0  0  0  0  0  0  0
   51.9766  -35.2889   -7.7083 C   0  0  0  0  0  0  0  0  0  0  0  0
   51.5710  -34.2475   -7.1888 O   0  0  0  0  0  0  0  0  0  0  0  0
   51.2807  -37.0027   -6.0464 C   0  0  0  0  0  0  0  0  0  0  0  0
   51.4993  -36.9805   -4.5360 C   0  0  0  0  0  0  0  0  0  0  0  0
   50.1802  -37.0412   -3.7661 C   0  0  0  0  0  0  0  0  0  0  0  0
   50.4230  -37.2883   -2.3567 N   0  0  0  0  0  0  0  0  0  0  0  0
   50.6161  -38.5452   -1.8762 C   0  0  0  0  0  0  0  0  0  0  0  0
   50.4048  -39.6191   -2.5472 N   0  0  0  0  0  0  0  0  0  0  0  0
   51.0881  -38.5082   -0.6052 N   0  0  0  0  0  0  0  0  0  0  0  0
   52.0874  -35.4590   -9.0730 N   0  0  0  0  0  0  0  0  0  0  0  0
   51.6528  -34.4015   -9.9784 C   0  0  2  0  0  0  0  0  0  0  0  0
   50.1312  -34.5464  -10.2321 C   0  0  0  0  0  0  0  0  0  0  0  0
   49.4177  -33.6560  -10.6807 O   0  0  0  0  0  0  0  0  0  0  0  0
   52.4066  -34.4361  -11.3231 C   0  0  0  0  0  0  0  0  0  0  0  0
   51.9166  -33.3801  -12.3148 C   0  0  0  0  0  0  0  0  0  0  0  0
   52.6327  -33.4484  -13.6629 C   0  0  0  0  0  0  0  0  0  0  0  0
   52.0767  -32.5242  -14.6380 N   0  0  0  0  0  0  0  0  0  0  0  0
   51.1127  -31.6292  -14.2891 C   0  0  0  0  0  0  0  0  0  0  0  0
   50.5203  -30.8351  -15.0966 N   0  0  0  0  0  0  0  0  0  0  0  0
   50.8981  -31.6499  -12.9594 N   0  0  0  0  0  0  0  0  0  0  0  0
   47.7387  -37.5005   -9.4578 C   0  0  0  0  0  0  0  0  0  0  0  0
   49.6250  -35.7924   -9.8939 N   0  0  0  0  0  0  0  0  0  0  0  0
   47.5899  -38.3963  -10.2987 O   0  0  0  0  0  0  0  0  0  0  0  0
   48.1938  -36.0809   -9.9200 C   0  0  1  0  0  0  0  0  0  0  0  0
   47.5565  -35.7529  -11.2901 C   0  0  0  0  0  0  0  0  0  0  0  0
   47.5322  -37.5085  -13.1690 C   0  0  0  0  0  0  0  0  0  0  0  0
   48.2680  -38.2641  -14.2800 C   0  0  0  0  0  0  0  0  0  0  0  0
   48.3226  -36.4081  -12.4589 C   0  0  0  0  0  0  0  0  0  0  0  0
   47.3373  -39.0831  -15.0701 N   0  0  0  0  0  4  0  0  0  0  0  0
   47.4250  -37.6487   -8.1226 N   0  0  0  0  0  0  0  0  0  0  0  0
   46.1235  -38.1616   -7.6627 C   0  0  2  0  0  0  0  0  0  0  0  0
   45.7832  -37.8955   -6.1720 C   0  0  0  0  0  0  0  0  0  0  0  0
   44.7022  -38.2526   -5.7010 O   0  0  0  0  0  0  0  0  0  0  0  0
   45.7724  -39.6310   -8.0023 C   0  0  0  0  0  0  0  0  0  0  0  0
   44.4527  -40.1637   -7.4402 C   0  0  0  0  0  0  0  0  0  0  0  0
   44.1772  -41.5930   -7.9276 C   0  0  0  0  0  0  0  0  0  0  0  0
   43.5156  -41.5509   -9.2144 N   0  0  0  0  0  0  0  0  0  0  0  0
   42.2033  -41.8127   -9.3958 C   0  0  0  0  0  0  0  0  0  0  0  0
   41.3926  -41.0333  -10.0263 N   0  0  0  0  0  0  0  0  0  0  0  0
   41.8327  -43.0202   -8.9258 N   0  0  0  0  0  0  0  0  0  0  0  0
   46.7772  -37.3498   -5.3854 N   0  0  0  0  0  0  0  0  0  0  0  0
   46.5032  -37.0432   -3.9769 C   0  0  0  0  0  0  0  0  0  0  0  0
   46.3856  -35.5775   -3.6445 C   0  0  0  0  0  0  0  0  0  0  0  0
   45.1656  -34.8908   -3.7880 C   0  0  0  0  0  0  0  0  0  0  0  0
   45.0357  -33.5595   -3.3914 C   0  0  0  0  0  0  0  0  0  0  0  0
   46.1485  -32.8756   -2.9032 C   0  0  0  0  0  0  0  0  0  0  0  0
   46.0179  -31.4991   -2.3511 C   0  0  0  0  0  0  0  0  0  0  0  0
   44.8111  -30.9767   -2.0077 N   0  0  0  0  0  0  0  0  0  0  0  0
   47.1091  -30.8056   -2.1655 N   0  0  0  0  0  0  0  0  0  0  0  0
   47.3873  -33.5123   -2.8469 C   0  0  0  0  0  0  0  0  0  0  0  0
   47.5096  -34.8547   -3.2131 C   0  0  0  0  0  0  0  0  0  0  0  0
   55.8737  -28.3533   -6.4636 H   0  0  0  0  0  0  0  0  0  0  0  0
   57.4749  -37.4151    3.1324 H   0  0  0  0  0  0  0  0  0  0  0  0
   50.7184  -39.4481   -3.5146 H   0  0  0  0  0  0  0  0  0  0  0  0
   50.5966  -31.1850  -16.0592 H   0  0  0  0  0  0  0  0  0  0  0  0
   41.9037  -40.1625  -10.2332 H   0  0  0  0  0  0  0  0  0  0  0  0
   47.6865  -31.3089   -1.4768 H   0  0  0  0  0  0  0  0  0  0  0  0
  2  1  1  6
  3  2  1  0
  2  5  1  0
  3  4  2  0
 12  3  1  0
  5  6  1  0
  6  7  1  0
  7  8  1  0
  8  9  1  0
  9 10  2  0
  9 11  1  0
 13 12  1  0
 14 13  1  0
 13 16  1  1
 14 15  2  0
 23 14  1  0
 16 17  1  0
 17 18  1  0
 18 19  1  0
 19 20  1  0
 20 21  1  0
 20 22  2  0
 24 23  1  0
 25 24  1  0
 24 27  1  1
 25 26  2  0
 34 25  1  0
 27 28  1  0
 28 29  1  0
 29 30  1  0
 30 31  1  0
 31 32  2  0
 31 33  1  0
 35 34  1  0
 36 35  1  0
 35 38  1  6
 36 37  2  0
 46 36  1  0
 38 39  1  0
 39 40  1  0
 40 41  1  0
 41 42  1  0
 42 43  2  0
 42 44  1  0
 45 47  2  0
 48 45  1  0
 45 54  1  0
 48 46  1  0
 48 49  1  6
 52 49  1  0
 50 51  1  0
 50 52  1  0
 51 53  1  0
 54 55  1  0
 55 56  1  0
 55 58  1  1
 56 57  2  0
 56 65  1  0
 58 59  1  0
 59 60  1  0
 60 61  1  0
 61 62  1  0
 62 63  2  0
 62 64  1  0
 65 66  1  0
 66 67  1  0
 67 68  2  0
 67 75  1  0
 68 69  1  0
 69 70  2  0
 70 71  1  0
 70 74  1  0
 71 72  1  0
 71 73  2  0
 74 75  2  0
 10 76  1  0
 22 77  1  0
 32 78  1  0
 43 79  1  0
 63 80  1  0
 73 81  1  0
M  CHG  2   1   1  53   1
M  END
$$$$
