
     RDKit          3D

 81 81  0  0  0  0  0  0  0  0999 V2000
   53.7673  -33.8904   -7.3041 N   0  0  0  0  0  4  0  0  0  0  0  0
   54.5840  -35.0844   -7.6988 C   0  0  2  0  0  0  0  0  0  0  0  0
   55.3736  -35.5779   -6.4552 C   0  0  0  0  0  0  0  0  0  0  0  0
   55.9320  -36.6684   -6.4869 O   0  0  0  0  0  0  0  0  0  0  0  0
   55.5488  -34.6987   -8.8195 C   0  0  0  0  0  0  0  0  0  0  0  0
   54.9145  -34.4717  -10.1881 C   0  0  0  0  0  0  0  0  0  0  0  0
   54.2413  -35.7225  -10.7680 C   0  0  0  0  0  0  0  0  0  0  0  0
   55.2577  -36.7101  -11.0940 N   0  0  0  0  0  0  0  0  0  0  0  0
   54.9186  -37.9013  -11.6510 C   0  0  0  0  0  0  0  0  0  0  0  0
   55.7452  -38.8438  -11.9240 N   0  0  0  0  0  0  0  0  0  0  0  0
   53.5935  -37.9681  -11.8925 N   0  0  0  0  0  0  0  0  0  0  0  0
   55.3964  -34.7299   -5.3657 N   0  0  0  0  0  0  0  0  0  0  0  0
   56.1213  -35.1472   -4.1481 C   0  0  2  0  0  0  0  0  0  0  0  0
   55.0545  -35.1183   -3.0359 C   0  0  0  0  0  0  0  0  0  0  0  0
   55.4068  -35.1137   -1.8555 O   0  0  0  0  0  0  0  0  0  0  0  0
   57.2162  -34.1283   -3.7578 C   0  0  0  0  0  0  0  0  0  0  0  0
   58.4176  -34.7630   -3.0648 C   0  0  0  0  0  0  0  0  0  0  0  0
   59.6559  -34.8295   -3.9537 C   0  0  0  0  0  0  0  0  0  0  0  0
   59.9595  -36.1833   -4.3640 N   0  0  0  0  0  0  0  0  0  0  0  0
   60.0190  -37.1938   -3.4639 C   0  0  0  0  0  0  0  0  0  0  0  0
   59.0891  -38.1464   -3.7042 N   0  0  0  0  0  0  0  0  0  0  0  0
   60.8499  -37.2493   -2.4882 N   0  0  0  0  0  0  0  0  0  0  0  0
   53.7403  -35.2521   -3.4381 N   0  0  0  0  0  0  0  0  0  0  0  0
   52.6962  -35.3917   -2.4075 C   0  0  2  0  0  0  0  0  0  0  0  0
   51.2788  -35.5034   -3.0195 C   0  0  0  0  0  0  0  0  0  0  0  0
   50.2697  -35.4531   -2.3138 O   0  0  0  0  0  0  0  0  0  0  0  0
   52.6764  -34.1897   -1.4370 C   0  0  0  0  0  0  0  0  0  0  0  0
   53.9400  -34.0732   -0.5890 C   0  0  0  0  0  0  0  0  0  0  0  0
   53.6199  -33.7948    0.8796 C   0  0  0  0  0  0  0  0  0  0  0  0
   53.4291  -32.3729    1.0995 N   0  0  0  0  0  0  0  0  0  0  0  0
   54.4075  -31.4710    0.8218 C   0  0  0  0  0  0  0  0  0  0  0  0
   55.5038  -31.7530    0.2162 N   0  0  0  0  0  0  0  0  0  0  0  0
   54.0551  -30.2318    1.2456 N   0  0  0  0  0  0  0  0  0  0  0  0
   51.2347  -35.5773   -4.3965 N   0  0  0  0  0  0  0  0  0  0  0  0
   50.3856  -34.6618   -5.1502 C   0  0  2  0  0  0  0  0  0  0  0  0
   50.5954  -34.9088   -6.6653 C   0  0  0  0  0  0  0  0  0  0  0  0
   51.6802  -34.8422   -7.2324 O   0  0  0  0  0  0  0  0  0  0  0  0
   50.6815  -33.1846   -4.8213 C   0  0  0  0  0  0  0  0  0  0  0  0
   50.0817  -32.7332   -3.4890 C   0  0  0  0  0  0  0  0  0  0  0  0
   48.8044  -31.9115   -3.6564 C   0  0  0  0  0  0  0  0  0  0  0  0
   48.2855  -31.4217   -2.3897 N   0  0  0  0  0  0  0  0  0  0  0  0
   48.9322  -30.4470   -1.6940 C   0  0  0  0  0  0  0  0  0  0  0  0
   49.7500  -30.6495   -0.7330 N   0  0  0  0  0  0  0  0  0  0  0  0
   48.5550  -29.2251   -2.1177 N   0  0  0  0  0  0  0  0  0  0  0  0
   47.9075  -36.6904   -8.8202 C   0  0  0  0  0  0  0  0  0  0  0  0
   49.4269  -35.2098   -7.3489 N   0  0  0  0  0  0  0  0  0  0  0  0
   46.8245  -36.8242   -8.2362 O   0  0  0  0  0  0  0  0  0  0  0  0
   49.2131  -36.5067   -7.9850 C   0  0  1  0  0  0  0  0  0  0  0  0
   49.3589  -37.6784   -6.9868 C   0  0  0  0  0  0  0  0  0  0  0  0
   50.8891  -39.7236   -7.2847 C   0  0  0  0  0  0  0  0  0  0  0  0
   51.0453  -41.1835   -7.7215 C   0  0  0  0  0  0  0  0  0  0  0  0
   49.5937  -39.0256   -7.7025 C   0  0  0  0  0  0  0  0  0  0  0  0
   52.2996  -41.7575   -7.2130 N   0  0  0  0  0  4  0  0  0  0  0  0
   48.0540  -36.7962  -10.1878 N   0  0  0  0  0  0  0  0  0  0  0  0
   46.9073  -36.9046  -11.1054 C   0  0  2  0  0  0  0  0  0  0  0  0
   46.0438  -38.1856  -10.9561 C   0  0  0  0  0  0  0  0  0  0  0  0
   46.5696  -39.2997  -10.9433 O   0  0  0  0  0  0  0  0  0  0  0  0
   47.1676  -36.6484  -12.6101 C   0  0  0  0  0  0  0  0  0  0  0  0
   48.6249  -36.4286  -13.0218 C   0  0  0  0  0  0  0  0  0  0  0  0
   48.9706  -34.9336  -13.0671 C   0  0  0  0  0  0  0  0  0  0  0  0
   50.2660  -34.7507  -13.6864 N   0  0  0  0  0  0  0  0  0  0  0  0
   50.8240  -33.5441  -13.9238 C   0  0  0  0  0  0  0  0  0  0  0  0
   51.6326  -33.3024  -14.8984 N   0  0  0  0  0  0  0  0  0  0  0  0
   50.3847  -32.5822  -13.0882 N   0  0  0  0  0  0  0  0  0  0  0  0
   44.6934  -38.0135  -10.7293 N   0  0  0  0  0  0  0  0  0  0  0  0
   43.7792  -39.1500  -10.8884 C   0  0  0  0  0  0  0  0  0  0  0  0
   43.4458  -39.8950   -9.6210 C   0  0  0  0  0  0  0  0  0  0  0  0
   42.3063  -39.5717   -8.8610 C   0  0  0  0  0  0  0  0  0  0  0  0
   41.9488  -40.3229   -7.7409 C   0  0  0  0  0  0  0  0  0  0  0  0
   42.7673  -41.3734   -7.3275 C   0  0  0  0  0  0  0  0  0  0  0  0
   42.3515  -42.2751   -6.2182 C   0  0  0  0  0  0  0  0  0  0  0  0
   43.1552  -43.2743   -5.7678 N   0  0  0  0  0  0  0  0  0  0  0  0
   41.1943  -42.0592   -5.6519 N   0  0  0  0  0  0  0  0  0  0  0  0
   43.9511  -41.6442   -8.0117 C   0  0  0  0  0  0  0  0  0  0  0  0
   44.2917  -40.9131   -9.1521 C   0  0  0  0  0  0  0  0  0  0  0  0
   55.2387  -39.7285  -11.9899 H   0  0  0  0  0  0  0  0  0  0  0  0
   61.0144  -38.2216   -2.2225 H   0  0  0  0  0  0  0  0  0  0  0  0
   55.3863  -32.6775   -0.2252 H   0  0  0  0  0  0  0  0  0  0  0  0
   49.2551  -30.6223    0.1666 H   0  0  0  0  0  0  0  0  0  0  0  0
   51.9004  -34.2102  -15.3065 H   0  0  0  0  0  0  0  0  0  0  0  0
   40.7674  -41.2433   -6.1133 H   0  0  0  0  0  0  0  0  0  0  0  0
  2  1  1  1
  3  2  1  0
  2  5  1  0
  3  4  2  0
 12  3  1  0
  5  6  1  0
  6  7  1  0
  7  8  1  0
  8  9  1  0
  9 10  2  0
  9 11  1  0
 13 12  1  0
 14 13  1  0
 13 16  1  1
 14 15  2  0
 23 14  1  0
 16 17  1  0
 17 18  1  0
 18 19  1  0
 19 20  1  0
 20 21  1  0
 20 22  2  0
 24 23  1  0
 25 24  1  0
 24 27  1  1
 25 26  2  0
 34 25  1  0
 27 28  1  0
 28 29  1  0
 29 30  1  0
 30 31  1  0
 31 32  2  0
 31 33  1  0
 35 34  1  0
 36 35  1  0
 35 38  1  6
 36 37  2  0
 46 36  1  0
 38 39  1  0
 39 40  1  0
 40 41  1  0
 41 42  1  0
 42 43  2  0
 42 44  1  0
 45 47  2  0
 48 45  1  0
 45 54  1  0
 48 46  1  0
 48 49  1  1
 52 49  1  0
 50 51  1  0
 50 52  1  0
 51 53  1  0
 54 55  1  0
 55 56  1  0
 55 58  1  6
 56 57  2  0
 56 65  1  0
 58 59  1  0
 59 60  1  0
 60 61  1  0
 61 62  1  0
 62 63  2  0
 62 64  1  0
 65 66  1  0
 66 67  1  0
 67 68  2  0
 67 75  1  0
 68 69  1  0
 69 70  2  0
 70 71  1  0
 70 74  1  0
 71 72  1  0
 71 73  2  0
 74 75  2  0
 10 76  1  0
 22 77  1  0
 32 78  1  0
 43 79  1  0
 63 80  1  0
 73 81  1  0
M  CHG  2   1   1  53   1
M  END
$$$$
