
     RDKit          3D

 81 81  0  0  0  0  0  0  0  0999 V2000
   57.7330  -31.9002   -4.4704 N   0  0  0  0  0  4  0  0  0  0  0  0
   58.4693  -32.8022   -3.5254 C   0  0  2  0  0  0  0  0  0  0  0  0
   57.6589  -34.1177   -3.3632 C   0  0  0  0  0  0  0  0  0  0  0  0
   58.2494  -35.1683   -3.1407 O   0  0  0  0  0  0  0  0  0  0  0  0
   58.6287  -32.1086   -2.1730 C   0  0  0  0  0  0  0  0  0  0  0  0
   59.1933  -32.9727   -1.0500 C   0  0  0  0  0  0  0  0  0  0  0  0
   60.4044  -33.8145   -1.4726 C   0  0  0  0  0  0  0  0  0  0  0  0
   60.6493  -34.8428   -0.4740 N   0  0  0  0  0  0  0  0  0  0  0  0
   61.3615  -34.5681    0.6492 C   0  0  0  0  0  0  0  0  0  0  0  0
   61.8948  -33.4328    0.9188 N   0  0  0  0  0  0  0  0  0  0  0  0
   61.4476  -35.6500    1.4498 N   0  0  0  0  0  0  0  0  0  0  0  0
   56.2872  -34.0129   -3.4821 N   0  0  0  0  0  0  0  0  0  0  0  0
   55.4373  -35.0995   -2.9538 C   0  0  2  0  0  0  0  0  0  0  0  0
   53.9957  -34.6332   -3.2374 C   0  0  0  0  0  0  0  0  0  0  0  0
   53.0479  -35.3195   -2.8525 O   0  0  0  0  0  0  0  0  0  0  0  0
   55.5785  -35.2413   -1.4211 C   0  0  0  0  0  0  0  0  0  0  0  0
   54.7402  -36.3733   -0.8358 C   0  0  0  0  0  0  0  0  0  0  0  0
   55.5664  -37.3839   -0.0458 C   0  0  0  0  0  0  0  0  0  0  0  0
   56.6331  -36.7514    0.6994 N   0  0  0  0  0  0  0  0  0  0  0  0
   57.4918  -37.4795    1.4525 C   0  0  0  0  0  0  0  0  0  0  0  0
   58.3971  -36.7020    2.0896 N   0  0  0  0  0  0  0  0  0  0  0  0
   57.4654  -38.7581    1.5527 N   0  0  0  0  0  0  0  0  0  0  0  0
   53.8541  -33.5273   -4.0521 N   0  0  0  0  0  0  0  0  0  0  0  0
   53.2427  -33.7021   -5.3815 C   0  0  2  0  0  0  0  0  0  0  0  0
   52.2960  -34.9257   -5.4357 C   0  0  0  0  0  0  0  0  0  0  0  0
   52.5018  -35.9269   -4.7472 O   0  0  0  0  0  0  0  0  0  0  0  0
   54.3049  -33.9030   -6.4853 C   0  0  0  0  0  0  0  0  0  0  0  0
   55.1765  -32.6723   -6.7203 C   0  0  0  0  0  0  0  0  0  0  0  0
   56.0608  -32.8252   -7.9577 C   0  0  0  0  0  0  0  0  0  0  0  0
   57.0449  -33.8725   -7.7553 N   0  0  0  0  0  0  0  0  0  0  0  0
   57.9306  -33.8289   -6.7250 C   0  0  0  0  0  0  0  0  0  0  0  0
   58.6317  -32.7994   -6.4137 N   0  0  0  0  0  0  0  0  0  0  0  0
   57.9508  -35.0087   -6.0563 N   0  0  0  0  0  0  0  0  0  0  0  0
   51.1821  -34.7749   -6.2357 N   0  0  0  0  0  0  0  0  0  0  0  0
   49.9071  -35.3546   -5.8290 C   0  0  2  0  0  0  0  0  0  0  0  0
   48.8424  -35.0446   -6.9111 C   0  0  0  0  0  0  0  0  0  0  0  0
   47.8612  -34.3320   -6.7307 O   0  0  0  0  0  0  0  0  0  0  0  0
   49.4290  -34.8180   -4.4648 C   0  0  0  0  0  0  0  0  0  0  0  0
   48.4699  -33.6331   -4.5870 C   0  0  0  0  0  0  0  0  0  0  0  0
   47.9349  -33.1557   -3.2377 C   0  0  0  0  0  0  0  0  0  0  0  0
   46.5247  -33.4600   -3.0568 N   0  0  0  0  0  0  0  0  0  0  0  0
   45.9095  -33.2594   -1.8596 C   0  0  0  0  0  0  0  0  0  0  0  0
   46.4875  -32.8496   -0.7959 N   0  0  0  0  0  0  0  0  0  0  0  0
   44.6086  -33.6030   -1.9256 N   0  0  0  0  0  0  0  0  0  0  0  0
   46.6503  -36.1698   -8.8085 C   0  0  0  0  0  0  0  0  0  0  0  0
   49.0885  -35.6604   -8.1290 N   0  0  0  0  0  0  0  0  0  0  0  0
   46.0476  -35.8581   -7.7735 O   0  0  0  0  0  0  0  0  0  0  0  0
   48.1470  -36.6044   -8.7246 C   0  0  1  0  0  0  0  0  0  0  0  0
   48.2437  -38.0087   -8.0847 C   0  0  0  0  0  0  0  0  0  0  0  0
   49.6212  -40.1761   -7.9524 C   0  0  0  0  0  0  0  0  0  0  0  0
   50.8434  -40.9941   -8.3813 C   0  0  0  0  0  0  0  0  0  0  0  0
   49.4689  -38.7965   -8.5952 C   0  0  0  0  0  0  0  0  0  0  0  0
   51.0850  -42.1106   -7.4560 N   0  0  0  0  0  4  0  0  0  0  0  0
   46.0458  -36.2575  -10.0455 N   0  0  0  0  0  0  0  0  0  0  0  0
   45.1926  -37.3925  -10.4359 C   0  0  2  0  0  0  0  0  0  0  0  0
   45.0464  -37.6315  -11.9625 C   0  0  0  0  0  0  0  0  0  0  0  0
   44.5466  -38.6731  -12.3903 O   0  0  0  0  0  0  0  0  0  0  0  0
   43.7959  -37.4986   -9.7761 C   0  0  0  0  0  0  0  0  0  0  0  0
   42.9774  -38.7474  -10.1104 C   0  0  0  0  0  0  0  0  0  0  0  0
   42.5154  -39.4673   -8.8357 C   0  0  0  0  0  0  0  0  0  0  0  0
   43.2117  -40.7299   -8.7084 N   0  0  0  0  0  0  0  0  0  0  0  0
   43.5259  -41.3011   -7.5258 C   0  0  0  0  0  0  0  0  0  0  0  0
   44.3124  -42.3150   -7.4007 N   0  0  0  0  0  0  0  0  0  0  0  0
   43.0031  -40.6518   -6.4668 N   0  0  0  0  0  0  0  0  0  0  0  0
   45.3941  -36.5914  -12.8003 N   0  0  0  0  0  0  0  0  0  0  0  0
   46.1955  -36.8609  -13.9994 C   0  0  0  0  0  0  0  0  0  0  0  0
   47.3564  -35.9262  -14.2258 C   0  0  0  0  0  0  0  0  0  0  0  0
   48.5341  -36.0247  -13.4618 C   0  0  0  0  0  0  0  0  0  0  0  0
   49.6414  -35.2212  -13.7356 C   0  0  0  0  0  0  0  0  0  0  0  0
   49.5610  -34.2589  -14.7414 C   0  0  0  0  0  0  0  0  0  0  0  0
   50.7602  -33.4752  -15.1470 C   0  0  0  0  0  0  0  0  0  0  0  0
   50.7510  -32.6650  -16.2381 N   0  0  0  0  0  0  0  0  0  0  0  0
   51.8278  -33.5547  -14.3986 N   0  0  0  0  0  0  0  0  0  0  0  0
   48.3687  -34.0818  -15.4416 C   0  0  0  0  0  0  0  0  0  0  0  0
   47.2713  -34.9084  -15.1896 C   0  0  0  0  0  0  0  0  0  0  0  0
   61.3116  -32.6864    0.5361 H   0  0  0  0  0  0  0  0  0  0  0  0
   57.8376  -39.1842    0.7024 H   0  0  0  0  0  0  0  0  0  0  0  0
   58.5893  -32.1427   -7.2076 H   0  0  0  0  0  0  0  0  0  0  0  0
   47.4648  -32.6040   -0.9945 H   0  0  0  0  0  0  0  0  0  0  0  0
   44.5078  -42.4288   -6.3951 H   0  0  0  0  0  0  0  0  0  0  0  0
   51.6088  -34.1744  -13.6055 H   0  0  0  0  0  0  0  0  0  0  0  0
  2  1  1  6
  3  2  1  0
  2  5  1  0
  3  4  2  0
 12  3  1  0
  5  6  1  0
  6  7  1  0
  7  8  1  0
  8  9  1  0
  9 10  2  0
  9 11  1  0
 13 12  1  0
 14 13  1  0
 13 16  1  1
 14 15  2  0
 23 14  1  0
 16 17  1  0
 17 18  1  0
 18 19  1  0
 19 20  1  0
 20 21  1  0
 20 22  2  0
 24 23  1  0
 25 24  1  0
 24 27  1  6
 25 26  2  0
 34 25  1  0
 27 28  1  0
 28 29  1  0
 29 30  1  0
 30 31  1  0
 31 32  2  0
 31 33  1  0
 35 34  1  0
 36 35  1  0
 35 38  1  1
 36 37  2  0
 46 36  1  0
 38 39  1  0
 39 40  1  0
 40 41  1  0
 41 42  1  0
 42 43  2  0
 42 44  1  0
 45 47  2  0
 48 45  1  0
 45 54  1  0
 48 46  1  0
 48 49  1  1
 52 49  1  0
 50 51  1  0
 50 52  1  0
 51 53  1  0
 54 55  1  0
 55 56  1  0
 55 58  1  6
 56 57  2  0
 56 65  1  0
 58 59  1  0
 59 60  1  0
 60 61  1  0
 61 62  1  0
 62 63  2  0
 62 64  1  0
 65 66  1  0
 66 67  1  0
 67 68  2  0
 67 75  1  0
 68 69  1  0
 69 70  2  0
 70 71  1  0
 70 74  1  0
 71 72  1  0
 71 73  2  0
 74 75  2  0
 10 76  1  0
 22 77  1  0
 32 78  1  0
 43 79  1  0
 63 80  1  0
 73 81  1  0
M  CHG  2   1   1  53   1
M  END
$$$$
