
     RDKit          3D

 81 81  0  0  0  0  0  0  0  0999 V2000
   56.4763  -35.2127   -3.1888 N   0  0  0  0  0  4  0  0  0  0  0  0
   55.4247  -35.9652   -2.4296 C   0  0  2  0  0  0  0  0  0  0  0  0
   54.0279  -35.4580   -2.8826 C   0  0  0  0  0  0  0  0  0  0  0  0
   53.0590  -35.6188   -2.1495 O   0  0  0  0  0  0  0  0  0  0  0  0
   55.6106  -35.7350   -0.9302 C   0  0  0  0  0  0  0  0  0  0  0  0
   55.3686  -34.3090   -0.4459 C   0  0  0  0  0  0  0  0  0  0  0  0
   54.4346  -34.2231    0.7683 C   0  0  0  0  0  0  0  0  0  0  0  0
   55.1772  -33.7216    1.9137 N   0  0  0  0  0  0  0  0  0  0  0  0
   56.1766  -34.4531    2.4708 C   0  0  0  0  0  0  0  0  0  0  0  0
   56.9875  -35.2025    1.8175 N   0  0  0  0  0  0  0  0  0  0  0  0
   56.2056  -34.3000    3.8104 N   0  0  0  0  0  0  0  0  0  0  0  0
   53.9690  -34.8403   -4.1161 N   0  0  0  0  0  0  0  0  0  0  0  0
   52.7395  -34.1149   -4.4961 C   0  0  2  0  0  0  0  0  0  0  0  0
   53.0100  -33.6245   -5.9322 C   0  0  0  0  0  0  0  0  0  0  0  0
   52.2747  -32.7720   -6.4322 O   0  0  0  0  0  0  0  0  0  0  0  0
   52.5217  -32.8612   -3.6185 C   0  0  0  0  0  0  0  0  0  0  0  0
   51.1677  -32.8389   -2.9164 C   0  0  0  0  0  0  0  0  0  0  0  0
   50.8320  -31.4817   -2.3053 C   0  0  0  0  0  0  0  0  0  0  0  0
   50.2342  -31.6080   -0.9938 N   0  0  0  0  0  0  0  0  0  0  0  0
   50.9980  -31.7493    0.1159 C   0  0  0  0  0  0  0  0  0  0  0  0
   50.2521  -31.8326    1.2414 N   0  0  0  0  0  0  0  0  0  0  0  0
   52.2800  -31.7926    0.1145 N   0  0  0  0  0  0  0  0  0  0  0  0
   53.9910  -34.2929   -6.6377 N   0  0  0  0  0  0  0  0  0  0  0  0
   54.1022  -34.0589   -8.0885 C   0  0  2  0  0  0  0  0  0  0  0  0
   52.8489  -34.5411   -8.8584 C   0  0  0  0  0  0  0  0  0  0  0  0
   52.6383  -34.1945  -10.0222 O   0  0  0  0  0  0  0  0  0  0  0  0
   55.3181  -34.7892   -8.7011 C   0  0  0  0  0  0  0  0  0  0  0  0
   56.2270  -33.8749   -9.5181 C   0  0  0  0  0  0  0  0  0  0  0  0
   55.6844  -32.4478   -9.5936 C   0  0  0  0  0  0  0  0  0  0  0  0
   56.7500  -31.4851   -9.3836 N   0  0  0  0  0  0  0  0  0  0  0  0
   56.6349  -30.1938   -9.7927 C   0  0  0  0  0  0  0  0  0  0  0  0
   55.6090  -29.7123  -10.3958 N   0  0  0  0  0  0  0  0  0  0  0  0
   57.7368  -29.4802   -9.4521 N   0  0  0  0  0  0  0  0  0  0  0  0
   52.0485  -35.4375   -8.1805 N   0  0  0  0  0  0  0  0  0  0  0  0
   51.1002  -36.2688   -8.9131 C   0  0  2  0  0  0  0  0  0  0  0  0
   49.7643  -35.4988   -9.0645 C   0  0  0  0  0  0  0  0  0  0  0  0
   49.6238  -34.3050   -8.8233 O   0  0  0  0  0  0  0  0  0  0  0  0
   50.8425  -37.6183   -8.2129 C   0  0  0  0  0  0  0  0  0  0  0  0
   52.0285  -38.0969   -7.3743 C   0  0  0  0  0  0  0  0  0  0  0  0
   52.1544  -37.3598   -6.0418 C   0  0  0  0  0  0  0  0  0  0  0  0
   52.9851  -38.0733   -5.0853 N   0  0  0  0  0  0  0  0  0  0  0  0
   52.8833  -37.8346   -3.7494 C   0  0  0  0  0  0  0  0  0  0  0  0
   51.7933  -37.5948   -3.1266 N   0  0  0  0  0  0  0  0  0  0  0  0
   54.0991  -37.8305   -3.1693 N   0  0  0  0  0  0  0  0  0  0  0  0
   46.4246  -36.4969  -10.6798 C   0  0  0  0  0  0  0  0  0  0  0  0
   48.7102  -36.2894   -9.4969 N   0  0  0  0  0  0  0  0  0  0  0  0
   45.6326  -36.0923  -11.5404 O   0  0  0  0  0  0  0  0  0  0  0  0
   47.8698  -35.9096  -10.6291 C   0  0  1  0  0  0  0  0  0  0  0  0
   48.5737  -36.1473  -11.9851 C   0  0  0  0  0  0  0  0  0  0  0  0
   49.2708  -34.3903  -13.7285 C   0  0  0  0  0  0  0  0  0  0  0  0
   49.4326  -32.8714  -13.8448 C   0  0  0  0  0  0  0  0  0  0  0  0
   49.5360  -34.9969  -12.3497 C   0  0  0  0  0  0  0  0  0  0  0  0
   50.1225  -32.5057  -15.0904 N   0  0  0  0  0  4  0  0  0  0  0  0
   46.0762  -37.3783   -9.6774 N   0  0  0  0  0  0  0  0  0  0  0  0
   45.2593  -38.5790   -9.9214 C   0  0  2  0  0  0  0  0  0  0  0  0
   45.0108  -39.4869   -8.6874 C   0  0  0  0  0  0  0  0  0  0  0  0
   45.9480  -40.0623   -8.1320 O   0  0  0  0  0  0  0  0  0  0  0  0
   45.6380  -39.4692  -11.1303 C   0  0  0  0  0  0  0  0  0  0  0  0
   44.5381  -39.7177  -12.1647 C   0  0  0  0  0  0  0  0  0  0  0  0
   43.6982  -40.9493  -11.7986 C   0  0  0  0  0  0  0  0  0  0  0  0
   42.4524  -40.9271  -12.5352 N   0  0  0  0  0  0  0  0  0  0  0  0
   41.2419  -41.1374  -11.9748 C   0  0  0  0  0  0  0  0  0  0  0  0
   41.0389  -41.2152  -10.7040 N   0  0  0  0  0  0  0  0  0  0  0  0
   40.2390  -41.1728  -12.8745 N   0  0  0  0  0  0  0  0  0  0  0  0
   43.7271  -39.5284   -8.1826 N   0  0  0  0  0  0  0  0  0  0  0  0
   43.4529  -40.2842   -6.9552 C   0  0  0  0  0  0  0  0  0  0  0  0
   43.8475  -39.5995   -5.6715 C   0  0  0  0  0  0  0  0  0  0  0  0
   42.8872  -38.9899   -4.8428 C   0  0  0  0  0  0  0  0  0  0  0  0
   43.2420  -38.4396   -3.6108 C   0  0  0  0  0  0  0  0  0  0  0  0
   44.5804  -38.4350   -3.2194 C   0  0  0  0  0  0  0  0  0  0  0  0
   44.9774  -37.9754   -1.8601 C   0  0  0  0  0  0  0  0  0  0  0  0
   46.2617  -38.0573   -1.4230 N   0  0  0  0  0  0  0  0  0  0  0  0
   44.0577  -37.4483   -1.0968 N   0  0  0  0  0  0  0  0  0  0  0  0
   45.5568  -38.9466   -4.0725 C   0  0  0  0  0  0  0  0  0  0  0  0
   45.1974  -39.5270   -5.2911 C   0  0  0  0  0  0  0  0  0  0  0  0
   56.9438  -34.9628    0.8253 H   0  0  0  0  0  0  0  0  0  0  0  0
   52.6094  -32.4512    0.8222 H   0  0  0  0  0  0  0  0  0  0  0  0
   55.5418  -28.7139  -10.1465 H   0  0  0  0  0  0  0  0  0  0  0  0
   51.1413  -37.0851   -3.7347 H   0  0  0  0  0  0  0  0  0  0  0  0
   40.0298  -41.3710  -10.5640 H   0  0  0  0  0  0  0  0  0  0  0  0
   43.1503  -37.8441   -1.3811 H   0  0  0  0  0  0  0  0  0  0  0  0
  2  1  1  6
  3  2  1  0
  2  5  1  0
  3  4  2  0
 12  3  1  0
  5  6  1  0
  6  7  1  0
  7  8  1  0
  8  9  1  0
  9 10  2  0
  9 11  1  0
 13 12  1  0
 14 13  1  0
 13 16  1  1
 14 15  2  0
 23 14  1  0
 16 17  1  0
 17 18  1  0
 18 19  1  0
 19 20  1  0
 20 21  1  0
 20 22  2  0
 24 23  1  0
 25 24  1  0
 24 27  1  6
 25 26  2  0
 34 25  1  0
 27 28  1  0
 28 29  1  0
 29 30  1  0
 30 31  1  0
 31 32  2  0
 31 33  1  0
 35 34  1  0
 36 35  1  0
 35 38  1  1
 36 37  2  0
 46 36  1  0
 38 39  1  0
 39 40  1  0
 40 41  1  0
 41 42  1  0
 42 43  2  0
 42 44  1  0
 45 47  2  0
 48 45  1  0
 45 54  1  0
 48 46  1  0
 48 49  1  6
 52 49  1  0
 50 51  1  0
 50 52  1  0
 51 53  1  0
 54 55  1  0
 55 56  1  0
 55 58  1  6
 56 57  2  0
 56 65  1  0
 58 59  1  0
 59 60  1  0
 60 61  1  0
 61 62  1  0
 62 63  2  0
 62 64  1  0
 65 66  1  0
 66 67  1  0
 67 68  2  0
 67 75  1  0
 68 69  1  0
 69 70  2  0
 70 71  1  0
 70 74  1  0
 71 72  1  0
 71 73  2  0
 74 75  2  0
 10 76  1  0
 22 77  1  0
 32 78  1  0
 43 79  1  0
 63 80  1  0
 73 81  1  0
M  CHG  2   1   1  53   1
M  END
$$$$
