
     RDKit          3D

 81 81  0  0  0  0  0  0  0  0999 V2000
   57.1730  -30.9158   -3.0338 N   0  0  0  0  0  4  0  0  0  0  0  0
   57.5993  -32.2007   -3.6785 C   0  0  2  0  0  0  0  0  0  0  0  0
   56.3422  -33.0871   -3.8960 C   0  0  0  0  0  0  0  0  0  0  0  0
   56.4404  -34.1306   -4.5313 O   0  0  0  0  0  0  0  0  0  0  0  0
   58.6036  -32.9185   -2.7775 C   0  0  0  0  0  0  0  0  0  0  0  0
   58.3688  -34.4136   -2.5864 C   0  0  0  0  0  0  0  0  0  0  0  0
   59.3270  -35.0618   -1.5787 C   0  0  0  0  0  0  0  0  0  0  0  0
   58.5617  -35.8370   -0.6153 N   0  0  0  0  0  0  0  0  0  0  0  0
   58.1635  -37.1039   -0.8989 C   0  0  0  0  0  0  0  0  0  0  0  0
   58.5325  -37.7744   -1.9286 N   0  0  0  0  0  0  0  0  0  0  0  0
   57.3162  -37.5714    0.0403 N   0  0  0  0  0  0  0  0  0  0  0  0
   55.1636  -32.6285   -3.3417 N   0  0  0  0  0  0  0  0  0  0  0  0
   53.9110  -33.3630   -3.6126 C   0  0  2  0  0  0  0  0  0  0  0  0
   53.2906  -32.6338   -4.8207 C   0  0  0  0  0  0  0  0  0  0  0  0
   53.2169  -31.4042   -4.8165 O   0  0  0  0  0  0  0  0  0  0  0  0
   52.9108  -33.2383   -2.4407 C   0  0  0  0  0  0  0  0  0  0  0  0
   53.2802  -34.0937   -1.2330 C   0  0  0  0  0  0  0  0  0  0  0  0
   52.3407  -33.8939   -0.0474 C   0  0  0  0  0  0  0  0  0  0  0  0
   51.7265  -35.1337    0.3755 N   0  0  0  0  0  0  0  0  0  0  0  0
   50.9311  -35.1861    1.4706 C   0  0  0  0  0  0  0  0  0  0  0  0
   50.2972  -36.3757    1.5843 N   0  0  0  0  0  0  0  0  0  0  0  0
   50.7814  -34.2244    2.3061 N   0  0  0  0  0  0  0  0  0  0  0  0
   52.7086  -33.4285   -5.7885 N   0  0  0  0  0  0  0  0  0  0  0  0
   51.9992  -32.7784   -6.9046 C   0  0  2  0  0  0  0  0  0  0  0  0
   51.2651  -33.7992   -7.8075 C   0  0  0  0  0  0  0  0  0  0  0  0
   50.4851  -33.4320   -8.6882 O   0  0  0  0  0  0  0  0  0  0  0  0
   52.9593  -31.9791   -7.8136 C   0  0  0  0  0  0  0  0  0  0  0  0
   54.0520  -32.8371   -8.4457 C   0  0  0  0  0  0  0  0  0  0  0  0
   54.9055  -32.0408   -9.4327 C   0  0  0  0  0  0  0  0  0  0  0  0
   55.9113  -32.8926  -10.0403 N   0  0  0  0  0  0  0  0  0  0  0  0
   57.0104  -33.3005   -9.3521 C   0  0  0  0  0  0  0  0  0  0  0  0
   57.7881  -34.2517   -9.7245 N   0  0  0  0  0  0  0  0  0  0  0  0
   57.1876  -32.5486   -8.2374 N   0  0  0  0  0  0  0  0  0  0  0  0
   51.6109  -35.1198   -7.6073 N   0  0  0  0  0  0  0  0  0  0  0  0
   50.5729  -36.1232   -7.4005 C   0  0  2  0  0  0  0  0  0  0  0  0
   49.2691  -35.6523   -8.0924 C   0  0  0  0  0  0  0  0  0  0  0  0
   48.1854  -35.5508   -7.5283 O   0  0  0  0  0  0  0  0  0  0  0  0
   50.2998  -36.3829   -5.9052 C   0  0  0  0  0  0  0  0  0  0  0  0
   51.4529  -35.9493   -4.9990 C   0  0  0  0  0  0  0  0  0  0  0  0
   52.2128  -37.1285   -4.3932 C   0  0  0  0  0  0  0  0  0  0  0  0
   53.3125  -36.7056   -3.5412 N   0  0  0  0  0  0  0  0  0  0  0  0
   54.0940  -37.6152   -2.8978 C   0  0  0  0  0  0  0  0  0  0  0  0
   55.0683  -37.3287   -2.1219 N   0  0  0  0  0  0  0  0  0  0  0  0
   53.7389  -38.8718   -3.2292 N   0  0  0  0  0  0  0  0  0  0  0  0
   47.2493  -35.9201  -10.7051 C   0  0  0  0  0  0  0  0  0  0  0  0
   49.4269  -35.3559   -9.4380 N   0  0  0  0  0  0  0  0  0  0  0  0
   46.5080  -35.6631  -11.6623 O   0  0  0  0  0  0  0  0  0  0  0  0
   48.3204  -34.8754  -10.2609 C   0  0  1  0  0  0  0  0  0  0  0  0
   48.8108  -34.0801  -11.4929 C   0  0  0  0  0  0  0  0  0  0  0  0
   48.0953  -32.5700  -13.4475 C   0  0  0  0  0  0  0  0  0  0  0  0
   49.0465  -33.2260  -14.4532 C   0  0  0  0  0  0  0  0  0  0  0  0
   47.6431  -33.4409  -12.2741 C   0  0  0  0  0  0  0  0  0  0  0  0
   49.2811  -32.3498  -15.6101 N   0  0  0  0  0  4  0  0  0  0  0  0
   47.1217  -37.0502   -9.9242 N   0  0  0  0  0  0  0  0  0  0  0  0
   46.4529  -38.2738  -10.3977 C   0  0  2  0  0  0  0  0  0  0  0  0
   46.5566  -39.5048   -9.4581 C   0  0  0  0  0  0  0  0  0  0  0  0
   47.5815  -40.1880   -9.4287 O   0  0  0  0  0  0  0  0  0  0  0  0
   46.7352  -38.7274  -11.8510 C   0  0  0  0  0  0  0  0  0  0  0  0
   45.5749  -39.3919  -12.5950 C   0  0  0  0  0  0  0  0  0  0  0  0
   45.9791  -39.7775  -14.0248 C   0  0  0  0  0  0  0  0  0  0  0  0
   45.6582  -38.6955  -14.9313 N   0  0  0  0  0  0  0  0  0  0  0  0
   44.4602  -38.0735  -14.9679 C   0  0  0  0  0  0  0  0  0  0  0  0
   43.3937  -38.5284  -14.4041 N   0  0  0  0  0  0  0  0  0  0  0  0
   44.5025  -36.8750  -15.5829 N   0  0  0  0  0  0  0  0  0  0  0  0
   45.5065  -39.7269   -8.5907 N   0  0  0  0  0  0  0  0  0  0  0  0
   45.1260  -38.6864   -7.6287 C   0  0  0  0  0  0  0  0  0  0  0  0
   44.2097  -39.1348   -6.5188 C   0  0  0  0  0  0  0  0  0  0  0  0
   43.9439  -38.3083   -5.4112 C   0  0  0  0  0  0  0  0  0  0  0  0
   43.0236  -38.6861   -4.4331 C   0  0  0  0  0  0  0  0  0  0  0  0
   42.4020  -39.9314   -4.5179 C   0  0  0  0  0  0  0  0  0  0  0  0
   41.3221  -40.3129   -3.5667 C   0  0  0  0  0  0  0  0  0  0  0  0
   40.7022  -41.5206   -3.6336 N   0  0  0  0  0  0  0  0  0  0  0  0
   41.0027  -39.4634   -2.6271 N   0  0  0  0  0  0  0  0  0  0  0  0
   42.7278  -40.8027   -5.5560 C   0  0  0  0  0  0  0  0  0  0  0  0
   43.6245  -40.4109   -6.5528 C   0  0  0  0  0  0  0  0  0  0  0  0
   59.5522  -37.8343   -1.9448 H   0  0  0  0  0  0  0  0  0  0  0  0
   51.1023  -33.3474    1.8926 H   0  0  0  0  0  0  0  0  0  0  0  0
   57.3991  -34.6496  -10.5927 H   0  0  0  0  0  0  0  0  0  0  0  0
   55.0734  -36.3229   -1.9142 H   0  0  0  0  0  0  0  0  0  0  0  0
   43.6904  -39.2235  -13.7033 H   0  0  0  0  0  0  0  0  0  0  0  0
   41.2270  -38.5184   -2.9700 H   0  0  0  0  0  0  0  0  0  0  0  0
  2  1  1  1
  3  2  1  0
  2  5  1  0
  3  4  2  0
 12  3  1  0
  5  6  1  0
  6  7  1  0
  7  8  1  0
  8  9  1  0
  9 10  2  0
  9 11  1  0
 13 12  1  0
 14 13  1  0
 13 16  1  1
 14 15  2  0
 23 14  1  0
 16 17  1  0
 17 18  1  0
 18 19  1  0
 19 20  1  0
 20 21  1  0
 20 22  2  0
 24 23  1  0
 25 24  1  0
 24 27  1  6
 25 26  2  0
 34 25  1  0
 27 28  1  0
 28 29  1  0
 29 30  1  0
 30 31  1  0
 31 32  2  0
 31 33  1  0
 35 34  1  0
 36 35  1  0
 35 38  1  1
 36 37  2  0
 46 36  1  0
 38 39  1  0
 39 40  1  0
 40 41  1  0
 41 42  1  0
 42 43  2  0
 42 44  1  0
 45 47  2  0
 48 45  1  0
 45 54  1  0
 48 46  1  0
 48 49  1  6
 52 49  1  0
 50 51  1  0
 50 52  1  0
 51 53  1  0
 54 55  1  0
 55 56  1  0
 55 58  1  6
 56 57  2  0
 56 65  1  0
 58 59  1  0
 59 60  1  0
 60 61  1  0
 61 62  1  0
 62 63  2  0
 62 64  1  0
 65 66  1  0
 66 67  1  0
 67 68  2  0
 67 75  1  0
 68 69  1  0
 69 70  2  0
 70 71  1  0
 70 74  1  0
 71 72  1  0
 71 73  2  0
 74 75  2  0
 10 76  1  0
 22 77  1  0
 32 78  1  0
 43 79  1  0
 63 80  1  0
 73 81  1  0
M  CHG  2   1   1  53   1
M  END
$$$$
