
     RDKit          3D

 23 25  0  0  0  0  0  0  0  0999 V2000
   27.1999   42.2501   39.2669 O   0  0  0  0  0  0  0  0  0  0  0  0
   27.3782   43.6225   39.1557 C   0  0  0  0  0  0  0  0  0  0  0  0
   27.7885   44.2520   40.4429 C   0  0  0  0  0  0  0  0  0  0  0  0
   27.9482   43.5179   41.5991 C   0  0  0  0  0  0  0  0  0  0  0  0
   28.3290   44.0998   42.7955 C   0  0  0  0  0  0  0  0  0  0  0  0
   28.5664   45.4564   42.8758 C   0  0  0  0  0  0  0  0  0  0  0  0
   28.9687   46.0782   44.1316 C   0  0  0  0  0  0  0  0  0  0  0  0
   29.0663   47.4380   44.3165 C   0  0  0  0  0  0  0  0  0  0  0  0
   29.4491   48.0004   45.5166 C   0  0  0  0  0  0  0  0  0  0  0  0
   29.5203   49.4605   45.6185 C   0  0  1  0  0  0  0  0  0  0  0  0
   28.2221   50.1447   45.7496 C   0  0  0  0  0  0  0  0  0  0  0  0
   27.3402   50.2901   44.6166 N   0  0  0  0  0  0  0  0  0  0  0  0
   27.8824   50.6324   46.8883 N   0  0  0  0  0  4  0  0  0  0  0  0
   30.5093   49.9955   46.6322 C   0  0  0  0  0  0  0  0  0  0  0  0
   31.5536   49.9601   45.5591 C   0  0  0  0  0  0  0  0  0  0  0  0
   30.3920   50.0811   44.5529 C   0  0  0  0  0  0  0  0  0  0  0  0
   29.7377   47.1432   46.5490 C   0  0  0  0  0  0  0  0  0  0  0  0
   29.6549   45.7680   46.4132 C   0  0  0  0  0  0  0  0  0  0  0  0
   30.0344   44.7132   47.7619 Cl  0  0  0  0  0  0  0  0  0  0  0  0
   29.2675   45.2568   45.1932 C   0  0  0  0  0  0  0  0  0  0  0  0
   28.4073   46.1939   41.7206 C   0  0  0  0  0  0  0  0  0  0  0  0
   28.0244   45.6082   40.5186 C   0  0  0  0  0  0  0  0  0  0  0  0
   27.8317   46.5673   39.0727 Cl  0  0  0  0  0  0  0  0  0  0  0  0
  2  1  1  6
  2  3  1  0
  3 22  2  0
  3  4  1  0
  4  5  2  0
  5  6  1  0
  6  7  1  0
  6 21  2  0
  7 20  1  0
  7  8  2  0
  8  9  1  0
 10  9  1  6
  9 17  2  0
 10 16  1  0
 10 11  1  0
 14 10  1  6
 11 12  1  0
 11 13  2  3
 15 14  1  6
 16 15  1  1
 17 18  1  0
 18 19  1  0
 18 20  2  0
 21 22  1  0
 22 23  1  0
M  CHG  1  13   1
M  END
$$$$
