
     RDKit          3D

 23 25  0  0  0  0  0  0  0  0999 V2000
   34.9089   23.3139   48.0498 O   0  0  0  0  0  0  0  0  0  0  0  0
   34.7997   24.6813   48.2639 C   0  0  0  0  0  0  0  0  0  0  0  0
   33.9588   25.0091   49.4500 C   0  0  0  0  0  0  0  0  0  0  0  0
   33.7976   24.1292   50.4993 C   0  0  0  0  0  0  0  0  0  0  0  0
   33.0174   24.4310   51.6016 C   0  0  0  0  0  0  0  0  0  0  0  0
   32.3626   25.6419   51.6921 C   0  0  0  0  0  0  0  0  0  0  0  0
   31.5392   25.9689   52.8498 C   0  0  0  0  0  0  0  0  0  0  0  0
   31.3998   25.1502   53.9467 C   0  0  0  0  0  0  0  0  0  0  0  0
   30.6140   25.4848   55.0301 C   0  0  0  0  0  0  0  0  0  0  0  0
   30.5308   24.5490   56.1547 C   0  0  1  0  0  0  0  0  0  0  0  0
   29.5341   23.4744   56.0047 C   0  0  0  0  0  0  0  0  0  0  0  0
   28.1432   23.7777   55.7678 N   0  0  0  0  0  0  0  0  0  0  0  0
   29.9114   22.2507   56.1043 N   0  0  0  0  0  4  0  0  0  0  0  0
   31.8523   23.9869   56.6338 C   0  0  0  0  0  0  0  0  0  0  0  0
   31.9672   25.1679   57.5478 C   0  0  0  0  0  0  0  0  0  0  0  0
   30.4287   25.2453   57.4908 C   0  0  0  0  0  0  0  0  0  0  0  0
   29.9574   26.6891   54.9825 C   0  0  0  0  0  0  0  0  0  0  0  0
   30.0650   27.5477   53.9019 C   0  0  0  0  0  0  0  0  0  0  0  0
   29.2058   29.0765   53.8872 Cl  0  0  0  0  0  0  0  0  0  0  0  0
   30.8630   27.1663   52.8448 C   0  0  0  0  0  0  0  0  0  0  0  0
   32.5217   26.5245   50.6436 C   0  0  0  0  0  0  0  0  0  0  0  0
   33.3061   26.2203   49.5360 C   0  0  0  0  0  0  0  0  0  0  0  0
   33.4891   27.3581   48.2246 Cl  0  0  0  0  0  0  0  0  0  0  0  0
  2  1  1  6
  2  3  1  0
  3 22  2  0
  3  4  1  0
  4  5  2  0
  5  6  1  0
  6  7  1  0
  6 21  2  0
  7 20  1  0
  7  8  2  0
  8  9  1  0
 10  9  1  6
  9 17  2  0
 10 16  1  0
 10 11  1  0
 14 10  1  6
 11 12  1  0
 11 13  2  3
 15 14  1  6
 16 15  1  1
 17 18  1  0
 18 19  1  0
 18 20  2  0
 21 22  1  0
 22 23  1  0
M  CHG  1  13   1
M  END
$$$$
