
     RDKit          3D

 23 25  0  0  0  0  0  0  0  0999 V2000
   29.3403   33.1988   72.0263 O   0  0  0  0  0  0  0  0  0  0  0  0
   29.9284   33.2558   70.7700 C   0  0  0  0  0  0  0  0  0  0  0  0
   29.5014   34.4535   69.9924 C   0  0  0  0  0  0  0  0  0  0  0  0
   29.4848   35.7171   70.5440 C   0  0  0  0  0  0  0  0  0  0  0  0
   29.0888   36.8308   69.8243 C   0  0  0  0  0  0  0  0  0  0  0  0
   28.6902   36.7152   68.5087 C   0  0  0  0  0  0  0  0  0  0  0  0
   28.2721   37.8829   67.7424 C   0  0  0  0  0  0  0  0  0  0  0  0
   29.1072   38.9284   67.4223 C   0  0  0  0  0  0  0  0  0  0  0  0
   28.6854   40.0219   66.6947 C   0  0  0  0  0  0  0  0  0  0  0  0
   29.6498   41.0851   66.3994 C   0  0  1  0  0  0  0  0  0  0  0  0
   29.9070   42.0240   67.5052 C   0  0  0  0  0  0  0  0  0  0  0  0
   28.8310   42.7673   68.1154 N   0  0  0  0  0  0  0  0  0  0  0  0
   31.1118   42.1927   67.9173 N   0  0  0  0  0  4  0  0  0  0  0  0
   30.9508   40.6293   65.7738 C   0  0  0  0  0  0  0  0  0  0  0  0
   30.2978   40.7677   64.4331 C   0  0  0  0  0  0  0  0  0  0  0  0
   29.3603   41.7948   65.0983 C   0  0  0  0  0  0  0  0  0  0  0  0
   27.3747   40.0388   66.2878 C   0  0  0  0  0  0  0  0  0  0  0  0
   26.4951   39.0118   66.5845 C   0  0  0  0  0  0  0  0  0  0  0  0
   24.8286   39.0790   66.0427 Cl  0  0  0  0  0  0  0  0  0  0  0  0
   26.9666   37.9418   67.3143 C   0  0  0  0  0  0  0  0  0  0  0  0
   28.7055   35.4521   67.9538 C   0  0  0  0  0  0  0  0  0  0  0  0
   29.1037   34.3333   68.6779 C   0  0  0  0  0  0  0  0  0  0  0  0
   29.1131   32.7472   67.9484 Cl  0  0  0  0  0  0  0  0  0  0  0  0
  2  1  1  6
  2  3  1  0
  3 22  2  0
  3  4  1  0
  4  5  2  0
  5  6  1  0
  6  7  1  0
  6 21  2  0
  7 20  1  0
  7  8  2  0
  8  9  1  0
 10  9  1  1
  9 17  2  0
 10 16  1  0
 10 11  1  0
 14 10  1  6
 11 12  1  0
 11 13  2  3
 15 14  1  6
 16 15  1  1
 17 18  1  0
 18 19  1  0
 18 20  2  0
 21 22  1  0
 22 23  1  0
M  CHG  1  13   1
M  END
$$$$
