
     RDKit          3D

 23 25  0  0  0  0  0  0  0  0999 V2000
   18.7828   41.2692   62.6653 O   0  0  0  0  0  0  0  0  0  0  0  0
   18.4447   41.6329   63.9618 C   0  0  0  0  0  0  0  0  0  0  0  0
   17.0216   42.0589   64.0837 C   0  0  0  0  0  0  0  0  0  0  0  0
   16.1921   42.1642   62.9873 C   0  0  0  0  0  0  0  0  0  0  0  0
   14.8706   42.5595   63.0976 C   0  0  0  0  0  0  0  0  0  0  0  0
   14.3268   42.8671   64.3276 C   0  0  0  0  0  0  0  0  0  0  0  0
   12.9354   43.2836   64.4537 C   0  0  0  0  0  0  0  0  0  0  0  0
   12.2312   43.9155   63.4548 C   0  0  0  0  0  0  0  0  0  0  0  0
   10.9140   44.2986   63.6006 C   0  0  0  0  0  0  0  0  0  0  0  0
   10.2460   44.9627   62.4780 C   0  0  1  0  0  0  0  0  0  0  0  0
    9.9985   46.4038   62.6585 C   0  0  0  0  0  0  0  0  0  0  0  0
    9.1387   46.8844   63.7132 N   0  0  0  0  0  0  0  0  0  0  0  0
   10.5453   47.2400   61.8514 N   0  0  0  0  0  4  0  0  0  0  0  0
   10.8410   44.6912   61.1127 C   0  0  0  0  0  0  0  0  0  0  0  0
    9.9457   43.4945   61.0147 C   0  0  0  0  0  0  0  0  0  0  0  0
    9.0170   44.2231   62.0061 C   0  0  0  0  0  0  0  0  0  0  0  0
   10.3088   44.0248   64.8017 C   0  0  0  0  0  0  0  0  0  0  0  0
   10.9741   43.3916   65.8375 C   0  0  0  0  0  0  0  0  0  0  0  0
   10.1580   43.0637   67.3547 Cl  0  0  0  0  0  0  0  0  0  0  0  0
   12.2894   43.0293   65.6408 C   0  0  0  0  0  0  0  0  0  0  0  0
   15.1542   42.7628   65.4267 C   0  0  0  0  0  0  0  0  0  0  0  0
   16.4825   42.3655   65.3149 C   0  0  0  0  0  0  0  0  0  0  0  0
   17.5054   42.2422   66.7242 Cl  0  0  0  0  0  0  0  0  0  0  0  0
  2  1  1  6
  2  3  1  0
  3 22  2  0
  3  4  1  0
  4  5  2  0
  5  6  1  0
  6  7  1  0
  6 21  2  0
  7 20  1  0
  7  8  2  0
  8  9  1  0
 10  9  1  1
  9 17  2  0
 10 16  1  0
 10 11  1  0
 14 10  1  6
 11 12  1  0
 11 13  2  3
 15 14  1  6
 16 15  1  1
 17 18  1  0
 18 19  1  0
 18 20  2  0
 21 22  1  0
 22 23  1  0
M  CHG  1  13   1
M  END
$$$$
