
     RDKit          3D

 23 25  0  0  0  0  0  0  0  0999 V2000
   21.9502   48.3150   47.2096 O   0  0  0  0  0  0  0  0  0  0  0  0
   22.7726   48.7148   48.2542 C   0  0  0  0  0  0  0  0  0  0  0  0
   24.2196   48.5419   47.9413 C   0  0  0  0  0  0  0  0  0  0  0  0
   24.7165   48.6974   46.6645 C   0  0  0  0  0  0  0  0  0  0  0  0
   26.0594   48.5374   46.3712 C   0  0  0  0  0  0  0  0  0  0  0  0
   26.9635   48.2117   47.3610 C   0  0  0  0  0  0  0  0  0  0  0  0
   28.3801   48.0419   47.0616 C   0  0  0  0  0  0  0  0  0  0  0  0
   29.1229   48.9430   46.3341 C   0  0  0  0  0  0  0  0  0  0  0  0
   30.4634   48.7579   46.0658 C   0  0  0  0  0  0  0  0  0  0  0  0
   31.1718   49.7759   45.2853 C   0  0  1  0  0  0  0  0  0  0  0  0
   31.5653   49.3639   43.9266 C   0  0  0  0  0  0  0  0  0  0  0  0
   30.5723   49.0776   42.9193 N   0  0  0  0  0  0  0  0  0  0  0  0
   32.8125   49.2426   43.6445 N   0  0  0  0  0  4  0  0  0  0  0  0
   30.5257   51.1448   45.2608 C   0  0  0  0  0  0  0  0  0  0  0  0
   31.2952   51.4761   46.5024 C   0  0  0  0  0  0  0  0  0  0  0  0
   32.3114   50.4105   46.0461 C   0  0  0  0  0  0  0  0  0  0  0  0
   31.0517   47.6196   46.5577 C   0  0  0  0  0  0  0  0  0  0  0  0
   30.3477   46.6827   47.2947 C   0  0  0  0  0  0  0  0  0  0  0  0
   31.1437   45.2428   47.9017 Cl  0  0  0  0  0  0  0  0  0  0  0  0
   29.0105   46.9150   47.5349 C   0  0  0  0  0  0  0  0  0  0  0  0
   26.4694   48.0552   48.6396 C   0  0  0  0  0  0  0  0  0  0  0  0
   25.1195   48.2162   48.9335 C   0  0  0  0  0  0  0  0  0  0  0  0
   24.5237   48.0123   50.5618 Cl  0  0  0  0  0  0  0  0  0  0  0  0
  2  1  1  6
  2  3  1  0
  3 22  2  0
  3  4  1  0
  4  5  2  0
  5  6  1  0
  6  7  1  0
  6 21  2  0
  7 20  1  0
  7  8  2  0
  8  9  1  0
 10  9  1  1
  9 17  2  0
 10 16  1  0
 10 11  1  0
 14 10  1  6
 11 12  1  0
 11 13  2  3
 15 14  1  6
 16 15  1  1
 17 18  1  0
 18 19  1  0
 18 20  2  0
 21 22  1  0
 22 23  1  0
M  CHG  1  13   1
M  END
$$$$
