
     RDKit          3D

 23 25  0  0  0  0  0  0  0  0999 V2000
   18.5018   47.5072   49.8353 O   0  0  0  0  0  0  0  0  0  0  0  0
   17.6908   46.5494   49.2414 C   0  0  0  0  0  0  0  0  0  0  0  0
   17.1947   45.5364   50.2157 C   0  0  0  0  0  0  0  0  0  0  0  0
   18.0524   44.7451   50.9502 C   0  0  0  0  0  0  0  0  0  0  0  0
   17.5945   43.8038   51.8553 C   0  0  0  0  0  0  0  0  0  0  0  0
   16.2424   43.6203   52.0586 C   0  0  0  0  0  0  0  0  0  0  0  0
   15.7507   42.6317   53.0106 C   0  0  0  0  0  0  0  0  0  0  0  0
   14.5806   41.9265   52.8473 C   0  0  0  0  0  0  0  0  0  0  0  0
   14.1386   40.9954   53.7642 C   0  0  0  0  0  0  0  0  0  0  0  0
   12.8807   40.2912   53.5012 C   0  0  1  0  0  0  0  0  0  0  0  0
   11.6926   40.8613   54.1598 C   0  0  0  0  0  0  0  0  0  0  0  0
   11.4165   42.2766   54.1003 N   0  0  0  0  0  0  0  0  0  0  0  0
   10.9026   40.0848   54.8100 N   0  0  0  0  0  4  0  0  0  0  0  0
   12.5920   39.9948   52.0449 C   0  0  0  0  0  0  0  0  0  0  0  0
   13.3458   38.7107   52.2076 C   0  0  0  0  0  0  0  0  0  0  0  0
   12.9903   38.7989   53.7050 C   0  0  0  0  0  0  0  0  0  0  0  0
   14.9190   40.7859   54.8736 C   0  0  0  0  0  0  0  0  0  0  0  0
   16.1041   41.4699   55.0839 C   0  0  0  0  0  0  0  0  0  0  0  0
   17.0670   41.1679   56.5181 Cl  0  0  0  0  0  0  0  0  0  0  0  0
   16.5011   42.3898   54.1373 C   0  0  0  0  0  0  0  0  0  0  0  0
   15.3815   44.4104   51.3251 C   0  0  0  0  0  0  0  0  0  0  0  0
   15.8427   45.3563   50.4155 C   0  0  0  0  0  0  0  0  0  0  0  0
   14.7288   46.3422   49.5018 Cl  0  0  0  0  0  0  0  0  0  0  0  0
  2  1  1  6
  2  3  1  0
  3 22  2  0
  3  4  1  0
  4  5  2  0
  5  6  1  0
  6  7  1  0
  6 21  2  0
  7 20  1  0
  7  8  2  0
  8  9  1  0
 10  9  1  6
  9 17  2  0
 10 16  1  0
 10 11  1  0
 14 10  1  6
 11 12  1  0
 11 13  2  3
 15 14  1  6
 16 15  1  1
 17 18  1  0
 18 19  1  0
 18 20  2  0
 21 22  1  0
 22 23  1  0
M  CHG  1  13   1
M  END
$$$$
