
     RDKit          3D

 23 25  0  0  0  0  0  0  0  0999 V2000
   27.5417   45.6076   38.7159 O   0  0  0  0  0  0  0  0  0  0  0  0
   27.6284   44.5720   39.6365 C   0  0  0  0  0  0  0  0  0  0  0  0
   28.0995   45.0330   40.9733 C   0  0  0  0  0  0  0  0  0  0  0  0
   27.9866   46.3467   41.3766 C   0  0  0  0  0  0  0  0  0  0  0  0
   28.4231   46.7775   42.6171 C   0  0  0  0  0  0  0  0  0  0  0  0
   28.9959   45.8944   43.5089 C   0  0  0  0  0  0  0  0  0  0  0  0
   29.4580   46.3388   44.8182 C   0  0  0  0  0  0  0  0  0  0  0  0
   29.6167   47.6602   45.1668 C   0  0  0  0  0  0  0  0  0  0  0  0
   30.0554   48.0535   46.4142 C   0  0  0  0  0  0  0  0  0  0  0  0
   30.1894   49.4857   46.6938 C   0  0  1  0  0  0  0  0  0  0  0  0
   29.9065   49.8831   48.0839 C   0  0  0  0  0  0  0  0  0  0  0  0
   28.5533   50.1056   48.5331 N   0  0  0  0  0  0  0  0  0  0  0  0
   30.8843   50.0493   48.9000 N   0  0  0  0  0  4  0  0  0  0  0  0
   31.4710   50.1275   46.2064 C   0  0  0  0  0  0  0  0  0  0  0  0
   30.7868   50.3861   44.8994 C   0  0  0  0  0  0  0  0  0  0  0  0
   29.4639   50.3496   45.6900 C   0  0  0  0  0  0  0  0  0  0  0  0
   30.3368   47.0637   47.3226 C   0  0  0  0  0  0  0  0  0  0  0  0
   30.1936   45.7203   47.0203 C   0  0  0  0  0  0  0  0  0  0  0  0
   30.5664   44.4917   48.2149 Cl  0  0  0  0  0  0  0  0  0  0  0  0
   29.7520   45.3805   45.7597 C   0  0  0  0  0  0  0  0  0  0  0  0
   29.1105   44.5791   43.1083 C   0  0  0  0  0  0  0  0  0  0  0  0
   28.6714   44.1471   41.8612 C   0  0  0  0  0  0  0  0  0  0  0  0
   28.8293   42.4757   41.3823 Cl  0  0  0  0  0  0  0  0  0  0  0  0
  2  1  1  6
  2  3  1  0
  3 22  2  0
  3  4  1  0
  4  5  2  0
  5  6  1  0
  6  7  1  0
  6 21  2  0
  7 20  1  0
  7  8  2  0
  8  9  1  0
 10  9  1  1
  9 17  2  0
 10 16  1  0
 10 11  1  0
 14 10  1  6
 11 12  1  0
 11 13  2  3
 15 14  1  6
 16 15  1  1
 17 18  1  0
 18 19  1  0
 18 20  2  0
 21 22  1  0
 22 23  1  0
M  CHG  1  13   1
M  END
$$$$
