
     RDKit          3D

 23 25  0  0  0  0  0  0  0  0999 V2000
   28.9143   41.8671   49.1721 O   0  0  0  0  0  0  0  0  0  0  0  0
   28.1035   42.6894   48.4014 C   0  0  0  0  0  0  0  0  0  0  0  0
   28.7313   44.0119   48.1217 C   0  0  0  0  0  0  0  0  0  0  0  0
   30.0134   44.3149   48.5289 C   0  0  0  0  0  0  0  0  0  0  0  0
   30.5987   45.5419   48.2705 C   0  0  0  0  0  0  0  0  0  0  0  0
   29.9100   46.5216   47.5855 C   0  0  0  0  0  0  0  0  0  0  0  0
   30.5186   47.8169   47.3080 C   0  0  0  0  0  0  0  0  0  0  0  0
   30.0659   48.6848   46.3412 C   0  0  0  0  0  0  0  0  0  0  0  0
   30.6606   49.9059   46.0997 C   0  0  0  0  0  0  0  0  0  0  0  0
   30.1042   50.7643   45.0505 C   0  0  1  0  0  0  0  0  0  0  0  0
   30.1779   50.2152   43.6853 C   0  0  0  0  0  0  0  0  0  0  0  0
   31.4221   49.7170   43.1503 N   0  0  0  0  0  0  0  0  0  0  0  0
   29.1192   50.1978   42.9583 N   0  0  0  0  0  4  0  0  0  0  0  0
   28.7234   51.3200   45.3274 C   0  0  0  0  0  0  0  0  0  0  0  0
   29.3807   52.4797   46.0104 C   0  0  0  0  0  0  0  0  0  0  0  0
   30.6089   52.1855   45.1264 C   0  0  0  0  0  0  0  0  0  0  0  0
   31.7455   50.2404   46.8711 C   0  0  0  0  0  0  0  0  0  0  0  0
   32.2392   49.4020   47.8559 C   0  0  0  0  0  0  0  0  0  0  0  0
   33.6289   49.8736   48.8159 Cl  0  0  0  0  0  0  0  0  0  0  0  0
   31.6087   48.1930   48.0573 C   0  0  0  0  0  0  0  0  0  0  0  0
   28.6268   46.2216   47.1768 C   0  0  0  0  0  0  0  0  0  0  0  0
   28.0393   44.9880   47.4370 C   0  0  0  0  0  0  0  0  0  0  0  0
   26.4135   44.6371   46.9065 Cl  0  0  0  0  0  0  0  0  0  0  0  0
  2  1  1  6
  2  3  1  0
  3 22  2  0
  3  4  1  0
  4  5  2  0
  5  6  1  0
  6  7  1  0
  6 21  2  0
  7 20  1  0
  7  8  2  0
  8  9  1  0
 10  9  1  1
  9 17  2  0
 10 16  1  0
 10 11  1  0
 14 10  1  6
 11 12  1  0
 11 13  2  3
 15 14  1  6
 16 15  1  1
 17 18  1  0
 18 19  1  0
 18 20  2  0
 21 22  1  0
 22 23  1  0
M  CHG  1  13   1
M  END
$$$$
