
     RDKit          3D

 23 25  0  0  0  0  0  0  0  0999 V2000
   26.1754   48.6780   40.1171 O   0  0  0  0  0  0  0  0  0  0  0  0
   25.4687   48.5624   41.3065 C   0  0  0  0  0  0  0  0  0  0  0  0
   26.3618   48.4125   42.4903 C   0  0  0  0  0  0  0  0  0  0  0  0
   27.6082   48.9996   42.5464 C   0  0  0  0  0  0  0  0  0  0  0  0
   28.4395   48.8621   43.6441 C   0  0  0  0  0  0  0  0  0  0  0  0
   28.0452   48.1211   44.7389 C   0  0  0  0  0  0  0  0  0  0  0  0
   28.9137   47.9713   45.9002 C   0  0  0  0  0  0  0  0  0  0  0  0
   29.6513   48.9981   46.4429 C   0  0  0  0  0  0  0  0  0  0  0  0
   30.4654   48.8288   47.5436 C   0  0  0  0  0  0  0  0  0  0  0  0
   31.2099   49.9839   48.0525 C   0  0  1  0  0  0  0  0  0  0  0  0
   32.4774   50.2693   47.3579 C   0  0  0  0  0  0  0  0  0  0  0  0
   33.1024   49.2794   46.5141 N   0  0  0  0  0  0  0  0  0  0  0  0
   33.0395   51.4124   47.5230 N   0  0  0  0  0  4  0  0  0  0  0  0
   30.4027   51.2522   48.2308 C   0  0  0  0  0  0  0  0  0  0  0  0
   30.0659   50.7851   49.6135 C   0  0  0  0  0  0  0  0  0  0  0  0
   31.3691   49.9639   49.5540 C   0  0  0  0  0  0  0  0  0  0  0  0
   30.5211   47.5742   48.0975 C   0  0  0  0  0  0  0  0  0  0  0  0
   29.7987   46.5086   47.5885 C   0  0  0  0  0  0  0  0  0  0  0  0
   29.9032   44.9232   48.3309 Cl  0  0  0  0  0  0  0  0  0  0  0  0
   29.0001   46.7307   46.4873 C   0  0  0  0  0  0  0  0  0  0  0  0
   26.7986   47.5322   44.6859 C   0  0  0  0  0  0  0  0  0  0  0  0
   25.9637   47.6710   43.5821 C   0  0  0  0  0  0  0  0  0  0  0  0
   24.3909   46.9142   43.5441 Cl  0  0  0  0  0  0  0  0  0  0  0  0
  2  1  1  6
  2  3  1  0
  3 22  2  0
  3  4  1  0
  4  5  2  0
  5  6  1  0
  6  7  1  0
  6 21  2  0
  7 20  1  0
  7  8  2  0
  8  9  1  0
 10  9  1  6
  9 17  2  0
 10 16  1  0
 10 11  1  0
 14 10  1  6
 11 12  1  0
 11 13  2  3
 15 14  1  6
 16 15  1  1
 17 18  1  0
 18 19  1  0
 18 20  2  0
 21 22  1  0
 22 23  1  0
M  CHG  1  13   1
M  END
$$$$
