
     RDKit          3D

 23 25  0  0  0  0  0  0  0  0999 V2000
   35.1513   50.2003   46.7570 O   0  0  0  0  0  0  0  0  0  0  0  0
   34.6073   49.0860   47.3813 C   0  0  0  0  0  0  0  0  0  0  0  0
   33.2087   48.8119   46.9452 C   0  0  0  0  0  0  0  0  0  0  0  0
   32.5666   49.5948   46.0092 C   0  0  0  0  0  0  0  0  0  0  0  0
   31.2681   49.3427   45.6026 C   0  0  0  0  0  0  0  0  0  0  0  0
   30.5582   48.2824   46.1270 C   0  0  0  0  0  0  0  0  0  0  0  0
   29.1902   48.0085   45.7041 C   0  0  0  0  0  0  0  0  0  0  0  0
   28.4480   48.8562   44.9145 C   0  0  0  0  0  0  0  0  0  0  0  0
   27.1546   48.5719   44.5281 C   0  0  0  0  0  0  0  0  0  0  0  0
   26.4450   49.5355   43.6823 C   0  0  1  0  0  0  0  0  0  0  0  0
   25.2602   50.1581   44.2981 C   0  0  0  0  0  0  0  0  0  0  0  0
   25.3845   51.3285   45.1332 N   0  0  0  0  0  0  0  0  0  0  0  0
   24.1032   49.6371   44.0992 N   0  0  0  0  0  4  0  0  0  0  0  0
   27.3132   50.5831   43.0185 C   0  0  0  0  0  0  0  0  0  0  0  0
   27.5037   49.6318   41.8775 C   0  0  0  0  0  0  0  0  0  0  0  0
   26.1605   49.0030   42.2981 C   0  0  0  0  0  0  0  0  0  0  0  0
   26.6138   47.3883   44.9645 C   0  0  0  0  0  0  0  0  0  0  0  0
   27.3192   46.5021   45.7605 C   0  0  0  0  0  0  0  0  0  0  0  0
   26.5846   45.0016   46.2938 Cl  0  0  0  0  0  0  0  0  0  0  0  0
   28.6083   46.8335   46.1186 C   0  0  0  0  0  0  0  0  0  0  0  0
   31.1978   47.4971   47.0639 C   0  0  0  0  0  0  0  0  0  0  0  0
   32.5030   47.7513   47.4721 C   0  0  0  0  0  0  0  0  0  0  0  0
   33.2865   46.7394   48.6594 Cl  0  0  0  0  0  0  0  0  0  0  0  0
  2  1  1  6
  2  3  1  0
  3 22  2  0
  3  4  1  0
  4  5  2  0
  5  6  1  0
  6  7  1  0
  6 21  2  0
  7 20  1  0
  7  8  2  0
  8  9  1  0
 10  9  1  1
  9 17  2  0
 10 16  1  0
 10 11  1  0
 14 10  1  6
 11 12  1  0
 11 13  2  3
 15 14  1  6
 16 15  1  1
 17 18  1  0
 18 19  1  0
 18 20  2  0
 21 22  1  0
 22 23  1  0
M  CHG  1  13   1
M  END
$$$$
