
     RDKit          3D

 23 25  0  0  0  0  0  0  0  0999 V2000
   20.3072   40.4364   64.5542 O   0  0  0  0  0  0  0  0  0  0  0  0
   21.1014   40.2624   63.4288 C   0  0  0  0  0  0  0  0  0  0  0  0
   22.5561   40.2442   63.7526 C   0  0  0  0  0  0  0  0  0  0  0  0
   23.0203   39.9781   65.0235 C   0  0  0  0  0  0  0  0  0  0  0  0
   24.3704   39.9606   65.3269 C   0  0  0  0  0  0  0  0  0  0  0  0
   25.3152   40.2126   64.3538 C   0  0  0  0  0  0  0  0  0  0  0  0
   26.7396   40.1956   64.6638 C   0  0  0  0  0  0  0  0  0  0  0  0
   27.2815   39.5323   65.7406 C   0  0  0  0  0  0  0  0  0  0  0  0
   28.6344   39.5320   66.0107 C   0  0  0  0  0  0  0  0  0  0  0  0
   29.1183   38.7928   67.1797 C   0  0  1  0  0  0  0  0  0  0  0  0
   29.6419   37.4449   66.8975 C   0  0  0  0  0  0  0  0  0  0  0  0
   31.0352   37.1301   67.1030 N   0  0  0  0  0  0  0  0  0  0  0  0
   28.8451   36.5446   66.4456 N   0  0  0  0  0  4  0  0  0  0  0  0
   30.0637   39.5528   68.0856 C   0  0  0  0  0  0  0  0  0  0  0  0
   28.8660   40.0603   68.8281 C   0  0  0  0  0  0  0  0  0  0  0  0
   28.1353   38.7992   68.3260 C   0  0  0  0  0  0  0  0  0  0  0  0
   29.4469   40.2302   65.1527 C   0  0  0  0  0  0  0  0  0  0  0  0
   28.9505   40.9137   64.0559 C   0  0  0  0  0  0  0  0  0  0  0  0
   30.0291   41.7924   62.9882 Cl  0  0  0  0  0  0  0  0  0  0  0  0
   27.5910   40.8825   63.8305 C   0  0  0  0  0  0  0  0  0  0  0  0
   24.8540   40.4794   63.0811 C   0  0  0  0  0  0  0  0  0  0  0  0
   23.4968   40.4968   62.7771 C   0  0  0  0  0  0  0  0  0  0  0  0
   22.9432   40.8371   61.1568 Cl  0  0  0  0  0  0  0  0  0  0  0  0
  2  1  1  6
  2  3  1  0
  3 22  2  0
  3  4  1  0
  4  5  2  0
  5  6  1  0
  6  7  1  0
  6 21  2  0
  7 20  1  0
  7  8  2  0
  8  9  1  0
 10  9  1  6
  9 17  2  0
 10 16  1  0
 10 11  1  0
 14 10  1  6
 11 12  1  0
 11 13  2  3
 15 14  1  6
 16 15  1  1
 17 18  1  0
 18 19  1  0
 18 20  2  0
 21 22  1  0
 22 23  1  0
M  CHG  1  13   1
M  END
$$$$
