
     RDKit          3D

 23 25  0  0  0  0  0  0  0  0999 V2000
   10.2855   38.1621   77.8729 O   0  0  0  0  0  0  0  0  0  0  0  0
   10.7311   39.1183   78.7755 C   0  0  0  0  0  0  0  0  0  0  0  0
   11.9786   39.7959   78.3214 C   0  0  0  0  0  0  0  0  0  0  0  0
   12.7731   39.2747   77.3222 C   0  0  0  0  0  0  0  0  0  0  0  0
   13.9318   39.9016   76.8988 C   0  0  0  0  0  0  0  0  0  0  0  0
   14.3402   41.0892   77.4699 C   0  0  0  0  0  0  0  0  0  0  0  0
   15.5590   41.7573   77.0298 C   0  0  0  0  0  0  0  0  0  0  0  0
   16.6274   41.1046   76.4596 C   0  0  0  0  0  0  0  0  0  0  0  0
   17.7695   41.7619   76.0511 C   0  0  0  0  0  0  0  0  0  0  0  0
   18.8541   40.9809   75.4503 C   0  0  1  0  0  0  0  0  0  0  0  0
   19.8931   40.5236   76.3893 C   0  0  0  0  0  0  0  0  0  0  0  0
   19.9990   41.0873   77.7136 N   0  0  0  0  0  0  0  0  0  0  0  0
   20.7257   39.6211   76.0125 N   0  0  0  0  0  4  0  0  0  0  0  0
   18.4176   39.8482   74.5456 C   0  0  0  0  0  0  0  0  0  0  0  0
   18.4106   40.8238   73.4092 C   0  0  0  0  0  0  0  0  0  0  0  0
   19.4380   41.6366   74.2217 C   0  0  0  0  0  0  0  0  0  0  0  0
   17.8118   43.1215   76.2341 C   0  0  0  0  0  0  0  0  0  0  0  0
   16.7633   43.8240   76.8031 C   0  0  0  0  0  0  0  0  0  0  0  0
   16.8645   45.5617   77.0166 Cl  0  0  0  0  0  0  0  0  0  0  0  0
   15.6448   43.1199   77.1942 C   0  0  0  0  0  0  0  0  0  0  0  0
   13.5475   41.6132   78.4702 C   0  0  0  0  0  0  0  0  0  0  0  0
   12.3831   40.9823   78.8952 C   0  0  0  0  0  0  0  0  0  0  0  0
   11.3998   41.6701   80.1632 Cl  0  0  0  0  0  0  0  0  0  0  0  0
  2  1  1  6
  2  3  1  0
  3 22  2  0
  3  4  1  0
  4  5  2  0
  5  6  1  0
  6  7  1  0
  6 21  2  0
  7 20  1  0
  7  8  2  0
  8  9  1  0
 10  9  1  1
  9 17  2  0
 10 16  1  0
 10 11  1  0
 14 10  1  6
 11 12  1  0
 11 13  2  3
 15 14  1  6
 16 15  1  1
 17 18  1  0
 18 19  1  0
 18 20  2  0
 21 22  1  0
 22 23  1  0
M  CHG  1  13   1
M  END
$$$$
