
     RDKit          3D

 23 25  0  0  0  0  0  0  0  0999 V2000
   29.8499   30.7192   54.0037 O   0  0  0  0  0  0  0  0  0  0  0  0
   29.5934   29.3883   54.3044 C   0  0  0  0  0  0  0  0  0  0  0  0
   30.3272   28.4482   53.4105 C   0  0  0  0  0  0  0  0  0  0  0  0
   31.1525   28.8928   52.3993 C   0  0  0  0  0  0  0  0  0  0  0  0
   31.8350   28.0222   51.5678 C   0  0  0  0  0  0  0  0  0  0  0  0
   31.7125   26.6569   51.7231 C   0  0  0  0  0  0  0  0  0  0  0  0
   32.4281   25.7321   50.8525 C   0  0  0  0  0  0  0  0  0  0  0  0
   32.7887   24.4565   51.2210 C   0  0  0  0  0  0  0  0  0  0  0  0
   33.4655   23.6010   50.3765 C   0  0  0  0  0  0  0  0  0  0  0  0
   33.8031   22.2586   50.8574 C   0  0  1  0  0  0  0  0  0  0  0  0
   32.6548   21.3599   51.0678 C   0  0  0  0  0  0  0  0  0  0  0  0
   31.9279   20.8078   49.9500 N   0  0  0  0  0  0  0  0  0  0  0  0
   32.2886   21.0804   52.2667 N   0  0  0  0  0  4  0  0  0  0  0  0
   34.9015   21.5499   50.0937 C   0  0  0  0  0  0  0  0  0  0  0  0
   35.8907   22.1938   51.0157 C   0  0  0  0  0  0  0  0  0  0  0  0
   34.7419   22.2782   52.0401 C   0  0  0  0  0  0  0  0  0  0  0  0
   33.7778   24.0699   49.1249 C   0  0  0  0  0  0  0  0  0  0  0  0
   33.4376   25.3450   48.7068 C   0  0  0  0  0  0  0  0  0  0  0  0
   33.8592   25.8991   47.0973 Cl  0  0  0  0  0  0  0  0  0  0  0  0
   32.7617   26.1602   49.5890 C   0  0  0  0  0  0  0  0  0  0  0  0
   30.8872   26.2088   52.7339 C   0  0  0  0  0  0  0  0  0  0  0  0
   30.2016   27.0846   53.5691 C   0  0  0  0  0  0  0  0  0  0  0  0
   29.1647   26.4877   54.8404 Cl  0  0  0  0  0  0  0  0  0  0  0  0
  2  1  1  6
  2  3  1  0
  3 22  2  0
  3  4  1  0
  4  5  2  0
  5  6  1  0
  6  7  1  0
  6 21  2  0
  7 20  1  0
  7  8  2  0
  8  9  1  0
 10  9  1  6
  9 17  2  0
 10 16  1  0
 10 11  1  0
 14 10  1  6
 11 12  1  0
 11 13  2  3
 15 14  1  6
 16 15  1  1
 17 18  1  0
 18 19  1  0
 18 20  2  0
 21 22  1  0
 22 23  1  0
M  CHG  1  13   1
M  END
$$$$
