
     RDKit          3D

 23 25  0  0  0  0  0  0  0  0999 V2000
   27.8824   43.4439   39.4420 O   0  0  0  0  0  0  0  0  0  0  0  0
   26.9969   43.5389   40.5071 C   0  0  0  0  0  0  0  0  0  0  0  0
   27.5831   44.2542   41.6760 C   0  0  0  0  0  0  0  0  0  0  0  0
   28.0202   45.5592   41.5922 C   0  0  0  0  0  0  0  0  0  0  0  0
   28.5648   46.2256   42.6758 C   0  0  0  0  0  0  0  0  0  0  0  0
   28.6920   45.5987   43.8981 C   0  0  0  0  0  0  0  0  0  0  0  0
   29.2637   46.2929   45.0455 C   0  0  0  0  0  0  0  0  0  0  0  0
   29.2903   47.6622   45.1773 C   0  0  0  0  0  0  0  0  0  0  0  0
   29.8374   48.2938   46.2749 C   0  0  0  0  0  0  0  0  0  0  0  0
   29.8157   49.7581   46.3275 C   0  0  1  0  0  0  0  0  0  0  0  0
   29.8284   50.4334   45.0182 C   0  0  0  0  0  0  0  0  0  0  0  0
   28.6055   50.8986   44.4093 N   0  0  0  0  0  0  0  0  0  0  0  0
   30.9461   50.5929   44.4057 N   0  0  0  0  0  4  0  0  0  0  0  0
   28.7595   50.3621   47.2284 C   0  0  0  0  0  0  0  0  0  0  0  0
   29.7423   50.2770   48.3555 C   0  0  0  0  0  0  0  0  0  0  0  0
   30.8430   50.3262   47.2774 C   0  0  0  0  0  0  0  0  0  0  0  0
   30.3688   47.4975   47.2585 C   0  0  0  0  0  0  0  0  0  0  0  0
   30.3667   46.1157   47.1727 C   0  0  0  0  0  0  0  0  0  0  0  0
   31.0586   45.1405   48.4555 Cl  0  0  0  0  0  0  0  0  0  0  0  0
   29.8077   45.5341   46.0551 C   0  0  0  0  0  0  0  0  0  0  0  0
   28.2556   44.2927   43.9853 C   0  0  0  0  0  0  0  0  0  0  0  0
   27.7084   43.6236   42.8955 C   0  0  0  0  0  0  0  0  0  0  0  0
   27.1643   41.9708   43.0365 Cl  0  0  0  0  0  0  0  0  0  0  0  0
  2  1  1  6
  2  3  1  0
  3 22  2  0
  3  4  1  0
  4  5  2  0
  5  6  1  0
  6  7  1  0
  6 21  2  0
  7 20  1  0
  7  8  2  0
  8  9  1  0
 10  9  1  6
  9 17  2  0
 10 16  1  0
 10 11  1  0
 14 10  1  6
 11 12  1  0
 11 13  2  3
 15 14  1  6
 16 15  1  1
 17 18  1  0
 18 19  1  0
 18 20  2  0
 21 22  1  0
 22 23  1  0
M  CHG  1  13   1
M  END
$$$$
