
     RDKit          3D

 23 25  0  0  0  0  0  0  0  0999 V2000
   31.3042   30.0468   50.3914 O   0  0  0  0  0  0  0  0  0  0  0  0
   31.4014   30.7843   49.2192 C   0  0  0  0  0  0  0  0  0  0  0  0
   31.0900   32.2274   49.4240 C   0  0  0  0  0  0  0  0  0  0  0  0
   31.4451   32.8971   50.5758 C   0  0  0  0  0  0  0  0  0  0  0  0
   31.1572   34.2368   50.7686 C   0  0  0  0  0  0  0  0  0  0  0  0
   30.4941   34.9621   49.8004 C   0  0  0  0  0  0  0  0  0  0  0  0
   30.1871   36.3740   49.9942 C   0  0  0  0  0  0  0  0  0  0  0  0
   31.0359   37.2653   50.6091 C   0  0  0  0  0  0  0  0  0  0  0  0
   30.7205   38.5975   50.7790 C   0  0  0  0  0  0  0  0  0  0  0  0
   31.6915   39.4713   51.4429 C   0  0  1  0  0  0  0  0  0  0  0  0
   31.1327   40.3586   52.4778 C   0  0  0  0  0  0  0  0  0  0  0  0
   30.3180   39.8335   53.5469 N   0  0  0  0  0  0  0  0  0  0  0  0
   31.3631   41.6206   52.4130 N   0  0  0  0  0  4  0  0  0  0  0  0
   32.9450   38.7882   51.9470 C   0  0  0  0  0  0  0  0  0  0  0  0
   33.5583   39.0293   50.6019 C   0  0  0  0  0  0  0  0  0  0  0  0
   32.5772   40.2109   50.4687 C   0  0  0  0  0  0  0  0  0  0  0  0
   29.5039   39.0209   50.3051 C   0  0  0  0  0  0  0  0  0  0  0  0
   28.6149   38.1635   49.6796 C   0  0  0  0  0  0  0  0  0  0  0  0
   27.0712   38.7518   49.0911 Cl  0  0  0  0  0  0  0  0  0  0  0  0
   28.9783   36.8419   49.5348 C   0  0  0  0  0  0  0  0  0  0  0  0
   30.1371   34.2948   48.6467 C   0  0  0  0  0  0  0  0  0  0  0  0
   30.4270   32.9482   48.4538 C   0  0  0  0  0  0  0  0  0  0  0  0
   29.9630   32.1308   46.9826 Cl  0  0  0  0  0  0  0  0  0  0  0  0
  2  1  1  6
  2  3  1  0
  3 22  2  0
  3  4  1  0
  4  5  2  0
  5  6  1  0
  6  7  1  0
  6 21  2  0
  7 20  1  0
  7  8  2  0
  8  9  1  0
 10  9  1  6
  9 17  2  0
 10 16  1  0
 10 11  1  0
 14 10  1  6
 11 12  1  0
 11 13  2  3
 15 14  1  6
 16 15  1  1
 17 18  1  0
 18 19  1  0
 18 20  2  0
 21 22  1  0
 22 23  1  0
M  CHG  1  13   1
M  END
$$$$
