
     RDKit          3D

 23 25  0  0  0  0  0  0  0  0999 V2000
   32.7802   42.0650   64.1171 O   0  0  0  0  0  0  0  0  0  0  0  0
   31.9225   41.1515   63.5193 C   0  0  0  0  0  0  0  0  0  0  0  0
   30.7314   40.8488   64.3625 C   0  0  0  0  0  0  0  0  0  0  0  0
   30.4543   41.5496   65.5172 C   0  0  0  0  0  0  0  0  0  0  0  0
   29.3492   41.2706   66.3020 C   0  0  0  0  0  0  0  0  0  0  0  0
   28.4712   40.2657   65.9520 C   0  0  0  0  0  0  0  0  0  0  0  0
   27.3039   39.9651   66.7720 C   0  0  0  0  0  0  0  0  0  0  0  0
   27.2763   40.0929   68.1416 C   0  0  0  0  0  0  0  0  0  0  0  0
   26.1571   39.8021   68.8939 C   0  0  0  0  0  0  0  0  0  0  0  0
   26.2226   39.9730   70.3478 C   0  0  1  0  0  0  0  0  0  0  0  0
   25.6229   41.2169   70.8613 C   0  0  0  0  0  0  0  0  0  0  0  0
   24.1917   41.4017   70.8764 N   0  0  0  0  0  0  0  0  0  0  0  0
   26.3911   42.1551   71.2849 N   0  0  0  0  0  4  0  0  0  0  0  0
   25.7645   38.7838   71.1650 C   0  0  0  0  0  0  0  0  0  0  0  0
   27.1675   38.2631   71.1033 C   0  0  0  0  0  0  0  0  0  0  0  0
   27.6044   39.7282   70.9055 C   0  0  0  0  0  0  0  0  0  0  0  0
   25.0418   39.3701   68.2205 C   0  0  0  0  0  0  0  0  0  0  0  0
   25.0192   39.2248   66.8440 C   0  0  0  0  0  0  0  0  0  0  0  0
   23.5697   38.6688   66.0285 Cl  0  0  0  0  0  0  0  0  0  0  0  0
   26.1639   39.5288   66.1388 C   0  0  0  0  0  0  0  0  0  0  0  0
   28.7458   39.5624   64.7972 C   0  0  0  0  0  0  0  0  0  0  0  0
   29.8568   39.8435   64.0090 C   0  0  0  0  0  0  0  0  0  0  0  0
   30.1780   38.9364   62.5524 Cl  0  0  0  0  0  0  0  0  0  0  0  0
  2  1  1  6
  2  3  1  0
  3 22  2  0
  3  4  1  0
  4  5  2  0
  5  6  1  0
  6  7  1  0
  6 21  2  0
  7 20  1  0
  7  8  2  0
  8  9  1  0
 10  9  1  6
  9 17  2  0
 10 16  1  0
 10 11  1  0
 14 10  1  6
 11 12  1  0
 11 13  2  3
 15 14  1  6
 16 15  1  1
 17 18  1  0
 18 19  1  0
 18 20  2  0
 21 22  1  0
 22 23  1  0
M  CHG  1  13   1
M  END
$$$$
