
     RDKit          3D

 16 17  0  0  0  0  0  0  0  0999 V2000
   -6.9034   -4.8552   23.2530 C   0  0  0  0  0  0  0  0  0  0  0  0
   -5.2693   -7.2060   21.1716 C   0  0  0  0  0  0  0  0  0  0  0  0
   -6.9086   -6.0036   22.4722 C   0  0  0  0  0  0  0  0  0  0  0  0
   -3.3577   -7.3594   17.5970 C   0  0  0  0  0  0  0  0  0  0  0  0
   -7.8193   -4.8410   24.3117 C   0  0  0  0  0  0  0  0  0  0  0  0
   -8.6708   -5.8740   24.5792 C   0  0  0  0  0  0  0  0  0  0  0  0
   -6.0441   -3.7307   23.0391 C   0  0  0  0  0  0  0  0  0  0  0  0
   -2.5152   -7.4868   18.6667 C   0  0  0  0  0  0  0  0  0  0  0  0
   -7.7777   -7.0504   22.7504 C   0  0  0  0  0  0  0  0  0  0  0  0
   -8.6508   -6.9779   23.8000 C   0  0  0  0  0  0  0  0  0  0  0  0
   -6.0190   -6.1513   21.3523 C   0  0  0  0  0  0  0  0  0  0  0  0
   -4.4144   -7.2835   19.9645 C   0  0  0  0  0  0  0  0  0  0  0  0
   -3.0683   -7.4468   19.8959 C   0  0  0  0  0  0  0  0  0  0  0  0
   -6.4327   -2.5859   22.8072 O   0  0  0  0  0  0  0  0  0  0  0  0
   -4.6497   -3.9875   23.1056 O   0  0  0  0  0  0  0  0  0  0  0  0
   -4.8941   -7.1880   18.3392 S   0  0  0  0  0  0  0  0  0  0  0  0
  3  1  2  0
  1  5  1  0
  1  7  1  0
  2 11  2  0
 12  2  1  0
  3  9  1  0
 11  3  1  0
  8  4  2  0
  4 16  1  0
  5  6  2  0
 10  6  1  0
  7 14  2  0
  7 15  1  0
 13  8  1  0
  9 10  2  0
 12 13  2  0
 12 16  1  0
M  END
$$$$
