
     RDKit          3D

 16 17  0  0  0  0  0  0  0  0999 V2000
   -5.4715   -7.3685   23.0050 C   0  0  0  0  0  0  0  0  0  0  0  0
   -6.1134   -6.3999   19.5292 C   0  0  0  0  0  0  0  0  0  0  0  0
   -6.1723   -6.9348   21.9184 C   0  0  0  0  0  0  0  0  0  0  0  0
   -3.6242   -5.6647   16.3708 C   0  0  0  0  0  0  0  0  0  0  0  0
   -6.1773   -7.5497   24.2156 C   0  0  0  0  0  0  0  0  0  0  0  0
   -7.5157   -7.3023   24.3064 C   0  0  0  0  0  0  0  0  0  0  0  0
   -4.0554   -7.6609   23.0237 C   0  0  0  0  0  0  0  0  0  0  0  0
   -4.8830   -6.0836   16.0290 C   0  0  0  0  0  0  0  0  0  0  0  0
   -7.5332   -6.6869   22.0243 C   0  0  0  0  0  0  0  0  0  0  0  0
   -8.2075   -6.8672   23.2075 C   0  0  0  0  0  0  0  0  0  0  0  0
   -5.4961   -6.7325   20.6512 C   0  0  0  0  0  0  0  0  0  0  0  0
   -5.3715   -6.1876   18.3069 C   0  0  0  0  0  0  0  0  0  0  0  0
   -5.7358   -6.3381   17.0049 C   0  0  0  0  0  0  0  0  0  0  0  0
   -3.5018   -8.5742   23.6265 O   0  0  0  0  0  0  0  0  0  0  0  0
   -3.1569   -6.8389   22.2845 O   0  0  0  0  0  0  0  0  0  0  0  0
   -3.6832   -5.6400   18.1805 S   0  0  0  0  0  0  0  0  0  0  0  0
  3  1  2  0
  1  5  1  0
  1  7  1  0
  2 11  2  0
 12  2  1  0
  3  9  1  0
 11  3  1  0
  8  4  2  0
  4 16  1  0
  5  6  2  0
 10  6  1  0
  7 14  2  0
  7 15  1  0
 13  8  1  0
  9 10  2  0
 12 13  2  0
 12 16  1  0
M  END
$$$$
