
     RDKit          3D

 16 17  0  0  0  0  0  0  0  0999 V2000
   -5.3015   -6.9255   23.1687 C   0  0  0  0  0  0  0  0  0  0  0  0
   -4.8483   -6.5251   19.6526 C   0  0  0  0  0  0  0  0  0  0  0  0
   -5.0568   -7.4215   21.9221 C   0  0  0  0  0  0  0  0  0  0  0  0
   -6.3115   -5.0172   16.1458 C   0  0  0  0  0  0  0  0  0  0  0  0
   -4.7925   -7.6418   24.2752 C   0  0  0  0  0  0  0  0  0  0  0  0
   -4.0783   -8.7928   24.1140 C   0  0  0  0  0  0  0  0  0  0  0  0
   -6.0442   -5.7185   23.4567 C   0  0  0  0  0  0  0  0  0  0  0  0
   -6.5275   -4.2317   17.2472 C   0  0  0  0  0  0  0  0  0  0  0  0
   -4.3291   -8.5931   21.7723 C   0  0  0  0  0  0  0  0  0  0  0  0
   -3.8397   -9.2800   22.8567 C   0  0  0  0  0  0  0  0  0  0  0  0
   -5.5567   -6.7251   20.7521 C   0  0  0  0  0  0  0  0  0  0  0  0
   -5.4229   -5.8515   18.5100 C   0  0  0  0  0  0  0  0  0  0  0  0
   -6.0785   -4.6635   18.4119 C   0  0  0  0  0  0  0  0  0  0  0  0
   -7.1328   -5.6417   24.0161 O   0  0  0  0  0  0  0  0  0  0  0  0
   -5.5085   -4.4546   23.0761 O   0  0  0  0  0  0  0  0  0  0  0  0
   -5.4216   -6.4381   16.8301 S   0  0  0  0  0  0  0  0  0  0  0  0
  3  1  2  0
  1  5  1  0
  1  7  1  0
  2 11  2  0
 12  2  1  0
  3  9  1  0
 11  3  1  0
  8  4  2  0
  4 16  1  0
  5  6  2  0
 10  6  1  0
  7 14  2  0
  7 15  1  0
 13  8  1  0
  9 10  2  0
 12 13  2  0
 12 16  1  0
M  END
$$$$
