
     RDKit          3D

 16 17  0  0  0  0  0  0  0  0999 V2000
   -5.3880   -7.1378   23.3073 C   0  0  0  0  0  0  0  0  0  0  0  0
   -5.9469   -6.2901   19.8962 C   0  0  0  0  0  0  0  0  0  0  0  0
   -6.1271   -7.1798   22.1324 C   0  0  0  0  0  0  0  0  0  0  0  0
   -4.3479   -6.1481   16.1708 C   0  0  0  0  0  0  0  0  0  0  0  0
   -6.1270   -7.2608   24.4900 C   0  0  0  0  0  0  0  0  0  0  0  0
   -7.4834   -7.4128   24.5132 C   0  0  0  0  0  0  0  0  0  0  0  0
   -3.9665   -6.9814   23.3682 C   0  0  0  0  0  0  0  0  0  0  0  0
   -3.4289   -5.9404   17.1621 C   0  0  0  0  0  0  0  0  0  0  0  0
   -7.5068   -7.3347   22.1639 C   0  0  0  0  0  0  0  0  0  0  0  0
   -8.1735   -7.4498   23.3519 C   0  0  0  0  0  0  0  0  0  0  0  0
   -5.4952   -7.0653   20.8460 C   0  0  0  0  0  0  0  0  0  0  0  0
   -5.2001   -6.2051   18.6199 C   0  0  0  0  0  0  0  0  0  0  0  0
   -3.8757   -5.9708   18.4340 C   0  0  0  0  0  0  0  0  0  0  0  0
   -3.3642   -5.9406   23.1047 O   0  0  0  0  0  0  0  0  0  0  0  0
   -3.2276   -8.1268   23.7639 O   0  0  0  0  0  0  0  0  0  0  0  0
   -5.8057   -6.3791   17.0439 S   0  0  0  0  0  0  0  0  0  0  0  0
  3  1  2  0
  1  5  1  0
  1  7  1  0
  2 11  2  0
 12  2  1  0
  3  9  1  0
 11  3  1  0
  8  4  2  0
  4 16  1  0
  5  6  2  0
 10  6  1  0
  7 14  2  0
  7 15  1  0
 13  8  1  0
  9 10  2  0
 12 13  2  0
 12 16  1  0
M  END
$$$$
