
     RDKit          3D

 16 17  0  0  0  0  0  0  0  0999 V2000
   -5.1918   -7.3850   21.9582 C   0  0  0  0  0  0  0  0  0  0  0  0
   -3.3148   -6.6015   19.1171 C   0  0  0  0  0  0  0  0  0  0  0  0
   -5.0168   -7.5299   20.6134 C   0  0  0  0  0  0  0  0  0  0  0  0
    0.2737   -6.7303   17.1630 C   0  0  0  0  0  0  0  0  0  0  0  0
   -6.5100   -7.4507   22.4626 C   0  0  0  0  0  0  0  0  0  0  0  0
   -7.5802   -7.6521   21.6410 C   0  0  0  0  0  0  0  0  0  0  0  0
   -4.1338   -7.1679   22.9199 C   0  0  0  0  0  0  0  0  0  0  0  0
    0.3539   -6.4428   18.5001 C   0  0  0  0  0  0  0  0  0  0  0  0
   -6.1138   -7.7341   19.7891 C   0  0  0  0  0  0  0  0  0  0  0  0
   -7.3905   -7.7960   20.2925 C   0  0  0  0  0  0  0  0  0  0  0  0
   -3.6842   -7.4707   20.0437 C   0  0  0  0  0  0  0  0  0  0  0  0
   -1.9707   -6.6077   18.5852 C   0  0  0  0  0  0  0  0  0  0  0  0
   -0.7717   -6.3865   19.1887 C   0  0  0  0  0  0  0  0  0  0  0  0
   -3.4885   -8.0285   23.5088 O   0  0  0  0  0  0  0  0  0  0  0  0
   -3.7548   -5.8379   23.2614 O   0  0  0  0  0  0  0  0  0  0  0  0
   -1.5068   -6.9262   16.8971 S   0  0  0  0  0  0  0  0  0  0  0  0
  3  1  2  0
  1  5  1  0
  1  7  1  0
  2 11  2  0
 12  2  1  0
  3  9  1  0
 11  3  1  0
  8  4  2  0
  4 16  1  0
  5  6  2  0
 10  6  1  0
  7 14  2  0
  7 15  1  0
 13  8  1  0
  9 10  2  0
 12 13  2  0
 12 16  1  0
M  END
$$$$
