
     RDKit          3D

 16 17  0  0  0  0  0  0  0  0999 V2000
   -5.5659   -6.7860   23.1495 C   0  0  0  0  0  0  0  0  0  0  0  0
   -6.1465   -6.9152   19.6341 C   0  0  0  0  0  0  0  0  0  0  0  0
   -6.3875   -6.7166   22.0632 C   0  0  0  0  0  0  0  0  0  0  0  0
   -4.0451   -5.7020   16.3440 C   0  0  0  0  0  0  0  0  0  0  0  0
   -6.1326   -7.1858   24.3806 C   0  0  0  0  0  0  0  0  0  0  0  0
   -7.4567   -7.4945   24.4909 C   0  0  0  0  0  0  0  0  0  0  0  0
   -4.1520   -6.4826   23.1484 C   0  0  0  0  0  0  0  0  0  0  0  0
   -5.4047   -5.7402   16.1795 C   0  0  0  0  0  0  0  0  0  0  0  0
   -7.7323   -7.0334   22.1892 C   0  0  0  0  0  0  0  0  0  0  0  0
   -8.2708   -7.4207   23.3922 C   0  0  0  0  0  0  0  0  0  0  0  0
   -5.8567   -6.3118   20.7754 C   0  0  0  0  0  0  0  0  0  0  0  0
   -5.5631   -6.4702   18.3887 C   0  0  0  0  0  0  0  0  0  0  0  0
   -6.1408   -6.1243   17.2066 C   0  0  0  0  0  0  0  0  0  0  0  0
   -3.2580   -7.1491   22.6380 O   0  0  0  0  0  0  0  0  0  0  0  0
   -3.6852   -5.3000   23.7909 O   0  0  0  0  0  0  0  0  0  0  0  0
   -3.8292   -6.2455   18.0578 S   0  0  0  0  0  0  0  0  0  0  0  0
  3  1  2  0
  1  5  1  0
  1  7  1  0
  2 11  2  0
 12  2  1  0
  3  9  1  0
 11  3  1  0
  8  4  2  0
  4 16  1  0
  5  6  2  0
 10  6  1  0
  7 14  2  0
  7 15  1  0
 13  8  1  0
  9 10  2  0
 12 13  2  0
 12 16  1  0
M  END
$$$$
