
     RDKit          3D

 16 17  0  0  0  0  0  0  0  0999 V2000
   -5.4693   -6.7454   23.1111 C   0  0  0  0  0  0  0  0  0  0  0  0
   -6.1292   -6.3464   19.5926 C   0  0  0  0  0  0  0  0  0  0  0  0
   -6.1578   -6.9813   21.9577 C   0  0  0  0  0  0  0  0  0  0  0  0
   -3.7405   -6.1397   16.2814 C   0  0  0  0  0  0  0  0  0  0  0  0
   -6.1459   -6.9443   24.3355 C   0  0  0  0  0  0  0  0  0  0  0  0
   -7.4450   -7.3586   24.3749 C   0  0  0  0  0  0  0  0  0  0  0  0
   -4.0940   -6.3051   23.1880 C   0  0  0  0  0  0  0  0  0  0  0  0
   -4.9692   -5.5492   16.1452 C   0  0  0  0  0  0  0  0  0  0  0  0
   -7.4786   -7.4023   22.0120 C   0  0  0  0  0  0  0  0  0  0  0  0
   -8.1248   -7.5919   23.2093 C   0  0  0  0  0  0  0  0  0  0  0  0
   -5.5103   -6.7926   20.6735 C   0  0  0  0  0  0  0  0  0  0  0  0
   -5.4202   -6.1841   18.3434 C   0  0  0  0  0  0  0  0  0  0  0  0
   -5.7887   -5.5819   17.1805 C   0  0  0  0  0  0  0  0  0  0  0  0
   -3.6045   -5.3250   22.6368 O   0  0  0  0  0  0  0  0  0  0  0  0
   -3.1607   -7.0445   23.9699 O   0  0  0  0  0  0  0  0  0  0  0  0
   -3.7785   -6.7664   17.9798 S   0  0  0  0  0  0  0  0  0  0  0  0
  3  1  2  0
  1  5  1  0
  1  7  1  0
  2 11  2  0
 12  2  1  0
  3  9  1  0
 11  3  1  0
  8  4  2  0
  4 16  1  0
  5  6  2  0
 10  6  1  0
  7 14  2  0
  7 15  1  0
 13  8  1  0
  9 10  2  0
 12 13  2  0
 12 16  1  0
M  END
$$$$
