
     RDKit          3D

 16 17  0  0  0  0  0  0  0  0999 V2000
   -5.3056   -7.2021   22.4675 C   0  0  0  0  0  0  0  0  0  0  0  0
   -5.6719   -6.0035   19.1907 C   0  0  0  0  0  0  0  0  0  0  0  0
   -6.0094   -7.1804   21.2705 C   0  0  0  0  0  0  0  0  0  0  0  0
   -4.0297   -5.5304   15.5117 C   0  0  0  0  0  0  0  0  0  0  0  0
   -6.0749   -7.4233   23.6161 C   0  0  0  0  0  0  0  0  0  0  0  0
   -7.4271   -7.6081   23.5876 C   0  0  0  0  0  0  0  0  0  0  0  0
   -3.8909   -7.0172   22.5821 C   0  0  0  0  0  0  0  0  0  0  0  0
   -3.1000   -5.6602   16.5064 C   0  0  0  0  0  0  0  0  0  0  0  0
   -7.3850   -7.3691   21.2494 C   0  0  0  0  0  0  0  0  0  0  0  0
   -8.0825   -7.5812   22.4060 C   0  0  0  0  0  0  0  0  0  0  0  0
   -5.3438   -6.9629   20.0148 C   0  0  0  0  0  0  0  0  0  0  0  0
   -4.9070   -5.8420   17.9326 C   0  0  0  0  0  0  0  0  0  0  0  0
   -3.5600   -5.8220   17.7636 C   0  0  0  0  0  0  0  0  0  0  0  0
   -3.0446   -7.7926   22.1372 O   0  0  0  0  0  0  0  0  0  0  0  0
   -3.4662   -5.8464   23.2629 O   0  0  0  0  0  0  0  0  0  0  0  0
   -5.5154   -5.6381   16.3613 S   0  0  0  0  0  0  0  0  0  0  0  0
  3  1  2  0
  1  5  1  0
  1  7  1  0
  2 11  2  0
 12  2  1  0
  3  9  1  0
 11  3  1  0
  8  4  2  0
  4 16  1  0
  5  6  2  0
 10  6  1  0
  7 14  2  0
  7 15  1  0
 13  8  1  0
  9 10  2  0
 12 13  2  0
 12 16  1  0
M  END
$$$$
