
     RDKit          3D

 16 17  0  0  0  0  0  0  0  0999 V2000
   -5.2627   -6.5377   22.8647 C   0  0  0  0  0  0  0  0  0  0  0  0
   -5.2287   -6.9176   19.3773 C   0  0  0  0  0  0  0  0  0  0  0  0
   -5.9427   -6.5550   21.6540 C   0  0  0  0  0  0  0  0  0  0  0  0
   -3.9932   -5.4420   15.8064 C   0  0  0  0  0  0  0  0  0  0  0  0
   -6.0009   -6.9576   23.9777 C   0  0  0  0  0  0  0  0  0  0  0  0
   -7.3028   -7.3616   23.9038 C   0  0  0  0  0  0  0  0  0  0  0  0
   -3.9005   -6.1289   23.0261 C   0  0  0  0  0  0  0  0  0  0  0  0
   -2.9674   -5.6679   16.6823 C   0  0  0  0  0  0  0  0  0  0  0  0
   -7.2671   -6.9673   21.5866 C   0  0  0  0  0  0  0  0  0  0  0  0
   -7.9361   -7.3668   22.7100 C   0  0  0  0  0  0  0  0  0  0  0  0
   -5.3046   -6.1490   20.4312 C   0  0  0  0  0  0  0  0  0  0  0  0
   -4.6050   -6.3874   18.1429 C   0  0  0  0  0  0  0  0  0  0  0  0
   -3.2895   -6.1594   17.8960 C   0  0  0  0  0  0  0  0  0  0  0  0
   -3.5361   -5.1429   23.6666 O   0  0  0  0  0  0  0  0  0  0  0  0
   -2.9246   -6.9395   22.3897 O   0  0  0  0  0  0  0  0  0  0  0  0
   -5.3738   -5.9221   16.7030 S   0  0  0  0  0  0  0  0  0  0  0  0
  3  1  2  0
  1  5  1  0
  1  7  1  0
  2 11  2  0
 12  2  1  0
  3  9  1  0
 11  3  1  0
  8  4  2  0
  4 16  1  0
  5  6  2  0
 10  6  1  0
  7 14  2  0
  7 15  1  0
 13  8  1  0
  9 10  2  0
 12 13  2  0
 12 16  1  0
M  END
$$$$
