
     RDKit          3D

 16 17  0  0  0  0  0  0  0  0999 V2000
    5.8148   -5.0481   11.9774 C   0  0  0  0  0  0  0  0  0  0  0  0
    3.4550   -5.4291    9.1990 C   0  0  0  0  0  0  0  0  0  0  0  0
    5.2468   -5.5875   10.8609 C   0  0  0  0  0  0  0  0  0  0  0  0
    0.1606   -3.8168    7.3935 C   0  0  0  0  0  0  0  0  0  0  0  0
    7.0023   -5.6390   12.4645 C   0  0  0  0  0  0  0  0  0  0  0  0
    7.5710   -6.7139   11.8465 C   0  0  0  0  0  0  0  0  0  0  0  0
    5.3004   -3.9132   12.7114 C   0  0  0  0  0  0  0  0  0  0  0  0
    0.1372   -3.7959    8.7632 C   0  0  0  0  0  0  0  0  0  0  0  0
    5.8356   -6.6807   10.2422 C   0  0  0  0  0  0  0  0  0  0  0  0
    6.9905   -7.2458   10.7261 C   0  0  0  0  0  0  0  0  0  0  0  0
    4.0273   -5.0190   10.3192 C   0  0  0  0  0  0  0  0  0  0  0  0
    2.2284   -4.8274    8.7270 C   0  0  0  0  0  0  0  0  0  0  0  0
    1.1733   -4.3025    9.4067 C   0  0  0  0  0  0  0  0  0  0  0  0
    4.1214   -3.6249   12.8867 O   0  0  0  0  0  0  0  0  0  0  0  0
    6.2074   -2.9973   13.3178 O   0  0  0  0  0  0  0  0  0  0  0  0
    1.7503   -4.6031    7.0277 S   0  0  0  0  0  0  0  0  0  0  0  0
  3  1  2  0
  1  5  1  0
  1  7  1  0
  2 11  2  0
 12  2  1  0
  3  9  1  0
 11  3  1  0
  8  4  2  0
  4 16  1  0
  5  6  2  0
 10  6  1  0
  7 14  2  0
  7 15  1  0
 13  8  1  0
  9 10  2  0
 12 13  2  0
 12 16  1  0
M  END
$$$$
