
     RDKit          3D

 16 17  0  0  0  0  0  0  0  0999 V2000
   -5.6454   -6.2278   23.2014 C   0  0  0  0  0  0  0  0  0  0  0  0
   -5.5650   -6.9503   19.8027 C   0  0  0  0  0  0  0  0  0  0  0  0
   -6.3619   -6.4213   22.0572 C   0  0  0  0  0  0  0  0  0  0  0  0
   -4.6541   -5.8509   15.9720 C   0  0  0  0  0  0  0  0  0  0  0  0
   -6.2530   -6.5798   24.4275 C   0  0  0  0  0  0  0  0  0  0  0  0
   -7.5143   -7.0970   24.4774 C   0  0  0  0  0  0  0  0  0  0  0  0
   -4.3053   -5.6883   23.2669 C   0  0  0  0  0  0  0  0  0  0  0  0
   -3.6322   -5.7063   16.8731 C   0  0  0  0  0  0  0  0  0  0  0  0
   -7.6436   -6.9481   22.1220 C   0  0  0  0  0  0  0  0  0  0  0  0
   -8.2229   -7.2862   23.3209 C   0  0  0  0  0  0  0  0  0  0  0  0
   -5.7850   -6.0767   20.7717 C   0  0  0  0  0  0  0  0  0  0  0  0
   -5.0787   -6.5212   18.5108 C   0  0  0  0  0  0  0  0  0  0  0  0
   -3.8631   -6.0446   18.1287 C   0  0  0  0  0  0  0  0  0  0  0  0
   -3.2735   -6.3102   23.4963 O   0  0  0  0  0  0  0  0  0  0  0  0
   -4.0956   -4.2959   23.0516 O   0  0  0  0  0  0  0  0  0  0  0  0
   -6.0020   -6.5037   16.9898 S   0  0  0  0  0  0  0  0  0  0  0  0
  3  1  2  0
  1  5  1  0
  1  7  1  0
  2 11  2  0
 12  2  1  0
  3  9  1  0
 11  3  1  0
  8  4  2  0
  4 16  1  0
  5  6  2  0
 10  6  1  0
  7 14  2  0
  7 15  1  0
 13  8  1  0
  9 10  2  0
 12 13  2  0
 12 16  1  0
M  END
$$$$
