
     RDKit          3D

 16 17  0  0  0  0  0  0  0  0999 V2000
   -6.0010   -5.6266   23.5206 C   0  0  0  0  0  0  0  0  0  0  0  0
   -5.9286   -6.8582   20.1000 C   0  0  0  0  0  0  0  0  0  0  0  0
   -6.3569   -6.4222   22.4716 C   0  0  0  0  0  0  0  0  0  0  0  0
   -5.0269   -5.1306   16.5063 C   0  0  0  0  0  0  0  0  0  0  0  0
   -6.3264   -6.0676   24.8229 C   0  0  0  0  0  0  0  0  0  0  0  0
   -6.9750   -7.2486   25.0362 C   0  0  0  0  0  0  0  0  0  0  0  0
   -5.3132   -4.3591   23.4122 C   0  0  0  0  0  0  0  0  0  0  0  0
   -5.8397   -6.2309   16.4307 C   0  0  0  0  0  0  0  0  0  0  0  0
   -7.0162   -7.6209   22.7024 C   0  0  0  0  0  0  0  0  0  0  0  0
   -7.3266   -8.0381   23.9739 C   0  0  0  0  0  0  0  0  0  0  0  0
   -6.0466   -6.0164   21.1140 C   0  0  0  0  0  0  0  0  0  0  0  0
   -5.7115   -6.3761   18.7547 C   0  0  0  0  0  0  0  0  0  0  0  0
   -6.1682   -6.8352   17.5582 C   0  0  0  0  0  0  0  0  0  0  0  0
   -4.3672   -3.9762   24.0923 O   0  0  0  0  0  0  0  0  0  0  0  0
   -5.7308   -3.4130   22.4326 O   0  0  0  0  0  0  0  0  0  0  0  0
   -4.7290   -4.9688   18.2851 S   0  0  0  0  0  0  0  0  0  0  0  0
  3  1  2  0
  1  5  1  0
  1  7  1  0
  2 11  2  0
 12  2  1  0
  3  9  1  0
 11  3  1  0
  8  4  2  0
  4 16  1  0
  5  6  2  0
 10  6  1  0
  7 14  2  0
  7 15  1  0
 13  8  1  0
  9 10  2  0
 12 13  2  0
 12 16  1  0
M  END
$$$$
