
     RDKit          3D

 16 17  0  0  0  0  0  0  0  0999 V2000
   -5.3680   -7.0416   23.4511 C   0  0  0  0  0  0  0  0  0  0  0  0
   -6.1357   -6.8260   19.9328 C   0  0  0  0  0  0  0  0  0  0  0  0
   -6.1750   -6.7885   22.3812 C   0  0  0  0  0  0  0  0  0  0  0  0
   -4.1985   -5.4954   16.5878 C   0  0  0  0  0  0  0  0  0  0  0  0
   -5.9852   -7.3363   24.6876 C   0  0  0  0  0  0  0  0  0  0  0  0
   -7.3426   -7.3695   24.8187 C   0  0  0  0  0  0  0  0  0  0  0  0
   -3.9221   -7.0338   23.4274 C   0  0  0  0  0  0  0  0  0  0  0  0
   -4.6316   -6.7938   16.5266 C   0  0  0  0  0  0  0  0  0  0  0  0
   -7.5540   -6.8254   22.5283 C   0  0  0  0  0  0  0  0  0  0  0  0
   -8.1414   -7.1134   23.7363 C   0  0  0  0  0  0  0  0  0  0  0  0
   -5.5928   -6.4806   21.0889 C   0  0  0  0  0  0  0  0  0  0  0  0
   -5.4792   -6.5200   18.6819 C   0  0  0  0  0  0  0  0  0  0  0  0
   -5.2653   -7.2839   17.5766 C   0  0  0  0  0  0  0  0  0  0  0  0
   -3.1848   -6.1629   23.8767 O   0  0  0  0  0  0  0  0  0  0  0  0
   -3.2218   -8.1232   22.8342 O   0  0  0  0  0  0  0  0  0  0  0  0
   -4.7334   -4.9674   18.2352 S   0  0  0  0  0  0  0  0  0  0  0  0
  3  1  2  0
  1  5  1  0
  1  7  1  0
  2 11  2  0
 12  2  1  0
  3  9  1  0
 11  3  1  0
  8  4  2  0
  4 16  1  0
  5  6  2  0
 10  6  1  0
  7 14  2  0
  7 15  1  0
 13  8  1  0
  9 10  2  0
 12 13  2  0
 12 16  1  0
M  END
$$$$
