
     RDKit          3D

 16 17  0  0  0  0  0  0  0  0999 V2000
   -5.9096   -6.2907   22.1646 C   0  0  0  0  0  0  0  0  0  0  0  0
   -5.5026   -6.1867   18.6051 C   0  0  0  0  0  0  0  0  0  0  0  0
   -6.0514   -6.7903   20.8765 C   0  0  0  0  0  0  0  0  0  0  0  0
   -3.0686   -5.2632   15.4942 C   0  0  0  0  0  0  0  0  0  0  0  0
   -6.8761   -6.7128   23.0853 C   0  0  0  0  0  0  0  0  0  0  0  0
   -7.8986   -7.5580   22.7634 C   0  0  0  0  0  0  0  0  0  0  0  0
   -4.8679   -5.4022   22.5817 C   0  0  0  0  0  0  0  0  0  0  0  0
   -2.3926   -5.4881   16.6616 C   0  0  0  0  0  0  0  0  0  0  0  0
   -7.0942   -7.6497   20.5565 C   0  0  0  0  0  0  0  0  0  0  0  0
   -8.0085   -8.0265   21.5006 C   0  0  0  0  0  0  0  0  0  0  0  0
   -5.1287   -6.4384   19.8315 C   0  0  0  0  0  0  0  0  0  0  0  0
   -4.4728   -5.8672   17.5896 C   0  0  0  0  0  0  0  0  0  0  0  0
   -3.1260   -5.8019   17.7488 C   0  0  0  0  0  0  0  0  0  0  0  0
   -5.0511   -4.2787   23.0502 O   0  0  0  0  0  0  0  0  0  0  0  0
   -3.5401   -5.8807   22.4312 O   0  0  0  0  0  0  0  0  0  0  0  0
   -4.7053   -5.4964   15.9497 S   0  0  0  0  0  0  0  0  0  0  0  0
  3  1  2  0
  1  5  1  0
  1  7  1  0
  2 11  2  0
 12  2  1  0
  3  9  1  0
 11  3  1  0
  8  4  2  0
  4 16  1  0
  5  6  2  0
 10  6  1  0
  7 14  2  0
  7 15  1  0
 13  8  1  0
  9 10  2  0
 12 13  2  0
 12 16  1  0
M  END
$$$$
