
     RDKit          3D

 16 17  0  0  0  0  0  0  0  0999 V2000
   -6.1861   -5.4982   22.9695 C   0  0  0  0  0  0  0  0  0  0  0  0
   -4.7119   -6.4396   19.7985 C   0  0  0  0  0  0  0  0  0  0  0  0
   -5.8355   -6.3610   21.9731 C   0  0  0  0  0  0  0  0  0  0  0  0
   -4.6128   -5.0161   15.9675 C   0  0  0  0  0  0  0  0  0  0  0  0
   -6.4576   -6.0401   24.2459 C   0  0  0  0  0  0  0  0  0  0  0  0
   -6.3749   -7.3804   24.4855 C   0  0  0  0  0  0  0  0  0  0  0  0
   -6.3047   -4.0638   22.8293 C   0  0  0  0  0  0  0  0  0  0  0  0
   -3.4174   -4.9631   16.6347 C   0  0  0  0  0  0  0  0  0  0  0  0
   -5.7552   -7.7219   22.2303 C   0  0  0  0  0  0  0  0  0  0  0  0
   -6.0218   -8.2358   23.4761 C   0  0  0  0  0  0  0  0  0  0  0  0
   -5.5463   -5.8571   20.6441 C   0  0  0  0  0  0  0  0  0  0  0  0
   -4.5020   -5.9034   18.4727 C   0  0  0  0  0  0  0  0  0  0  0  0
   -3.3831   -5.4084   17.8776 C   0  0  0  0  0  0  0  0  0  0  0  0
   -7.3394   -3.4240   22.6742 O   0  0  0  0  0  0  0  0  0  0  0  0
   -5.1338   -3.2535   22.8670 O   0  0  0  0  0  0  0  0  0  0  0  0
   -5.7295   -5.7414   17.1947 S   0  0  0  0  0  0  0  0  0  0  0  0
  3  1  2  0
  1  5  1  0
  1  7  1  0
  2 11  2  0
 12  2  1  0
  3  9  1  0
 11  3  1  0
  8  4  2  0
  4 16  1  0
  5  6  2  0
 10  6  1  0
  7 14  2  0
  7 15  1  0
 13  8  1  0
  9 10  2  0
 12 13  2  0
 12 16  1  0
M  END
$$$$
