
     RDKit          3D

 16 17  0  0  0  0  0  0  0  0999 V2000
   -6.2434   -5.4415   23.4141 C   0  0  0  0  0  0  0  0  0  0  0  0
   -5.8792   -6.9221   20.0851 C   0  0  0  0  0  0  0  0  0  0  0  0
   -6.3660   -6.3622   22.3817 C   0  0  0  0  0  0  0  0  0  0  0  0
   -4.5622   -5.7096   16.4449 C   0  0  0  0  0  0  0  0  0  0  0  0
   -6.6470   -5.8927   24.6764 C   0  0  0  0  0  0  0  0  0  0  0  0
   -7.1318   -7.1486   24.9030 C   0  0  0  0  0  0  0  0  0  0  0  0
   -5.7455   -4.1085   23.2594 C   0  0  0  0  0  0  0  0  0  0  0  0
   -5.9246   -5.7983   16.5252 C   0  0  0  0  0  0  0  0  0  0  0  0
   -6.8600   -7.6380   22.6199 C   0  0  0  0  0  0  0  0  0  0  0  0
   -7.2386   -8.0211   23.8765 C   0  0  0  0  0  0  0  0  0  0  0  0
   -5.9879   -6.0311   21.0346 C   0  0  0  0  0  0  0  0  0  0  0  0
   -5.5778   -6.4721   18.7066 C   0  0  0  0  0  0  0  0  0  0  0  0
   -6.4488   -6.1951   17.7026 C   0  0  0  0  0  0  0  0  0  0  0  0
   -6.2670   -3.2429   22.5566 O   0  0  0  0  0  0  0  0  0  0  0  0
   -4.5646   -3.7942   23.9814 O   0  0  0  0  0  0  0  0  0  0  0  0
   -4.0557   -6.1821   18.0136 S   0  0  0  0  0  0  0  0  0  0  0  0
  3  1  2  0
  1  5  1  0
  1  7  1  0
  2 11  2  0
 12  2  1  0
  3  9  1  0
 11  3  1  0
  8  4  2  0
  4 16  1  0
  5  6  2  0
 10  6  1  0
  7 14  2  0
  7 15  1  0
 13  8  1  0
  9 10  2  0
 12 13  2  0
 12 16  1  0
M  END
$$$$
