
     RDKit          3D

 16 17  0  0  0  0  0  0  0  0999 V2000
   -5.2781   -6.9817   23.1115 C   0  0  0  0  0  0  0  0  0  0  0  0
   -5.9552   -6.3867   19.6125 C   0  0  0  0  0  0  0  0  0  0  0  0
   -6.0255   -6.5516   22.0549 C   0  0  0  0  0  0  0  0  0  0  0  0
   -3.6047   -5.2394   16.4706 C   0  0  0  0  0  0  0  0  0  0  0  0
   -5.9517   -7.2843   24.3162 C   0  0  0  0  0  0  0  0  0  0  0  0
   -7.3048   -7.1542   24.4303 C   0  0  0  0  0  0  0  0  0  0  0  0
   -3.8425   -7.1558   23.1036 C   0  0  0  0  0  0  0  0  0  0  0  0
   -4.7674   -5.8740   16.1208 C   0  0  0  0  0  0  0  0  0  0  0  0
   -7.4009   -6.4238   22.1844 C   0  0  0  0  0  0  0  0  0  0  0  0
   -8.0435   -6.7213   23.3615 C   0  0  0  0  0  0  0  0  0  0  0  0
   -5.3838   -6.2275   20.7951 C   0  0  0  0  0  0  0  0  0  0  0  0
   -5.2509   -6.0526   18.3952 C   0  0  0  0  0  0  0  0  0  0  0  0
   -5.5713   -6.2700   17.0910 C   0  0  0  0  0  0  0  0  0  0  0  0
   -3.0332   -6.6172   23.8513 O   0  0  0  0  0  0  0  0  0  0  0  0
   -3.2446   -8.0311   22.1521 O   0  0  0  0  0  0  0  0  0  0  0  0
   -3.6836   -5.2180   18.2795 S   0  0  0  0  0  0  0  0  0  0  0  0
  3  1  2  0
  1  5  1  0
  1  7  1  0
  2 11  2  0
 12  2  1  0
  3  9  1  0
 11  3  1  0
  8  4  2  0
  4 16  1  0
  5  6  2  0
 10  6  1  0
  7 14  2  0
  7 15  1  0
 13  8  1  0
  9 10  2  0
 12 13  2  0
 12 16  1  0
M  END
$$$$
