
     RDKit          3D

 16 17  0  0  0  0  0  0  0  0999 V2000
   -6.3348   -5.6741   23.4357 C   0  0  0  0  0  0  0  0  0  0  0  0
   -5.6402   -6.9445   20.2271 C   0  0  0  0  0  0  0  0  0  0  0  0
   -6.7555   -6.3387   22.3215 C   0  0  0  0  0  0  0  0  0  0  0  0
   -4.5722   -6.3260   16.3297 C   0  0  0  0  0  0  0  0  0  0  0  0
   -6.9380   -6.0069   24.6693 C   0  0  0  0  0  0  0  0  0  0  0  0
   -7.9101   -6.9599   24.7553 C   0  0  0  0  0  0  0  0  0  0  0  0
   -5.3152   -4.6489   23.4618 C   0  0  0  0  0  0  0  0  0  0  0  0
   -4.0301   -5.4416   17.2247 C   0  0  0  0  0  0  0  0  0  0  0  0
   -7.7451   -7.3058   22.4230 C   0  0  0  0  0  0  0  0  0  0  0  0
   -8.3234   -7.6198   23.6288 C   0  0  0  0  0  0  0  0  0  0  0  0
   -6.1692   -6.0355   21.0299 C   0  0  0  0  0  0  0  0  0  0  0  0
   -5.1651   -6.5867   18.9096 C   0  0  0  0  0  0  0  0  0  0  0  0
   -4.3367   -5.5879   18.5010 C   0  0  0  0  0  0  0  0  0  0  0  0
   -4.1229   -4.7921   23.2129 O   0  0  0  0  0  0  0  0  0  0  0  0
   -5.6691   -3.3125   23.8053 O   0  0  0  0  0  0  0  0  0  0  0  0
   -5.5657   -7.4117   17.3847 S   0  0  0  0  0  0  0  0  0  0  0  0
  3  1  2  0
  1  5  1  0
  1  7  1  0
  2 11  2  0
 12  2  1  0
  3  9  1  0
 11  3  1  0
  8  4  2  0
  4 16  1  0
  5  6  2  0
 10  6  1  0
  7 14  2  0
  7 15  1  0
 13  8  1  0
  9 10  2  0
 12 13  2  0
 12 16  1  0
M  END
$$$$
