
     RDKit          3D

 16 17  0  0  0  0  0  0  0  0999 V2000
   -6.0144   -5.6034   22.7600 C   0  0  0  0  0  0  0  0  0  0  0  0
   -5.8052   -6.5043   19.2481 C   0  0  0  0  0  0  0  0  0  0  0  0
   -6.0887   -6.4259   21.6435 C   0  0  0  0  0  0  0  0  0  0  0  0
   -4.2268   -5.3440   15.6960 C   0  0  0  0  0  0  0  0  0  0  0  0
   -6.7260   -6.0437   23.8825 C   0  0  0  0  0  0  0  0  0  0  0  0
   -7.4514   -7.1999   23.9032 C   0  0  0  0  0  0  0  0  0  0  0  0
   -5.2773   -4.3780   22.8192 C   0  0  0  0  0  0  0  0  0  0  0  0
   -3.3143   -5.3576   16.7146 C   0  0  0  0  0  0  0  0  0  0  0  0
   -6.8288   -7.6007   21.6721 C   0  0  0  0  0  0  0  0  0  0  0  0
   -7.5034   -7.9783   22.7997 C   0  0  0  0  0  0  0  0  0  0  0  0
   -5.4059   -6.0940   20.4226 C   0  0  0  0  0  0  0  0  0  0  0  0
   -5.0673   -6.0631   18.0420 C   0  0  0  0  0  0  0  0  0  0  0  0
   -3.7550   -5.7320   17.9328 C   0  0  0  0  0  0  0  0  0  0  0  0
   -5.3945   -3.4504   22.0185 O   0  0  0  0  0  0  0  0  0  0  0  0
   -4.3531   -4.2550   23.8895 O   0  0  0  0  0  0  0  0  0  0  0  0
   -5.6700   -5.8537   16.4692 S   0  0  0  0  0  0  0  0  0  0  0  0
  3  1  2  0
  1  5  1  0
  1  7  1  0
  2 11  2  0
 12  2  1  0
  3  9  1  0
 11  3  1  0
  8  4  2  0
  4 16  1  0
  5  6  2  0
 10  6  1  0
  7 14  2  0
  7 15  1  0
 13  8  1  0
  9 10  2  0
 12 13  2  0
 12 16  1  0
M  END
$$$$
