
     RDKit          3D

 16 17  0  0  0  0  0  0  0  0999 V2000
   -6.3512   -5.4201   23.6854 C   0  0  0  0  0  0  0  0  0  0  0  0
   -5.5056   -7.0292   20.6818 C   0  0  0  0  0  0  0  0  0  0  0  0
   -6.7367   -6.1053   22.5406 C   0  0  0  0  0  0  0  0  0  0  0  0
   -3.9274   -6.6606   16.9631 C   0  0  0  0  0  0  0  0  0  0  0  0
   -7.1642   -5.6155   24.8083 C   0  0  0  0  0  0  0  0  0  0  0  0
   -8.2669   -6.4202   24.8037 C   0  0  0  0  0  0  0  0  0  0  0  0
   -5.2112   -4.5591   23.7722 C   0  0  0  0  0  0  0  0  0  0  0  0
   -3.1099   -6.1784   17.9478 C   0  0  0  0  0  0  0  0  0  0  0  0
   -7.8598   -6.9221   22.5435 C   0  0  0  0  0  0  0  0  0  0  0  0
   -8.6152   -7.0733   23.6730 C   0  0  0  0  0  0  0  0  0  0  0  0
   -5.9916   -5.9954   21.3159 C   0  0  0  0  0  0  0  0  0  0  0  0
   -4.7818   -6.8171   19.4071 C   0  0  0  0  0  0  0  0  0  0  0  0
   -3.5575   -6.2615   19.2171 C   0  0  0  0  0  0  0  0  0  0  0  0
   -5.1603   -3.4159   23.3185 O   0  0  0  0  0  0  0  0  0  0  0  0
   -4.0743   -5.0914   24.4347 O   0  0  0  0  0  0  0  0  0  0  0  0
   -5.2940   -7.2145   17.8385 S   0  0  0  0  0  0  0  0  0  0  0  0
  3  1  2  0
  1  5  1  0
  1  7  1  0
  2 11  2  0
 12  2  1  0
  3  9  1  0
 11  3  1  0
  8  4  2  0
  4 16  1  0
  5  6  2  0
 10  6  1  0
  7 14  2  0
  7 15  1  0
 13  8  1  0
  9 10  2  0
 12 13  2  0
 12 16  1  0
M  END
$$$$
