
     RDKit          3D

 16 17  0  0  0  0  0  0  0  0999 V2000
   -5.3049   -6.9182   22.9603 C   0  0  0  0  0  0  0  0  0  0  0  0
   -5.5949   -7.1542   19.4619 C   0  0  0  0  0  0  0  0  0  0  0  0
   -6.0408   -6.7366   21.7967 C   0  0  0  0  0  0  0  0  0  0  0  0
   -4.2516   -6.0755   15.7893 C   0  0  0  0  0  0  0  0  0  0  0  0
   -6.0532   -7.1946   24.1108 C   0  0  0  0  0  0  0  0  0  0  0  0
   -7.4153   -7.2847   24.1145 C   0  0  0  0  0  0  0  0  0  0  0  0
   -3.8779   -6.8402   23.0400 C   0  0  0  0  0  0  0  0  0  0  0  0
   -3.2777   -6.0539   16.7493 C   0  0  0  0  0  0  0  0  0  0  0  0
   -7.4264   -6.8299   21.8082 C   0  0  0  0  0  0  0  0  0  0  0  0
   -8.1022   -7.1027   22.9649 C   0  0  0  0  0  0  0  0  0  0  0  0
   -5.3995   -6.4469   20.5429 C   0  0  0  0  0  0  0  0  0  0  0  0
   -4.9377   -6.7390   18.2011 C   0  0  0  0  0  0  0  0  0  0  0  0
   -3.6383   -6.3995   18.0019 C   0  0  0  0  0  0  0  0  0  0  0  0
   -3.2576   -6.0126   23.7076 O   0  0  0  0  0  0  0  0  0  0  0  0
   -3.1559   -7.7998   22.2835 O   0  0  0  0  0  0  0  0  0  0  0  0
   -5.6389   -6.5769   16.6639 S   0  0  0  0  0  0  0  0  0  0  0  0
  3  1  2  0
  1  5  1  0
  1  7  1  0
  2 11  2  0
 12  2  1  0
  3  9  1  0
 11  3  1  0
  8  4  2  0
  4 16  1  0
  5  6  2  0
 10  6  1  0
  7 14  2  0
  7 15  1  0
 13  8  1  0
  9 10  2  0
 12 13  2  0
 12 16  1  0
M  END
$$$$
