
     RDKit          3D

 16 17  0  0  0  0  0  0  0  0999 V2000
   -6.3111   -5.4869   23.5465 C   0  0  0  0  0  0  0  0  0  0  0  0
   -6.1600   -6.2689   20.0615 C   0  0  0  0  0  0  0  0  0  0  0  0
   -6.5238   -6.3137   22.4829 C   0  0  0  0  0  0  0  0  0  0  0  0
   -3.8143   -6.5186   16.7227 C   0  0  0  0  0  0  0  0  0  0  0  0
   -7.1463   -5.6372   24.6762 C   0  0  0  0  0  0  0  0  0  0  0  0
   -8.1362   -6.5751   24.7132 C   0  0  0  0  0  0  0  0  0  0  0  0
   -5.2946   -4.4606   23.6168 C   0  0  0  0  0  0  0  0  0  0  0  0
   -3.6722   -5.3622   17.4435 C   0  0  0  0  0  0  0  0  0  0  0  0
   -7.5340   -7.2632   22.5336 C   0  0  0  0  0  0  0  0  0  0  0  0
   -8.3392   -7.3990   23.6383 C   0  0  0  0  0  0  0  0  0  0  0  0
   -5.6946   -6.2014   21.2982 C   0  0  0  0  0  0  0  0  0  0  0  0
   -5.2684   -6.1942   18.9262 C   0  0  0  0  0  0  0  0  0  0  0  0
   -4.4031   -5.2203   18.5344 C   0  0  0  0  0  0  0  0  0  0  0  0
   -5.4615   -3.2799   23.9034 O   0  0  0  0  0  0  0  0  0  0  0  0
   -3.9384   -4.7924   23.3347 O   0  0  0  0  0  0  0  0  0  0  0  0
   -5.0583   -7.4343   17.6675 S   0  0  0  0  0  0  0  0  0  0  0  0
  3  1  2  0
  1  5  1  0
  1  7  1  0
  2 11  2  0
 12  2  1  0
  3  9  1  0
 11  3  1  0
  8  4  2  0
  4 16  1  0
  5  6  2  0
 10  6  1  0
  7 14  2  0
  7 15  1  0
 13  8  1  0
  9 10  2  0
 12 13  2  0
 12 16  1  0
M  END
$$$$
