
     RDKit          3D

 16 17  0  0  0  0  0  0  0  0999 V2000
   -5.3535   -6.5353   23.2409 C   0  0  0  0  0  0  0  0  0  0  0  0
   -5.7852   -6.5364   19.6657 C   0  0  0  0  0  0  0  0  0  0  0  0
   -6.0810   -6.4135   22.0937 C   0  0  0  0  0  0  0  0  0  0  0  0
   -4.2676   -5.5403   16.0028 C   0  0  0  0  0  0  0  0  0  0  0  0
   -6.0436   -6.8734   24.4266 C   0  0  0  0  0  0  0  0  0  0  0  0
   -7.3929   -7.0738   24.4358 C   0  0  0  0  0  0  0  0  0  0  0  0
   -3.9238   -6.3461   23.3476 C   0  0  0  0  0  0  0  0  0  0  0  0
   -3.4736   -5.2050   17.0678 C   0  0  0  0  0  0  0  0  0  0  0  0
   -7.4527   -6.6199   22.1169 C   0  0  0  0  0  0  0  0  0  0  0  0
   -8.1115   -6.9483   23.2768 C   0  0  0  0  0  0  0  0  0  0  0  0
   -5.4218   -6.0682   20.8487 C   0  0  0  0  0  0  0  0  0  0  0  0
   -5.1067   -6.1180   18.4599 C   0  0  0  0  0  0  0  0  0  0  0  0
   -3.9081   -5.5003   18.2796 C   0  0  0  0  0  0  0  0  0  0  0  0
   -3.3423   -5.5152   24.0371 O   0  0  0  0  0  0  0  0  0  0  0  0
   -3.0453   -7.1807   22.5986 O   0  0  0  0  0  0  0  0  0  0  0  0
   -5.7006   -6.3146   16.7941 S   0  0  0  0  0  0  0  0  0  0  0  0
  3  1  2  0
  1  5  1  0
  1  7  1  0
  2 11  2  0
 12  2  1  0
  3  9  1  0
 11  3  1  0
  8  4  2  0
  4 16  1  0
  5  6  2  0
 10  6  1  0
  7 14  2  0
  7 15  1  0
 13  8  1  0
  9 10  2  0
 12 13  2  0
 12 16  1  0
M  END
$$$$
