
     RDKit          3D

 16 17  0  0  0  0  0  0  0  0999 V2000
   -4.3425   -6.6731   21.2617 C   0  0  0  0  0  0  0  0  0  0  0  0
   -7.2721   -6.9153   23.3782 C   0  0  0  0  0  0  0  0  0  0  0  0
   -5.6727   -6.5919   21.5520 C   0  0  0  0  0  0  0  0  0  0  0  0
   -8.3585   -9.3214   26.4995 C   0  0  0  0  0  0  0  0  0  0  0  0
   -3.8668   -5.9544   20.1420 C   0  0  0  0  0  0  0  0  0  0  0  0
   -4.7011   -5.2008   19.3695 C   0  0  0  0  0  0  0  0  0  0  0  0
   -3.3695   -7.4388   22.0088 C   0  0  0  0  0  0  0  0  0  0  0  0
   -9.4002   -8.8424   25.7494 C   0  0  0  0  0  0  0  0  0  0  0  0
   -6.5102   -5.8219   20.7581 C   0  0  0  0  0  0  0  0  0  0  0  0
   -6.0347   -5.1279   19.6720 C   0  0  0  0  0  0  0  0  0  0  0  0
   -6.2129   -7.3101   22.6905 C   0  0  0  0  0  0  0  0  0  0  0  0
   -7.8264   -7.7393   24.4285 C   0  0  0  0  0  0  0  0  0  0  0  0
   -9.1151   -8.0585   24.7254 C   0  0  0  0  0  0  0  0  0  0  0  0
   -2.1489   -7.3423   21.9398 O   0  0  0  0  0  0  0  0  0  0  0  0
   -3.8117   -8.4237   22.9381 O   0  0  0  0  0  0  0  0  0  0  0  0
   -6.9093   -8.6043   25.6843 S   0  0  0  0  0  0  0  0  0  0  0  0
  3  1  2  0
  1  5  1  0
  1  7  1  0
  2 11  2  0
 12  2  1  0
  3  9  1  0
 11  3  1  0
  8  4  2  0
  4 16  1  0
  5  6  2  0
 10  6  1  0
  7 14  2  0
  7 15  1  0
 13  8  1  0
  9 10  2  0
 12 13  2  0
 12 16  1  0
M  END
$$$$
