
     RDKit          3D

 16 17  0  0  0  0  0  0  0  0999 V2000
   -5.3179   -6.5712   23.0746 C   0  0  0  0  0  0  0  0  0  0  0  0
   -5.9709   -6.5349   19.4696 C   0  0  0  0  0  0  0  0  0  0  0  0
   -5.9655   -6.8027   21.8681 C   0  0  0  0  0  0  0  0  0  0  0  0
   -3.5715   -5.4784   16.3741 C   0  0  0  0  0  0  0  0  0  0  0  0
   -6.0437   -6.9082   24.2235 C   0  0  0  0  0  0  0  0  0  0  0  0
   -7.3044   -7.4305   24.1866 C   0  0  0  0  0  0  0  0  0  0  0  0
   -3.9997   -6.0276   23.1984 C   0  0  0  0  0  0  0  0  0  0  0  0
   -4.8440   -5.7973   15.9876 C   0  0  0  0  0  0  0  0  0  0  0  0
   -7.2481   -7.3344   21.8384 C   0  0  0  0  0  0  0  0  0  0  0  0
   -7.9068   -7.6438   22.9958 C   0  0  0  0  0  0  0  0  0  0  0  0
   -5.3357   -6.5024   20.6110 C   0  0  0  0  0  0  0  0  0  0  0  0
   -5.2427   -6.1785   18.2300 C   0  0  0  0  0  0  0  0  0  0  0  0
   -5.7100   -6.1608   16.9553 C   0  0  0  0  0  0  0  0  0  0  0  0
   -2.9686   -6.6046   22.8530 O   0  0  0  0  0  0  0  0  0  0  0  0
   -3.9093   -4.7288   23.7635 O   0  0  0  0  0  0  0  0  0  0  0  0
   -3.6230   -5.6956   18.0743 S   0  0  0  0  0  0  0  0  0  0  0  0
  3  1  2  0
  1  5  1  0
  1  7  1  0
  2 11  2  0
 12  2  1  0
  3  9  1  0
 11  3  1  0
  8  4  2  0
  4 16  1  0
  5  6  2  0
 10  6  1  0
  7 14  2  0
  7 15  1  0
 13  8  1  0
  9 10  2  0
 12 13  2  0
 12 16  1  0
M  END
$$$$
