
     RDKit          3D

 16 17  0  0  0  0  0  0  0  0999 V2000
   -5.0209   -6.1069   23.6249 C   0  0  0  0  0  0  0  0  0  0  0  0
   -5.1497   -6.8032   20.0263 C   0  0  0  0  0  0  0  0  0  0  0  0
   -4.8084   -6.7546   22.4149 C   0  0  0  0  0  0  0  0  0  0  0  0
   -6.2428   -5.2433   16.4447 C   0  0  0  0  0  0  0  0  0  0  0  0
   -4.5358   -6.7706   24.7581 C   0  0  0  0  0  0  0  0  0  0  0  0
   -3.8938   -7.9740   24.7037 C   0  0  0  0  0  0  0  0  0  0  0  0
   -5.6840   -4.8464   23.7666 C   0  0  0  0  0  0  0  0  0  0  0  0
   -7.1003   -4.9199   17.4599 C   0  0  0  0  0  0  0  0  0  0  0  0
   -4.1544   -7.9787   22.3674 C   0  0  0  0  0  0  0  0  0  0  0  0
   -3.7027   -8.5783   23.5101 C   0  0  0  0  0  0  0  0  0  0  0  0
   -5.2550   -6.1851   21.1726 C   0  0  0  0  0  0  0  0  0  0  0  0
   -5.6941   -6.1595   18.8085 C   0  0  0  0  0  0  0  0  0  0  0  0
   -6.8117   -5.3980   18.6873 C   0  0  0  0  0  0  0  0  0  0  0  0
   -5.1426   -3.8090   24.1488 O   0  0  0  0  0  0  0  0  0  0  0  0
   -7.0638   -4.8247   23.4346 O   0  0  0  0  0  0  0  0  0  0  0  0
   -5.0616   -6.2038   17.2340 S   0  0  0  0  0  0  0  0  0  0  0  0
  3  1  2  0
  1  5  1  0
  1  7  1  0
  2 11  2  0
 12  2  1  0
  3  9  1  0
 11  3  1  0
  8  4  2  0
  4 16  1  0
  5  6  2  0
 10  6  1  0
  7 14  2  0
  7 15  1  0
 13  8  1  0
  9 10  2  0
 12 13  2  0
 12 16  1  0
M  END
$$$$
