
     RDKit          3D

 16 17  0  0  0  0  0  0  0  0999 V2000
   -5.1134   -6.5528   23.2071 C   0  0  0  0  0  0  0  0  0  0  0  0
   -5.5284   -6.9125   19.6782 C   0  0  0  0  0  0  0  0  0  0  0  0
   -5.8810   -6.5925   22.0805 C   0  0  0  0  0  0  0  0  0  0  0  0
   -3.4153   -5.7053   16.3934 C   0  0  0  0  0  0  0  0  0  0  0  0
   -5.7223   -6.9043   24.4328 C   0  0  0  0  0  0  0  0  0  0  0  0
   -7.0340   -7.2728   24.4992 C   0  0  0  0  0  0  0  0  0  0  0  0
   -3.7174   -6.1782   23.2542 C   0  0  0  0  0  0  0  0  0  0  0  0
   -4.7553   -5.8953   16.1807 C   0  0  0  0  0  0  0  0  0  0  0  0
   -7.2137   -6.9691   22.1621 C   0  0  0  0  0  0  0  0  0  0  0  0
   -7.7936   -7.3085   23.3603 C   0  0  0  0  0  0  0  0  0  0  0  0
   -5.3052   -6.2413   20.7964 C   0  0  0  0  0  0  0  0  0  0  0  0
   -4.9379   -6.4918   18.4277 C   0  0  0  0  0  0  0  0  0  0  0  0
   -5.4941   -6.2858   17.2034 C   0  0  0  0  0  0  0  0  0  0  0  0
   -2.7816   -6.7624   22.7186 O   0  0  0  0  0  0  0  0  0  0  0  0
   -3.3237   -5.0191   23.9828 O   0  0  0  0  0  0  0  0  0  0  0  0
   -3.2226   -6.1101   18.1479 S   0  0  0  0  0  0  0  0  0  0  0  0
  3  1  2  0
  1  5  1  0
  1  7  1  0
  2 11  2  0
 12  2  1  0
  3  9  1  0
 11  3  1  0
  8  4  2  0
  4 16  1  0
  5  6  2  0
 10  6  1  0
  7 14  2  0
  7 15  1  0
 13  8  1  0
  9 10  2  0
 12 13  2  0
 12 16  1  0
M  END
$$$$
