
     RDKit          3D

 16 17  0  0  0  0  0  0  0  0999 V2000
   -5.6181   -6.2805   23.2998 C   0  0  0  0  0  0  0  0  0  0  0  0
   -5.6957   -6.7563   19.8141 C   0  0  0  0  0  0  0  0  0  0  0  0
   -6.3302   -6.3759   22.1113 C   0  0  0  0  0  0  0  0  0  0  0  0
   -4.3659   -5.7354   16.1202 C   0  0  0  0  0  0  0  0  0  0  0  0
   -6.2981   -6.7071   24.4468 C   0  0  0  0  0  0  0  0  0  0  0  0
   -7.5754   -7.1883   24.4247 C   0  0  0  0  0  0  0  0  0  0  0  0
   -4.2784   -5.7882   23.4073 C   0  0  0  0  0  0  0  0  0  0  0  0
   -4.1353   -4.7722   17.0634 C   0  0  0  0  0  0  0  0  0  0  0  0
   -7.6293   -6.8665   22.0967 C   0  0  0  0  0  0  0  0  0  0  0  0
   -8.2412   -7.2683   23.2514 C   0  0  0  0  0  0  0  0  0  0  0  0
   -5.7524   -5.9726   20.8581 C   0  0  0  0  0  0  0  0  0  0  0  0
   -5.1536   -6.2238   18.5427 C   0  0  0  0  0  0  0  0  0  0  0  0
   -4.5463   -5.0298   18.3216 C   0  0  0  0  0  0  0  0  0  0  0  0
   -3.2743   -6.4061   23.0535 O   0  0  0  0  0  0  0  0  0  0  0  0
   -4.1315   -4.4916   23.9659 O   0  0  0  0  0  0  0  0  0  0  0  0
   -5.1483   -6.9694   17.0179 S   0  0  0  0  0  0  0  0  0  0  0  0
  3  1  2  0
  1  5  1  0
  1  7  1  0
  2 11  2  0
 12  2  1  0
  3  9  1  0
 11  3  1  0
  8  4  2  0
  4 16  1  0
  5  6  2  0
 10  6  1  0
  7 14  2  0
  7 15  1  0
 13  8  1  0
  9 10  2  0
 12 13  2  0
 12 16  1  0
M  END
$$$$
