
     RDKit          3D

 16 17  0  0  0  0  0  0  0  0999 V2000
   -0.7268   -6.5064   22.3250 C   0  0  0  0  0  0  0  0  0  0  0  0
    0.1271   -7.7725   19.1486 C   0  0  0  0  0  0  0  0  0  0  0  0
   -1.0956   -7.0167   21.0872 C   0  0  0  0  0  0  0  0  0  0  0  0
    2.0761   -6.8731   15.7065 C   0  0  0  0  0  0  0  0  0  0  0  0
   -1.6027   -6.7896   23.3798 C   0  0  0  0  0  0  0  0  0  0  0  0
   -2.7484   -7.5161   23.2275 C   0  0  0  0  0  0  0  0  0  0  0  0
    0.4554   -5.7369   22.5675 C   0  0  0  0  0  0  0  0  0  0  0  0
    2.9141   -7.0444   16.7736 C   0  0  0  0  0  0  0  0  0  0  0  0
   -2.2626   -7.7549   20.9399 C   0  0  0  0  0  0  0  0  0  0  0  0
   -3.0789   -7.9987   22.0092 C   0  0  0  0  0  0  0  0  0  0  0  0
   -0.2874   -6.8011   19.9178 C   0  0  0  0  0  0  0  0  0  0  0  0
    0.9956   -7.4543   17.9917 C   0  0  0  0  0  0  0  0  0  0  0  0
    2.3487   -7.3465   17.9599 C   0  0  0  0  0  0  0  0  0  0  0  0
    0.4644   -4.5798   22.9875 O   0  0  0  0  0  0  0  0  0  0  0  0
    1.6893   -6.3829   22.2941 O   0  0  0  0  0  0  0  0  0  0  0  0
    0.5265   -7.1387   16.3913 S   0  0  0  0  0  0  0  0  0  0  0  0
  3  1  2  0
  1  5  1  0
  1  7  1  0
  2 11  2  0
 12  2  1  0
  3  9  1  0
 11  3  1  0
  8  4  2  0
  4 16  1  0
  5  6  2  0
 10  6  1  0
  7 14  2  0
  7 15  1  0
 13  8  1  0
  9 10  2  0
 12 13  2  0
 12 16  1  0
M  END
$$$$
