
     RDKit          3D

 16 17  0  0  0  0  0  0  0  0999 V2000
   -6.7858   -5.9747   24.4593 C   0  0  0  0  0  0  0  0  0  0  0  0
   -6.6886   -7.5982   21.1754 C   0  0  0  0  0  0  0  0  0  0  0  0
   -7.0484   -6.9042   23.4963 C   0  0  0  0  0  0  0  0  0  0  0  0
   -4.6861   -6.6468   17.7407 C   0  0  0  0  0  0  0  0  0  0  0  0
   -7.4295   -6.1197   25.7087 C   0  0  0  0  0  0  0  0  0  0  0  0
   -8.2873   -7.1513   25.9552 C   0  0  0  0  0  0  0  0  0  0  0  0
   -5.8972   -4.8438   24.3089 C   0  0  0  0  0  0  0  0  0  0  0  0
   -5.3179   -7.8623   17.7233 C   0  0  0  0  0  0  0  0  0  0  0  0
   -7.9229   -7.9484   23.7601 C   0  0  0  0  0  0  0  0  0  0  0  0
   -8.5422   -8.0777   24.9795 C   0  0  0  0  0  0  0  0  0  0  0  0
   -6.4140   -6.8021   22.1959 C   0  0  0  0  0  0  0  0  0  0  0  0
   -6.0366   -7.4210   19.8976 C   0  0  0  0  0  0  0  0  0  0  0  0
   -5.9831   -8.2285   18.8040 C   0  0  0  0  0  0  0  0  0  0  0  0
   -5.8608   -4.0583   23.3678 O   0  0  0  0  0  0  0  0  0  0  0  0
   -4.9412   -4.5595   25.3260 O   0  0  0  0  0  0  0  0  0  0  0  0
   -5.0743   -6.0123   19.3916 S   0  0  0  0  0  0  0  0  0  0  0  0
  3  1  2  0
  1  5  1  0
  1  7  1  0
  2 11  2  0
 12  2  1  0
  3  9  1  0
 11  3  1  0
  8  4  2  0
  4 16  1  0
  5  6  2  0
 10  6  1  0
  7 14  2  0
  7 15  1  0
 13  8  1  0
  9 10  2  0
 12 13  2  0
 12 16  1  0
M  END
$$$$
