
     RDKit          3D

 16 17  0  0  0  0  0  0  0  0999 V2000
   -5.2797   -6.8792   22.8336 C   0  0  0  0  0  0  0  0  0  0  0  0
   -5.7118   -6.6803   19.2947 C   0  0  0  0  0  0  0  0  0  0  0  0
   -6.0095   -6.5898   21.6880 C   0  0  0  0  0  0  0  0  0  0  0  0
   -4.1542   -5.4128   15.7701 C   0  0  0  0  0  0  0  0  0  0  0  0
   -6.0357   -7.2340   23.9572 C   0  0  0  0  0  0  0  0  0  0  0  0
   -7.3993   -7.2984   23.9526 C   0  0  0  0  0  0  0  0  0  0  0  0
   -3.8518   -6.8349   22.9204 C   0  0  0  0  0  0  0  0  0  0  0  0
   -3.2039   -5.6763   16.7178 C   0  0  0  0  0  0  0  0  0  0  0  0
   -7.3966   -6.6575   21.6909 C   0  0  0  0  0  0  0  0  0  0  0  0
   -8.0800   -7.0106   22.8211 C   0  0  0  0  0  0  0  0  0  0  0  0
   -5.3599   -6.2114   20.4624 C   0  0  0  0  0  0  0  0  0  0  0  0
   -4.9762   -6.2352   18.0887 C   0  0  0  0  0  0  0  0  0  0  0  0
   -3.6352   -6.1035   17.9219 C   0  0  0  0  0  0  0  0  0  0  0  0
   -3.2175   -6.0748   23.6520 O   0  0  0  0  0  0  0  0  0  0  0  0
   -3.1462   -7.7452   22.0909 O   0  0  0  0  0  0  0  0  0  0  0  0
   -5.6185   -5.7694   16.5882 S   0  0  0  0  0  0  0  0  0  0  0  0
  3  1  2  0
  1  5  1  0
  1  7  1  0
  2 11  2  0
 12  2  1  0
  3  9  1  0
 11  3  1  0
  8  4  2  0
  4 16  1  0
  5  6  2  0
 10  6  1  0
  7 14  2  0
  7 15  1  0
 13  8  1  0
  9 10  2  0
 12 13  2  0
 12 16  1  0
M  END
$$$$
