
     RDKit          3D

 42 42  0  0  0  0  0  0  0  0999 V2000
   36.0593  -12.6810   10.5992 N   0  0  0  0  0  4  0  0  0  0  0  0
   34.7279  -12.6569   10.0489 C   0  0  2  0  0  0  0  0  0  0  0  0
   33.8863  -13.7891   10.4296 C   0  0  0  0  0  0  0  0  0  0  0  0
   34.3409  -14.9466   10.1900 O   0  0  0  0  0  0  0  0  0  0  0  0
   34.8476  -12.4956    8.5494 C   0  0  2  0  0  0  0  0  0  0  0  0
   35.5656  -11.2584    8.1145 C   0  0  0  0  0  0  0  0  0  0  0  0
   33.4955  -12.6240    7.9061 C   0  0  0  0  0  0  0  0  0  0  0  0
   35.5763  -11.2950    6.5761 C   0  0  0  0  0  0  0  0  0  0  0  0
   32.6137  -13.7379   11.0379 N   0  0  0  0  0  0  0  0  0  0  0  0
   31.8924  -14.9695   11.2702 C   0  0  2  0  0  0  0  0  0  0  0  0
   30.7015  -15.0891   10.3792 C   0  0  0  0  0  0  0  0  0  0  0  0
   30.3089  -14.0552    9.8037 O   0  0  0  0  0  0  0  0  0  0  0  0
   31.3912  -14.8649   12.7257 C   0  0  0  0  0  0  0  0  0  0  0  0
   32.4442  -14.2572   13.6138 C   0  0  0  0  0  0  0  0  0  0  0  0
   33.5881  -15.6254   14.0486 S   0  0  0  0  0  0  0  0  0  0  0  0
   33.0884  -17.0791   13.1005 C   0  0  0  0  0  0  0  0  0  0  0  0
   30.0147  -16.2949   10.1634 N   0  0  0  0  0  0  0  0  0  0  0  0
   28.8992  -16.4041    9.2343 C   0  0  2  0  0  0  0  0  0  0  0  0
   27.7208  -16.8751    9.9871 C   0  0  0  0  0  0  0  0  0  0  0  0
   26.5124  -16.6704    9.6166 O   0  0  0  0  0  0  0  0  0  0  0  0
   29.2393  -17.3697    8.1175 C   0  0  2  0  0  0  0  0  0  0  0  0
   28.9107  -18.7649    8.5645 C   0  0  0  0  0  0  0  0  0  0  0  0
   30.6949  -17.3067    7.7124 C   0  0  0  0  0  0  0  0  0  0  0  0
   29.2436  -19.6968    7.3922 C   0  0  0  0  0  0  0  0  0  0  0  0
   27.8058  -17.6214   11.2218 N   0  0  0  0  0  0  0  0  0  0  0  0
   26.6428  -17.8486   12.0623 C   0  0  2  0  0  0  0  0  0  0  0  0
   25.5534  -18.5613   11.3715 C   0  0  0  0  0  0  0  0  0  0  0  0
   25.5732  -18.6482   10.1207 O   0  0  0  0  0  0  0  0  0  0  0  0
   26.1405  -16.5152   12.6271 C   0  0  0  0  0  0  0  0  0  0  0  0
   26.0431  -16.5733   14.0009 O   0  0  0  0  0  0  0  0  0  0  0  0
   24.4658  -19.1609   12.0572 N   0  0  0  0  0  0  0  0  0  0  0  0
   23.4280  -19.9193   11.3714 C   0  0  2  0  0  0  0  0  0  0  0  0
   22.4273  -20.4260   12.3617 C   0  0  0  0  0  0  0  0  0  0  0  0
   21.9958  -21.6047   12.3401 O   0  0  0  0  0  0  0  0  0  0  0  0
   24.0417  -21.0193   10.5720 C   0  0  0  0  0  0  0  0  0  0  0  0
   25.0772  -21.7585   11.3258 C   0  0  0  0  0  0  0  0  0  0  0  0
   25.7557  -22.8087   10.7714 C   0  0  0  0  0  0  0  0  0  0  0  0
   25.3636  -21.3710   12.6083 C   0  0  0  0  0  0  0  0  0  0  0  0
   26.7319  -23.5026   11.4621 C   0  0  0  0  0  0  0  0  0  0  0  0
   26.3358  -22.0542   13.3112 C   0  0  0  0  0  0  0  0  0  0  0  0
   27.0152  -23.1034   12.7583 C   0  0  0  0  0  0  0  0  0  0  0  0
   21.9185  -19.5967   13.3749 O   0  0  0  0  0  0  0  0  0  0  0  0
  2  1  1  6
  2  3  1  0
  2  5  1  0
  3  4  2  0
  3  9  1  0
  5  6  1  0
  5  7  1  6
  6  8  1  0
  9 10  1  0
 10 11  1  0
 10 13  1  1
 11 12  2  0
 11 17  1  0
 13 14  1  0
 14 15  1  0
 15 16  1  0
 18 17  1  1
 18 19  1  0
 18 21  1  0
 19 20  2  0
 19 25  1  0
 21 22  1  0
 21 23  1  1
 22 24  1  0
 25 26  1  0
 26 27  1  0
 26 29  1  6
 27 28  2  0
 27 31  1  0
 29 30  1  0
 31 32  1  0
 32 33  1  0
 32 35  1  1
 33 34  2  0
 33 42  1  0
 35 36  1  0
 36 37  2  0
 36 38  1  0
 37 39  1  0
 38 40  2  0
 39 41  2  0
 40 41  1  0
M  CHG  1   1   1
M  END
$$$$
