
     RDKit          3D

 42 42  0  0  0  0  0  0  0  0999 V2000
   34.7971  -14.5708   11.0101 N   0  0  0  0  0  4  0  0  0  0  0  0
   33.8948  -13.5782   10.4841 C   0  0  2  0  0  0  0  0  0  0  0  0
   32.5825  -13.5408   11.1258 C   0  0  0  0  0  0  0  0  0  0  0  0
   32.4482  -12.7544   12.1094 O   0  0  0  0  0  0  0  0  0  0  0  0
   33.8079  -13.7758    8.9867 C   0  0  2  0  0  0  0  0  0  0  0  0
   32.9757  -12.7582    8.2746 C   0  0  0  0  0  0  0  0  0  0  0  0
   33.3772  -15.1814    8.6749 C   0  0  0  0  0  0  0  0  0  0  0  0
   33.0188  -13.1443    6.7857 C   0  0  0  0  0  0  0  0  0  0  0  0
   31.4393  -14.2886   10.7710 N   0  0  0  0  0  0  0  0  0  0  0  0
   30.5590  -14.7692   11.8128 C   0  0  2  0  0  0  0  0  0  0  0  0
   29.3240  -15.3894   11.2503 C   0  0  0  0  0  0  0  0  0  0  0  0
   28.5852  -14.6669   10.5528 O   0  0  0  0  0  0  0  0  0  0  0  0
   30.1451  -13.5049   12.5943 C   0  0  0  0  0  0  0  0  0  0  0  0
   29.1894  -13.8495   13.7055 C   0  0  0  0  0  0  0  0  0  0  0  0
   30.2326  -14.2442   15.1635 S   0  0  0  0  0  0  0  0  0  0  0  0
   29.1357  -14.4396   16.5849 C   0  0  0  0  0  0  0  0  0  0  0  0
   28.9628  -16.7290   11.4680 N   0  0  0  0  0  0  0  0  0  0  0  0
   27.8313  -17.3528   10.7972 C   0  0  2  0  0  0  0  0  0  0  0  0
   26.8532  -17.7541   11.8266 C   0  0  0  0  0  0  0  0  0  0  0  0
   27.1633  -18.3980   12.8889 O   0  0  0  0  0  0  0  0  0  0  0  0
   28.2920  -18.5568   10.0012 C   0  0  2  0  0  0  0  0  0  0  0  0
   29.3831  -18.1300    9.0623 C   0  0  0  0  0  0  0  0  0  0  0  0
   27.1746  -19.1964    9.2080 C   0  0  0  0  0  0  0  0  0  0  0  0
   29.8009  -19.3763    8.2712 C   0  0  0  0  0  0  0  0  0  0  0  0
   25.4407  -17.4592   11.7464 N   0  0  0  0  0  0  0  0  0  0  0  0
   24.4446  -18.2962   12.3928 C   0  0  2  0  0  0  0  0  0  0  0  0
   24.1176  -19.5121   11.6269 C   0  0  0  0  0  0  0  0  0  0  0  0
   24.7525  -19.7643   10.5753 O   0  0  0  0  0  0  0  0  0  0  0  0
   23.1784  -17.4782   12.6703 C   0  0  0  0  0  0  0  0  0  0  0  0
   22.0877  -18.3062   12.8277 O   0  0  0  0  0  0  0  0  0  0  0  0
   23.1055  -20.4246   12.0211 N   0  0  0  0  0  0  0  0  0  0  0  0
   22.8903  -21.6976   11.3460 C   0  0  2  0  0  0  0  0  0  0  0  0
   21.7000  -22.3906   11.9305 C   0  0  0  0  0  0  0  0  0  0  0  0
   21.1339  -23.3545   11.3589 O   0  0  0  0  0  0  0  0  0  0  0  0
   24.1251  -22.5315   11.4205 C   0  0  0  0  0  0  0  0  0  0  0  0
   24.3924  -23.0281   12.7876 C   0  0  0  0  0  0  0  0  0  0  0  0
   25.5913  -23.5941   13.1236 C   0  0  0  0  0  0  0  0  0  0  0  0
   23.4124  -22.9080   13.7375 C   0  0  0  0  0  0  0  0  0  0  0  0
   25.8571  -24.0544   14.4000 C   0  0  0  0  0  0  0  0  0  0  0  0
   23.6625  -23.3631   15.0166 C   0  0  0  0  0  0  0  0  0  0  0  0
   24.8604  -23.9283   15.3541 C   0  0  0  0  0  0  0  0  0  0  0  0
   21.1541  -21.9910   13.1615 O   0  0  0  0  0  0  0  0  0  0  0  0
  2  1  1  1
  2  3  1  0
  2  5  1  0
  3  4  2  0
  3  9  1  0
  5  6  1  0
  5  7  1  1
  6  8  1  0
  9 10  1  0
 10 11  1  0
 10 13  1  1
 11 12  2  0
 11 17  1  0
 13 14  1  0
 14 15  1  0
 15 16  1  0
 18 17  1  1
 18 19  1  0
 18 21  1  0
 19 20  2  0
 19 25  1  0
 21 22  1  0
 21 23  1  6
 22 24  1  0
 25 26  1  0
 26 27  1  0
 26 29  1  6
 27 28  2  0
 27 31  1  0
 29 30  1  0
 31 32  1  0
 32 33  1  0
 32 35  1  1
 33 34  2  0
 33 42  1  0
 35 36  1  0
 36 37  2  0
 36 38  1  0
 37 39  1  0
 38 40  2  0
 39 41  2  0
 40 41  1  0
M  CHG  1   1   1
M  END
$$$$
