
     RDKit          3D

 42 42  0  0  0  0  0  0  0  0999 V2000
   34.4591  -14.2151    9.7544 N   0  0  0  0  0  4  0  0  0  0  0  0
   33.4111  -14.7932    8.9521 C   0  0  2  0  0  0  0  0  0  0  0  0
   32.3835  -15.5069    9.7071 C   0  0  0  0  0  0  0  0  0  0  0  0
   31.5045  -16.1239    9.0359 O   0  0  0  0  0  0  0  0  0  0  0  0
   34.0595  -15.6536    7.8900 C   0  0  2  0  0  0  0  0  0  0  0  0
   34.2049  -17.0940    8.2630 C   0  0  0  0  0  0  0  0  0  0  0  0
   35.3629  -15.0444    7.4559 C   0  0  0  0  0  0  0  0  0  0  0  0
   34.8111  -17.7900    7.0317 C   0  0  0  0  0  0  0  0  0  0  0  0
   32.2586  -15.5859   11.1108 N   0  0  0  0  0  0  0  0  0  0  0  0
   31.0371  -15.1313   11.7373 C   0  0  2  0  0  0  0  0  0  0  0  0
   29.8285  -15.6607   11.0407 C   0  0  0  0  0  0  0  0  0  0  0  0
   29.6709  -15.3456    9.8448 O   0  0  0  0  0  0  0  0  0  0  0  0
   31.0531  -13.5979   11.5669 C   0  0  0  0  0  0  0  0  0  0  0  0
   31.6432  -12.9291   12.7800 C   0  0  0  0  0  0  0  0  0  0  0  0
   30.9712  -13.8316   14.2303 S   0  0  0  0  0  0  0  0  0  0  0  0
   31.5731  -13.0029   15.7179 C   0  0  0  0  0  0  0  0  0  0  0  0
   28.8761  -16.4848   11.6622 N   0  0  0  0  0  0  0  0  0  0  0  0
   27.9811  -17.3514   10.9089 C   0  0  2  0  0  0  0  0  0  0  0  0
   27.0963  -18.0403   11.8678 C   0  0  0  0  0  0  0  0  0  0  0  0
   27.4932  -18.5076   12.9919 O   0  0  0  0  0  0  0  0  0  0  0  0
   28.7789  -18.3560   10.1028 C   0  0  2  0  0  0  0  0  0  0  0  0
   27.8396  -19.1270    9.2210 C   0  0  0  0  0  0  0  0  0  0  0  0
   29.5517  -19.3224   10.9720 C   0  0  0  0  0  0  0  0  0  0  0  0
   28.6993  -20.0873    8.3888 C   0  0  0  0  0  0  0  0  0  0  0  0
   25.6855  -18.2576   11.6413 N   0  0  0  0  0  0  0  0  0  0  0  0
   24.8052  -18.7386   12.6921 C   0  0  2  0  0  0  0  0  0  0  0  0
   24.6452  -20.2037   12.6947 C   0  0  0  0  0  0  0  0  0  0  0  0
   24.7123  -20.8302   11.6105 O   0  0  0  0  0  0  0  0  0  0  0  0
   23.4409  -18.0484   12.5844 C   0  0  0  0  0  0  0  0  0  0  0  0
   22.6457  -18.6826   11.6541 O   0  0  0  0  0  0  0  0  0  0  0  0
   24.4133  -20.9534   13.8765 N   0  0  0  0  0  0  0  0  0  0  0  0
   23.9757  -22.3427   13.8512 C   0  0  2  0  0  0  0  0  0  0  0  0
   22.4970  -22.4082   13.6323 C   0  0  0  0  0  0  0  0  0  0  0  0
   21.8874  -23.4939   13.4712 O   0  0  0  0  0  0  0  0  0  0  0  0
   24.3945  -23.0341   15.1051 C   0  0  0  0  0  0  0  0  0  0  0  0
   23.4920  -22.7451   16.2406 C   0  0  0  0  0  0  0  0  0  0  0  0
   22.3993  -21.9346   16.1002 C   0  0  0  0  0  0  0  0  0  0  0  0
   23.7598  -23.3129   17.4583 C   0  0  0  0  0  0  0  0  0  0  0  0
   21.5429  -21.6633   17.1512 C   0  0  0  0  0  0  0  0  0  0  0  0
   22.9141  -23.0513   18.5178 C   0  0  0  0  0  0  0  0  0  0  0  0
   21.8213  -22.2423   18.3789 C   0  0  0  0  0  0  0  0  0  0  0  0
   21.7118  -21.2440   13.5975 O   0  0  0  0  0  0  0  0  0  0  0  0
  2  1  1  1
  2  3  1  0
  2  5  1  0
  3  4  2  0
  3  9  1  0
  5  6  1  0
  5  7  1  1
  6  8  1  0
  9 10  1  0
 10 11  1  0
 10 13  1  6
 11 12  2  0
 11 17  1  0
 13 14  1  0
 14 15  1  0
 15 16  1  0
 18 17  1  1
 18 19  1  0
 18 21  1  0
 19 20  2  0
 19 25  1  0
 21 22  1  0
 21 23  1  1
 22 24  1  0
 25 26  1  0
 26 27  1  0
 26 29  1  6
 27 28  2  0
 27 31  1  0
 29 30  1  0
 31 32  1  0
 32 33  1  0
 32 35  1  1
 33 34  2  0
 33 42  1  0
 35 36  1  0
 36 37  2  0
 36 38  1  0
 37 39  1  0
 38 40  2  0
 39 41  2  0
 40 41  1  0
M  CHG  1   1   1
M  END
$$$$
