
     RDKit          3D

 42 42  0  0  0  0  0  0  0  0999 V2000
   35.4346  -16.0248    6.0643 N   0  0  0  0  0  4  0  0  0  0  0  0
   34.8951  -17.0250    6.9500 C   0  0  2  0  0  0  0  0  0  0  0  0
   33.5632  -16.7276    7.4723 C   0  0  0  0  0  0  0  0  0  0  0  0
   33.3004  -15.5122    7.7124 O   0  0  0  0  0  0  0  0  0  0  0  0
   35.9100  -17.2732    8.0442 C   0  0  2  0  0  0  0  0  0  0  0  0
   36.1606  -18.7169    8.3411 C   0  0  0  0  0  0  0  0  0  0  0  0
   35.5428  -16.4948    9.2761 C   0  0  0  0  0  0  0  0  0  0  0  0
   35.2135  -19.0807    9.4981 C   0  0  0  0  0  0  0  0  0  0  0  0
   32.5289  -17.6492    7.7424 N   0  0  0  0  0  0  0  0  0  0  0  0
   31.2471  -17.1582    8.1973 C   0  0  2  0  0  0  0  0  0  0  0  0
   31.2971  -16.7205    9.6229 C   0  0  0  0  0  0  0  0  0  0  0  0
   32.4219  -16.5303   10.1259 O   0  0  0  0  0  0  0  0  0  0  0  0
   30.3026  -18.3748    8.1043 C   0  0  0  0  0  0  0  0  0  0  0  0
   30.0710  -18.7661    6.6690 C   0  0  0  0  0  0  0  0  0  0  0  0
   28.9718  -17.4753    5.9654 S   0  0  0  0  0  0  0  0  0  0  0  0
   28.6342  -17.9201    4.2479 C   0  0  0  0  0  0  0  0  0  0  0  0
   30.1523  -16.5163   10.4102 N   0  0  0  0  0  0  0  0  0  0  0  0
   30.2178  -15.9761   11.7605 C   0  0  2  0  0  0  0  0  0  0  0  0
   28.8373  -15.8019   12.2515 C   0  0  0  0  0  0  0  0  0  0  0  0
   28.5307  -15.0959   13.2746 O   0  0  0  0  0  0  0  0  0  0  0  0
   30.9549  -14.6524   11.7609 C   0  0  2  0  0  0  0  0  0  0  0  0
   29.9904  -13.5592   11.4021 C   0  0  0  0  0  0  0  0  0  0  0  0
   32.1164  -14.6290   10.7928 C   0  0  0  0  0  0  0  0  0  0  0  0
   30.2699  -12.3900   12.3552 C   0  0  0  0  0  0  0  0  0  0  0  0
   27.6834  -16.4074   11.6266 N   0  0  0  0  0  0  0  0  0  0  0  0
   26.9355  -17.4749   12.2682 C   0  0  2  0  0  0  0  0  0  0  0  0
   27.2168  -17.6006   13.7094 C   0  0  0  0  0  0  0  0  0  0  0  0
   28.3855  -17.8545   14.0866 O   0  0  0  0  0  0  0  0  0  0  0  0
   27.2032  -18.8023   11.5498 C   0  0  0  0  0  0  0  0  0  0  0  0
   26.2851  -19.7570   11.9316 O   0  0  0  0  0  0  0  0  0  0  0  0
   26.2198  -17.4497   14.7071 N   0  0  0  0  0  0  0  0  0  0  0  0
   26.0921  -18.3646   15.8336 C   0  0  2  0  0  0  0  0  0  0  0  0
   24.7311  -18.2382   16.4422 C   0  0  0  0  0  0  0  0  0  0  0  0
   23.7194  -17.9213   15.7697 O   0  0  0  0  0  0  0  0  0  0  0  0
   27.1809  -18.1141   16.8223 C   0  0  0  0  0  0  0  0  0  0  0  0
   27.5274  -16.6806   16.9333 C   0  0  0  0  0  0  0  0  0  0  0  0
   28.5008  -16.2419   17.7880 C   0  0  0  0  0  0  0  0  0  0  0  0
   26.8572  -15.7767   16.1517 C   0  0  0  0  0  0  0  0  0  0  0  0
   28.8403  -14.9059   17.8950 C   0  0  0  0  0  0  0  0  0  0  0  0
   27.1846  -14.4389   16.2473 C   0  0  0  0  0  0  0  0  0  0  0  0
   28.1577  -13.9990   17.1004 C   0  0  0  0  0  0  0  0  0  0  0  0
   24.5188  -18.4721   17.8110 O   0  0  0  0  0  0  0  0  0  0  0  0
  2  1  1  1
  2  3  1  0
  2  5  1  0
  3  4  2  0
  3  9  1  0
  5  6  1  0
  5  7  1  1
  6  8  1  0
  9 10  1  0
 10 11  1  0
 10 13  1  1
 11 12  2  0
 11 17  1  0
 13 14  1  0
 14 15  1  0
 15 16  1  0
 18 17  1  6
 18 19  1  0
 18 21  1  0
 19 20  2  0
 19 25  1  0
 21 22  1  0
 21 23  1  6
 22 24  1  0
 25 26  1  0
 26 27  1  0
 26 29  1  6
 27 28  2  0
 27 31  1  0
 29 30  1  0
 31 32  1  0
 32 33  1  0
 32 35  1  1
 33 34  2  0
 33 42  1  0
 35 36  1  0
 36 37  2  0
 36 38  1  0
 37 39  1  0
 38 40  2  0
 39 41  2  0
 40 41  1  0
M  CHG  1   1   1
M  END
$$$$
