
     RDKit          3D

 42 42  0  0  0  0  0  0  0  0999 V2000
   30.2366  -20.3962    6.1633 N   0  0  0  0  0  4  0  0  0  0  0  0
   28.9003  -20.4190    5.6248 C   0  0  2  0  0  0  0  0  0  0  0  0
   27.8355  -20.3835    6.6249 C   0  0  0  0  0  0  0  0  0  0  0  0
   26.6604  -20.1717    6.2029 O   0  0  0  0  0  0  0  0  0  0  0  0
   28.7926  -21.6101    4.6984 C   0  0  2  0  0  0  0  0  0  0  0  0
   28.3540  -22.8751    5.3638 C   0  0  0  0  0  0  0  0  0  0  0  0
   30.0729  -21.7858    3.9312 C   0  0  0  0  0  0  0  0  0  0  0  0
   29.5754  -23.8108    5.3392 C   0  0  0  0  0  0  0  0  0  0  0  0
   27.9700  -20.5588    8.0189 N   0  0  0  0  0  0  0  0  0  0  0  0
   27.4989  -19.5215    8.9095 C   0  0  2  0  0  0  0  0  0  0  0  0
   28.5648  -19.0788    9.8552 C   0  0  0  0  0  0  0  0  0  0  0  0
   29.1495  -19.9605   10.5148 O   0  0  0  0  0  0  0  0  0  0  0  0
   26.3767  -20.1875    9.7327 C   0  0  0  0  0  0  0  0  0  0  0  0
   25.3091  -20.7474    8.8306 C   0  0  0  0  0  0  0  0  0  0  0  0
   23.9507  -21.2956    9.9369 S   0  0  0  0  0  0  0  0  0  0  0  0
   22.6365  -21.9700    8.8977 C   0  0  0  0  0  0  0  0  0  0  0  0
   28.9327  -17.7351   10.0322 N   0  0  0  0  0  0  0  0  0  0  0  0
   29.7560  -17.2900   11.1473 C   0  0  2  0  0  0  0  0  0  0  0  0
   28.9863  -16.2925   11.9153 C   0  0  0  0  0  0  0  0  0  0  0  0
   27.7488  -16.0371   11.7087 O   0  0  0  0  0  0  0  0  0  0  0  0
   31.0493  -16.6880   10.6371 C   0  0  2  0  0  0  0  0  0  0  0  0
   30.7260  -15.5065    9.7688 C   0  0  0  0  0  0  0  0  0  0  0  0
   31.8819  -17.6729    9.8476 C   0  0  0  0  0  0  0  0  0  0  0  0
   29.5489  -14.7782   10.4303 C   0  0  0  0  0  0  0  0  0  0  0  0
   29.5474  -15.5000   12.9857 N   0  0  0  0  0  0  0  0  0  0  0  0
   28.8398  -15.2906   14.2371 C   0  0  2  0  0  0  0  0  0  0  0  0
   29.6525  -14.6095   15.2606 C   0  0  0  0  0  0  0  0  0  0  0  0
   30.3798  -13.6447   14.9247 O   0  0  0  0  0  0  0  0  0  0  0  0
   28.3160  -16.6293   14.7689 C   0  0  0  0  0  0  0  0  0  0  0  0
   26.9584  -16.7404   14.5573 O   0  0  0  0  0  0  0  0  0  0  0  0
   29.6574  -14.9951   16.6258 N   0  0  0  0  0  0  0  0  0  0  0  0
   30.7061  -15.8256   17.2028 C   0  0  2  0  0  0  0  0  0  0  0  0
   30.2303  -17.2392   17.3220 C   0  0  0  0  0  0  0  0  0  0  0  0
   30.9081  -18.2145   16.9151 O   0  0  0  0  0  0  0  0  0  0  0  0
   31.1424  -15.2618   18.5133 C   0  0  0  0  0  0  0  0  0  0  0  0
   30.2215  -14.2202   19.0174 C   0  0  0  0  0  0  0  0  0  0  0  0
   30.1694  -12.9750   18.4541 C   0  0  0  0  0  0  0  0  0  0  0  0
   29.3978  -14.5201   20.0704 C   0  0  0  0  0  0  0  0  0  0  0  0
   29.3071  -11.9952   18.9101 C   0  0  0  0  0  0  0  0  0  0  0  0
   28.5312  -13.5522   20.5373 C   0  0  0  0  0  0  0  0  0  0  0  0
   28.4775  -12.3076   19.9750 C   0  0  0  0  0  0  0  0  0  0  0  0
   28.9883  -17.5450   17.9027 O   0  0  0  0  0  0  0  0  0  0  0  0
  2  1  1  1
  2  3  1  0
  2  5  1  0
  3  4  2  0
  3  9  1  0
  5  6  1  0
  5  7  1  1
  6  8  1  0
  9 10  1  0
 10 11  1  0
 10 13  1  1
 11 12  2  0
 11 17  1  0
 13 14  1  0
 14 15  1  0
 15 16  1  0
 18 17  1  6
 18 19  1  0
 18 21  1  0
 19 20  2  0
 19 25  1  0
 21 22  1  0
 21 23  1  6
 22 24  1  0
 25 26  1  0
 26 27  1  0
 26 29  1  1
 27 28  2  0
 27 31  1  0
 29 30  1  0
 31 32  1  0
 32 33  1  0
 32 35  1  1
 33 34  2  0
 33 42  1  0
 35 36  1  0
 36 37  2  0
 36 38  1  0
 37 39  1  0
 38 40  2  0
 39 41  2  0
 40 41  1  0
M  CHG  1   1   1
M  END
$$$$
