
     RDKit          3D

 42 42  0  0  0  0  0  0  0  0999 V2000
   34.5391  -13.1160   12.3066 N   0  0  0  0  0  4  0  0  0  0  0  0
   33.3456  -13.0226   13.1084 C   0  0  2  0  0  0  0  0  0  0  0  0
   32.5287  -14.2339   13.1356 C   0  0  0  0  0  0  0  0  0  0  0  0
   32.9367  -15.2154   12.4470 O   0  0  0  0  0  0  0  0  0  0  0  0
   32.5718  -11.8060   12.6504 C   0  0  2  0  0  0  0  0  0  0  0  0
   31.3407  -11.5180   13.4483 C   0  0  0  0  0  0  0  0  0  0  0  0
   32.2861  -11.8991   11.1780 C   0  0  0  0  0  0  0  0  0  0  0  0
   30.7107  -10.2648   12.8154 C   0  0  0  0  0  0  0  0  0  0  0  0
   31.3265  -14.4347   13.8473 N   0  0  0  0  0  0  0  0  0  0  0  0
   30.6682  -15.7201   13.7723 C   0  0  2  0  0  0  0  0  0  0  0  0
   29.6576  -15.7604   12.6754 C   0  0  0  0  0  0  0  0  0  0  0  0
   28.8312  -14.8284   12.6215 O   0  0  0  0  0  0  0  0  0  0  0  0
   29.9212  -15.8600   15.1151 C   0  0  0  0  0  0  0  0  0  0  0  0
   30.8796  -16.1775   16.2321 C   0  0  0  0  0  0  0  0  0  0  0  0
   30.1334  -15.4707   17.7530 S   0  0  0  0  0  0  0  0  0  0  0  0
   31.2078  -15.8990   19.1401 C   0  0  0  0  0  0  0  0  0  0  0  0
   29.5970  -16.7846   11.7164 N   0  0  0  0  0  0  0  0  0  0  0  0
   28.4269  -17.0030   10.8782 C   0  0  2  0  0  0  0  0  0  0  0  0
   27.5914  -18.0368   11.5187 C   0  0  0  0  0  0  0  0  0  0  0  0
   28.0140  -18.8252   12.4348 O   0  0  0  0  0  0  0  0  0  0  0  0
   28.8497  -17.4429    9.4914 C   0  0  2  0  0  0  0  0  0  0  0  0
   30.2572  -16.9825    9.2436 C   0  0  0  0  0  0  0  0  0  0  0  0
   27.9495  -16.8987    8.4050 C   0  0  0  0  0  0  0  0  0  0  0  0
   30.6781  -17.5531    7.8832 C   0  0  0  0  0  0  0  0  0  0  0  0
   26.2048  -18.2668   11.1821 N   0  0  0  0  0  0  0  0  0  0  0  0
   25.3357  -19.0742   12.0209 C   0  0  2  0  0  0  0  0  0  0  0  0
   23.9245  -19.0459   11.5972 C   0  0  0  0  0  0  0  0  0  0  0  0
   23.5601  -18.2148   10.7317 O   0  0  0  0  0  0  0  0  0  0  0  0
   25.4677  -18.6335   13.4830 C   0  0  0  0  0  0  0  0  0  0  0  0
   24.7010  -19.4323   14.3041 O   0  0  0  0  0  0  0  0  0  0  0  0
   22.9412  -19.9206   12.1269 N   0  0  0  0  0  0  0  0  0  0  0  0
   21.7916  -20.3697   11.3528 C   0  0  2  0  0  0  0  0  0  0  0  0
   20.9033  -21.2203   12.2049 C   0  0  0  0  0  0  0  0  0  0  0  0
   20.2719  -20.7609   13.1880 O   0  0  0  0  0  0  0  0  0  0  0  0
   22.2485  -21.0807   10.1235 C   0  0  0  0  0  0  0  0  0  0  0  0
   21.1286  -21.4391    9.2264 C   0  0  0  0  0  0  0  0  0  0  0  0
   21.3405  -22.0675    8.0303 C   0  0  0  0  0  0  0  0  0  0  0  0
   19.8495  -21.1373    9.6136 C   0  0  0  0  0  0  0  0  0  0  0  0
   20.3020  -22.4157    7.1865 C   0  0  0  0  0  0  0  0  0  0  0  0
   18.8018  -21.4783    8.7818 C   0  0  0  0  0  0  0  0  0  0  0  0
   19.0119  -22.1070    7.5864 C   0  0  0  0  0  0  0  0  0  0  0  0
   20.7313  -22.5893   11.9409 O   0  0  0  0  0  0  0  0  0  0  0  0
  2  1  1  6
  2  3  1  0
  2  5  1  0
  3  4  2  0
  3  9  1  0
  5  6  1  0
  5  7  1  6
  6  8  1  0
  9 10  1  0
 10 11  1  0
 10 13  1  1
 11 12  2  0
 11 17  1  0
 13 14  1  0
 14 15  1  0
 15 16  1  0
 18 17  1  1
 18 19  1  0
 18 21  1  0
 19 20  2  0
 19 25  1  0
 21 22  1  0
 21 23  1  6
 22 24  1  0
 25 26  1  0
 26 27  1  0
 26 29  1  1
 27 28  2  0
 27 31  1  0
 29 30  1  0
 31 32  1  0
 32 33  1  0
 32 35  1  6
 33 34  2  0
 33 42  1  0
 35 36  1  0
 36 37  2  0
 36 38  1  0
 37 39  1  0
 38 40  2  0
 39 41  2  0
 40 41  1  0
M  CHG  1   1   1
M  END
$$$$
