
     RDKit          3D

 42 42  0  0  0  0  0  0  0  0999 V2000
   34.4042  -13.2369   11.1035 N   0  0  0  0  0  4  0  0  0  0  0  0
   33.1960  -13.5017   10.3644 C   0  0  2  0  0  0  0  0  0  0  0  0
   32.2605  -14.4104   11.0237 C   0  0  0  0  0  0  0  0  0  0  0  0
   32.7541  -15.2590   11.8237 O   0  0  0  0  0  0  0  0  0  0  0  0
   33.5904  -13.9712    8.9814 C   0  0  2  0  0  0  0  0  0  0  0  0
   32.4759  -13.9688    7.9849 C   0  0  0  0  0  0  0  0  0  0  0  0
   34.2758  -15.3060    9.0645 C   0  0  0  0  0  0  0  0  0  0  0  0
   32.3343  -12.5109    7.5131 C   0  0  0  0  0  0  0  0  0  0  0  0
   30.8583  -14.4499   10.8675 N   0  0  0  0  0  0  0  0  0  0  0  0
   30.0940  -15.4344   11.6006 C   0  0  2  0  0  0  0  0  0  0  0  0
   28.6423  -15.3719   11.2613 C   0  0  0  0  0  0  0  0  0  0  0  0
   27.9031  -14.7147   12.0203 O   0  0  0  0  0  0  0  0  0  0  0  0
   30.2556  -15.0363   13.0825 C   0  0  0  0  0  0  0  0  0  0  0  0
   29.0208  -14.3391   13.5888 C   0  0  0  0  0  0  0  0  0  0  0  0
   29.4854  -13.6001   15.2036 S   0  0  0  0  0  0  0  0  0  0  0  0
   31.0326  -12.6986   14.9685 C   0  0  0  0  0  0  0  0  0  0  0  0
   28.0809  -16.0098   10.1432 N   0  0  0  0  0  0  0  0  0  0  0  0
   27.7214  -17.4205   10.1463 C   0  0  2  0  0  0  0  0  0  0  0  0
   26.9933  -17.7048   11.3977 C   0  0  0  0  0  0  0  0  0  0  0  0
   27.5606  -17.8187   12.5399 O   0  0  0  0  0  0  0  0  0  0  0  0
   28.9657  -18.2792   10.0465 C   0  0  2  0  0  0  0  0  0  0  0  0
   28.7832  -19.2717    8.9347 C   0  0  0  0  0  0  0  0  0  0  0  0
   29.2704  -19.0194   11.3294 C   0  0  0  0  0  0  0  0  0  0  0  0
   30.1624  -19.4826    8.2968 C   0  0  0  0  0  0  0  0  0  0  0  0
   25.5605  -17.8812   11.4675 N   0  0  0  0  0  0  0  0  0  0  0  0
   24.9304  -18.6193   12.5486 C   0  0  2  0  0  0  0  0  0  0  0  0
   25.0615  -20.0808   12.4119 C   0  0  0  0  0  0  0  0  0  0  0  0
   25.5663  -20.5566   11.3672 O   0  0  0  0  0  0  0  0  0  0  0  0
   23.4550  -18.2193   12.6609 C   0  0  0  0  0  0  0  0  0  0  0  0
   23.2890  -16.8819   12.3713 O   0  0  0  0  0  0  0  0  0  0  0  0
   24.6378  -20.9915   13.4137 N   0  0  0  0  0  0  0  0  0  0  0  0
   24.2691  -22.3692   13.1165 C   0  0  2  0  0  0  0  0  0  0  0  0
   22.8521  -22.6184   13.5273 C   0  0  0  0  0  0  0  0  0  0  0  0
   22.2525  -23.6892   13.2627 O   0  0  0  0  0  0  0  0  0  0  0  0
   25.2237  -23.3079   13.7747 C   0  0  0  0  0  0  0  0  0  0  0  0
   24.8943  -23.5473   15.1965 C   0  0  0  0  0  0  0  0  0  0  0  0
   23.8519  -24.3521   15.5657 C   0  0  0  0  0  0  0  0  0  0  0  0
   25.6615  -22.9503   16.1619 C   0  0  0  0  0  0  0  0  0  0  0  0
   23.5386  -24.5910   16.8910 C   0  0  0  0  0  0  0  0  0  0  0  0
   25.3612  -23.1789   17.4899 C   0  0  0  0  0  0  0  0  0  0  0  0
   24.3203  -23.9835   17.8604 C   0  0  0  0  0  0  0  0  0  0  0  0
   22.1177  -21.6546   14.2379 O   0  0  0  0  0  0  0  0  0  0  0  0
  2  1  1  1
  2  3  1  0
  2  5  1  0
  3  4  2  0
  3  9  1  0
  5  6  1  0
  5  7  1  1
  6  8  1  0
  9 10  1  0
 10 11  1  0
 10 13  1  1
 11 12  2  0
 11 17  1  0
 13 14  1  0
 14 15  1  0
 15 16  1  0
 18 17  1  1
 18 19  1  0
 18 21  1  0
 19 20  2  0
 19 25  1  0
 21 22  1  0
 21 23  1  1
 22 24  1  0
 25 26  1  0
 26 27  1  0
 26 29  1  6
 27 28  2  0
 27 31  1  0
 29 30  1  0
 31 32  1  0
 32 33  1  0
 32 35  1  1
 33 34  2  0
 33 42  1  0
 35 36  1  0
 36 37  2  0
 36 38  1  0
 37 39  1  0
 38 40  2  0
 39 41  2  0
 40 41  1  0
M  CHG  1   1   1
M  END
$$$$
