
     RDKit          3D

 42 42  0  0  0  0  0  0  0  0999 V2000
   34.8241  -13.5616   10.5633 N   0  0  0  0  0  4  0  0  0  0  0  0
   33.4292  -13.2741   10.3448 C   0  0  2  0  0  0  0  0  0  0  0  0
   32.5160  -14.3560   10.7065 C   0  0  0  0  0  0  0  0  0  0  0  0
   33.0081  -15.5206   10.7788 O   0  0  0  0  0  0  0  0  0  0  0  0
   33.2661  -12.8270    8.9087 C   0  0  2  0  0  0  0  0  0  0  0  0
   31.9016  -12.3193    8.5689 C   0  0  0  0  0  0  0  0  0  0  0  0
   33.7170  -13.9144    7.9744 C   0  0  0  0  0  0  0  0  0  0  0  0
   31.9496  -11.9450    7.0770 C   0  0  0  0  0  0  0  0  0  0  0  0
   31.1366  -14.2487   10.9855 N   0  0  0  0  0  0  0  0  0  0  0  0
   30.5419  -15.1388   11.9576 C   0  0  2  0  0  0  0  0  0  0  0  0
   29.1803  -15.5836   11.5396 C   0  0  0  0  0  0  0  0  0  0  0  0
   28.4533  -14.7472   10.9684 O   0  0  0  0  0  0  0  0  0  0  0  0
   30.3944  -14.2864   13.2353 C   0  0  0  0  0  0  0  0  0  0  0  0
   29.4018  -14.9061   14.1826 C   0  0  0  0  0  0  0  0  0  0  0  0
   29.3652  -13.8158   15.6589 S   0  0  0  0  0  0  0  0  0  0  0  0
   27.8640  -14.2003   16.5865 C   0  0  0  0  0  0  0  0  0  0  0  0
   28.6895  -16.8813   11.7573 N   0  0  0  0  0  0  0  0  0  0  0  0
   27.7701  -17.5344   10.8367 C   0  0  2  0  0  0  0  0  0  0  0  0
   26.6894  -18.1514   11.6296 C   0  0  0  0  0  0  0  0  0  0  0  0
   26.8937  -18.9008   12.6474 O   0  0  0  0  0  0  0  0  0  0  0  0
   28.4997  -18.5833   10.0225 C   0  0  2  0  0  0  0  0  0  0  0  0
   29.2673  -17.9010    8.9273 C   0  0  0  0  0  0  0  0  0  0  0  0
   27.5663  -19.6055    9.4139 C   0  0  0  0  0  0  0  0  0  0  0  0
   30.5570  -18.7058    8.7209 C   0  0  0  0  0  0  0  0  0  0  0  0
   25.2843  -17.9720   11.3432 N   0  0  0  0  0  0  0  0  0  0  0  0
   24.2506  -18.5784   12.1645 C   0  0  2  0  0  0  0  0  0  0  0  0
   24.0971  -20.0261   11.9353 C   0  0  0  0  0  0  0  0  0  0  0  0
   24.1637  -20.4727   10.7654 O   0  0  0  0  0  0  0  0  0  0  0  0
   22.9182  -17.8540   11.9427 C   0  0  0  0  0  0  0  0  0  0  0  0
   22.1245  -18.5529   11.0585 O   0  0  0  0  0  0  0  0  0  0  0  0
   23.8718  -20.9546   12.9839 N   0  0  0  0  0  0  0  0  0  0  0  0
   23.2693  -22.2617   12.7587 C   0  0  2  0  0  0  0  0  0  0  0  0
   21.8634  -22.2709   13.2708 C   0  0  0  0  0  0  0  0  0  0  0  0
   21.4890  -21.5443   14.2238 O   0  0  0  0  0  0  0  0  0  0  0  0
   24.1073  -23.3262   13.3835 C   0  0  0  0  0  0  0  0  0  0  0  0
   24.0997  -23.2597   14.8609 C   0  0  0  0  0  0  0  0  0  0  0  0
   23.1203  -23.8624   15.6011 C   0  0  0  0  0  0  0  0  0  0  0  0
   25.1063  -22.5819   15.4968 C   0  0  0  0  0  0  0  0  0  0  0  0
   23.1062  -23.8152   16.9828 C   0  0  0  0  0  0  0  0  0  0  0  0
   25.1061  -22.5256   16.8762 C   0  0  0  0  0  0  0  0  0  0  0  0
   24.1284  -23.1280   17.6173 C   0  0  0  0  0  0  0  0  0  0  0  0
   20.8845  -23.1021   12.7017 O   0  0  0  0  0  0  0  0  0  0  0  0
  2  1  1  6
  2  3  1  0
  2  5  1  0
  3  4  2  0
  3  9  1  0
  5  6  1  0
  5  7  1  6
  6  8  1  0
  9 10  1  0
 10 11  1  0
 10 13  1  1
 11 12  2  0
 11 17  1  0
 13 14  1  0
 14 15  1  0
 15 16  1  0
 18 17  1  1
 18 19  1  0
 18 21  1  0
 19 20  2  0
 19 25  1  0
 21 22  1  0
 21 23  1  6
 22 24  1  0
 25 26  1  0
 26 27  1  0
 26 29  1  6
 27 28  2  0
 27 31  1  0
 29 30  1  0
 31 32  1  0
 32 33  1  0
 32 35  1  1
 33 34  2  0
 33 42  1  0
 35 36  1  0
 36 37  2  0
 36 38  1  0
 37 39  1  0
 38 40  2  0
 39 41  2  0
 40 41  1  0
M  CHG  1   1   1
M  END
$$$$
