
     RDKit          3D

 42 42  0  0  0  0  0  0  0  0999 V2000
   33.8219  -12.7680    9.9038 N   0  0  0  0  0  4  0  0  0  0  0  0
   33.5748  -13.9137   10.7418 C   0  0  2  0  0  0  0  0  0  0  0  0
   32.9136  -15.0319   10.0726 C   0  0  0  0  0  0  0  0  0  0  0  0
   32.5120  -14.8338    8.8880 O   0  0  0  0  0  0  0  0  0  0  0  0
   32.8250  -13.4401   11.9675 C   0  0  2  0  0  0  0  0  0  0  0  0
   31.5295  -12.7536   11.6746 C   0  0  0  0  0  0  0  0  0  0  0  0
   33.7261  -12.6073   12.8351 C   0  0  0  0  0  0  0  0  0  0  0  0
   30.7591  -12.7194   13.0063 C   0  0  0  0  0  0  0  0  0  0  0  0
   32.6694  -16.3173   10.6019 N   0  0  0  0  0  0  0  0  0  0  0  0
   32.0339  -17.3143    9.7693 C   0  0  2  0  0  0  0  0  0  0  0  0
   30.5556  -17.1218    9.7073 C   0  0  0  0  0  0  0  0  0  0  0  0
   29.9988  -16.6254   10.7062 O   0  0  0  0  0  0  0  0  0  0  0  0
   32.3113  -18.6562   10.4787 C   0  0  0  0  0  0  0  0  0  0  0  0
   31.8889  -19.8163    9.6170 C   0  0  0  0  0  0  0  0  0  0  0  0
   32.3253  -21.3298   10.5597 S   0  0  0  0  0  0  0  0  0  0  0  0
   32.1191  -20.9598   12.3154 C   0  0  0  0  0  0  0  0  0  0  0  0
   29.7762  -17.4691    8.5918 N   0  0  0  0  0  0  0  0  0  0  0  0
   28.3239  -17.5525    8.6477 C   0  0  2  0  0  0  0  0  0  0  0  0
   27.9612  -18.5227    9.6987 C   0  0  0  0  0  0  0  0  0  0  0  0
   28.7908  -19.3439   10.2248 O   0  0  0  0  0  0  0  0  0  0  0  0
   27.7713  -17.9883    7.3060 C   0  0  2  0  0  0  0  0  0  0  0  0
   28.7381  -17.5881    6.2292 C   0  0  0  0  0  0  0  0  0  0  0  0
   26.4166  -17.3863    7.0076 C   0  0  0  0  0  0  0  0  0  0  0  0
   28.1991  -18.1624    4.9127 C   0  0  0  0  0  0  0  0  0  0  0  0
   26.6305  -18.6463   10.2487 N   0  0  0  0  0  0  0  0  0  0  0  0
   26.3321  -19.5626   11.3360 C   0  0  2  0  0  0  0  0  0  0  0  0
   24.9056  -19.5854   11.7055 C   0  0  0  0  0  0  0  0  0  0  0  0
   24.5836  -19.8142   12.8957 O   0  0  0  0  0  0  0  0  0  0  0  0
   27.1984  -19.2240   12.5543 C   0  0  0  0  0  0  0  0  0  0  0  0
   26.7950  -18.0354   13.1241 O   0  0  0  0  0  0  0  0  0  0  0  0
   23.8618  -19.3615   10.7712 N   0  0  0  0  0  0  0  0  0  0  0  0
   22.4716  -19.6931   11.0534 C   0  0  2  0  0  0  0  0  0  0  0  0
   22.3984  -20.6578   12.1947 C   0  0  0  0  0  0  0  0  0  0  0  0
   21.9667  -21.8290   12.0600 O   0  0  0  0  0  0  0  0  0  0  0  0
   21.8110  -20.2187    9.8233 C   0  0  0  0  0  0  0  0  0  0  0  0
   22.6128  -21.2643    9.1518 C   0  0  0  0  0  0  0  0  0  0  0  0
   22.1566  -21.9132    8.0376 C   0  0  0  0  0  0  0  0  0  0  0  0
   23.8454  -21.5798    9.6600 C   0  0  0  0  0  0  0  0  0  0  0  0
   22.8998  -22.8863    7.3953 C   0  0  0  0  0  0  0  0  0  0  0  0
   24.5995  -22.5495    9.0299 C   0  0  0  0  0  0  0  0  0  0  0  0
   24.1453  -23.1985    7.9160 C   0  0  0  0  0  0  0  0  0  0  0  0
   22.8153  -20.2942   13.4859 O   0  0  0  0  0  0  0  0  0  0  0  0
  2  1  1  6
  2  3  1  0
  2  5  1  0
  3  4  2  0
  3  9  1  0
  5  6  1  0
  5  7  1  6
  6  8  1  0
  9 10  1  0
 10 11  1  0
 10 13  1  1
 11 12  2  0
 11 17  1  0
 13 14  1  0
 14 15  1  0
 15 16  1  0
 18 17  1  6
 18 19  1  0
 18 21  1  0
 19 20  2  0
 19 25  1  0
 21 22  1  0
 21 23  1  6
 22 24  1  0
 25 26  1  0
 26 27  1  0
 26 29  1  1
 27 28  2  0
 27 31  1  0
 29 30  1  0
 31 32  1  0
 32 33  1  0
 32 35  1  6
 33 34  2  0
 33 42  1  0
 35 36  1  0
 36 37  2  0
 36 38  1  0
 37 39  1  0
 38 40  2  0
 39 41  2  0
 40 41  1  0
M  CHG  1   1   1
M  END
$$$$
