
     RDKit          3D

 42 42  0  0  0  0  0  0  0  0999 V2000
   31.8010  -13.4267   11.6314 N   0  0  0  0  0  4  0  0  0  0  0  0
   31.3294  -14.6773   12.1695 C   0  0  2  0  0  0  0  0  0  0  0  0
   30.1830  -15.2528   11.4694 C   0  0  0  0  0  0  0  0  0  0  0  0
   29.3181  -14.4421   11.0240 O   0  0  0  0  0  0  0  0  0  0  0  0
   31.0731  -14.4804   13.6474 C   0  0  2  0  0  0  0  0  0  0  0  0
   30.1666  -13.3367   13.9722 C   0  0  0  0  0  0  0  0  0  0  0  0
   32.3761  -14.4023   14.3921 C   0  0  0  0  0  0  0  0  0  0  0  0
   29.7524  -13.5301   15.4415 C   0  0  0  0  0  0  0  0  0  0  0  0
   29.9286  -16.6208   11.2328 N   0  0  0  0  0  0  0  0  0  0  0  0
   28.5940  -17.0366   10.8624 C   0  0  2  0  0  0  0  0  0  0  0  0
   27.7017  -17.1549   12.0524 C   0  0  0  0  0  0  0  0  0  0  0  0
   28.0694  -17.9113   12.9728 O   0  0  0  0  0  0  0  0  0  0  0  0
   28.7729  -18.4449   10.2578 C   0  0  0  0  0  0  0  0  0  0  0  0
   30.1449  -18.6013    9.6579 C   0  0  0  0  0  0  0  0  0  0  0  0
   30.1799  -17.5044    8.1864 S   0  0  0  0  0  0  0  0  0  0  0  0
   28.9516  -18.1207    7.0146 C   0  0  0  0  0  0  0  0  0  0  0  0
   26.4861  -16.4633   12.1798 N   0  0  0  0  0  0  0  0  0  0  0  0
   25.1974  -17.1406   12.1820 C   0  0  2  0  0  0  0  0  0  0  0  0
   25.4446  -18.5949   12.2160 C   0  0  0  0  0  0  0  0  0  0  0  0
   26.5947  -19.1249   12.0274 O   0  0  0  0  0  0  0  0  0  0  0  0
   24.4042  -16.7632   10.9476 C   0  0  2  0  0  0  0  0  0  0  0  0
   23.0088  -17.3004   11.0837 C   0  0  0  0  0  0  0  0  0  0  0  0
   25.0194  -17.2933    9.6719 C   0  0  0  0  0  0  0  0  0  0  0  0
   22.0839  -16.0911   11.2730 C   0  0  0  0  0  0  0  0  0  0  0  0
   24.4141  -19.5760   12.4697 N   0  0  0  0  0  0  0  0  0  0  0  0
   24.7223  -20.8911   13.0044 C   0  0  2  0  0  0  0  0  0  0  0  0
   23.5255  -21.6595   13.3909 C   0  0  0  0  0  0  0  0  0  0  0  0
   22.4514  -21.0517   13.6131 O   0  0  0  0  0  0  0  0  0  0  0  0
   25.6831  -20.7582   14.1913 C   0  0  0  0  0  0  0  0  0  0  0  0
   26.0073  -21.9987   14.6974 O   0  0  0  0  0  0  0  0  0  0  0  0
   23.5253  -23.0713   13.5295 N   0  0  0  0  0  0  0  0  0  0  0  0
   22.6437  -23.9356   12.7560 C   0  0  2  0  0  0  0  0  0  0  0  0
   22.8516  -25.3632   13.1528 C   0  0  0  0  0  0  0  0  0  0  0  0
   21.8966  -26.1374   13.4076 O   0  0  0  0  0  0  0  0  0  0  0  0
   22.8620  -23.7151   11.2968 C   0  0  0  0  0  0  0  0  0  0  0  0
   21.9305  -24.5008   10.4589 C   0  0  0  0  0  0  0  0  0  0  0  0
   20.6823  -24.8428   10.9011 C   0  0  0  0  0  0  0  0  0  0  0  0
   22.3325  -24.8859    9.2070 C   0  0  0  0  0  0  0  0  0  0  0  0
   19.7986  -25.5695   10.1248 C   0  0  0  0  0  0  0  0  0  0  0  0
   21.4616  -25.6122    8.4197 C   0  0  0  0  0  0  0  0  0  0  0  0
   20.2136  -25.9541    8.8600 C   0  0  0  0  0  0  0  0  0  0  0  0
   24.1407  -25.9111   13.2591 O   0  0  0  0  0  0  0  0  0  0  0  0
  2  1  1  6
  2  3  1  0
  2  5  1  0
  3  4  2  0
  3  9  1  0
  5  6  1  0
  5  7  1  1
  6  8  1  0
  9 10  1  0
 10 11  1  0
 10 13  1  1
 11 12  2  0
 11 17  1  0
 13 14  1  0
 14 15  1  0
 15 16  1  0
 18 17  1  6
 18 19  1  0
 18 21  1  0
 19 20  2  0
 19 25  1  0
 21 22  1  0
 21 23  1  6
 22 24  1  0
 25 26  1  0
 26 27  1  0
 26 29  1  1
 27 28  2  0
 27 31  1  0
 29 30  1  0
 31 32  1  0
 32 33  1  0
 32 35  1  6
 33 34  2  0
 33 42  1  0
 35 36  1  0
 36 37  2  0
 36 38  1  0
 37 39  1  0
 38 40  2  0
 39 41  2  0
 40 41  1  0
M  CHG  1   1   1
M  END
$$$$
