
     RDKit          3D

 42 42  0  0  0  0  0  0  0  0999 V2000
   36.0564  -11.8382    8.8168 N   0  0  0  0  0  4  0  0  0  0  0  0
   35.4500  -13.0580    9.2862 C   0  0  2  0  0  0  0  0  0  0  0  0
   33.9923  -13.0208    9.3824 C   0  0  0  0  0  0  0  0  0  0  0  0
   33.4305  -11.9121    9.1394 O   0  0  0  0  0  0  0  0  0  0  0  0
   36.1126  -13.4336   10.5933 C   0  0  2  0  0  0  0  0  0  0  0  0
   37.5718  -13.7395   10.4830 C   0  0  0  0  0  0  0  0  0  0  0  0
   35.3482  -14.5421   11.2607 C   0  0  0  0  0  0  0  0  0  0  0  0
   37.9674  -14.3976   11.8165 C   0  0  0  0  0  0  0  0  0  0  0  0
   33.1334  -14.0889    9.7191 N   0  0  0  0  0  0  0  0  0  0  0  0
   31.7038  -13.8711    9.7215 C   0  0  2  0  0  0  0  0  0  0  0  0
   30.9741  -14.9982   10.3724 C   0  0  0  0  0  0  0  0  0  0  0  0
   31.5107  -16.1231   10.3422 O   0  0  0  0  0  0  0  0  0  0  0  0
   31.3064  -13.8425    8.2309 C   0  0  0  0  0  0  0  0  0  0  0  0
   31.3908  -15.2188    7.6262 C   0  0  0  0  0  0  0  0  0  0  0  0
   31.4893  -14.9667    5.8106 S   0  0  0  0  0  0  0  0  0  0  0  0
   31.4996  -16.5959    5.0313 C   0  0  0  0  0  0  0  0  0  0  0  0
   29.7302  -14.8504   11.0072 N   0  0  0  0  0  0  0  0  0  0  0  0
   29.2044  -15.8394   11.9373 C   0  0  2  0  0  0  0  0  0  0  0  0
   28.1236  -16.5786   11.2571 C   0  0  0  0  0  0  0  0  0  0  0  0
   27.6114  -16.2201   10.1398 O   0  0  0  0  0  0  0  0  0  0  0  0
   28.6813  -15.1593   13.1860 C   0  0  2  0  0  0  0  0  0  0  0  0
   29.7429  -14.2418   13.7205 C   0  0  0  0  0  0  0  0  0  0  0  0
   28.2834  -16.1417   14.2645 C   0  0  0  0  0  0  0  0  0  0  0  0
   29.1318  -13.5072   14.9207 C   0  0  0  0  0  0  0  0  0  0  0  0
   27.5308  -17.7890   11.7787 N   0  0  0  0  0  0  0  0  0  0  0  0
   26.7706  -18.6957   10.9357 C   0  0  2  0  0  0  0  0  0  0  0  0
   26.5733  -20.0261   11.5382 C   0  0  0  0  0  0  0  0  0  0  0  0
   27.5247  -20.5717   12.1462 O   0  0  0  0  0  0  0  0  0  0  0  0
   27.4450  -18.8203    9.5649 C   0  0  0  0  0  0  0  0  0  0  0  0
   28.2205  -19.9583    9.5047 O   0  0  0  0  0  0  0  0  0  0  0  0
   25.3461  -20.7338   11.4632 N   0  0  0  0  0  0  0  0  0  0  0  0
   24.0686  -20.0684   11.2447 C   0  0  2  0  0  0  0  0  0  0  0  0
   23.8803  -19.7912    9.7864 C   0  0  0  0  0  0  0  0  0  0  0  0
   22.7797  -19.9581    9.2057 O   0  0  0  0  0  0  0  0  0  0  0  0
   23.9885  -18.8298   12.0723 C   0  0  0  0  0  0  0  0  0  0  0  0
   24.0515  -19.1118   13.5227 C   0  0  0  0  0  0  0  0  0  0  0  0
   24.7121  -18.2826   14.3868 C   0  0  0  0  0  0  0  0  0  0  0  0
   23.4238  -20.2296   14.0061 C   0  0  0  0  0  0  0  0  0  0  0  0
   24.7712  -18.5301   15.7458 C   0  0  0  0  0  0  0  0  0  0  0  0
   23.4740  -20.4906   15.3609 C   0  0  0  0  0  0  0  0  0  0  0  0
   24.1331  -19.6625   16.2257 C   0  0  0  0  0  0  0  0  0  0  0  0
   24.9386  -19.3246    8.9894 O   0  0  0  0  0  0  0  0  0  0  0  0
  2  1  1  1
  2  3  1  0
  2  5  1  0
  3  4  2  0
  3  9  1  0
  5  6  1  0
  5  7  1  6
  6  8  1  0
  9 10  1  0
 10 11  1  0
 10 13  1  6
 11 12  2  0
 11 17  1  0
 13 14  1  0
 14 15  1  0
 15 16  1  0
 18 17  1  6
 18 19  1  0
 18 21  1  0
 19 20  2  0
 19 25  1  0
 21 22  1  0
 21 23  1  1
 22 24  1  0
 25 26  1  0
 26 27  1  0
 26 29  1  6
 27 28  2  0
 27 31  1  0
 29 30  1  0
 31 32  1  0
 32 33  1  0
 32 35  1  1
 33 34  2  0
 33 42  1  0
 35 36  1  0
 36 37  2  0
 36 38  1  0
 37 39  1  0
 38 40  2  0
 39 41  2  0
 40 41  1  0
M  CHG  1   1   1
M  END
$$$$
