
     RDKit          3D

 42 42  0  0  0  0  0  0  0  0999 V2000
   34.8634  -12.9888    8.8141 N   0  0  0  0  0  4  0  0  0  0  0  0
   34.3746  -14.1877    8.1819 C   0  0  2  0  0  0  0  0  0  0  0  0
   33.3071  -14.8723    8.9080 C   0  0  0  0  0  0  0  0  0  0  0  0
   33.0297  -14.4361   10.0641 O   0  0  0  0  0  0  0  0  0  0  0  0
   35.5614  -15.0842    7.9051 C   0  0  2  0  0  0  0  0  0  0  0  0
   35.2780  -16.2166    6.9709 C   0  0  0  0  0  0  0  0  0  0  0  0
   36.1686  -15.5521    9.1977 C   0  0  0  0  0  0  0  0  0  0  0  0
   34.9533  -15.5718    5.6119 C   0  0  0  0  0  0  0  0  0  0  0  0
   32.5452  -15.9740    8.4631 N   0  0  0  0  0  0  0  0  0  0  0  0
   31.1463  -15.7842    8.1498 C   0  0  2  0  0  0  0  0  0  0  0  0
   30.5306  -17.0252    7.5956 C   0  0  0  0  0  0  0  0  0  0  0  0
   30.4989  -17.1458    6.3551 O   0  0  0  0  0  0  0  0  0  0  0  0
   31.1319  -14.7089    7.0433 C   0  0  0  0  0  0  0  0  0  0  0  0
   29.7586  -14.1097    6.8948 C   0  0  0  0  0  0  0  0  0  0  0  0
   28.6898  -15.4533    6.2452 S   0  0  0  0  0  0  0  0  0  0  0  0
   28.8048  -15.4216    4.4431 C   0  0  0  0  0  0  0  0  0  0  0  0
   29.9943  -18.0469    8.3961 N   0  0  0  0  0  0  0  0  0  0  0  0
   30.0816  -18.0292    9.8492 C   0  0  2  0  0  0  0  0  0  0  0  0
   28.7287  -17.7875   10.3864 C   0  0  0  0  0  0  0  0  0  0  0  0
   28.1947  -16.6270   10.4715 O   0  0  0  0  0  0  0  0  0  0  0  0
   31.0375  -16.9454   10.3042 C   0  0  2  0  0  0  0  0  0  0  0  0
   32.2744  -17.0005    9.4549 C   0  0  0  0  0  0  0  0  0  0  0  0
   31.4263  -17.0810   11.7592 C   0  0  0  0  0  0  0  0  0  0  0  0
   33.1796  -18.0822   10.0584 C   0  0  0  0  0  0  0  0  0  0  0  0
   27.8607  -18.8368   10.8703 N   0  0  0  0  0  0  0  0  0  0  0  0
   26.6937  -18.5511   11.6870 C   0  0  2  0  0  0  0  0  0  0  0  0
   27.0221  -18.2658   13.0951 C   0  0  0  0  0  0  0  0  0  0  0  0
   28.2244  -18.1635   13.4363 O   0  0  0  0  0  0  0  0  0  0  0  0
   25.6952  -19.7101   11.5914 C   0  0  0  0  0  0  0  0  0  0  0  0
   24.5627  -19.4402   12.3295 O   0  0  0  0  0  0  0  0  0  0  0  0
   26.0349  -18.1008   14.1005 N   0  0  0  0  0  0  0  0  0  0  0  0
   26.2157  -18.5808   15.4641 C   0  0  2  0  0  0  0  0  0  0  0  0
   25.0743  -18.1294   16.3197 C   0  0  0  0  0  0  0  0  0  0  0  0
   24.8056  -18.6663   17.4223 O   0  0  0  0  0  0  0  0  0  0  0  0
   27.5351  -18.1298   15.9946 C   0  0  0  0  0  0  0  0  0  0  0  0
   27.4132  -16.9760   16.9117 C   0  0  0  0  0  0  0  0  0  0  0  0
   26.4197  -16.9065   17.8491 C   0  0  0  0  0  0  0  0  0  0  0  0
   28.3263  -15.9588   16.8185 C   0  0  0  0  0  0  0  0  0  0  0  0
   26.2996  -15.8377   18.7180 C   0  0  0  0  0  0  0  0  0  0  0  0
   28.2196  -14.8845   17.6791 C   0  0  0  0  0  0  0  0  0  0  0  0
   27.2278  -14.8140   18.6169 C   0  0  0  0  0  0  0  0  0  0  0  0
   24.2404  -17.0701   15.9251 O   0  0  0  0  0  0  0  0  0  0  0  0
  2  1  1  1
  2  3  1  0
  2  5  1  0
  3  4  2  0
  3  9  1  0
  5  6  1  0
  5  7  1  1
  6  8  1  0
  9 10  1  0
 10 11  1  0
 10 13  1  6
 11 12  2  0
 11 17  1  0
 13 14  1  0
 14 15  1  0
 15 16  1  0
 18 17  1  6
 18 19  1  0
 18 21  1  0
 19 20  2  0
 19 25  1  0
 21 22  1  0
 21 23  1  1
 22 24  1  0
 25 26  1  0
 26 27  1  0
 26 29  1  1
 27 28  2  0
 27 31  1  0
 29 30  1  0
 31 32  1  0
 32 33  1  0
 32 35  1  1
 33 34  2  0
 33 42  1  0
 35 36  1  0
 36 37  2  0
 36 38  1  0
 37 39  1  0
 38 40  2  0
 39 41  2  0
 40 41  1  0
M  CHG  1   1   1
M  END
$$$$
