
     RDKit          3D

 42 42  0  0  0  0  0  0  0  0999 V2000
   33.5977  -14.0086   11.5517 N   0  0  0  0  0  4  0  0  0  0  0  0
   32.2150  -14.2699   11.8614 C   0  0  2  0  0  0  0  0  0  0  0  0
   31.4894  -15.0222   10.8402 C   0  0  0  0  0  0  0  0  0  0  0  0
   31.9492  -14.9775    9.6611 O   0  0  0  0  0  0  0  0  0  0  0  0
   31.5554  -12.9496   12.1938 C   0  0  2  0  0  0  0  0  0  0  0  0
   30.2286  -13.0730   12.8718 C   0  0  0  0  0  0  0  0  0  0  0  0
   31.4892  -12.0819   10.9686 C   0  0  0  0  0  0  0  0  0  0  0  0
   30.5252  -13.0823   14.3818 C   0  0  0  0  0  0  0  0  0  0  0  0
   30.3243  -15.7982   11.0209 N   0  0  0  0  0  0  0  0  0  0  0  0
   29.6563  -16.3487    9.8625 C   0  0  2  0  0  0  0  0  0  0  0  0
   28.4143  -17.0850   10.2387 C   0  0  0  0  0  0  0  0  0  0  0  0
   28.1047  -17.1093   11.4462 O   0  0  0  0  0  0  0  0  0  0  0  0
   30.6564  -17.3674    9.2770 C   0  0  0  0  0  0  0  0  0  0  0  0
   32.0108  -16.7390    9.0824 C   0  0  0  0  0  0  0  0  0  0  0  0
   32.7665  -17.6033    7.6501 S   0  0  0  0  0  0  0  0  0  0  0  0
   34.4251  -16.9281    7.4159 C   0  0  0  0  0  0  0  0  0  0  0  0
   27.5917  -17.7408    9.3083 N   0  0  0  0  0  0  0  0  0  0  0  0
   26.6745  -18.8053    9.6890 C   0  0  2  0  0  0  0  0  0  0  0  0
   25.9014  -18.3468   10.8592 C   0  0  0  0  0  0  0  0  0  0  0  0
   26.4336  -17.9987   11.9705 O   0  0  0  0  0  0  0  0  0  0  0  0
   27.4441  -20.0677   10.0196 C   0  0  2  0  0  0  0  0  0  0  0  0
   28.2871  -20.4468    8.8365 C   0  0  0  0  0  0  0  0  0  0  0  0
   26.5412  -21.2263   10.3791 C   0  0  0  0  0  0  0  0  0  0  0  0
   29.0555  -21.7159    9.2270 C   0  0  0  0  0  0  0  0  0  0  0  0
   24.4603  -18.2384   10.8737 N   0  0  0  0  0  0  0  0  0  0  0  0
   23.7051  -18.2192   12.1146 C   0  0  2  0  0  0  0  0  0  0  0  0
   23.7038  -19.5145   12.8175 C   0  0  0  0  0  0  0  0  0  0  0  0
   24.3682  -20.4685   12.3474 O   0  0  0  0  0  0  0  0  0  0  0  0
   22.2705  -17.7526   11.8434 C   0  0  0  0  0  0  0  0  0  0  0  0
   22.2627  -16.4728   11.3312 O   0  0  0  0  0  0  0  0  0  0  0  0
   22.9777  -19.7432   14.0145 N   0  0  0  0  0  0  0  0  0  0  0  0
   22.9904  -21.0246   14.7075 C   0  0  2  0  0  0  0  0  0  0  0  0
   21.8591  -21.8769   14.2254 C   0  0  0  0  0  0  0  0  0  0  0  0
   21.9612  -23.1215   14.0959 O   0  0  0  0  0  0  0  0  0  0  0  0
   22.9490  -20.8089   16.1831 C   0  0  0  0  0  0  0  0  0  0  0  0
   22.8526  -22.0765   16.9389 C   0  0  0  0  0  0  0  0  0  0  0  0
   23.9659  -22.7232   17.4001 C   0  0  0  0  0  0  0  0  0  0  0  0
   21.6132  -22.6058   17.1856 C   0  0  0  0  0  0  0  0  0  0  0  0
   23.8892  -23.9041   18.1153 C   0  0  0  0  0  0  0  0  0  0  0  0
   21.5200  -23.7845   17.8983 C   0  0  0  0  0  0  0  0  0  0  0  0
   22.6317  -24.4317   18.3604 C   0  0  0  0  0  0  0  0  0  0  0  0
   20.6143  -21.3178   13.8920 O   0  0  0  0  0  0  0  0  0  0  0  0
  2  1  1  6
  2  3  1  0
  2  5  1  0
  3  4  2  0
  3  9  1  0
  5  6  1  0
  5  7  1  6
  6  8  1  0
  9 10  1  0
 10 11  1  0
 10 13  1  1
 11 12  2  0
 11 17  1  0
 13 14  1  0
 14 15  1  0
 15 16  1  0
 18 17  1  1
 18 19  1  0
 18 21  1  0
 19 20  2  0
 19 25  1  0
 21 22  1  0
 21 23  1  6
 22 24  1  0
 25 26  1  0
 26 27  1  0
 26 29  1  6
 27 28  2  0
 27 31  1  0
 29 30  1  0
 31 32  1  0
 32 33  1  0
 32 35  1  1
 33 34  2  0
 33 42  1  0
 35 36  1  0
 36 37  2  0
 36 38  1  0
 37 39  1  0
 38 40  2  0
 39 41  2  0
 40 41  1  0
M  CHG  1   1   1
M  END
$$$$
