
     RDKit          3D

 42 42  0  0  0  0  0  0  0  0999 V2000
   35.4828  -14.1320   10.5854 N   0  0  0  0  0  4  0  0  0  0  0  0
   34.1895  -13.4971   10.5635 C   0  0  2  0  0  0  0  0  0  0  0  0
   33.1096  -14.2847   11.1540 C   0  0  0  0  0  0  0  0  0  0  0  0
   33.2966  -15.5337   11.2473 O   0  0  0  0  0  0  0  0  0  0  0  0
   33.8989  -13.0831    9.1377 C   0  0  2  0  0  0  0  0  0  0  0  0
   33.9034  -14.2079    8.1527 C   0  0  0  0  0  0  0  0  0  0  0  0
   34.8147  -11.9645    8.7273 C   0  0  0  0  0  0  0  0  0  0  0  0
   32.6536  -14.0077    7.2775 C   0  0  0  0  0  0  0  0  0  0  0  0
   31.8716  -13.8069   11.6349 N   0  0  0  0  0  0  0  0  0  0  0  0
   30.8955  -14.7511   12.1316 C   0  0  2  0  0  0  0  0  0  0  0  0
   29.9845  -15.2252   11.0492 C   0  0  0  0  0  0  0  0  0  0  0  0
   29.9267  -14.5427   10.0075 O   0  0  0  0  0  0  0  0  0  0  0  0
   30.0539  -13.9512   13.1478 C   0  0  0  0  0  0  0  0  0  0  0  0
   30.8795  -13.5723   14.3485 C   0  0  0  0  0  0  0  0  0  0  0  0
   29.6980  -12.8962   15.5799 S   0  0  0  0  0  0  0  0  0  0  0  0
   28.1909  -13.8877   15.4945 C   0  0  0  0  0  0  0  0  0  0  0  0
   29.2021  -16.3871   11.1500 N   0  0  0  0  0  0  0  0  0  0  0  0
   28.3102  -16.8242   10.0857 C   0  0  2  0  0  0  0  0  0  0  0  0
   27.2445  -17.6465   10.6901 C   0  0  0  0  0  0  0  0  0  0  0  0
   26.0056  -17.5404   10.3850 O   0  0  0  0  0  0  0  0  0  0  0  0
   29.0784  -17.6226    9.0523 C   0  0  2  0  0  0  0  0  0  0  0  0
   28.1472  -17.9941    7.9346 C   0  0  0  0  0  0  0  0  0  0  0  0
   29.6960  -18.8790    9.6239 C   0  0  0  0  0  0  0  0  0  0  0  0
   28.9720  -18.7909    6.9156 C   0  0  0  0  0  0  0  0  0  0  0  0
   27.4871  -18.6626   11.6888 N   0  0  0  0  0  0  0  0  0  0  0  0
   26.4273  -19.5302   12.1734 C   0  0  2  0  0  0  0  0  0  0  0  0
   25.0824  -19.1018   11.7497 C   0  0  0  0  0  0  0  0  0  0  0  0
   24.7618  -17.8939   11.8540 O   0  0  0  0  0  0  0  0  0  0  0  0
   26.5014  -19.6390   13.7005 C   0  0  0  0  0  0  0  0  0  0  0  0
   27.5490  -20.4499   14.0813 O   0  0  0  0  0  0  0  0  0  0  0  0
   24.1159  -19.9977   11.2245 N   0  0  0  0  0  0  0  0  0  0  0  0
   22.6839  -19.7414   11.3028 C   0  0  2  0  0  0  0  0  0  0  0  0
   22.1060  -20.4335   12.4968 C   0  0  0  0  0  0  0  0  0  0  0  0
   22.8071  -21.1122   13.2868 O   0  0  0  0  0  0  0  0  0  0  0  0
   22.0200  -20.1534   10.0319 C   0  0  0  0  0  0  0  0  0  0  0  0
   22.2698  -21.5718    9.6957 C   0  0  0  0  0  0  0  0  0  0  0  0
   23.3503  -21.9524    8.9484 C   0  0  0  0  0  0  0  0  0  0  0  0
   21.3967  -22.5230   10.1539 C   0  0  0  0  0  0  0  0  0  0  0  0
   23.6000  -23.2755    8.6343 C   0  0  0  0  0  0  0  0  0  0  0  0
   21.6323  -23.8486    9.8485 C   0  0  0  0  0  0  0  0  0  0  0  0
   22.7120  -24.2306    9.1025 C   0  0  0  0  0  0  0  0  0  0  0  0
   20.7353  -20.3546   12.7939 O   0  0  0  0  0  0  0  0  0  0  0  0
  2  1  1  6
  2  3  1  0
  2  5  1  0
  3  4  2  0
  3  9  1  0
  5  6  1  0
  5  7  1  6
  6  8  1  0
  9 10  1  0
 10 11  1  0
 10 13  1  1
 11 12  2  0
 11 17  1  0
 13 14  1  0
 14 15  1  0
 15 16  1  0
 18 17  1  1
 18 19  1  0
 18 21  1  0
 19 20  2  0
 19 25  1  0
 21 22  1  0
 21 23  1  1
 22 24  1  0
 25 26  1  0
 26 27  1  0
 26 29  1  1
 27 28  2  0
 27 31  1  0
 29 30  1  0
 31 32  1  0
 32 33  1  0
 32 35  1  6
 33 34  2  0
 33 42  1  0
 35 36  1  0
 36 37  2  0
 36 38  1  0
 37 39  1  0
 38 40  2  0
 39 41  2  0
 40 41  1  0
M  CHG  1   1   1
M  END
$$$$
