
     RDKit          3D

 42 42  0  0  0  0  0  0  0  0999 V2000
   36.5417  -12.7042    8.1218 N   0  0  0  0  0  4  0  0  0  0  0  0
   35.8023  -13.6632    8.9027 C   0  0  2  0  0  0  0  0  0  0  0  0
   34.4422  -13.2551    9.2476 C   0  0  0  0  0  0  0  0  0  0  0  0
   34.0791  -12.1003    8.8757 O   0  0  0  0  0  0  0  0  0  0  0  0
   36.6333  -14.0133   10.1174 C   0  0  2  0  0  0  0  0  0  0  0  0
   36.5426  -13.0255   11.2360 C   0  0  0  0  0  0  0  0  0  0  0  0
   38.0547  -14.2831    9.7111 C   0  0  0  0  0  0  0  0  0  0  0  0
   36.4061  -13.8569   12.5237 C   0  0  0  0  0  0  0  0  0  0  0  0
   33.4804  -14.0082    9.9547 N   0  0  0  0  0  0  0  0  0  0  0  0
   32.4068  -14.6451    9.2248 C   0  0  2  0  0  0  0  0  0  0  0  0
   31.5795  -15.5178   10.1082 C   0  0  0  0  0  0  0  0  0  0  0  0
   32.1007  -16.5703   10.5264 O   0  0  0  0  0  0  0  0  0  0  0  0
   33.1128  -15.5457    8.1899 C   0  0  0  0  0  0  0  0  0  0  0  0
   32.1089  -16.3275    7.3850 C   0  0  0  0  0  0  0  0  0  0  0  0
   31.6842  -15.2709    5.9453 S   0  0  0  0  0  0  0  0  0  0  0  0
   30.4130  -16.1295    4.9920 C   0  0  0  0  0  0  0  0  0  0  0  0
   30.2614  -15.2111   10.4837 N   0  0  0  0  0  0  0  0  0  0  0  0
   29.6183  -15.8129   11.6428 C   0  0  2  0  0  0  0  0  0  0  0  0
   28.4832  -16.6261   11.1658 C   0  0  0  0  0  0  0  0  0  0  0  0
   27.5864  -16.1923   10.3616 O   0  0  0  0  0  0  0  0  0  0  0  0
   29.1397  -14.7362   12.5952 C   0  0  2  0  0  0  0  0  0  0  0  0
   28.5873  -15.3894   13.8291 C   0  0  0  0  0  0  0  0  0  0  0  0
   28.0800  -13.8454   11.9868 C   0  0  0  0  0  0  0  0  0  0  0  0
   29.7357  -15.4649   14.8436 C   0  0  0  0  0  0  0  0  0  0  0  0
   28.2655  -18.0013   11.5534 N   0  0  0  0  0  0  0  0  0  0  0  0
   27.0621  -18.7229   11.1768 C   0  0  2  0  0  0  0  0  0  0  0  0
   26.0389  -18.7457   12.2372 C   0  0  0  0  0  0  0  0  0  0  0  0
   26.3625  -18.4375   13.4089 O   0  0  0  0  0  0  0  0  0  0  0  0
   27.4237  -20.1491   10.7470 C   0  0  0  0  0  0  0  0  0  0  0  0
   28.1990  -20.7655   11.7057 O   0  0  0  0  0  0  0  0  0  0  0  0
   24.6876  -19.1059   11.9992 N   0  0  0  0  0  0  0  0  0  0  0  0
   23.6528  -18.9873   13.0178 C   0  0  2  0  0  0  0  0  0  0  0  0
   23.3734  -20.3281   13.6202 C   0  0  0  0  0  0  0  0  0  0  0  0
   23.8677  -21.3879   13.1634 O   0  0  0  0  0  0  0  0  0  0  0  0
   22.4303  -18.3616   12.4350 C   0  0  0  0  0  0  0  0  0  0  0  0
   21.6994  -19.2778   11.5329 C   0  0  0  0  0  0  0  0  0  0  0  0
   20.6884  -20.0781   11.9888 C   0  0  0  0  0  0  0  0  0  0  0  0
   22.0446  -19.3145   10.2076 C   0  0  0  0  0  0  0  0  0  0  0  0
   19.9915  -20.9326   11.1546 C   0  0  0  0  0  0  0  0  0  0  0  0
   21.3582  -20.1628    9.3618 C   0  0  0  0  0  0  0  0  0  0  0  0
   20.3471  -20.9627    9.8158 C   0  0  0  0  0  0  0  0  0  0  0  0
   22.5356  -20.4654   14.7393 O   0  0  0  0  0  0  0  0  0  0  0  0
  2  1  1  1
  2  3  1  0
  2  5  1  0
  3  4  2  0
  3  9  1  0
  5  6  1  0
  5  7  1  6
  6  8  1  0
  9 10  1  0
 10 11  1  0
 10 13  1  6
 11 12  2  0
 11 17  1  0
 13 14  1  0
 14 15  1  0
 15 16  1  0
 18 17  1  6
 18 19  1  0
 18 21  1  0
 19 20  2  0
 19 25  1  0
 21 22  1  0
 21 23  1  6
 22 24  1  0
 25 26  1  0
 26 27  1  0
 26 29  1  1
 27 28  2  0
 27 31  1  0
 29 30  1  0
 31 32  1  0
 32 33  1  0
 32 35  1  6
 33 34  2  0
 33 42  1  0
 35 36  1  0
 36 37  2  0
 36 38  1  0
 37 39  1  0
 38 40  2  0
 39 41  2  0
 40 41  1  0
M  CHG  1   1   1
M  END
$$$$
