
     RDKit          3D

 42 42  0  0  0  0  0  0  0  0999 V2000
   30.6278  -16.2868   20.7138 N   0  0  0  0  0  4  0  0  0  0  0  0
   29.3191  -16.6304   20.2184 C   0  0  2  0  0  0  0  0  0  0  0  0
   29.3167  -17.4951   19.0405 C   0  0  0  0  0  0  0  0  0  0  0  0
   29.8411  -18.6406   19.1700 O   0  0  0  0  0  0  0  0  0  0  0  0
   28.5520  -15.3446   20.0012 C   0  0  2  0  0  0  0  0  0  0  0  0
   28.8533  -14.6538   18.7100 C   0  0  0  0  0  0  0  0  0  0  0  0
   28.7213  -14.4352   21.1855 C   0  0  0  0  0  0  0  0  0  0  0  0
   27.4976  -14.4598   18.0083 C   0  0  0  0  0  0  0  0  0  0  0  0
   28.7928  -17.1952   17.7647 N   0  0  0  0  0  0  0  0  0  0  0  0
   29.4954  -17.6548   16.5873 C   0  0  2  0  0  0  0  0  0  0  0  0
   28.7326  -17.3618   15.3389 C   0  0  0  0  0  0  0  0  0  0  0  0
   28.1724  -18.3194   14.7702 O   0  0  0  0  0  0  0  0  0  0  0  0
   29.5763  -19.1872   16.7489 C   0  0  0  0  0  0  0  0  0  0  0  0
   28.4326  -19.7001   17.5831 C   0  0  0  0  0  0  0  0  0  0  0  0
   28.9126  -21.3913   18.1112 S   0  0  0  0  0  0  0  0  0  0  0  0
   30.2951  -21.9170   17.0748 C   0  0  0  0  0  0  0  0  0  0  0  0
   28.6194  -16.0762   14.7851 N   0  0  0  0  0  0  0  0  0  0  0  0
   28.5354  -15.8475   13.3498 C   0  0  2  0  0  0  0  0  0  0  0  0
   29.8058  -16.2865   12.7411 C   0  0  0  0  0  0  0  0  0  0  0  0
   30.7443  -16.8636   13.3933 O   0  0  0  0  0  0  0  0  0  0  0  0
   28.2872  -14.3801   13.0660 C   0  0  2  0  0  0  0  0  0  0  0  0
   27.2941  -14.2630   11.9461 C   0  0  0  0  0  0  0  0  0  0  0  0
   29.5488  -13.6347   12.6924 C   0  0  0  0  0  0  0  0  0  0  0  0
   26.9546  -12.7733   11.8075 C   0  0  0  0  0  0  0  0  0  0  0  0
   30.1239  -16.1150   11.3417 N   0  0  0  0  0  0  0  0  0  0  0  0
   30.9007  -17.0976   10.6058 C   0  0  2  0  0  0  0  0  0  0  0  0
   31.1007  -16.7421    9.1896 C   0  0  0  0  0  0  0  0  0  0  0  0
   30.1100  -16.6986    8.4220 O   0  0  0  0  0  0  0  0  0  0  0  0
   30.2437  -18.4770   10.7269 C   0  0  0  0  0  0  0  0  0  0  0  0
   30.8257  -19.3726    9.8555 O   0  0  0  0  0  0  0  0  0  0  0  0
   32.3744  -16.4447    8.6401 N   0  0  0  0  0  0  0  0  0  0  0  0
   32.6554  -15.1983    7.9403 C   0  0  2  0  0  0  0  0  0  0  0  0
   32.8300  -14.0870    8.9269 C   0  0  0  0  0  0  0  0  0  0  0  0
   31.8602  -13.5558    9.5215 O   0  0  0  0  0  0  0  0  0  0  0  0
   31.5769  -14.9130    6.9498 C   0  0  0  0  0  0  0  0  0  0  0  0
   31.4336  -15.9863    5.9426 C   0  0  0  0  0  0  0  0  0  0  0  0
   31.3390  -17.3018    6.3046 C   0  0  0  0  0  0  0  0  0  0  0  0
   31.3879  -15.6458    4.6163 C   0  0  0  0  0  0  0  0  0  0  0  0
   31.1961  -18.3141    5.3737 C   0  0  0  0  0  0  0  0  0  0  0  0
   31.2457  -16.6453    3.6746 C   0  0  0  0  0  0  0  0  0  0  0  0
   31.1503  -17.9603    4.0348 C   0  0  0  0  0  0  0  0  0  0  0  0
   34.1026  -13.5807    9.2388 O   0  0  0  0  0  0  0  0  0  0  0  0
  2  1  1  6
  2  3  1  0
  2  5  1  0
  3  4  2  0
  3  9  1  0
  5  6  1  0
  5  7  1  1
  6  8  1  0
  9 10  1  0
 10 11  1  0
 10 13  1  1
 11 12  2  0
 11 17  1  0
 13 14  1  0
 14 15  1  0
 15 16  1  0
 18 17  1  1
 18 19  1  0
 18 21  1  0
 19 20  2  0
 19 25  1  0
 21 22  1  0
 21 23  1  6
 22 24  1  0
 25 26  1  0
 26 27  1  0
 26 29  1  6
 27 28  2  0
 27 31  1  0
 29 30  1  0
 31 32  1  0
 32 33  1  0
 32 35  1  6
 33 34  2  0
 33 42  1  0
 35 36  1  0
 36 37  2  0
 36 38  1  0
 37 39  1  0
 38 40  2  0
 39 41  2  0
 40 41  1  0
M  CHG  1   1   1
M  END
$$$$
