
     RDKit          3D

 24 26  0  0  0  0  0  0  0  0999 V2000
  -17.4445   15.9440   13.8878 O   0  0  0  0  0  0  0  0  0  0  0  0
  -18.4632   16.2352   14.7972 C   0  0  0  0  0  0  0  0  0  0  0  0
  -18.2160   16.0112   16.0056 O   0  0  0  0  0  0  0  0  0  0  0  0
  -19.7553   16.7746   14.3664 C   0  0  0  0  0  0  0  0  0  0  0  0
  -20.6531   17.1154   15.2190 N   0  0  0  0  0  0  0  0  0  0  0  0
  -19.9708   16.9057   12.9025 C   0  0  0  0  0  0  0  0  0  0  0  0
  -19.0041   17.8337   12.4508 O   0  0  0  0  0  0  0  0  0  0  0  0
  -21.2811   17.4491   12.5863 C   0  0  0  0  0  0  0  0  0  0  0  0
  -21.5999   17.6147   11.3813 O   0  0  0  0  0  0  0  0  0  0  0  0
  -22.2208   17.8009   13.6435 C   0  0  0  0  0  0  0  0  0  0  0  0
  -21.9213   17.6410   14.9255 C   0  0  0  0  0  0  0  0  0  0  0  0
  -22.8914   18.0070   15.9579 C   0  0  0  0  0  0  0  0  0  0  0  0
  -23.3904   17.0310   16.7894 C   0  0  0  0  0  0  0  0  0  0  0  0
  -22.9371   15.6287   16.6214 C   0  0  0  0  0  0  0  0  0  0  0  0
  -24.3247   17.3298   17.7998 C   0  0  0  0  0  0  0  0  0  0  0  0
  -23.3478   19.2929   16.1583 C   0  0  0  0  0  0  0  0  0  0  0  0
  -24.2796   19.5991   17.1639 C   0  0  0  0  0  0  0  0  0  0  0  0
  -24.7695   18.6151   17.9869 C   0  0  0  0  0  0  0  0  0  0  0  0
  -25.7421   18.9049   19.0442 C   0  0  0  0  0  0  0  0  0  0  0  0
  -26.5746   19.9286   19.1680 N   0  0  0  0  0  0  0  0  0  0  0  0
  -27.2692   19.7893   20.2718 O   0  0  0  0  0  0  0  0  0  0  0  0
  -26.8983   18.6699   20.8847 C   0  0  0  0  0  0  0  0  0  0  0  0
  -27.3414   18.2067   21.9660 O   0  0  0  0  0  0  0  0  0  0  0  0
  -25.9340   18.1105   20.1105 N   0  0  0  0  0  0  0  0  0  0  0  0
  1  2  1  0
  2  3  2  0
  2  4  1  0
  4  5  2  0
  4  6  1  0
  5 11  1  0
  6  7  1  0
  6  8  1  0
  8  9  2  0
  8 10  1  0
 10 11  2  0
 11 12  1  0
 12 13  2  0
 12 16  1  0
 14 13  1  6
 13 15  1  0
 15 18  2  0
 16 17  2  0
 17 18  1  0
 18 19  1  0
 19 20  2  0
 19 24  1  0
 20 21  1  0
 21 22  1  0
 22 23  2  0
 22 24  1  0
M  END
$$$$
