
     RDKit          3D

 24 26  0  0  0  0  0  0  0  0999 V2000
  -18.2110   16.1731   16.4594 O   0  0  0  0  0  0  0  0  0  0  0  0
  -18.4248   16.3779   15.0949 C   0  0  0  0  0  0  0  0  0  0  0  0
  -17.4649   16.1164   14.3322 O   0  0  0  0  0  0  0  0  0  0  0  0
  -19.7027   16.8724   14.5767 C   0  0  0  0  0  0  0  0  0  0  0  0
  -20.6646   17.1891   15.3663 N   0  0  0  0  0  0  0  0  0  0  0  0
  -19.8264   16.9875   13.1009 C   0  0  0  0  0  0  0  0  0  0  0  0
  -18.8625   17.9435   12.7052 O   0  0  0  0  0  0  0  0  0  0  0  0
  -21.1300   17.4862   12.6957 C   0  0  0  0  0  0  0  0  0  0  0  0
  -21.3747   17.6339   11.4712 O   0  0  0  0  0  0  0  0  0  0  0  0
  -22.1474   17.8138   13.6867 C   0  0  0  0  0  0  0  0  0  0  0  0
  -21.9271   17.6715   14.9867 C   0  0  0  0  0  0  0  0  0  0  0  0
  -22.9737   18.0122   15.9509 C   0  0  0  0  0  0  0  0  0  0  0  0
  -23.3745   17.0705   16.8705 C   0  0  0  0  0  0  0  0  0  0  0  0
  -22.7398   15.7298   16.8648 C   0  0  0  0  0  0  0  0  0  0  0  0
  -24.3761   17.3473   17.8208 C   0  0  0  0  0  0  0  0  0  0  0  0
  -23.5977   19.2410   16.0013 C   0  0  0  0  0  0  0  0  0  0  0  0
  -24.5976   19.5249   16.9462 C   0  0  0  0  0  0  0  0  0  0  0  0
  -24.9880   18.5757   17.8584 C   0  0  0  0  0  0  0  0  0  0  0  0
  -26.0282   18.8435   18.8554 C   0  0  0  0  0  0  0  0  0  0  0  0
  -26.3887   18.1293   19.9121 N   0  0  0  0  0  0  0  0  0  0  0  0
  -27.3681   18.7416   20.5334 O   0  0  0  0  0  0  0  0  0  0  0  0
  -27.6607   19.8665   19.8889 C   0  0  0  0  0  0  0  0  0  0  0  0
  -28.5413   20.7125   20.1873 O   0  0  0  0  0  0  0  0  0  0  0  0
  -26.8152   19.9320   18.8291 N   0  0  0  0  0  0  0  0  0  0  0  0
  1  2  1  0
  2  3  2  0
  2  4  1  0
  4  5  2  0
  4  6  1  0
  5 11  1  0
  6  7  1  0
  6  8  1  0
  8  9  2  0
  8 10  1  0
 10 11  2  0
 11 12  1  0
 12 13  2  0
 12 16  1  0
 14 13  1  6
 13 15  1  0
 15 18  2  0
 16 17  2  0
 17 18  1  0
 18 19  1  0
 19 20  2  0
 19 24  1  0
 20 21  1  0
 21 22  1  0
 22 23  2  0
 22 24  1  0
M  END
$$$$
