
     RDKit          3D

 24 26  0  0  0  0  0  0  0  0999 V2000
  -18.4182   16.2773   16.8543 O   0  0  0  0  0  0  0  0  0  0  0  0
  -18.5608   16.3833   15.4694 C   0  0  0  0  0  0  0  0  0  0  0  0
  -17.6179   15.9379   14.7737 O   0  0  0  0  0  0  0  0  0  0  0  0
  -19.7486   16.9829   14.8566 C   0  0  0  0  0  0  0  0  0  0  0  0
  -20.7191   17.4221   15.5738 N   0  0  0  0  0  0  0  0  0  0  0  0
  -19.7714   17.0557   13.3731 C   0  0  0  0  0  0  0  0  0  0  0  0
  -18.6937   17.8963   13.0104 O   0  0  0  0  0  0  0  0  0  0  0  0
  -20.9912   17.6661   12.8714 C   0  0  0  0  0  0  0  0  0  0  0  0
  -21.1459   17.7926   11.6299 O   0  0  0  0  0  0  0  0  0  0  0  0
  -22.0276   18.1290   13.7856 C   0  0  0  0  0  0  0  0  0  0  0  0
  -21.9012   18.0132   15.1006 C   0  0  0  0  0  0  0  0  0  0  0  0
  -22.9638   18.4910   15.9859 C   0  0  0  0  0  0  0  0  0  0  0  0
  -23.9644   17.6260   16.3648 C   0  0  0  0  0  0  0  0  0  0  0  0
  -23.9472   16.2287   15.8672 C   0  0  0  0  0  0  0  0  0  0  0  0
  -25.0093   18.0345   17.2159 C   0  0  0  0  0  0  0  0  0  0  0  0
  -23.0299   19.7779   16.4775 C   0  0  0  0  0  0  0  0  0  0  0  0
  -24.0689   20.1930   17.3268 C   0  0  0  0  0  0  0  0  0  0  0  0
  -25.0613   19.3192   17.6971 C   0  0  0  0  0  0  0  0  0  0  0  0
  -26.1573   19.7241   18.5817 C   0  0  0  0  0  0  0  0  0  0  0  0
  -26.6402   20.9333   18.8286 N   0  0  0  0  0  0  0  0  0  0  0  0
  -27.6262   20.8374   19.6882 O   0  0  0  0  0  0  0  0  0  0  0  0
  -27.8005   19.5609   20.0147 C   0  0  0  0  0  0  0  0  0  0  0  0
  -28.6493   19.0833   20.8094 O   0  0  0  0  0  0  0  0  0  0  0  0
  -26.8735   18.8568   19.3166 N   0  0  0  0  0  0  0  0  0  0  0  0
  1  2  1  0
  2  3  2  0
  2  4  1  0
  4  5  2  0
  4  6  1  0
  5 11  1  0
  6  7  1  0
  6  8  1  0
  8  9  2  0
  8 10  1  0
 10 11  2  0
 11 12  1  0
 12 13  2  0
 12 16  1  0
 14 13  1  6
 13 15  1  0
 15 18  2  0
 16 17  2  0
 17 18  1  0
 18 19  1  0
 19 20  2  0
 19 24  1  0
 20 21  1  0
 21 22  1  0
 22 23  2  0
 22 24  1  0
M  END
$$$$
