
     RDKit          3D

 24 26  0  0  0  0  0  0  0  0999 V2000
  -18.7111   16.3513   17.0846 O   0  0  0  0  0  0  0  0  0  0  0  0
  -18.7480   16.4696   15.6938 C   0  0  0  0  0  0  0  0  0  0  0  0
  -17.7214   16.1053   15.0734 O   0  0  0  0  0  0  0  0  0  0  0  0
  -19.9229   16.9917   14.9917 C   0  0  0  0  0  0  0  0  0  0  0  0
  -20.9761   17.3526   15.6316 N   0  0  0  0  0  0  0  0  0  0  0  0
  -19.8326   17.0811   13.5117 C   0  0  0  0  0  0  0  0  0  0  0  0
  -18.7920   17.9999   13.2424 O   0  0  0  0  0  0  0  0  0  0  0  0
  -21.0489   17.6104   12.9178 C   0  0  0  0  0  0  0  0  0  0  0  0
  -21.1129   17.7411   11.6688 O   0  0  0  0  0  0  0  0  0  0  0  0
  -22.1852   17.9878   13.7489 C   0  0  0  0  0  0  0  0  0  0  0  0
  -22.1559   17.8648   15.0691 C   0  0  0  0  0  0  0  0  0  0  0  0
  -23.3169   18.2557   15.8693 C   0  0  0  0  0  0  0  0  0  0  0  0
  -24.2964   17.3263   16.1335 C   0  0  0  0  0  0  0  0  0  0  0  0
  -24.1571   15.9490   15.6006 C   0  0  0  0  0  0  0  0  0  0  0  0
  -25.4329   17.6499   16.8994 C   0  0  0  0  0  0  0  0  0  0  0  0
  -23.4981   19.5203   16.3889 C   0  0  0  0  0  0  0  0  0  0  0  0
  -24.6289   19.8510   17.1538 C   0  0  0  0  0  0  0  0  0  0  0  0
  -25.5989   18.9135   17.4099 C   0  0  0  0  0  0  0  0  0  0  0  0
  -26.7890   19.2298   18.2045 C   0  0  0  0  0  0  0  0  0  0  0  0
  -27.9360   18.5735   18.3049 N   0  0  0  0  0  0  0  0  0  0  0  0
  -28.7287   19.2131   19.1312 O   0  0  0  0  0  0  0  0  0  0  0  0
  -28.1079   20.2983   19.5823 C   0  0  0  0  0  0  0  0  0  0  0  0
  -28.5517   21.1538   20.3894 O   0  0  0  0  0  0  0  0  0  0  0  0
  -26.8830   20.3099   18.9979 N   0  0  0  0  0  0  0  0  0  0  0  0
  1  2  1  0
  2  3  2  0
  2  4  1  0
  4  5  2  0
  4  6  1  0
  5 11  1  0
  6  7  1  0
  6  8  1  0
  8  9  2  0
  8 10  1  0
 10 11  2  0
 11 12  1  0
 12 13  2  0
 12 16  1  0
 14 13  1  6
 13 15  1  0
 15 18  2  0
 16 17  2  0
 17 18  1  0
 18 19  1  0
 19 20  2  0
 19 24  1  0
 20 21  1  0
 21 22  1  0
 22 23  2  0
 22 24  1  0
M  END
$$$$
