
     RDKit          3D

 24 26  0  0  0  0  0  0  0  0999 V2000
  -18.3370   16.1505   16.3041 O   0  0  0  0  0  0  0  0  0  0  0  0
  -18.5852   16.3819   14.9497 C   0  0  0  0  0  0  0  0  0  0  0  0
  -17.6728   16.0641   14.1509 O   0  0  0  0  0  0  0  0  0  0  0  0
  -19.8447   16.9654   14.4816 C   0  0  0  0  0  0  0  0  0  0  0  0
  -20.7671   17.3094   15.3061 N   0  0  0  0  0  0  0  0  0  0  0  0
  -19.9977   17.1370   13.0140 C   0  0  0  0  0  0  0  0  0  0  0  0
  -18.9903   18.0495   12.6241 O   0  0  0  0  0  0  0  0  0  0  0  0
  -21.2799   17.7223   12.6597 C   0  0  0  0  0  0  0  0  0  0  0  0
  -21.5456   17.9249   11.4475 O   0  0  0  0  0  0  0  0  0  0  0  0
  -22.2521   18.0735   13.6872 C   0  0  0  0  0  0  0  0  0  0  0  0
  -22.0087   17.8752   14.9757 C   0  0  0  0  0  0  0  0  0  0  0  0
  -23.0100   18.2421   15.9776 C   0  0  0  0  0  0  0  0  0  0  0  0
  -23.8806   17.2833   16.4421 C   0  0  0  0  0  0  0  0  0  0  0  0
  -23.7881   15.8991   15.9170 C   0  0  0  0  0  0  0  0  0  0  0  0
  -24.8616   17.5831   17.4068 C   0  0  0  0  0  0  0  0  0  0  0  0
  -23.1413   19.5118   16.4997 C   0  0  0  0  0  0  0  0  0  0  0  0
  -24.1173   19.8189   17.4621 C   0  0  0  0  0  0  0  0  0  0  0  0
  -24.9798   18.8521   17.9170 C   0  0  0  0  0  0  0  0  0  0  0  0
  -26.0076   19.1432   18.9204 C   0  0  0  0  0  0  0  0  0  0  0  0
  -26.4800   18.3760   19.8922 N   0  0  0  0  0  0  0  0  0  0  0  0
  -27.3958   19.0376   20.5583 O   0  0  0  0  0  0  0  0  0  0  0  0
  -27.5337   20.2488   20.0287 C   0  0  0  0  0  0  0  0  0  0  0  0
  -28.3146   21.1615   20.3991 O   0  0  0  0  0  0  0  0  0  0  0  0
  -26.6576   20.3167   18.9943 N   0  0  0  0  0  0  0  0  0  0  0  0
  1  2  1  0
  2  3  2  0
  2  4  1  0
  4  5  2  0
  4  6  1  0
  5 11  1  0
  6  7  1  0
  6  8  1  0
  8  9  2  0
  8 10  1  0
 10 11  2  0
 11 12  1  0
 12 13  2  0
 12 16  1  0
 14 13  1  6
 13 15  1  0
 15 18  2  0
 16 17  2  0
 17 18  1  0
 18 19  1  0
 19 20  2  0
 19 24  1  0
 20 21  1  0
 21 22  1  0
 22 23  2  0
 22 24  1  0
M  END
$$$$
