
     RDKit          3D

 24 26  0  0  0  0  0  0  0  0999 V2000
  -18.8355   15.8979   17.0070 O   0  0  0  0  0  0  0  0  0  0  0  0
  -18.9457   16.1736   15.6427 C   0  0  0  0  0  0  0  0  0  0  0  0
  -18.0000   15.7886   14.9155 O   0  0  0  0  0  0  0  0  0  0  0  0
  -20.1043   16.8758   15.0854 C   0  0  0  0  0  0  0  0  0  0  0  0
  -21.0763   17.2564   15.8333 N   0  0  0  0  0  0  0  0  0  0  0  0
  -20.0958   17.1226   13.6206 C   0  0  0  0  0  0  0  0  0  0  0  0
  -18.9884   17.9676   13.3771 O   0  0  0  0  0  0  0  0  0  0  0  0
  -21.2881   17.8235   13.1743 C   0  0  0  0  0  0  0  0  0  0  0  0
  -21.4148   18.0991   11.9540 O   0  0  0  0  0  0  0  0  0  0  0  0
  -22.3293   18.2065   14.1196 C   0  0  0  0  0  0  0  0  0  0  0  0
  -22.2322   17.9336   15.4138 C   0  0  0  0  0  0  0  0  0  0  0  0
  -23.2985   18.3356   16.3316 C   0  0  0  0  0  0  0  0  0  0  0  0
  -24.5118   17.6890   16.2787 C   0  0  0  0  0  0  0  0  0  0  0  0
  -24.7150   16.6001   15.2922 C   0  0  0  0  0  0  0  0  0  0  0  0
  -25.5704   18.0358   17.1401 C   0  0  0  0  0  0  0  0  0  0  0  0
  -23.1652   19.3401   17.2671 C   0  0  0  0  0  0  0  0  0  0  0  0
  -24.2164   19.6919   18.1299 C   0  0  0  0  0  0  0  0  0  0  0  0
  -25.4223   19.0382   18.0664 C   0  0  0  0  0  0  0  0  0  0  0  0
  -26.5365   19.3836   18.9535 C   0  0  0  0  0  0  0  0  0  0  0  0
  -27.8090   19.0187   18.8920 N   0  0  0  0  0  0  0  0  0  0  0  0
  -28.4625   19.5602   19.8920 O   0  0  0  0  0  0  0  0  0  0  0  0
  -27.6229   20.2878   20.6214 C   0  0  0  0  0  0  0  0  0  0  0  0
  -27.8858   20.9521   21.6556 O   0  0  0  0  0  0  0  0  0  0  0  0
  -26.4063   20.1771   20.0299 N   0  0  0  0  0  0  0  0  0  0  0  0
  1  2  1  0
  2  3  2  0
  2  4  1  0
  4  5  2  0
  4  6  1  0
  5 11  1  0
  6  7  1  0
  6  8  1  0
  8  9  2  0
  8 10  1  0
 10 11  2  0
 11 12  1  0
 12 13  2  0
 12 16  1  0
 14 13  1  6
 13 15  1  0
 15 18  2  0
 16 17  2  0
 17 18  1  0
 18 19  1  0
 19 20  2  0
 19 24  1  0
 20 21  1  0
 21 22  1  0
 22 23  2  0
 22 24  1  0
M  END
$$$$
