
     RDKit          3D

 24 26  0  0  0  0  0  0  0  0999 V2000
  -18.4211   16.9066   16.8077 O   0  0  0  0  0  0  0  0  0  0  0  0
  -18.5628   16.8389   15.4203 C   0  0  0  0  0  0  0  0  0  0  0  0
  -17.5525   16.4794   14.7711 O   0  0  0  0  0  0  0  0  0  0  0  0
  -19.8245   17.1699   14.7535 C   0  0  0  0  0  0  0  0  0  0  0  0
  -20.8603   17.5243   15.4246 N   0  0  0  0  0  0  0  0  0  0  0  0
  -19.8425   17.0747   13.2711 C   0  0  0  0  0  0  0  0  0  0  0  0
  -18.9091   18.0319   12.8107 O   0  0  0  0  0  0  0  0  0  0  0  0
  -21.1386   17.4234   12.7137 C   0  0  0  0  0  0  0  0  0  0  0  0
  -21.2981   17.3864   11.4670 O   0  0  0  0  0  0  0  0  0  0  0  0
  -22.2456   17.8121   13.5786 C   0  0  0  0  0  0  0  0  0  0  0  0
  -22.1165   17.8630   14.8975 C   0  0  0  0  0  0  0  0  0  0  0  0
  -23.2513   18.2590   15.7320 C   0  0  0  0  0  0  0  0  0  0  0  0
  -23.7971   17.3454   16.6040 C   0  0  0  0  0  0  0  0  0  0  0  0
  -23.2263   15.9783   16.6790 C   0  0  0  0  0  0  0  0  0  0  0  0
  -24.8885   17.6755   17.4304 C   0  0  0  0  0  0  0  0  0  0  0  0
  -23.8216   19.5144   15.7033 C   0  0  0  0  0  0  0  0  0  0  0  0
  -24.9104   19.8514   16.5244 C   0  0  0  0  0  0  0  0  0  0  0  0
  -25.4454   18.9297   17.3903 C   0  0  0  0  0  0  0  0  0  0  0  0
  -26.5808   19.2529   18.2587 C   0  0  0  0  0  0  0  0  0  0  0  0
  -27.6905   19.9230   17.9831 N   0  0  0  0  0  0  0  0  0  0  0  0
  -28.4399   19.9782   19.0581 O   0  0  0  0  0  0  0  0  0  0  0  0
  -27.8278   19.3431   20.0522 C   0  0  0  0  0  0  0  0  0  0  0  0
  -28.2394   19.1884   21.2298 O   0  0  0  0  0  0  0  0  0  0  0  0
  -26.6537   18.8846   19.5487 N   0  0  0  0  0  0  0  0  0  0  0  0
  1  2  1  0
  2  3  2  0
  2  4  1  0
  4  5  2  0
  4  6  1  0
  5 11  1  0
  6  7  1  0
  6  8  1  0
  8  9  2  0
  8 10  1  0
 10 11  2  0
 11 12  1  0
 12 13  2  0
 12 16  1  0
 14 13  1  6
 13 15  1  0
 15 18  2  0
 16 17  2  0
 17 18  1  0
 18 19  1  0
 19 20  2  0
 19 24  1  0
 20 21  1  0
 21 22  1  0
 22 23  2  0
 22 24  1  0
M  END
$$$$
