
     RDKit          3D

 24 26  0  0  0  0  0  0  0  0999 V2000
  -22.7549   19.2060   13.9682 O   0  0  0  0  0  0  0  0  0  0  0  0
  -21.5899   18.6060   13.4861 C   0  0  0  0  0  0  0  0  0  0  0  0
  -21.3336   18.7770   12.2710 O   0  0  0  0  0  0  0  0  0  0  0  0
  -20.7099   17.8167   14.3514 C   0  0  0  0  0  0  0  0  0  0  0  0
  -21.0146   17.5831   15.5768 N   0  0  0  0  0  0  0  0  0  0  0  0
  -19.4560   17.3046   13.7413 C   0  0  0  0  0  0  0  0  0  0  0  0
  -19.8588   16.4259   12.7092 O   0  0  0  0  0  0  0  0  0  0  0  0
  -18.6596   16.5372   14.6841 C   0  0  0  0  0  0  0  0  0  0  0  0
  -17.5686   16.0421   14.3022 O   0  0  0  0  0  0  0  0  0  0  0  0
  -19.1095   16.3377   16.0560 C   0  0  0  0  0  0  0  0  0  0  0  0
  -20.2537   16.8437   16.4961 C   0  0  0  0  0  0  0  0  0  0  0  0
  -20.6715   16.6206   17.8805 C   0  0  0  0  0  0  0  0  0  0  0  0
  -19.9148   17.1418   18.9046 C   0  0  0  0  0  0  0  0  0  0  0  0
  -18.6909   17.9165   18.5852 C   0  0  0  0  0  0  0  0  0  0  0  0
  -20.2731   16.9576   20.2540 C   0  0  0  0  0  0  0  0  0  0  0  0
  -21.7983   15.9087   18.2350 C   0  0  0  0  0  0  0  0  0  0  0  0
  -22.1624   15.7206   19.5785 C   0  0  0  0  0  0  0  0  0  0  0  0
  -21.3980   16.2463   20.5908 C   0  0  0  0  0  0  0  0  0  0  0  0
  -21.7533   16.0662   22.0012 C   0  0  0  0  0  0  0  0  0  0  0  0
  -22.0536   14.9569   22.6612 N   0  0  0  0  0  0  0  0  0  0  0  0
  -22.3090   15.2546   23.9127 O   0  0  0  0  0  0  0  0  0  0  0  0
  -22.1784   16.5657   24.0867 C   0  0  0  0  0  0  0  0  0  0  0  0
  -22.3432   17.2167   25.1493 O   0  0  0  0  0  0  0  0  0  0  0  0
  -21.8275   17.0794   22.8804 N   0  0  0  0  0  0  0  0  0  0  0  0
  1  2  1  0
  2  3  2  0
  2  4  1  0
  4  5  2  0
  4  6  1  0
  5 11  1  0
  6  7  1  0
  6  8  1  0
  8  9  2  0
  8 10  1  0
 10 11  2  0
 11 12  1  0
 12 13  2  0
 12 16  1  0
 14 13  1  6
 13 15  1  0
 15 18  2  0
 16 17  2  0
 17 18  1  0
 18 19  1  0
 19 20  2  0
 19 24  1  0
 20 21  1  0
 21 22  1  0
 22 23  2  0
 22 24  1  0
M  END
$$$$
