
     RDKit          3D

 24 26  0  0  0  0  0  0  0  0999 V2000
  -18.7666   16.2823   16.7607 O   0  0  0  0  0  0  0  0  0  0  0  0
  -18.7942   16.3974   15.3695 C   0  0  0  0  0  0  0  0  0  0  0  0
  -17.7419   16.0906   14.7613 O   0  0  0  0  0  0  0  0  0  0  0  0
  -19.9883   16.8527   14.6534 C   0  0  0  0  0  0  0  0  0  0  0  0
  -21.0498   17.2057   15.2841 N   0  0  0  0  0  0  0  0  0  0  0  0
  -19.9075   16.8842   13.1705 C   0  0  0  0  0  0  0  0  0  0  0  0
  -18.8981   17.8239   12.8580 O   0  0  0  0  0  0  0  0  0  0  0  0
  -21.1427   17.3497   12.5624 C   0  0  0  0  0  0  0  0  0  0  0  0
  -21.2164   17.4270   11.3095 O   0  0  0  0  0  0  0  0  0  0  0  0
  -22.2868   17.7244   13.3840 C   0  0  0  0  0  0  0  0  0  0  0  0
  -22.2478   17.6566   14.7078 C   0  0  0  0  0  0  0  0  0  0  0  0
  -23.4172   18.0427   15.4981 C   0  0  0  0  0  0  0  0  0  0  0  0
  -23.9580   17.1408   16.3853 C   0  0  0  0  0  0  0  0  0  0  0  0
  -23.3469   15.7960   16.5212 C   0  0  0  0  0  0  0  0  0  0  0  0
  -25.0818   17.4622   17.1707 C   0  0  0  0  0  0  0  0  0  0  0  0
  -24.0257   19.2773   15.4122 C   0  0  0  0  0  0  0  0  0  0  0  0
  -25.1469   19.6055   16.1922 C   0  0  0  0  0  0  0  0  0  0  0  0
  -25.6765   18.6957   17.0738 C   0  0  0  0  0  0  0  0  0  0  0  0
  -26.8452   19.0102   17.9003 C   0  0  0  0  0  0  0  0  0  0  0  0
  -27.5004   18.2455   18.7619 N   0  0  0  0  0  0  0  0  0  0  0  0
  -28.4891   18.9316   19.2833 O   0  0  0  0  0  0  0  0  0  0  0  0
  -28.4925   20.1565   18.7676 C   0  0  0  0  0  0  0  0  0  0  0  0
  -29.2899   21.0932   19.0258 O   0  0  0  0  0  0  0  0  0  0  0  0
  -27.4548   20.2074   17.8941 N   0  0  0  0  0  0  0  0  0  0  0  0
  1  2  1  0
  2  3  2  0
  2  4  1  0
  4  5  2  0
  4  6  1  0
  5 11  1  0
  6  7  1  0
  6  8  1  0
  8  9  2  0
  8 10  1  0
 10 11  2  0
 11 12  1  0
 12 13  2  0
 12 16  1  0
 14 13  1  6
 13 15  1  0
 15 18  2  0
 16 17  2  0
 17 18  1  0
 18 19  1  0
 19 20  2  0
 19 24  1  0
 20 21  1  0
 21 22  1  0
 22 23  2  0
 22 24  1  0
M  END
$$$$
