
     RDKit          3D

 42 45  0  0  0  0  0  0  0  0999 V2000
   74.3145   54.4514   15.4476 C   0  0  0  0  0  0  0  0  0  0  0  0
   70.4142   55.6862   15.2746 C   0  0  0  0  0  0  0  0  0  0  0  0
   72.6413   59.0663   17.8489 C   0  0  0  0  0  0  0  0  0  0  0  0
   75.4291   61.5064   18.2513 C   0  0  0  0  0  0  0  0  0  0  0  0
   73.8806   61.2149   19.9540 C   0  0  1  0  0  0  0  0  0  0  0  0
   72.4355   60.8347   20.1848 C   0  0  0  0  0  0  0  0  0  0  0  0
   65.9469   54.1401   12.9102 C   0  0  0  0  0  0  0  0  0  0  0  0
   66.3537   52.6996   13.0988 C   0  0  0  0  0  0  0  0  0  0  0  0
   67.8552   52.6253   13.0562 C   0  0  0  0  0  0  0  0  0  0  0  0
   68.5121   53.5395   14.0600 C   0  0  0  0  0  0  0  0  0  0  0  0
   67.9226   54.9014   14.1064 C   0  0  0  0  0  0  0  0  0  0  0  0
   66.4083   54.8963   14.1387 C   0  0  0  0  0  0  0  0  0  0  0  0
   72.3929   55.1770   14.0012 C   0  0  0  0  0  0  0  0  0  0  0  0
   73.5061   54.1956   14.2125 C   0  0  1  0  0  0  0  0  0  0  0  0
   74.4100   54.2239   12.9898 C   0  0  0  0  0  0  0  0  0  0  0  0
   70.9038   57.1116   15.3293 C   0  0  2  0  0  0  0  0  0  0  0  0
   71.0951   57.4663   16.7826 C   0  0  2  0  0  0  0  0  0  0  0  0
   74.4578   60.4594   18.7574 C   0  0  1  0  0  0  0  0  0  0  0  0
   73.8781   62.6192   19.4228 C   0  0  1  0  0  0  0  0  0  0  0  0
   71.7421   62.1627   19.9113 C   0  0  0  0  0  0  0  0  0  0  0  0
   69.8182   57.3760   17.5347 C   0  0  0  0  0  0  0  0  0  0  0  0
   68.8848   58.5362   17.4352 C   0  0  0  0  0  0  0  0  0  0  0  0
   67.9018   58.5480   18.5740 C   0  0  0  0  0  0  0  0  0  0  0  0
   68.5826   59.0347   19.8530 C   0  0  0  0  0  0  0  0  0  0  0  0
   68.7152   60.5476   19.7524 C   0  0  0  0  0  0  0  0  0  0  0  0
   68.8799   60.8839   18.2766 C   0  0  0  0  0  0  0  0  0  0  0  0
   69.6940   59.8508   17.5470 C   0  0  0  0  0  0  0  0  0  0  0  0
   63.8410   52.8990   12.7364 C   0  0  0  0  0  0  0  0  0  0  0  0
   74.7991   55.6139   12.6070 C   0  0  0  0  0  0  0  0  0  0  0  0
   75.2997   53.2952   15.6201 C   0  0  0  0  0  0  0  0  0  0  0  0
   64.4572   54.2813   12.6953 C   0  0  1  0  0  0  0  0  0  0  0  0
   71.1069   54.8059   14.4264 N   0  0  0  0  0  0  0  0  0  0  0  0
   71.6332   58.8204   16.9091 N   0  0  0  0  0  0  0  0  0  0  0  0
   70.2827   54.0070   12.0724 O   0  0  0  0  0  0  0  0  0  0  0  0
   70.8946   52.3186   13.6620 O   0  0  0  0  0  0  0  0  0  0  0  0
   70.0223   58.0009   14.7603 O   0  0  0  0  0  0  0  0  0  0  0  0
   72.9216   58.2107   18.7428 O   0  0  0  0  0  0  0  0  0  0  0  0
   73.3910   60.2322   17.8746 O   0  0  0  0  0  0  0  0  0  0  0  0
   74.7029   62.6816   18.3350 O   0  0  0  0  0  0  0  0  0  0  0  0
   72.5596   62.7797   18.9672 O   0  0  0  0  0  0  0  0  0  0  0  0
   63.8732   55.0160   13.7275 O   0  0  0  0  0  0  0  0  0  0  0  0
   70.2381   53.6633   13.5598 S   0  0  2  0  0  6  0  0  0  0  0  0
 14  1  1  1
  1 30  1  0
  2 16  1  0
 32  2  1  0
 33  3  1  0
  3 37  2  0
  3 38  1  0
 18  4  1  0
  4 39  1  0
  5  6  1  6
 18  5  1  0
  5 19  1  0
  6 20  1  0
  8  7  1  0
 12  7  1  0
  7 31  1  0
  9  8  1  0
 10  9  1  0
 10 11  1  0
 42 10  1  0
 11 12  1  0
 13 14  1  0
 32 13  1  0
 14 15  1  0
 15 29  1  0
 16 17  1  0
 16 36  1  1
 17 21  1  1
 17 33  1  0
 18 38  1  6
 19 39  1  6
 19 40  1  0
 40 20  1  0
 21 22  1  0
 22 23  1  0
 22 27  1  0
 23 24  1  0
 24 25  1  0
 26 25  1  0
 27 26  1  0
 31 28  1  1
 31 41  1  0
 42 32  1  1
 42 34  2  0
 42 35  2  0
M  END
$$$$
