
     RDKit          3D

 42 45  0  0  0  0  0  0  0  0999 V2000
   67.6449   54.7901   16.4190 C   0  0  0  0  0  0  0  0  0  0  0  0
   70.0313   56.8469   16.8655 C   0  0  0  0  0  0  0  0  0  0  0  0
   73.5386   58.0982   15.9680 C   0  0  0  0  0  0  0  0  0  0  0  0
   76.1953   60.0073   17.3676 C   0  0  0  0  0  0  0  0  0  0  0  0
   74.7074   59.3864   19.0357 C   0  0  1  0  0  0  0  0  0  0  0  0
   73.2413   59.0946   19.2628 C   0  0  0  0  0  0  0  0  0  0  0  0
   68.0893   62.1686   20.3112 C   0  0  0  0  0  0  0  0  0  0  0  0
   67.8374   60.7295   20.6874 C   0  0  0  0  0  0  0  0  0  0  0  0
   68.0256   59.8823   19.4591 C   0  0  0  0  0  0  0  0  0  0  0  0
   69.3776   60.0763   18.8195 C   0  0  0  0  0  0  0  0  0  0  0  0
   69.7889   61.4984   18.7062 C   0  0  0  0  0  0  0  0  0  0  0  0
   69.5619   62.2892   19.9779 C   0  0  0  0  0  0  0  0  0  0  0  0
   67.6596   57.2280   17.0252 C   0  0  0  0  0  0  0  0  0  0  0  0
   67.4113   56.1983   15.9644 C   0  0  1  0  0  0  0  0  0  0  0  0
   68.3045   56.5104   14.7737 C   0  0  0  0  0  0  0  0  0  0  0  0
   70.3016   56.5761   15.4067 C   0  0  2  0  0  0  0  0  0  0  0  0
   71.7980   56.5126   15.2304 C   0  0  2  0  0  0  0  0  0  0  0  0
   75.1373   58.9559   17.6337 C   0  0  1  0  0  0  0  0  0  0  0  0
   74.8383   60.8778   18.9222 C   0  0  1  0  0  0  0  0  0  0  0  0
   72.6903   60.5045   19.4285 C   0  0  0  0  0  0  0  0  0  0  0  0
   72.2849   55.1099   15.2354 C   0  0  0  0  0  0  0  0  0  0  0  0
   73.7548   54.8979   15.0883 C   0  0  0  0  0  0  0  0  0  0  0  0
   74.1401   53.4819   15.4194 C   0  0  0  0  0  0  0  0  0  0  0  0
   73.7560   52.5490   14.2713 C   0  0  0  0  0  0  0  0  0  0  0  0
   74.7890   52.7325   13.1686 C   0  0  0  0  0  0  0  0  0  0  0  0
   75.2651   54.1770   13.2394 C   0  0  0  0  0  0  0  0  0  0  0  0
   74.1556   55.1223   13.6103 C   0  0  0  0  0  0  0  0  0  0  0  0
   66.2540   62.8197   21.7989 C   0  0  0  0  0  0  0  0  0  0  0  0
   68.1328   55.5248   13.6650 C   0  0  0  0  0  0  0  0  0  0  0  0
   66.5585   54.4301   17.4324 C   0  0  0  0  0  0  0  0  0  0  0  0
   67.6883   63.1183   21.4169 C   0  0  1  0  0  0  0  0  0  0  0  0
   68.9690   57.7156   17.1669 N   0  0  0  0  0  0  0  0  0  0  0  0
   72.4678   57.2580   16.2957 N   0  0  0  0  0  0  0  0  0  0  0  0
   70.5437   59.6689   16.4156 O   0  0  0  0  0  0  0  0  0  0  0  0
   68.1812   60.0809   16.3918 O   0  0  0  0  0  0  0  0  0  0  0  0
   69.7910   57.5494   14.5797 O   0  0  0  0  0  0  0  0  0  0  0  0
   74.1412   57.9828   14.8574 O   0  0  0  0  0  0  0  0  0  0  0  0
   74.0105   59.0943   16.8089 O   0  0  0  0  0  0  0  0  0  0  0  0
   75.6116   61.1720   17.8346 O   0  0  0  0  0  0  0  0  0  0  0  0
   73.5260   61.2867   18.6348 O   0  0  0  0  0  0  0  0  0  0  0  0
   68.4633   62.9091   22.5579 O   0  0  0  0  0  0  0  0  0  0  0  0
   69.2489   59.3688   17.1679 S   0  0  2  0  0  6  0  0  0  0  0  0
 14  1  1  1
  1 30  1  0
  2 16  1  0
 32  2  1  0
 33  3  1  0
  3 37  2  0
  3 38  1  0
 18  4  1  0
  4 39  1  0
  5  6  1  6
 18  5  1  0
  5 19  1  0
  6 20  1  0
  8  7  1  0
 12  7  1  0
  7 31  1  0
  9  8  1  0
 10  9  1  0
 10 11  1  0
 42 10  1  0
 11 12  1  0
 13 14  1  0
 32 13  1  0
 14 15  1  0
 15 29  1  0
 16 17  1  0
 16 36  1  6
 17 21  1  1
 17 33  1  0
 18 38  1  6
 19 39  1  6
 19 40  1  0
 40 20  1  0
 21 22  1  0
 22 23  1  0
 22 27  1  0
 23 24  1  0
 24 25  1  0
 26 25  1  0
 27 26  1  0
 31 28  1  1
 31 41  1  0
 42 32  1  1
 42 34  2  0
 42 35  2  0
M  END
$$$$
