
     RDKit          3D

 42 45  0  0  0  0  0  0  0  0999 V2000
   71.5403   53.6437   12.3384 C   0  0  0  0  0  0  0  0  0  0  0  0
   70.0549   57.1095   14.4468 C   0  0  0  0  0  0  0  0  0  0  0  0
   72.9534   59.6803   17.4075 C   0  0  0  0  0  0  0  0  0  0  0  0
   75.8483   61.7040   18.2048 C   0  0  0  0  0  0  0  0  0  0  0  0
   74.2609   61.6899   19.8965 C   0  0  1  0  0  0  0  0  0  0  0  0
   72.7687   61.5828   20.1159 C   0  0  0  0  0  0  0  0  0  0  0  0
   71.8714   57.9417   19.9706 C   0  0  0  0  0  0  0  0  0  0  0  0
   72.2386   58.4643   18.6039 C   0  0  0  0  0  0  0  0  0  0  0  0
   71.7135   57.5012   17.5751 C   0  0  0  0  0  0  0  0  0  0  0  0
   70.2320   57.2536   17.7120 C   0  0  0  0  0  0  0  0  0  0  0  0
   69.7885   57.0275   19.1107 C   0  0  0  0  0  0  0  0  0  0  0  0
   70.3640   58.0299   20.0895 C   0  0  0  0  0  0  0  0  0  0  0  0
   70.5622   54.7574   14.3668 C   0  0  0  0  0  0  0  0  0  0  0  0
   71.5050   54.8644   13.2063 C   0  0  1  0  0  0  0  0  0  0  0  0
   72.8976   55.1549   13.7440 C   0  0  0  0  0  0  0  0  0  0  0  0
   71.0804   58.2107   14.5469 C   0  0  2  0  0  0  0  0  0  0  0  0
   71.3088   58.4812   16.0128 C   0  0  2  0  0  0  0  0  0  0  0  0
   74.6960   60.8511   18.6953 C   0  0  1  0  0  0  0  0  0  0  0  0
   74.5229   63.0749   19.3794 C   0  0  1  0  0  0  0  0  0  0  0  0
   72.3360   63.0188   19.8522 C   0  0  0  0  0  0  0  0  0  0  0  0
   70.0446   58.8485   16.6992 C   0  0  0  0  0  0  0  0  0  0  0  0
   70.0981   59.0203   18.1806 C   0  0  0  0  0  0  0  0  0  0  0  0
   70.4188   60.4413   18.5564 C   0  0  0  0  0  0  0  0  0  0  0  0
   69.1886   61.3278   18.3644 C   0  0  0  0  0  0  0  0  0  0  0  0
   68.2523   61.0695   19.5362 C   0  0  0  0  0  0  0  0  0  0  0  0
   68.4522   59.6196   19.9558 C   0  0  0  0  0  0  0  0  0  0  0  0
   68.7028   58.7179   18.7784 C   0  0  0  0  0  0  0  0  0  0  0  0
   71.9410   58.3082   22.3927 C   0  0  0  0  0  0  0  0  0  0  0  0
   73.5912   53.9185   14.2135 C   0  0  0  0  0  0  0  0  0  0  0  0
   72.3747   53.9648   11.0984 C   0  0  0  0  0  0  0  0  0  0  0  0
   72.5636   58.7110   21.0727 C   0  0  1  0  0  0  0  0  0  0  0  0
   70.3338   55.9139   15.1302 N   0  0  0  0  0  0  0  0  0  0  0  0
   72.2810   59.5602   16.1855 N   0  0  0  0  0  0  0  0  0  0  0  0
   68.3905   55.4821   16.8319 O   0  0  0  0  0  0  0  0  0  0  0  0
   70.5501   54.5879   17.3686 O   0  0  0  0  0  0  0  0  0  0  0  0
   70.6774   59.3728   13.9313 O   0  0  0  0  0  0  0  0  0  0  0  0
   72.9917   58.7133   18.2280 O   0  0  0  0  0  0  0  0  0  0  0  0
   73.6118   60.8340   17.8047 O   0  0  0  0  0  0  0  0  0  0  0  0
   75.3524   62.9928   18.2966 O   0  0  0  0  0  0  0  0  0  0  0  0
   73.2603   63.4816   18.9187 O   0  0  0  0  0  0  0  0  0  0  0  0
   73.9152   58.3727   21.1423 O   0  0  0  0  0  0  0  0  0  0  0  0
   69.8862   55.7769   16.7401 S   0  0  2  0  0  6  0  0  0  0  0  0
 14  1  1  1
  1 30  1  0
  2 16  1  0
 32  2  1  0
 33  3  1  0
  3 37  2  0
  3 38  1  0
 18  4  1  0
  4 39  1  0
  5  6  1  6
 18  5  1  0
  5 19  1  0
  6 20  1  0
  8  7  1  0
 12  7  1  0
  7 31  1  0
  9  8  1  0
 10  9  1  0
 10 11  1  0
 42 10  1  0
 11 12  1  0
 13 14  1  0
 32 13  1  0
 14 15  1  0
 15 29  1  0
 16 17  1  0
 16 36  1  6
 17 21  1  6
 17 33  1  0
 18 38  1  6
 19 39  1  6
 19 40  1  0
 40 20  1  0
 21 22  1  0
 22 23  1  0
 22 27  1  0
 23 24  1  0
 24 25  1  0
 26 25  1  0
 27 26  1  0
 31 28  1  1
 31 41  1  0
 42 32  1  6
 42 34  2  0
 42 35  2  0
M  END
$$$$
