
     RDKit          3D

 42 45  0  0  0  0  0  0  0  0999 V2000
   67.3648   54.9062   14.1850 C   0  0  0  0  0  0  0  0  0  0  0  0
   69.6321   56.8371   14.7306 C   0  0  0  0  0  0  0  0  0  0  0  0
   72.8237   59.0715   17.5213 C   0  0  0  0  0  0  0  0  0  0  0  0
   76.2582   60.0023   18.7275 C   0  0  0  0  0  0  0  0  0  0  0  0
   74.3109   60.3044   19.9517 C   0  0  1  0  0  0  0  0  0  0  0  0
   72.8237   60.5115   19.7743 C   0  0  0  0  0  0  0  0  0  0  0  0
   73.5088   51.0922   15.2777 C   0  0  0  0  0  0  0  0  0  0  0  0
   72.0745   50.7768   15.6233 C   0  0  0  0  0  0  0  0  0  0  0  0
   71.3593   52.0724   15.8915 C   0  0  0  0  0  0  0  0  0  0  0  0
   71.4689   53.0461   14.7448 C   0  0  0  0  0  0  0  0  0  0  0  0
   72.8375   53.1556   14.1799 C   0  0  0  0  0  0  0  0  0  0  0  0
   73.4965   51.8122   13.9453 C   0  0  0  0  0  0  0  0  0  0  0  0
   69.6407   55.0392   13.1296 C   0  0  0  0  0  0  0  0  0  0  0  0
   68.1566   55.1012   12.9282 C   0  0  1  0  0  0  0  0  0  0  0  0
   67.7664   54.0465   11.9044 C   0  0  0  0  0  0  0  0  0  0  0  0
   70.5628   58.0238   14.7319 C   0  0  2  0  0  0  0  0  0  0  0  0
   70.8960   58.3330   16.1699 C   0  0  2  0  0  0  0  0  0  0  0  0
   74.8707   59.4059   18.8493 C   0  0  1  0  0  0  0  0  0  0  0  0
   74.9721   61.6087   19.6113 C   0  0  1  0  0  0  0  0  0  0  0  0
   72.7727   62.0093   19.5038 C   0  0  0  0  0  0  0  0  0  0  0  0
   69.8905   59.2422   16.7754 C   0  0  0  0  0  0  0  0  0  0  0  0
   69.1724   58.7534   17.9889 C   0  0  0  0  0  0  0  0  0  0  0  0
   70.0452   58.8334   19.2116 C   0  0  0  0  0  0  0  0  0  0  0  0
   70.1477   60.2807   19.6922 C   0  0  0  0  0  0  0  0  0  0  0  0
   68.8489   60.6161   20.4116 C   0  0  0  0  0  0  0  0  0  0  0  0
   67.7478   59.8010   19.7473 C   0  0  0  0  0  0  0  0  0  0  0  0
   67.9558   59.6698   18.2635 C   0  0  0  0  0  0  0  0  0  0  0  0
   73.4491   48.6425   15.3065 C   0  0  0  0  0  0  0  0  0  0  0  0
   68.9574   53.4057   11.2713 C   0  0  0  0  0  0  0  0  0  0  0  0
   65.8803   54.9247   13.8205 C   0  0  0  0  0  0  0  0  0  0  0  0
   74.3639   49.8464   15.2305 C   0  0  1  0  0  0  0  0  0  0  0  0
   70.1642   55.6096   14.3014 N   0  0  0  0  0  0  0  0  0  0  0  0
   72.2195   58.9482   16.2645 N   0  0  0  0  0  0  0  0  0  0  0  0
   72.2316   55.3715   15.8913 O   0  0  0  0  0  0  0  0  0  0  0  0
   70.1472   54.4530   16.6419 O   0  0  0  0  0  0  0  0  0  0  0  0
   70.0072   59.1384   14.1481 O   0  0  0  0  0  0  0  0  0  0  0  0
   72.2337   58.6696   18.5702 O   0  0  0  0  0  0  0  0  0  0  0  0
   74.0795   59.6272   17.7118 O   0  0  0  0  0  0  0  0  0  0  0  0
   76.0242   61.3656   18.7740 O   0  0  0  0  0  0  0  0  0  0  0  0
   73.9840   62.2772   18.8706 O   0  0  0  0  0  0  0  0  0  0  0  0
   75.0489   49.7589   14.0184 O   0  0  0  0  0  0  0  0  0  0  0  0
   70.9771   54.6471   15.4077 S   0  0  2  0  0  6  0  0  0  0  0  0
 14  1  1  1
  1 30  1  0
  2 16  1  0
 32  2  1  0
 33  3  1  0
  3 37  2  0
  3 38  1  0
 18  4  1  0
  4 39  1  0
  5  6  1  6
 18  5  1  0
  5 19  1  0
  6 20  1  0
  8  7  1  0
 12  7  1  0
  7 31  1  0
  9  8  1  0
 10  9  1  0
 10 11  1  0
 42 10  1  0
 11 12  1  0
 13 14  1  0
 32 13  1  0
 14 15  1  0
 15 29  1  0
 16 17  1  0
 16 36  1  1
 17 21  1  6
 17 33  1  0
 18 38  1  6
 19 39  1  6
 19 40  1  0
 40 20  1  0
 21 22  1  0
 22 23  1  0
 22 27  1  0
 23 24  1  0
 24 25  1  0
 26 25  1  0
 27 26  1  0
 31 28  1  6
 31 41  1  0
 42 32  1  6
 42 34  2  0
 42 35  2  0
M  END
$$$$
