
     RDKit          3D

 42 45  0  0  0  0  0  0  0  0999 V2000
   68.0475   55.0934   16.9804 C   0  0  0  0  0  0  0  0  0  0  0  0
   71.4583   56.9593   14.2825 C   0  0  0  0  0  0  0  0  0  0  0  0
   72.7398   58.6860   17.8601 C   0  0  0  0  0  0  0  0  0  0  0  0
   75.9606   60.3249   18.2558 C   0  0  0  0  0  0  0  0  0  0  0  0
   74.5438   60.5987   20.0723 C   0  0  1  0  0  0  0  0  0  0  0  0
   73.0762   60.7022   20.4212 C   0  0  0  0  0  0  0  0  0  0  0  0
   72.6262   51.0824   12.1065 C   0  0  0  0  0  0  0  0  0  0  0  0
   73.0952   52.2043   11.2137 C   0  0  0  0  0  0  0  0  0  0  0  0
   72.1630   53.3705   11.3945 C   0  0  0  0  0  0  0  0  0  0  0  0
   72.0413   53.8008   12.8349 C   0  0  0  0  0  0  0  0  0  0  0  0
   71.8745   52.6727   13.7857 C   0  0  0  0  0  0  0  0  0  0  0  0
   72.8409   51.5333   13.5364 C   0  0  0  0  0  0  0  0  0  0  0  0
   70.0183   55.4304   15.4593 C   0  0  0  0  0  0  0  0  0  0  0  0
   68.5326   55.5298   15.6318 C   0  0  1  0  0  0  0  0  0  0  0  0
   67.8664   54.6947   14.5494 C   0  0  0  0  0  0  0  0  0  0  0  0
   70.8850   58.3069   14.6428 C   0  0  2  0  0  0  0  0  0  0  0  0
   70.9859   58.4531   16.1403 C   0  0  2  0  0  0  0  0  0  0  0  0
   74.7565   59.6567   18.8878 C   0  0  1  0  0  0  0  0  0  0  0  0
   74.9352   61.9118   19.4584 C   0  0  1  0  0  0  0  0  0  0  0  0
   72.8110   62.1700   20.1147 C   0  0  0  0  0  0  0  0  0  0  0  0
   70.5104   59.7867   16.5876 C   0  0  0  0  0  0  0  0  0  0  0  0
   69.3838   59.8160   17.5658 C   0  0  0  0  0  0  0  0  0  0  0  0
   69.8617   59.5195   18.9612 C   0  0  0  0  0  0  0  0  0  0  0  0
   70.5754   60.7390   19.5441 C   0  0  0  0  0  0  0  0  0  0  0  0
   69.5056   61.7385   19.9602 C   0  0  0  0  0  0  0  0  0  0  0  0
   68.3325   61.5593   19.0063 C   0  0  0  0  0  0  0  0  0  0  0  0
   68.7829   61.2418   17.6068 C   0  0  0  0  0  0  0  0  0  0  0  0
   74.8366   50.0831   11.7587 C   0  0  0  0  0  0  0  0  0  0  0  0
   68.0208   53.2292   14.7913 C   0  0  0  0  0  0  0  0  0  0  0  0
   66.5299   54.9241   16.9090 C   0  0  0  0  0  0  0  0  0  0  0  0
   73.3525   49.7890   11.8147 C   0  0  1  0  0  0  0  0  0  0  0  0
   70.5650   55.8755   14.2446 N   0  0  0  0  0  0  0  0  0  0  0  0
   72.3686   58.2638   16.5780 N   0  0  0  0  0  0  0  0  0  0  0  0
   69.3454   53.9617   12.9373 O   0  0  0  0  0  0  0  0  0  0  0  0
   70.4599   55.6476   11.6460 O   0  0  0  0  0  0  0  0  0  0  0  0
   69.5702   58.4462   14.2636 O   0  0  0  0  0  0  0  0  0  0  0  0
   72.2908   58.1027   18.8936 O   0  0  0  0  0  0  0  0  0  0  0  0
   73.6033   59.7452   18.0932 O   0  0  0  0  0  0  0  0  0  0  0  0
   75.6460   61.6714   18.3164 O   0  0  0  0  0  0  0  0  0  0  0  0
   73.6995   62.4630   19.0827 O   0  0  0  0  0  0  0  0  0  0  0  0
   73.1608   48.8676   12.8445 O   0  0  0  0  0  0  0  0  0  0  0  0
   70.5834   54.8558   12.9138 S   0  0  2  0  0  6  0  0  0  0  0  0
 14  1  1  1
  1 30  1  0
  2 16  1  0
 32  2  1  0
 33  3  1  0
  3 37  2  0
  3 38  1  0
 18  4  1  0
  4 39  1  0
  5  6  1  6
 18  5  1  0
  5 19  1  0
  6 20  1  0
  8  7  1  0
 12  7  1  0
  7 31  1  0
  9  8  1  0
 10  9  1  0
 10 11  1  0
 42 10  1  0
 11 12  1  0
 13 14  1  0
 32 13  1  0
 14 15  1  0
 15 29  1  0
 16 17  1  0
 16 36  1  1
 17 21  1  6
 17 33  1  0
 18 38  1  6
 19 39  1  6
 19 40  1  0
 40 20  1  0
 21 22  1  0
 22 23  1  0
 22 27  1  0
 23 24  1  0
 24 25  1  0
 26 25  1  0
 27 26  1  0
 31 28  1  1
 31 41  1  0
 42 32  1  1
 42 34  2  0
 42 35  2  0
M  END
$$$$
