
     RDKit          3D

 42 45  0  0  0  0  0  0  0  0999 V2000
   72.3645   52.8664   14.0882 C   0  0  0  0  0  0  0  0  0  0  0  0
   70.6414   57.1248   14.4026 C   0  0  0  0  0  0  0  0  0  0  0  0
   73.0212   59.7205   17.7496 C   0  0  0  0  0  0  0  0  0  0  0  0
   75.7821   61.9278   19.0005 C   0  0  0  0  0  0  0  0  0  0  0  0
   73.7667   61.6732   20.1209 C   0  0  1  0  0  0  0  0  0  0  0  0
   72.3097   61.3535   19.8742 C   0  0  0  0  0  0  0  0  0  0  0  0
   66.4963   52.1473   12.7721 C   0  0  0  0  0  0  0  0  0  0  0  0
   66.7040   53.4340   12.0122 C   0  0  0  0  0  0  0  0  0  0  0  0
   67.5117   54.3645   12.8744 C   0  0  0  0  0  0  0  0  0  0  0  0
   68.8138   53.7541   13.3291 C   0  0  0  0  0  0  0  0  0  0  0  0
   68.6842   52.3564   13.8128 C   0  0  0  0  0  0  0  0  0  0  0  0
   67.8512   51.4824   12.8982 C   0  0  0  0  0  0  0  0  0  0  0  0
   71.7246   55.2058   13.4332 C   0  0  0  0  0  0  0  0  0  0  0  0
   72.7589   54.3111   14.0471 C   0  0  1  0  0  0  0  0  0  0  0  0
   73.0478   54.8068   15.4556 C   0  0  0  0  0  0  0  0  0  0  0  0
   71.8833   57.8528   14.8521 C   0  0  2  0  0  0  0  0  0  0  0  0
   71.6697   58.2632   16.2874 C   0  0  2  0  0  0  0  0  0  0  0  0
   74.6636   60.9156   19.1424 C   0  0  1  0  0  0  0  0  0  0  0  0
   73.9826   63.0860   19.6609 C   0  0  1  0  0  0  0  0  0  0  0  0
   71.7864   62.7159   19.4395 C   0  0  0  0  0  0  0  0  0  0  0  0
   70.2246   58.3708   16.6107 C   0  0  0  0  0  0  0  0  0  0  0  0
   69.8465   59.2422   17.7617 C   0  0  0  0  0  0  0  0  0  0  0  0
   68.4624   59.8064   17.5905 C   0  0  0  0  0  0  0  0  0  0  0  0
   67.4153   58.7331   17.8870 C   0  0  0  0  0  0  0  0  0  0  0  0
   67.3310   58.5828   19.3993 C   0  0  0  0  0  0  0  0  0  0  0  0
   68.7149   58.8881   19.9557 C   0  0  0  0  0  0  0  0  0  0  0  0
   69.8111   58.3909   19.0539 C   0  0  0  0  0  0  0  0  0  0  0  0
   64.1768   51.9864   11.9977 C   0  0  0  0  0  0  0  0  0  0  0  0
   74.3227   55.5806   15.5318 C   0  0  0  0  0  0  0  0  0  0  0  0
   72.1473   52.3907   12.6517 C   0  0  0  0  0  0  0  0  0  0  0  0
   65.4938   51.2452   12.0890 C   0  0  1  0  0  0  0  0  0  0  0  0
   70.7308   55.7283   14.2768 N   0  0  0  0  0  0  0  0  0  0  0  0
   72.3185   59.5472   16.5513 N   0  0  0  0  0  0  0  0  0  0  0  0
   69.7500   53.8877   15.8609 O   0  0  0  0  0  0  0  0  0  0  0  0
   68.2818   55.6571   15.1786 O   0  0  0  0  0  0  0  0  0  0  0  0
   72.1484   58.9719   14.0977 O   0  0  0  0  0  0  0  0  0  0  0  0
   72.8613   58.9192   18.7203 O   0  0  0  0  0  0  0  0  0  0  0  0
   73.9216   60.7529   17.9625 O   0  0  0  0  0  0  0  0  0  0  0  0
   75.1096   63.1323   18.8896 O   0  0  0  0  0  0  0  0  0  0  0  0
   72.8814   63.3137   18.8199 O   0  0  0  0  0  0  0  0  0  0  0  0
   65.8901   50.9609   10.7820 O   0  0  0  0  0  0  0  0  0  0  0  0
   69.4003   54.7911   14.6801 S   0  0  2  0  0  6  0  0  0  0  0  0
 14  1  1  1
  1 30  1  0
  2 16  1  0
 32  2  1  0
 33  3  1  0
  3 37  2  0
  3 38  1  0
 18  4  1  0
  4 39  1  0
  5  6  1  6
 18  5  1  0
  5 19  1  0
  6 20  1  0
  8  7  1  0
 12  7  1  0
  7 31  1  0
  9  8  1  0
 10  9  1  0
 10 11  1  0
 42 10  1  0
 11 12  1  0
 13 14  1  0
 32 13  1  0
 14 15  1  0
 15 29  1  0
 16 17  1  0
 16 36  1  6
 17 21  1  6
 17 33  1  0
 18 38  1  6
 19 39  1  6
 19 40  1  0
 40 20  1  0
 21 22  1  0
 22 23  1  0
 22 27  1  0
 23 24  1  0
 24 25  1  0
 26 25  1  0
 27 26  1  0
 31 28  1  6
 31 41  1  0
 42 32  1  6
 42 34  2  0
 42 35  2  0
M  END
$$$$
