
     RDKit          3D

 42 45  0  0  0  0  0  0  0  0999 V2000
   68.9541   60.3486   19.6063 C   0  0  0  0  0  0  0  0  0  0  0  0
   70.7428   58.9100   15.9849 C   0  0  0  0  0  0  0  0  0  0  0  0
   69.2729   55.2638   14.2565 C   0  0  0  0  0  0  0  0  0  0  0  0
   66.4230   53.4301   12.6719 C   0  0  0  0  0  0  0  0  0  0  0  0
   68.4648   52.4027   13.0684 C   0  0  1  0  0  0  0  0  0  0  0  0
   69.9397   52.7125   13.1900 C   0  0  0  0  0  0  0  0  0  0  0  0
   74.0686   61.3957   19.7399 C   0  0  0  0  0  0  0  0  0  0  0  0
   73.1933   60.4396   20.5117 C   0  0  0  0  0  0  0  0  0  0  0  0
   72.6137   59.4458   19.5431 C   0  0  0  0  0  0  0  0  0  0  0  0
   73.6714   58.7298   18.7409 C   0  0  0  0  0  0  0  0  0  0  0  0
   74.7295   59.6254   18.2093 C   0  0  0  0  0  0  0  0  0  0  0  0
   75.2578   60.6029   19.2386 C   0  0  0  0  0  0  0  0  0  0  0  0
   70.4751   58.7744   18.3736 C   0  0  0  0  0  0  0  0  0  0  0  0
   69.5641   59.9622   18.2937 C   0  0  1  0  0  0  0  0  0  0  0  0
   68.4672   59.6592   17.2849 C   0  0  0  0  0  0  0  0  0  0  0  0
   71.3727   58.3225   14.7469 C   0  0  2  0  0  0  0  0  0  0  0  0
   71.1027   56.8389   14.7653 C   0  0  2  0  0  0  0  0  0  0  0  0
   67.6198   53.5637   13.5914 C   0  0  1  0  0  0  0  0  0  0  0  0
   68.1324   52.4525   11.6051 C   0  0  1  0  0  0  0  0  0  0  0  0
   70.3484   52.7438   11.7234 C   0  0  0  0  0  0  0  0  0  0  0  0
   72.1729   56.0850   14.0647 C   0  0  0  0  0  0  0  0  0  0  0  0
   72.1168   54.5954   14.1370 C   0  0  0  0  0  0  0  0  0  0  0  0
   73.2986   53.9684   13.4491 C   0  0  0  0  0  0  0  0  0  0  0  0
   74.5462   54.0967   14.3228 C   0  0  0  0  0  0  0  0  0  0  0  0
   74.4414   53.0521   15.4248 C   0  0  0  0  0  0  0  0  0  0  0  0
   72.9600   52.8652   15.7228 C   0  0  0  0  0  0  0  0  0  0  0  0
   72.1934   54.1551   15.6189 C   0  0  0  0  0  0  0  0  0  0  0  0
   75.7719   62.1917   21.3117 C   0  0  0  0  0  0  0  0  0  0  0  0
   68.3624   58.1999   16.9853 C   0  0  0  0  0  0  0  0  0  0  0  0
   70.0817   60.7599   20.5531 C   0  0  0  0  0  0  0  0  0  0  0  0
   74.4994   62.5727   20.5852 C   0  0  1  0  0  0  0  0  0  0  0  0
   71.2056   58.4344   17.2233 N   0  0  0  0  0  0  0  0  0  0  0  0
   69.8164   56.5481   14.1329 N   0  0  0  0  0  0  0  0  0  0  0  0
   72.8768   56.4429   17.5397 O   0  0  0  0  0  0  0  0  0  0  0  0
   73.5457   58.2280   16.0843 O   0  0  0  0  0  0  0  0  0  0  0  0
   72.7307   58.5331   14.6878 O   0  0  0  0  0  0  0  0  0  0  0  0
   69.6011   54.5075   15.2210 O   0  0  0  0  0  0  0  0  0  0  0  0
   68.3588   54.7337   13.3591 O   0  0  0  0  0  0  0  0  0  0  0  0
   66.9966   53.1929   11.4348 O   0  0  0  0  0  0  0  0  0  0  0  0
   69.2025   53.1841   11.0652 O   0  0  0  0  0  0  0  0  0  0  0  0
   74.8039   63.6745   19.7855 O   0  0  0  0  0  0  0  0  0  0  0  0
   72.8072   57.9582   17.3616 S   0  0  2  0  0  6  0  0  0  0  0  0
 14  1  1  1
  1 30  1  0
  2 16  1  0
 32  2  1  0
 33  3  1  0
  3 37  2  0
  3 38  1  0
 18  4  1  0
  4 39  1  0
  5  6  1  6
 18  5  1  0
  5 19  1  0
  6 20  1  0
  8  7  1  0
 12  7  1  0
  7 31  1  0
  9  8  1  0
 10  9  1  0
 10 11  1  0
 42 10  1  0
 11 12  1  0
 13 14  1  0
 32 13  1  0
 14 15  1  0
 15 29  1  0
 16 17  1  0
 16 36  1  1
 17 21  1  6
 17 33  1  0
 18 38  1  6
 19 39  1  1
 19 40  1  0
 40 20  1  0
 21 22  1  0
 22 23  1  0
 22 27  1  0
 23 24  1  0
 24 25  1  0
 26 25  1  0
 27 26  1  0
 31 28  1  6
 31 41  1  0
 42 32  1  6
 42 34  2  0
 42 35  2  0
M  END
$$$$
