
     RDKit          3D

 42 45  0  0  0  0  0  0  0  0999 V2000
   66.8966   53.6588   16.3247 C   0  0  0  0  0  0  0  0  0  0  0  0
   70.6674   56.3954   15.8999 C   0  0  0  0  0  0  0  0  0  0  0  0
   72.7263   59.1368   17.7623 C   0  0  0  0  0  0  0  0  0  0  0  0
   76.1849   59.9322   18.9951 C   0  0  0  0  0  0  0  0  0  0  0  0
   74.1828   60.1942   20.1372 C   0  0  1  0  0  0  0  0  0  0  0  0
   72.6992   60.3620   19.8983 C   0  0  0  0  0  0  0  0  0  0  0  0
   73.4612   52.0071   11.9422 C   0  0  0  0  0  0  0  0  0  0  0  0
   74.0845   52.7831   13.0759 C   0  0  0  0  0  0  0  0  0  0  0  0
   73.1740   53.9304   13.4173 C   0  0  0  0  0  0  0  0  0  0  0  0
   71.7691   53.4837   13.7364 C   0  0  0  0  0  0  0  0  0  0  0  0
   71.2301   52.4766   12.7879 C   0  0  0  0  0  0  0  0  0  0  0  0
   72.2055   51.3579   12.4860 C   0  0  0  0  0  0  0  0  0  0  0  0
   69.2070   54.4849   15.7853 C   0  0  0  0  0  0  0  0  0  0  0  0
   67.7328   54.6423   15.5644 C   0  0  1  0  0  0  0  0  0  0  0  0
   67.4538   54.5132   14.0750 C   0  0  0  0  0  0  0  0  0  0  0  0
   70.6859   57.7840   15.3118 C   0  0  2  0  0  0  0  0  0  0  0  0
   70.6639   58.7599   16.4613 C   0  0  2  0  0  0  0  0  0  0  0  0
   74.8091   59.3016   19.0663 C   0  0  1  0  0  0  0  0  0  0  0  0
   74.8242   61.5122   19.8122 C   0  0  1  0  0  0  0  0  0  0  0  0
   72.6216   61.8558   19.6127 C   0  0  0  0  0  0  0  0  0  0  0  0
   69.6301   59.8070   16.2631 C   0  0  0  0  0  0  0  0  0  0  0  0
   68.5785   59.9345   17.3144 C   0  0  0  0  0  0  0  0  0  0  0  0
   68.6215   58.7781   18.2757 C   0  0  0  0  0  0  0  0  0  0  0  0
   69.7950   58.9390   19.2417 C   0  0  0  0  0  0  0  0  0  0  0  0
   69.3949   59.9808   20.2767 C   0  0  0  0  0  0  0  0  0  0  0  0
   68.4571   60.9602   19.5843 C   0  0  0  0  0  0  0  0  0  0  0  0
   68.8500   61.2065   18.1535 C   0  0  0  0  0  0  0  0  0  0  0  0
   73.9572   50.6457    9.9658 C   0  0  0  0  0  0  0  0  0  0  0  0
   67.3425   53.0881   13.6425 C   0  0  0  0  0  0  0  0  0  0  0  0
   66.9125   54.0598   17.7998 C   0  0  0  0  0  0  0  0  0  0  0  0
   74.4147   50.9835   11.3689 C   0  0  1  0  0  0  0  0  0  0  0  0
   70.0641   55.3853   15.1319 N   0  0  0  0  0  0  0  0  0  0  0  0
   71.9715   59.3976   16.6124 N   0  0  0  0  0  0  0  0  0  0  0  0
   69.6472   54.7384   12.6285 O   0  0  0  0  0  0  0  0  0  0  0  0
   71.5545   56.1089   13.1141 O   0  0  0  0  0  0  0  0  0  0  0  0
   69.6104   58.0302   14.4906 O   0  0  0  0  0  0  0  0  0  0  0  0
   72.2108   58.5465   18.7601 O   0  0  0  0  0  0  0  0  0  0  0  0
   74.0592   59.4937   17.8959 O   0  0  0  0  0  0  0  0  0  0  0  0
   75.9152   61.2894   19.0200 O   0  0  0  0  0  0  0  0  0  0  0  0
   73.8504   62.1495   19.0264 O   0  0  0  0  0  0  0  0  0  0  0  0
   75.7022   51.5094   11.2596 O   0  0  0  0  0  0  0  0  0  0  0  0
   70.7499   54.9670   13.6602 S   0  0  2  0  0  6  0  0  0  0  0  0
 14  1  1  1
  1 30  1  0
  2 16  1  0
 32  2  1  0
 33  3  1  0
  3 37  2  0
  3 38  1  0
 18  4  1  0
  4 39  1  0
  5  6  1  6
 18  5  1  0
  5 19  1  0
  6 20  1  0
  8  7  1  0
 12  7  1  0
  7 31  1  0
  9  8  1  0
 10  9  1  0
 10 11  1  0
 42 10  1  0
 11 12  1  0
 13 14  1  0
 32 13  1  0
 14 15  1  0
 15 29  1  0
 16 17  1  0
 16 36  1  6
 17 21  1  6
 17 33  1  0
 18 38  1  6
 19 39  1  6
 19 40  1  0
 40 20  1  0
 21 22  1  0
 22 23  1  0
 22 27  1  0
 23 24  1  0
 24 25  1  0
 26 25  1  0
 27 26  1  0
 31 28  1  6
 31 41  1  0
 42 32  1  1
 42 34  2  0
 42 35  2  0
M  END
$$$$
