
     RDKit          3D

 42 45  0  0  0  0  0  0  0  0999 V2000
   68.6847   52.7323   14.7735 C   0  0  0  0  0  0  0  0  0  0  0  0
   69.8374   56.9422   15.4448 C   0  0  0  0  0  0  0  0  0  0  0  0
   73.1896   60.0330   17.2196 C   0  0  0  0  0  0  0  0  0  0  0  0
   75.6281   61.3776   17.4189 C   0  0  0  0  0  0  0  0  0  0  0  0
   75.5532   60.7462   19.6500 C   0  0  1  0  0  0  0  0  0  0  0  0
   74.6749   60.0201   20.6438 C   0  0  0  0  0  0  0  0  0  0  0  0
   66.9806   56.2599   21.0069 C   0  0  0  0  0  0  0  0  0  0  0  0
   66.8718   57.3489   19.9685 C   0  0  0  0  0  0  0  0  0  0  0  0
   68.1042   57.3030   19.1077 C   0  0  0  0  0  0  0  0  0  0  0  0
   68.3325   55.9463   18.4897 C   0  0  0  0  0  0  0  0  0  0  0  0
   68.1500   54.8176   19.4367 C   0  0  0  0  0  0  0  0  0  0  0  0
   66.8937   54.9373   20.2741 C   0  0  0  0  0  0  0  0  0  0  0  0
   70.1765   54.5656   15.6248 C   0  0  0  0  0  0  0  0  0  0  0  0
   68.9973   54.1974   14.7757 C   0  0  1  0  0  0  0  0  0  0  0  0
   69.2625   54.6699   13.3546 C   0  0  0  0  0  0  0  0  0  0  0  0
   70.9489   57.9077   15.1179 C   0  0  2  0  0  0  0  0  0  0  0  0
   71.4814   58.4400   16.4246 C   0  0  2  0  0  0  0  0  0  0  0  0
   75.4213   60.1321   18.2567 C   0  0  1  0  0  0  0  0  0  0  0  0
   74.9269   62.0916   19.4225 C   0  0  1  0  0  0  0  0  0  0  0  0
   73.6965   61.1240   21.0223 C   0  0  0  0  0  0  0  0  0  0  0  0
   70.4855   59.3084   17.1018 C   0  0  0  0  0  0  0  0  0  0  0  0
   71.0102   60.4675   17.8819 C   0  0  0  0  0  0  0  0  0  0  0  0
   70.3627   61.7556   17.4521 C   0  0  0  0  0  0  0  0  0  0  0  0
   68.9451   61.8468   18.0162 C   0  0  0  0  0  0  0  0  0  0  0  0
   69.0621   62.2202   19.4871 C   0  0  0  0  0  0  0  0  0  0  0  0
   70.3636   61.6177   19.9981 C   0  0  0  0  0  0  0  0  0  0  0  0
   70.6517   60.2790   19.3758 C   0  0  0  0  0  0  0  0  0  0  0  0
   66.4140   57.3179   23.1435 C   0  0  0  0  0  0  0  0  0  0  0  0
   68.9274   56.1130   13.1672 C   0  0  0  0  0  0  0  0  0  0  0  0
   69.9209   51.9820   14.2776 C   0  0  0  0  0  0  0  0  0  0  0  0
   65.9086   56.3822   22.0659 C   0  0  1  0  0  0  0  0  0  0  0  0
   70.1706   55.8300   16.2360 N   0  0  0  0  0  0  0  0  0  0  0  0
   72.7101   59.2012   16.2009 N   0  0  0  0  0  0  0  0  0  0  0  0
   70.7729   54.7873   18.5617 O   0  0  0  0  0  0  0  0  0  0  0  0
   70.7399   57.1797   18.3971 O   0  0  0  0  0  0  0  0  0  0  0  0
   70.5291   58.9611   14.3394 O   0  0  0  0  0  0  0  0  0  0  0  0
   72.7864   61.2313   17.3264 O   0  0  0  0  0  0  0  0  0  0  0  0
   74.1170   59.6229   18.1651 O   0  0  0  0  0  0  0  0  0  0  0  0
   74.8759   62.3338   18.0786 O   0  0  0  0  0  0  0  0  0  0  0  0
   73.6097   61.9043   19.8717 O   0  0  0  0  0  0  0  0  0  0  0  0
   64.7523   56.9580   21.5391 O   0  0  0  0  0  0  0  0  0  0  0  0
   70.0356   55.9512   17.9028 S   0  0  2  0  0  6  0  0  0  0  0  0
 14  1  1  6
  1 30  1  0
  2 16  1  0
 32  2  1  0
 33  3  1  0
  3 37  2  0
  3 38  1  0
 18  4  1  0
  4 39  1  0
  5  6  1  1
 18  5  1  0
  5 19  1  0
  6 20  1  0
  8  7  1  0
 12  7  1  0
  7 31  1  0
  9  8  1  0
 10  9  1  0
 10 11  1  0
 42 10  1  0
 11 12  1  0
 13 14  1  0
 32 13  1  0
 14 15  1  0
 15 29  1  0
 16 17  1  0
 16 36  1  6
 17 21  1  6
 17 33  1  0
 18 38  1  1
 19 39  1  6
 19 40  1  0
 40 20  1  0
 21 22  1  0
 22 23  1  0
 22 27  1  0
 23 24  1  0
 24 25  1  0
 26 25  1  0
 27 26  1  0
 31 28  1  1
 31 41  1  0
 42 32  1  6
 42 34  2  0
 42 35  2  0
M  END
$$$$
