
     RDKit          3D

 42 45  0  0  0  0  0  0  0  0999 V2000
   73.5665   54.5790   12.9856 C   0  0  0  0  0  0  0  0  0  0  0  0
   69.9645   56.9822   14.4750 C   0  0  0  0  0  0  0  0  0  0  0  0
   72.8114   58.9768   17.7949 C   0  0  0  0  0  0  0  0  0  0  0  0
   75.7541   60.3949   19.5105 C   0  0  0  0  0  0  0  0  0  0  0  0
   73.7324   60.4624   20.6464 C   0  0  1  0  0  0  0  0  0  0  0  0
   72.2433   60.5604   20.4037 C   0  0  0  0  0  0  0  0  0  0  0  0
   66.7048   51.2094   13.0804 C   0  0  0  0  0  0  0  0  0  0  0  0
   66.0775   52.5475   12.7771 C   0  0  0  0  0  0  0  0  0  0  0  0
   66.7665   53.5906   13.6132 C   0  0  0  0  0  0  0  0  0  0  0  0
   68.2613   53.6030   13.4132 C   0  0  0  0  0  0  0  0  0  0  0  0
   68.8770   52.2519   13.4092 C   0  0  0  0  0  0  0  0  0  0  0  0
   68.1240   51.2546   12.5534 C   0  0  0  0  0  0  0  0  0  0  0  0
   71.1691   55.1626   13.4582 C   0  0  0  0  0  0  0  0  0  0  0  0
   72.5780   55.1273   13.9688 C   0  0  1  0  0  0  0  0  0  0  0  0
   72.6062   54.2992   15.2441 C   0  0  0  0  0  0  0  0  0  0  0  0
   71.1808   57.8273   14.7593 C   0  0  2  0  0  0  0  0  0  0  0  0
   71.0655   58.3183   16.1805 C   0  0  2  0  0  0  0  0  0  0  0  0
   74.4168   59.6827   19.5241 C   0  0  1  0  0  0  0  0  0  0  0  0
   74.2982   61.8343   20.4185 C   0  0  1  0  0  0  0  0  0  0  0  0
   72.0807   62.0632   20.2194 C   0  0  0  0  0  0  0  0  0  0  0  0
   69.8295   59.1167   16.3791 C   0  0  0  0  0  0  0  0  0  0  0  0
   68.8307   58.5950   17.3575 C   0  0  0  0  0  0  0  0  0  0  0  0
   69.4369   58.4304   18.7245 C   0  0  0  0  0  0  0  0  0  0  0  0
   69.5872   59.7924   19.4019 C   0  0  0  0  0  0  0  0  0  0  0  0
   68.2100   60.2107   19.8969 C   0  0  0  0  0  0  0  0  0  0  0  0
   67.1908   59.6192   18.9327 C   0  0  0  0  0  0  0  0  0  0  0  0
   67.6848   59.6239   17.5120 C   0  0  0  0  0  0  0  0  0  0  0  0
   65.7961   50.3208   10.9852 C   0  0  0  0  0  0  0  0  0  0  0  0
   72.8038   55.1422   16.4609 C   0  0  0  0  0  0  0  0  0  0  0  0
   73.5424   53.0538   13.0860 C   0  0  0  0  0  0  0  0  0  0  0  0
   65.9204   50.0688   12.4728 C   0  0  1  0  0  0  0  0  0  0  0  0
   70.1667   55.5984   14.3400 N   0  0  0  0  0  0  0  0  0  0  0  0
   72.2271   59.1345   16.5326 N   0  0  0  0  0  0  0  0  0  0  0  0
   69.4545   53.5716   15.8380 O   0  0  0  0  0  0  0  0  0  0  0  0
   67.8346   55.3026   15.4758 O   0  0  0  0  0  0  0  0  0  0  0  0
   71.2884   58.9086   13.9159 O   0  0  0  0  0  0  0  0  0  0  0  0
   72.5801   57.9446   18.4957 O   0  0  0  0  0  0  0  0  0  0  0  0
   73.6649   59.9109   18.3615 O   0  0  0  0  0  0  0  0  0  0  0  0
   75.4056   61.7294   19.6247 O   0  0  0  0  0  0  0  0  0  0  0  0
   73.2943   62.4667   19.6674 O   0  0  0  0  0  0  0  0  0  0  0  0
   66.6018   48.8608   12.6234 O   0  0  0  0  0  0  0  0  0  0  0  0
   68.9357   54.5517   14.7879 S   0  0  2  0  0  6  0  0  0  0  0  0
 14  1  1  6
  1 30  1  0
  2 16  1  0
 32  2  1  0
 33  3  1  0
  3 37  2  0
  3 38  1  0
 18  4  1  0
  4 39  1  0
  5  6  1  6
 18  5  1  0
  5 19  1  0
  6 20  1  0
  8  7  1  0
 12  7  1  0
  7 31  1  0
  9  8  1  0
 10  9  1  0
 10 11  1  0
 42 10  1  0
 11 12  1  0
 13 14  1  0
 32 13  1  0
 14 15  1  0
 15 29  1  0
 16 17  1  0
 16 36  1  6
 17 21  1  6
 17 33  1  0
 18 38  1  6
 19 39  1  6
 19 40  1  0
 40 20  1  0
 21 22  1  0
 22 23  1  0
 22 27  1  0
 23 24  1  0
 24 25  1  0
 26 25  1  0
 27 26  1  0
 31 28  1  6
 31 41  1  0
 42 32  1  6
 42 34  2  0
 42 35  2  0
M  END
$$$$
