
     RDKit          3D

 42 45  0  0  0  0  0  0  0  0999 V2000
   66.9946   53.5100   14.0533 C   0  0  0  0  0  0  0  0  0  0  0  0
   69.6631   56.9405   14.6818 C   0  0  0  0  0  0  0  0  0  0  0  0
   73.0137   58.8945   17.3182 C   0  0  0  0  0  0  0  0  0  0  0  0
   76.3675   59.9519   18.5539 C   0  0  0  0  0  0  0  0  0  0  0  0
   74.4834   60.2746   19.8685 C   0  0  1  0  0  0  0  0  0  0  0  0
   72.9950   60.5175   19.7609 C   0  0  0  0  0  0  0  0  0  0  0  0
   74.1139   52.2490   13.0518 C   0  0  0  0  0  0  0  0  0  0  0  0
   74.0489   52.0052   14.5391 C   0  0  0  0  0  0  0  0  0  0  0  0
   73.3427   53.1700   15.1765 C   0  0  0  0  0  0  0  0  0  0  0  0
   71.9806   53.4223   14.5798 C   0  0  0  0  0  0  0  0  0  0  0  0
   71.9571   53.3714   13.0962 C   0  0  0  0  0  0  0  0  0  0  0  0
   72.6948   52.1770   12.5275 C   0  0  0  0  0  0  0  0  0  0  0  0
   69.1790   54.7339   13.8498 C   0  0  0  0  0  0  0  0  0  0  0  0
   67.8121   54.6963   14.4640 C   0  0  1  0  0  0  0  0  0  0  0  0
   67.0831   55.9782   14.0922 C   0  0  0  0  0  0  0  0  0  0  0  0
   70.6996   58.0361   14.6855 C   0  0  2  0  0  0  0  0  0  0  0  0
   70.9018   58.4594   16.1188 C   0  0  2  0  0  0  0  0  0  0  0  0
   74.9735   59.3840   18.7272 C   0  0  1  0  0  0  0  0  0  0  0  0
   75.1585   61.5700   19.5213 C   0  0  1  0  0  0  0  0  0  0  0  0
   72.9662   62.0207   19.5185 C   0  0  0  0  0  0  0  0  0  0  0  0
   69.7774   59.3020   16.5984 C   0  0  0  0  0  0  0  0  0  0  0  0
   69.9015   59.8919   17.9636 C   0  0  0  0  0  0  0  0  0  0  0  0
   69.0566   61.1285   18.1053 C   0  0  0  0  0  0  0  0  0  0  0  0
   67.5847   60.7465   18.2591 C   0  0  0  0  0  0  0  0  0  0  0  0
   67.3853   60.2630   19.6885 C   0  0  0  0  0  0  0  0  0  0  0  0
   68.6933   59.6196   20.1282 C   0  0  0  0  0  0  0  0  0  0  0  0
   69.3670   58.8796   19.0054 C   0  0  0  0  0  0  0  0  0  0  0  0
   74.1511   50.1533   11.7822 C   0  0  0  0  0  0  0  0  0  0  0  0
   66.1289   56.4141   15.1551 C   0  0  0  0  0  0  0  0  0  0  0  0
   67.0247   53.4157   12.5278 C   0  0  0  0  0  0  0  0  0  0  0  0
   75.0162   51.2549   12.3567 C   0  0  1  0  0  0  0  0  0  0  0  0
   70.1085   55.6420   14.3826 N   0  0  0  0  0  0  0  0  0  0  0  0
   72.1535   59.2032   16.2577 N   0  0  0  0  0  0  0  0  0  0  0  0
   72.6610   56.0264   14.8255 O   0  0  0  0  0  0  0  0  0  0  0  0
   71.3557   55.0985   16.6108 O   0  0  0  0  0  0  0  0  0  0  0  0
   70.3230   59.1296   13.9411 O   0  0  0  0  0  0  0  0  0  0  0  0
   72.7970   57.8893   18.0615 O   0  0  0  0  0  0  0  0  0  0  0  0
   74.1382   59.6431   17.6298 O   0  0  0  0  0  0  0  0  0  0  0  0
   76.1670   61.3189   18.6340 O   0  0  0  0  0  0  0  0  0  0  0  0
   74.1543   62.2733   18.8368 O   0  0  0  0  0  0  0  0  0  0  0  0
   75.6793   51.8506   11.2836 O   0  0  0  0  0  0  0  0  0  0  0  0
   71.5037   55.0737   15.1185 S   0  0  2  0  0  6  0  0  0  0  0  0
 14  1  1  6
  1 30  1  0
  2 16  1  0
 32  2  1  0
 33  3  1  0
  3 37  2  0
  3 38  1  0
 18  4  1  0
  4 39  1  0
  5  6  1  6
 18  5  1  0
  5 19  1  0
  6 20  1  0
  8  7  1  0
 12  7  1  0
  7 31  1  0
  9  8  1  0
 10  9  1  0
 10 11  1  0
 42 10  1  0
 11 12  1  0
 13 14  1  0
 32 13  1  0
 14 15  1  0
 15 29  1  0
 16 17  1  0
 16 36  1  6
 17 21  1  6
 17 33  1  0
 18 38  1  6
 19 39  1  6
 19 40  1  0
 40 20  1  0
 21 22  1  0
 22 23  1  0
 22 27  1  0
 23 24  1  0
 24 25  1  0
 26 25  1  0
 27 26  1  0
 31 28  1  6
 31 41  1  0
 42 32  1  6
 42 34  2  0
 42 35  2  0
M  END
$$$$
