
     RDKit          3D

 42 45  0  0  0  0  0  0  0  0999 V2000
   67.9484   54.4709   16.2083 C   0  0  0  0  0  0  0  0  0  0  0  0
   70.8278   56.4202   15.1273 C   0  0  0  0  0  0  0  0  0  0  0  0
   72.8289   59.0069   17.5445 C   0  0  0  0  0  0  0  0  0  0  0  0
   76.2551   59.9870   18.7435 C   0  0  0  0  0  0  0  0  0  0  0  0
   74.2565   60.3003   19.8790 C   0  0  1  0  0  0  0  0  0  0  0  0
   72.7708   60.4445   19.6384 C   0  0  0  0  0  0  0  0  0  0  0  0
   73.6390   51.6689   12.5279 C   0  0  0  0  0  0  0  0  0  0  0  0
   73.4840   53.0549   11.9526 C   0  0  0  0  0  0  0  0  0  0  0  0
   72.1947   53.6355   12.4647 C   0  0  0  0  0  0  0  0  0  0  0  0
   72.1115   53.6305   13.9707 C   0  0  0  0  0  0  0  0  0  0  0  0
   72.5501   52.3550   14.5912 C   0  0  0  0  0  0  0  0  0  0  0  0
   73.8498   51.8282   14.0193 C   0  0  0  0  0  0  0  0  0  0  0  0
   68.6293   55.9283   14.2786 C   0  0  0  0  0  0  0  0  0  0  0  0
   67.6824   55.7177   15.4214 C   0  0  1  0  0  0  0  0  0  0  0  0
   66.2649   55.6874   14.8713 C   0  0  0  0  0  0  0  0  0  0  0  0
   70.5682   57.8951   14.9493 C   0  0  2  0  0  0  0  0  0  0  0  0
   70.7507   58.5499   16.2955 C   0  0  2  0  0  0  0  0  0  0  0  0
   74.8839   59.3525   18.8572 C   0  0  1  0  0  0  0  0  0  0  0  0
   74.8874   61.6019   19.4766 C   0  0  1  0  0  0  0  0  0  0  0  0
   72.6816   61.9192   19.2691 C   0  0  0  0  0  0  0  0  0  0  0  0
   69.7049   59.5737   16.5460 C   0  0  0  0  0  0  0  0  0  0  0  0
   69.7538   60.2926   17.8528 C   0  0  0  0  0  0  0  0  0  0  0  0
   68.7197   61.3834   17.9173 C   0  0  0  0  0  0  0  0  0  0  0  0
   67.3335   60.7825   18.1483 C   0  0  0  0  0  0  0  0  0  0  0  0
   67.2409   60.3997   19.6185 C   0  0  0  0  0  0  0  0  0  0  0  0
   68.6442   60.0179   20.0693 C   0  0  0  0  0  0  0  0  0  0  0  0
   69.4109   59.3019   18.9914 C   0  0  0  0  0  0  0  0  0  0  0  0
   74.6210   51.0189   10.3789 C   0  0  0  0  0  0  0  0  0  0  0  0
   66.0401   54.5321   13.9522 C   0  0  0  0  0  0  0  0  0  0  0  0
   68.8832   54.8274   17.3642 C   0  0  0  0  0  0  0  0  0  0  0  0
   74.7782   50.9145   11.8810 C   0  0  1  0  0  0  0  0  0  0  0  0
   69.9656   55.5354   14.4582 N   0  0  0  0  0  0  0  0  0  0  0  0
   72.0688   59.1777   16.3814 N   0  0  0  0  0  0  0  0  0  0  0  0
   70.0777   53.2357   15.7062 O   0  0  0  0  0  0  0  0  0  0  0  0
   69.5055   53.2038   13.3775 O   0  0  0  0  0  0  0  0  0  0  0  0
   69.3009   58.1618   14.4862 O   0  0  0  0  0  0  0  0  0  0  0  0
   72.3509   58.4018   18.5522 O   0  0  0  0  0  0  0  0  0  0  0  0
   74.1273   59.4731   17.6816 O   0  0  0  0  0  0  0  0  0  0  0  0
   75.9762   61.3417   18.6929 O   0  0  0  0  0  0  0  0  0  0  0  0
   73.9057   62.1872   18.6609 O   0  0  0  0  0  0  0  0  0  0  0  0
   76.0052   51.4960   12.2013 O   0  0  0  0  0  0  0  0  0  0  0  0
   70.3779   53.9126   14.3705 S   0  0  2  0  0  6  0  0  0  0  0  0
 14  1  1  6
  1 30  1  0
  2 16  1  0
 32  2  1  0
 33  3  1  0
  3 37  2  0
  3 38  1  0
 18  4  1  0
  4 39  1  0
  5  6  1  6
 18  5  1  0
  5 19  1  0
  6 20  1  0
  8  7  1  0
 12  7  1  0
  7 31  1  0
  9  8  1  0
 10  9  1  0
 10 11  1  0
 42 10  1  0
 11 12  1  0
 13 14  1  0
 32 13  1  0
 14 15  1  0
 15 29  1  0
 16 17  1  0
 16 36  1  1
 17 21  1  6
 17 33  1  0
 18 38  1  6
 19 39  1  6
 19 40  1  0
 40 20  1  0
 21 22  1  0
 22 23  1  0
 22 27  1  0
 23 24  1  0
 24 25  1  0
 26 25  1  0
 27 26  1  0
 31 28  1  6
 31 41  1  0
 42 32  1  1
 42 34  2  0
 42 35  2  0
M  END
$$$$
