
     RDKit          3D

 42 45  0  0  0  0  0  0  0  0999 V2000
   70.3772   60.1818   18.6433 C   0  0  0  0  0  0  0  0  0  0  0  0
   69.6638   57.3583   15.0453 C   0  0  0  0  0  0  0  0  0  0  0  0
   73.3963   58.5516   17.1964 C   0  0  0  0  0  0  0  0  0  0  0  0
   75.3174   61.3092   18.6453 C   0  0  0  0  0  0  0  0  0  0  0  0
   74.4979   59.7676   20.1729 C   0  0  1  0  0  0  0  0  0  0  0  0
   73.3393   58.8207   20.3903 C   0  0  0  0  0  0  0  0  0  0  0  0
   66.2763   52.7556   15.8897 C   0  0  0  0  0  0  0  0  0  0  0  0
   65.4358   53.7030   15.0700 C   0  0  0  0  0  0  0  0  0  0  0  0
   65.7387   55.1069   15.5160 C   0  0  0  0  0  0  0  0  0  0  0  0
   67.2084   55.4374   15.4408 C   0  0  0  0  0  0  0  0  0  0  0  0
   68.0910   54.3719   15.9794 C   0  0  0  0  0  0  0  0  0  0  0  0
   67.7198   52.9862   15.4935 C   0  0  0  0  0  0  0  0  0  0  0  0
   69.6062   58.2050   17.2982 C   0  0  0  0  0  0  0  0  0  0  0  0
   69.5636   59.6918   17.4847 C   0  0  1  0  0  0  0  0  0  0  0  0
   68.1127   60.1126   17.6592 C   0  0  0  0  0  0  0  0  0  0  0  0
   70.7530   58.3255   14.6545 C   0  0  2  0  0  0  0  0  0  0  0  0
   72.0378   57.8283   15.2679 C   0  0  2  0  0  0  0  0  0  0  0  0
   74.8461   59.8699   18.6883 C   0  0  1  0  0  0  0  0  0  0  0  0
   73.9787   61.1520   20.4339 C   0  0  1  0  0  0  0  0  0  0  0  0
   72.2856   59.7763   20.9339 C   0  0  0  0  0  0  0  0  0  0  0  0
   72.1298   56.3476   15.2065 C   0  0  0  0  0  0  0  0  0  0  0  0
   73.4083   55.7246   15.6587 C   0  0  0  0  0  0  0  0  0  0  0  0
   73.2832   54.2289   15.7607 C   0  0  0  0  0  0  0  0  0  0  0  0
   73.3151   53.6011   14.3675 C   0  0  0  0  0  0  0  0  0  0  0  0
   74.7637   53.5997   13.9003 C   0  0  0  0  0  0  0  0  0  0  0  0
   75.4349   54.8154   14.5248 C   0  0  0  0  0  0  0  0  0  0  0  0
   74.5077   55.9970   14.6038 C   0  0  0  0  0  0  0  0  0  0  0  0
   64.3856   51.1995   15.9847 C   0  0  0  0  0  0  0  0  0  0  0  0
   67.9744   61.5812   17.8920 C   0  0  0  0  0  0  0  0  0  0  0  0
   69.5430   60.0190   19.9140 C   0  0  0  0  0  0  0  0  0  0  0  0
   65.8648   51.3155   15.6841 C   0  0  1  0  0  0  0  0  0  0  0  0
   68.9207   57.6660   16.1973 N   0  0  0  0  0  0  0  0  0  0  0  0
   72.1359   58.2589   16.6622 N   0  0  0  0  0  0  0  0  0  0  0  0
   67.2507   56.5729   17.8929 O   0  0  0  0  0  0  0  0  0  0  0  0
   66.3216   57.9011   16.1254 O   0  0  0  0  0  0  0  0  0  0  0  0
   70.5109   59.6070   15.0916 O   0  0  0  0  0  0  0  0  0  0  0  0
   74.3883   57.7905   16.9802 O   0  0  0  0  0  0  0  0  0  0  0  0
   73.6512   59.6654   17.9815 O   0  0  0  0  0  0  0  0  0  0  0  0
   74.3826   61.9739   19.4197 O   0  0  0  0  0  0  0  0  0  0  0  0
   72.5881   60.9914   20.3238 O   0  0  0  0  0  0  0  0  0  0  0  0
   66.0390   50.9335   14.3537 O   0  0  0  0  0  0  0  0  0  0  0  0
   67.4290   56.9334   16.4196 S   0  0  2  0  0  6  0  0  0  0  0  0
 14  1  1  1
  1 30  1  0
  2 16  1  0
 32  2  1  0
 33  3  1  0
  3 37  2  0
  3 38  1  0
 18  4  1  0
  4 39  1  0
  5  6  1  6
 18  5  1  0
  5 19  1  0
  6 20  1  0
  8  7  1  0
 12  7  1  0
  7 31  1  0
  9  8  1  0
 10  9  1  0
 10 11  1  0
 42 10  1  0
 11 12  1  0
 13 14  1  0
 32 13  1  0
 14 15  1  0
 15 29  1  0
 16 17  1  0
 16 36  1  1
 17 21  1  1
 17 33  1  0
 18 38  1  6
 19 39  1  6
 19 40  1  0
 40 20  1  0
 21 22  1  0
 22 23  1  0
 22 27  1  0
 23 24  1  0
 24 25  1  0
 26 25  1  0
 27 26  1  0
 31 28  1  6
 31 41  1  0
 42 32  1  1
 42 34  2  0
 42 35  2  0
M  END
$$$$
