
     RDKit          3D

 42 45  0  0  0  0  0  0  0  0999 V2000
   74.0277   54.0898   14.1837 C   0  0  0  0  0  0  0  0  0  0  0  0
   71.7273   56.6571   15.1838 C   0  0  0  0  0  0  0  0  0  0  0  0
   72.7771   59.0239   17.6840 C   0  0  0  0  0  0  0  0  0  0  0  0
   75.9042   60.8513   18.6834 C   0  0  0  0  0  0  0  0  0  0  0  0
   73.9096   60.7200   19.8608 C   0  0  1  0  0  0  0  0  0  0  0  0
   72.4334   60.4619   19.6597 C   0  0  0  0  0  0  0  0  0  0  0  0
   66.4633   52.5411   13.3096 C   0  0  0  0  0  0  0  0  0  0  0  0
   66.3231   53.9165   12.7059 C   0  0  0  0  0  0  0  0  0  0  0  0
   67.2117   54.8587   13.4704 C   0  0  0  0  0  0  0  0  0  0  0  0
   68.6474   54.3987   13.5140 C   0  0  0  0  0  0  0  0  0  0  0  0
   68.8052   52.9541   13.8182 C   0  0  0  0  0  0  0  0  0  0  0  0
   67.8726   52.0694   13.0172 C   0  0  0  0  0  0  0  0  0  0  0  0
   71.7360   54.8952   13.5432 C   0  0  0  0  0  0  0  0  0  0  0  0
   72.6086   53.7223   13.8746 C   0  0  1  0  0  0  0  0  0  0  0  0
   72.5708   52.7501   12.7058 C   0  0  0  0  0  0  0  0  0  0  0  0
   71.0142   57.9827   15.0909 C   0  0  2  0  0  0  0  0  0  0  0  0
   70.6984   58.4235   16.4981 C   0  0  2  0  0  0  0  0  0  0  0  0
   74.7447   59.8962   18.8812 C   0  0  1  0  0  0  0  0  0  0  0  0
   74.1776   62.1087   19.3570 C   0  0  1  0  0  0  0  0  0  0  0  0
   71.9617   61.8352   19.2011 C   0  0  0  0  0  0  0  0  0  0  0  0
   69.3263   58.9824   16.5955 C   0  0  0  0  0  0  0  0  0  0  0  0
   68.9095   59.5404   17.9153 C   0  0  0  0  0  0  0  0  0  0  0  0
   67.9354   60.6746   17.7479 C   0  0  0  0  0  0  0  0  0  0  0  0
   66.5518   60.1326   17.3901 C   0  0  0  0  0  0  0  0  0  0  0  0
   65.9304   59.5875   18.6682 C   0  0  0  0  0  0  0  0  0  0  0  0
   67.0718   59.0748   19.5357 C   0  0  0  0  0  0  0  0  0  0  0  0
   68.1667   58.4456   18.7186 C   0  0  0  0  0  0  0  0  0  0  0  0
   65.9519   51.0099   11.4658 C   0  0  0  0  0  0  0  0  0  0  0  0
   73.9357   52.2972   12.3032 C   0  0  0  0  0  0  0  0  0  0  0  0
   74.4423   55.2219   13.2438 C   0  0  0  0  0  0  0  0  0  0  0  0
   65.4299   51.5799   12.7677 C   0  0  1  0  0  0  0  0  0  0  0  0
   71.0887   55.5473   14.6055 N   0  0  0  0  0  0  0  0  0  0  0  0
   71.6607   59.4307   16.9437 N   0  0  0  0  0  0  0  0  0  0  0  0
   69.1635   54.6758   16.1524 O   0  0  0  0  0  0  0  0  0  0  0  0
   68.7698   56.7016   14.9306 O   0  0  0  0  0  0  0  0  0  0  0  0
   69.8463   57.9109   14.3680 O   0  0  0  0  0  0  0  0  0  0  0  0
   72.7510   57.9558   18.3685 O   0  0  0  0  0  0  0  0  0  0  0  0
   73.9652   59.7371   17.7253 O   0  0  0  0  0  0  0  0  0  0  0  0
   75.2848   62.0824   18.5565 O   0  0  0  0  0  0  0  0  0  0  0  0
   73.0661   62.3651   18.5380 O   0  0  0  0  0  0  0  0  0  0  0  0
   65.2473   50.5039   13.6366 O   0  0  0  0  0  0  0  0  0  0  0  0
   69.4356   55.3626   14.8157 S   0  0  2  0  0  6  0  0  0  0  0  0
 14  1  1  6
  1 30  1  0
  2 16  1  0
 32  2  1  0
 33  3  1  0
  3 37  2  0
  3 38  1  0
 18  4  1  0
  4 39  1  0
  5  6  1  6
 18  5  1  0
  5 19  1  0
  6 20  1  0
  8  7  1  0
 12  7  1  0
  7 31  1  0
  9  8  1  0
 10  9  1  0
 10 11  1  0
 42 10  1  0
 11 12  1  0
 13 14  1  0
 32 13  1  0
 14 15  1  0
 15 29  1  0
 16 17  1  0
 16 36  1  6
 17 21  1  6
 17 33  1  0
 18 38  1  6
 19 39  1  6
 19 40  1  0
 40 20  1  0
 21 22  1  0
 22 23  1  0
 22 27  1  0
 23 24  1  0
 24 25  1  0
 26 25  1  0
 27 26  1  0
 31 28  1  6
 31 41  1  0
 42 32  1  6
 42 34  2  0
 42 35  2  0
M  END
$$$$
