
     RDKit          3D

 42 45  0  0  0  0  0  0  0  0999 V2000
   71.9208   53.6725   11.4565 C   0  0  0  0  0  0  0  0  0  0  0  0
   72.2899   56.6966   14.5470 C   0  0  0  0  0  0  0  0  0  0  0  0
   72.9671   58.9769   17.9305 C   0  0  0  0  0  0  0  0  0  0  0  0
   75.8761   59.8507   20.0912 C   0  0  0  0  0  0  0  0  0  0  0  0
   73.7147   60.3030   20.8022 C   0  0  1  0  0  0  0  0  0  0  0  0
   72.3393   60.6320   20.2673 C   0  0  0  0  0  0  0  0  0  0  0  0
   67.2392   52.5774   16.3977 C   0  0  0  0  0  0  0  0  0  0  0  0
   66.6186   53.9418   16.5685 C   0  0  0  0  0  0  0  0  0  0  0  0
   67.7226   54.9631   16.5773 C   0  0  0  0  0  0  0  0  0  0  0  0
   68.5985   54.8842   15.3520 C   0  0  0  0  0  0  0  0  0  0  0  0
   68.9866   53.5002   14.9804 C   0  0  0  0  0  0  0  0  0  0  0  0
   67.8256   52.5278   15.0021 C   0  0  0  0  0  0  0  0  0  0  0  0
   71.0222   55.0151   13.3803 C   0  0  0  0  0  0  0  0  0  0  0  0
   72.1890   54.7295   12.4837 C   0  0  1  0  0  0  0  0  0  0  0  0
   73.3706   54.3193   13.3489 C   0  0  0  0  0  0  0  0  0  0  0  0
   71.8667   58.1431   14.6035 C   0  0  2  0  0  0  0  0  0  0  0  0
   71.4851   58.4449   16.0309 C   0  0  2  0  0  0  0  0  0  0  0  0
   74.4601   59.3688   19.8496 C   0  0  1  0  0  0  0  0  0  0  0  0
   74.5388   61.5511   20.6709 C   0  0  1  0  0  0  0  0  0  0  0  0
   72.4735   62.1306   20.0323 C   0  0  0  0  0  0  0  0  0  0  0  0
   70.1593   59.1089   16.1082 C   0  0  0  0  0  0  0  0  0  0  0  0
   69.1587   58.5260   17.0495 C   0  0  0  0  0  0  0  0  0  0  0  0
   69.6618   58.5480   18.4670 C   0  0  0  0  0  0  0  0  0  0  0  0
   69.5709   59.9635   19.0366 C   0  0  0  0  0  0  0  0  0  0  0  0
   68.1129   60.2207   19.3900 C   0  0  0  0  0  0  0  0  0  0  0  0
   67.2680   59.4239   18.4054 C   0  0  0  0  0  0  0  0  0  0  0  0
   67.8770   59.3935   17.0305 C   0  0  0  0  0  0  0  0  0  0  0  0
   64.9146   52.1006   17.0095 C   0  0  0  0  0  0  0  0  0  0  0  0
   73.4157   52.8448   13.5813 C   0  0  0  0  0  0  0  0  0  0  0  0
   71.2915   52.4712   12.1621 C   0  0  0  0  0  0  0  0  0  0  0  0
   66.2347   51.4697   16.6202 C   0  0  1  0  0  0  0  0  0  0  0  0
   71.2685   55.7320   14.5626 N   0  0  0  0  0  0  0  0  0  0  0  0
   72.4905   59.3041   16.6555 N   0  0  0  0  0  0  0  0  0  0  0  0
   70.6411   55.3095   17.0699 O   0  0  0  0  0  0  0  0  0  0  0  0
   69.7223   57.2561   16.0125 O   0  0  0  0  0  0  0  0  0  0  0  0
   70.7978   58.4188   13.7829 O   0  0  0  0  0  0  0  0  0  0  0  0
   72.4648   58.0141   18.5866 O   0  0  0  0  0  0  0  0  0  0  0  0
   73.9969   59.6611   18.5577 O   0  0  0  0  0  0  0  0  0  0  0  0
   75.7444   61.2282   20.1143 O   0  0  0  0  0  0  0  0  0  0  0  0
   73.8214   62.3027   19.7263 O   0  0  0  0  0  0  0  0  0  0  0  0
   66.0112   50.7569   15.4421 O   0  0  0  0  0  0  0  0  0  0  0  0
   70.0834   55.8252   15.7450 S   0  0  2  0  0  6  0  0  0  0  0  0
 14  1  1  6
  1 30  1  0
  2 16  1  0
 32  2  1  0
 33  3  1  0
  3 37  2  0
  3 38  1  0
 18  4  1  0
  4 39  1  0
  5  6  1  6
 18  5  1  0
  5 19  1  0
  6 20  1  0
  8  7  1  0
 12  7  1  0
  7 31  1  0
  9  8  1  0
 10  9  1  0
 10 11  1  0
 42 10  1  0
 11 12  1  0
 13 14  1  0
 32 13  1  0
 14 15  1  0
 15 29  1  0
 16 17  1  0
 16 36  1  6
 17 21  1  6
 17 33  1  0
 18 38  1  6
 19 39  1  6
 19 40  1  0
 40 20  1  0
 21 22  1  0
 22 23  1  0
 22 27  1  0
 23 24  1  0
 24 25  1  0
 26 25  1  0
 27 26  1  0
 31 28  1  6
 31 41  1  0
 42 32  1  6
 42 34  2  0
 42 35  2  0
M  END
$$$$
