
     RDKit          3D

 20 22  0  0  0  0  0  0  0  0999 V2000
    1.1935   91.9515  -51.4668 C   0  0  0  0  0  0  0  0  0  0  0  0
    2.9118   93.4214  -52.0048 C   0  0  0  0  0  0  0  0  0  0  0  0
    1.6900   94.1669  -51.7005 C   0  0  0  0  0  0  0  0  0  0  0  0
    0.6626   93.2985  -51.3792 C   0  0  0  0  0  0  0  0  0  0  0  0
   -0.6077   93.7787  -51.0507 C   0  0  0  0  0  0  0  0  0  0  0  0
   -2.8001   93.0805  -49.9242 C   0  0  0  0  0  0  0  0  0  0  0  0
   -2.5823   93.4058  -48.4920 C   0  0  0  0  0  0  0  0  0  0  0  0
   -2.0559   92.4371  -47.6328 C   0  0  0  0  0  0  0  0  0  0  0  0
   -1.8002   92.6810  -46.3104 C   0  0  0  0  0  0  0  0  0  0  0  0
   -2.0780   93.9367  -45.8204 C   0  0  0  0  0  0  0  0  0  0  0  0
   -2.5956   94.9192  -46.6286 C   0  0  0  0  0  0  0  0  0  0  0  0
   -2.8435   94.6361  -47.9715 C   0  0  0  0  0  0  0  0  0  0  0  0
   -0.7638   95.1487  -51.0676 C   0  0  0  0  0  0  0  0  0  0  0  0
    0.2667   96.0196  -51.3903 C   0  0  0  0  0  0  0  0  0  0  0  0
    1.5064   95.5305  -51.7103 C   0  0  0  0  0  0  0  0  0  0  0  0
    2.5836   92.0546  -51.8546 N   0  0  0  0  0  0  0  0  0  0  0  0
   -1.6335   92.8846  -50.7005 N   0  0  0  0  0  0  0  0  0  0  0  0
    0.5770   90.8903  -51.2506 O   0  0  0  0  0  0  0  0  0  0  0  0
   -1.2695   91.6893  -45.4635 O   0  0  0  0  0  0  0  0  0  0  0  0
    4.0367   93.8538  -52.3339 O   0  0  0  0  0  0  0  0  0  0  0  0
  4  1  1  0
  1 16  1  0
  1 18  2  0
  3  2  1  0
  2 16  1  0
  2 20  2  0
  4  3  2  0
  3 15  1  0
  5  4  1  0
  5 13  2  0
 17  5  1  0
  6  7  1  0
  6 17  1  0
  7  8  2  0
  7 12  1  0
  8  9  1  0
  9 10  2  0
  9 19  1  0
 10 11  1  0
 11 12  2  0
 13 14  1  0
 14 15  2  0
M  END
$$$$
