
     RDKit          3D

 20 22  0  0  0  0  0  0  0  0999 V2000
   12.3353   93.7127  -44.9851 C   0  0  0  0  0  0  0  0  0  0  0  0
   11.4170   95.7203  -44.4868 C   0  0  0  0  0  0  0  0  0  0  0  0
   12.3611   95.9443  -45.5989 C   0  0  0  0  0  0  0  0  0  0  0  0
   12.9045   94.7119  -45.8820 C   0  0  0  0  0  0  0  0  0  0  0  0
   13.8504   94.6611  -46.9232 C   0  0  0  0  0  0  0  0  0  0  0  0
   15.3607   93.0723  -48.2443 C   0  0  0  0  0  0  0  0  0  0  0  0
   14.7740   93.0981  -49.5965 C   0  0  0  0  0  0  0  0  0  0  0  0
   15.5622   93.6665  -50.6136 C   0  0  0  0  0  0  0  0  0  0  0  0
   15.1251   93.7138  -51.9013 C   0  0  0  0  0  0  0  0  0  0  0  0
   13.8750   93.1847  -52.1902 C   0  0  0  0  0  0  0  0  0  0  0  0
   13.0806   92.6245  -51.2319 C   0  0  0  0  0  0  0  0  0  0  0  0
   13.5446   92.5836  -49.9146 C   0  0  0  0  0  0  0  0  0  0  0  0
   14.1932   95.8075  -47.6066 C   0  0  0  0  0  0  0  0  0  0  0  0
   13.6305   97.0237  -47.2968 C   0  0  0  0  0  0  0  0  0  0  0  0
   12.7102   97.0969  -46.2895 C   0  0  0  0  0  0  0  0  0  0  0  0
   11.3941   94.3626  -44.1053 N   0  0  0  0  0  0  0  0  0  0  0  0
   14.3931   93.3979  -47.2454 N   0  0  0  0  0  0  0  0  0  0  0  0
   12.5927   92.4807  -44.9491 O   0  0  0  0  0  0  0  0  0  0  0  0
   15.8351   94.2525  -52.9548 O   0  0  0  0  0  0  0  0  0  0  0  0
   10.7380   96.6443  -43.9714 O   0  0  0  0  0  0  0  0  0  0  0  0
  4  1  1  0
  1 16  1  0
  1 18  2  0
  3  2  1  0
  2 16  1  0
  2 20  2  0
  4  3  2  0
  3 15  1  0
  5  4  1  0
  5 13  2  0
 17  5  1  0
  6  7  1  0
  6 17  1  6
  7  8  2  0
  7 12  1  0
  8  9  1  0
  9 10  2  0
  9 19  1  0
 10 11  1  0
 11 12  2  0
 13 14  1  0
 14 15  2  0
M  END
$$$$
