
     RDKit          3D

 20 22  0  0  0  0  0  0  0  0999 V2000
   13.2797   93.3451  -46.2438 C   0  0  0  0  0  0  0  0  0  0  0  0
   12.5645   92.1001  -48.0716 C   0  0  0  0  0  0  0  0  0  0  0  0
   11.6244   93.1897  -47.8074 C   0  0  0  0  0  0  0  0  0  0  0  0
   12.0435   93.9354  -46.7206 C   0  0  0  0  0  0  0  0  0  0  0  0
   11.3042   95.0341  -46.2750 C   0  0  0  0  0  0  0  0  0  0  0  0
   11.1632   96.8956  -44.5206 C   0  0  0  0  0  0  0  0  0  0  0  0
   10.8358   96.6888  -43.0872 C   0  0  0  0  0  0  0  0  0  0  0  0
    9.8050   95.8151  -42.7300 C   0  0  0  0  0  0  0  0  0  0  0  0
    9.4735   95.5544  -41.4278 C   0  0  0  0  0  0  0  0  0  0  0  0
   10.1939   96.1862  -40.4398 C   0  0  0  0  0  0  0  0  0  0  0  0
   11.2152   97.0523  -40.7448 C   0  0  0  0  0  0  0  0  0  0  0  0
   11.5263   97.2945  -42.0825 C   0  0  0  0  0  0  0  0  0  0  0  0
   10.1527   95.3188  -46.9783 C   0  0  0  0  0  0  0  0  0  0  0  0
    9.7322   94.5705  -48.0682 C   0  0  0  0  0  0  0  0  0  0  0  0
   10.4702   93.4957  -48.4910 C   0  0  0  0  0  0  0  0  0  0  0  0
   13.5798   92.2140  -47.0945 N   0  0  0  0  0  0  0  0  0  0  0  0
   11.7577   95.7976  -45.1860 N   0  0  0  0  0  0  0  0  0  0  0  0
   13.9681   93.7308  -45.2792 O   0  0  0  0  0  0  0  0  0  0  0  0
    8.4308   94.6701  -41.0917 O   0  0  0  0  0  0  0  0  0  0  0  0
   12.5251   91.2245  -48.9619 O   0  0  0  0  0  0  0  0  0  0  0  0
  4  1  1  0
  1 16  1  0
  1 18  2  0
  3  2  1  0
  2 16  1  0
  2 20  2  0
  4  3  2  0
  3 15  1  0
  5  4  1  0
  5 13  2  0
 17  5  1  0
  6  7  1  0
  6 17  1  0
  7  8  2  0
  7 12  1  0
  8  9  1  0
  9 10  2  0
  9 19  1  0
 10 11  1  0
 11 12  2  0
 13 14  1  0
 14 15  2  0
M  END
$$$$
