
     RDKit          3D

 20 22  0  0  0  0  0  0  0  0999 V2000
   11.7042   95.0912  -49.1602 C   0  0  0  0  0  0  0  0  0  0  0  0
   10.8141   93.0148  -49.0246 C   0  0  0  0  0  0  0  0  0  0  0  0
   11.4000   93.3177  -47.7043 C   0  0  0  0  0  0  0  0  0  0  0  0
   11.9330   94.5820  -47.8129 C   0  0  0  0  0  0  0  0  0  0  0  0
   12.5599   95.1055  -46.6665 C   0  0  0  0  0  0  0  0  0  0  0  0
   13.6226   97.2295  -45.7126 C   0  0  0  0  0  0  0  0  0  0  0  0
   12.5597   97.7948  -44.8618 C   0  0  0  0  0  0  0  0  0  0  0  0
   12.3149   97.1389  -43.6416 C   0  0  0  0  0  0  0  0  0  0  0  0
   11.3747   97.5967  -42.7710 C   0  0  0  0  0  0  0  0  0  0  0  0
   10.6578   98.7337  -43.1169 C   0  0  0  0  0  0  0  0  0  0  0  0
   10.8660   99.3985  -44.2908 C   0  0  0  0  0  0  0  0  0  0  0  0
   11.8354   98.9154  -45.1734 C   0  0  0  0  0  0  0  0  0  0  0  0
   12.6193   94.3629  -45.5072 C   0  0  0  0  0  0  0  0  0  0  0  0
   12.0762   93.1015  -45.4337 C   0  0  0  0  0  0  0  0  0  0  0  0
   11.4630   92.5729  -46.5344 C   0  0  0  0  0  0  0  0  0  0  0  0
   10.9944   94.0901  -49.9194 N   0  0  0  0  0  0  0  0  0  0  0  0
   13.0839   96.4138  -46.7541 N   0  0  0  0  0  0  0  0  0  0  0  0
   12.0499   96.2090  -49.6255 O   0  0  0  0  0  0  0  0  0  0  0  0
   11.0744   97.0130  -41.5573 O   0  0  0  0  0  0  0  0  0  0  0  0
   10.2366   91.9282  -49.2819 O   0  0  0  0  0  0  0  0  0  0  0  0
  4  1  1  0
  1 16  1  0
  1 18  2  0
  3  2  1  0
  2 16  1  0
  2 20  2  0
  4  3  2  0
  3 15  1  0
  5  4  1  0
  5 13  2  0
 17  5  1  0
  6  7  1  0
  6 17  1  6
  7  8  2  0
  7 12  1  0
  8  9  1  0
  9 10  2  0
  9 19  1  0
 10 11  1  0
 11 12  2  0
 13 14  1  0
 14 15  2  0
M  END
$$$$
