
     RDKit          3D

 20 22  0  0  0  0  0  0  0  0999 V2000
    0.5590   92.1887  -52.3782 C   0  0  0  0  0  0  0  0  0  0  0  0
    2.3512   93.4849  -52.8581 C   0  0  0  0  0  0  0  0  0  0  0  0
    1.4340   94.3053  -52.0434 C   0  0  0  0  0  0  0  0  0  0  0  0
    0.3556   93.4965  -51.7656 C   0  0  0  0  0  0  0  0  0  0  0  0
   -0.6745   94.0593  -50.9889 C   0  0  0  0  0  0  0  0  0  0  0  0
   -2.8615   93.4967  -49.7842 C   0  0  0  0  0  0  0  0  0  0  0  0
   -2.4850   93.2661  -48.3777 C   0  0  0  0  0  0  0  0  0  0  0  0
   -2.4665   94.3947  -47.5382 C   0  0  0  0  0  0  0  0  0  0  0  0
   -2.1598   94.2859  -46.2169 C   0  0  0  0  0  0  0  0  0  0  0  0
   -1.8637   93.0271  -45.7131 C   0  0  0  0  0  0  0  0  0  0  0  0
   -1.8712   91.9080  -46.4947 C   0  0  0  0  0  0  0  0  0  0  0  0
   -2.1886   92.0371  -47.8493 C   0  0  0  0  0  0  0  0  0  0  0  0
   -0.5770   95.3596  -50.5431 C   0  0  0  0  0  0  0  0  0  0  0  0
    0.5157   96.1405  -50.8399 C   0  0  0  0  0  0  0  0  0  0  0  0
    1.5276   95.6151  -51.5928 C   0  0  0  0  0  0  0  0  0  0  0  0
    1.8266   92.1924  -53.0678 N   0  0  0  0  0  0  0  0  0  0  0  0
   -1.7729   93.2312  -50.6700 N   0  0  0  0  0  0  0  0  0  0  0  0
   -0.2139   91.1955  -52.3378 O   0  0  0  0  0  0  0  0  0  0  0  0
   -2.1197   95.3408  -45.3282 O   0  0  0  0  0  0  0  0  0  0  0  0
    3.4497   93.9158  -53.2918 O   0  0  0  0  0  0  0  0  0  0  0  0
  4  1  1  0
  1 16  1  0
  1 18  2  0
  3  2  1  0
  2 16  1  0
  2 20  2  0
  4  3  2  0
  3 15  1  0
  5  4  1  0
  5 13  2  0
 17  5  1  0
  6  7  1  0
  6 17  1  6
  7  8  2  0
  7 12  1  0
  8  9  1  0
  9 10  2  0
  9 19  1  0
 10 11  1  0
 11 12  2  0
 13 14  1  0
 14 15  2  0
M  END
$$$$
