
     RDKit          3D

 20 22  0  0  0  0  0  0  0  0999 V2000
  -11.1620   93.3322  -55.3668 C   0  0  0  0  0  0  0  0  0  0  0  0
  -12.1105   92.7424  -53.3984 C   0  0  0  0  0  0  0  0  0  0  0  0
  -12.4872   94.1465  -53.6527 C   0  0  0  0  0  0  0  0  0  0  0  0
  -11.8998   94.4800  -54.8519 C   0  0  0  0  0  0  0  0  0  0  0  0
  -12.1139   95.7904  -55.3191 C   0  0  0  0  0  0  0  0  0  0  0  0
  -11.4714   97.4212  -57.1841 C   0  0  0  0  0  0  0  0  0  0  0  0
  -11.2955   97.3090  -58.6435 C   0  0  0  0  0  0  0  0  0  0  0  0
  -11.6683   96.0859  -59.2300 C   0  0  0  0  0  0  0  0  0  0  0  0
  -11.5721   95.8895  -60.5730 C   0  0  0  0  0  0  0  0  0  0  0  0
  -11.0945   96.9308  -61.3564 C   0  0  0  0  0  0  0  0  0  0  0  0
  -10.7231   98.1323  -60.8255 C   0  0  0  0  0  0  0  0  0  0  0  0
  -10.8285   98.3177  -59.4446 C   0  0  0  0  0  0  0  0  0  0  0  0
  -12.8803   96.6719  -54.5879 C   0  0  0  0  0  0  0  0  0  0  0  0
  -13.4526   96.3052  -53.3922 C   0  0  0  0  0  0  0  0  0  0  0  0
  -13.2579   95.0383  -52.9190 C   0  0  0  0  0  0  0  0  0  0  0  0
  -11.3024   92.2367  -54.4380 N   0  0  0  0  0  0  0  0  0  0  0  0
  -11.5429   96.1368  -56.5632 N   0  0  0  0  0  0  0  0  0  0  0  0
  -10.5006   93.2639  -56.4361 O   0  0  0  0  0  0  0  0  0  0  0  0
  -11.9160   94.7229  -61.2250 O   0  0  0  0  0  0  0  0  0  0  0  0
  -12.4807   92.1108  -52.3764 O   0  0  0  0  0  0  0  0  0  0  0  0
  4  1  1  0
  1 16  1  0
  1 18  2  0
  3  2  1  0
  2 16  1  0
  2 20  2  0
  4  3  2  0
  3 15  1  0
  5  4  1  0
  5 13  2  0
 17  5  1  0
  6  7  1  0
  6 17  1  6
  7  8  2  0
  7 12  1  0
  8  9  1  0
  9 10  2  0
  9 19  1  0
 10 11  1  0
 11 12  2  0
 13 14  1  0
 14 15  2  0
M  END
$$$$
