
     RDKit          3D

 20 22  0  0  0  0  0  0  0  0999 V2000
   10.6822   94.0388  -42.2279 C   0  0  0  0  0  0  0  0  0  0  0  0
   10.1145   96.0744  -41.4176 C   0  0  0  0  0  0  0  0  0  0  0  0
   10.6752   96.2902  -42.7656 C   0  0  0  0  0  0  0  0  0  0  0  0
   11.0115   95.0408  -43.2351 C   0  0  0  0  0  0  0  0  0  0  0  0
   11.5764   94.9793  -44.5229 C   0  0  0  0  0  0  0  0  0  0  0  0
   12.7516   93.3656  -46.1245 C   0  0  0  0  0  0  0  0  0  0  0  0
   12.0365   93.4359  -47.4117 C   0  0  0  0  0  0  0  0  0  0  0  0
   12.7101   94.0690  -48.4720 C   0  0  0  0  0  0  0  0  0  0  0  0
   12.1496   94.1618  -49.7084 C   0  0  0  0  0  0  0  0  0  0  0  0
   10.8891   93.6135  -49.9008 C   0  0  0  0  0  0  0  0  0  0  0  0
   10.2035   92.9910  -48.8980 C   0  0  0  0  0  0  0  0  0  0  0  0
   10.7935   92.9039  -47.6344 C   0  0  0  0  0  0  0  0  0  0  0  0
   11.7692   96.1324  -45.2525 C   0  0  0  0  0  0  0  0  0  0  0  0
   11.4217   97.3654  -44.7521 C   0  0  0  0  0  0  0  0  0  0  0  0
   10.8721   97.4493  -43.5039 C   0  0  0  0  0  0  0  0  0  0  0  0
   10.1145   94.7047  -41.0805 N   0  0  0  0  0  0  0  0  0  0  0  0
   11.8977   93.7012  -45.0299 N   0  0  0  0  0  0  0  0  0  0  0  0
   10.8481   92.7930  -42.3042 O   0  0  0  0  0  0  0  0  0  0  0  0
   12.7424   94.7649  -50.7988 O   0  0  0  0  0  0  0  0  0  0  0  0
    9.7003   97.0139  -40.6922 O   0  0  0  0  0  0  0  0  0  0  0  0
  4  1  1  0
  1 16  1  0
  1 18  2  0
  3  2  1  0
  2 16  1  0
  2 20  2  0
  4  3  2  0
  3 15  1  0
  5  4  1  0
  5 13  2  0
 17  5  1  0
  6  7  1  0
  6 17  1  6
  7  8  2  0
  7 12  1  0
  8  9  1  0
  9 10  2  0
  9 19  1  0
 10 11  1  0
 11 12  2  0
 13 14  1  0
 14 15  2  0
M  END
$$$$
