
     RDKit          3D

 20 22  0  0  0  0  0  0  0  0999 V2000
    1.1611   92.4256  -52.0733 C   0  0  0  0  0  0  0  0  0  0  0  0
    2.6458   93.9881  -52.7638 C   0  0  0  0  0  0  0  0  0  0  0  0
    1.5571   94.7061  -52.0730 C   0  0  0  0  0  0  0  0  0  0  0  0
    0.6701   93.7364  -51.6640 C   0  0  0  0  0  0  0  0  0  0  0  0
   -0.4731   94.1759  -50.9703 C   0  0  0  0  0  0  0  0  0  0  0  0
   -2.5429   93.3527  -49.7098 C   0  0  0  0  0  0  0  0  0  0  0  0
   -2.1987   93.5072  -48.2848 C   0  0  0  0  0  0  0  0  0  0  0  0
   -2.2107   94.8176  -47.7731 C   0  0  0  0  0  0  0  0  0  0  0  0
   -1.9354   95.0660  -46.4639 C   0  0  0  0  0  0  0  0  0  0  0  0
   -1.6404   93.9894  -45.6392 C   0  0  0  0  0  0  0  0  0  0  0  0
   -1.6189   92.7038  -46.0973 C   0  0  0  0  0  0  0  0  0  0  0  0
   -1.9044   92.4659  -47.4442 C   0  0  0  0  0  0  0  0  0  0  0  0
   -0.6648   95.5189  -50.7279 C   0  0  0  0  0  0  0  0  0  0  0  0
    0.2424   96.4618  -51.1516 C   0  0  0  0  0  0  0  0  0  0  0  0
    1.3593   96.0581  -51.8273 C   0  0  0  0  0  0  0  0  0  0  0  0
    2.4136   92.5968  -52.7694 N   0  0  0  0  0  0  0  0  0  0  0  0
   -1.3763   93.1894  -50.5175 N   0  0  0  0  0  0  0  0  0  0  0  0
    0.6171   91.3076  -51.8744 O   0  0  0  0  0  0  0  0  0  0  0  0
   -1.9262   96.3185  -45.8848 O   0  0  0  0  0  0  0  0  0  0  0  0
    3.6363   94.5739  -53.2698 O   0  0  0  0  0  0  0  0  0  0  0  0
  4  1  1  0
  1 16  1  0
  1 18  2  0
  3  2  1  0
  2 16  1  0
  2 20  2  0
  4  3  2  0
  3 15  1  0
  5  4  1  0
  5 13  2  0
 17  5  1  0
  6  7  1  0
  6 17  1  6
  7  8  2  0
  7 12  1  0
  8  9  1  0
  9 10  2  0
  9 19  1  0
 10 11  1  0
 11 12  2  0
 13 14  1  0
 14 15  2  0
M  END
$$$$
