
     RDKit          3D

 20 22  0  0  0  0  0  0  0  0999 V2000
   -1.5922   91.8214  -48.8746 C   0  0  0  0  0  0  0  0  0  0  0  0
   -2.1646   91.8050  -46.6850 C   0  0  0  0  0  0  0  0  0  0  0  0
   -2.2157   93.2108  -47.1315 C   0  0  0  0  0  0  0  0  0  0  0  0
   -1.8645   93.1934  -48.4622 C   0  0  0  0  0  0  0  0  0  0  0  0
   -1.8382   94.4342  -49.1262 C   0  0  0  0  0  0  0  0  0  0  0  0
   -1.0802   95.5171  -51.3179 C   0  0  0  0  0  0  0  0  0  0  0  0
    0.3295   95.3682  -51.7226 C   0  0  0  0  0  0  0  0  0  0  0  0
    1.2498   96.2551  -51.1349 C   0  0  0  0  0  0  0  0  0  0  0  0
    2.5785   96.1832  -51.4192 C   0  0  0  0  0  0  0  0  0  0  0  0
    3.0080   95.2081  -52.3085 C   0  0  0  0  0  0  0  0  0  0  0  0
    2.1468   94.3290  -52.8991 C   0  0  0  0  0  0  0  0  0  0  0  0
    0.7856   94.4161  -52.5961 C   0  0  0  0  0  0  0  0  0  0  0  0
   -2.1547   95.5916  -48.4484 C   0  0  0  0  0  0  0  0  0  0  0  0
   -2.5010   95.5725  -47.1175 C   0  0  0  0  0  0  0  0  0  0  0  0
   -2.5329   94.3794  -46.4524 C   0  0  0  0  0  0  0  0  0  0  0  0
   -1.7853   90.9499  -47.7407 N   0  0  0  0  0  0  0  0  0  0  0  0
   -1.5098   94.4281  -50.4996 N   0  0  0  0  0  0  0  0  0  0  0  0
   -1.2445   91.4195  -50.0161 O   0  0  0  0  0  0  0  0  0  0  0  0
    3.5439   97.0132  -50.8867 O   0  0  0  0  0  0  0  0  0  0  0  0
   -2.4312   91.4525  -45.5080 O   0  0  0  0  0  0  0  0  0  0  0  0
  4  1  1  0
  1 16  1  0
  1 18  2  0
  3  2  1  0
  2 16  1  0
  2 20  2  0
  4  3  2  0
  3 15  1  0
  5  4  1  0
  5 13  2  0
 17  5  1  0
  6  7  1  0
  6 17  1  6
  7  8  2  0
  7 12  1  0
  8  9  1  0
  9 10  2  0
  9 19  1  0
 10 11  1  0
 11 12  2  0
 13 14  1  0
 14 15  2  0
M  END
$$$$
