
     RDKit          3D

 20 22  0  0  0  0  0  0  0  0999 V2000
   -1.5081   92.7967  -49.4088 C   0  0  0  0  0  0  0  0  0  0  0  0
   -2.7967   94.6541  -48.8684 C   0  0  0  0  0  0  0  0  0  0  0  0
   -1.5019   95.0790  -49.4014 C   0  0  0  0  0  0  0  0  0  0  0  0
   -0.7292   93.9786  -49.7255 C   0  0  0  0  0  0  0  0  0  0  0  0
    0.5547   94.1329  -50.2544 C   0  0  0  0  0  0  0  0  0  0  0  0
    1.7315   92.5307  -51.8703 C   0  0  0  0  0  0  0  0  0  0  0  0
    2.0206   93.5689  -52.8918 C   0  0  0  0  0  0  0  0  0  0  0  0
    3.3401   93.8036  -53.2883 C   0  0  0  0  0  0  0  0  0  0  0  0
    3.6726   94.7220  -54.2473 C   0  0  0  0  0  0  0  0  0  0  0  0
    2.6547   95.4365  -54.8367 C   0  0  0  0  0  0  0  0  0  0  0  0
    1.3439   95.2384  -54.4783 C   0  0  0  0  0  0  0  0  0  0  0  0
    1.0410   94.2942  -53.4977 C   0  0  0  0  0  0  0  0  0  0  0  0
    0.9897   95.4299  -50.4283 C   0  0  0  0  0  0  0  0  0  0  0  0
    0.2147   96.5336  -50.1028 C   0  0  0  0  0  0  0  0  0  0  0  0
   -1.0426   96.3630  -49.5846 C   0  0  0  0  0  0  0  0  0  0  0  0
   -2.7801   93.2406  -48.8814 N   0  0  0  0  0  0  0  0  0  0  0  0
    1.3166   93.0051  -50.6036 N   0  0  0  0  0  0  0  0  0  0  0  0
   -1.1586   91.6098  -49.5582 O   0  0  0  0  0  0  0  0  0  0  0  0
    5.0094   94.9415  -54.6307 O   0  0  0  0  0  0  0  0  0  0  0  0
   -3.7523   95.3536  -48.4705 O   0  0  0  0  0  0  0  0  0  0  0  0
  4  1  1  0
  1 16  1  0
  1 18  2  0
  3  2  1  0
  2 16  1  0
  2 20  2  0
  4  3  2  0
  3 15  1  0
  5  4  1  0
  5 13  2  0
 17  5  1  0
  6  7  1  0
  6 17  1  0
  7  8  2  0
  7 12  1  0
  8  9  1  0
  9 10  2  0
  9 19  1  0
 10 11  1  0
 11 12  2  0
 13 14  1  0
 14 15  2  0
M  END
$$$$
