
     RDKit          3D

 20 22  0  0  0  0  0  0  0  0999 V2000
   -7.8256   80.7687  -18.4286 C   0  0  0  0  0  0  0  0  0  0  0  0
   -9.9151   80.0649  -17.9180 C   0  0  0  0  0  0  0  0  0  0  0  0
   -9.8962   81.5281  -17.7260 C   0  0  0  0  0  0  0  0  0  0  0  0
   -8.6184   81.9301  -18.0421 C   0  0  0  0  0  0  0  0  0  0  0  0
   -8.3431   83.3064  -17.9355 C   0  0  0  0  0  0  0  0  0  0  0  0
   -6.3819   84.9509  -17.9292 C   0  0  0  0  0  0  0  0  0  0  0  0
   -5.5554   84.7817  -16.7203 C   0  0  0  0  0  0  0  0  0  0  0  0
   -6.1356   85.1765  -15.5011 C   0  0  0  0  0  0  0  0  0  0  0  0
   -5.4678   85.0357  -14.3240 C   0  0  0  0  0  0  0  0  0  0  0  0
   -4.1921   84.4898  -14.3539 C   0  0  0  0  0  0  0  0  0  0  0  0
   -3.5949   84.0943  -15.5159 C   0  0  0  0  0  0  0  0  0  0  0  0
   -4.2945   84.2454  -16.7159 C   0  0  0  0  0  0  0  0  0  0  0  0
   -9.3275   84.1824  -17.5323 C   0  0  0  0  0  0  0  0  0  0  0  0
  -10.5947   83.7460  -17.2234 C   0  0  0  0  0  0  0  0  0  0  0  0
  -10.8845   82.4142  -17.3193 C   0  0  0  0  0  0  0  0  0  0  0  0
   -8.6571   79.5921  -18.3464 N   0  0  0  0  0  0  0  0  0  0  0  0
   -7.0450   83.7373  -18.2865 N   0  0  0  0  0  0  0  0  0  0  0  0
   -6.6170   80.7493  -18.7813 O   0  0  0  0  0  0  0  0  0  0  0  0
   -5.9648   85.3971  -13.0884 O   0  0  0  0  0  0  0  0  0  0  0  0
  -10.9386   79.3632  -17.7161 O   0  0  0  0  0  0  0  0  0  0  0  0
  4  1  1  0
  1 16  1  0
  1 18  2  0
  3  2  1  0
  2 16  1  0
  2 20  2  0
  4  3  2  0
  3 15  1  0
  5  4  1  0
  5 13  2  0
 17  5  1  0
  6  7  1  0
  6 17  1  6
  7  8  2  0
  7 12  1  0
  8  9  1  0
  9 10  2  0
  9 19  1  0
 10 11  1  0
 11 12  2  0
 13 14  1  0
 14 15  2  0
M  END
$$$$
