
     RDKit          3D

 20 22  0  0  0  0  0  0  0  0999 V2000
   -0.6132   93.1223  -54.1119 C   0  0  0  0  0  0  0  0  0  0  0  0
    1.4807   92.7037  -54.8619 C   0  0  0  0  0  0  0  0  0  0  0  0
    1.6127   93.6072  -53.7024 C   0  0  0  0  0  0  0  0  0  0  0  0
    0.3293   93.8457  -53.2662 C   0  0  0  0  0  0  0  0  0  0  0  0
    0.1867   94.6941  -52.1522 C   0  0  0  0  0  0  0  0  0  0  0  0
   -1.5427   95.7507  -50.5890 C   0  0  0  0  0  0  0  0  0  0  0  0
   -1.5175   95.0204  -49.3087 C   0  0  0  0  0  0  0  0  0  0  0  0
   -2.0546   93.7202  -49.3152 C   0  0  0  0  0  0  0  0  0  0  0  0
   -2.0539   92.9512  -48.1927 C   0  0  0  0  0  0  0  0  0  0  0  0
   -1.5074   93.4828  -47.0329 C   0  0  0  0  0  0  0  0  0  0  0  0
   -0.9764   94.7394  -46.9860 C   0  0  0  0  0  0  0  0  0  0  0  0
   -0.9846   95.5158  -48.1476 C   0  0  0  0  0  0  0  0  0  0  0  0
    1.2983   95.2425  -51.5499 C   0  0  0  0  0  0  0  0  0  0  0  0
    2.5672   94.9830  -52.0126 C   0  0  0  0  0  0  0  0  0  0  0  0
    2.7297   94.1626  -53.0930 C   0  0  0  0  0  0  0  0  0  0  0  0
    0.1271   92.4021  -55.1196 N   0  0  0  0  0  0  0  0  0  0  0  0
   -1.1223   94.9230  -51.6744 N   0  0  0  0  0  0  0  0  0  0  0  0
   -1.8685   93.1013  -54.0155 O   0  0  0  0  0  0  0  0  0  0  0  0
   -2.5597   91.6696  -48.1156 O   0  0  0  0  0  0  0  0  0  0  0  0
    2.4692   92.2781  -55.5117 O   0  0  0  0  0  0  0  0  0  0  0  0
  4  1  1  0
  1 16  1  0
  1 18  2  0
  3  2  1  0
  2 16  1  0
  2 20  2  0
  4  3  2  0
  3 15  1  0
  5  4  1  0
  5 13  2  0
 17  5  1  0
  6  7  1  0
  6 17  1  6
  7  8  2  0
  7 12  1  0
  8  9  1  0
  9 10  2  0
  9 19  1  0
 10 11  1  0
 11 12  2  0
 13 14  1  0
 14 15  2  0
M  END
$$$$
