
     RDKit          3D

 20 22  0  0  0  0  0  0  0  0999 V2000
    1.5965   95.0674  -49.2949 C   0  0  0  0  0  0  0  0  0  0  0  0
    0.0507   96.4924  -48.3037 C   0  0  0  0  0  0  0  0  0  0  0  0
   -0.6417   95.4298  -49.0335 C   0  0  0  0  0  0  0  0  0  0  0  0
    0.2721   94.5774  -49.6263 C   0  0  0  0  0  0  0  0  0  0  0  0
   -0.1527   93.4814  -50.3814 C   0  0  0  0  0  0  0  0  0  0  0  0
    2.0340   92.8753  -51.5705 C   0  0  0  0  0  0  0  0  0  0  0  0
    1.9777   93.3472  -52.9772 C   0  0  0  0  0  0  0  0  0  0  0  0
    1.8922   92.4180  -54.0178 C   0  0  0  0  0  0  0  0  0  0  0  0
    1.8042   92.7858  -55.3333 C   0  0  0  0  0  0  0  0  0  0  0  0
    1.8009   94.1301  -55.6285 C   0  0  0  0  0  0  0  0  0  0  0  0
    1.8827   95.0779  -54.6380 C   0  0  0  0  0  0  0  0  0  0  0  0
    1.9708   94.6676  -53.3080 C   0  0  0  0  0  0  0  0  0  0  0  0
   -1.5166   93.3105  -50.4926 C   0  0  0  0  0  0  0  0  0  0  0  0
   -2.4331   94.1658  -49.8983 C   0  0  0  0  0  0  0  0  0  0  0  0
   -1.9979   95.2363  -49.1612 C   0  0  0  0  0  0  0  0  0  0  0  0
    1.4325   96.2501  -48.4779 N   0  0  0  0  0  0  0  0  0  0  0  0
    0.7882   92.6095  -50.9548 N   0  0  0  0  0  0  0  0  0  0  0  0
    2.6852   94.5710  -49.6432 O   0  0  0  0  0  0  0  0  0  0  0  0
    1.7190   91.8317  -56.3650 O   0  0  0  0  0  0  0  0  0  0  0  0
   -0.4311   97.4399  -47.6473 O   0  0  0  0  0  0  0  0  0  0  0  0
  4  1  1  0
  1 16  1  0
  1 18  2  0
  3  2  1  0
  2 16  1  0
  2 20  2  0
  4  3  2  0
  3 15  1  0
  5  4  1  0
  5 13  2  0
 17  5  1  0
  6  7  1  0
  6 17  1  0
  7  8  2  0
  7 12  1  0
  8  9  1  0
  9 10  2  0
  9 19  1  0
 10 11  1  0
 11 12  2  0
 13 14  1  0
 14 15  2  0
M  END
$$$$
