
     RDKit          3D

 20 22  0  0  0  0  0  0  0  0999 V2000
   11.2208   93.3769  -46.7188 C   0  0  0  0  0  0  0  0  0  0  0  0
   12.7666   93.1561  -48.4406 C   0  0  0  0  0  0  0  0  0  0  0  0
   12.8431   94.4997  -47.8662 C   0  0  0  0  0  0  0  0  0  0  0  0
   11.9258   94.6387  -46.8405 C   0  0  0  0  0  0  0  0  0  0  0  0
   11.8114   95.8404  -46.1370 C   0  0  0  0  0  0  0  0  0  0  0  0
   10.3913   97.1025  -44.4183 C   0  0  0  0  0  0  0  0  0  0  0  0
   10.7325   97.2250  -42.9784 C   0  0  0  0  0  0  0  0  0  0  0  0
   11.7050   96.3890  -42.4224 C   0  0  0  0  0  0  0  0  0  0  0  0
   12.0899   96.4712  -41.1114 C   0  0  0  0  0  0  0  0  0  0  0  0
   11.4855   97.4213  -40.3199 C   0  0  0  0  0  0  0  0  0  0  0  0
   10.5255   98.2639  -40.8243 C   0  0  0  0  0  0  0  0  0  0  0  0
   10.1577   98.1526  -42.1649 C   0  0  0  0  0  0  0  0  0  0  0  0
   12.6580   96.8568  -46.5263 C   0  0  0  0  0  0  0  0  0  0  0  0
   13.5778   96.7174  -47.5554 C   0  0  0  0  0  0  0  0  0  0  0  0
   13.6758   95.5311  -48.2349 C   0  0  0  0  0  0  0  0  0  0  0  0
   11.7583   92.4786  -47.7175 N   0  0  0  0  0  0  0  0  0  0  0  0
   10.8931   95.9568  -45.0797 N   0  0  0  0  0  0  0  0  0  0  0  0
   10.3157   93.1024  -45.9074 O   0  0  0  0  0  0  0  0  0  0  0  0
   13.0720   95.6182  -40.5730 O   0  0  0  0  0  0  0  0  0  0  0  0
   13.4306   92.6603  -49.3755 O   0  0  0  0  0  0  0  0  0  0  0  0
  4  1  1  0
  1 16  1  0
  1 18  2  0
  3  2  1  0
  2 16  1  0
  2 20  2  0
  4  3  2  0
  3 15  1  0
  5  4  1  0
  5 13  2  0
 17  5  1  0
  6  7  1  0
  6 17  1  0
  7  8  2  0
  7 12  1  0
  8  9  1  0
  9 10  2  0
  9 19  1  0
 10 11  1  0
 11 12  2  0
 13 14  1  0
 14 15  2  0
M  END
$$$$
