
     RDKit          3D

 20 22  0  0  0  0  0  0  0  0999 V2000
    2.0565   93.4268  -52.0214 C   0  0  0  0  0  0  0  0  0  0  0  0
    2.1129   95.6879  -52.1043 C   0  0  0  0  0  0  0  0  0  0  0  0
    0.9238   95.3169  -51.3128 C   0  0  0  0  0  0  0  0  0  0  0  0
    0.9124   93.9411  -51.2774 C   0  0  0  0  0  0  0  0  0  0  0  0
   -0.1428   93.3346  -50.5703 C   0  0  0  0  0  0  0  0  0  0  0  0
   -0.8003   91.0834  -49.5454 C   0  0  0  0  0  0  0  0  0  0  0  0
   -2.2674   91.1554  -49.6700 C   0  0  0  0  0  0  0  0  0  0  0  0
   -2.7798   91.3577  -50.9644 C   0  0  0  0  0  0  0  0  0  0  0  0
   -4.1202   91.4109  -51.1920 C   0  0  0  0  0  0  0  0  0  0  0  0
   -4.9764   91.2600  -50.1101 C   0  0  0  0  0  0  0  0  0  0  0  0
   -4.5187   91.0616  -48.8396 C   0  0  0  0  0  0  0  0  0  0  0  0
   -3.1393   91.0091  -48.6232 C   0  0  0  0  0  0  0  0  0  0  0  0
   -1.1013   94.1092  -49.9536 C   0  0  0  0  0  0  0  0  0  0  0  0
   -1.0595   95.4829  -50.0095 C   0  0  0  0  0  0  0  0  0  0  0  0
   -0.0446   96.0933  -50.6908 C   0  0  0  0  0  0  0  0  0  0  0  0
    2.8104   94.5422  -52.5410 N   0  0  0  0  0  0  0  0  0  0  0  0
   -0.1500   91.9243  -50.4994 N   0  0  0  0  0  0  0  0  0  0  0  0
    2.3716   92.2217  -52.2050 O   0  0  0  0  0  0  0  0  0  0  0  0
   -4.7022   91.6054  -52.4280 O   0  0  0  0  0  0  0  0  0  0  0  0
    2.4318   96.8811  -52.3386 O   0  0  0  0  0  0  0  0  0  0  0  0
  4  1  1  0
  1 16  1  0
  1 18  2  0
  3  2  1  0
  2 16  1  0
  2 20  2  0
  4  3  2  0
  3 15  1  0
  5  4  1  0
  5 13  2  0
 17  5  1  0
  6  7  1  0
  6 17  1  6
  7  8  2  0
  7 12  1  0
  8  9  1  0
  9 10  2  0
  9 19  1  0
 10 11  1  0
 11 12  2  0
 13 14  1  0
 14 15  2  0
M  END
$$$$
