
     RDKit          3D

 20 22  0  0  0  0  0  0  0  0999 V2000
   -0.2748   91.8941  -49.6665 C   0  0  0  0  0  0  0  0  0  0  0  0
   -2.2059   92.5187  -48.5337 C   0  0  0  0  0  0  0  0  0  0  0  0
   -1.6127   93.6818  -49.1943 C   0  0  0  0  0  0  0  0  0  0  0  0
   -0.4626   93.3177  -49.8708 C   0  0  0  0  0  0  0  0  0  0  0  0
    0.2828   94.2624  -50.5807 C   0  0  0  0  0  0  0  0  0  0  0  0
    2.3507   94.6341  -52.0468 C   0  0  0  0  0  0  0  0  0  0  0  0
    2.0148   94.8124  -53.4821 C   0  0  0  0  0  0  0  0  0  0  0  0
    1.5795   93.7175  -54.2339 C   0  0  0  0  0  0  0  0  0  0  0  0
    1.2230   93.8192  -55.5516 C   0  0  0  0  0  0  0  0  0  0  0  0
    1.3018   95.0572  -56.1475 C   0  0  0  0  0  0  0  0  0  0  0  0
    1.7238   96.1605  -55.4469 C   0  0  0  0  0  0  0  0  0  0  0  0
    2.0790   96.0207  -54.1055 C   0  0  0  0  0  0  0  0  0  0  0  0
   -0.1965   95.5553  -50.5620 C   0  0  0  0  0  0  0  0  0  0  0  0
   -1.3499   95.9204  -49.8830 C   0  0  0  0  0  0  0  0  0  0  0  0
   -2.0684   94.9800  -49.1915 C   0  0  0  0  0  0  0  0  0  0  0  0
   -1.3640   91.4246  -48.8380 N   0  0  0  0  0  0  0  0  0  0  0  0
    1.4341   93.8714  -51.2851 N   0  0  0  0  0  0  0  0  0  0  0  0
    0.6507   91.1908  -50.1160 O   0  0  0  0  0  0  0  0  0  0  0  0
    0.7872   92.7020  -56.2892 O   0  0  0  0  0  0  0  0  0  0  0  0
   -3.2394   92.4520  -47.8350 O   0  0  0  0  0  0  0  0  0  0  0  0
  4  1  1  0
  1 16  1  0
  1 18  2  0
  3  2  1  0
  2 16  1  0
  2 20  2  0
  4  3  2  0
  3 15  1  0
  5  4  1  0
  5 13  2  0
 17  5  1  0
  6  7  1  0
  6 17  1  0
  7  8  2  0
  7 12  1  0
  8  9  1  0
  9 10  2  0
  9 19  1  0
 10 11  1  0
 11 12  2  0
 13 14  1  0
 14 15  2  0
M  END
$$$$
