
     RDKit          3D

 20 22  0  0  0  0  0  0  0  0999 V2000
   12.8873   92.7886  -46.4223 C   0  0  0  0  0  0  0  0  0  0  0  0
   11.8805   91.2058  -47.7948 C   0  0  0  0  0  0  0  0  0  0  0  0
   11.1953   92.4921  -47.9251 C   0  0  0  0  0  0  0  0  0  0  0  0
   11.7892   93.4395  -47.1110 C   0  0  0  0  0  0  0  0  0  0  0  0
   11.3070   94.7500  -47.0638 C   0  0  0  0  0  0  0  0  0  0  0  0
   11.5607   97.0319  -45.9272 C   0  0  0  0  0  0  0  0  0  0  0  0
   10.9631   97.2276  -44.5822 C   0  0  0  0  0  0  0  0  0  0  0  0
   10.0052   96.3255  -44.1108 C   0  0  0  0  0  0  0  0  0  0  0  0
    9.4389   96.4290  -42.8688 C   0  0  0  0  0  0  0  0  0  0  0  0
    9.8393   97.4696  -42.0619 C   0  0  0  0  0  0  0  0  0  0  0  0
   10.7779   98.3790  -42.4840 C   0  0  0  0  0  0  0  0  0  0  0  0
   11.3345   98.2432  -43.7555 C   0  0  0  0  0  0  0  0  0  0  0  0
   10.2220   95.0289  -47.8678 C   0  0  0  0  0  0  0  0  0  0  0  0
    9.6261   94.0784  -48.6841 C   0  0  0  0  0  0  0  0  0  0  0  0
   10.1125   92.7974  -48.7172 C   0  0  0  0  0  0  0  0  0  0  0  0
   12.9226   91.4106  -46.8617 N   0  0  0  0  0  0  0  0  0  0  0  0
   11.9382   95.7075  -46.2519 N   0  0  0  0  0  0  0  0  0  0  0  0
   13.6662   93.3085  -45.6001 O   0  0  0  0  0  0  0  0  0  0  0  0
    8.4754   95.5082  -42.4151 O   0  0  0  0  0  0  0  0  0  0  0  0
   11.6360   90.1219  -48.3659 O   0  0  0  0  0  0  0  0  0  0  0  0
  4  1  1  0
  1 16  1  0
  1 18  2  0
  3  2  1  0
  2 16  1  0
  2 20  2  0
  4  3  2  0
  3 15  1  0
  5  4  1  0
  5 13  2  0
 17  5  1  0
  6  7  1  0
  6 17  1  0
  7  8  2  0
  7 12  1  0
  8  9  1  0
  9 10  2  0
  9 19  1  0
 10 11  1  0
 11 12  2  0
 13 14  1  0
 14 15  2  0
M  END
$$$$
