
     RDKit          3D

 20 22  0  0  0  0  0  0  0  0999 V2000
  -13.7092   94.5325  -53.2959 C   0  0  0  0  0  0  0  0  0  0  0  0
  -12.7530   92.6304  -52.3633 C   0  0  0  0  0  0  0  0  0  0  0  0
  -11.8330   93.2334  -53.3282 C   0  0  0  0  0  0  0  0  0  0  0  0
  -12.3954   94.3665  -53.8876 C   0  0  0  0  0  0  0  0  0  0  0  0
  -11.7026   95.1163  -54.8415 C   0  0  0  0  0  0  0  0  0  0  0  0
  -11.7605   97.2182  -56.3050 C   0  0  0  0  0  0  0  0  0  0  0  0
  -11.6698   96.7611  -57.7148 C   0  0  0  0  0  0  0  0  0  0  0  0
  -10.7788   95.7401  -58.0570 C   0  0  0  0  0  0  0  0  0  0  0  0
  -10.6687   95.2497  -59.3303 C   0  0  0  0  0  0  0  0  0  0  0  0
  -11.4754   95.7943  -60.3033 C   0  0  0  0  0  0  0  0  0  0  0  0
  -12.3655   96.7988  -60.0120 C   0  0  0  0  0  0  0  0  0  0  0  0
  -12.4517   97.2744  -58.7038 C   0  0  0  0  0  0  0  0  0  0  0  0
  -10.4461   94.6598  -55.1797 C   0  0  0  0  0  0  0  0  0  0  0  0
   -9.8823   93.5230  -54.6188 C   0  0  0  0  0  0  0  0  0  0  0  0
  -10.5769   92.7996  -53.6846 C   0  0  0  0  0  0  0  0  0  0  0  0
  -13.9060   93.4483  -52.3584 N   0  0  0  0  0  0  0  0  0  0  0  0
  -12.2770   96.2800  -55.3804 N   0  0  0  0  0  0  0  0  0  0  0  0
  -14.5294   95.4384  -53.5407 O   0  0  0  0  0  0  0  0  0  0  0  0
   -9.7636   94.2204  -59.6518 O   0  0  0  0  0  0  0  0  0  0  0  0
  -12.6004   91.6068  -51.6634 O   0  0  0  0  0  0  0  0  0  0  0  0
  4  1  1  0
  1 16  1  0
  1 18  2  0
  3  2  1  0
  2 16  1  0
  2 20  2  0
  4  3  2  0
  3 15  1  0
  5  4  1  0
  5 13  2  0
 17  5  1  0
  6  7  1  0
  6 17  1  0
  7  8  2  0
  7 12  1  0
  8  9  1  0
  9 10  2  0
  9 19  1  0
 10 11  1  0
 11 12  2  0
 13 14  1  0
 14 15  2  0
M  END
$$$$
