
     RDKit          3D

 20 22  0  0  0  0  0  0  0  0999 V2000
    2.8043   92.0552  -51.0123 C   0  0  0  0  0  0  0  0  0  0  0  0
    3.4623   92.0534  -53.1778 C   0  0  0  0  0  0  0  0  0  0  0  0
    2.5272   93.1834  -53.0143 C   0  0  0  0  0  0  0  0  0  0  0  0
    2.1429   93.1625  -51.6928 C   0  0  0  0  0  0  0  0  0  0  0  0
    1.2370   94.1581  -51.2811 C   0  0  0  0  0  0  0  0  0  0  0  0
   -0.0763   95.0241  -49.2622 C   0  0  0  0  0  0  0  0  0  0  0  0
   -1.4129   94.4075  -49.1805 C   0  0  0  0  0  0  0  0  0  0  0  0
   -1.4712   93.0098  -49.3286 C   0  0  0  0  0  0  0  0  0  0  0  0
   -2.6524   92.3400  -49.2416 C   0  0  0  0  0  0  0  0  0  0  0  0
   -3.8065   93.0726  -49.0016 C   0  0  0  0  0  0  0  0  0  0  0  0
   -3.7915   94.4293  -48.8517 C   0  0  0  0  0  0  0  0  0  0  0  0
   -2.5702   95.1017  -48.9436 C   0  0  0  0  0  0  0  0  0  0  0  0
    0.7770   95.0940  -52.1819 C   0  0  0  0  0  0  0  0  0  0  0  0
    1.1818   95.0853  -53.4963 C   0  0  0  0  0  0  0  0  0  0  0  0
    2.0604   94.1278  -53.9185 C   0  0  0  0  0  0  0  0  0  0  0  0
    3.6380   91.3591  -51.9626 N   0  0  0  0  0  0  0  0  0  0  0  0
    0.8580   94.1677  -49.9208 N   0  0  0  0  0  0  0  0  0  0  0  0
    2.6956   91.7254  -49.8020 O   0  0  0  0  0  0  0  0  0  0  0  0
   -2.7949   90.9739  -49.3746 O   0  0  0  0  0  0  0  0  0  0  0  0
    4.0123   91.7757  -54.2737 O   0  0  0  0  0  0  0  0  0  0  0  0
  4  1  1  0
  1 16  1  0
  1 18  2  0
  3  2  1  0
  2 16  1  0
  2 20  2  0
  4  3  2  0
  3 15  1  0
  5  4  1  0
  5 13  2  0
 17  5  1  0
  6  7  1  0
  6 17  1  6
  7  8  2  0
  7 12  1  0
  8  9  1  0
  9 10  2  0
  9 19  1  0
 10 11  1  0
 11 12  2  0
 13 14  1  0
 14 15  2  0
M  END
$$$$
