
     RDKit          3D

 20 22  0  0  0  0  0  0  0  0999 V2000
  -11.8238   94.2665  -52.4214 C   0  0  0  0  0  0  0  0  0  0  0  0
  -11.1869   92.2562  -53.3988 C   0  0  0  0  0  0  0  0  0  0  0  0
  -11.6189   93.2009  -54.4293 C   0  0  0  0  0  0  0  0  0  0  0  0
  -11.9996   94.4002  -53.8549 C   0  0  0  0  0  0  0  0  0  0  0  0
  -12.4529   95.4618  -54.6420 C   0  0  0  0  0  0  0  0  0  0  0  0
  -13.2930   97.8820  -54.6210 C   0  0  0  0  0  0  0  0  0  0  0  0
  -12.3027   98.6825  -55.3847 C   0  0  0  0  0  0  0  0  0  0  0  0
  -12.2568   98.5831  -56.7781 C   0  0  0  0  0  0  0  0  0  0  0  0
  -11.3915   99.3165  -57.5443 C   0  0  0  0  0  0  0  0  0  0  0  0
  -10.5370  100.1835  -56.9021 C   0  0  0  0  0  0  0  0  0  0  0  0
  -10.5478  100.3135  -55.5350 C   0  0  0  0  0  0  0  0  0  0  0  0
  -11.4430   99.5510  -54.7852 C   0  0  0  0  0  0  0  0  0  0  0  0
  -12.4933   95.2375  -56.0021 C   0  0  0  0  0  0  0  0  0  0  0  0
  -12.1119   94.0344  -56.5780 C   0  0  0  0  0  0  0  0  0  0  0  0
  -11.6700   93.0037  -55.7900 C   0  0  0  0  0  0  0  0  0  0  0  0
  -11.3211   92.9342  -52.1656 N   0  0  0  0  0  0  0  0  0  0  0  0
  -12.8104   96.6829  -54.0456 N   0  0  0  0  0  0  0  0  0  0  0  0
  -12.0586   95.1323  -51.5563 O   0  0  0  0  0  0  0  0  0  0  0  0
  -11.3632   99.1998  -58.9471 O   0  0  0  0  0  0  0  0  0  0  0  0
  -10.7760   91.0835  -53.5281 O   0  0  0  0  0  0  0  0  0  0  0  0
  4  1  1  0
  1 16  1  0
  1 18  2  0
  3  2  1  0
  2 16  1  0
  2 20  2  0
  4  3  2  0
  3 15  1  0
  5  4  1  0
  5 13  2  0
 17  5  1  0
  6  7  1  0
  6 17  1  0
  7  8  2  0
  7 12  1  0
  8  9  1  0
  9 10  2  0
  9 19  1  0
 10 11  1  0
 11 12  2  0
 13 14  1  0
 14 15  2  0
M  END
$$$$
