
     RDKit          3D

 20 22  0  0  0  0  0  0  0  0999 V2000
  -12.7483   92.8287  -55.4470 C   0  0  0  0  0  0  0  0  0  0  0  0
  -11.5428   91.7933  -53.8355 C   0  0  0  0  0  0  0  0  0  0  0  0
  -10.9837   93.1510  -53.9843 C   0  0  0  0  0  0  0  0  0  0  0  0
  -11.7320   93.7579  -54.9671 C   0  0  0  0  0  0  0  0  0  0  0  0
  -11.3880   95.0821  -55.2980 C   0  0  0  0  0  0  0  0  0  0  0  0
  -11.9673   97.0115  -56.8768 C   0  0  0  0  0  0  0  0  0  0  0  0
  -11.2593   96.9083  -58.1657 C   0  0  0  0  0  0  0  0  0  0  0  0
  -10.0130   97.5549  -58.2525 C   0  0  0  0  0  0  0  0  0  0  0  0
   -9.2660   97.4970  -59.3884 C   0  0  0  0  0  0  0  0  0  0  0  0
   -9.7655   96.7804  -60.4669 C   0  0  0  0  0  0  0  0  0  0  0  0
  -10.9697   96.1392  -60.4221 C   0  0  0  0  0  0  0  0  0  0  0  0
  -11.7240   96.2082  -59.2480 C   0  0  0  0  0  0  0  0  0  0  0  0
  -10.3477   95.7121  -54.6499 C   0  0  0  0  0  0  0  0  0  0  0  0
   -9.6200   95.0751  -53.6719 C   0  0  0  0  0  0  0  0  0  0  0  0
   -9.9359   93.7893  -53.3346 C   0  0  0  0  0  0  0  0  0  0  0  0
  -12.6194   91.5869  -54.7232 N   0  0  0  0  0  0  0  0  0  0  0  0
  -12.1671   95.7280  -56.2828 N   0  0  0  0  0  0  0  0  0  0  0  0
  -13.6124   93.0328  -56.3399 O   0  0  0  0  0  0  0  0  0  0  0  0
   -8.0367   98.1017  -59.5544 O   0  0  0  0  0  0  0  0  0  0  0  0
  -11.0921   90.9558  -53.0133 O   0  0  0  0  0  0  0  0  0  0  0  0
  4  1  1  0
  1 16  1  0
  1 18  2  0
  3  2  1  0
  2 16  1  0
  2 20  2  0
  4  3  2  0
  3 15  1  0
  5  4  1  0
  5 13  2  0
 17  5  1  0
  6  7  1  0
  6 17  1  6
  7  8  2  0
  7 12  1  0
  8  9  1  0
  9 10  2  0
  9 19  1  0
 10 11  1  0
 11 12  2  0
 13 14  1  0
 14 15  2  0
M  END
$$$$
