
     RDKit          3D

 20 22  0  0  0  0  0  0  0  0999 V2000
   11.9822   92.9106  -46.5585 C   0  0  0  0  0  0  0  0  0  0  0  0
   11.7642   92.6511  -48.8580 C   0  0  0  0  0  0  0  0  0  0  0  0
   12.1777   94.0191  -48.5440 C   0  0  0  0  0  0  0  0  0  0  0  0
   12.3096   94.1812  -47.1768 C   0  0  0  0  0  0  0  0  0  0  0  0
   12.6962   95.4087  -46.6329 C   0  0  0  0  0  0  0  0  0  0  0  0
   13.0622   96.7042  -44.4532 C   0  0  0  0  0  0  0  0  0  0  0  0
   11.8936   97.1792  -43.6700 C   0  0  0  0  0  0  0  0  0  0  0  0
   11.9275   98.4408  -43.0695 C   0  0  0  0  0  0  0  0  0  0  0  0
   10.8732   98.9523  -42.3619 C   0  0  0  0  0  0  0  0  0  0  0  0
    9.7395   98.1807  -42.2453 C   0  0  0  0  0  0  0  0  0  0  0  0
    9.6622   96.9355  -42.8193 C   0  0  0  0  0  0  0  0  0  0  0  0
   10.7552   96.4456  -43.5337 C   0  0  0  0  0  0  0  0  0  0  0  0
   12.9330   96.4261  -47.5332 C   0  0  0  0  0  0  0  0  0  0  0  0
   12.8002   96.2635  -48.9045 C   0  0  0  0  0  0  0  0  0  0  0  0
   12.4196   95.0519  -49.4202 C   0  0  0  0  0  0  0  0  0  0  0  0
   11.6490   91.9829  -47.6176 N   0  0  0  0  0  0  0  0  0  0  0  0
   12.8518   95.5496  -45.2435 N   0  0  0  0  0  0  0  0  0  0  0  0
   11.9832   92.6509  -45.3397 O   0  0  0  0  0  0  0  0  0  0  0  0
   10.9301  100.2263  -41.7654 O   0  0  0  0  0  0  0  0  0  0  0  0
   11.5450   92.1309  -49.9725 O   0  0  0  0  0  0  0  0  0  0  0  0
  4  1  1  0
  1 16  1  0
  1 18  2  0
  3  2  1  0
  2 16  1  0
  2 20  2  0
  4  3  2  0
  3 15  1  0
  5  4  1  0
  5 13  2  0
 17  5  1  0
  6  7  1  0
  6 17  1  0
  7  8  2  0
  7 12  1  0
  8  9  1  0
  9 10  2  0
  9 19  1  0
 10 11  1  0
 11 12  2  0
 13 14  1  0
 14 15  2  0
M  END
$$$$
