
     RDKit          3D

 20 22  0  0  0  0  0  0  0  0999 V2000
    1.7424   91.9112  -50.2394 C   0  0  0  0  0  0  0  0  0  0  0  0
    3.4947   92.0540  -51.7598 C   0  0  0  0  0  0  0  0  0  0  0  0
    2.5077   93.0994  -52.0315 C   0  0  0  0  0  0  0  0  0  0  0  0
    1.4614   93.0209  -51.1302 C   0  0  0  0  0  0  0  0  0  0  0  0
    0.3924   93.9184  -51.1905 C   0  0  0  0  0  0  0  0  0  0  0  0
   -1.8164   94.6288  -50.1044 C   0  0  0  0  0  0  0  0  0  0  0  0
   -1.5989   96.0768  -49.8576 C   0  0  0  0  0  0  0  0  0  0  0  0
   -2.3491   97.0212  -50.5638 C   0  0  0  0  0  0  0  0  0  0  0  0
   -2.2218   98.3690  -50.3615 C   0  0  0  0  0  0  0  0  0  0  0  0
   -1.3133   98.7971  -49.4205 C   0  0  0  0  0  0  0  0  0  0  0  0
   -0.5552   97.9045  -48.7032 C   0  0  0  0  0  0  0  0  0  0  0  0
   -0.7111   96.5381  -48.9347 C   0  0  0  0  0  0  0  0  0  0  0  0
    0.4506   94.8685  -52.1883 C   0  0  0  0  0  0  0  0  0  0  0  0
    1.4999   94.9470  -53.0924 C   0  0  0  0  0  0  0  0  0  0  0  0
    2.5402   94.0576  -53.0184 C   0  0  0  0  0  0  0  0  0  0  0  0
    3.0029   91.3311  -50.6489 N   0  0  0  0  0  0  0  0  0  0  0  0
   -0.6496   93.8422  -50.2509 N   0  0  0  0  0  0  0  0  0  0  0  0
    1.0364   91.5180  -49.2907 O   0  0  0  0  0  0  0  0  0  0  0  0
   -2.9885   99.3022  -51.0850 O   0  0  0  0  0  0  0  0  0  0  0  0
    4.5653   91.8080  -52.3548 O   0  0  0  0  0  0  0  0  0  0  0  0
  4  1  1  0
  1 16  1  0
  1 18  2  0
  3  2  1  0
  2 16  1  0
  2 20  2  0
  4  3  2  0
  3 15  1  0
  5  4  1  0
  5 13  2  0
 17  5  1  0
  6  7  1  0
  6 17  1  0
  7  8  2  0
  7 12  1  0
  8  9  1  0
  9 10  2  0
  9 19  1  0
 10 11  1  0
 11 12  2  0
 13 14  1  0
 14 15  2  0
M  END
$$$$
