
     RDKit          3D

 20 22  0  0  0  0  0  0  0  0999 V2000
    0.0242   92.8676  -50.0206 C   0  0  0  0  0  0  0  0  0  0  0  0
   -2.2799   92.7712  -49.7300 C   0  0  0  0  0  0  0  0  0  0  0  0
   -1.8063   94.1421  -49.5366 C   0  0  0  0  0  0  0  0  0  0  0  0
   -0.4354   94.2074  -49.7080 C   0  0  0  0  0  0  0  0  0  0  0  0
    0.2488   95.4180  -49.5721 C   0  0  0  0  0  0  0  0  0  0  0  0
    2.5325   96.5679  -49.7315 C   0  0  0  0  0  0  0  0  0  0  0  0
    3.9383   96.2466  -49.3777 C   0  0  0  0  0  0  0  0  0  0  0  0
    4.2072   95.4338  -48.2729 C   0  0  0  0  0  0  0  0  0  0  0  0
    5.4771   95.0727  -47.9112 C   0  0  0  0  0  0  0  0  0  0  0  0
    6.5225   95.5370  -48.6765 C   0  0  0  0  0  0  0  0  0  0  0  0
    6.3047   96.3378  -49.7708 C   0  0  0  0  0  0  0  0  0  0  0  0
    4.9977   96.6859  -50.1108 C   0  0  0  0  0  0  0  0  0  0  0  0
   -0.5198   96.5203  -49.2625 C   0  0  0  0  0  0  0  0  0  0  0  0
   -1.8948   96.4546  -49.0901 C   0  0  0  0  0  0  0  0  0  0  0  0
   -2.5492   95.2581  -49.2271 C   0  0  0  0  0  0  0  0  0  0  0  0
   -1.1334   91.9998  -50.0281 N   0  0  0  0  0  0  0  0  0  0  0  0
    1.6380   95.4726  -49.7759 N   0  0  0  0  0  0  0  0  0  0  0  0
    1.1981   92.5139  -50.2439 O   0  0  0  0  0  0  0  0  0  0  0  0
    5.7239   94.2526  -46.7938 O   0  0  0  0  0  0  0  0  0  0  0  0
   -3.4437   92.3227  -49.6582 O   0  0  0  0  0  0  0  0  0  0  0  0
  4  1  1  0
  1 16  1  0
  1 18  2  0
  3  2  1  0
  2 16  1  0
  2 20  2  0
  4  3  2  0
  3 15  1  0
  5  4  1  0
  5 13  2  0
 17  5  1  0
  6  7  1  0
  6 17  1  0
  7  8  2  0
  7 12  1  0
  8  9  1  0
  9 10  2  0
  9 19  1  0
 10 11  1  0
 11 12  2  0
 13 14  1  0
 14 15  2  0
M  END
$$$$
