
     RDKit          3D

 20 22  0  0  0  0  0  0  0  0999 V2000
  -11.3939   93.0606  -55.0751 C   0  0  0  0  0  0  0  0  0  0  0  0
  -11.1646   92.4220  -52.8521 C   0  0  0  0  0  0  0  0  0  0  0  0
  -11.6551   93.7983  -52.9311 C   0  0  0  0  0  0  0  0  0  0  0  0
  -11.7941   94.1855  -54.2516 C   0  0  0  0  0  0  0  0  0  0  0  0
  -12.2494   95.4647  -54.5810 C   0  0  0  0  0  0  0  0  0  0  0  0
  -12.6665   97.0967  -56.5112 C   0  0  0  0  0  0  0  0  0  0  0  0
  -11.6958   97.5467  -57.5408 C   0  0  0  0  0  0  0  0  0  0  0  0
  -11.3169   96.6745  -58.5651 C   0  0  0  0  0  0  0  0  0  0  0  0
  -10.4525   97.0360  -59.5631 C   0  0  0  0  0  0  0  0  0  0  0  0
   -9.9434   98.3145  -59.5440 C   0  0  0  0  0  0  0  0  0  0  0  0
  -10.2886   99.2049  -58.5569 C   0  0  0  0  0  0  0  0  0  0  0  0
  -11.1723   98.8031  -57.5556 C   0  0  0  0  0  0  0  0  0  0  0  0
  -12.5451   96.2972  -53.5221 C   0  0  0  0  0  0  0  0  0  0  0  0
  -12.4052   95.9087  -52.1977 C   0  0  0  0  0  0  0  0  0  0  0  0
  -11.9568   94.6498  -51.8934 C   0  0  0  0  0  0  0  0  0  0  0  0
  -11.0098   91.9846  -54.1874 N   0  0  0  0  0  0  0  0  0  0  0  0
  -12.4108   95.8336  -55.9272 N   0  0  0  0  0  0  0  0  0  0  0  0
  -11.3783   93.0149  -56.3204 O   0  0  0  0  0  0  0  0  0  0  0  0
  -10.0850   96.1401  -60.5851 O   0  0  0  0  0  0  0  0  0  0  0  0
  -10.9176   91.7309  -51.8410 O   0  0  0  0  0  0  0  0  0  0  0  0
  4  1  1  0
  1 16  1  0
  1 18  2  0
  3  2  1  0
  2 16  1  0
  2 20  2  0
  4  3  2  0
  3 15  1  0
  5  4  1  0
  5 13  2  0
 17  5  1  0
  6  7  1  0
  6 17  1  0
  7  8  2  0
  7 12  1  0
  8  9  1  0
  9 10  2  0
  9 19  1  0
 10 11  1  0
 11 12  2  0
 13 14  1  0
 14 15  2  0
M  END
$$$$
