
     RDKit          3D

 20 22  0  0  0  0  0  0  0  0999 V2000
   -1.7434   96.1367  -51.7714 C   0  0  0  0  0  0  0  0  0  0  0  0
   -0.5407   95.8929  -53.6731 C   0  0  0  0  0  0  0  0  0  0  0  0
    0.2883   95.3681  -52.5706 C   0  0  0  0  0  0  0  0  0  0  0  0
   -0.4635   95.5274  -51.4288 C   0  0  0  0  0  0  0  0  0  0  0  0
    0.1186   95.0957  -50.2222 C   0  0  0  0  0  0  0  0  0  0  0  0
   -1.9444   94.6817  -48.7650 C   0  0  0  0  0  0  0  0  0  0  0  0
   -1.8619   93.2649  -48.3664 C   0  0  0  0  0  0  0  0  0  0  0  0
   -1.9598   92.9918  -46.9899 C   0  0  0  0  0  0  0  0  0  0  0  0
   -1.9237   91.7154  -46.5198 C   0  0  0  0  0  0  0  0  0  0  0  0
   -1.7872   90.6818  -47.4360 C   0  0  0  0  0  0  0  0  0  0  0  0
   -1.6896   90.9055  -48.7790 C   0  0  0  0  0  0  0  0  0  0  0  0
   -1.7287   92.2221  -49.2452 C   0  0  0  0  0  0  0  0  0  0  0  0
    1.3813   94.5438  -50.2185 C   0  0  0  0  0  0  0  0  0  0  0  0
    2.1055   94.3999  -51.3789 C   0  0  0  0  0  0  0  0  0  0  0  0
    1.5605   94.8124  -52.5621 C   0  0  0  0  0  0  0  0  0  0  0  0
   -1.7817   96.3640  -53.1959 N   0  0  0  0  0  0  0  0  0  0  0  0
   -0.6536   95.2244  -49.0469 N   0  0  0  0  0  0  0  0  0  0  0  0
   -2.6848   96.4320  -50.9891 O   0  0  0  0  0  0  0  0  0  0  0  0
   -2.0132   91.3635  -45.1885 O   0  0  0  0  0  0  0  0  0  0  0  0
   -0.1575   95.9027  -54.8704 O   0  0  0  0  0  0  0  0  0  0  0  0
  4  1  1  0
  1 16  1  0
  1 18  2  0
  3  2  1  0
  2 16  1  0
  2 20  2  0
  4  3  2  0
  3 15  1  0
  5  4  1  0
  5 13  2  0
 17  5  1  0
  6  7  1  0
  6 17  1  6
  7  8  2  0
  7 12  1  0
  8  9  1  0
  9 10  2  0
  9 19  1  0
 10 11  1  0
 11 12  2  0
 13 14  1  0
 14 15  2  0
M  END
$$$$
