
     RDKit          3D

 20 22  0  0  0  0  0  0  0  0999 V2000
  -10.9580   93.0531  -54.4219 C   0  0  0  0  0  0  0  0  0  0  0  0
  -12.5315   92.9809  -52.7127 C   0  0  0  0  0  0  0  0  0  0  0  0
  -12.5665   94.2863  -53.3726 C   0  0  0  0  0  0  0  0  0  0  0  0
  -11.6324   94.3369  -54.3914 C   0  0  0  0  0  0  0  0  0  0  0  0
  -11.4784   95.4879  -55.1684 C   0  0  0  0  0  0  0  0  0  0  0  0
  -10.1344   96.5746  -57.0594 C   0  0  0  0  0  0  0  0  0  0  0  0
  -10.9402   96.7772  -58.2899 C   0  0  0  0  0  0  0  0  0  0  0  0
  -10.8354   95.8669  -59.3454 C   0  0  0  0  0  0  0  0  0  0  0  0
  -11.5730   95.9765  -60.4933 C   0  0  0  0  0  0  0  0  0  0  0  0
  -12.4501   97.0320  -60.5983 C   0  0  0  0  0  0  0  0  0  0  0  0
  -12.5857   97.9499  -59.5858 C   0  0  0  0  0  0  0  0  0  0  0  0
  -11.8186   97.8075  -58.4299 C   0  0  0  0  0  0  0  0  0  0  0  0
  -12.3042   96.5475  -54.8573 C   0  0  0  0  0  0  0  0  0  0  0  0
  -13.2408   96.4968  -53.8350 C   0  0  0  0  0  0  0  0  0  0  0  0
  -13.3777   95.3592  -53.0829 C   0  0  0  0  0  0  0  0  0  0  0  0
  -11.5311   92.2340  -53.3760 N   0  0  0  0  0  0  0  0  0  0  0  0
  -10.5437   95.5139  -56.2172 N   0  0  0  0  0  0  0  0  0  0  0  0
  -10.0494   92.7052  -55.2007 O   0  0  0  0  0  0  0  0  0  0  0  0
  -11.4507   95.0473  -61.5438 O   0  0  0  0  0  0  0  0  0  0  0  0
  -13.2201   92.5624  -51.7580 O   0  0  0  0  0  0  0  0  0  0  0  0
  4  1  1  0
  1 16  1  0
  1 18  2  0
  3  2  1  0
  2 16  1  0
  2 20  2  0
  4  3  2  0
  3 15  1  0
  5  4  1  0
  5 13  2  0
 17  5  1  0
  6  7  1  0
  6 17  1  0
  7  8  2  0
  7 12  1  0
  8  9  1  0
  9 10  2  0
  9 19  1  0
 10 11  1  0
 11 12  2  0
 13 14  1  0
 14 15  2  0
M  END
$$$$
