
     RDKit          3D

 20 22  0  0  0  0  0  0  0  0999 V2000
    2.7556   91.8027  -50.6541 C   0  0  0  0  0  0  0  0  0  0  0  0
    4.3251   92.2388  -52.3121 C   0  0  0  0  0  0  0  0  0  0  0  0
    3.4021   93.3670  -52.1850 C   0  0  0  0  0  0  0  0  0  0  0  0
    2.4648   93.1147  -51.1997 C   0  0  0  0  0  0  0  0  0  0  0  0
    1.4731   94.0506  -50.8950 C   0  0  0  0  0  0  0  0  0  0  0  0
   -0.5771   94.5346  -49.4371 C   0  0  0  0  0  0  0  0  0  0  0  0
   -1.8546   94.2597  -50.1420 C   0  0  0  0  0  0  0  0  0  0  0  0
   -2.4839   95.2801  -50.8605 C   0  0  0  0  0  0  0  0  0  0  0  0
   -3.6451   95.0860  -51.5590 C   0  0  0  0  0  0  0  0  0  0  0  0
   -4.2045   93.8286  -51.5439 C   0  0  0  0  0  0  0  0  0  0  0  0
   -3.6203   92.7963  -50.8516 C   0  0  0  0  0  0  0  0  0  0  0  0
   -2.4372   93.0295  -50.1510 C   0  0  0  0  0  0  0  0  0  0  0  0
    1.4926   95.2187  -51.6276 C   0  0  0  0  0  0  0  0  0  0  0  0
    2.4325   95.4715  -52.6161 C   0  0  0  0  0  0  0  0  0  0  0  0
    3.3980   94.5415  -52.9017 C   0  0  0  0  0  0  0  0  0  0  0  0
    3.9082   91.2831  -51.3574 N   0  0  0  0  0  0  0  0  0  0  0  0
    0.5447   93.7905  -49.8728 N   0  0  0  0  0  0  0  0  0  0  0  0
    2.1348   91.2173  -49.7457 O   0  0  0  0  0  0  0  0  0  0  0  0
   -4.2613   96.1292  -52.2760 O   0  0  0  0  0  0  0  0  0  0  0  0
    5.2956   92.0986  -53.0863 O   0  0  0  0  0  0  0  0  0  0  0  0
  4  1  1  0
  1 16  1  0
  1 18  2  0
  3  2  1  0
  2 16  1  0
  2 20  2  0
  4  3  2  0
  3 15  1  0
  5  4  1  0
  5 13  2  0
 17  5  1  0
  6  7  1  0
  6 17  1  0
  7  8  2  0
  7 12  1  0
  8  9  1  0
  9 10  2  0
  9 19  1  0
 10 11  1  0
 11 12  2  0
 13 14  1  0
 14 15  2  0
M  END
$$$$
