
     RDKit          3D

 26 28  0  0  0  0  0  0  0  0999 V2000
   21.4481   39.9643   -7.5106 C   0  0  0  0  0  0  0  0  0  0  0  0
   21.2771   39.0796   -8.5228 C   0  0  0  0  0  0  0  0  0  0  0  0
   20.0001   38.5745   -8.7924 C   0  0  0  0  0  0  0  0  0  0  0  0
   18.9192   38.9638   -8.0452 C   0  0  0  0  0  0  0  0  0  0  0  0
   19.1182   39.8734   -7.0101 C   0  0  0  0  0  0  0  0  0  0  0  0
   17.5965   38.4186   -8.3683 C   0  0  2  0  0  0  0  0  0  0  0  0
   17.7071   36.9270   -8.5323 C   0  0  0  0  0  0  0  0  0  0  0  0
   14.4811   39.4926   -6.7136 N   0  0  0  0  0  0  0  0  0  0  0  0
   20.5953   41.3042   -5.6862 N   0  0  0  0  0  0  0  0  0  0  0  0
   15.6130   39.6322   -7.3523 C   0  0  0  0  0  0  0  0  0  0  0  0
   20.4871   41.7200   -2.6656 N   0  0  0  0  0  0  0  0  0  0  0  0
   17.1889   40.5650   -9.5474 C   0  0  0  0  0  0  0  0  0  0  0  0
   17.1020   39.0585   -9.6470 C   0  0  0  0  0  0  0  0  0  0  0  0
   21.6489   41.1853   -4.7764 C   0  0  0  0  0  0  0  0  0  0  0  0
   21.5476   41.9012   -3.4729 C   0  0  0  0  0  0  0  0  0  0  0  0
   20.3610   42.3490   -1.4814 C   0  0  0  0  0  0  0  0  0  0  0  0
   21.3418   43.2298   -1.0350 C   0  0  0  0  0  0  0  0  0  0  0  0
   22.4482   43.4376   -1.8460 C   0  0  0  0  0  0  0  0  0  0  0  0
   19.9377   37.6902   -9.8150 F   0  0  0  0  0  0  0  0  0  0  0  0
   15.9368   41.0835   -8.3451 S   0  0  0  0  0  0  0  0  0  0  0  0
   16.6328   38.6540   -7.2930 N   0  0  0  0  0  0  0  0  0  0  0  0
   20.3557   40.3815   -6.7264 C   0  0  0  0  0  0  0  0  0  0  0  0
   22.6912   40.5228   -4.9520 O   0  0  0  0  0  0  0  0  0  0  0  0
   22.5274   42.7678   -3.0493 C   0  0  0  0  0  0  0  0  0  0  0  0
   21.1636   44.0405    0.5075 Cl  0  0  0  0  0  0  0  0  0  0  0  0
   14.2390   40.1033   -5.9044 H   0  0  0  0  0  0  0  0  0  0  0  0
  1  2  2  0
 22  1  1  0
  2  3  1  0
  4  3  2  0
  3 19  1  0
  5  4  1  0
  4  6  1  0
 22  5  2  0
  6  7  1  6
  6 13  1  0
  6 21  1  0
 10  8  2  0
 14  9  1  0
  9 22  1  0
 10 20  1  0
 21 10  1  0
 15 11  2  0
 11 16  1  0
 13 12  1  0
 12 20  1  0
 14 15  1  0
 14 23  2  0
 15 24  1  0
 16 17  2  0
 17 18  1  0
 17 25  1  0
 18 24  2  0
  8 26  1  0
M  END
$$$$
