
     RDKit          3D

 26 28  0  0  0  0  0  0  0  0999 V2000
   21.4029   39.2744   -7.5677 C   0  0  0  0  0  0  0  0  0  0  0  0
   21.0964   38.9028   -8.8344 C   0  0  0  0  0  0  0  0  0  0  0  0
   19.7626   38.6586   -9.1806 C   0  0  0  0  0  0  0  0  0  0  0  0
   18.7615   38.7910   -8.2542 C   0  0  0  0  0  0  0  0  0  0  0  0
   19.0994   39.1736   -6.9588 C   0  0  0  0  0  0  0  0  0  0  0  0
   17.3758   38.5362   -8.6616 C   0  0  2  0  0  0  0  0  0  0  0  0
   17.2575   37.1134   -9.1366 C   0  0  0  0  0  0  0  0  0  0  0  0
   14.4377   39.7059   -6.7652 N   0  0  0  0  0  0  0  0  0  0  0  0
   20.7748   39.8069   -5.2934 N   0  0  0  0  0  0  0  0  0  0  0  0
   15.5875   39.8004   -7.3797 C   0  0  0  0  0  0  0  0  0  0  0  0
   20.5171   41.3438   -2.9052 N   0  0  0  0  0  0  0  0  0  0  0  0
   17.3226   40.9188   -9.3572 C   0  0  0  0  0  0  0  0  0  0  0  0
   17.0060   39.4984   -9.7690 C   0  0  0  0  0  0  0  0  0  0  0  0
   21.6716   40.8450   -5.0288 C   0  0  0  0  0  0  0  0  0  0  0  0
   21.5393   41.5895   -3.7443 C   0  0  0  0  0  0  0  0  0  0  0  0
   20.3649   41.9960   -1.7368 C   0  0  0  0  0  0  0  0  0  0  0  0
   21.2765   42.9703   -1.3411 C   0  0  0  0  0  0  0  0  0  0  0  0
   22.3420   43.2463   -2.1857 C   0  0  0  0  0  0  0  0  0  0  0  0
   19.5636   38.2827  -10.4654 F   0  0  0  0  0  0  0  0  0  0  0  0
   16.1468   41.3601   -8.0516 S   0  0  0  0  0  0  0  0  0  0  0  0
   16.4431   38.6863   -7.5445 N   0  0  0  0  0  0  0  0  0  0  0  0
   20.3949   39.4178   -6.5953 C   0  0  0  0  0  0  0  0  0  0  0  0
   22.5945   41.2191   -5.7801 O   0  0  0  0  0  0  0  0  0  0  0  0
   22.4507   42.5489   -3.3709 C   0  0  0  0  0  0  0  0  0  0  0  0
   21.0650   43.8100    0.1815 Cl  0  0  0  0  0  0  0  0  0  0  0  0
   14.3432   39.9505   -5.7563 H   0  0  0  0  0  0  0  0  0  0  0  0
  1  2  2  0
 22  1  1  0
  2  3  1  0
  4  3  2  0
  3 19  1  0
  5  4  1  0
  4  6  1  0
 22  5  2  0
  6  7  1  6
  6 13  1  0
  6 21  1  0
 10  8  2  0
 14  9  1  0
  9 22  1  0
 10 20  1  0
 21 10  1  0
 15 11  2  0
 11 16  1  0
 13 12  1  0
 12 20  1  0
 14 15  1  0
 14 23  2  0
 15 24  1  0
 16 17  2  0
 17 18  1  0
 17 25  1  0
 18 24  2  0
  8 26  1  0
M  END
$$$$
