
     RDKit          3D

 26 28  0  0  0  0  0  0  0  0999 V2000
   21.5482   38.4450   -7.6704 C   0  0  0  0  0  0  0  0  0  0  0  0
   20.9028   37.4916   -8.4042 C   0  0  0  0  0  0  0  0  0  0  0  0
   19.5329   37.5730   -8.6439 C   0  0  0  0  0  0  0  0  0  0  0  0
   18.8026   38.6175   -8.1453 C   0  0  0  0  0  0  0  0  0  0  0  0
   19.4650   39.5776   -7.4037 C   0  0  0  0  0  0  0  0  0  0  0  0
   17.3674   38.6885   -8.4100 C   0  0  2  0  0  0  0  0  0  0  0  0
   16.9928   37.5077   -9.3014 C   0  0  0  0  0  0  0  0  0  0  0  0
   15.0775   39.9443   -5.8889 N   0  0  0  0  0  0  0  0  0  0  0  0
   21.4730   40.5323   -6.3798 N   0  0  0  0  0  0  0  0  0  0  0  0
   15.4447   39.5553   -7.0596 C   0  0  0  0  0  0  0  0  0  0  0  0
   22.8265   42.4484   -4.6311 N   0  0  0  0  0  0  0  0  0  0  0  0
   15.7714   39.9895   -9.8714 C   0  0  0  0  0  0  0  0  0  0  0  0
   17.1191   40.0123   -9.1431 C   0  0  0  0  0  0  0  0  0  0  0  0
   21.1785   40.6707   -5.0128 C   0  0  0  0  0  0  0  0  0  0  0  0
   21.7916   41.7177   -4.1809 C   0  0  0  0  0  0  0  0  0  0  0  0
   23.3934   43.4081   -3.8772 C   0  0  0  0  0  0  0  0  0  0  0  0
   22.9281   43.6836   -2.5941 C   0  0  0  0  0  0  0  0  0  0  0  0
   21.8673   42.9474   -2.1096 C   0  0  0  0  0  0  0  0  0  0  0  0
   19.0092   36.5576   -9.3880 F   0  0  0  0  0  0  0  0  0  0  0  0
   14.5275   40.0987   -8.5203 S   0  0  0  0  0  0  0  0  0  0  0  0
   16.5718   38.6982   -7.2022 N   0  0  0  0  0  0  0  0  0  0  0  0
   20.8288   39.5042   -7.1601 C   0  0  0  0  0  0  0  0  0  0  0  0
   20.3706   39.8789   -4.4898 O   0  0  0  0  0  0  0  0  0  0  0  0
   21.3115   41.9701   -2.9141 C   0  0  0  0  0  0  0  0  0  0  0  0
   23.6972   44.9418   -1.6493 Cl  0  0  0  0  0  0  0  0  0  0  0  0
   15.3281   39.4568   -5.0161 H   0  0  0  0  0  0  0  0  0  0  0  0
  1  2  2  0
 22  1  1  0
  2  3  1  0
  4  3  2  0
  3 19  1  0
  5  4  1  0
  6  4  1  1
 22  5  2  0
  7  6  1  6
  6 13  1  0
  6 21  1  0
 10  8  2  0
 14  9  1  0
  9 22  1  0
 10 20  1  0
 21 10  1  0
 15 11  2  0
 11 16  1  0
 13 12  1  6
 12 20  1  6
 14 15  1  0
 14 23  2  0
 15 24  1  0
 16 17  2  0
 17 18  1  0
 17 25  1  0
 18 24  2  0
  8 26  1  0
M  END
$$$$
