
     RDKit          3D

 26 28  0  0  0  0  0  0  0  0999 V2000
   21.7026   39.2971   -7.2274 C   0  0  0  0  0  0  0  0  0  0  0  0
   21.3481   38.9002   -8.4738 C   0  0  0  0  0  0  0  0  0  0  0  0
   20.0016   38.6542   -8.7652 C   0  0  0  0  0  0  0  0  0  0  0  0
   19.0360   38.8100   -7.8053 C   0  0  0  0  0  0  0  0  0  0  0  0
   19.4229   39.2184   -6.5317 C   0  0  0  0  0  0  0  0  0  0  0  0
   17.6353   38.5524   -8.1558 C   0  0  2  0  0  0  0  0  0  0  0  0
   17.4985   37.1259   -8.6146 C   0  0  0  0  0  0  0  0  0  0  0  0
   14.7742   39.7375   -6.1541 N   0  0  0  0  0  0  0  0  0  0  0  0
   21.1609   39.8798   -4.9431 N   0  0  0  0  0  0  0  0  0  0  0  0
   15.8988   39.8269   -6.8142 C   0  0  0  0  0  0  0  0  0  0  0  0
   20.8738   41.5014   -2.6152 N   0  0  0  0  0  0  0  0  0  0  0  0
   17.5545   40.9295   -8.8673 C   0  0  0  0  0  0  0  0  0  0  0  0
   17.2220   39.5060   -9.2552 C   0  0  0  0  0  0  0  0  0  0  0  0
   22.0233   40.9582   -4.7306 C   0  0  0  0  0  0  0  0  0  0  0  0
   21.8776   41.7492   -3.4757 C   0  0  0  0  0  0  0  0  0  0  0  0
   20.7103   42.1948   -1.4723 C   0  0  0  0  0  0  0  0  0  0  0  0
   21.5901   43.2164   -1.1271 C   0  0  0  0  0  0  0  0  0  0  0  0
   22.6361   43.4958   -1.9949 C   0  0  0  0  0  0  0  0  0  0  0  0
   19.7539   38.2523  -10.0335 F   0  0  0  0  0  0  0  0  0  0  0  0
   16.4310   41.3812   -7.5198 S   0  0  0  0  0  0  0  0  0  0  0  0
   16.7474   38.7114   -7.0039 N   0  0  0  0  0  0  0  0  0  0  0  0
   20.7317   39.4649   -6.2217 C   0  0  0  0  0  0  0  0  0  0  0  0
   22.9250   41.3333   -5.5068 O   0  0  0  0  0  0  0  0  0  0  0  0
   22.7574   42.7550   -3.1522 C   0  0  0  0  0  0  0  0  0  0  0  0
   21.3644   44.1093    0.3628 Cl  0  0  0  0  0  0  0  0  0  0  0  0
   14.3856   40.5547   -5.6366 H   0  0  0  0  0  0  0  0  0  0  0  0
  1  2  2  0
 22  1  1  0
  2  3  1  0
  4  3  2  0
  3 19  1  0
  5  4  1  0
  4  6  1  0
 22  5  2  0
  6  7  1  6
  6 13  1  0
  6 21  1  0
 10  8  2  0
 14  9  1  0
  9 22  1  0
 10 20  1  0
 21 10  1  0
 15 11  2  0
 11 16  1  0
 13 12  1  0
 12 20  1  0
 14 15  1  0
 14 23  2  0
 15 24  1  0
 16 17  2  0
 17 18  1  0
 17 25  1  0
 18 24  2  0
  8 26  1  0
M  END
$$$$
