
     RDKit          3D

 26 28  0  0  0  0  0  0  0  0999 V2000
   22.0122   38.8950   -7.4985 C   0  0  0  0  0  0  0  0  0  0  0  0
   21.5029   37.9874   -8.3820 C   0  0  0  0  0  0  0  0  0  0  0  0
   20.1536   37.9994   -8.7285 C   0  0  0  0  0  0  0  0  0  0  0  0
   19.3068   38.9276   -8.1862 C   0  0  0  0  0  0  0  0  0  0  0  0
   19.8318   39.8423   -7.2928 C   0  0  0  0  0  0  0  0  0  0  0  0
   17.8954   38.9276   -8.5641 C   0  0  2  0  0  0  0  0  0  0  0  0
   17.6470   37.7185   -9.4617 C   0  0  0  0  0  0  0  0  0  0  0  0
   15.3577   40.1087   -6.2528 N   0  0  0  0  0  0  0  0  0  0  0  0
   21.6728   40.8137   -6.0047 N   0  0  0  0  0  0  0  0  0  0  0  0
   15.8340   39.7214   -7.3842 C   0  0  0  0  0  0  0  0  0  0  0  0
   21.1640   40.8294   -2.4767 N   0  0  0  0  0  0  0  0  0  0  0  0
   16.3625   40.1323  -10.1687 C   0  0  0  0  0  0  0  0  0  0  0  0
   17.6456   40.2281   -9.3372 C   0  0  0  0  0  0  0  0  0  0  0  0
   22.0744   40.4169   -4.7179 C   0  0  0  0  0  0  0  0  0  0  0  0
   21.8681   41.2672   -3.5352 C   0  0  0  0  0  0  0  0  0  0  0  0
   20.9703   41.6002   -1.3908 C   0  0  0  0  0  0  0  0  0  0  0  0
   21.4941   42.8883   -1.3203 C   0  0  0  0  0  0  0  0  0  0  0  0
   22.2202   43.3602   -2.3936 C   0  0  0  0  0  0  0  0  0  0  0  0
   19.7709   37.0400   -9.6184 F   0  0  0  0  0  0  0  0  0  0  0  0
   15.0116   40.2013   -8.9216 S   0  0  0  0  0  0  0  0  0  0  0  0
   17.0069   38.9164   -7.4229 N   0  0  0  0  0  0  0  0  0  0  0  0
   21.1742   39.8374   -6.9422 C   0  0  0  0  0  0  0  0  0  0  0  0
   22.6236   39.3072   -4.5761 O   0  0  0  0  0  0  0  0  0  0  0  0
   22.3976   42.5386   -3.4912 C   0  0  0  0  0  0  0  0  0  0  0  0
   21.2163   43.8550    0.1134 Cl  0  0  0  0  0  0  0  0  0  0  0  0
   14.6445   39.5886   -5.7209 H   0  0  0  0  0  0  0  0  0  0  0  0
  1  2  2  0
 22  1  1  0
  2  3  1  0
  4  3  2  0
  3 19  1  0
  5  4  1  0
  6  4  1  1
 22  5  2  0
  7  6  1  6
  6 13  1  0
  6 21  1  0
 10  8  2  0
 14  9  1  0
  9 22  1  0
 10 20  1  0
 21 10  1  0
 15 11  2  0
 11 16  1  0
 13 12  1  6
 12 20  1  6
 14 15  1  0
 14 23  2  0
 15 24  1  0
 16 17  2  0
 17 18  1  0
 17 25  1  0
 18 24  2  0
  8 26  1  0
M  END
$$$$
