
     RDKit          3D

 26 28  0  0  0  0  0  0  0  0999 V2000
   21.8865   38.7065   -7.6412 C   0  0  0  0  0  0  0  0  0  0  0  0
   21.4318   38.4099   -8.8939 C   0  0  0  0  0  0  0  0  0  0  0  0
   20.0870   38.5590   -9.2253 C   0  0  0  0  0  0  0  0  0  0  0  0
   19.1894   39.0088   -8.2953 C   0  0  0  0  0  0  0  0  0  0  0  0
   19.6594   39.3064   -7.0299 C   0  0  0  0  0  0  0  0  0  0  0  0
   17.7834   39.1628   -8.6618 C   0  0  2  0  0  0  0  0  0  0  0  0
   17.4147   38.0233   -9.6078 C   0  0  0  0  0  0  0  0  0  0  0  0
   15.3819   40.4856   -6.2827 N   0  0  0  0  0  0  0  0  0  0  0  0
   21.4370   39.4850   -5.3565 N   0  0  0  0  0  0  0  0  0  0  0  0
   15.8139   40.1026   -7.4331 C   0  0  0  0  0  0  0  0  0  0  0  0
   20.7454   41.2406   -3.1028 N   0  0  0  0  0  0  0  0  0  0  0  0
   16.3699   40.5790  -10.2018 C   0  0  0  0  0  0  0  0  0  0  0  0
   17.6593   40.5135   -9.3771 C   0  0  0  0  0  0  0  0  0  0  0  0
   22.0701   40.7130   -5.0999 C   0  0  0  0  0  0  0  0  0  0  0  0
   21.8243   41.4796   -3.8686 C   0  0  0  0  0  0  0  0  0  0  0  0
   20.5126   41.9367   -1.9750 C   0  0  0  0  0  0  0  0  0  0  0  0
   21.3847   42.9374   -1.5545 C   0  0  0  0  0  0  0  0  0  0  0  0
   22.4989   43.2014   -2.3232 C   0  0  0  0  0  0  0  0  0  0  0  0
   19.7613   38.2273  -10.5070 F   0  0  0  0  0  0  0  0  0  0  0  0
   15.0368   40.7260   -8.9424 S   0  0  0  0  0  0  0  0  0  0  0  0
   16.9023   39.1893   -7.5151 N   0  0  0  0  0  0  0  0  0  0  0  0
   20.9969   39.1608   -6.6914 C   0  0  0  0  0  0  0  0  0  0  0  0
   22.8661   41.1659   -5.9452 O   0  0  0  0  0  0  0  0  0  0  0  0
   22.7036   42.4649   -3.4751 C   0  0  0  0  0  0  0  0  0  0  0  0
   21.0410   43.8173   -0.0797 Cl  0  0  0  0  0  0  0  0  0  0  0  0
   14.3849   40.5145   -6.0234 H   0  0  0  0  0  0  0  0  0  0  0  0
  1  2  2  0
 22  1  1  0
  2  3  1  0
  4  3  2  0
  3 19  1  0
  5  4  1  0
  6  4  1  1
 22  5  2  0
  7  6  1  6
  6 13  1  0
  6 21  1  0
 10  8  2  0
 14  9  1  0
  9 22  1  0
 10 20  1  0
 21 10  1  0
 15 11  2  0
 11 16  1  0
 13 12  1  6
 12 20  1  6
 14 15  1  0
 14 23  2  0
 15 24  1  0
 16 17  2  0
 17 18  1  0
 17 25  1  0
 18 24  2  0
  8 26  1  0
M  END
$$$$
