
     RDKit          3D

 26 28  0  0  0  0  0  0  0  0999 V2000
   21.3218   39.4905   -7.1076 C   0  0  0  0  0  0  0  0  0  0  0  0
   21.0769   39.0540   -8.3670 C   0  0  0  0  0  0  0  0  0  0  0  0
   19.7665   38.7475   -8.7509 C   0  0  0  0  0  0  0  0  0  0  0  0
   18.7267   38.8837   -7.8687 C   0  0  0  0  0  0  0  0  0  0  0  0
   19.0014   39.3334   -6.5800 C   0  0  0  0  0  0  0  0  0  0  0  0
   17.3671   38.5622   -8.3152 C   0  0  2  0  0  0  0  0  0  0  0  0
   17.3452   37.1550   -8.8474 C   0  0  0  0  0  0  0  0  0  0  0  0
   14.3275   39.4755   -6.4380 N   0  0  0  0  0  0  0  0  0  0  0  0
   20.5891   40.0974   -4.8837 N   0  0  0  0  0  0  0  0  0  0  0  0
   15.4808   39.6638   -7.0237 C   0  0  0  0  0  0  0  0  0  0  0  0
   22.4511   42.7648   -3.1011 N   0  0  0  0  0  0  0  0  0  0  0  0
   17.1815   40.9631   -8.9188 C   0  0  0  0  0  0  0  0  0  0  0  0
   16.9602   39.5438   -9.3920 C   0  0  0  0  0  0  0  0  0  0  0  0
   21.6200   41.0010   -4.6143 C   0  0  0  0  0  0  0  0  0  0  0  0
   21.5757   41.7715   -3.3392 C   0  0  0  0  0  0  0  0  0  0  0  0
   22.4416   43.4824   -1.9615 C   0  0  0  0  0  0  0  0  0  0  0  0
   21.5077   43.2212   -0.9632 C   0  0  0  0  0  0  0  0  0  0  0  0
   20.5912   42.2023   -1.1796 C   0  0  0  0  0  0  0  0  0  0  0  0
   19.6298   38.3100  -10.0243 F   0  0  0  0  0  0  0  0  0  0  0  0
   15.9563   41.2800   -7.6225 S   0  0  0  0  0  0  0  0  0  0  0  0
   16.4060   38.6109   -7.2132 N   0  0  0  0  0  0  0  0  0  0  0  0
   20.2729   39.6393   -6.1803 C   0  0  0  0  0  0  0  0  0  0  0  0
   22.5976   41.2319   -5.3541 O   0  0  0  0  0  0  0  0  0  0  0  0
   20.6450   41.4984   -2.3647 C   0  0  0  0  0  0  0  0  0  0  0  0
   21.5080   44.1632    0.5135 Cl  0  0  0  0  0  0  0  0  0  0  0  0
   14.1388   39.8515   -5.4842 H   0  0  0  0  0  0  0  0  0  0  0  0
  1  2  2  0
 22  1  1  0
  2  3  1  0
  4  3  2  0
  3 19  1  0
  5  4  1  0
  4  6  1  0
 22  5  2  0
  6  7  1  6
  6 13  1  0
  6 21  1  0
 10  8  2  0
 14  9  1  0
  9 22  1  0
 10 20  1  0
 21 10  1  0
 15 11  2  0
 11 16  1  0
 13 12  1  0
 12 20  1  0
 14 15  1  0
 14 23  2  0
 15 24  1  0
 16 17  2  0
 17 18  1  0
 17 25  1  0
 18 24  2  0
  8 26  1  0
M  END
$$$$
