
     RDKit          3D

 26 28  0  0  0  0  0  0  0  0999 V2000
   21.5533   39.4200   -7.0170 C   0  0  0  0  0  0  0  0  0  0  0  0
   21.2619   38.4552   -7.9380 C   0  0  0  0  0  0  0  0  0  0  0  0
   19.9620   38.2762   -8.4059 C   0  0  0  0  0  0  0  0  0  0  0  0
   18.9450   39.0695   -7.9483 C   0  0  0  0  0  0  0  0  0  0  0  0
   19.2500   40.0433   -7.0161 C   0  0  0  0  0  0  0  0  0  0  0  0
   17.5885   38.8699   -8.4531 C   0  0  2  0  0  0  0  0  0  0  0  0
   17.5576   37.5470   -9.2136 C   0  0  0  0  0  0  0  0  0  0  0  0
   14.7161   40.0153   -6.5519 N   0  0  0  0  0  0  0  0  0  0  0  0
   20.8078   41.2591   -5.5714 N   0  0  0  0  0  0  0  0  0  0  0  0
   15.3454   39.5580   -7.5775 C   0  0  0  0  0  0  0  0  0  0  0  0
   20.7713   41.5718   -2.5066 N   0  0  0  0  0  0  0  0  0  0  0  0
   16.1218   39.7076  -10.3300 C   0  0  0  0  0  0  0  0  0  0  0  0
   17.2940   40.0388   -9.4009 C   0  0  0  0  0  0  0  0  0  0  0  0
   21.8630   41.1105   -4.6553 C   0  0  0  0  0  0  0  0  0  0  0  0
   21.8325   41.7230   -3.3181 C   0  0  0  0  0  0  0  0  0  0  0  0
   20.7347   42.1284   -1.2820 C   0  0  0  0  0  0  0  0  0  0  0  0
   21.8002   42.8870   -0.8045 C   0  0  0  0  0  0  0  0  0  0  0  0
   22.9005   43.0566   -1.6185 C   0  0  0  0  0  0  0  0  0  0  0  0
   19.8033   37.2784   -9.3213 F   0  0  0  0  0  0  0  0  0  0  0  0
   14.6465   39.7667   -9.2323 S   0  0  0  0  0  0  0  0  0  0  0  0
   16.5899   38.8891   -7.4070 N   0  0  0  0  0  0  0  0  0  0  0  0
   20.5417   40.2283   -6.5447 C   0  0  0  0  0  0  0  0  0  0  0  0
   22.8570   40.4368   -4.9890 O   0  0  0  0  0  0  0  0  0  0  0  0
   22.9008   42.4692   -2.8699 C   0  0  0  0  0  0  0  0  0  0  0  0
   21.7080   43.5922    0.7959 Cl  0  0  0  0  0  0  0  0  0  0  0  0
   13.9430   39.5201   -6.0839 H   0  0  0  0  0  0  0  0  0  0  0  0
  1  2  2  0
 22  1  1  0
  2  3  1  0
  4  3  2  0
  3 19  1  0
  5  4  1  0
  6  4  1  1
 22  5  2  0
  7  6  1  6
  6 13  1  0
  6 21  1  0
 10  8  2  0
 14  9  1  0
  9 22  1  0
 10 20  1  0
 21 10  1  0
 15 11  2  0
 11 16  1  0
 13 12  1  6
 12 20  1  6
 14 15  1  0
 14 23  2  0
 15 24  1  0
 16 17  2  0
 17 18  1  0
 17 25  1  0
 18 24  2  0
  8 26  1  0
M  END
$$$$
