
     RDKit          3D

 26 28  0  0  0  0  0  0  0  0999 V2000
   21.2878   39.9358   -7.4673 C   0  0  0  0  0  0  0  0  0  0  0  0
   21.0616   39.1244   -8.5289 C   0  0  0  0  0  0  0  0  0  0  0  0
   19.7730   38.6299   -8.7601 C   0  0  0  0  0  0  0  0  0  0  0  0
   18.7359   38.9564   -7.9259 C   0  0  0  0  0  0  0  0  0  0  0  0
   18.9912   39.7913   -6.8413 C   0  0  0  0  0  0  0  0  0  0  0  0
   17.3986   38.4255   -8.2105 C   0  0  2  0  0  0  0  0  0  0  0  0
   17.4914   36.9351   -8.3956 C   0  0  0  0  0  0  0  0  0  0  0  0
   14.3495   39.5038   -6.4394 N   0  0  0  0  0  0  0  0  0  0  0  0
   20.5375   41.1353   -5.5054 N   0  0  0  0  0  0  0  0  0  0  0  0
   15.4604   39.6423   -7.1141 C   0  0  0  0  0  0  0  0  0  0  0  0
   22.6863   42.3827   -2.9336 N   0  0  0  0  0  0  0  0  0  0  0  0
   16.9692   40.5889   -9.3500 C   0  0  0  0  0  0  0  0  0  0  0  0
   16.8667   39.0844   -9.4642 C   0  0  0  0  0  0  0  0  0  0  0  0
   21.6700   40.9907   -4.7001 C   0  0  0  0  0  0  0  0  0  0  0  0
   21.6636   41.6119   -3.3452 C   0  0  0  0  0  0  0  0  0  0  0  0
   22.7156   42.9602   -1.7173 C   0  0  0  0  0  0  0  0  0  0  0  0
   21.6686   42.7802   -0.8181 C   0  0  0  0  0  0  0  0  0  0  0  0
   20.5991   41.9900   -1.2140 C   0  0  0  0  0  0  0  0  0  0  0  0
   19.6546   37.8204   -9.8382 F   0  0  0  0  0  0  0  0  0  0  0  0
   15.7625   41.1028   -8.1003 S   0  0  0  0  0  0  0  0  0  0  0  0
   16.4735   38.6555   -7.1007 N   0  0  0  0  0  0  0  0  0  0  0  0
   20.2413   40.2874   -6.5936 C   0  0  0  0  0  0  0  0  0  0  0  0
   22.7110   40.3779   -5.0112 O   0  0  0  0  0  0  0  0  0  0  0  0
   20.6197   41.4221   -2.4709 C   0  0  0  0  0  0  0  0  0  0  0  0
   21.7211   43.5379    0.7602 Cl  0  0  0  0  0  0  0  0  0  0  0  0
   14.3470   39.5077   -5.3970 H   0  0  0  0  0  0  0  0  0  0  0  0
  1  2  2  0
 22  1  1  0
  2  3  1  0
  4  3  2  0
  3 19  1  0
  5  4  1  0
  4  6  1  0
 22  5  2  0
  6  7  1  6
  6 13  1  0
  6 21  1  0
 10  8  2  0
 14  9  1  0
  9 22  1  0
 10 20  1  0
 21 10  1  0
 15 11  2  0
 11 16  1  0
 13 12  1  0
 12 20  1  0
 14 15  1  0
 14 23  2  0
 15 24  1  0
 16 17  2  0
 17 18  1  0
 17 25  1  0
 18 24  2  0
  8 26  1  0
M  END
$$$$
