
     RDKit          3D

 26 28  0  0  0  0  0  0  0  0999 V2000
   21.2370   39.1798   -7.3811 C   0  0  0  0  0  0  0  0  0  0  0  0
   20.9651   38.7489   -8.6369 C   0  0  0  0  0  0  0  0  0  0  0  0
   19.6358   38.5586   -9.0308 C   0  0  0  0  0  0  0  0  0  0  0  0
   18.6045   38.8031   -8.1621 C   0  0  0  0  0  0  0  0  0  0  0  0
   18.9071   39.2450   -6.8769 C   0  0  0  0  0  0  0  0  0  0  0  0
   17.2254   38.6014   -8.6189 C   0  0  2  0  0  0  0  0  0  0  0  0
   17.1050   37.2298   -9.2257 C   0  0  0  0  0  0  0  0  0  0  0  0
   14.2585   39.6217   -6.6815 N   0  0  0  0  0  0  0  0  0  0  0  0
   20.5420   39.8849   -5.1742 N   0  0  0  0  0  0  0  0  0  0  0  0
   15.4216   39.7605   -7.2616 C   0  0  0  0  0  0  0  0  0  0  0  0
   21.5984   40.9274   -2.4577 N   0  0  0  0  0  0  0  0  0  0  0  0
   17.2071   41.0385   -9.0921 C   0  0  0  0  0  0  0  0  0  0  0  0
   16.8871   39.6656   -9.6397 C   0  0  0  0  0  0  0  0  0  0  0  0
   21.5527   40.8162   -4.9228 C   0  0  0  0  0  0  0  0  0  0  0  0
   21.5221   41.5697   -3.6371 C   0  0  0  0  0  0  0  0  0  0  0  0
   21.5739   41.5742   -1.2766 C   0  0  0  0  0  0  0  0  0  0  0  0
   21.4665   42.9609   -1.2261 C   0  0  0  0  0  0  0  0  0  0  0  0
   21.3860   43.6518   -2.4266 C   0  0  0  0  0  0  0  0  0  0  0  0
   19.4717   38.1164  -10.2993 F   0  0  0  0  0  0  0  0  0  0  0  0
   16.0081   41.3696   -7.7750 S   0  0  0  0  0  0  0  0  0  0  0  0
   16.2710   38.6575   -7.5115 N   0  0  0  0  0  0  0  0  0  0  0  0
   20.1974   39.4385   -6.4676 C   0  0  0  0  0  0  0  0  0  0  0  0
   22.5010   41.0855   -5.6871 O   0  0  0  0  0  0  0  0  0  0  0  0
   21.4156   42.9402   -3.6080 C   0  0  0  0  0  0  0  0  0  0  0  0
   21.4360   43.7878    0.3177 Cl  0  0  0  0  0  0  0  0  0  0  0  0
   13.8779   40.3601   -6.0518 H   0  0  0  0  0  0  0  0  0  0  0  0
  1  2  2  0
 22  1  1  0
  2  3  1  0
  4  3  2  0
  3 19  1  0
  5  4  1  0
  4  6  1  0
 22  5  2  0
  6  7  1  6
  6 13  1  0
  6 21  1  0
 10  8  2  0
 14  9  1  0
  9 22  1  0
 10 20  1  0
 21 10  1  0
 15 11  2  0
 11 16  1  0
 13 12  1  0
 12 20  1  0
 14 15  1  0
 14 23  2  0
 15 24  1  0
 16 17  2  0
 17 18  1  0
 17 25  1  0
 18 24  2  0
  8 26  1  0
M  END
$$$$
