
     RDKit          3D

 26 28  0  0  0  0  0  0  0  0999 V2000
   21.7426   38.8376   -7.4768 C   0  0  0  0  0  0  0  0  0  0  0  0
   21.3284   38.5297   -8.7407 C   0  0  0  0  0  0  0  0  0  0  0  0
   19.9815   38.5900   -9.0912 C   0  0  0  0  0  0  0  0  0  0  0  0
   19.0410   38.9615   -8.1691 C   0  0  0  0  0  0  0  0  0  0  0  0
   19.4702   39.2712   -6.8922 C   0  0  0  0  0  0  0  0  0  0  0  0
   17.6333   39.0228   -8.5556 C   0  0  2  0  0  0  0  0  0  0  0  0
   17.3488   37.8502   -9.4901 C   0  0  0  0  0  0  0  0  0  0  0  0
   15.1222   40.2249   -6.2260 N   0  0  0  0  0  0  0  0  0  0  0  0
   21.2060   39.5469   -5.1884 N   0  0  0  0  0  0  0  0  0  0  0  0
   15.5928   39.8544   -7.3654 C   0  0  0  0  0  0  0  0  0  0  0  0
   20.9468   41.2688   -2.8474 N   0  0  0  0  0  0  0  0  0  0  0  0
   16.1556   40.3279  -10.1331 C   0  0  0  0  0  0  0  0  0  0  0  0
   17.4353   40.3536   -9.2912 C   0  0  0  0  0  0  0  0  0  0  0  0
   22.0466   40.6478   -4.9513 C   0  0  0  0  0  0  0  0  0  0  0  0
   21.9203   41.4860   -3.7489 C   0  0  0  0  0  0  0  0  0  0  0  0
   20.8237   42.0304   -1.7448 C   0  0  0  0  0  0  0  0  0  0  0  0
   21.7045   43.0790   -1.4928 C   0  0  0  0  0  0  0  0  0  0  0  0
   22.7118   43.3218   -2.4030 C   0  0  0  0  0  0  0  0  0  0  0  0
   19.6988   38.2564  -10.3826 F   0  0  0  0  0  0  0  0  0  0  0  0
   14.7990   40.4082   -8.8930 S   0  0  0  0  0  0  0  0  0  0  0  0
   16.7367   39.0096   -7.4207 N   0  0  0  0  0  0  0  0  0  0  0  0
   20.8095   39.2138   -6.5347 C   0  0  0  0  0  0  0  0  0  0  0  0
   22.9278   40.9214   -5.7890 O   0  0  0  0  0  0  0  0  0  0  0  0
   22.8056   42.5176   -3.5236 C   0  0  0  0  0  0  0  0  0  0  0  0
   21.5055   44.0434   -0.0446 Cl  0  0  0  0  0  0  0  0  0  0  0  0
   14.1419   40.0907   -5.9376 H   0  0  0  0  0  0  0  0  0  0  0  0
  1  2  2  0
 22  1  1  0
  2  3  1  0
  4  3  2  0
  3 19  1  0
  5  4  1  0
  6  4  1  1
 22  5  2  0
  7  6  1  6
  6 13  1  0
  6 21  1  0
 10  8  2  0
 14  9  1  0
  9 22  1  0
 10 20  1  0
 21 10  1  0
 15 11  2  0
 11 16  1  0
 13 12  1  6
 12 20  1  6
 14 15  1  0
 14 23  2  0
 15 24  1  0
 16 17  2  0
 17 18  1  0
 17 25  1  0
 18 24  2  0
  8 26  1  0
M  END
$$$$
