
     RDKit          3D

 26 28  0  0  0  0  0  0  0  0999 V2000
   21.6080   39.4164   -7.3687 C   0  0  0  0  0  0  0  0  0  0  0  0
   21.1324   38.3963   -8.1413 C   0  0  0  0  0  0  0  0  0  0  0  0
   19.7684   38.2554   -8.3871 C   0  0  0  0  0  0  0  0  0  0  0  0
   18.8727   39.1430   -7.8553 C   0  0  0  0  0  0  0  0  0  0  0  0
   19.3640   40.1723   -7.0745 C   0  0  0  0  0  0  0  0  0  0  0  0
   17.4462   38.9818   -8.1268 C   0  0  2  0  0  0  0  0  0  0  0  0
   17.2527   37.6610   -8.8667 C   0  0  0  0  0  0  0  0  0  0  0  0
   14.9626   40.2052   -5.7789 N   0  0  0  0  0  0  0  0  0  0  0  0
   21.1825   41.4117   -6.0027 N   0  0  0  0  0  0  0  0  0  0  0  0
   15.3998   39.7314   -6.8931 C   0  0  0  0  0  0  0  0  0  0  0  0
   20.6054   41.7536   -3.0692 N   0  0  0  0  0  0  0  0  0  0  0  0
   15.7116   39.8619   -9.7369 C   0  0  0  0  0  0  0  0  0  0  0  0
   17.0307   40.1594   -9.0168 C   0  0  0  0  0  0  0  0  0  0  0  0
   22.0761   41.1711   -4.9452 C   0  0  0  0  0  0  0  0  0  0  0  0
   21.8438   41.6912   -3.5888 C   0  0  0  0  0  0  0  0  0  0  0  0
   20.3836   42.2279   -1.8295 C   0  0  0  0  0  0  0  0  0  0  0  0
   21.4336   42.6750   -1.0319 C   0  0  0  0  0  0  0  0  0  0  0  0
   22.7136   42.6211   -1.5426 C   0  0  0  0  0  0  0  0  0  0  0  0
   19.4231   37.1950   -9.1715 F   0  0  0  0  0  0  0  0  0  0  0  0
   14.4416   39.9611   -8.4095 S   0  0  0  0  0  0  0  0  0  0  0  0
   16.6363   39.0279   -6.9294 N   0  0  0  0  0  0  0  0  0  0  0  0
   20.7206   40.3200   -6.8246 C   0  0  0  0  0  0  0  0  0  0  0  0
   23.0990   40.4942   -5.1660 O   0  0  0  0  0  0  0  0  0  0  0  0
   22.9012   42.1274   -2.8203 C   0  0  0  0  0  0  0  0  0  0  0  0
   21.0971   43.2840    0.5753 Cl  0  0  0  0  0  0  0  0  0  0  0  0
   14.2755   39.7244   -5.1799 H   0  0  0  0  0  0  0  0  0  0  0  0
  1  2  2  0
 22  1  1  0
  2  3  1  0
  4  3  2  0
  3 19  1  0
  5  4  1  0
  6  4  1  1
 22  5  2  0
  7  6  1  6
  6 13  1  0
  6 21  1  0
 10  8  2  0
 14  9  1  0
  9 22  1  0
 10 20  1  0
 21 10  1  0
 15 11  2  0
 11 16  1  0
 13 12  1  6
 12 20  1  6
 14 15  1  0
 14 23  2  0
 15 24  1  0
 16 17  2  0
 17 18  1  0
 17 25  1  0
 18 24  2  0
  8 26  1  0
M  END
$$$$
