
     RDKit          3D

 26 28  0  0  0  0  0  0  0  0999 V2000
   21.7148   39.3118   -7.2551 C   0  0  0  0  0  0  0  0  0  0  0  0
   21.2866   38.2917   -8.0550 C   0  0  0  0  0  0  0  0  0  0  0  0
   19.9430   38.1635   -8.4003 C   0  0  0  0  0  0  0  0  0  0  0  0
   19.0203   39.0639   -7.9414 C   0  0  0  0  0  0  0  0  0  0  0  0
   19.4636   40.0931   -7.1323 C   0  0  0  0  0  0  0  0  0  0  0  0
   17.6160   38.9160   -8.3170 C   0  0  2  0  0  0  0  0  0  0  0  0
   17.4683   37.6055   -9.0850 C   0  0  0  0  0  0  0  0  0  0  0  0
   14.9772   40.1289   -6.1392 N   0  0  0  0  0  0  0  0  0  0  0  0
   21.2114   41.3203   -5.9359 N   0  0  0  0  0  0  0  0  0  0  0  0
   15.4906   39.6653   -7.2247 C   0  0  0  0  0  0  0  0  0  0  0  0
   20.6786   41.6905   -2.9681 N   0  0  0  0  0  0  0  0  0  0  0  0
   16.0075   39.8273  -10.0368 C   0  0  0  0  0  0  0  0  0  0  0  0
   17.2730   40.1070   -9.2200 C   0  0  0  0  0  0  0  0  0  0  0  0
   22.1038   41.0933   -4.8744 C   0  0  0  0  0  0  0  0  0  0  0  0
   21.8961   41.6725   -3.5381 C   0  0  0  0  0  0  0  0  0  0  0  0
   20.4794   42.2182   -1.7463 C   0  0  0  0  0  0  0  0  0  0  0  0
   21.5321   42.7693   -1.0205 C   0  0  0  0  0  0  0  0  0  0  0  0
   22.7908   42.7628   -1.5839 C   0  0  0  0  0  0  0  0  0  0  0  0
   19.6451   37.1017   -9.2020 F   0  0  0  0  0  0  0  0  0  0  0  0
   14.6457   39.9196   -8.8032 S   0  0  0  0  0  0  0  0  0  0  0  0
   16.7222   38.9536   -7.1805 N   0  0  0  0  0  0  0  0  0  0  0  0
   20.7996   40.2282   -6.7834 C   0  0  0  0  0  0  0  0  0  0  0  0
   23.1040   40.3770   -5.0739 O   0  0  0  0  0  0  0  0  0  0  0  0
   22.9555   42.2117   -2.8411 C   0  0  0  0  0  0  0  0  0  0  0  0
   21.2253   43.4447    0.5660 Cl  0  0  0  0  0  0  0  0  0  0  0  0
   14.2287   40.8369   -6.1138 H   0  0  0  0  0  0  0  0  0  0  0  0
  1  2  2  0
 22  1  1  0
  2  3  1  0
  4  3  2  0
  3 19  1  0
  5  4  1  0
  6  4  1  1
 22  5  2  0
  7  6  1  6
  6 13  1  0
  6 21  1  0
 10  8  2  0
 14  9  1  0
  9 22  1  0
 10 20  1  0
 21 10  1  0
 15 11  2  0
 11 16  1  0
 13 12  1  6
 12 20  1  6
 14 15  1  0
 14 23  2  0
 15 24  1  0
 16 17  2  0
 17 18  1  0
 17 25  1  0
 18 24  2  0
  8 26  1  0
M  END
$$$$
