
     RDKit          3D

 26 28  0  0  0  0  0  0  0  0999 V2000
   21.3167   39.0918   -7.3791 C   0  0  0  0  0  0  0  0  0  0  0  0
   20.9704   38.7483   -8.6434 C   0  0  0  0  0  0  0  0  0  0  0  0
   19.6215   38.5593   -8.9646 C   0  0  0  0  0  0  0  0  0  0  0  0
   18.6453   38.7177   -8.0159 C   0  0  0  0  0  0  0  0  0  0  0  0
   19.0240   39.0706   -6.7234 C   0  0  0  0  0  0  0  0  0  0  0  0
   17.2428   38.5210   -8.3973 C   0  0  2  0  0  0  0  0  0  0  0  0
   17.0738   37.1300   -8.9457 C   0  0  0  0  0  0  0  0  0  0  0  0
   14.3890   39.6581   -6.3577 N   0  0  0  0  0  0  0  0  0  0  0  0
   20.7560   39.6186   -5.0858 N   0  0  0  0  0  0  0  0  0  0  0  0
   15.5240   39.7572   -6.9984 C   0  0  0  0  0  0  0  0  0  0  0  0
   22.3026   42.4688   -3.2794 N   0  0  0  0  0  0  0  0  0  0  0  0
   17.2349   40.9389   -8.9602 C   0  0  0  0  0  0  0  0  0  0  0  0
   16.8694   39.5519   -9.4397 C   0  0  0  0  0  0  0  0  0  0  0  0
   21.6538   40.6565   -4.8241 C   0  0  0  0  0  0  0  0  0  0  0  0
   21.5198   41.4072   -3.5434 C   0  0  0  0  0  0  0  0  0  0  0  0
   22.2104   43.1711   -2.1340 C   0  0  0  0  0  0  0  0  0  0  0  0
   21.2834   42.8211   -1.1567 C   0  0  0  0  0  0  0  0  0  0  0  0
   20.4614   41.7301   -1.4000 C   0  0  0  0  0  0  0  0  0  0  0  0
   19.3820   38.2078  -10.2494 F   0  0  0  0  0  0  0  0  0  0  0  0
   16.1067   41.3370   -7.5998 S   0  0  0  0  0  0  0  0  0  0  0  0
   16.3448   38.6327   -7.2478 N   0  0  0  0  0  0  0  0  0  0  0  0
   20.3350   39.2609   -6.3842 C   0  0  0  0  0  0  0  0  0  0  0  0
   22.5790   41.0256   -5.5751 O   0  0  0  0  0  0  0  0  0  0  0  0
   20.5976   41.0457   -2.5899 C   0  0  0  0  0  0  0  0  0  0  0  0
   21.1753   43.7443    0.3279 Cl  0  0  0  0  0  0  0  0  0  0  0  0
   14.3606   39.5835   -5.3184 H   0  0  0  0  0  0  0  0  0  0  0  0
  1  2  2  0
 22  1  1  0
  2  3  1  0
  4  3  2  0
  3 19  1  0
  5  4  1  0
  4  6  1  0
 22  5  2  0
  6  7  1  6
  6 13  1  0
  6 21  1  0
 10  8  2  0
 14  9  1  0
  9 22  1  0
 10 20  1  0
 21 10  1  0
 15 11  2  0
 11 16  1  0
 13 12  1  0
 12 20  1  0
 14 15  1  0
 14 23  2  0
 15 24  1  0
 16 17  2  0
 17 18  1  0
 17 25  1  0
 18 24  2  0
  8 26  1  0
M  END
$$$$
