
     RDKit          3D

 26 28  0  0  0  0  0  0  0  0999 V2000
   21.4285   39.2516   -7.4920 C   0  0  0  0  0  0  0  0  0  0  0  0
   21.0654   38.9052   -8.7508 C   0  0  0  0  0  0  0  0  0  0  0  0
   19.7127   38.7107   -9.0523 C   0  0  0  0  0  0  0  0  0  0  0  0
   18.7496   38.8667   -8.0899 C   0  0  0  0  0  0  0  0  0  0  0  0
   19.1455   39.2228   -6.8034 C   0  0  0  0  0  0  0  0  0  0  0  0
   17.3425   38.6642   -8.4509 C   0  0  2  0  0  0  0  0  0  0  0  0
   17.1619   37.2568   -8.9514 C   0  0  0  0  0  0  0  0  0  0  0  0
   14.5142   39.8814   -6.4221 N   0  0  0  0  0  0  0  0  0  0  0  0
   20.8988   39.7794   -5.1916 N   0  0  0  0  0  0  0  0  0  0  0  0
   15.6433   39.9540   -7.0767 C   0  0  0  0  0  0  0  0  0  0  0  0
   20.5229   41.3449   -2.8314 N   0  0  0  0  0  0  0  0  0  0  0  0
   17.3398   41.0623   -9.0930 C   0  0  0  0  0  0  0  0  0  0  0  0
   16.9634   39.6621   -9.5229 C   0  0  0  0  0  0  0  0  0  0  0  0
   21.7250   40.8765   -4.9354 C   0  0  0  0  0  0  0  0  0  0  0  0
   21.5641   41.6019   -3.6433 C   0  0  0  0  0  0  0  0  0  0  0  0
   20.3446   41.9799   -1.6571 C   0  0  0  0  0  0  0  0  0  0  0  0
   21.2478   42.9472   -1.2264 C   0  0  0  0  0  0  0  0  0  0  0  0
   22.3326   43.2345   -2.0423 C   0  0  0  0  0  0  0  0  0  0  0  0
   19.4561   38.3566  -10.3331 F   0  0  0  0  0  0  0  0  0  0  0  0
   16.2269   41.5104   -7.7355 S   0  0  0  0  0  0  0  0  0  0  0  0
   16.4565   38.8180   -7.2969 N   0  0  0  0  0  0  0  0  0  0  0  0
   20.4605   39.4183   -6.4833 C   0  0  0  0  0  0  0  0  0  0  0  0
   22.6054   41.3192   -5.7002 O   0  0  0  0  0  0  0  0  0  0  0  0
   22.4675   42.5546   -3.2350 C   0  0  0  0  0  0  0  0  0  0  0  0
   21.0025   43.7644    0.3034 Cl  0  0  0  0  0  0  0  0  0  0  0  0
   14.1827   40.6716   -5.8285 H   0  0  0  0  0  0  0  0  0  0  0  0
  1  2  2  0
 22  1  1  0
  2  3  1  0
  4  3  2  0
  3 19  1  0
  5  4  1  0
  4  6  1  0
 22  5  2  0
  6  7  1  6
  6 13  1  0
  6 21  1  0
 10  8  2  0
 14  9  1  0
  9 22  1  0
 10 20  1  0
 21 10  1  0
 15 11  2  0
 11 16  1  0
 13 12  1  0
 12 20  1  0
 14 15  1  0
 14 23  2  0
 15 24  1  0
 16 17  2  0
 17 18  1  0
 17 25  1  0
 18 24  2  0
  8 26  1  0
M  END
$$$$
