
     RDKit          3D

 26 28  0  0  0  0  0  0  0  0999 V2000
   21.3952   39.2066   -7.2958 C   0  0  0  0  0  0  0  0  0  0  0  0
   21.1103   38.8541   -8.5729 C   0  0  0  0  0  0  0  0  0  0  0  0
   19.7857   38.5898   -8.9391 C   0  0  0  0  0  0  0  0  0  0  0  0
   18.7720   38.6834   -8.0217 C   0  0  0  0  0  0  0  0  0  0  0  0
   19.0877   39.0470   -6.7153 C   0  0  0  0  0  0  0  0  0  0  0  0
   17.3963   38.4088   -8.4499 C   0  0  2  0  0  0  0  0  0  0  0  0
   17.3084   36.9880   -8.9372 C   0  0  0  0  0  0  0  0  0  0  0  0
   14.4137   39.5145   -6.5848 N   0  0  0  0  0  0  0  0  0  0  0  0
   20.7313   39.6810   -5.0187 N   0  0  0  0  0  0  0  0  0  0  0  0
   15.5699   39.6329   -7.1829 C   0  0  0  0  0  0  0  0  0  0  0  0
   20.5435   41.3194   -2.6949 N   0  0  0  0  0  0  0  0  0  0  0  0
   17.3126   40.7955   -9.1280 C   0  0  0  0  0  0  0  0  0  0  0  0
   17.0254   39.3733   -9.5548 C   0  0  0  0  0  0  0  0  0  0  0  0
   21.7471   40.5936   -4.7236 C   0  0  0  0  0  0  0  0  0  0  0  0
   21.6169   41.4314   -3.4977 C   0  0  0  0  0  0  0  0  0  0  0  0
   20.3913   42.0590   -1.5797 C   0  0  0  0  0  0  0  0  0  0  0  0
   21.3572   42.9880   -1.2041 C   0  0  0  0  0  0  0  0  0  0  0  0
   22.4764   43.1266   -2.0123 C   0  0  0  0  0  0  0  0  0  0  0  0
   19.6086   38.2357  -10.2332 F   0  0  0  0  0  0  0  0  0  0  0  0
   16.1120   41.2069   -7.8352 S   0  0  0  0  0  0  0  0  0  0  0  0
   16.4463   38.5346   -7.3444 N   0  0  0  0  0  0  0  0  0  0  0  0
   20.3738   39.3102   -6.3323 C   0  0  0  0  0  0  0  0  0  0  0  0
   22.7773   40.7807   -5.4018 O   0  0  0  0  0  0  0  0  0  0  0  0
   22.5823   42.3441   -3.1434 C   0  0  0  0  0  0  0  0  0  0  0  0
   21.1451   43.9425    0.2491 Cl  0  0  0  0  0  0  0  0  0  0  0  0
   13.6601   38.9132   -6.9812 H   0  0  0  0  0  0  0  0  0  0  0  0
  1  2  2  0
 22  1  1  0
  2  3  1  0
  4  3  2  0
  3 19  1  0
  5  4  1  0
  4  6  1  0
 22  5  2  0
  6  7  1  6
  6 13  1  0
  6 21  1  0
 10  8  2  0
 14  9  1  0
  9 22  1  0
 10 20  1  0
 21 10  1  0
 15 11  2  0
 11 16  1  0
 13 12  1  0
 12 20  1  0
 14 15  1  0
 14 23  2  0
 15 24  1  0
 16 17  2  0
 17 18  1  0
 17 25  1  0
 18 24  2  0
  8 26  1  0
M  END
$$$$
