
     RDKit          3D

 26 28  0  0  0  0  0  0  0  0999 V2000
   21.6778   38.5967   -7.2156 C   0  0  0  0  0  0  0  0  0  0  0  0
   21.2664   38.2938   -8.4816 C   0  0  0  0  0  0  0  0  0  0  0  0
   19.9243   38.3866   -8.8436 C   0  0  0  0  0  0  0  0  0  0  0  0
   18.9860   38.7860   -7.9309 C   0  0  0  0  0  0  0  0  0  0  0  0
   19.4125   39.0905   -6.6519 C   0  0  0  0  0  0  0  0  0  0  0  0
   17.5835   38.8813   -8.3294 C   0  0  2  0  0  0  0  0  0  0  0  0
   17.2864   37.7324   -9.2891 C   0  0  0  0  0  0  0  0  0  0  0  0
   15.0728   40.0856   -6.0006 N   0  0  0  0  0  0  0  0  0  0  0  0
   21.1406   39.3297   -4.9348 N   0  0  0  0  0  0  0  0  0  0  0  0
   15.5474   39.7282   -7.1425 C   0  0  0  0  0  0  0  0  0  0  0  0
   20.6806   41.0331   -2.6063 N   0  0  0  0  0  0  0  0  0  0  0  0
   16.1460   40.2441   -9.8952 C   0  0  0  0  0  0  0  0  0  0  0  0
   17.4177   40.2295   -9.0410 C   0  0  0  0  0  0  0  0  0  0  0  0
   21.8793   40.4976   -4.6795 C   0  0  0  0  0  0  0  0  0  0  0  0
   21.6856   41.2967   -3.4596 C   0  0  0  0  0  0  0  0  0  0  0  0
   20.4959   41.7587   -1.4881 C   0  0  0  0  0  0  0  0  0  0  0  0
   21.3429   42.8168   -1.1692 C   0  0  0  0  0  0  0  0  0  0  0  0
   22.3815   43.1069   -2.0290 C   0  0  0  0  0  0  0  0  0  0  0  0
   19.6440   38.0546  -10.1359 F   0  0  0  0  0  0  0  0  0  0  0  0
   14.7791   40.3262   -8.6665 S   0  0  0  0  0  0  0  0  0  0  0  0
   16.6758   38.8632   -7.2035 N   0  0  0  0  0  0  0  0  0  0  0  0
   20.7469   39.0007   -6.2829 C   0  0  0  0  0  0  0  0  0  0  0  0
   22.7263   40.8668   -5.5158 O   0  0  0  0  0  0  0  0  0  0  0  0
   22.5386   42.3387   -3.1676 C   0  0  0  0  0  0  0  0  0  0  0  0
   21.0638   43.7332    0.2969 Cl  0  0  0  0  0  0  0  0  0  0  0  0
   14.9798   39.4523   -5.1930 H   0  0  0  0  0  0  0  0  0  0  0  0
  1  2  2  0
 22  1  1  0
  2  3  1  0
  4  3  2  0
  3 19  1  0
  5  4  1  0
  6  4  1  1
 22  5  2  0
  7  6  1  6
  6 13  1  0
  6 21  1  0
 10  8  2  0
 14  9  1  0
  9 22  1  0
 10 20  1  0
 21 10  1  0
 15 11  2  0
 11 16  1  0
 13 12  1  6
 12 20  1  6
 14 15  1  0
 14 23  2  0
 15 24  1  0
 16 17  2  0
 17 18  1  0
 17 25  1  0
 18 24  2  0
  8 26  1  0
M  END
$$$$
