
     RDKit          3D

 26 28  0  0  0  0  0  0  0  0999 V2000
   21.4262   39.3224   -7.4406 C   0  0  0  0  0  0  0  0  0  0  0  0
   21.0761   39.0077   -8.7114 C   0  0  0  0  0  0  0  0  0  0  0  0
   19.7296   38.7898   -9.0247 C   0  0  0  0  0  0  0  0  0  0  0  0
   18.7597   38.8912   -8.0619 C   0  0  0  0  0  0  0  0  0  0  0  0
   19.1422   39.2155   -6.7630 C   0  0  0  0  0  0  0  0  0  0  0  0
   17.3593   38.6659   -8.4351 C   0  0  2  0  0  0  0  0  0  0  0  0
   17.2210   37.2821   -9.0094 C   0  0  0  0  0  0  0  0  0  0  0  0
   14.4959   39.6890   -6.3491 N   0  0  0  0  0  0  0  0  0  0  0  0
   20.8757   39.7630   -5.1268 N   0  0  0  0  0  0  0  0  0  0  0  0
   15.6222   39.8299   -6.9974 C   0  0  0  0  0  0  0  0  0  0  0  0
   22.4164   42.5357   -3.1971 N   0  0  0  0  0  0  0  0  0  0  0  0
   17.2844   41.0934   -8.9500 C   0  0  0  0  0  0  0  0  0  0  0  0
   16.9502   39.7071   -9.4537 C   0  0  0  0  0  0  0  0  0  0  0  0
   21.7379   40.8246   -4.8413 C   0  0  0  0  0  0  0  0  0  0  0  0
   21.5879   41.5322   -3.5380 C   0  0  0  0  0  0  0  0  0  0  0  0
   22.3116   43.1978   -2.0291 C   0  0  0  0  0  0  0  0  0  0  0  0
   21.3226   42.8650   -1.1081 C   0  0  0  0  0  0  0  0  0  0  0  0
   20.4525   41.8338   -1.4312 C   0  0  0  0  0  0  0  0  0  0  0  0
   19.4863   38.4707  -10.3172 F   0  0  0  0  0  0  0  0  0  0  0  0
   16.1588   41.4356   -7.5724 S   0  0  0  0  0  0  0  0  0  0  0  0
   16.4691   38.7320   -7.2759 N   0  0  0  0  0  0  0  0  0  0  0  0
   20.4509   39.4329   -6.4313 C   0  0  0  0  0  0  0  0  0  0  0  0
   22.6427   41.2487   -5.5880 O   0  0  0  0  0  0  0  0  0  0  0  0
   20.6041   41.1886   -2.6411 C   0  0  0  0  0  0  0  0  0  0  0  0
   21.1990   43.7354    0.4069 Cl  0  0  0  0  0  0  0  0  0  0  0  0
   13.5877   39.6131   -6.8552 H   0  0  0  0  0  0  0  0  0  0  0  0
  1  2  2  0
 22  1  1  0
  2  3  1  0
  4  3  2  0
  3 19  1  0
  5  4  1  0
  4  6  1  0
 22  5  2  0
  6  7  1  6
  6 13  1  0
  6 21  1  0
 10  8  2  0
 14  9  1  0
  9 22  1  0
 10 20  1  0
 21 10  1  0
 15 11  2  0
 11 16  1  0
 13 12  1  0
 12 20  1  0
 14 15  1  0
 14 23  2  0
 15 24  1  0
 16 17  2  0
 17 18  1  0
 17 25  1  0
 18 24  2  0
  8 26  1  0
M  END
$$$$
