
     RDKit          3D

 26 28  0  0  0  0  0  0  0  0999 V2000
   21.2079   40.0048   -7.9638 C   0  0  0  0  0  0  0  0  0  0  0  0
   20.8884   39.1303   -8.9485 C   0  0  0  0  0  0  0  0  0  0  0  0
   19.5694   38.6795   -9.0729 C   0  0  0  0  0  0  0  0  0  0  0  0
   18.5958   39.1118   -8.2108 C   0  0  0  0  0  0  0  0  0  0  0  0
   18.9466   40.0100   -7.2065 C   0  0  0  0  0  0  0  0  0  0  0  0
   17.2237   38.6230   -8.3831 C   0  0  2  0  0  0  0  0  0  0  0  0
   17.2494   37.1243   -8.5138 C   0  0  0  0  0  0  0  0  0  0  0  0
   14.3449   39.8854   -6.4554 N   0  0  0  0  0  0  0  0  0  0  0  0
   20.6205   41.3749   -6.0589 N   0  0  0  0  0  0  0  0  0  0  0  0
   15.4110   39.9549   -7.2085 C   0  0  0  0  0  0  0  0  0  0  0  0
   20.3671   41.5166   -3.0236 N   0  0  0  0  0  0  0  0  0  0  0  0
   16.7957   40.7570   -9.5773 C   0  0  0  0  0  0  0  0  0  0  0  0
   16.6310   39.2544   -9.6237 C   0  0  0  0  0  0  0  0  0  0  0  0
   21.6120   41.1004   -5.1136 C   0  0  0  0  0  0  0  0  0  0  0  0
   21.4826   41.6961   -3.7534 C   0  0  0  0  0  0  0  0  0  0  0  0
   20.2143   42.0390   -1.7917 C   0  0  0  0  0  0  0  0  0  0  0  0
   21.2238   42.8011   -1.2112 C   0  0  0  0  0  0  0  0  0  0  0  0
   22.3871   43.0040   -1.9396 C   0  0  0  0  0  0  0  0  0  0  0  0
   19.3566   37.8009  -10.0800 F   0  0  0  0  0  0  0  0  0  0  0  0
   15.6973   41.3643   -8.2709 S   0  0  0  0  0  0  0  0  0  0  0  0
   16.3862   38.9306   -7.2236 N   0  0  0  0  0  0  0  0  0  0  0  0
   20.2281   40.4654   -7.0637 C   0  0  0  0  0  0  0  0  0  0  0  0
   22.6191   40.3886   -5.3007 O   0  0  0  0  0  0  0  0  0  0  0  0
   22.4916   42.4463   -3.1969 C   0  0  0  0  0  0  0  0  0  0  0  0
   21.0103   43.4739    0.3919 Cl  0  0  0  0  0  0  0  0  0  0  0  0
   14.4089   39.9794   -5.4193 H   0  0  0  0  0  0  0  0  0  0  0  0
  1  2  2  0
 22  1  1  0
  2  3  1  0
  4  3  2  0
  3 19  1  0
  5  4  1  0
  4  6  1  0
 22  5  2  0
  6  7  1  6
  6 13  1  0
  6 21  1  0
 10  8  2  0
 14  9  1  0
  9 22  1  0
 10 20  1  0
 21 10  1  0
 15 11  2  0
 11 16  1  0
 13 12  1  0
 12 20  1  0
 14 15  1  0
 14 23  2  0
 15 24  1  0
 16 17  2  0
 17 18  1  0
 17 25  1  0
 18 24  2  0
  8 26  1  0
M  END
$$$$
