
     RDKit          3D

 26 28  0  0  0  0  0  0  0  0999 V2000
   21.9259   39.3334   -7.5269 C   0  0  0  0  0  0  0  0  0  0  0  0
   21.4680   38.3501   -8.3560 C   0  0  0  0  0  0  0  0  0  0  0  0
   20.1158   38.2506   -8.6759 C   0  0  0  0  0  0  0  0  0  0  0  0
   19.2141   39.1426   -8.1618 C   0  0  0  0  0  0  0  0  0  0  0  0
   19.6875   40.1344   -7.3235 C   0  0  0  0  0  0  0  0  0  0  0  0
   17.8003   39.0252   -8.5114 C   0  0  2  0  0  0  0  0  0  0  0  0
   17.6143   37.7302   -9.2973 C   0  0  0  0  0  0  0  0  0  0  0  0
   15.2271   40.2474   -6.2615 N   0  0  0  0  0  0  0  0  0  0  0  0
   21.4757   41.2943   -6.1198 N   0  0  0  0  0  0  0  0  0  0  0  0
   15.7106   39.7929   -7.3645 C   0  0  0  0  0  0  0  0  0  0  0  0
   20.7885   41.3664   -3.0149 N   0  0  0  0  0  0  0  0  0  0  0  0
   16.1742   39.9923  -10.1835 C   0  0  0  0  0  0  0  0  0  0  0  0
   17.4605   40.2366   -9.3879 C   0  0  0  0  0  0  0  0  0  0  0  0
   22.2225   40.9871   -4.9697 C   0  0  0  0  0  0  0  0  0  0  0  0
   21.9414   41.6044   -3.6643 C   0  0  0  0  0  0  0  0  0  0  0  0
   20.5230   41.9266   -1.8205 C   0  0  0  0  0  0  0  0  0  0  0  0
   21.4367   42.7795   -1.2070 C   0  0  0  0  0  0  0  0  0  0  0  0
   22.6269   43.0394   -1.8536 C   0  0  0  0  0  0  0  0  0  0  0  0
   19.7876   37.2243   -9.5113 F   0  0  0  0  0  0  0  0  0  0  0  0
   14.8390   40.0878   -8.9214 S   0  0  0  0  0  0  0  0  0  0  0  0
   16.9301   39.0594   -7.3566 N   0  0  0  0  0  0  0  0  0  0  0  0
   21.0323   40.2408   -6.9996 C   0  0  0  0  0  0  0  0  0  0  0  0
   23.1536   40.1637   -5.0611 O   0  0  0  0  0  0  0  0  0  0  0  0
   22.8632   42.4450   -3.0792 C   0  0  0  0  0  0  0  0  0  0  0  0
   21.0479   43.4857    0.3477 Cl  0  0  0  0  0  0  0  0  0  0  0  0
   15.0100   39.6594   -5.4435 H   0  0  0  0  0  0  0  0  0  0  0  0
  1  2  2  0
 22  1  1  0
  2  3  1  0
  4  3  2  0
  3 19  1  0
  5  4  1  0
  6  4  1  1
 22  5  2  0
  7  6  1  6
  6 13  1  0
  6 21  1  0
 10  8  2  0
 14  9  1  0
  9 22  1  0
 10 20  1  0
 21 10  1  0
 15 11  2  0
 11 16  1  0
 13 12  1  6
 12 20  1  6
 14 15  1  0
 14 23  2  0
 15 24  1  0
 16 17  2  0
 17 18  1  0
 17 25  1  0
 18 24  2  0
  8 26  1  0
M  END
$$$$
