
     RDKit          3D

 26 28  0  0  0  0  0  0  0  0999 V2000
   21.8567   38.7042   -7.5349 C   0  0  0  0  0  0  0  0  0  0  0  0
   21.4091   38.4079   -8.7902 C   0  0  0  0  0  0  0  0  0  0  0  0
   20.0614   38.5309   -9.1212 C   0  0  0  0  0  0  0  0  0  0  0  0
   19.1541   38.9541   -8.1881 C   0  0  0  0  0  0  0  0  0  0  0  0
   19.6171   39.2517   -6.9202 C   0  0  0  0  0  0  0  0  0  0  0  0
   17.7453   39.0809   -8.5543 C   0  0  2  0  0  0  0  0  0  0  0  0
   17.3941   37.9252   -9.4871 C   0  0  0  0  0  0  0  0  0  0  0  0
   15.3255   40.3904   -6.1863 N   0  0  0  0  0  0  0  0  0  0  0  0
   21.3898   39.4549   -5.2444 N   0  0  0  0  0  0  0  0  0  0  0  0
   15.7623   40.0018   -7.3331 C   0  0  0  0  0  0  0  0  0  0  0  0
   20.7562   41.2186   -2.9911 N   0  0  0  0  0  0  0  0  0  0  0  0
   16.3067   40.4567  -10.1077 C   0  0  0  0  0  0  0  0  0  0  0  0
   17.5981   40.4214   -9.2842 C   0  0  0  0  0  0  0  0  0  0  0  0
   22.0635   40.6619   -4.9917 C   0  0  0  0  0  0  0  0  0  0  0  0
   21.8207   41.4559   -3.7773 C   0  0  0  0  0  0  0  0  0  0  0  0
   20.5262   41.9398   -1.8785 C   0  0  0  0  0  0  0  0  0  0  0  0
   21.3863   42.9657   -1.4957 C   0  0  0  0  0  0  0  0  0  0  0  0
   22.4856   43.2284   -2.2860 C   0  0  0  0  0  0  0  0  0  0  0  0
   19.7435   38.2024  -10.4056 F   0  0  0  0  0  0  0  0  0  0  0  0
   14.9730   40.5957   -8.8480 S   0  0  0  0  0  0  0  0  0  0  0  0
   16.8653   39.1057   -7.4067 N   0  0  0  0  0  0  0  0  0  0  0  0
   20.9573   39.1319   -6.5821 C   0  0  0  0  0  0  0  0  0  0  0  0
   22.8941   41.0716   -5.8257 O   0  0  0  0  0  0  0  0  0  0  0  0
   22.6879   42.4658   -3.4212 C   0  0  0  0  0  0  0  0  0  0  0  0
   21.0468   43.8776   -0.0395 Cl  0  0  0  0  0  0  0  0  0  0  0  0
   14.5037   39.9834   -5.7161 H   0  0  0  0  0  0  0  0  0  0  0  0
  1  2  2  0
 22  1  1  0
  2  3  1  0
  4  3  2  0
  3 19  1  0
  5  4  1  0
  6  4  1  1
 22  5  2  0
  7  6  1  6
  6 13  1  0
  6 21  1  0
 10  8  2  0
 14  9  1  0
  9 22  1  0
 10 20  1  0
 21 10  1  0
 15 11  2  0
 11 16  1  0
 13 12  1  6
 12 20  1  6
 14 15  1  0
 14 23  2  0
 15 24  1  0
 16 17  2  0
 17 18  1  0
 17 25  1  0
 18 24  2  0
  8 26  1  0
M  END
$$$$
