
     RDKit          3D

 26 28  0  0  0  0  0  0  0  0999 V2000
   21.5845   38.6923   -7.3375 C   0  0  0  0  0  0  0  0  0  0  0  0
   21.1531   38.3594   -8.5892 C   0  0  0  0  0  0  0  0  0  0  0  0
   19.8031   38.4263   -8.9265 C   0  0  0  0  0  0  0  0  0  0  0  0
   18.8769   38.8298   -8.0033 C   0  0  0  0  0  0  0  0  0  0  0  0
   19.3235   39.1647   -6.7388 C   0  0  0  0  0  0  0  0  0  0  0  0
   17.4657   38.8975   -8.3759 C   0  0  2  0  0  0  0  0  0  0  0  0
   17.1594   37.7091   -9.2831 C   0  0  0  0  0  0  0  0  0  0  0  0
   14.9924   40.1726   -6.0448 N   0  0  0  0  0  0  0  0  0  0  0  0
   21.0809   39.4612   -5.0608 N   0  0  0  0  0  0  0  0  0  0  0  0
   15.4467   39.7741   -7.1814 C   0  0  0  0  0  0  0  0  0  0  0  0
   20.3381   41.2105   -2.8226 N   0  0  0  0  0  0  0  0  0  0  0  0
   15.9841   40.1852   -9.9641 C   0  0  0  0  0  0  0  0  0  0  0  0
   17.2731   40.2150   -9.1366 C   0  0  0  0  0  0  0  0  0  0  0  0
   21.6748   40.7117   -4.8192 C   0  0  0  0  0  0  0  0  0  0  0  0
   21.3989   41.4882   -3.6005 C   0  0  0  0  0  0  0  0  0  0  0  0
   20.0781   41.9153   -1.7062 C   0  0  0  0  0  0  0  0  0  0  0  0
   20.9020   42.9658   -1.3106 C   0  0  0  0  0  0  0  0  0  0  0  0
   21.9968   43.2701   -2.0921 C   0  0  0  0  0  0  0  0  0  0  0  0
   19.5026   38.0656  -10.2065 F   0  0  0  0  0  0  0  0  0  0  0  0
   14.6420   40.3047   -8.7115 S   0  0  0  0  0  0  0  0  0  0  0  0
   16.5815   38.9167   -7.2315 N   0  0  0  0  0  0  0  0  0  0  0  0
   20.6660   39.1009   -6.3945 C   0  0  0  0  0  0  0  0  0  0  0  0
   22.4612   41.1764   -5.6670 O   0  0  0  0  0  0  0  0  0  0  0  0
   22.2307   42.5231   -3.2316 C   0  0  0  0  0  0  0  0  0  0  0  0
   20.5242   43.8552    0.1500 Cl  0  0  0  0  0  0  0  0  0  0  0  0
   15.5837   40.3508   -5.2198 H   0  0  0  0  0  0  0  0  0  0  0  0
  1  2  2  0
 22  1  1  0
  2  3  1  0
  4  3  2  0
  3 19  1  0
  5  4  1  0
  6  4  1  1
 22  5  2  0
  7  6  1  6
  6 13  1  0
  6 21  1  0
 10  8  2  0
 14  9  1  0
  9 22  1  0
 10 20  1  0
 21 10  1  0
 15 11  2  0
 11 16  1  0
 13 12  1  6
 12 20  1  6
 14 15  1  0
 14 23  2  0
 15 24  1  0
 16 17  2  0
 17 18  1  0
 17 25  1  0
 18 24  2  0
  8 26  1  0
M  END
$$$$
