
     RDKit          3D

 17 18  0  0  0  0  0  0  0  0999 V2000
  -18.3751   21.3964   -5.9884 C   0  0  0  0  0  0  0  0  0  0  0  0
  -17.3357   20.8646   -7.8400 N   0  0  0  0  0  0  0  0  0  0  0  0
  -18.6451   20.7765   -8.0848 C   0  0  0  0  0  0  0  0  0  0  0  0
  -23.3323   20.6858  -10.1849 C   0  0  0  0  0  0  0  0  0  0  0  0
  -25.0051   19.4179  -11.2973 C   0  0  0  0  0  0  0  0  0  0  0  0
  -26.9750   17.4299   -8.8926 C   0  0  0  0  0  0  0  0  0  0  0  0
  -26.4772   18.0381  -10.0440 O   0  0  0  0  0  0  0  0  0  0  0  0
  -25.4208   18.9258  -10.0770 C   0  0  0  0  0  0  0  0  0  0  0  0
  -24.7704   19.3322   -8.9138 C   0  0  0  0  0  0  0  0  0  0  0  0
  -23.7198   20.2140   -8.9353 C   0  0  0  0  0  0  0  0  0  0  0  0
  -23.0395   20.6236   -7.7102 C   0  0  0  0  0  0  0  0  0  0  0  0
  -21.6677   20.8102   -7.7814 O   0  0  0  0  0  0  0  0  0  0  0  0
  -20.7865   21.1301   -6.7929 C   0  0  0  0  0  0  0  0  0  0  0  0
  -19.3284   21.1041   -6.9424 C   0  0  0  0  0  0  0  0  0  0  0  0
  -17.1890   21.2363   -6.5823 N   0  0  0  0  0  0  0  0  0  0  0  0
  -21.2454   21.4697   -5.6809 O   0  0  0  0  0  0  0  0  0  0  0  0
  -23.9442   20.3114  -11.3482 C   0  0  0  0  0  0  0  0  0  0  0  0
 14  1  1  0
  1 15  2  0
  3  2  1  0
  2 15  1  0
 14  3  2  0
 10  4  2  0
  4 17  1  0
  8  5  1  0
 17  5  2  0
  6  7  1  1
  8  7  1  0
  9  8  2  0
 10  9  1  0
 11 10  1  0
 11 12  1  6
 13 12  1  0
 13 14  1  0
 13 16  2  0
M  END
$$$$
