
     RDKit          3D

 17 18  0  0  0  0  0  0  0  0999 V2000
  -12.8736    9.6867  -23.3380 C   0  0  0  0  0  0  0  0  0  0  0  0
  -13.0061   11.0319  -21.6024 N   0  0  0  0  0  0  0  0  0  0  0  0
  -13.3541   11.7467  -22.7136 C   0  0  0  0  0  0  0  0  0  0  0  0
  -13.2846    8.7662  -28.8406 C   0  0  0  0  0  0  0  0  0  0  0  0
  -11.6326    8.3124  -30.4952 C   0  0  0  0  0  0  0  0  0  0  0  0
   -9.3365   11.1993  -30.6873 C   0  0  0  0  0  0  0  0  0  0  0  0
  -10.0079    9.9992  -31.0181 O   0  0  0  0  0  0  0  0  0  0  0  0
  -11.1034    9.5695  -30.2992 C   0  0  0  0  0  0  0  0  0  0  0  0
  -11.6923   10.4059  -29.3604 C   0  0  0  0  0  0  0  0  0  0  0  0
  -12.7775   10.0518  -28.6106 C   0  0  0  0  0  0  0  0  0  0  0  0
  -13.4699   10.8658  -27.6148 C   0  0  0  0  0  0  0  0  0  0  0  0
  -13.1613   10.5988  -26.2750 O   0  0  0  0  0  0  0  0  0  0  0  0
  -13.5783   11.3333  -25.1881 C   0  0  0  0  0  0  0  0  0  0  0  0
  -13.2750   10.9152  -23.8074 C   0  0  0  0  0  0  0  0  0  0  0  0
  -12.7203    9.7954  -21.9961 N   0  0  0  0  0  0  0  0  0  0  0  0
  -14.2331   12.3834  -25.4133 O   0  0  0  0  0  0  0  0  0  0  0  0
  -12.7378    7.8986  -29.7598 C   0  0  0  0  0  0  0  0  0  0  0  0
 14  1  1  0
  1 15  2  0
  3  2  1  0
  2 15  1  0
 14  3  2  0
 10  4  2  0
  4 17  1  0
  8  5  1  0
 17  5  2  0
  7  6  1  0
  8  7  1  0
  9  8  2  0
 10  9  1  0
 11 10  1  0
 12 11  1  0
 13 12  1  0
 13 14  1  0
 13 16  2  0
M  END
$$$$
