
     RDKit          3D

 17 18  0  0  0  0  0  0  0  0999 V2000
  -13.2821   12.4302  -23.3434 C   0  0  0  0  0  0  0  0  0  0  0  0
  -11.9987   11.0007  -22.2716 N   0  0  0  0  0  0  0  0  0  0  0  0
  -12.2010   10.5172  -23.5334 C   0  0  0  0  0  0  0  0  0  0  0  0
  -11.7098    9.1376  -29.2125 C   0  0  0  0  0  0  0  0  0  0  0  0
  -11.1545    6.8804  -29.7315 C   0  0  0  0  0  0  0  0  0  0  0  0
  -12.1498    4.1632  -29.7034 C   0  0  0  0  0  0  0  0  0  0  0  0
  -12.3702    5.1042  -28.6707 O   0  0  0  0  0  0  0  0  0  0  0  0
  -12.1350    6.4490  -28.8647 C   0  0  0  0  0  0  0  0  0  0  0  0
  -12.8899    7.3938  -28.1827 C   0  0  0  0  0  0  0  0  0  0  0  0
  -12.7164    8.7413  -28.3224 C   0  0  0  0  0  0  0  0  0  0  0  0
  -13.4494    9.8042  -27.6394 C   0  0  0  0  0  0  0  0  0  0  0  0
  -12.9420   10.2055  -26.3971 O   0  0  0  0  0  0  0  0  0  0  0  0
  -13.4394   11.2201  -25.6109 C   0  0  0  0  0  0  0  0  0  0  0  0
  -13.0034   11.4037  -24.2148 C   0  0  0  0  0  0  0  0  0  0  0  0
  -12.6559   12.1515  -22.1746 N   0  0  0  0  0  0  0  0  0  0  0  0
  -14.2866   11.9932  -26.1275 O   0  0  0  0  0  0  0  0  0  0  0  0
  -10.9333    8.2412  -29.9126 C   0  0  0  0  0  0  0  0  0  0  0  0
 14  1  1  0
  1 15  2  0
  3  2  1  0
  2 15  1  0
 14  3  2  0
 10  4  2  0
  4 17  1  0
  8  5  1  0
 17  5  2  0
  7  6  1  0
  8  7  1  0
  9  8  2  0
 10  9  1  0
 11 10  1  0
 12 11  1  0
 13 12  1  0
 13 14  1  0
 13 16  2  0
M  END
$$$$
