
     RDKit          3D

 17 18  0  0  0  0  0  0  0  0999 V2000
  -13.3709   11.7875  -22.7677 C   0  0  0  0  0  0  0  0  0  0  0  0
  -12.4361    9.9726  -21.9777 N   0  0  0  0  0  0  0  0  0  0  0  0
  -12.4160    9.8777  -23.3091 C   0  0  0  0  0  0  0  0  0  0  0  0
  -12.8439    9.2270  -29.7210 C   0  0  0  0  0  0  0  0  0  0  0  0
  -11.1406    7.6212  -30.1257 C   0  0  0  0  0  0  0  0  0  0  0  0
   -8.8820    7.3169  -27.2322 C   0  0  0  0  0  0  0  0  0  0  0  0
   -9.4336    7.2705  -28.5117 O   0  0  0  0  0  0  0  0  0  0  0  0
  -10.5778    7.9345  -28.9053 C   0  0  0  0  0  0  0  0  0  0  0  0
  -11.1718    8.9065  -28.1031 C   0  0  0  0  0  0  0  0  0  0  0  0
  -12.3091    9.5723  -28.4846 C   0  0  0  0  0  0  0  0  0  0  0  0
  -12.9156   10.5967  -27.6396 C   0  0  0  0  0  0  0  0  0  0  0  0
  -12.7299   10.4782  -26.2709 O   0  0  0  0  0  0  0  0  0  0  0  0
  -13.1695   11.2860  -25.2658 C   0  0  0  0  0  0  0  0  0  0  0  0
  -12.9957   11.0016  -23.8383 C   0  0  0  0  0  0  0  0  0  0  0  0
  -13.0101   11.1199  -21.6680 N   0  0  0  0  0  0  0  0  0  0  0  0
  -13.7619   12.3425  -25.5747 O   0  0  0  0  0  0  0  0  0  0  0  0
  -12.2913    8.2797  -30.5366 C   0  0  0  0  0  0  0  0  0  0  0  0
 14  1  1  0
  1 15  2  0
  3  2  1  0
  2 15  1  0
 14  3  2  0
 10  4  2  0
  4 17  1  0
  8  5  1  0
 17  5  2  0
  6  7  1  1
  8  7  1  0
  9  8  2  0
 10  9  1  0
 11 10  1  0
 11 12  1  6
 13 12  1  0
 13 14  1  0
 13 16  2  0
M  END
$$$$
