
     RDKit          3D

 17 18  0  0  0  0  0  0  0  0999 V2000
  -18.8679   17.4416  -14.9335 C   0  0  0  0  0  0  0  0  0  0  0  0
  -18.0091   16.5001  -13.1403 N   0  0  0  0  0  0  0  0  0  0  0  0
  -19.1164   17.2017  -12.7552 C   0  0  0  0  0  0  0  0  0  0  0  0
  -24.4145   19.8073  -10.8790 C   0  0  0  0  0  0  0  0  0  0  0  0
  -24.1437   20.5316   -8.6262 C   0  0  0  0  0  0  0  0  0  0  0  0
  -22.4619   21.5138   -6.5807 C   0  0  0  0  0  0  0  0  0  0  0  0
  -21.9953   21.3171   -7.9013 O   0  0  0  0  0  0  0  0  0  0  0  0
  -22.8195   20.8117   -8.8846 C   0  0  0  0  0  0  0  0  0  0  0  0
  -22.3207   20.5766  -10.1588 C   0  0  0  0  0  0  0  0  0  0  0  0
  -23.0742   20.0787  -11.1834 C   0  0  0  0  0  0  0  0  0  0  0  0
  -22.6347   19.7868  -12.5455 C   0  0  0  0  0  0  0  0  0  0  0  0
  -21.4846   18.9970  -12.6682 O   0  0  0  0  0  0  0  0  0  0  0  0
  -20.8730   18.6384  -13.8481 C   0  0  0  0  0  0  0  0  0  0  0  0
  -19.6634   17.7961  -13.8694 C   0  0  0  0  0  0  0  0  0  0  0  0
  -17.8745   16.6553  -14.4531 N   0  0  0  0  0  0  0  0  0  0  0  0
  -21.3847   19.0569  -14.9182 O   0  0  0  0  0  0  0  0  0  0  0  0
  -24.9579   20.0224   -9.6320 C   0  0  0  0  0  0  0  0  0  0  0  0
 14  1  1  0
  1 15  2  0
  3  2  1  0
  2 15  1  0
 14  3  2  0
 10  4  2  0
  4 17  1  0
  8  5  1  0
 17  5  2  0
  7  6  1  0
  8  7  1  0
  9  8  2  0
 10  9  1  0
 11 10  1  0
 12 11  1  0
 13 12  1  0
 13 14  1  0
 13 16  2  0
M  END
$$$$
