
     RDKit          3D

 17 18  0  0  0  0  0  0  0  0999 V2000
  -18.3220   18.1468  -13.6722 C   0  0  0  0  0  0  0  0  0  0  0  0
  -18.7527   16.0197  -13.3122 N   0  0  0  0  0  0  0  0  0  0  0  0
  -19.9229   16.7122  -13.1789 C   0  0  0  0  0  0  0  0  0  0  0  0
  -24.0215   20.4275  -10.6988 C   0  0  0  0  0  0  0  0  0  0  0  0
  -25.8690   19.3085   -9.6952 C   0  0  0  0  0  0  0  0  0  0  0  0
  -27.8552   17.3031   -9.8386 C   0  0  0  0  0  0  0  0  0  0  0  0
  -26.8266   17.4078  -10.8037 O   0  0  0  0  0  0  0  0  0  0  0  0
  -25.8958   18.4239  -10.7515 C   0  0  0  0  0  0  0  0  0  0  0  0
  -24.9657   18.5698  -11.7719 C   0  0  0  0  0  0  0  0  0  0  0  0
  -24.0143   19.5495  -11.7905 C   0  0  0  0  0  0  0  0  0  0  0  0
  -23.0089   19.7884  -12.8228 C   0  0  0  0  0  0  0  0  0  0  0  0
  -21.9672   18.8552  -12.8991 O   0  0  0  0  0  0  0  0  0  0  0  0
  -20.6892   19.1058  -13.3448 C   0  0  0  0  0  0  0  0  0  0  0  0
  -19.6664   18.0459  -13.4020 C   0  0  0  0  0  0  0  0  0  0  0  0
  -17.8005   16.8978  -13.6088 N   0  0  0  0  0  0  0  0  0  0  0  0
  -20.4196   20.2804  -13.7053 O   0  0  0  0  0  0  0  0  0  0  0  0
  -24.9221   20.3263   -9.6619 C   0  0  0  0  0  0  0  0  0  0  0  0
 14  1  1  0
  1 15  2  0
  3  2  1  0
  2 15  1  0
 14  3  2  0
 10  4  2  0
  4 17  1  0
  8  5  1  0
 17  5  2  0
  7  6  1  0
  8  7  1  0
  9  8  2  0
 10  9  1  0
 11 10  1  0
 12 11  1  0
 13 12  1  0
 13 14  1  0
 13 16  2  0
M  END
$$$$
