
     RDKit          3D

 17 18  0  0  0  0  0  0  0  0999 V2000
  -17.1674   22.1732   -5.9158 C   0  0  0  0  0  0  0  0  0  0  0  0
  -16.0758   21.0817   -7.4679 N   0  0  0  0  0  0  0  0  0  0  0  0
  -17.3682   21.0513   -7.8008 C   0  0  0  0  0  0  0  0  0  0  0  0
  -21.7655   20.9550  -10.3165 C   0  0  0  0  0  0  0  0  0  0  0  0
  -23.6018   19.8435  -11.3343 C   0  0  0  0  0  0  0  0  0  0  0  0
  -26.2768   19.1883   -8.8789 C   0  0  0  0  0  0  0  0  0  0  0  0
  -25.5200   19.2968  -10.0446 O   0  0  0  0  0  0  0  0  0  0  0  0
  -24.2607   19.8565  -10.1220 C   0  0  0  0  0  0  0  0  0  0  0  0
  -23.6458   20.4298   -9.0109 C   0  0  0  0  0  0  0  0  0  0  0  0
  -22.3948   20.9890   -9.0768 C   0  0  0  0  0  0  0  0  0  0  0  0
  -21.7567   21.5767   -7.9026 C   0  0  0  0  0  0  0  0  0  0  0  0
  -20.3797   21.4517   -7.8028 O   0  0  0  0  0  0  0  0  0  0  0  0
  -19.5362   21.9243   -6.8430 C   0  0  0  0  0  0  0  0  0  0  0  0
  -18.0835   21.7280   -6.8470 C   0  0  0  0  0  0  0  0  0  0  0  0
  -15.9705   21.7560   -6.3383 N   0  0  0  0  0  0  0  0  0  0  0  0
  -20.0275   22.5697   -5.8919 O   0  0  0  0  0  0  0  0  0  0  0  0
  -22.3348   20.4022  -11.4293 C   0  0  0  0  0  0  0  0  0  0  0  0
 14  1  1  0
  1 15  2  0
  3  2  1  0
  2 15  1  0
 14  3  2  0
 10  4  2  0
  4 17  1  0
  8  5  1  0
 17  5  2  0
  6  7  1  1
  8  7  1  0
  9  8  2  0
 10  9  1  0
 11 10  1  0
 11 12  1  6
 13 12  1  0
 13 14  1  0
 13 16  2  0
M  END
$$$$
