
     RDKit          3D

 17 18  0  0  0  0  0  0  0  0999 V2000
  -13.5543   10.6354  -22.4584 C   0  0  0  0  0  0  0  0  0  0  0  0
  -12.0312   12.1955  -22.6533 N   0  0  0  0  0  0  0  0  0  0  0  0
  -12.1461   11.6070  -23.8460 C   0  0  0  0  0  0  0  0  0  0  0  0
  -13.2100    9.2954  -29.7360 C   0  0  0  0  0  0  0  0  0  0  0  0
  -11.0813    9.6091  -30.7429 C   0  0  0  0  0  0  0  0  0  0  0  0
   -8.3885   10.7046  -30.1105 C   0  0  0  0  0  0  0  0  0  0  0  0
   -9.1406    9.7823  -29.3845 O   0  0  0  0  0  0  0  0  0  0  0  0
  -10.5071    9.6181  -29.4882 C   0  0  0  0  0  0  0  0  0  0  0  0
  -11.3125    9.4627  -28.3620 C   0  0  0  0  0  0  0  0  0  0  0  0
  -12.6715    9.2985  -28.4538 C   0  0  0  0  0  0  0  0  0  0  0  0
  -13.5058    9.1476  -27.2653 C   0  0  0  0  0  0  0  0  0  0  0  0
  -13.1738    9.9141  -26.1588 O   0  0  0  0  0  0  0  0  0  0  0  0
  -13.5183    9.7404  -24.8523 C   0  0  0  0  0  0  0  0  0  0  0  0
  -13.0950   10.6213  -23.7597 C   0  0  0  0  0  0  0  0  0  0  0  0
  -12.8794   11.6043  -21.8331 N   0  0  0  0  0  0  0  0  0  0  0  0
  -14.2443    8.7663  -24.5582 O   0  0  0  0  0  0  0  0  0  0  0  0
  -12.4542    9.4450  -30.8648 C   0  0  0  0  0  0  0  0  0  0  0  0
 14  1  1  0
  1 15  2  0
  3  2  1  0
  2 15  1  0
 14  3  2  0
 10  4  2  0
  4 17  1  0
  8  5  1  0
 17  5  2  0
  6  7  1  1
  8  7  1  0
  9  8  2  0
 10  9  1  0
 11 10  1  0
 11 12  1  6
 13 12  1  0
 13 14  1  0
 13 16  2  0
M  END
$$$$
