
     RDKit          3D

 17 18  0  0  0  0  0  0  0  0999 V2000
  -13.6805    9.9324  -22.3702 C   0  0  0  0  0  0  0  0  0  0  0  0
  -12.3312   11.6444  -22.0730 N   0  0  0  0  0  0  0  0  0  0  0  0
  -12.4648   11.4452  -23.4180 C   0  0  0  0  0  0  0  0  0  0  0  0
  -12.6107   11.7358  -28.8626 C   0  0  0  0  0  0  0  0  0  0  0  0
  -10.8576   11.4123  -30.4422 C   0  0  0  0  0  0  0  0  0  0  0  0
   -9.0024    9.6844  -31.6860 C   0  0  0  0  0  0  0  0  0  0  0  0
   -9.8713    9.2360  -30.6641 O   0  0  0  0  0  0  0  0  0  0  0  0
  -10.7810   10.0870  -30.0726 C   0  0  0  0  0  0  0  0  0  0  0  0
  -11.6390    9.6147  -29.0885 C   0  0  0  0  0  0  0  0  0  0  0  0
  -12.5655   10.3953  -28.4580 C   0  0  0  0  0  0  0  0  0  0  0  0
  -13.4958    9.9917  -27.4067 C   0  0  0  0  0  0  0  0  0  0  0  0
  -13.1632   10.3823  -26.1034 O   0  0  0  0  0  0  0  0  0  0  0  0
  -13.6912    9.8607  -24.9442 C   0  0  0  0  0  0  0  0  0  0  0  0
  -13.3076   10.3756  -23.6173 C   0  0  0  0  0  0  0  0  0  0  0  0
  -13.0689   10.7260  -21.4580 N   0  0  0  0  0  0  0  0  0  0  0  0
  -14.5200    8.9209  -25.0547 O   0  0  0  0  0  0  0  0  0  0  0  0
  -11.7822   12.2537  -29.8332 C   0  0  0  0  0  0  0  0  0  0  0  0
 14  1  1  0
  1 15  2  0
  3  2  1  0
  2 15  1  0
 14  3  2  0
 10  4  2  0
  4 17  1  0
  8  5  1  0
 17  5  2  0
  7  6  1  0
  8  7  1  0
  9  8  2  0
 10  9  1  0
 11 10  1  0
 12 11  1  0
 13 12  1  0
 13 14  1  0
 13 16  2  0
M  END
$$$$
