
     RDKit          3D

 17 18  0  0  0  0  0  0  0  0999 V2000
  -24.6023   15.4544   -5.1702 C   0  0  0  0  0  0  0  0  0  0  0  0
  -22.4755   15.5129   -5.7296 N   0  0  0  0  0  0  0  0  0  0  0  0
  -23.1197   16.4935   -6.4298 C   0  0  0  0  0  0  0  0  0  0  0  0
  -24.7339   21.1896   -8.7090 C   0  0  0  0  0  0  0  0  0  0  0  0
  -24.2654   21.9924  -10.9019 C   0  0  0  0  0  0  0  0  0  0  0  0
  -26.0974   19.9181  -13.3398 C   0  0  0  0  0  0  0  0  0  0  0  0
  -25.1362   20.8004  -12.7938 O   0  0  0  0  0  0  0  0  0  0  0  0
  -24.9908   20.9467  -11.4303 C   0  0  0  0  0  0  0  0  0  0  0  0
  -25.5787   20.0339  -10.5650 C   0  0  0  0  0  0  0  0  0  0  0  0
  -25.4798   20.1125   -9.2051 C   0  0  0  0  0  0  0  0  0  0  0  0
  -26.0492   19.1953   -8.2211 C   0  0  0  0  0  0  0  0  0  0  0  0
  -25.1504   18.3191   -7.5998 O   0  0  0  0  0  0  0  0  0  0  0  0
  -25.4669   17.3820   -6.6426 C   0  0  0  0  0  0  0  0  0  0  0  0
  -24.4526   16.4672   -6.0882 C   0  0  0  0  0  0  0  0  0  0  0  0
  -23.3820   14.8980   -4.9774 N   0  0  0  0  0  0  0  0  0  0  0  0
  -26.6615   17.3309   -6.2522 O   0  0  0  0  0  0  0  0  0  0  0  0
  -24.1309   22.1218   -9.5240 C   0  0  0  0  0  0  0  0  0  0  0  0
 14  1  1  0
  1 15  2  0
  3  2  1  0
  2 15  1  0
 14  3  2  0
 10  4  2  0
  4 17  1  0
  8  5  1  0
 17  5  2  0
  7  6  1  0
  8  7  1  0
  9  8  2  0
 10  9  1  0
 11 10  1  0
 12 11  1  0
 13 12  1  0
 13 14  1  0
 13 16  2  0
M  END
$$$$
