
     RDKit          3D

 17 18  0  0  0  0  0  0  0  0999 V2000
  -12.6194   12.0756  -22.9771 C   0  0  0  0  0  0  0  0  0  0  0  0
  -13.3165   10.1362  -22.2393 N   0  0  0  0  0  0  0  0  0  0  0  0
  -13.0935   10.0018  -23.5486 C   0  0  0  0  0  0  0  0  0  0  0  0
  -12.7450    8.8292  -29.1631 C   0  0  0  0  0  0  0  0  0  0  0  0
  -11.4581    6.9806  -29.9182 C   0  0  0  0  0  0  0  0  0  0  0  0
   -7.9701    7.2274  -28.7449 C   0  0  0  0  0  0  0  0  0  0  0  0
   -9.1768    6.7864  -29.2862 O   0  0  0  0  0  0  0  0  0  0  0  0
  -10.3680    7.4818  -29.2366 C   0  0  0  0  0  0  0  0  0  0  0  0
  -10.4922    8.6694  -28.5187 C   0  0  0  0  0  0  0  0  0  0  0  0
  -11.6714    9.3683  -28.4626 C   0  0  0  0  0  0  0  0  0  0  0  0
  -11.7855   10.6175  -27.7157 C   0  0  0  0  0  0  0  0  0  0  0  0
  -12.3066   10.5416  -26.4333 O   0  0  0  0  0  0  0  0  0  0  0  0
  -12.2986   11.4744  -25.4405 C   0  0  0  0  0  0  0  0  0  0  0  0
  -12.6543   11.2019  -24.0447 C   0  0  0  0  0  0  0  0  0  0  0  0
  -13.0288   11.3817  -21.9112 N   0  0  0  0  0  0  0  0  0  0  0  0
  -11.9667   12.6436  -25.7325 O   0  0  0  0  0  0  0  0  0  0  0  0
  -12.6635    7.6677  -29.8787 C   0  0  0  0  0  0  0  0  0  0  0  0
 14  1  1  0
  1 15  2  0
  3  2  1  0
  2 15  1  0
 14  3  2  0
 10  4  2  0
  4 17  1  0
  8  5  1  0
 17  5  2  0
  6  7  1  1
  8  7  1  0
  9  8  2  0
 10  9  1  0
 11 10  1  0
 11 12  1  6
 13 12  1  0
 13 14  1  0
 13 16  2  0
M  END
$$$$
