
     RDKit          3D

 17 18  0  0  0  0  0  0  0  0999 V2000
  -17.4264   18.2429  -13.6479 C   0  0  0  0  0  0  0  0  0  0  0  0
  -18.0345   16.1293  -13.5937 N   0  0  0  0  0  0  0  0  0  0  0  0
  -19.1513   16.8915  -13.3972 C   0  0  0  0  0  0  0  0  0  0  0  0
  -23.7234   18.4347  -12.6392 C   0  0  0  0  0  0  0  0  0  0  0  0
  -25.6757   18.3712  -11.2762 C   0  0  0  0  0  0  0  0  0  0  0  0
  -25.5497   21.2153   -8.9177 C   0  0  0  0  0  0  0  0  0  0  0  0
  -25.9486   20.0139   -9.5484 O   0  0  0  0  0  0  0  0  0  0  0  0
  -25.2182   19.4719  -10.5848 C   0  0  0  0  0  0  0  0  0  0  0  0
  -24.0015   20.0336  -10.9480 C   0  0  0  0  0  0  0  0  0  0  0  0
  -23.2225   19.5543  -11.9622 C   0  0  0  0  0  0  0  0  0  0  0  0
  -21.9285   20.0681  -12.4039 C   0  0  0  0  0  0  0  0  0  0  0  0
  -21.0539   19.1339  -12.9731 O   0  0  0  0  0  0  0  0  0  0  0  0
  -19.7222   19.3404  -13.2536 C   0  0  0  0  0  0  0  0  0  0  0  0
  -18.7836   18.2173  -13.4289 C   0  0  0  0  0  0  0  0  0  0  0  0
  -17.0065   16.9581  -13.7426 N   0  0  0  0  0  0  0  0  0  0  0  0
  -19.3280   20.5305  -13.3567 O   0  0  0  0  0  0  0  0  0  0  0  0
  -24.9235   17.8402  -12.3183 C   0  0  0  0  0  0  0  0  0  0  0  0
 14  1  1  0
  1 15  2  0
  3  2  1  0
  2 15  1  0
 14  3  2  0
 10  4  2  0
  4 17  1  0
  8  5  1  0
 17  5  2  0
  7  6  1  0
  8  7  1  0
  9  8  2  0
 10  9  1  0
 11 10  1  0
 12 11  1  0
 13 12  1  0
 13 14  1  0
 13 16  2  0
M  END
$$$$
