
     RDKit          3D

 17 18  0  0  0  0  0  0  0  0999 V2000
  -12.8958    9.7166  -22.7600 C   0  0  0  0  0  0  0  0  0  0  0  0
  -12.0268   11.7268  -22.5511 N   0  0  0  0  0  0  0  0  0  0  0  0
  -12.2709   11.5120  -23.8782 C   0  0  0  0  0  0  0  0  0  0  0  0
  -12.2810    8.4792  -29.3127 C   0  0  0  0  0  0  0  0  0  0  0  0
  -10.3678    9.1507  -30.5623 C   0  0  0  0  0  0  0  0  0  0  0  0
   -8.5164   11.1635  -31.2677 C   0  0  0  0  0  0  0  0  0  0  0  0
   -9.5252   11.3823  -30.3008 O   0  0  0  0  0  0  0  0  0  0  0  0
  -10.4381   10.3989  -29.9827 C   0  0  0  0  0  0  0  0  0  0  0  0
  -11.4486   10.6565  -29.0662 C   0  0  0  0  0  0  0  0  0  0  0  0
  -12.3878    9.7348  -28.7005 C   0  0  0  0  0  0  0  0  0  0  0  0
  -13.4905    9.9189  -27.7604 C   0  0  0  0  0  0  0  0  0  0  0  0
  -13.1454   10.3888  -26.4869 O   0  0  0  0  0  0  0  0  0  0  0  0
  -13.2116    9.6696  -25.3151 C   0  0  0  0  0  0  0  0  0  0  0  0
  -12.8153   10.2562  -24.0221 C   0  0  0  0  0  0  0  0  0  0  0  0
  -12.4085   10.6371  -21.8933 N   0  0  0  0  0  0  0  0  0  0  0  0
  -13.6253    8.4837  -25.3839 O   0  0  0  0  0  0  0  0  0  0  0  0
  -11.2983    8.1731  -30.2277 C   0  0  0  0  0  0  0  0  0  0  0  0
 14  1  1  0
  1 15  2  0
  3  2  1  0
  2 15  1  0
 14  3  2  0
 10  4  2  0
  4 17  1  0
  8  5  1  0
 17  5  2  0
  7  6  1  0
  8  7  1  0
  9  8  2  0
 10  9  1  0
 11 10  1  0
 12 11  1  0
 13 12  1  0
 13 14  1  0
 13 16  2  0
M  END
$$$$
