
     RDKit          3D

 17 18  0  0  0  0  0  0  0  0999 V2000
  -57.3651  109.2705 -133.0604 C   0  0  0  0  0  0  0  0  0  0  0  0
  -56.2966  107.4628 -132.4421 N   0  0  0  0  0  0  0  0  0  0  0  0
  -55.7925  108.4780 -131.7372 C   0  0  0  0  0  0  0  0  0  0  0  0
  -55.3943  112.8278 -127.1711 C   0  0  0  0  0  0  0  0  0  0  0  0
  -55.4865  111.4573 -125.2330 C   0  0  0  0  0  0  0  0  0  0  0  0
  -55.7539  108.1427 -125.3354 C   0  0  0  0  0  0  0  0  0  0  0  0
  -56.5075  109.3155 -125.3423 O   0  0  0  0  0  0  0  0  0  0  0  0
  -56.1396  110.4893 -125.9682 C   0  0  0  0  0  0  0  0  0  0  0  0
  -56.4116  110.7159 -127.3158 C   0  0  0  0  0  0  0  0  0  0  0  0
  -56.0502  111.8787 -127.9477 C   0  0  0  0  0  0  0  0  0  0  0  0
  -56.3508  112.1084 -129.3578 C   0  0  0  0  0  0  0  0  0  0  0  0
  -55.8102  111.2178 -130.2723 O   0  0  0  0  0  0  0  0  0  0  0  0
  -56.1827  110.9671 -131.5585 C   0  0  0  0  0  0  0  0  0  0  0  0
  -56.4411  109.6298 -132.1004 C   0  0  0  0  0  0  0  0  0  0  0  0
  -57.2364  107.9513 -133.2295 N   0  0  0  0  0  0  0  0  0  0  0  0
  -56.3147  111.9383 -132.3342 O   0  0  0  0  0  0  0  0  0  0  0  0
  -55.1096  112.6435 -125.8472 C   0  0  0  0  0  0  0  0  0  0  0  0
 14  1  1  0
  1 15  2  0
  3  2  1  0
  2 15  1  0
 14  3  2  0
 10  4  2  0
  4 17  1  0
  8  5  1  0
 17  5  2  0
  6  7  1  1
  8  7  1  0
  9  8  2  0
 10  9  1  0
 11 10  1  0
 11 12  1  6
 13 12  1  0
 13 14  1  0
 13 16  2  0
M  END
$$$$
