
     RDKit          3D

 17 18  0  0  0  0  0  0  0  0999 V2000
  -17.8810   16.7254  -13.6916 C   0  0  0  0  0  0  0  0  0  0  0  0
  -17.0052   18.6637  -13.1745 N   0  0  0  0  0  0  0  0  0  0  0  0
  -18.2948   18.7112  -12.8330 C   0  0  0  0  0  0  0  0  0  0  0  0
  -23.0781   20.2654  -11.8958 C   0  0  0  0  0  0  0  0  0  0  0  0
  -24.8433   20.9094  -10.4423 C   0  0  0  0  0  0  0  0  0  0  0  0
  -26.5804   17.9573   -9.0769 C   0  0  0  0  0  0  0  0  0  0  0  0
  -26.2264   19.2531   -9.4496 O   0  0  0  0  0  0  0  0  0  0  0  0
  -25.1678   19.5789  -10.2732 C   0  0  0  0  0  0  0  0  0  0  0  0
  -24.4259   18.6009  -10.9321 C   0  0  0  0  0  0  0  0  0  0  0  0
  -23.3718   18.9137  -11.7525 C   0  0  0  0  0  0  0  0  0  0  0  0
  -22.6091   17.8798  -12.4460 C   0  0  0  0  0  0  0  0  0  0  0  0
  -21.2295   18.0146  -12.4597 O   0  0  0  0  0  0  0  0  0  0  0  0
  -20.2816   17.1545  -12.9264 C   0  0  0  0  0  0  0  0  0  0  0  0
  -18.8760   17.5093  -13.1441 C   0  0  0  0  0  0  0  0  0  0  0  0
  -16.7717   17.4702  -13.6868 N   0  0  0  0  0  0  0  0  0  0  0  0
  -20.6269   15.9821  -13.1887 O   0  0  0  0  0  0  0  0  0  0  0  0
  -23.7815   21.2542  -11.2671 C   0  0  0  0  0  0  0  0  0  0  0  0
 14  1  1  0
  1 15  2  0
  3  2  1  0
  2 15  1  0
 14  3  2  0
 10  4  2  0
  4 17  1  0
  8  5  1  0
 17  5  2  0
  6  7  1  1
  8  7  1  0
  9  8  2  0
 10  9  1  0
 11 10  1  0
 11 12  1  6
 13 12  1  0
 13 14  1  0
 13 16  2  0
M  END
$$$$
