
     RDKit          3D

 17 18  0  0  0  0  0  0  0  0999 V2000
  -18.1555   16.5785  -13.9735 C   0  0  0  0  0  0  0  0  0  0  0  0
  -17.1887   18.3509  -13.0996 N   0  0  0  0  0  0  0  0  0  0  0  0
  -18.5367   18.5733  -13.1133 C   0  0  0  0  0  0  0  0  0  0  0  0
  -23.5421   20.2336  -12.2015 C   0  0  0  0  0  0  0  0  0  0  0  0
  -25.0954   20.2364  -10.3959 C   0  0  0  0  0  0  0  0  0  0  0  0
  -27.3041   18.7293   -9.2418 C   0  0  0  0  0  0  0  0  0  0  0  0
  -26.0950   18.1651   -9.7110 O   0  0  0  0  0  0  0  0  0  0  0  0
  -25.2459   18.8736  -10.5347 C   0  0  0  0  0  0  0  0  0  0  0  0
  -24.5254   18.2169  -11.5232 C   0  0  0  0  0  0  0  0  0  0  0  0
  -23.6659   18.8491  -12.3759 C   0  0  0  0  0  0  0  0  0  0  0  0
  -22.8804   18.2464  -13.4498 C   0  0  0  0  0  0  0  0  0  0  0  0
  -21.4919   18.2325  -13.2674 O   0  0  0  0  0  0  0  0  0  0  0  0
  -20.6110   17.3420  -13.8382 C   0  0  0  0  0  0  0  0  0  0  0  0
  -19.1535   17.4703  -13.6584 C   0  0  0  0  0  0  0  0  0  0  0  0
  -16.9772   17.1468  -13.6204 N   0  0  0  0  0  0  0  0  0  0  0  0
  -21.0947   16.4059  -14.5251 O   0  0  0  0  0  0  0  0  0  0  0  0
  -24.2339   20.9321  -11.2370 C   0  0  0  0  0  0  0  0  0  0  0  0
 14  1  1  0
  1 15  2  0
  3  2  1  0
  2 15  1  0
 14  3  2  0
 10  4  2  0
  4 17  1  0
  8  5  1  0
 17  5  2  0
  7  6  1  0
  8  7  1  0
  9  8  2  0
 10  9  1  0
 11 10  1  0
 12 11  1  0
 13 12  1  0
 13 14  1  0
 13 16  2  0
M  END
$$$$
