
     RDKit          3D

 17 18  0  0  0  0  0  0  0  0999 V2000
  -13.3292   10.4545  -21.8084 C   0  0  0  0  0  0  0  0  0  0  0  0
  -12.0421   12.2366  -21.8930 N   0  0  0  0  0  0  0  0  0  0  0  0
  -12.3451   11.8777  -23.1760 C   0  0  0  0  0  0  0  0  0  0  0  0
  -12.6877   11.5066  -28.2691 C   0  0  0  0  0  0  0  0  0  0  0  0
  -11.4163   10.8918  -30.1870 C   0  0  0  0  0  0  0  0  0  0  0  0
  -11.7794    7.2738  -30.7552 C   0  0  0  0  0  0  0  0  0  0  0  0
  -11.2143    8.5703  -30.7603 O   0  0  0  0  0  0  0  0  0  0  0  0
  -11.6982    9.5661  -29.9381 C   0  0  0  0  0  0  0  0  0  0  0  0
  -12.4828    9.2423  -28.8394 C   0  0  0  0  0  0  0  0  0  0  0  0
  -12.9980   10.1712  -27.9808 C   0  0  0  0  0  0  0  0  0  0  0  0
  -13.8173    9.9249  -26.7969 C   0  0  0  0  0  0  0  0  0  0  0  0
  -13.3708   10.5074  -25.6040 O   0  0  0  0  0  0  0  0  0  0  0  0
  -13.6825   10.0835  -24.3320 C   0  0  0  0  0  0  0  0  0  0  0  0
  -13.1508   10.7626  -23.1366 C   0  0  0  0  0  0  0  0  0  0  0  0
  -12.6420   11.3702  -21.0836 N   0  0  0  0  0  0  0  0  0  0  0  0
  -14.4433    9.0879  -24.2215 O   0  0  0  0  0  0  0  0  0  0  0  0
  -11.9142   11.8805  -29.3455 C   0  0  0  0  0  0  0  0  0  0  0  0
 14  1  1  0
  1 15  2  0
  3  2  1  0
  2 15  1  0
 14  3  2  0
 10  4  2  0
  4 17  1  0
  8  5  1  0
 17  5  2  0
  7  6  1  0
  8  7  1  0
  9  8  2  0
 10  9  1  0
 11 10  1  0
 12 11  1  0
 13 12  1  0
 13 14  1  0
 13 16  2  0
M  END
$$$$
