
     RDKit          3D

 17 18  0  0  0  0  0  0  0  0999 V2000
  -12.9452   12.0603  -22.6121 C   0  0  0  0  0  0  0  0  0  0  0  0
  -12.7919   10.0923  -21.6660 N   0  0  0  0  0  0  0  0  0  0  0  0
  -12.7958    9.8947  -22.9862 C   0  0  0  0  0  0  0  0  0  0  0  0
  -12.5348    9.1935  -29.5117 C   0  0  0  0  0  0  0  0  0  0  0  0
  -11.2917    7.1719  -29.6161 C   0  0  0  0  0  0  0  0  0  0  0  0
   -9.7547    5.1776  -28.2912 C   0  0  0  0  0  0  0  0  0  0  0  0
  -10.3622    6.2473  -27.6354 O   0  0  0  0  0  0  0  0  0  0  0  0
  -11.0930    7.2425  -28.2524 C   0  0  0  0  0  0  0  0  0  0  0  0
  -11.6301    8.3082  -27.5334 C   0  0  0  0  0  0  0  0  0  0  0  0
  -12.3581    9.3023  -28.1366 C   0  0  0  0  0  0  0  0  0  0  0  0
  -12.9063   10.4197  -27.3734 C   0  0  0  0  0  0  0  0  0  0  0  0
  -12.8302   10.3386  -25.9915 O   0  0  0  0  0  0  0  0  0  0  0  0
  -12.9264   11.3291  -25.0611 C   0  0  0  0  0  0  0  0  0  0  0  0
  -12.8911   11.1107  -23.6119 C   0  0  0  0  0  0  0  0  0  0  0  0
  -12.8818   11.3922  -21.4567 N   0  0  0  0  0  0  0  0  0  0  0  0
  -13.0535   12.5057  -25.4632 O   0  0  0  0  0  0  0  0  0  0  0  0
  -12.0243    8.1645  -30.2521 C   0  0  0  0  0  0  0  0  0  0  0  0
 14  1  1  0
  1 15  2  0
  3  2  1  0
  2 15  1  0
 14  3  2  0
 10  4  2  0
  4 17  1  0
  8  5  1  0
 17  5  2  0
  6  7  1  1
  8  7  1  0
  9  8  2  0
 10  9  1  0
 11 10  1  0
 11 12  1  6
 13 12  1  0
 13 14  1  0
 13 16  2  0
M  END
$$$$
