
     RDKit          3D

 17 18  0  0  0  0  0  0  0  0999 V2000
  -12.6112   11.2800  -22.4586 C   0  0  0  0  0  0  0  0  0  0  0  0
  -12.9641    9.1716  -21.9391 N   0  0  0  0  0  0  0  0  0  0  0  0
  -13.1022    9.2981  -23.2925 C   0  0  0  0  0  0  0  0  0  0  0  0
  -12.0975   10.3482  -29.4960 C   0  0  0  0  0  0  0  0  0  0  0  0
  -11.7683    8.2176  -30.5084 C   0  0  0  0  0  0  0  0  0  0  0  0
  -11.9929    5.4374  -28.5513 C   0  0  0  0  0  0  0  0  0  0  0  0
  -12.6926    6.2687  -29.4568 O   0  0  0  0  0  0  0  0  0  0  0  0
  -12.4833    7.6313  -29.4867 C   0  0  0  0  0  0  0  0  0  0  0  0
  -12.9951    8.4370  -28.4784 C   0  0  0  0  0  0  0  0  0  0  0  0
  -12.8302    9.7922  -28.4393 C   0  0  0  0  0  0  0  0  0  0  0  0
  -13.3173   10.7147  -27.4169 C   0  0  0  0  0  0  0  0  0  0  0  0
  -13.1523   10.3070  -26.0871 O   0  0  0  0  0  0  0  0  0  0  0  0
  -12.9467   11.1360  -25.0076 C   0  0  0  0  0  0  0  0  0  0  0  0
  -12.8836   10.6141  -23.6305 C   0  0  0  0  0  0  0  0  0  0  0  0
  -12.6689   10.3729  -21.4537 N   0  0  0  0  0  0  0  0  0  0  0  0
  -12.8129   12.3656  -25.2366 O   0  0  0  0  0  0  0  0  0  0  0  0
  -11.5687    9.5937  -30.5196 C   0  0  0  0  0  0  0  0  0  0  0  0
 14  1  1  0
  1 15  2  0
  3  2  1  0
  2 15  1  0
 14  3  2  0
 10  4  2  0
  4 17  1  0
  8  5  1  0
 17  5  2  0
  7  6  1  0
  8  7  1  0
  9  8  2  0
 10  9  1  0
 11 10  1  0
 12 11  1  0
 13 12  1  0
 13 14  1  0
 13 16  2  0
M  END
$$$$
