
     RDKit          3D

 17 18  0  0  0  0  0  0  0  0999 V2000
  -18.4193   18.3357  -13.8433 C   0  0  0  0  0  0  0  0  0  0  0  0
  -18.9982   16.2166  -13.7256 N   0  0  0  0  0  0  0  0  0  0  0  0
  -20.0788   16.9670  -13.3566 C   0  0  0  0  0  0  0  0  0  0  0  0
  -24.3385   20.3941  -10.2865 C   0  0  0  0  0  0  0  0  0  0  0  0
  -26.2039   18.9661   -9.8938 C   0  0  0  0  0  0  0  0  0  0  0  0
  -26.3354   16.4464  -12.5983 C   0  0  0  0  0  0  0  0  0  0  0  0
  -26.6320   17.1583  -11.4127 O   0  0  0  0  0  0  0  0  0  0  0  0
  -25.8768   18.2434  -11.0206 C   0  0  0  0  0  0  0  0  0  0  0  0
  -24.7674   18.6249  -11.7631 C   0  0  0  0  0  0  0  0  0  0  0  0
  -23.9715   19.6863  -11.4384 C   0  0  0  0  0  0  0  0  0  0  0  0
  -22.7988   20.1685  -12.1635 C   0  0  0  0  0  0  0  0  0  0  0  0
  -21.9126   19.1882  -12.6278 O   0  0  0  0  0  0  0  0  0  0  0  0
  -20.6387   19.4092  -13.1001 C   0  0  0  0  0  0  0  0  0  0  0  0
  -19.7289   18.2962  -13.4262 C   0  0  0  0  0  0  0  0  0  0  0  0
  -18.0093   17.0557  -14.0149 N   0  0  0  0  0  0  0  0  0  0  0  0
  -20.2724   20.6037  -13.2460 O   0  0  0  0  0  0  0  0  0  0  0  0
  -25.4290   20.0571   -9.5158 C   0  0  0  0  0  0  0  0  0  0  0  0
 14  1  1  0
  1 15  2  0
  3  2  1  0
  2 15  1  0
 14  3  2  0
 10  4  2  0
  4 17  1  0
  8  5  1  0
 17  5  2  0
  7  6  1  0
  8  7  1  0
  9  8  2  0
 10  9  1  0
 11 10  1  0
 12 11  1  0
 13 12  1  0
 13 14  1  0
 13 16  2  0
M  END
$$$$
