
     RDKit          3D

 17 18  0  0  0  0  0  0  0  0999 V2000
  -20.0129   20.9072   -5.8337 C   0  0  0  0  0  0  0  0  0  0  0  0
  -20.2831   18.7786   -5.3483 N   0  0  0  0  0  0  0  0  0  0  0  0
  -21.2789   19.1410   -6.2106 C   0  0  0  0  0  0  0  0  0  0  0  0
  -25.3807   19.3120   -9.0680 C   0  0  0  0  0  0  0  0  0  0  0  0
  -26.5304   18.4729  -10.9777 C   0  0  0  0  0  0  0  0  0  0  0  0
  -27.1037   18.6579  -13.7374 C   0  0  0  0  0  0  0  0  0  0  0  0
  -26.1572   19.5031  -13.1127 O   0  0  0  0  0  0  0  0  0  0  0  0
  -25.9100   19.4240  -11.7583 C   0  0  0  0  0  0  0  0  0  0  0  0
  -25.0248   20.3099  -11.1589 C   0  0  0  0  0  0  0  0  0  0  0  0
  -24.7289   20.2937   -9.8257 C   0  0  0  0  0  0  0  0  0  0  0  0
  -23.8264   21.1902   -9.1077 C   0  0  0  0  0  0  0  0  0  0  0  0
  -23.0261   20.6015   -8.1205 O   0  0  0  0  0  0  0  0  0  0  0  0
  -22.0097   21.2207   -7.4291 C   0  0  0  0  0  0  0  0  0  0  0  0
  -21.1208   20.4722   -6.5222 C   0  0  0  0  0  0  0  0  0  0  0  0
  -19.5311   19.8527   -5.1325 N   0  0  0  0  0  0  0  0  0  0  0  0
  -21.8623   22.4585   -7.5979 O   0  0  0  0  0  0  0  0  0  0  0  0
  -26.2671   18.4102   -9.6138 C   0  0  0  0  0  0  0  0  0  0  0  0
 14  1  1  0
  1 15  2  0
  3  2  1  0
  2 15  1  0
 14  3  2  0
 10  4  2  0
  4 17  1  0
  8  5  1  0
 17  5  2  0
  7  6  1  0
  8  7  1  0
  9  8  2  0
 10  9  1  0
 11 10  1  0
 12 11  1  0
 13 12  1  0
 13 14  1  0
 13 16  2  0
M  END
$$$$
