
     RDKit          3D

 17 18  0  0  0  0  0  0  0  0999 V2000
  -13.2443   10.1942  -21.9572 C   0  0  0  0  0  0  0  0  0  0  0  0
  -12.0390   12.0281  -22.1113 N   0  0  0  0  0  0  0  0  0  0  0  0
  -12.1387   11.4863  -23.3616 C   0  0  0  0  0  0  0  0  0  0  0  0
  -12.2515   10.5319  -28.5793 C   0  0  0  0  0  0  0  0  0  0  0  0
  -10.5881   10.0394  -30.2114 C   0  0  0  0  0  0  0  0  0  0  0  0
   -9.6364    6.4971  -29.9226 C   0  0  0  0  0  0  0  0  0  0  0  0
   -9.5393    7.8812  -30.1969 O   0  0  0  0  0  0  0  0  0  0  0  0
  -10.4412    8.7811  -29.6693 C   0  0  0  0  0  0  0  0  0  0  0  0
  -11.2196    8.4273  -28.5754 C   0  0  0  0  0  0  0  0  0  0  0  0
  -12.1333    9.2625  -27.9985 C   0  0  0  0  0  0  0  0  0  0  0  0
  -12.9821    8.9840  -26.8428 C   0  0  0  0  0  0  0  0  0  0  0  0
  -12.7181    9.7305  -25.6875 O   0  0  0  0  0  0  0  0  0  0  0  0
  -13.2157    9.4755  -24.4297 C   0  0  0  0  0  0  0  0  0  0  0  0
  -12.8914   10.3371  -23.2784 C   0  0  0  0  0  0  0  0  0  0  0  0
  -12.7095   11.2383  -21.2791 N   0  0  0  0  0  0  0  0  0  0  0  0
  -13.9635    8.4734  -24.2930 O   0  0  0  0  0  0  0  0  0  0  0  0
  -11.5034   10.9319  -29.6642 C   0  0  0  0  0  0  0  0  0  0  0  0
 14  1  1  0
  1 15  2  0
  3  2  1  0
  2 15  1  0
 14  3  2  0
 10  4  2  0
  4 17  1  0
  8  5  1  0
 17  5  2  0
  7  6  1  0
  8  7  1  0
  9  8  2  0
 10  9  1  0
 11 10  1  0
 12 11  1  0
 13 12  1  0
 13 14  1  0
 13 16  2  0
M  END
$$$$
