
     RDKit          3D

 17 18  0  0  0  0  0  0  0  0999 V2000
  -13.3016   10.5015  -22.1405 C   0  0  0  0  0  0  0  0  0  0  0  0
  -12.0949   12.2821  -22.5471 N   0  0  0  0  0  0  0  0  0  0  0  0
  -12.1967   11.6059  -23.6935 C   0  0  0  0  0  0  0  0  0  0  0  0
  -12.0182    7.8951  -28.8988 C   0  0  0  0  0  0  0  0  0  0  0  0
  -11.3516    9.4249  -30.5897 C   0  0  0  0  0  0  0  0  0  0  0  0
  -11.6287   12.8919  -29.5365 C   0  0  0  0  0  0  0  0  0  0  0  0
  -11.7699   11.7474  -30.3198 O   0  0  0  0  0  0  0  0  0  0  0  0
  -11.8598   10.4596  -29.8312 C   0  0  0  0  0  0  0  0  0  0  0  0
  -12.4480   10.1845  -28.5985 C   0  0  0  0  0  0  0  0  0  0  0  0
  -12.5422    8.9085  -28.1035 C   0  0  0  0  0  0  0  0  0  0  0  0
  -13.1709    8.6323  -26.8151 C   0  0  0  0  0  0  0  0  0  0  0  0
  -12.9485    9.5444  -25.7951 O   0  0  0  0  0  0  0  0  0  0  0  0
  -13.2944    9.4711  -24.4795 C   0  0  0  0  0  0  0  0  0  0  0  0
  -12.9488   10.4808  -23.4745 C   0  0  0  0  0  0  0  0  0  0  0  0
  -12.7605   11.6100  -21.6268 N   0  0  0  0  0  0  0  0  0  0  0  0
  -13.9508    8.4787  -24.0966 O   0  0  0  0  0  0  0  0  0  0  0  0
  -11.4340    8.1239  -30.1130 C   0  0  0  0  0  0  0  0  0  0  0  0
 14  1  1  0
  1 15  2  0
  3  2  1  0
  2 15  1  0
 14  3  2  0
 10  4  2  0
  4 17  1  0
  8  5  1  0
 17  5  2  0
  6  7  1  1
  8  7  1  0
  9  8  2  0
 10  9  1  0
 11 10  1  0
 11 12  1  6
 13 12  1  0
 13 14  1  0
 13 16  2  0
M  END
$$$$
