
     RDKit          3D

 17 18  0  0  0  0  0  0  0  0999 V2000
  -13.1566    9.9418  -22.0966 C   0  0  0  0  0  0  0  0  0  0  0  0
  -12.2356   11.8848  -21.6320 N   0  0  0  0  0  0  0  0  0  0  0  0
  -12.3767   11.8020  -22.9885 C   0  0  0  0  0  0  0  0  0  0  0  0
  -11.9967   11.1247  -29.0270 C   0  0  0  0  0  0  0  0  0  0  0  0
  -11.9231   13.2227  -30.1521 C   0  0  0  0  0  0  0  0  0  0  0  0
  -13.7093   15.5771  -30.5752 C   0  0  0  0  0  0  0  0  0  0  0  0
  -13.2786   15.0305  -29.3439 O   0  0  0  0  0  0  0  0  0  0  0  0
  -12.8384   13.7267  -29.2537 C   0  0  0  0  0  0  0  0  0  0  0  0
  -13.3162   12.8982  -28.2473 C   0  0  0  0  0  0  0  0  0  0  0  0
  -12.9277   11.5979  -28.0932 C   0  0  0  0  0  0  0  0  0  0  0  0
  -13.3846   10.6512  -27.0791 C   0  0  0  0  0  0  0  0  0  0  0  0
  -13.0264   10.9411  -25.7565 O   0  0  0  0  0  0  0  0  0  0  0  0
  -13.2616   10.1404  -24.6618 C   0  0  0  0  0  0  0  0  0  0  0  0
  -12.9525   10.5895  -23.2922 C   0  0  0  0  0  0  0  0  0  0  0  0
  -12.7096   10.7578  -21.1116 N   0  0  0  0  0  0  0  0  0  0  0  0
  -13.7536    9.0017  -24.8700 O   0  0  0  0  0  0  0  0  0  0  0  0
  -11.4922   11.9051  -30.0435 C   0  0  0  0  0  0  0  0  0  0  0  0
 14  1  1  0
  1 15  2  0
  3  2  1  0
  2 15  1  0
 14  3  2  0
 10  4  2  0
  4 17  1  0
  8  5  1  0
 17  5  2  0
  7  6  1  0
  8  7  1  0
  9  8  2  0
 10  9  1  0
 11 10  1  0
 12 11  1  0
 13 12  1  0
 13 14  1  0
 13 16  2  0
M  END
$$$$
