
     RDKit          3D

 17 18  0  0  0  0  0  0  0  0999 V2000
  -14.2924   10.9343  -22.6689 C   0  0  0  0  0  0  0  0  0  0  0  0
  -12.1707   11.0140  -22.0930 N   0  0  0  0  0  0  0  0  0  0  0  0
  -12.2313   10.9016  -23.4533 C   0  0  0  0  0  0  0  0  0  0  0  0
  -11.6073    9.0207  -28.2608 C   0  0  0  0  0  0  0  0  0  0  0  0
  -10.1553    9.3817  -30.1139 C   0  0  0  0  0  0  0  0  0  0  0  0
   -9.0856   11.4689  -31.8415 C   0  0  0  0  0  0  0  0  0  0  0  0
  -10.4414   11.3497  -31.4568 O   0  0  0  0  0  0  0  0  0  0  0  0
  -10.8172   10.5579  -30.3923 C   0  0  0  0  0  0  0  0  0  0  0  0
  -11.8768   10.9392  -29.5803 C   0  0  0  0  0  0  0  0  0  0  0  0
  -12.3066   10.2090  -28.5090 C   0  0  0  0  0  0  0  0  0  0  0  0
  -13.4155   10.5219  -27.6114 C   0  0  0  0  0  0  0  0  0  0  0  0
  -13.1585   10.3880  -26.2411 O   0  0  0  0  0  0  0  0  0  0  0  0
  -14.0173   10.7294  -25.2209 C   0  0  0  0  0  0  0  0  0  0  0  0
  -13.5550   10.8508  -23.8265 C   0  0  0  0  0  0  0  0  0  0  0  0
  -13.4189   11.0322  -21.6376 N   0  0  0  0  0  0  0  0  0  0  0  0
  -15.2214   10.9365  -25.5200 O   0  0  0  0  0  0  0  0  0  0  0  0
  -10.5502    8.5977  -29.0355 C   0  0  0  0  0  0  0  0  0  0  0  0
 14  1  1  0
  1 15  2  0
  3  2  1  0
  2 15  1  0
 14  3  2  0
 10  4  2  0
  4 17  1  0
  8  5  1  0
 17  5  2  0
  7  6  1  0
  8  7  1  0
  9  8  2  0
 10  9  1  0
 11 10  1  0
 12 11  1  0
 13 12  1  0
 13 14  1  0
 13 16  2  0
M  END
$$$$
