
     RDKit          3D

 17 18  0  0  0  0  0  0  0  0999 V2000
  -18.2571   18.1557  -12.4737 C   0  0  0  0  0  0  0  0  0  0  0  0
  -17.1531   16.8979  -13.8847 N   0  0  0  0  0  0  0  0  0  0  0  0
  -18.3897   17.0384  -14.3675 C   0  0  0  0  0  0  0  0  0  0  0  0
  -24.4556   20.2190  -11.5076 C   0  0  0  0  0  0  0  0  0  0  0  0
  -24.2103   21.0468   -9.2944 C   0  0  0  0  0  0  0  0  0  0  0  0
  -20.6844   21.4354   -8.3719 C   0  0  0  0  0  0  0  0  0  0  0  0
  -22.0529   21.1773   -8.3092 O   0  0  0  0  0  0  0  0  0  0  0  0
  -22.8476   20.8515   -9.3897 C   0  0  0  0  0  0  0  0  0  0  0  0
  -22.3074   20.3339  -10.5651 C   0  0  0  0  0  0  0  0  0  0  0  0
  -23.0880   20.0071  -11.6449 C   0  0  0  0  0  0  0  0  0  0  0  0
  -22.5108   19.4551  -12.8670 C   0  0  0  0  0  0  0  0  0  0  0  0
  -21.2023   19.0024  -12.7993 O   0  0  0  0  0  0  0  0  0  0  0  0
  -20.5134   18.2162  -13.6730 C   0  0  0  0  0  0  0  0  0  0  0  0
  -19.1110   17.8233  -13.5055 C   0  0  0  0  0  0  0  0  0  0  0  0
  -17.0880   17.5714  -12.7517 N   0  0  0  0  0  0  0  0  0  0  0  0
  -21.1113   17.7982  -14.6880 O   0  0  0  0  0  0  0  0  0  0  0  0
  -25.0237   20.7243  -10.3719 C   0  0  0  0  0  0  0  0  0  0  0  0
 14  1  1  0
  1 15  2  0
  3  2  1  0
  2 15  1  0
 14  3  2  0
 10  4  2  0
  4 17  1  0
  8  5  1  0
 17  5  2  0
  6  7  1  1
  8  7  1  0
  9  8  2  0
 10  9  1  0
 11 10  1  0
 11 12  1  6
 13 12  1  0
 13 14  1  0
 13 16  2  0
M  END
$$$$
