
     RDKit          3D

 17 18  0  0  0  0  0  0  0  0999 V2000
  -19.2203   17.3949  -12.5396 C   0  0  0  0  0  0  0  0  0  0  0  0
  -17.5537   17.4610  -13.9573 N   0  0  0  0  0  0  0  0  0  0  0  0
  -18.5308   18.2167  -14.4635 C   0  0  0  0  0  0  0  0  0  0  0  0
  -23.5943   20.3955  -10.6426 C   0  0  0  0  0  0  0  0  0  0  0  0
  -25.4653   19.6552   -9.3797 C   0  0  0  0  0  0  0  0  0  0  0  0
  -27.7921   18.0303   -9.1831 C   0  0  0  0  0  0  0  0  0  0  0  0
  -26.9455   18.0363  -10.2907 O   0  0  0  0  0  0  0  0  0  0  0  0
  -25.8188   18.8226  -10.4218 C   0  0  0  0  0  0  0  0  0  0  0  0
  -25.0370   18.7938  -11.5748 C   0  0  0  0  0  0  0  0  0  0  0  0
  -23.9152   19.5708  -11.7154 C   0  0  0  0  0  0  0  0  0  0  0  0
  -23.1106   19.5395  -12.9332 C   0  0  0  0  0  0  0  0  0  0  0  0
  -21.8302   19.0181  -12.8313 O   0  0  0  0  0  0  0  0  0  0  0  0
  -20.8658   18.9017  -13.7864 C   0  0  0  0  0  0  0  0  0  0  0  0
  -19.5939   18.1976  -13.5981 C   0  0  0  0  0  0  0  0  0  0  0  0
  -17.9799   16.9758  -12.8064 N   0  0  0  0  0  0  0  0  0  0  0  0
  -21.0729   19.4285  -14.9009 O   0  0  0  0  0  0  0  0  0  0  0  0
  -24.3351   20.4525   -9.4955 C   0  0  0  0  0  0  0  0  0  0  0  0
 14  1  1  0
  1 15  2  0
  3  2  1  0
  2 15  1  0
 14  3  2  0
 10  4  2  0
  4 17  1  0
  8  5  1  0
 17  5  2  0
  6  7  1  1
  8  7  1  0
  9  8  2  0
 10  9  1  0
 11 10  1  0
 11 12  1  6
 13 12  1  0
 13 14  1  0
 13 16  2  0
M  END
$$$$
