
     RDKit          3D

 17 18  0  0  0  0  0  0  0  0999 V2000
  -17.5817   18.1882  -13.8095 C   0  0  0  0  0  0  0  0  0  0  0  0
  -17.9727   16.0560  -13.4351 N   0  0  0  0  0  0  0  0  0  0  0  0
  -19.1611   16.7231  -13.3374 C   0  0  0  0  0  0  0  0  0  0  0  0
  -24.2799   18.2287  -13.0617 C   0  0  0  0  0  0  0  0  0  0  0  0
  -25.8830   18.2547  -11.3003 C   0  0  0  0  0  0  0  0  0  0  0  0
  -24.9655   20.9376   -8.9255 C   0  0  0  0  0  0  0  0  0  0  0  0
  -25.6308   19.8368   -9.5137 O   0  0  0  0  0  0  0  0  0  0  0  0
  -25.1941   19.2864  -10.7003 C   0  0  0  0  0  0  0  0  0  0  0  0
  -24.0444   19.7691  -11.3107 C   0  0  0  0  0  0  0  0  0  0  0  0
  -23.5504   19.2764  -12.4849 C   0  0  0  0  0  0  0  0  0  0  0  0
  -22.3467   19.7090  -13.1903 C   0  0  0  0  0  0  0  0  0  0  0  0
  -21.2757   18.8066  -13.1965 O   0  0  0  0  0  0  0  0  0  0  0  0
  -19.9770   19.0965  -13.5490 C   0  0  0  0  0  0  0  0  0  0  0  0
  -18.9295   18.0596  -13.5699 C   0  0  0  0  0  0  0  0  0  0  0  0
  -17.0338   16.9522  -13.7195 N   0  0  0  0  0  0  0  0  0  0  0  0
  -19.7104   20.2869  -13.8559 O   0  0  0  0  0  0  0  0  0  0  0  0
  -25.4256   17.7138  -12.4969 C   0  0  0  0  0  0  0  0  0  0  0  0
 14  1  1  0
  1 15  2  0
  3  2  1  0
  2 15  1  0
 14  3  2  0
 10  4  2  0
  4 17  1  0
  8  5  1  0
 17  5  2  0
  7  6  1  0
  8  7  1  0
  9  8  2  0
 10  9  1  0
 11 10  1  0
 12 11  1  0
 13 12  1  0
 13 14  1  0
 13 16  2  0
M  END
$$$$
