
     RDKit          3D

 17 18  0  0  0  0  0  0  0  0999 V2000
  -19.1569   21.7796   -5.8815 C   0  0  0  0  0  0  0  0  0  0  0  0
  -17.9151   20.5765   -7.2239 N   0  0  0  0  0  0  0  0  0  0  0  0
  -19.1698   20.4984   -7.6732 C   0  0  0  0  0  0  0  0  0  0  0  0
  -25.2809   19.4746   -9.2884 C   0  0  0  0  0  0  0  0  0  0  0  0
  -25.0737   18.7052  -11.5264 C   0  0  0  0  0  0  0  0  0  0  0  0
  -21.8474   19.7288  -12.9879 C   0  0  0  0  0  0  0  0  0  0  0  0
  -23.1488   19.2660  -12.8000 O   0  0  0  0  0  0  0  0  0  0  0  0
  -23.8539   19.3440  -11.6160 C   0  0  0  0  0  0  0  0  0  0  0  0
  -23.3640   20.0484  -10.5182 C   0  0  0  0  0  0  0  0  0  0  0  0
  -24.0564   20.1321   -9.3368 C   0  0  0  0  0  0  0  0  0  0  0  0
  -23.5371   20.8827   -8.1973 C   0  0  0  0  0  0  0  0  0  0  0  0
  -22.1620   20.8941   -8.0221 O   0  0  0  0  0  0  0  0  0  0  0  0
  -21.4250   21.4171   -7.0026 C   0  0  0  0  0  0  0  0  0  0  0  0
  -19.9771   21.2430   -6.8529 C   0  0  0  0  0  0  0  0  0  0  0  0
  -17.9223   21.3460   -6.1518 N   0  0  0  0  0  0  0  0  0  0  0  0
  -22.0169   22.0920   -6.1328 O   0  0  0  0  0  0  0  0  0  0  0  0
  -25.7955   18.7738  -10.3429 C   0  0  0  0  0  0  0  0  0  0  0  0
 14  1  1  0
  1 15  2  0
  3  2  1  0
  2 15  1  0
 14  3  2  0
 10  4  2  0
  4 17  1  0
  8  5  1  0
 17  5  2  0
  6  7  1  1
  8  7  1  0
  9  8  2  0
 10  9  1  0
 11 10  1  0
 11 12  1  6
 13 12  1  0
 13 14  1  0
 13 16  2  0
M  END
$$$$
