
     RDKit          3D

 17 18  0  0  0  0  0  0  0  0999 V2000
  -19.9244   16.5991  -12.9669 C   0  0  0  0  0  0  0  0  0  0  0  0
  -17.8171   16.8990  -13.5229 N   0  0  0  0  0  0  0  0  0  0  0  0
  -18.3616   18.1259  -13.2682 C   0  0  0  0  0  0  0  0  0  0  0  0
  -24.9476   18.7056  -11.9426 C   0  0  0  0  0  0  0  0  0  0  0  0
  -26.4459   18.1809  -10.1670 C   0  0  0  0  0  0  0  0  0  0  0  0
  -26.9398   18.0382   -7.3836 C   0  0  0  0  0  0  0  0  0  0  0  0
  -25.8280   18.7326   -7.9148 O   0  0  0  0  0  0  0  0  0  0  0  0
  -25.5508   18.7148   -9.2655 C   0  0  0  0  0  0  0  0  0  0  0  0
  -24.3554   19.2392   -9.7383 C   0  0  0  0  0  0  0  0  0  0  0  0
  -24.0105   19.2579  -11.0597 C   0  0  0  0  0  0  0  0  0  0  0  0
  -22.7755   19.7727  -11.6456 C   0  0  0  0  0  0  0  0  0  0  0  0
  -21.8891   18.8171  -12.1582 O   0  0  0  0  0  0  0  0  0  0  0  0
  -20.5977   19.0530  -12.5722 C   0  0  0  0  0  0  0  0  0  0  0  0
  -19.6813   17.9517  -12.9188 C   0  0  0  0  0  0  0  0  0  0  0  0
  -18.7708   15.9925  -13.3370 N   0  0  0  0  0  0  0  0  0  0  0  0
  -20.2210   20.2509  -12.6459 O   0  0  0  0  0  0  0  0  0  0  0  0
  -26.1470   18.1728  -11.5250 C   0  0  0  0  0  0  0  0  0  0  0  0
 14  1  1  0
  1 15  2  0
  3  2  1  0
  2 15  1  0
 14  3  2  0
 10  4  2  0
  4 17  1  0
  8  5  1  0
 17  5  2  0
  7  6  1  0
  8  7  1  0
  9  8  2  0
 10  9  1  0
 11 10  1  0
 12 11  1  0
 13 12  1  0
 13 14  1  0
 13 16  2  0
M  END
$$$$
