
     RDKit          3D

 17 18  0  0  0  0  0  0  0  0999 V2000
  -18.1231   16.0497  -13.7108 C   0  0  0  0  0  0  0  0  0  0  0  0
  -17.0304   17.9451  -13.6399 N   0  0  0  0  0  0  0  0  0  0  0  0
  -18.3155   18.2232  -13.4093 C   0  0  0  0  0  0  0  0  0  0  0  0
  -23.1597   20.3827  -12.5140 C   0  0  0  0  0  0  0  0  0  0  0  0
  -24.3214   21.3575  -10.6854 C   0  0  0  0  0  0  0  0  0  0  0  0
  -24.7459   19.0358   -7.9099 C   0  0  0  0  0  0  0  0  0  0  0  0
  -25.0397   19.9972   -8.8757 O   0  0  0  0  0  0  0  0  0  0  0  0
  -24.4063   20.1125  -10.0966 C   0  0  0  0  0  0  0  0  0  0  0  0
  -23.8553   19.0074  -10.7418 C   0  0  0  0  0  0  0  0  0  0  0  0
  -23.2234   19.1108  -11.9551 C   0  0  0  0  0  0  0  0  0  0  0  0
  -22.6598   17.9431  -12.6261 C   0  0  0  0  0  0  0  0  0  0  0  0
  -21.2948   17.9512  -12.8683 O   0  0  0  0  0  0  0  0  0  0  0  0
  -20.4773   16.9276  -13.2422 C   0  0  0  0  0  0  0  0  0  0  0  0
  -19.0312   17.0546  -13.4466 C   0  0  0  0  0  0  0  0  0  0  0  0
  -16.9300   16.6414  -13.8185 N   0  0  0  0  0  0  0  0  0  0  0  0
  -20.9880   15.8015  -13.4250 O   0  0  0  0  0  0  0  0  0  0  0  0
  -23.6877   21.4908  -11.9131 C   0  0  0  0  0  0  0  0  0  0  0  0
 14  1  1  0
  1 15  2  0
  3  2  1  0
  2 15  1  0
 14  3  2  0
 10  4  2  0
  4 17  1  0
  8  5  1  0
 17  5  2  0
  6  7  1  1
  8  7  1  0
  9  8  2  0
 10  9  1  0
 11 10  1  0
 11 12  1  6
 13 12  1  0
 13 14  1  0
 13 16  2  0
M  END
$$$$
