
     RDKit          3D

 17 18  0  0  0  0  0  0  0  0999 V2000
  -21.7344   19.2913   -5.7648 C   0  0  0  0  0  0  0  0  0  0  0  0
  -21.6207   18.1774   -3.8838 N   0  0  0  0  0  0  0  0  0  0  0  0
  -22.9062   18.2143   -4.2419 C   0  0  0  0  0  0  0  0  0  0  0  0
  -25.6035   19.5312  -10.7021 C   0  0  0  0  0  0  0  0  0  0  0  0
  -24.7232   21.1049  -12.2487 C   0  0  0  0  0  0  0  0  0  0  0  0
  -22.4497   23.1602  -12.2105 C   0  0  0  0  0  0  0  0  0  0  0  0
  -23.6189   23.0539  -11.4588 O   0  0  0  0  0  0  0  0  0  0  0  0
  -24.2835   21.8742  -11.1908 C   0  0  0  0  0  0  0  0  0  0  0  0
  -24.5179   21.4471   -9.8855 C   0  0  0  0  0  0  0  0  0  0  0  0
  -25.1770   20.2764   -9.6081 C   0  0  0  0  0  0  0  0  0  0  0  0
  -25.4261   19.8454   -8.2356 C   0  0  0  0  0  0  0  0  0  0  0  0
  -24.3182   19.6198   -7.4334 O   0  0  0  0  0  0  0  0  0  0  0  0
  -24.2586   19.1718   -6.1482 C   0  0  0  0  0  0  0  0  0  0  0  0
  -23.0141   18.9069   -5.4200 C   0  0  0  0  0  0  0  0  0  0  0  0
  -20.9313   18.8254   -4.8039 N   0  0  0  0  0  0  0  0  0  0  0  0
  -25.3337   18.9711   -5.5431 O   0  0  0  0  0  0  0  0  0  0  0  0
  -25.3932   19.9157  -11.9966 C   0  0  0  0  0  0  0  0  0  0  0  0
 14  1  1  0
  1 15  2  0
  3  2  1  0
  2 15  1  0
 14  3  2  0
 10  4  2  0
  4 17  1  0
  8  5  1  0
 17  5  2  0
  6  7  1  1
  8  7  1  0
  9  8  2  0
 10  9  1  0
 11 10  1  0
 11 12  1  6
 13 12  1  0
 13 14  1  0
 13 16  2  0
M  END
$$$$
