
     RDKit          3D

 17 18  0  0  0  0  0  0  0  0999 V2000
  -13.7172   12.0320  -22.8072 C   0  0  0  0  0  0  0  0  0  0  0  0
  -12.2321   10.7270  -21.8424 N   0  0  0  0  0  0  0  0  0  0  0  0
  -12.2692   10.4086  -23.1706 C   0  0  0  0  0  0  0  0  0  0  0  0
  -12.2774    9.2405  -29.5318 C   0  0  0  0  0  0  0  0  0  0  0  0
  -10.8725    7.3248  -29.7028 C   0  0  0  0  0  0  0  0  0  0  0  0
   -9.3540    5.3173  -28.4089 C   0  0  0  0  0  0  0  0  0  0  0  0
  -10.2705    6.1351  -27.7077 O   0  0  0  0  0  0  0  0  0  0  0  0
  -10.9350    7.1677  -28.3352 C   0  0  0  0  0  0  0  0  0  0  0  0
  -11.6822    8.0700  -27.5902 C   0  0  0  0  0  0  0  0  0  0  0  0
  -12.3672    9.1162  -28.1393 C   0  0  0  0  0  0  0  0  0  0  0  0
  -13.1638   10.1194  -27.4373 C   0  0  0  0  0  0  0  0  0  0  0  0
  -12.9053   10.2673  -26.0687 O   0  0  0  0  0  0  0  0  0  0  0  0
  -13.5143   11.1677  -25.2242 C   0  0  0  0  0  0  0  0  0  0  0  0
  -13.1957   11.2192  -23.7859 C   0  0  0  0  0  0  0  0  0  0  0  0
  -13.1090   11.7049  -21.6414 N   0  0  0  0  0  0  0  0  0  0  0  0
  -14.3599   11.9530  -25.7246 O   0  0  0  0  0  0  0  0  0  0  0  0
  -11.5501    8.3729  -30.3160 C   0  0  0  0  0  0  0  0  0  0  0  0
 14  1  1  0
  1 15  2  0
  3  2  1  0
  2 15  1  0
 14  3  2  0
 10  4  2  0
  4 17  1  0
  8  5  1  0
 17  5  2  0
  7  6  1  0
  8  7  1  0
  9  8  2  0
 10  9  1  0
 11 10  1  0
 12 11  1  0
 13 12  1  0
 13 14  1  0
 13 16  2  0
M  END
$$$$
