
     RDKit          3D

 17 18  0  0  0  0  0  0  0  0999 V2000
  -18.4141   17.0313  -14.7226 C   0  0  0  0  0  0  0  0  0  0  0  0
  -17.4161   16.6740  -12.8074 N   0  0  0  0  0  0  0  0  0  0  0  0
  -18.5376   17.3494  -12.5464 C   0  0  0  0  0  0  0  0  0  0  0  0
  -24.3294   19.9831  -11.3923 C   0  0  0  0  0  0  0  0  0  0  0  0
  -24.0961   20.5476   -9.0966 C   0  0  0  0  0  0  0  0  0  0  0  0
  -20.6028   21.1307   -8.1787 C   0  0  0  0  0  0  0  0  0  0  0  0
  -21.9328   20.7158   -8.1304 O   0  0  0  0  0  0  0  0  0  0  0  0
  -22.7253   20.4675   -9.2329 C   0  0  0  0  0  0  0  0  0  0  0  0
  -22.1750   20.1404  -10.4704 C   0  0  0  0  0  0  0  0  0  0  0  0
  -22.9534   19.8921  -11.5724 C   0  0  0  0  0  0  0  0  0  0  0  0
  -22.3648   19.5395  -12.8611 C   0  0  0  0  0  0  0  0  0  0  0  0
  -21.1771   18.8248  -12.8387 O   0  0  0  0  0  0  0  0  0  0  0  0
  -20.4609   18.3062  -13.8751 C   0  0  0  0  0  0  0  0  0  0  0  0
  -19.1898   17.5909  -13.7278 C   0  0  0  0  0  0  0  0  0  0  0  0
  -17.3552   16.4907  -14.1129 N   0  0  0  0  0  0  0  0  0  0  0  0
  -20.9122   18.4460  -15.0323 O   0  0  0  0  0  0  0  0  0  0  0  0
  -24.9075   20.3009  -10.1953 C   0  0  0  0  0  0  0  0  0  0  0  0
 14  1  1  0
  1 15  2  0
  3  2  1  0
  2 15  1  0
 14  3  2  0
 10  4  2  0
  4 17  1  0
  8  5  1  0
 17  5  2  0
  6  7  1  1
  8  7  1  0
  9  8  2  0
 10  9  1  0
 11 10  1  0
 11 12  1  6
 13 12  1  0
 13 14  1  0
 13 16  2  0
M  END
$$$$
