
     RDKit          3D

 17 18  0  0  0  0  0  0  0  0999 V2000
  -18.6349   17.7876  -14.6718 C   0  0  0  0  0  0  0  0  0  0  0  0
  -18.6579   16.0320  -13.3463 N   0  0  0  0  0  0  0  0  0  0  0  0
  -19.7613   16.7859  -13.0618 C   0  0  0  0  0  0  0  0  0  0  0  0
  -24.5943   18.7586  -11.7058 C   0  0  0  0  0  0  0  0  0  0  0  0
  -25.4696   19.1889   -9.5329 C   0  0  0  0  0  0  0  0  0  0  0  0
  -23.4385   21.8435   -7.9555 C   0  0  0  0  0  0  0  0  0  0  0  0
  -24.4842   20.9227   -8.1981 O   0  0  0  0  0  0  0  0  0  0  0  0
  -24.5361   20.1884   -9.3642 C   0  0  0  0  0  0  0  0  0  0  0  0
  -23.6402   20.4493  -10.3922 C   0  0  0  0  0  0  0  0  0  0  0  0
  -23.6297   19.7662  -11.5748 C   0  0  0  0  0  0  0  0  0  0  0  0
  -22.7208   19.9599  -12.7017 C   0  0  0  0  0  0  0  0  0  0  0  0
  -21.8425   18.9041  -12.9763 O   0  0  0  0  0  0  0  0  0  0  0  0
  -20.7959   18.9355  -13.8698 C   0  0  0  0  0  0  0  0  0  0  0  0
  -19.7584   17.8885  -13.8854 C   0  0  0  0  0  0  0  0  0  0  0  0
  -17.9919   16.6490  -14.3166 N   0  0  0  0  0  0  0  0  0  0  0  0
  -20.7529   19.8961  -14.6807 O   0  0  0  0  0  0  0  0  0  0  0  0
  -25.5049   18.4602  -10.7166 C   0  0  0  0  0  0  0  0  0  0  0  0
 14  1  1  0
  1 15  2  0
  3  2  1  0
  2 15  1  0
 14  3  2  0
 10  4  2  0
  4 17  1  0
  8  5  1  0
 17  5  2  0
  7  6  1  0
  8  7  1  0
  9  8  2  0
 10  9  1  0
 11 10  1  0
 12 11  1  0
 13 12  1  0
 13 14  1  0
 13 16  2  0
M  END
$$$$
