
     RDKit          3D

 17 18  0  0  0  0  0  0  0  0999 V2000
  -24.6474   16.9534   -6.4776 C   0  0  0  0  0  0  0  0  0  0  0  0
  -25.8741   16.0146   -4.9113 N   0  0  0  0  0  0  0  0  0  0  0  0
  -26.6428   16.9542   -5.5382 C   0  0  0  0  0  0  0  0  0  0  0  0
  -24.8606   19.8397  -11.3623 C   0  0  0  0  0  0  0  0  0  0  0  0
  -23.0511   21.0733  -12.2988 C   0  0  0  0  0  0  0  0  0  0  0  0
  -21.6286   23.5952  -12.1559 C   0  0  0  0  0  0  0  0  0  0  0  0
  -22.0773   22.8635  -11.0318 O   0  0  0  0  0  0  0  0  0  0  0  0
  -23.0013   21.8479  -11.1602 C   0  0  0  0  0  0  0  0  0  0  0  0
  -23.9010   21.5909  -10.1346 C   0  0  0  0  0  0  0  0  0  0  0  0
  -24.8434   20.6037  -10.1880 C   0  0  0  0  0  0  0  0  0  0  0  0
  -25.8360   20.2707   -9.1696 C   0  0  0  0  0  0  0  0  0  0  0  0
  -25.6325   19.0705   -8.4769 O   0  0  0  0  0  0  0  0  0  0  0  0
  -26.3775   18.6158   -7.4124 C   0  0  0  0  0  0  0  0  0  0  0  0
  -25.8858   17.5493   -6.5215 C   0  0  0  0  0  0  0  0  0  0  0  0
  -24.6774   16.0275   -5.4888 N   0  0  0  0  0  0  0  0  0  0  0  0
  -27.5027   19.1450   -7.2227 O   0  0  0  0  0  0  0  0  0  0  0  0
  -23.9907   20.0540  -12.4082 C   0  0  0  0  0  0  0  0  0  0  0  0
 14  1  1  0
  1 15  2  0
  3  2  1  0
  2 15  1  0
 14  3  2  0
 10  4  2  0
  4 17  1  0
  8  5  1  0
 17  5  2  0
  7  6  1  0
  8  7  1  0
  9  8  2  0
 10  9  1  0
 11 10  1  0
 12 11  1  0
 13 12  1  0
 13 14  1  0
 13 16  2  0
M  END
$$$$
