
     RDKit          3D

 17 18  0  0  0  0  0  0  0  0999 V2000
  -18.4965   16.9144  -14.6605 C   0  0  0  0  0  0  0  0  0  0  0  0
  -17.0913   17.8441  -13.2631 N   0  0  0  0  0  0  0  0  0  0  0  0
  -18.3038   18.3256  -12.9802 C   0  0  0  0  0  0  0  0  0  0  0  0
  -22.1824   20.4584  -10.7920 C   0  0  0  0  0  0  0  0  0  0  0  0
  -23.8275   20.9261   -9.1433 C   0  0  0  0  0  0  0  0  0  0  0  0
  -26.9468   19.0868   -9.8136 C   0  0  0  0  0  0  0  0  0  0  0  0
  -26.0078   20.0065   -9.3490 O   0  0  0  0  0  0  0  0  0  0  0  0
  -24.7275   20.1499   -9.8443 C   0  0  0  0  0  0  0  0  0  0  0  0
  -24.3278   19.5323  -11.0276 C   0  0  0  0  0  0  0  0  0  0  0  0
  -23.0579   19.6679  -11.5286 C   0  0  0  0  0  0  0  0  0  0  0  0
  -22.6547   19.0245  -12.7756 C   0  0  0  0  0  0  0  0  0  0  0  0
  -21.2953   18.8561  -12.9888 O   0  0  0  0  0  0  0  0  0  0  0  0
  -20.6530   18.0279  -13.8591 C   0  0  0  0  0  0  0  0  0  0  0  0
  -19.2114   17.7624  -13.8395 C   0  0  0  0  0  0  0  0  0  0  0  0
  -17.2215   17.0013  -14.2702 N   0  0  0  0  0  0  0  0  0  0  0  0
  -21.3326   17.4522  -14.7361 O   0  0  0  0  0  0  0  0  0  0  0  0
  -22.5360   21.0806   -9.6276 C   0  0  0  0  0  0  0  0  0  0  0  0
 14  1  1  0
  1 15  2  0
  3  2  1  0
  2 15  1  0
 14  3  2  0
 10  4  2  0
  4 17  1  0
  8  5  1  0
 17  5  2  0
  6  7  1  1
  8  7  1  0
  9  8  2  0
 10  9  1  0
 11 10  1  0
 11 12  1  6
 13 12  1  0
 13 14  1  0
 13 16  2  0
M  END
$$$$
