
     RDKit          3D

 17 18  0  0  0  0  0  0  0  0999 V2000
  -17.4248   18.2481  -13.6661 C   0  0  0  0  0  0  0  0  0  0  0  0
  -18.1781   16.2010  -13.4818 N   0  0  0  0  0  0  0  0  0  0  0  0
  -19.1972   17.0207  -13.2144 C   0  0  0  0  0  0  0  0  0  0  0  0
  -23.6320   18.9831  -12.0820 C   0  0  0  0  0  0  0  0  0  0  0  0
  -25.4881   19.5234  -10.7013 C   0  0  0  0  0  0  0  0  0  0  0  0
  -26.7440   21.3345   -8.8988 C   0  0  0  0  0  0  0  0  0  0  0  0
  -25.5742   21.6256   -9.5990 O   0  0  0  0  0  0  0  0  0  0  0  0
  -24.9119   20.7483  -10.4337 C   0  0  0  0  0  0  0  0  0  0  0  0
  -23.6838   21.0708  -11.0073 C   0  0  0  0  0  0  0  0  0  0  0  0
  -23.0172   20.2065  -11.8385 C   0  0  0  0  0  0  0  0  0  0  0  0
  -21.7254   20.5520  -12.4245 C   0  0  0  0  0  0  0  0  0  0  0  0
  -20.8979   19.5026  -12.7929 O   0  0  0  0  0  0  0  0  0  0  0  0
  -19.5719   19.5161  -13.1050 C   0  0  0  0  0  0  0  0  0  0  0  0
  -18.7593   18.3153  -13.3210 C   0  0  0  0  0  0  0  0  0  0  0  0
  -17.1244   16.9489  -13.7503 N   0  0  0  0  0  0  0  0  0  0  0  0
  -19.0034   20.6238  -13.2162 O   0  0  0  0  0  0  0  0  0  0  0  0
  -24.8352   18.6295  -11.5387 C   0  0  0  0  0  0  0  0  0  0  0  0
 14  1  1  0
  1 15  2  0
  3  2  1  0
  2 15  1  0
 14  3  2  0
 10  4  2  0
  4 17  1  0
  8  5  1  0
 17  5  2  0
  6  7  1  1
  8  7  1  0
  9  8  2  0
 10  9  1  0
 11 10  1  0
 11 12  1  6
 13 12  1  0
 13 14  1  0
 13 16  2  0
M  END
$$$$
