
     RDKit          3D

 17 18  0  0  0  0  0  0  0  0999 V2000
  -18.4160   16.9304  -14.2984 C   0  0  0  0  0  0  0  0  0  0  0  0
  -17.0366   18.0650  -13.0141 N   0  0  0  0  0  0  0  0  0  0  0  0
  -18.2930   18.5678  -12.8261 C   0  0  0  0  0  0  0  0  0  0  0  0
  -24.2731   20.7677  -11.8001 C   0  0  0  0  0  0  0  0  0  0  0  0
  -24.2285   21.4761   -9.5265 C   0  0  0  0  0  0  0  0  0  0  0  0
  -21.1795   20.1143   -7.9376 C   0  0  0  0  0  0  0  0  0  0  0  0
  -22.4257   20.7593   -8.1142 O   0  0  0  0  0  0  0  0  0  0  0  0
  -23.0578   20.7736   -9.3397 C   0  0  0  0  0  0  0  0  0  0  0  0
  -22.5176   20.0741  -10.4104 C   0  0  0  0  0  0  0  0  0  0  0  0
  -23.0844   20.0411  -11.6526 C   0  0  0  0  0  0  0  0  0  0  0  0
  -22.5986   19.3248  -12.8292 C   0  0  0  0  0  0  0  0  0  0  0  0
  -21.2328   19.0147  -12.8440 O   0  0  0  0  0  0  0  0  0  0  0  0
  -20.6159   18.1237  -13.6927 C   0  0  0  0  0  0  0  0  0  0  0  0
  -19.1662   17.8655  -13.6251 C   0  0  0  0  0  0  0  0  0  0  0  0
  -17.1290   17.0812  -13.9025 N   0  0  0  0  0  0  0  0  0  0  0  0
  -21.3364   17.5310  -14.5364 O   0  0  0  0  0  0  0  0  0  0  0  0
  -24.8499   21.4775  -10.7705 C   0  0  0  0  0  0  0  0  0  0  0  0
 14  1  1  0
  1 15  2  0
  3  2  1  0
  2 15  1  0
 14  3  2  0
 10  4  2  0
  4 17  1  0
  8  5  1  0
 17  5  2  0
  7  6  1  0
  8  7  1  0
  9  8  2  0
 10  9  1  0
 11 10  1  0
 12 11  1  0
 13 12  1  0
 13 14  1  0
 13 16  2  0
M  END
$$$$
