
     RDKit          3D

 43 45  0  0  0  0  0  0  0  0999 V2000
   -3.4060  -15.0760   28.6786 C   0  0  0  0  0  0  0  0  0  0  0  0
   -3.3546  -13.6777   28.8652 C   0  0  0  0  0  0  0  0  0  0  0  0
   -3.1744  -13.0633   30.0789 C   0  0  0  0  0  0  0  0  0  0  0  0
   -3.0447  -13.9226   31.1157 C   0  0  0  0  0  0  0  0  0  0  0  0
   -3.0862  -15.3552   31.0034 C   0  0  0  0  0  0  0  0  0  0  0  0
    0.3135  -18.3580   32.5448 O   0  0  0  0  0  0  0  0  0  0  0  0
   -0.6562  -17.9530   31.7326 C   0  0  0  0  0  0  0  0  0  0  0  0
   -0.1729  -17.4019   30.4692 C   0  0  0  0  0  0  0  0  0  0  0  0
   -0.5957  -17.5881   29.1618 C   0  0  0  0  0  0  0  0  0  0  0  0
    0.0343  -16.8963   28.1692 C   0  0  0  0  0  0  0  0  0  0  0  0
   -0.2346  -16.8384   26.6990 C   0  0  0  0  0  0  0  0  0  0  0  0
   -1.2767  -15.7935   26.3621 C   0  0  0  0  0  0  0  0  0  0  0  0
   -2.6628  -16.3444   26.5581 C   0  0  0  0  0  0  0  0  0  0  0  0
   -3.5863  -15.3808   27.2334 C   0  0  0  0  0  0  0  0  0  0  0  0
   -2.8627  -15.8937   32.3671 C   0  0  0  0  0  0  0  0  0  0  0  0
   -2.9931  -17.3040   32.6423 C   0  0  1  0  0  0  0  0  0  0  0  0
   -4.3331  -17.9210   32.3719 C   0  0  0  0  0  0  0  0  0  0  0  0
   -4.9519  -18.3418   33.5881 N   0  0  0  0  0  4  0  0  0  0  0  0
   -4.4539  -17.8955   34.8198 C   0  0  2  0  0  0  0  0  0  0  0  0
   -3.4739  -18.7742   35.5282 C   0  0  0  0  0  0  0  0  0  0  0  0
   -3.4788  -20.1532   35.2005 N   0  0  0  0  0  0  0  0  0  0  0  0
   -2.6173  -21.1921   35.6591 C   0  0  0  0  0  0  0  0  0  0  0  0
   -1.9499  -21.9658   34.5876 C   0  0  1  0  0  0  0  0  0  0  0  0
   -2.9779  -22.7207   33.7249 C   0  0  0  0  0  0  0  0  0  0  0  0
   -0.9433  -21.3412   33.7154 C   0  0  0  0  0  0  0  0  0  0  0  0
   -2.6595  -18.3999   36.3803 O   0  0  0  0  0  0  0  0  0  0  0  0
   -5.5168  -17.4093   35.7498 C   0  0  0  0  0  0  0  0  0  0  0  0
   -5.5787  -17.8670   37.1383 C   0  0  0  0  0  0  0  0  0  0  0  0
   -6.7634  -17.5682   37.9777 C   0  0  0  0  0  0  0  0  0  0  0  0
   -6.5494  -18.1526   39.4089 C   0  0  0  0  0  0  0  0  0  0  0  0
   -1.9088  -18.1713   32.3317 N   0  0  0  0  0  0  0  0  0  0  0  0
   -3.2702  -15.8878   29.7691 C   0  0  0  0  0  0  0  0  0  0  0  0
    1.0986  -16.0126   28.4797 C   0  0  0  0  0  0  0  0  0  0  0  0
    1.5550  -15.7955   29.7513 C   0  0  0  0  0  0  0  0  0  0  0  0
    2.6203  -14.9039   30.0396 N   0  0  0  0  0  0  0  0  0  0  0  0
    3.1234  -14.8431   31.3898 C   0  0  0  0  0  0  0  0  0  0  0  0
    4.6186  -15.1460   31.4359 C   0  0  0  0  0  0  0  0  0  0  0  0
    4.8577  -16.5261   32.0068 C   0  0  0  0  0  0  0  0  0  0  0  0
    3.3249  -13.9001   28.8151 S   0  0  2  0  0  6  0  0  0  0  0  0
    2.3397  -13.5690   27.7426 O   0  0  0  0  0  0  0  0  0  0  0  0
    4.6758  -14.8026   28.0529 C   0  0  0  0  0  0  0  0  0  0  0  0
    3.8703  -12.6480   29.3828 O   0  0  0  0  0  0  0  0  0  0  0  0
    0.8988  -16.5043   30.7191 C   0  0  0  0  0  0  0  0  0  0  0  0
  1  2  2  0
 14  1  1  0
  1 32  1  0
  2  3  1  0
  3  4  2  0
  5  4  1  0
  5 15  1  0
 32  5  2  0
  7  6  2  0
  8  7  1  0
  7 31  1  0
  9  8  1  0
  8 43  2  0
 10  9  2  0
 11 10  1  0
 10 33  1  0
 12 11  1  0
 13 12  1  0
 13 14  1  0
 15 16  1  0
 16 17  1  6
 16 31  1  0
 17 18  1  0
 18 19  1  0
 19 20  1  0
 19 27  1  1
 20 21  1  0
 20 26  2  0
 21 22  1  0
 22 23  1  0
 23 24  1  6
 23 25  1  0
 27 28  1  0
 28 29  1  0
 29 30  1  0
 33 34  2  0
 34 35  1  0
 34 43  1  0
 35 36  1  0
 35 39  1  0
 36 37  1  0
 37 38  1  0
 39 40  2  0
 39 41  1  6
 39 42  2  0
M  CHG  1  18   1
M  END
$$$$
