
     RDKit          3D

 43 45  0  0  0  0  0  0  0  0999 V2000
   -3.2930  -14.1660   29.7252 C   0  0  0  0  0  0  0  0  0  0  0  0
   -2.8076  -12.9559   30.2661 C   0  0  0  0  0  0  0  0  0  0  0  0
   -2.3363  -12.8128   31.5469 C   0  0  0  0  0  0  0  0  0  0  0  0
   -2.3716  -13.9520   32.2757 C   0  0  0  0  0  0  0  0  0  0  0  0
   -2.8509  -15.2190   31.7942 C   0  0  0  0  0  0  0  0  0  0  0  0
   -0.3759  -19.3206   31.8405 O   0  0  0  0  0  0  0  0  0  0  0  0
   -1.2527  -18.4496   31.3540 C   0  0  0  0  0  0  0  0  0  0  0  0
   -0.7497  -17.6813   30.2182 C   0  0  0  0  0  0  0  0  0  0  0  0
   -1.3317  -17.3408   29.0066 C   0  0  0  0  0  0  0  0  0  0  0  0
   -0.6214  -16.5646   28.1385 C   0  0  0  0  0  0  0  0  0  0  0  0
   -0.9999  -15.9903   26.8104 C   0  0  0  0  0  0  0  0  0  0  0  0
   -1.7083  -14.6606   26.9577 C   0  0  0  0  0  0  0  0  0  0  0  0
   -3.1704  -14.8677   27.2452 C   0  0  0  0  0  0  0  0  0  0  0  0
   -3.6937  -13.9544   28.3079 C   0  0  0  0  0  0  0  0  0  0  0  0
   -2.6697  -16.1891   32.9013 C   0  0  0  0  0  0  0  0  0  0  0  0
   -3.1896  -17.5318   32.8085 C   0  0  1  0  0  0  0  0  0  0  0  0
   -4.6724  -17.6679   32.6285 C   0  0  0  0  0  0  0  0  0  0  0  0
   -5.1209  -18.9495   33.0706 N   0  0  0  0  0  4  0  0  0  0  0  0
   -4.6474  -19.4805   34.2781 C   0  0  2  0  0  0  0  0  0  0  0  0
   -4.3450  -18.5208   35.3834 C   0  0  0  0  0  0  0  0  0  0  0  0
   -5.3078  -18.3903   36.4155 N   0  0  0  0  0  0  0  0  0  0  0  0
   -5.3020  -17.5278   37.5503 C   0  0  0  0  0  0  0  0  0  0  0  0
   -6.4029  -17.7581   38.5130 C   0  0  1  0  0  0  0  0  0  0  0  0
   -7.7151  -17.1217   38.0190 C   0  0  0  0  0  0  0  0  0  0  0  0
   -6.6796  -19.1030   39.0412 C   0  0  0  0  0  0  0  0  0  0  0  0
   -3.3251  -17.8270   35.4726 O   0  0  0  0  0  0  0  0  0  0  0  0
   -3.5409  -20.4679   34.0999 C   0  0  0  0  0  0  0  0  0  0  0  0
   -2.5437  -20.6884   35.1477 C   0  0  0  0  0  0  0  0  0  0  0  0
   -1.5144  -21.7447   34.9977 C   0  0  0  0  0  0  0  0  0  0  0  0
   -2.1003  -23.1139   35.4638 C   0  0  0  0  0  0  0  0  0  0  0  0
   -2.4499  -18.5104   32.0879 N   0  0  0  0  0  0  0  0  0  0  0  0
   -3.3031  -15.2798   30.5164 C   0  0  0  0  0  0  0  0  0  0  0  0
    0.6834  -16.1254   28.4774 C   0  0  0  0  0  0  0  0  0  0  0  0
    1.3032  -16.4353   29.6572 C   0  0  0  0  0  0  0  0  0  0  0  0
    2.6092  -15.9822   29.9769 N   0  0  0  0  0  0  0  0  0  0  0  0
    3.1451  -16.2855   31.2810 C   0  0  0  0  0  0  0  0  0  0  0  0
    3.8380  -17.6454   31.2904 C   0  0  0  0  0  0  0  0  0  0  0  0
    5.0472  -17.6252   30.3819 C   0  0  0  0  0  0  0  0  0  0  0  0
    3.5652  -15.0851   28.8434 S   0  0  2  0  0  6  0  0  0  0  0  0
    2.7131  -14.2428   27.9519 O   0  0  0  0  0  0  0  0  0  0  0  0
    4.4524  -16.2500   27.8060 C   0  0  0  0  0  0  0  0  0  0  0  0
    4.5583  -14.2272   29.5255 O   0  0  0  0  0  0  0  0  0  0  0  0
    0.5605  -17.2126   30.5020 C   0  0  0  0  0  0  0  0  0  0  0  0
  1  2  2  0
 14  1  1  0
  1 32  1  0
  2  3  1  0
  3  4  2  0
  5  4  1  0
  5 15  1  0
 32  5  2  0
  7  6  2  0
  8  7  1  0
  7 31  1  0
  9  8  1  0
  8 43  2  0
 10  9  2  0
 11 10  1  0
 10 33  1  0
 12 11  1  0
 13 12  1  0
 13 14  1  0
 15 16  1  0
 16 17  1  6
 16 31  1  0
 17 18  1  0
 18 19  1  0
 19 20  1  0
 19 27  1  6
 20 21  1  0
 20 26  2  0
 21 22  1  0
 22 23  1  0
 23 24  1  6
 23 25  1  0
 27 28  1  0
 28 29  1  0
 29 30  1  0
 33 34  2  0
 34 35  1  0
 34 43  1  0
 35 36  1  0
 35 39  1  0
 36 37  1  0
 37 38  1  0
 39 40  2  0
 39 41  1  6
 39 42  2  0
M  CHG  1  18   1
M  END
$$$$
