
     RDKit          3D

 43 45  0  0  0  0  0  0  0  0999 V2000
   -2.0491  -13.4892   29.2201 C   0  0  0  0  0  0  0  0  0  0  0  0
   -1.1205  -12.4444   29.4172 C   0  0  0  0  0  0  0  0  0  0  0  0
   -0.2380  -12.3788   30.4660 C   0  0  0  0  0  0  0  0  0  0  0  0
   -0.3254  -13.4215   31.3236 C   0  0  0  0  0  0  0  0  0  0  0  0
   -1.2437  -14.5194   31.1885 C   0  0  0  0  0  0  0  0  0  0  0  0
   -0.0297  -19.1521   31.0658 O   0  0  0  0  0  0  0  0  0  0  0  0
   -0.7622  -18.0912   30.7465 C   0  0  0  0  0  0  0  0  0  0  0  0
   -0.4768  -17.5583   29.4169 C   0  0  0  0  0  0  0  0  0  0  0  0
   -1.3134  -17.1260   28.3991 C   0  0  0  0  0  0  0  0  0  0  0  0
   -0.7502  -16.6319   27.2592 C   0  0  0  0  0  0  0  0  0  0  0  0
   -1.3795  -16.0404   26.0381 C   0  0  0  0  0  0  0  0  0  0  0  0
   -1.6347  -14.5575   26.2032 C   0  0  0  0  0  0  0  0  0  0  0  0
   -2.9248  -14.3202   26.9397 C   0  0  0  0  0  0  0  0  0  0  0  0
   -2.8206  -13.2427   27.9719 C   0  0  0  0  0  0  0  0  0  0  0  0
   -0.9676  -15.4437   32.3151 C   0  0  0  0  0  0  0  0  0  0  0  0
   -1.8157  -16.5828   32.5698 C   0  0  1  0  0  0  0  0  0  0  0  0
   -3.2587  -16.2951   32.8612 C   0  0  0  0  0  0  0  0  0  0  0  0
   -3.7031  -17.0350   33.9988 N   0  0  0  0  0  4  0  0  0  0  0  0
   -4.2787  -18.3018   33.8308 C   0  0  2  0  0  0  0  0  0  0  0  0
   -5.5514  -18.3845   33.0514 C   0  0  0  0  0  0  0  0  0  0  0  0
   -5.9209  -19.6532   32.5386 N   0  0  0  0  0  0  0  0  0  0  0  0
   -7.2067  -20.1283   32.1479 C   0  0  0  0  0  0  0  0  0  0  0  0
   -7.1968  -21.4004   31.3905 C   0  0  1  0  0  0  0  0  0  0  0  0
   -6.5367  -21.2204   30.0111 C   0  0  0  0  0  0  0  0  0  0  0  0
   -6.7128  -22.6458   32.0061 C   0  0  0  0  0  0  0  0  0  0  0  0
   -6.3098  -17.4372   32.8128 O   0  0  0  0  0  0  0  0  0  0  0  0
   -4.3674  -19.0872   35.0983 C   0  0  0  0  0  0  0  0  0  0  0  0
   -3.1686  -19.4349   35.8619 C   0  0  0  0  0  0  0  0  0  0  0  0
   -3.2732  -20.2370   37.1042 C   0  0  0  0  0  0  0  0  0  0  0  0
   -1.8584  -20.3958   37.7433 C   0  0  0  0  0  0  0  0  0  0  0  0
   -1.6285  -17.7679   31.8052 N   0  0  0  0  0  0  0  0  0  0  0  0
   -2.0868  -14.5117   30.1255 C   0  0  0  0  0  0  0  0  0  0  0  0
    0.6602  -16.5704   27.1287 C   0  0  0  0  0  0  0  0  0  0  0  0
    1.5287  -16.9859   28.1009 C   0  0  0  0  0  0  0  0  0  0  0  0
    2.9375  -16.9124   27.9501 N   0  0  0  0  0  0  0  0  0  0  0  0
    3.5070  -15.7309   27.3506 C   0  0  0  0  0  0  0  0  0  0  0  0
    4.6469  -15.1755   28.2001 C   0  0  0  0  0  0  0  0  0  0  0  0
    4.3090  -13.7841   28.6877 C   0  0  0  0  0  0  0  0  0  0  0  0
    3.9776  -18.1978   28.4696 S   0  0  2  0  0  6  0  0  0  0  0  0
    3.3515  -19.5351   28.2461 O   0  0  0  0  0  0  0  0  0  0  0  0
    4.2608  -18.0178   30.2325 C   0  0  0  0  0  0  0  0  0  0  0  0
    5.2881  -18.1498   27.7856 O   0  0  0  0  0  0  0  0  0  0  0  0
    0.9282  -17.4730   29.2287 C   0  0  0  0  0  0  0  0  0  0  0  0
  1  2  2  0
 14  1  1  0
  1 32  1  0
  2  3  1  0
  3  4  2  0
  5  4  1  0
  5 15  1  0
 32  5  2  0
  7  6  2  0
  8  7  1  0
  7 31  1  0
  9  8  1  0
  8 43  2  0
 10  9  2  0
 11 10  1  0
 10 33  1  0
 12 11  1  0
 13 12  1  0
 13 14  1  0
 15 16  1  0
 16 17  1  6
 16 31  1  0
 17 18  1  0
 18 19  1  0
 19 20  1  0
 19 27  1  1
 20 21  1  0
 20 26  2  0
 21 22  1  0
 22 23  1  0
 23 24  1  6
 23 25  1  0
 27 28  1  0
 28 29  1  0
 29 30  1  0
 33 34  2  0
 34 35  1  0
 34 43  1  0
 35 36  1  0
 35 39  1  0
 36 37  1  0
 37 38  1  0
 39 40  2  0
 39 41  1  1
 39 42  2  0
M  CHG  1  18   1
M  END
$$$$
