
     RDKit          3D

 43 45  0  0  0  0  0  0  0  0999 V2000
   -3.2834  -14.2746   29.5638 C   0  0  0  0  0  0  0  0  0  0  0  0
   -2.7100  -13.0385   29.9322 C   0  0  0  0  0  0  0  0  0  0  0  0
   -2.1804  -12.7672   31.1688 C   0  0  0  0  0  0  0  0  0  0  0  0
   -2.2497  -13.8036   32.0355 C   0  0  0  0  0  0  0  0  0  0  0  0
   -2.8177  -15.0891   31.7328 C   0  0  0  0  0  0  0  0  0  0  0  0
   -0.5750  -19.2952   32.2118 O   0  0  0  0  0  0  0  0  0  0  0  0
   -1.4207  -18.4397   31.6490 C   0  0  0  0  0  0  0  0  0  0  0  0
   -0.9218  -17.8490   30.4099 C   0  0  0  0  0  0  0  0  0  0  0  0
   -1.5322  -17.6261   29.1850 C   0  0  0  0  0  0  0  0  0  0  0  0
   -0.8153  -17.0071   28.2034 C   0  0  0  0  0  0  0  0  0  0  0  0
   -1.2143  -16.5792   26.8269 C   0  0  0  0  0  0  0  0  0  0  0  0
   -1.8411  -15.2014   26.8295 C   0  0  0  0  0  0  0  0  0  0  0  0
   -3.2997  -15.2830   27.1887 C   0  0  0  0  0  0  0  0  0  0  0  0
   -3.7283  -14.2157   28.1451 C   0  0  0  0  0  0  0  0  0  0  0  0
   -2.6464  -15.9244   32.9463 C   0  0  0  0  0  0  0  0  0  0  0  0
   -3.2436  -17.2345   33.0399 C   0  0  1  0  0  0  0  0  0  0  0  0
   -4.7377  -17.3022   32.9273 C   0  0  0  0  0  0  0  0  0  0  0  0
   -5.2537  -18.3975   33.6844 N   0  0  0  0  0  4  0  0  0  0  0  0
   -4.3761  -19.2938   34.3094 C   0  0  2  0  0  0  0  0  0  0  0  0
   -4.1419  -19.1224   35.7757 C   0  0  0  0  0  0  0  0  0  0  0  0
   -5.2817  -19.0722   36.6167 N   0  0  0  0  0  0  0  0  0  0  0  0
   -5.9409  -17.9386   37.1753 C   0  0  0  0  0  0  0  0  0  0  0  0
   -5.9295  -17.8780   38.6546 C   0  0  1  0  0  0  0  0  0  0  0  0
   -7.2075  -17.2089   39.1930 C   0  0  0  0  0  0  0  0  0  0  0  0
   -5.6247  -19.0706   39.4602 C   0  0  0  0  0  0  0  0  0  0  0  0
   -3.0355  -19.0173   36.3184 O   0  0  0  0  0  0  0  0  0  0  0  0
   -3.0895  -19.4770   33.5729 C   0  0  0  0  0  0  0  0  0  0  0  0
   -2.4020  -20.7686   33.5548 C   0  0  0  0  0  0  0  0  0  0  0  0
   -2.2765  -21.5725   34.7940 C   0  0  0  0  0  0  0  0  0  0  0  0
   -0.8056  -22.0711   34.9456 C   0  0  0  0  0  0  0  0  0  0  0  0
   -2.5891  -18.3373   32.4238 N   0  0  0  0  0  0  0  0  0  0  0  0
   -3.3236  -15.2797   30.4883 C   0  0  0  0  0  0  0  0  0  0  0  0
    0.5245  -16.6088   28.4413 C   0  0  0  0  0  0  0  0  0  0  0  0
    1.1730  -16.8076   29.6296 C   0  0  0  0  0  0  0  0  0  0  0  0
    2.5140  -16.3981   29.8468 N   0  0  0  0  0  0  0  0  0  0  0  0
    2.8180  -14.9886   29.8215 C   0  0  0  0  0  0  0  0  0  0  0  0
    4.0449  -14.6731   30.6728 C   0  0  0  0  0  0  0  0  0  0  0  0
    4.2789  -13.1796   30.7240 C   0  0  0  0  0  0  0  0  0  0  0  0
    3.7799  -17.5441   30.1430 S   0  0  2  0  0  6  0  0  0  0  0  0
    3.4652  -18.8763   29.5460 O   0  0  0  0  0  0  0  0  0  0  0  0
    3.9371  -17.7665   31.9167 C   0  0  0  0  0  0  0  0  0  0  0  0
    5.0797  -17.0683   29.6218 O   0  0  0  0  0  0  0  0  0  0  0  0
    0.4228  -17.4287   30.5893 C   0  0  0  0  0  0  0  0  0  0  0  0
  1  2  2  0
 14  1  1  0
  1 32  1  0
  2  3  1  0
  3  4  2  0
  5  4  1  0
  5 15  1  0
 32  5  2  0
  7  6  2  0
  8  7  1  0
  7 31  1  0
  9  8  1  0
  8 43  2  0
 10  9  2  0
 11 10  1  0
 10 33  1  0
 12 11  1  0
 13 12  1  0
 13 14  1  0
 15 16  1  0
 16 17  1  6
 16 31  1  0
 17 18  1  0
 18 19  1  0
 19 20  1  0
 19 27  1  6
 20 21  1  0
 20 26  2  0
 21 22  1  0
 22 23  1  0
 23 24  1  1
 23 25  1  0
 27 28  1  0
 28 29  1  0
 29 30  1  0
 33 34  2  0
 34 35  1  0
 34 43  1  0
 35 36  1  0
 35 39  1  0
 36 37  1  0
 37 38  1  0
 39 40  2  0
 39 41  1  1
 39 42  2  0
M  CHG  1  18   1
M  END
$$$$
