
     RDKit          3D

 43 45  0  0  0  0  0  0  0  0999 V2000
   -2.5095  -14.4024   28.7761 C   0  0  0  0  0  0  0  0  0  0  0  0
   -2.1087  -13.1057   29.1638 C   0  0  0  0  0  0  0  0  0  0  0  0
   -1.8751  -12.7212   30.4602 C   0  0  0  0  0  0  0  0  0  0  0  0
   -2.0623  -13.7069   31.3677 C   0  0  0  0  0  0  0  0  0  0  0  0
   -2.4689  -15.0485   31.0489 C   0  0  0  0  0  0  0  0  0  0  0  0
   -0.1171  -19.0307   32.2987 O   0  0  0  0  0  0  0  0  0  0  0  0
   -0.8754  -18.2787   31.5091 C   0  0  0  0  0  0  0  0  0  0  0  0
   -0.1610  -17.7249   30.3617 C   0  0  0  0  0  0  0  0  0  0  0  0
   -0.5075  -17.6231   29.0230 C   0  0  0  0  0  0  0  0  0  0  0  0
    0.3623  -17.0090   28.1703 C   0  0  0  0  0  0  0  0  0  0  0  0
    0.2413  -16.6956   26.7129 C   0  0  0  0  0  0  0  0  0  0  0  0
   -0.4582  -15.3732   26.4817 C   0  0  0  0  0  0  0  0  0  0  0  0
   -1.9517  -15.5473   26.5321 C   0  0  0  0  0  0  0  0  0  0  0  0
   -2.6426  -14.4623   27.2953 C   0  0  0  0  0  0  0  0  0  0  0  0
   -2.5089  -15.7948   32.3300 C   0  0  0  0  0  0  0  0  0  0  0  0
   -3.0273  -17.1398   32.3934 C   0  0  1  0  0  0  0  0  0  0  0  0
   -4.4550  -17.3307   31.9753 C   0  0  0  0  0  0  0  0  0  0  0  0
   -5.1441  -18.1760   32.8971 N   0  0  0  0  0  4  0  0  0  0  0  0
   -4.4892  -18.6443   34.0443 C   0  0  2  0  0  0  0  0  0  0  0  0
   -4.3566  -17.7021   35.1972 C   0  0  0  0  0  0  0  0  0  0  0  0
   -5.4436  -17.6234   36.1035 N   0  0  0  0  0  0  0  0  0  0  0  0
   -6.5066  -16.6753   36.1565 C   0  0  0  0  0  0  0  0  0  0  0  0
   -6.1497  -15.3135   35.6979 C   0  0  1  0  0  0  0  0  0  0  0  0
   -5.1525  -14.6461   36.6628 C   0  0  0  0  0  0  0  0  0  0  0  0
   -5.7283  -15.0666   34.3103 C   0  0  0  0  0  0  0  0  0  0  0  0
   -3.3780  -16.9815   35.4262 O   0  0  0  0  0  0  0  0  0  0  0  0
   -3.1940  -19.3285   33.7519 C   0  0  0  0  0  0  0  0  0  0  0  0
   -2.6348  -20.3206   34.6706 C   0  0  0  0  0  0  0  0  0  0  0  0
   -1.4244  -21.0922   34.3002 C   0  0  0  0  0  0  0  0  0  0  0  0
   -1.0068  -22.0107   35.4906 C   0  0  0  0  0  0  0  0  0  0  0  0
   -2.1868  -18.2225   32.0119 N   0  0  0  0  0  0  0  0  0  0  0  0
   -2.6829  -15.3512   29.7438 C   0  0  0  0  0  0  0  0  0  0  0  0
    1.5916  -16.4938   28.6536 C   0  0  0  0  0  0  0  0  0  0  0  0
    1.9815  -16.5708   29.9629 C   0  0  0  0  0  0  0  0  0  0  0  0
    3.2157  -16.0455   30.4254 N   0  0  0  0  0  0  0  0  0  0  0  0
    3.2025  -14.8222   31.1891 C   0  0  0  0  0  0  0  0  0  0  0  0
    3.1746  -13.6007   30.2744 C   0  0  0  0  0  0  0  0  0  0  0  0
    2.5172  -12.4335   30.9768 C   0  0  0  0  0  0  0  0  0  0  0  0
    4.7223  -16.8373   30.0988 S   0  0  2  0  0  6  0  0  0  0  0  0
    5.8211  -16.3026   30.9575 O   0  0  0  0  0  0  0  0  0  0  0  0
    5.1666  -16.5232   28.3888 C   0  0  0  0  0  0  0  0  0  0  0  0
    4.6217  -18.3009   30.2869 O   0  0  0  0  0  0  0  0  0  0  0  0
    1.0841  -17.1909   30.7874 C   0  0  0  0  0  0  0  0  0  0  0  0
  1  2  2  0
 14  1  1  0
  1 32  1  0
  2  3  1  0
  3  4  2  0
  5  4  1  0
  5 15  1  0
 32  5  2  0
  7  6  2  0
  8  7  1  0
  7 31  1  0
  9  8  1  0
  8 43  2  0
 10  9  2  0
 11 10  1  0
 10 33  1  0
 12 11  1  0
 13 12  1  0
 13 14  1  0
 15 16  1  0
 16 17  1  6
 16 31  1  0
 17 18  1  0
 18 19  1  0
 19 20  1  0
 19 27  1  6
 20 21  1  0
 20 26  2  0
 21 22  1  0
 22 23  1  0
 23 24  1  1
 23 25  1  0
 27 28  1  0
 28 29  1  0
 29 30  1  0
 33 34  2  0
 34 35  1  0
 34 43  1  0
 35 36  1  0
 35 39  1  0
 36 37  1  0
 37 38  1  0
 39 40  2  0
 39 41  1  6
 39 42  2  0
M  CHG  1  18   1
M  END
$$$$
