
     RDKit          3D

 43 45  0  0  0  0  0  0  0  0999 V2000
   -3.3226  -14.2103   29.2735 C   0  0  0  0  0  0  0  0  0  0  0  0
   -2.9099  -12.9344   29.7146 C   0  0  0  0  0  0  0  0  0  0  0  0
   -2.3852  -12.6752   30.9558 C   0  0  0  0  0  0  0  0  0  0  0  0
   -2.2887  -13.7660   31.7502 C   0  0  0  0  0  0  0  0  0  0  0  0
   -2.6875  -15.0942   31.3712 C   0  0  0  0  0  0  0  0  0  0  0  0
    0.1136  -18.9781   31.5127 O   0  0  0  0  0  0  0  0  0  0  0  0
   -0.8558  -18.2106   31.0278 C   0  0  0  0  0  0  0  0  0  0  0  0
   -0.4778  -17.4775   29.8223 C   0  0  0  0  0  0  0  0  0  0  0  0
   -1.1488  -17.2600   28.6285 C   0  0  0  0  0  0  0  0  0  0  0  0
   -0.5510  -16.4861   27.6775 C   0  0  0  0  0  0  0  0  0  0  0  0
   -1.0447  -16.0272   26.3423 C   0  0  0  0  0  0  0  0  0  0  0  0
   -1.8506  -14.7507   26.4529 C   0  0  0  0  0  0  0  0  0  0  0  0
   -3.2737  -15.0535   26.8355 C   0  0  0  0  0  0  0  0  0  0  0  0
   -3.8133  -14.1195   27.8717 C   0  0  0  0  0  0  0  0  0  0  0  0
   -2.3695  -15.9761   32.5204 C   0  0  0  0  0  0  0  0  0  0  0  0
   -2.7820  -17.3587   32.5356 C   0  0  1  0  0  0  0  0  0  0  0  0
   -4.2561  -17.6217   32.4493 C   0  0  0  0  0  0  0  0  0  0  0  0
   -4.8286  -17.7301   33.7530 N   0  0  0  0  0  4  0  0  0  0  0  0
   -4.3068  -18.6483   34.6743 C   0  0  2  0  0  0  0  0  0  0  0  0
   -4.4064  -20.1005   34.3344 C   0  0  0  0  0  0  0  0  0  0  0  0
   -3.6076  -21.0016   35.0821 N   0  0  0  0  0  0  0  0  0  0  0  0
   -3.4548  -22.4106   34.9303 C   0  0  0  0  0  0  0  0  0  0  0  0
   -2.3511  -23.0056   35.7177 C   0  0  1  0  0  0  0  0  0  0  0  0
   -1.7610  -24.2364   35.0049 C   0  0  0  0  0  0  0  0  0  0  0  0
   -1.2578  -22.1721   36.2413 C   0  0  0  0  0  0  0  0  0  0  0  0
   -5.1259  -20.5834   33.4520 O   0  0  0  0  0  0  0  0  0  0  0  0
   -4.7390  -18.3901   36.0807 C   0  0  0  0  0  0  0  0  0  0  0  0
   -3.8011  -17.8820   37.0823 C   0  0  0  0  0  0  0  0  0  0  0  0
   -4.2494  -17.6241   38.4716 C   0  0  0  0  0  0  0  0  0  0  0  0
   -4.5270  -16.0996   38.6557 C   0  0  0  0  0  0  0  0  0  0  0  0
   -2.0038  -18.3193   31.8316 N   0  0  0  0  0  0  0  0  0  0  0  0
   -3.1999  -15.2699   30.1272 C   0  0  0  0  0  0  0  0  0  0  0  0
    0.7295  -15.9256   27.9148 C   0  0  0  0  0  0  0  0  0  0  0  0
    1.4339  -16.1117   29.0730 C   0  0  0  0  0  0  0  0  0  0  0  0
    2.7134  -15.5385   29.2903 N   0  0  0  0  0  0  0  0  0  0  0  0
    3.3311  -14.8011   28.2159 C   0  0  0  0  0  0  0  0  0  0  0  0
    2.7183  -13.4101   28.0774 C   0  0  0  0  0  0  0  0  0  0  0  0
    2.3594  -12.8563   29.4385 C   0  0  0  0  0  0  0  0  0  0  0  0
    3.5388  -15.7009   30.8056 S   0  0  2  0  0  6  0  0  0  0  0  0
    4.9047  -15.0992   30.7541 O   0  0  0  0  0  0  0  0  0  0  0  0
    3.7280  -17.4496   31.1614 C   0  0  0  0  0  0  0  0  0  0  0  0
    2.7740  -15.0861   31.9123 O   0  0  0  0  0  0  0  0  0  0  0  0
    0.8027  -16.8907   30.0028 C   0  0  0  0  0  0  0  0  0  0  0  0
  1  2  2  0
 14  1  1  0
  1 32  1  0
  2  3  1  0
  3  4  2  0
  5  4  1  0
  5 15  1  0
 32  5  2  0
  7  6  2  0
  8  7  1  0
  7 31  1  0
  9  8  1  0
  8 43  2  0
 10  9  2  0
 11 10  1  0
 10 33  1  0
 12 11  1  0
 13 12  1  0
 13 14  1  0
 15 16  1  0
 16 17  1  6
 16 31  1  0
 17 18  1  0
 18 19  1  0
 19 20  1  0
 19 27  1  1
 20 21  1  0
 20 26  2  0
 21 22  1  0
 22 23  1  0
 23 24  1  6
 23 25  1  0
 27 28  1  0
 28 29  1  0
 29 30  1  0
 33 34  2  0
 34 35  1  0
 34 43  1  0
 35 36  1  0
 35 39  1  0
 36 37  1  0
 37 38  1  0
 39 40  2  0
 39 41  1  1
 39 42  2  0
M  CHG  1  18   1
M  END
$$$$
