
     RDKit          3D

 43 45  0  0  0  0  0  0  0  0999 V2000
   -2.7443  -14.2300   28.8186 C   0  0  0  0  0  0  0  0  0  0  0  0
   -2.2949  -12.9484   29.2036 C   0  0  0  0  0  0  0  0  0  0  0  0
   -1.9480  -12.6008   30.4849 C   0  0  0  0  0  0  0  0  0  0  0  0
   -2.0715  -13.6077   31.3799 C   0  0  0  0  0  0  0  0  0  0  0  0
   -2.5213  -14.9359   31.0629 C   0  0  0  0  0  0  0  0  0  0  0  0
   -0.1264  -18.9756   32.0091 O   0  0  0  0  0  0  0  0  0  0  0  0
   -0.9382  -18.1947   31.3055 C   0  0  0  0  0  0  0  0  0  0  0  0
   -0.3155  -17.6191   30.1163 C   0  0  0  0  0  0  0  0  0  0  0  0
   -0.7719  -17.4784   28.8145 C   0  0  0  0  0  0  0  0  0  0  0  0
    0.0313  -16.8519   27.9072 C   0  0  0  0  0  0  0  0  0  0  0  0
   -0.2076  -16.4991   26.4736 C   0  0  0  0  0  0  0  0  0  0  0  0
   -0.9062  -15.1633   26.3355 C   0  0  0  0  0  0  0  0  0  0  0  0
   -2.3924  -15.3219   26.5074 C   0  0  0  0  0  0  0  0  0  0  0  0
   -3.0021  -14.2495   27.3533 C   0  0  0  0  0  0  0  0  0  0  0  0
   -2.4635  -15.7150   32.3236 C   0  0  0  0  0  0  0  0  0  0  0  0
   -2.9927  -17.0552   32.3966 C   0  0  1  0  0  0  0  0  0  0  0  0
   -4.4530  -17.2191   32.0958 C   0  0  0  0  0  0  0  0  0  0  0  0
   -5.2016  -17.3939   33.2992 N   0  0  0  0  0  4  0  0  0  0  0  0
   -4.7059  -18.2152   34.3210 C   0  0  2  0  0  0  0  0  0  0  0  0
   -4.2382  -19.5834   33.9420 C   0  0  0  0  0  0  0  0  0  0  0  0
   -3.4583  -20.2919   34.8900 N   0  0  0  0  0  0  0  0  0  0  0  0
   -3.2053  -21.6915   34.9840 C   0  0  0  0  0  0  0  0  0  0  0  0
   -2.4792  -22.1124   36.2038 C   0  0  1  0  0  0  0  0  0  0  0  0
   -3.4389  -22.7361   37.2340 C   0  0  0  0  0  0  0  0  0  0  0  0
   -1.2579  -22.9278   36.1161 C   0  0  0  0  0  0  0  0  0  0  0  0
   -4.4720  -20.1498   32.8677 O   0  0  0  0  0  0  0  0  0  0  0  0
   -5.5844  -18.2579   35.5283 C   0  0  0  0  0  0  0  0  0  0  0  0
   -5.2607  -17.4894   36.7306 C   0  0  0  0  0  0  0  0  0  0  0  0
   -6.0648  -17.6491   37.9658 C   0  0  0  0  0  0  0  0  0  0  0  0
   -5.5587  -16.6482   39.0508 C   0  0  0  0  0  0  0  0  0  0  0  0
   -2.2018  -18.1369   31.9184 N   0  0  0  0  0  0  0  0  0  0  0  0
   -2.8483  -15.2019   29.7732 C   0  0  0  0  0  0  0  0  0  0  0  0
    1.3037  -16.3634   28.2979 C   0  0  0  0  0  0  0  0  0  0  0  0
    1.8012  -16.4790   29.5673 C   0  0  0  0  0  0  0  0  0  0  0  0
    3.0768  -15.9800   29.9371 N   0  0  0  0  0  0  0  0  0  0  0  0
    3.2669  -15.5013   31.2841 C   0  0  0  0  0  0  0  0  0  0  0  0
    3.7561  -14.0556   31.2923 C   0  0  0  0  0  0  0  0  0  0  0  0
    4.6337  -13.8048   32.4985 C   0  0  0  0  0  0  0  0  0  0  0  0
    4.3985  -15.9381   28.8167 S   0  0  2  0  0  6  0  0  0  0  0  0
    5.5177  -15.0867   29.3195 O   0  0  0  0  0  0  0  0  0  0  0  0
    3.8144  -15.2172   27.2807 C   0  0  0  0  0  0  0  0  0  0  0  0
    4.9087  -17.2951   28.5236 O   0  0  0  0  0  0  0  0  0  0  0  0
    0.9680  -17.1104   30.4487 C   0  0  0  0  0  0  0  0  0  0  0  0
  1  2  2  0
 14  1  1  0
  1 32  1  0
  2  3  1  0
  3  4  2  0
  5  4  1  0
  5 15  1  0
 32  5  2  0
  7  6  2  0
  8  7  1  0
  7 31  1  0
  9  8  1  0
  8 43  2  0
 10  9  2  0
 11 10  1  0
 10 33  1  0
 12 11  1  0
 13 12  1  0
 13 14  1  0
 15 16  1  0
 16 17  1  6
 16 31  1  0
 17 18  1  0
 18 19  1  0
 19 20  1  0
 19 27  1  1
 20 21  1  0
 20 26  2  0
 21 22  1  0
 22 23  1  0
 23 24  1  1
 23 25  1  0
 27 28  1  0
 28 29  1  0
 29 30  1  0
 33 34  2  0
 34 35  1  0
 34 43  1  0
 35 36  1  0
 35 39  1  0
 36 37  1  0
 37 38  1  0
 39 40  2  0
 39 41  1  6
 39 42  2  0
M  CHG  1  18   1
M  END
$$$$
