
     RDKit          3D

 43 45  0  0  0  0  0  0  0  0999 V2000
   -3.1286  -14.4445   29.3280 C   0  0  0  0  0  0  0  0  0  0  0  0
   -2.6329  -13.1840   29.7254 C   0  0  0  0  0  0  0  0  0  0  0  0
   -2.2184  -12.8796   30.9976 C   0  0  0  0  0  0  0  0  0  0  0  0
   -2.3220  -13.9083   31.8701 C   0  0  0  0  0  0  0  0  0  0  0  0
   -2.8161  -15.2173   31.5394 C   0  0  0  0  0  0  0  0  0  0  0  0
   -0.4704  -19.3316   32.2614 O   0  0  0  0  0  0  0  0  0  0  0  0
   -1.2968  -18.5143   31.6186 C   0  0  0  0  0  0  0  0  0  0  0  0
   -0.7180  -17.9191   30.4168 C   0  0  0  0  0  0  0  0  0  0  0  0
   -1.2320  -17.7325   29.1426 C   0  0  0  0  0  0  0  0  0  0  0  0
   -0.4586  -17.0981   28.2152 C   0  0  0  0  0  0  0  0  0  0  0  0
   -0.7568  -16.7004   26.8045 C   0  0  0  0  0  0  0  0  0  0  0  0
   -1.4310  -15.3469   26.7359 C   0  0  0  0  0  0  0  0  0  0  0  0
   -2.9106  -15.4787   26.9742 C   0  0  0  0  0  0  0  0  0  0  0  0
   -3.4556  -14.4177   27.8767 C   0  0  0  0  0  0  0  0  0  0  0  0
   -2.7164  -16.0323   32.7745 C   0  0  0  0  0  0  0  0  0  0  0  0
   -3.2715  -17.3626   32.8367 C   0  0  1  0  0  0  0  0  0  0  0  0
   -4.7476  -17.4871   32.6017 C   0  0  0  0  0  0  0  0  0  0  0  0
   -5.2094  -18.7901   32.9592 N   0  0  0  0  0  4  0  0  0  0  0  0
   -4.6630  -19.4481   34.0694 C   0  0  2  0  0  0  0  0  0  0  0  0
   -4.4233  -18.6390   35.3032 C   0  0  0  0  0  0  0  0  0  0  0  0
   -5.5546  -18.2812   36.0785 N   0  0  0  0  0  0  0  0  0  0  0  0
   -5.6124  -17.5880   37.3227 C   0  0  0  0  0  0  0  0  0  0  0  0
   -5.3990  -18.4354   38.5180 C   0  0  1  0  0  0  0  0  0  0  0  0
   -6.3017  -17.9896   39.6831 C   0  0  0  0  0  0  0  0  0  0  0  0
   -5.4152  -19.9031   38.4199 C   0  0  0  0  0  0  0  0  0  0  0  0
   -3.3193  -18.2516   35.7042 O   0  0  0  0  0  0  0  0  0  0  0  0
   -3.4764  -20.2918   33.7357 C   0  0  0  0  0  0  0  0  0  0  0  0
   -2.9085  -21.2234   34.7107 C   0  0  0  0  0  0  0  0  0  0  0  0
   -3.6598  -21.5802   35.9379 C   0  0  0  0  0  0  0  0  0  0  0  0
   -2.7599  -22.4561   36.8644 C   0  0  0  0  0  0  0  0  0  0  0  0
   -2.5285  -18.4470   32.2924 N   0  0  0  0  0  0  0  0  0  0  0  0
   -3.2094  -15.4402   30.2601 C   0  0  0  0  0  0  0  0  0  0  0  0
    0.8414  -16.6476   28.5576 C   0  0  0  0  0  0  0  0  0  0  0  0
    1.3955  -16.8091   29.7983 C   0  0  0  0  0  0  0  0  0  0  0  0
    2.6980  -16.3476   30.1200 N   0  0  0  0  0  0  0  0  0  0  0  0
    2.8389  -15.3249   31.1270 C   0  0  0  0  0  0  0  0  0  0  0  0
    3.7100  -14.1753   30.6281 C   0  0  0  0  0  0  0  0  0  0  0  0
    2.8548  -13.1163   29.9683 C   0  0  0  0  0  0  0  0  0  0  0  0
    4.1085  -16.9838   29.3394 S   0  0  2  0  0  6  0  0  0  0  0  0
    4.3555  -16.3193   28.0250 O   0  0  0  0  0  0  0  0  0  0  0  0
    3.8408  -18.7300   29.0242 C   0  0  0  0  0  0  0  0  0  0  0  0
    5.3109  -16.8487   30.1902 O   0  0  0  0  0  0  0  0  0  0  0  0
    0.5908  -17.4471   30.7012 C   0  0  0  0  0  0  0  0  0  0  0  0
  1  2  2  0
 14  1  1  0
  1 32  1  0
  2  3  1  0
  3  4  2  0
  5  4  1  0
  5 15  1  0
 32  5  2  0
  7  6  2  0
  8  7  1  0
  7 31  1  0
  9  8  1  0
  8 43  2  0
 10  9  2  0
 11 10  1  0
 10 33  1  0
 12 11  1  0
 13 12  1  0
 13 14  1  0
 15 16  1  0
 16 17  1  6
 16 31  1  0
 17 18  1  0
 18 19  1  0
 19 20  1  0
 19 27  1  6
 20 21  1  0
 20 26  2  0
 21 22  1  0
 22 23  1  0
 23 24  1  1
 23 25  1  0
 27 28  1  0
 28 29  1  0
 29 30  1  0
 33 34  2  0
 34 35  1  0
 34 43  1  0
 35 36  1  0
 35 39  1  0
 36 37  1  0
 37 38  1  0
 39 40  2  0
 39 41  1  6
 39 42  2  0
M  CHG  1  18   1
M  END
$$$$
