
     RDKit          3D

 43 45  0  0  0  0  0  0  0  0999 V2000
   -3.1969  -15.9983   28.5282 C   0  0  0  0  0  0  0  0  0  0  0  0
   -3.8389  -14.7503   28.3769 C   0  0  0  0  0  0  0  0  0  0  0  0
   -4.4113  -14.0430   29.4041 C   0  0  0  0  0  0  0  0  0  0  0  0
   -4.3115  -14.6479   30.6101 C   0  0  0  0  0  0  0  0  0  0  0  0
   -3.6738  -15.9155   30.8413 C   0  0  0  0  0  0  0  0  0  0  0  0
   -0.1429  -16.7127   33.9795 O   0  0  0  0  0  0  0  0  0  0  0  0
   -0.8134  -16.9022   32.8488 C   0  0  0  0  0  0  0  0  0  0  0  0
   -0.1923  -16.2753   31.6849 C   0  0  0  0  0  0  0  0  0  0  0  0
    0.0281  -16.7394   30.3970 C   0  0  0  0  0  0  0  0  0  0  0  0
    0.6070  -15.8987   29.4923 C   0  0  0  0  0  0  0  0  0  0  0  0
    0.9062  -16.0869   28.0390 C   0  0  0  0  0  0  0  0  0  0  0  0
   -0.2810  -15.7251   27.1724 C   0  0  0  0  0  0  0  0  0  0  0  0
   -1.2454  -16.8766   27.0867 C   0  0  0  0  0  0  0  0  0  0  0  0
   -2.6749  -16.4543   27.2116 C   0  0  0  0  0  0  0  0  0  0  0  0
   -3.7594  -16.1731   32.2994 C   0  0  0  0  0  0  0  0  0  0  0  0
   -3.3477  -17.4379   32.8584 C   0  0  1  0  0  0  0  0  0  0  0  0
   -4.0726  -18.6568   32.3701 C   0  0  0  0  0  0  0  0  0  0  0  0
   -5.2670  -18.8715   33.1226 N   0  0  0  0  0  4  0  0  0  0  0  0
   -5.1981  -19.0606   34.5096 C   0  0  2  0  0  0  0  0  0  0  0  0
   -4.1823  -18.2663   35.2656 C   0  0  0  0  0  0  0  0  0  0  0  0
   -4.6522  -17.4348   36.3129 N   0  0  0  0  0  0  0  0  0  0  0  0
   -4.0033  -17.0569   37.5244 C   0  0  0  0  0  0  0  0  0  0  0  0
   -4.6832  -17.5053   38.7609 C   0  0  1  0  0  0  0  0  0  0  0  0
   -4.1117  -16.7907   39.9994 C   0  0  0  0  0  0  0  0  0  0  0  0
   -6.1513  -17.5394   38.8494 C   0  0  0  0  0  0  0  0  0  0  0  0
   -2.9641  -18.2706   35.0523 O   0  0  0  0  0  0  0  0  0  0  0  0
   -5.1710  -20.4986   34.9128 C   0  0  0  0  0  0  0  0  0  0  0  0
   -3.9177  -21.2526   34.9535 C   0  0  0  0  0  0  0  0  0  0  0  0
   -3.7332  -22.4534   34.1040 C   0  0  0  0  0  0  0  0  0  0  0  0
   -2.3224  -23.0666   34.3669 C   0  0  0  0  0  0  0  0  0  0  0  0
   -1.9642  -17.6711   33.0944 N   0  0  0  0  0  0  0  0  0  0  0  0
   -3.1328  -16.5553   29.7741 C   0  0  0  0  0  0  0  0  0  0  0  0
    0.9740  -14.5833   29.8734 C   0  0  0  0  0  0  0  0  0  0  0  0
    0.7809  -14.0783   31.1303 C   0  0  0  0  0  0  0  0  0  0  0  0
    1.1535  -12.7572   31.4893 N   0  0  0  0  0  0  0  0  0  0  0  0
    1.9939  -12.0079   30.5881 C   0  0  0  0  0  0  0  0  0  0  0  0
    2.3544  -10.6454   31.1738 C   0  0  0  0  0  0  0  0  0  0  0  0
    3.4576  -10.0009   30.3642 C   0  0  0  0  0  0  0  0  0  0  0  0
    0.6217  -12.0313   32.9705 S   0  0  2  0  0  6  0  0  0  0  0  0
    0.7584  -12.9715   34.1228 O   0  0  0  0  0  0  0  0  0  0  0  0
   -1.1178  -11.6217   32.8063 C   0  0  0  0  0  0  0  0  0  0  0  0
    1.3622  -10.7852   33.2643 O   0  0  0  0  0  0  0  0  0  0  0  0
    0.1972  -14.9486   32.0087 C   0  0  0  0  0  0  0  0  0  0  0  0
  1  2  2  0
 14  1  1  0
  1 32  1  0
  2  3  1  0
  3  4  2  0
  5  4  1  0
  5 15  1  0
 32  5  2  0
  7  6  2  0
  8  7  1  0
  7 31  1  0
  9  8  1  0
  8 43  2  0
 10  9  2  0
 11 10  1  0
 10 33  1  0
 12 11  1  0
 13 12  1  0
 13 14  1  0
 15 16  1  0
 16 17  1  6
 16 31  1  0
 17 18  1  0
 18 19  1  0
 19 20  1  0
 19 27  1  6
 20 21  1  0
 20 26  2  0
 21 22  1  0
 22 23  1  0
 23 24  1  1
 23 25  1  0
 27 28  1  0
 28 29  1  0
 29 30  1  0
 33 34  2  0
 34 35  1  0
 34 43  1  0
 35 36  1  0
 35 39  1  0
 36 37  1  0
 37 38  1  0
 39 40  2  0
 39 41  1  6
 39 42  2  0
M  CHG  1  18   1
M  END
$$$$
