
     RDKit          3D

 43 45  0  0  0  0  0  0  0  0999 V2000
   -3.3422  -14.7612   28.9056 C   0  0  0  0  0  0  0  0  0  0  0  0
   -3.0674  -13.3815   29.0209 C   0  0  0  0  0  0  0  0  0  0  0  0
   -2.6791  -12.7624   30.1824 C   0  0  0  0  0  0  0  0  0  0  0  0
   -2.5751  -13.5974   31.2417 C   0  0  0  0  0  0  0  0  0  0  0  0
   -2.8379  -15.0103   31.2009 C   0  0  0  0  0  0  0  0  0  0  0  0
    0.2189  -18.4406   32.5573 O   0  0  0  0  0  0  0  0  0  0  0  0
   -0.7564  -17.9202   31.8210 C   0  0  0  0  0  0  0  0  0  0  0  0
   -0.3251  -17.4896   30.4937 C   0  0  0  0  0  0  0  0  0  0  0  0
   -0.8983  -17.6520   29.2415 C   0  0  0  0  0  0  0  0  0  0  0  0
   -0.2750  -17.0957   28.1632 C   0  0  0  0  0  0  0  0  0  0  0  0
   -0.6771  -17.0455   26.7235 C   0  0  0  0  0  0  0  0  0  0  0  0
   -1.5822  -15.8666   26.4367 C   0  0  0  0  0  0  0  0  0  0  0  0
   -3.0080  -16.1952   26.7868 C   0  0  0  0  0  0  0  0  0  0  0  0
   -3.7079  -15.0819   27.4994 C   0  0  0  0  0  0  0  0  0  0  0  0
   -2.5619  -15.5319   32.5616 C   0  0  0  0  0  0  0  0  0  0  0  0
   -2.8704  -16.8968   32.9135 C   0  0  1  0  0  0  0  0  0  0  0  0
   -4.3068  -17.3128   32.7984 C   0  0  0  0  0  0  0  0  0  0  0  0
   -4.8238  -17.7058   34.0701 N   0  0  0  0  0  4  0  0  0  0  0  0
   -3.9471  -18.0213   35.1170 C   0  0  2  0  0  0  0  0  0  0  0  0
   -3.4792  -19.4369   35.2236 C   0  0  0  0  0  0  0  0  0  0  0  0
   -4.0064  -20.2201   36.2808 N   0  0  0  0  0  0  0  0  0  0  0  0
   -3.7804  -21.5944   36.5843 C   0  0  0  0  0  0  0  0  0  0  0  0
   -4.5315  -22.1055   37.7534 C   0  0  1  0  0  0  0  0  0  0  0  0
   -3.9447  -21.5644   39.0703 C   0  0  0  0  0  0  0  0  0  0  0  0
   -5.9998  -22.0294   37.8040 C   0  0  0  0  0  0  0  0  0  0  0  0
   -2.6669  -19.9832   34.4678 O   0  0  0  0  0  0  0  0  0  0  0  0
   -4.3911  -17.4960   36.4430 C   0  0  0  0  0  0  0  0  0  0  0  0
   -5.4990  -18.1137   37.1723 C   0  0  0  0  0  0  0  0  0  0  0  0
   -5.8917  -17.6129   38.5111 C   0  0  0  0  0  0  0  0  0  0  0  0
   -7.1090  -18.4344   39.0390 C   0  0  0  0  0  0  0  0  0  0  0  0
   -1.9618  -17.9274   32.5439 N   0  0  0  0  0  0  0  0  0  0  0  0
   -3.2199  -15.5485   30.0155 C   0  0  0  0  0  0  0  0  0  0  0  0
    0.9333  -16.3733   28.3314 C   0  0  0  0  0  0  0  0  0  0  0  0
    1.5406  -16.1867   29.5433 C   0  0  0  0  0  0  0  0  0  0  0  0
    2.7488  -15.4573   29.6889 N   0  0  0  0  0  0  0  0  0  0  0  0
    2.6795  -14.0904   30.1436 C   0  0  0  0  0  0  0  0  0  0  0  0
    2.9787  -13.1152   29.0083 C   0  0  0  0  0  0  0  0  0  0  0  0
    2.8643  -11.6885   29.4975 C   0  0  0  0  0  0  0  0  0  0  0  0
    4.2901  -16.1686   29.3397 S   0  0  2  0  0  6  0  0  0  0  0  0
    4.2031  -17.1393   28.2080 O   0  0  0  0  0  0  0  0  0  0  0  0
    4.8370  -17.0723   30.7904 C   0  0  0  0  0  0  0  0  0  0  0  0
    5.3071  -15.1413   29.0269 O   0  0  0  0  0  0  0  0  0  0  0  0
    0.8865  -16.7566   30.6002 C   0  0  0  0  0  0  0  0  0  0  0  0
  1  2  2  0
 14  1  1  0
  1 32  1  0
  2  3  1  0
  3  4  2  0
  5  4  1  0
  5 15  1  0
 32  5  2  0
  7  6  2  0
  8  7  1  0
  7 31  1  0
  9  8  1  0
  8 43  2  0
 10  9  2  0
 11 10  1  0
 10 33  1  0
 12 11  1  0
 13 12  1  0
 13 14  1  0
 15 16  1  0
 16 17  1  6
 16 31  1  0
 17 18  1  0
 18 19  1  0
 19 20  1  0
 19 27  1  1
 20 21  1  0
 20 26  2  0
 21 22  1  0
 22 23  1  0
 23 24  1  1
 23 25  1  0
 27 28  1  0
 28 29  1  0
 29 30  1  0
 33 34  2  0
 34 35  1  0
 34 43  1  0
 35 36  1  0
 35 39  1  0
 36 37  1  0
 37 38  1  0
 39 40  2  0
 39 41  1  1
 39 42  2  0
M  CHG  1  18   1
M  END
$$$$
