
     RDKit          3D

 43 45  0  0  0  0  0  0  0  0999 V2000
   -0.7484  -17.8881   27.4366 C   0  0  0  0  0  0  0  0  0  0  0  0
   -0.9671  -16.8650   26.4889 C   0  0  0  0  0  0  0  0  0  0  0  0
   -1.7981  -15.7908   26.6852 C   0  0  0  0  0  0  0  0  0  0  0  0
   -2.4108  -15.7834   27.8913 C   0  0  0  0  0  0  0  0  0  0  0  0
   -2.2377  -16.7880   28.9050 C   0  0  0  0  0  0  0  0  0  0  0  0
   -0.8735  -15.9639   33.4228 O   0  0  0  0  0  0  0  0  0  0  0  0
   -0.9492  -16.6654   32.2976 C   0  0  0  0  0  0  0  0  0  0  0  0
    0.2647  -16.6096   31.4872 C   0  0  0  0  0  0  0  0  0  0  0  0
    0.9688  -17.5965   30.8142 C   0  0  0  0  0  0  0  0  0  0  0  0
    2.0678  -17.2345   30.0919 C   0  0  0  0  0  0  0  0  0  0  0  0
    2.9749  -18.0471   29.2237 C   0  0  0  0  0  0  0  0  0  0  0  0
    2.4460  -18.1557   27.8096 C   0  0  0  0  0  0  0  0  0  0  0  0
    1.4234  -19.2545   27.7088 C   0  0  0  0  0  0  0  0  0  0  0  0
    0.2290  -18.8704   26.8945 C   0  0  0  0  0  0  0  0  0  0  0  0
   -3.0568  -16.3635   30.0663 C   0  0  0  0  0  0  0  0  0  0  0  0
   -3.2323  -17.2257   31.2098 C   0  0  1  0  0  0  0  0  0  0  0  0
   -3.8728  -18.5580   30.9556 C   0  0  0  0  0  0  0  0  0  0  0  0
   -3.8874  -19.3482   32.1449 N   0  0  0  0  0  4  0  0  0  0  0  0
   -4.0844  -18.7374   33.3909 C   0  0  2  0  0  0  0  0  0  0  0  0
   -3.3816  -17.4428   33.6445 C   0  0  0  0  0  0  0  0  0  0  0  0
   -4.1751  -16.2696   33.6982 N   0  0  0  0  0  0  0  0  0  0  0  0
   -3.8099  -14.9517   34.1001 C   0  0  0  0  0  0  0  0  0  0  0  0
   -4.5529  -13.8655   33.4215 C   0  0  1  0  0  0  0  0  0  0  0  0
   -5.4342  -14.4200   32.2871 C   0  0  0  0  0  0  0  0  0  0  0  0
   -5.3155  -12.8715   34.1926 C   0  0  0  0  0  0  0  0  0  0  0  0
   -2.1632  -17.3077   33.8086 O   0  0  0  0  0  0  0  0  0  0  0  0
   -3.9271  -19.6742   34.5436 C   0  0  0  0  0  0  0  0  0  0  0  0
   -4.5014  -19.3689   35.8543 C   0  0  0  0  0  0  0  0  0  0  0  0
   -4.3471  -20.3167   36.9837 C   0  0  0  0  0  0  0  0  0  0  0  0
   -5.0766  -19.7518   38.2422 C   0  0  0  0  0  0  0  0  0  0  0  0
   -2.2093  -17.2800   32.1971 N   0  0  0  0  0  0  0  0  0  0  0  0
   -1.4007  -17.8212   28.6351 C   0  0  0  0  0  0  0  0  0  0  0  0
    2.4731  -15.8768   30.0413 C   0  0  0  0  0  0  0  0  0  0  0  0
    1.8156  -14.8664   30.6886 C   0  0  0  0  0  0  0  0  0  0  0  0
    2.2374  -13.5134   30.6218 N   0  0  0  0  0  0  0  0  0  0  0  0
    2.3492  -12.7637   31.8486 C   0  0  0  0  0  0  0  0  0  0  0  0
    1.0204  -12.1110   32.2198 C   0  0  0  0  0  0  0  0  0  0  0  0
    1.2121  -10.6303   32.4620 C   0  0  0  0  0  0  0  0  0  0  0  0
    2.6212  -12.7523   29.1128 S   0  0  2  0  0  6  0  0  0  0  0  0
    2.2127  -13.5981   27.9516 O   0  0  0  0  0  0  0  0  0  0  0  0
    4.4002  -12.5333   29.0268 C   0  0  0  0  0  0  0  0  0  0  0  0
    1.9874  -11.4210   28.9962 O   0  0  0  0  0  0  0  0  0  0  0  0
    0.7188  -15.2668   31.4003 C   0  0  0  0  0  0  0  0  0  0  0  0
  1  2  2  0
 14  1  1  0
  1 32  1  0
  2  3  1  0
  3  4  2  0
  5  4  1  0
  5 15  1  0
 32  5  2  0
  7  6  2  0
  8  7  1  0
  7 31  1  0
  9  8  1  0
  8 43  2  0
 10  9  2  0
 11 10  1  0
 10 33  1  0
 12 11  1  0
 13 12  1  0
 13 14  1  0
 15 16  1  0
 16 17  1  6
 16 31  1  0
 17 18  1  0
 18 19  1  0
 19 20  1  0
 19 27  1  1
 20 21  1  0
 20 26  2  0
 21 22  1  0
 22 23  1  0
 23 24  1  6
 23 25  1  0
 27 28  1  0
 28 29  1  0
 29 30  1  0
 33 34  2  0
 34 35  1  0
 34 43  1  0
 35 36  1  0
 35 39  1  0
 36 37  1  0
 37 38  1  0
 39 40  2  0
 39 41  1  1
 39 42  2  0
M  CHG  1  18   1
M  END
$$$$
