
     RDKit          3D

 43 45  0  0  0  0  0  0  0  0999 V2000
   -2.8590  -14.4296   29.6188 C   0  0  0  0  0  0  0  0  0  0  0  0
   -2.2759  -13.2050   30.0098 C   0  0  0  0  0  0  0  0  0  0  0  0
   -1.7532  -12.9572   31.2541 C   0  0  0  0  0  0  0  0  0  0  0  0
   -1.8397  -14.0054   32.1050 C   0  0  0  0  0  0  0  0  0  0  0  0
   -2.4184  -15.2805   31.7790 C   0  0  0  0  0  0  0  0  0  0  0  0
   -0.2222  -19.5159   32.2132 O   0  0  0  0  0  0  0  0  0  0  0  0
   -1.0548  -18.6436   31.6566 C   0  0  0  0  0  0  0  0  0  0  0  0
   -0.5404  -18.0400   30.4301 C   0  0  0  0  0  0  0  0  0  0  0  0
   -1.1390  -17.7929   29.2040 C   0  0  0  0  0  0  0  0  0  0  0  0
   -0.4082  -17.1671   28.2371 C   0  0  0  0  0  0  0  0  0  0  0  0
   -0.7922  -16.7150   26.8641 C   0  0  0  0  0  0  0  0  0  0  0  0
   -1.4050  -15.3310   26.8823 C   0  0  0  0  0  0  0  0  0  0  0  0
   -2.8671  -15.4029   27.2291 C   0  0  0  0  0  0  0  0  0  0  0  0
   -3.2922  -14.3454   28.1978 C   0  0  0  0  0  0  0  0  0  0  0  0
   -2.2650  -16.1351   32.9814 C   0  0  0  0  0  0  0  0  0  0  0  0
   -2.8761  -17.4403   33.0512 C   0  0  1  0  0  0  0  0  0  0  0  0
   -4.3699  -17.4910   32.9262 C   0  0  0  0  0  0  0  0  0  0  0  0
   -4.9028  -18.5918   33.6634 N   0  0  0  0  0  4  0  0  0  0  0  0
   -4.0393  -19.5184   34.2634 C   0  0  2  0  0  0  0  0  0  0  0  0
   -3.3956  -19.1275   35.5546 C   0  0  0  0  0  0  0  0  0  0  0  0
   -4.1845  -18.4043   36.4839 N   0  0  0  0  0  0  0  0  0  0  0  0
   -5.2500  -18.8633   37.3120 C   0  0  0  0  0  0  0  0  0  0  0  0
   -6.4917  -18.0609   37.2308 C   0  0  1  0  0  0  0  0  0  0  0  0
   -7.0803  -17.8053   38.6305 C   0  0  0  0  0  0  0  0  0  0  0  0
   -6.5420  -16.8188   36.4442 C   0  0  0  0  0  0  0  0  0  0  0  0
   -2.2295  -19.3795   35.8804 O   0  0  0  0  0  0  0  0  0  0  0  0
   -3.0428  -20.1022   33.3161 C   0  0  0  0  0  0  0  0  0  0  0  0
   -2.6867  -21.5205   33.3672 C   0  0  0  0  0  0  0  0  0  0  0  0
   -1.2649  -21.9399   33.3859 C   0  0  0  0  0  0  0  0  0  0  0  0
   -0.8713  -22.5116   31.9882 C   0  0  0  0  0  0  0  0  0  0  0  0
   -2.2280  -18.5406   32.4239 N   0  0  0  0  0  0  0  0  0  0  0  0
   -2.9166  -15.4476   30.5281 C   0  0  0  0  0  0  0  0  0  0  0  0
    0.9336  -16.7860   28.4911 C   0  0  0  0  0  0  0  0  0  0  0  0
    1.5709  -17.0088   29.6812 C   0  0  0  0  0  0  0  0  0  0  0  0
    2.9142  -16.6162   29.9146 N   0  0  0  0  0  0  0  0  0  0  0  0
    3.1661  -15.5193   30.8162 C   0  0  0  0  0  0  0  0  0  0  0  0
    3.9291  -15.9854   32.0532 C   0  0  0  0  0  0  0  0  0  0  0  0
    4.7413  -14.8468   32.6294 C   0  0  0  0  0  0  0  0  0  0  0  0
    4.2447  -17.4219   29.1501 S   0  0  2  0  0  6  0  0  0  0  0  0
    5.4818  -17.3511   29.9837 O   0  0  0  0  0  0  0  0  0  0  0  0
    4.5884  -16.5944   27.5954 C   0  0  0  0  0  0  0  0  0  0  0  0
    3.9308  -18.8376   28.8585 O   0  0  0  0  0  0  0  0  0  0  0  0
    0.8070  -17.6361   30.6260 C   0  0  0  0  0  0  0  0  0  0  0  0
  1  2  2  0
 14  1  1  0
  1 32  1  0
  2  3  1  0
  3  4  2  0
  5  4  1  0
  5 15  1  0
 32  5  2  0
  7  6  2  0
  8  7  1  0
  7 31  1  0
  9  8  1  0
  8 43  2  0
 10  9  2  0
 11 10  1  0
 10 33  1  0
 12 11  1  0
 13 12  1  0
 13 14  1  0
 15 16  1  0
 16 17  1  6
 16 31  1  0
 17 18  1  0
 18 19  1  0
 19 20  1  0
 19 27  1  6
 20 21  1  0
 20 26  2  0
 21 22  1  0
 22 23  1  0
 23 24  1  1
 23 25  1  0
 27 28  1  0
 28 29  1  0
 29 30  1  0
 33 34  2  0
 34 35  1  0
 34 43  1  0
 35 36  1  0
 35 39  1  0
 36 37  1  0
 37 38  1  0
 39 40  2  0
 39 41  1  6
 39 42  2  0
M  CHG  1  18   1
M  END
$$$$
