
     RDKit          3D

 43 45  0  0  0  0  0  0  0  0999 V2000
   -2.5324  -14.6985   28.3974 C   0  0  0  0  0  0  0  0  0  0  0  0
   -2.3344  -13.3456   28.7484 C   0  0  0  0  0  0  0  0  0  0  0  0
   -2.2195  -12.8875   30.0367 C   0  0  0  0  0  0  0  0  0  0  0  0
   -2.3119  -13.8576   30.9751 C   0  0  0  0  0  0  0  0  0  0  0  0
   -2.5127  -15.2533   30.6945 C   0  0  0  0  0  0  0  0  0  0  0  0
    0.3052  -18.8201   32.2071 O   0  0  0  0  0  0  0  0  0  0  0  0
   -0.5108  -18.2098   31.3554 C   0  0  0  0  0  0  0  0  0  0  0  0
    0.1745  -17.6014   30.2181 C   0  0  0  0  0  0  0  0  0  0  0  0
   -0.1174  -17.5957   28.8626 C   0  0  0  0  0  0  0  0  0  0  0  0
    0.6991  -16.8955   28.0237 C   0  0  0  0  0  0  0  0  0  0  0  0
    0.6065  -16.6529   26.5508 C   0  0  0  0  0  0  0  0  0  0  0  0
   -0.2575  -15.4507   26.2354 C   0  0  0  0  0  0  0  0  0  0  0  0
   -1.7131  -15.8309   26.2285 C   0  0  0  0  0  0  0  0  0  0  0  0
   -2.5840  -14.8278   26.9160 C   0  0  0  0  0  0  0  0  0  0  0  0
   -2.5108  -15.9529   32.0022 C   0  0  0  0  0  0  0  0  0  0  0  0
   -2.8402  -17.3543   32.0985 C   0  0  1  0  0  0  0  0  0  0  0  0
   -4.2057  -17.7581   31.6274 C   0  0  0  0  0  0  0  0  0  0  0  0
   -4.6595  -18.9186   32.3248 N   0  0  0  0  0  4  0  0  0  0  0  0
   -4.4348  -19.0419   33.7027 C   0  0  2  0  0  0  0  0  0  0  0  0
   -4.3310  -17.7826   34.5012 C   0  0  0  0  0  0  0  0  0  0  0  0
   -5.5273  -17.2597   35.0529 N   0  0  0  0  0  0  0  0  0  0  0  0
   -6.3506  -16.1976   34.5776 C   0  0  0  0  0  0  0  0  0  0  0  0
   -6.1126  -14.8876   35.2252 C   0  0  1  0  0  0  0  0  0  0  0  0
   -6.9732  -14.7298   36.4922 C   0  0  0  0  0  0  0  0  0  0  0  0
   -4.7470  -14.4138   35.4989 C   0  0  0  0  0  0  0  0  0  0  0  0
   -3.2878  -17.1550   34.7192 O   0  0  0  0  0  0  0  0  0  0  0  0
   -3.3331  -19.9915   34.0427 C   0  0  0  0  0  0  0  0  0  0  0  0
   -2.7460  -20.0254   35.3825 C   0  0  0  0  0  0  0  0  0  0  0  0
   -1.7265  -21.0431   35.7327 C   0  0  0  0  0  0  0  0  0  0  0  0
   -2.4349  -22.3402   36.2337 C   0  0  0  0  0  0  0  0  0  0  0  0
   -1.8402  -18.3208   31.7984 N   0  0  0  0  0  0  0  0  0  0  0  0
   -2.6192  -15.6281   29.3949 C   0  0  0  0  0  0  0  0  0  0  0  0
    1.8202  -16.1963   28.5380 C   0  0  0  0  0  0  0  0  0  0  0  0
    2.1531  -16.1724   29.8649 C   0  0  0  0  0  0  0  0  0  0  0  0
    3.2787  -15.4633   30.3582 N   0  0  0  0  0  0  0  0  0  0  0  0
    3.8878  -15.9048   31.5886 C   0  0  0  0  0  0  0  0  0  0  0  0
    4.9071  -17.0119   31.3336 C   0  0  0  0  0  0  0  0  0  0  0  0
    5.5589  -17.4348   32.6314 C   0  0  0  0  0  0  0  0  0  0  0  0
    3.9323  -14.0947   29.5196 S   0  0  2  0  0  6  0  0  0  0  0  0
    3.6494  -14.1618   28.0548 O   0  0  0  0  0  0  0  0  0  0  0  0
    5.7144  -14.1014   29.7302 C   0  0  0  0  0  0  0  0  0  0  0  0
    3.4096  -12.8217   30.0617 O   0  0  0  0  0  0  0  0  0  0  0  0
    1.3115  -16.8834   30.6747 C   0  0  0  0  0  0  0  0  0  0  0  0
  1  2  2  0
 14  1  1  0
  1 32  1  0
  2  3  1  0
  3  4  2  0
  5  4  1  0
  5 15  1  0
 32  5  2  0
  7  6  2  0
  8  7  1  0
  7 31  1  0
  9  8  1  0
  8 43  2  0
 10  9  2  0
 11 10  1  0
 10 33  1  0
 12 11  1  0
 13 12  1  0
 13 14  1  0
 15 16  1  0
 16 17  1  6
 16 31  1  0
 17 18  1  0
 18 19  1  0
 19 20  1  0
 19 27  1  6
 20 21  1  0
 20 26  2  0
 21 22  1  0
 22 23  1  0
 23 24  1  1
 23 25  1  0
 27 28  1  0
 28 29  1  0
 29 30  1  0
 33 34  2  0
 34 35  1  0
 34 43  1  0
 35 36  1  0
 35 39  1  0
 36 37  1  0
 37 38  1  0
 39 40  2  0
 39 41  1  6
 39 42  2  0
M  CHG  1  18   1
M  END
$$$$
