
     RDKit          3D

 43 45  0  0  0  0  0  0  0  0999 V2000
   -3.2243  -14.6689   29.1566 C   0  0  0  0  0  0  0  0  0  0  0  0
   -2.9899  -13.3402   29.5716 C   0  0  0  0  0  0  0  0  0  0  0  0
   -2.6390  -12.9766   30.8474 C   0  0  0  0  0  0  0  0  0  0  0  0
   -2.5300  -14.0174   31.7049 C   0  0  0  0  0  0  0  0  0  0  0  0
   -2.7527  -15.3941   31.3558 C   0  0  0  0  0  0  0  0  0  0  0  0
    0.3743  -18.9634   32.0132 O   0  0  0  0  0  0  0  0  0  0  0  0
   -0.6022  -18.3198   31.3839 C   0  0  0  0  0  0  0  0  0  0  0  0
   -0.1603  -17.6036   30.1900 C   0  0  0  0  0  0  0  0  0  0  0  0
   -0.7072  -17.5061   28.9195 C   0  0  0  0  0  0  0  0  0  0  0  0
   -0.0812  -16.7164   28.0002 C   0  0  0  0  0  0  0  0  0  0  0  0
   -0.4597  -16.3669   26.5961 C   0  0  0  0  0  0  0  0  0  0  0  0
   -1.3922  -15.1755   26.5486 C   0  0  0  0  0  0  0  0  0  0  0  0
   -2.8141  -15.6050   26.7874 C   0  0  0  0  0  0  0  0  0  0  0  0
   -3.5567  -14.6878   27.7064 C   0  0  0  0  0  0  0  0  0  0  0  0
   -2.4857  -16.1898   32.5786 C   0  0  0  0  0  0  0  0  0  0  0  0
   -2.7622  -17.6052   32.6222 C   0  0  1  0  0  0  0  0  0  0  0  0
   -4.1844  -18.0202   32.3879 C   0  0  0  0  0  0  0  0  0  0  0  0
   -4.4603  -19.2668   33.0274 N   0  0  0  0  0  4  0  0  0  0  0  0
   -4.5854  -19.3274   34.4220 C   0  0  2  0  0  0  0  0  0  0  0  0
   -3.9951  -18.2084   35.2180 C   0  0  0  0  0  0  0  0  0  0  0  0
   -4.8432  -17.5459   36.1403 N   0  0  0  0  0  0  0  0  0  0  0  0
   -4.5615  -16.4336   36.9860 C   0  0  0  0  0  0  0  0  0  0  0  0
   -5.7075  -15.9612   37.7959 C   0  0  1  0  0  0  0  0  0  0  0  0
   -6.5428  -14.9232   37.0240 C   0  0  0  0  0  0  0  0  0  0  0  0
   -6.6070  -16.9137   38.4651 C   0  0  0  0  0  0  0  0  0  0  0  0
   -2.8275  -17.8086   35.1377 O   0  0  0  0  0  0  0  0  0  0  0  0
   -4.2127  -20.6555   34.9950 C   0  0  0  0  0  0  0  0  0  0  0  0
   -4.4410  -20.9647   36.4069 C   0  0  0  0  0  0  0  0  0  0  0  0
   -3.8638  -22.1882   37.0130 C   0  0  0  0  0  0  0  0  0  0  0  0
   -4.2936  -22.2814   38.5103 C   0  0  0  0  0  0  0  0  0  0  0  0
   -1.8192  -18.5106   32.0607 N   0  0  0  0  0  0  0  0  0  0  0  0
   -3.0992  -15.6735   30.0741 C   0  0  0  0  0  0  0  0  0  0  0  0
    1.1035  -16.0190   28.3470 C   0  0  0  0  0  0  0  0  0  0  0  0
    1.6845  -16.0834   29.5842 C   0  0  0  0  0  0  0  0  0  0  0  0
    2.8693  -15.3743   29.9104 N   0  0  0  0  0  0  0  0  0  0  0  0
    2.8134  -14.3788   30.9523 C   0  0  0  0  0  0  0  0  0  0  0  0
    3.1856  -12.9986   30.4177 C   0  0  0  0  0  0  0  0  0  0  0  0
    1.9382  -12.2059   30.0958 C   0  0  0  0  0  0  0  0  0  0  0  0
    4.3675  -15.6796   29.0945 S   0  0  2  0  0  6  0  0  0  0  0  0
    4.3303  -15.2004   27.6805 O   0  0  0  0  0  0  0  0  0  0  0  0
    4.6415  -17.4527   29.0608 C   0  0  0  0  0  0  0  0  0  0  0  0
    5.5085  -15.0508   29.7949 O   0  0  0  0  0  0  0  0  0  0  0  0
    1.0285  -16.8825   30.4790 C   0  0  0  0  0  0  0  0  0  0  0  0
  1  2  2  0
 14  1  1  0
  1 32  1  0
  2  3  1  0
  3  4  2  0
  5  4  1  0
  5 15  1  0
 32  5  2  0
  7  6  2  0
  8  7  1  0
  7 31  1  0
  9  8  1  0
  8 43  2  0
 10  9  2  0
 11 10  1  0
 10 33  1  0
 12 11  1  0
 13 12  1  0
 13 14  1  0
 15 16  1  0
 16 17  1  6
 16 31  1  0
 17 18  1  0
 18 19  1  0
 19 20  1  0
 19 27  1  1
 20 21  1  0
 20 26  2  0
 21 22  1  0
 22 23  1  0
 23 24  1  6
 23 25  1  0
 27 28  1  0
 28 29  1  0
 29 30  1  0
 33 34  2  0
 34 35  1  0
 34 43  1  0
 35 36  1  0
 35 39  1  0
 36 37  1  0
 37 38  1  0
 39 40  2  0
 39 41  1  6
 39 42  2  0
M  CHG  1  18   1
M  END
$$$$
