
     RDKit          3D

 24 27  0  0  0  0  0  0  0  0999 V2000
  -23.7819  -18.6554   11.5128 C   0  0  0  0  0  0  0  0  0  0  0  0
  -22.6744  -22.8985   10.4666 C   0  0  0  0  0  0  0  0  0  0  0  0
  -23.9831  -24.8129    9.9952 C   0  0  0  0  0  0  0  0  0  0  0  0
  -22.3260  -22.8599    9.1239 C   0  0  0  0  0  0  0  0  0  0  0  0
  -21.4613  -22.7794    6.4231 C   0  0  0  0  0  0  0  0  0  0  0  0
  -24.8195  -19.4597   11.0931 C   0  0  0  0  0  0  0  0  0  0  0  0
  -16.5249  -17.0880   13.8313 N   0  0  0  0  0  0  0  0  0  0  0  0
  -17.8645  -16.8215   13.4639 C   0  0  0  0  0  0  0  0  0  0  0  0
  -18.4848  -15.6057   13.4119 N   0  0  0  0  0  0  0  0  0  0  0  0
  -19.7405  -15.7438   13.0256 N   0  0  0  0  0  0  0  0  0  0  0  0
  -20.0233  -17.0396   12.8018 C   0  0  0  0  0  0  0  0  0  0  0  0
  -18.8537  -17.7129   13.0750 C   0  0  0  0  0  0  0  0  0  0  0  0
  -21.3076  -17.5778   12.3638 C   0  0  0  0  0  0  0  0  0  0  0  0
  -22.4222  -16.7863   12.1949 C   0  0  0  0  0  0  0  0  0  0  0  0
  -23.6367  -17.3099   11.7780 C   0  0  0  0  0  0  0  0  0  0  0  0
  -22.6579  -19.4683   11.6814 C   0  0  0  0  0  0  0  0  0  0  0  0
  -21.4495  -18.9259   12.0993 C   0  0  0  0  0  0  0  0  0  0  0  0
  -23.0052  -20.7268   11.3732 N   0  0  0  0  0  0  0  0  0  0  0  0
  -22.1510  -21.8952   11.4222 C   0  0  0  0  0  0  0  0  0  0  0  0
  -23.5128  -23.8801   10.9281 C   0  0  0  0  0  0  0  0  0  0  0  0
  -23.6265  -24.7564    8.6731 C   0  0  0  0  0  0  0  0  0  0  0  0
  -22.7835  -23.7713    8.2041 C   0  0  0  0  0  0  0  0  0  0  0  0
  -22.4228  -23.7177    6.8562 O   0  0  0  0  0  0  0  0  0  0  0  0
  -24.3066  -20.7319   11.0169 C   0  0  0  0  0  0  0  0  0  0  0  0
  6  1  1  0
  1 15  2  0
 16  1  1  0
  4  2  2  0
  2 19  1  0
  2 20  1  0
  3 20  2  0
 21  3  1  0
 22  4  1  0
  5 23  1  1
 24  6  2  0
  8  7  1  0
  8  9  2  0
 12  8  1  0
 10  9  1  0
 11 10  1  0
 11 12  2  0
 13 11  1  0
 13 14  2  0
 17 13  1  0
 15 14  1  0
 16 17  2  0
 18 16  1  0
 19 18  1  6
 18 24  1  0
 22 21  2  0
 22 23  1  0
M  END
$$$$
