
     RDKit          3D

 24 27  0  0  0  0  0  0  0  0999 V2000
  -23.9684  -19.3833   11.1972 C   0  0  0  0  0  0  0  0  0  0  0  0
  -22.4217  -23.5259   10.5589 C   0  0  0  0  0  0  0  0  0  0  0  0
  -22.4305  -23.9819    8.2369 C   0  0  0  0  0  0  0  0  0  0  0  0
  -22.6340  -24.8792   10.7810 C   0  0  0  0  0  0  0  0  0  0  0  0
  -22.5695  -28.1102    9.0440 C   0  0  0  0  0  0  0  0  0  0  0  0
  -24.9754  -20.2581   10.8505 C   0  0  0  0  0  0  0  0  0  0  0  0
  -16.8426  -17.3697   13.5773 N   0  0  0  0  0  0  0  0  0  0  0  0
  -18.1721  -17.1824   13.1325 C   0  0  0  0  0  0  0  0  0  0  0  0
  -18.8155  -15.9974   12.9151 N   0  0  0  0  0  0  0  0  0  0  0  0
  -20.0518  -16.2119   12.5020 N   0  0  0  0  0  0  0  0  0  0  0  0
  -20.2981  -17.5318   12.4222 C   0  0  0  0  0  0  0  0  0  0  0  0
  -19.1261  -18.1383   12.8152 C   0  0  0  0  0  0  0  0  0  0  0  0
  -21.5525  -18.1504   12.0039 C   0  0  0  0  0  0  0  0  0  0  0  0
  -22.6620  -17.4112   11.6576 C   0  0  0  0  0  0  0  0  0  0  0  0
  -23.8479  -18.0110   11.2616 C   0  0  0  0  0  0  0  0  0  0  0  0
  -22.8492  -20.1435   11.5469 C   0  0  0  0  0  0  0  0  0  0  0  0
  -21.6696  -19.5250   11.9407 C   0  0  0  0  0  0  0  0  0  0  0  0
  -23.1698  -21.4394   11.4161 N   0  0  0  0  0  0  0  0  0  0  0  0
  -22.3108  -22.5733   11.6876 C   0  0  0  0  0  0  0  0  0  0  0  0
  -22.3158  -23.0511    9.2772 C   0  0  0  0  0  0  0  0  0  0  0  0
  -22.6401  -25.3145    8.4785 C   0  0  0  0  0  0  0  0  0  0  0  0
  -22.7474  -25.7968    9.7657 C   0  0  0  0  0  0  0  0  0  0  0  0
  -22.9611  -27.1555   10.0071 O   0  0  0  0  0  0  0  0  0  0  0  0
  -24.4497  -21.5190   10.9964 C   0  0  0  0  0  0  0  0  0  0  0  0
  6  1  1  0
  1 15  2  0
 16  1  1  0
  4  2  2  0
  2 19  1  0
  2 20  1  0
  3 20  2  0
 21  3  1  0
 22  4  1  0
  5 23  1  1
 24  6  2  0
  8  7  1  0
  8  9  2  0
 12  8  1  0
 10  9  1  0
 11 10  1  0
 11 12  2  0
 13 11  1  0
 13 14  2  0
 17 13  1  0
 15 14  1  0
 16 17  2  0
 18 16  1  0
 19 18  1  6
 18 24  1  0
 22 21  2  0
 22 23  1  0
M  END
$$$$
