
     RDKit          3D

 24 27  0  0  0  0  0  0  0  0999 V2000
  -23.1044  -17.3691   12.3155 C   0  0  0  0  0  0  0  0  0  0  0  0
  -23.3796  -21.6092   10.8106 C   0  0  0  0  0  0  0  0  0  0  0  0
  -23.8344  -23.3891    9.3189 C   0  0  0  0  0  0  0  0  0  0  0  0
  -24.6734  -21.1559   10.5950 C   0  0  0  0  0  0  0  0  0  0  0  0
  -27.6484  -21.8663    8.5192 C   0  0  0  0  0  0  0  0  0  0  0  0
  -24.3766  -17.8281   12.0501 C   0  0  0  0  0  0  0  0  0  0  0  0
  -15.4248  -17.9933   13.3791 N   0  0  0  0  0  0  0  0  0  0  0  0
  -16.6775  -17.3486   13.2538 C   0  0  0  0  0  0  0  0  0  0  0  0
  -16.9334  -16.0093   13.3336 N   0  0  0  0  0  0  0  0  0  0  0  0
  -18.2227  -15.7746   13.1671 N   0  0  0  0  0  0  0  0  0  0  0  0
  -18.8883  -16.9266   12.9699 C   0  0  0  0  0  0  0  0  0  0  0  0
  -17.9254  -17.9093   13.0238 C   0  0  0  0  0  0  0  0  0  0  0  0
  -20.3248  -17.0648   12.7496 C   0  0  0  0  0  0  0  0  0  0  0  0
  -21.1930  -15.9995   12.8430 C   0  0  0  0  0  0  0  0  0  0  0  0
  -22.5558  -16.1438   12.6310 C   0  0  0  0  0  0  0  0  0  0  0  0
  -22.2332  -18.4573   12.2186 C   0  0  0  0  0  0  0  0  0  0  0  0
  -20.8708  -18.2934   12.4339 C   0  0  0  0  0  0  0  0  0  0  0  0
  -22.9567  -19.5422   11.9044 N   0  0  0  0  0  0  0  0  0  0  0  0
  -22.4579  -20.8891   11.7192 C   0  0  0  0  0  0  0  0  0  0  0  0
  -22.9351  -22.7388   10.1734 C   0  0  0  0  0  0  0  0  0  0  0  0
  -25.1082  -22.9244    9.1203 C   0  0  0  0  0  0  0  0  0  0  0  0
  -25.5598  -21.7887    9.7586 C   0  0  0  0  0  0  0  0  0  0  0  0
  -26.8586  -21.3188    9.5531 O   0  0  0  0  0  0  0  0  0  0  0  0
  -24.2503  -19.1731   11.8002 C   0  0  0  0  0  0  0  0  0  0  0  0
  6  1  1  0
  1 15  2  0
 16  1  1  0
  4  2  2  0
  2 19  1  0
  2 20  1  0
  3 20  2  0
 21  3  1  0
 22  4  1  0
  5 23  1  1
 24  6  2  0
  8  7  1  0
  8  9  2  0
 12  8  1  0
 10  9  1  0
 11 10  1  0
 11 12  2  0
 13 11  1  0
 13 14  2  0
 17 13  1  0
 15 14  1  0
 16 17  2  0
 18 16  1  0
 19 18  1  6
 18 24  1  0
 22 21  2  0
 22 23  1  0
M  END
$$$$
