
     RDKit          3D

 24 27  0  0  0  0  0  0  0  0999 V2000
  -23.5010  -19.2486   11.8316 C   0  0  0  0  0  0  0  0  0  0  0  0
  -22.4299  -22.5821    9.1318 C   0  0  0  0  0  0  0  0  0  0  0  0
  -23.5115  -21.9747    7.1165 C   0  0  0  0  0  0  0  0  0  0  0  0
  -21.7391  -23.5510    8.4178 C   0  0  0  0  0  0  0  0  0  0  0  0
  -20.3262  -25.5965    7.0554 C   0  0  0  0  0  0  0  0  0  0  0  0
  -24.6703  -19.8881   11.4804 C   0  0  0  0  0  0  0  0  0  0  0  0
  -16.6112  -15.9495   13.3644 N   0  0  0  0  0  0  0  0  0  0  0  0
  -17.5307  -16.9746   13.0412 C   0  0  0  0  0  0  0  0  0  0  0  0
  -17.2565  -18.2916   12.8054 N   0  0  0  0  0  0  0  0  0  0  0  0
  -18.3669  -18.9533   12.5332 N   0  0  0  0  0  0  0  0  0  0  0  0
  -19.4275  -18.1269   12.5716 C   0  0  0  0  0  0  0  0  0  0  0  0
  -18.9071  -16.8922   12.8885 C   0  0  0  0  0  0  0  0  0  0  0  0
  -20.8177  -18.4975   12.3244 C   0  0  0  0  0  0  0  0  0  0  0  0
  -21.8697  -17.6565   12.6135 C   0  0  0  0  0  0  0  0  0  0  0  0
  -23.1862  -18.0203   12.3737 C   0  0  0  0  0  0  0  0  0  0  0  0
  -22.4418  -20.1104   11.5348 C   0  0  0  0  0  0  0  0  0  0  0  0
  -21.1294  -19.7285   11.7816 C   0  0  0  0  0  0  0  0  0  0  0  0
  -22.9550  -21.2377   11.0198 N   0  0  0  0  0  0  0  0  0  0  0  0
  -22.2148  -22.4045   10.5864 C   0  0  0  0  0  0  0  0  0  0  0  0
  -23.3325  -21.7733    8.4909 C   0  0  0  0  0  0  0  0  0  0  0  0
  -22.8186  -22.9377    6.4304 C   0  0  0  0  0  0  0  0  0  0  0  0
  -21.9100  -23.7538    7.0704 C   0  0  0  0  0  0  0  0  0  0  0  0
  -21.2063  -24.7338    6.3673 O   0  0  0  0  0  0  0  0  0  0  0  0
  -24.2981  -21.1133   10.9825 C   0  0  0  0  0  0  0  0  0  0  0  0
  6  1  1  0
  1 15  2  0
 16  1  1  0
  4  2  2  0
  2 19  1  0
  2 20  1  0
  3 20  2  0
 21  3  1  0
 22  4  1  0
  5 23  1  1
 24  6  2  0
  8  7  1  0
  8  9  2  0
 12  8  1  0
 10  9  1  0
 11 10  1  0
 11 12  2  0
 13 11  1  0
 13 14  2  0
 17 13  1  0
 15 14  1  0
 16 17  2  0
 18 16  1  0
 19 18  1  6
 18 24  1  0
 22 21  2  0
 22 23  1  0
M  END
$$$$
