
     RDKit          3D

 24 27  0  0  0  0  0  0  0  0999 V2000
  -22.0900  -18.6997   13.9743 C   0  0  0  0  0  0  0  0  0  0  0  0
  -23.6602  -21.0105   10.4769 C   0  0  0  0  0  0  0  0  0  0  0  0
  -25.7291  -20.0141    9.9052 C   0  0  0  0  0  0  0  0  0  0  0  0
  -24.0742  -22.1520    9.8051 C   0  0  0  0  0  0  0  0  0  0  0  0
  -24.8579  -24.5480    8.5081 C   0  0  0  0  0  0  0  0  0  0  0  0
  -23.2751  -19.3455   14.2542 C   0  0  0  0  0  0  0  0  0  0  0  0
  -15.2229  -15.5404   12.0862 N   0  0  0  0  0  0  0  0  0  0  0  0
  -16.4118  -16.2884   11.9195 C   0  0  0  0  0  0  0  0  0  0  0  0
  -16.8123  -16.9737   10.8080 N   0  0  0  0  0  0  0  0  0  0  0  0
  -17.9799  -17.5545   11.0191 N   0  0  0  0  0  0  0  0  0  0  0  0
  -18.4164  -17.2928   12.2642 C   0  0  0  0  0  0  0  0  0  0  0  0
  -17.4390  -16.5030   12.8269 C   0  0  0  0  0  0  0  0  0  0  0  0
  -19.6651  -17.7636   12.8560 C   0  0  0  0  0  0  0  0  0  0  0  0
  -20.1583  -17.2605   14.0396 C   0  0  0  0  0  0  0  0  0  0  0  0
  -21.3461  -17.7161   14.5914 C   0  0  0  0  0  0  0  0  0  0  0  0
  -21.5991  -19.2181   12.7731 C   0  0  0  0  0  0  0  0  0  0  0  0
  -20.4076  -18.7490   12.2354 C   0  0  0  0  0  0  0  0  0  0  0  0
  -22.4612  -20.1498   12.3394 N   0  0  0  0  0  0  0  0  0  0  0  0
  -22.3366  -20.9497   11.1387 C   0  0  0  0  0  0  0  0  0  0  0  0
  -24.4841  -19.9165   10.5392 C   0  0  0  0  0  0  0  0  0  0  0  0
  -26.1183  -21.1513    9.2468 C   0  0  0  0  0  0  0  0  0  0  0  0
  -25.2935  -22.2543    9.1815 C   0  0  0  0  0  0  0  0  0  0  0  0
  -25.6943  -23.4110    8.5097 O   0  0  0  0  0  0  0  0  0  0  0  0
  -23.4753  -20.2338   13.2255 C   0  0  0  0  0  0  0  0  0  0  0  0
  6  1  1  0
  1 15  2  0
 16  1  1  0
  4  2  2  0
  2 19  1  0
  2 20  1  0
  3 20  2  0
 21  3  1  0
 22  4  1  0
  5 23  1  1
 24  6  2  0
  8  7  1  0
  8  9  2  0
 12  8  1  0
 10  9  1  0
 11 10  1  0
 11 12  2  0
 13 11  1  0
 13 14  2  0
 17 13  1  0
 15 14  1  0
 16 17  2  0
 18 16  1  0
 19 18  1  6
 18 24  1  0
 22 21  2  0
 22 23  1  0
M  END
$$$$
