
     RDKit          3D

 24 27  0  0  0  0  0  0  0  0999 V2000
  -21.5608  -21.6883    9.7794 C   0  0  0  0  0  0  0  0  0  0  0  0
  -25.4904  -19.9358   10.9474 C   0  0  0  0  0  0  0  0  0  0  0  0
  -27.6552  -19.6905   11.8711 C   0  0  0  0  0  0  0  0  0  0  0  0
  -25.5126  -21.2609   11.3590 C   0  0  0  0  0  0  0  0  0  0  0  0
  -27.2167  -23.5220   13.6350 C   0  0  0  0  0  0  0  0  0  0  0  0
  -22.6021  -22.4080    9.2342 C   0  0  0  0  0  0  0  0  0  0  0  0
  -18.2607  -15.7233   13.5246 N   0  0  0  0  0  0  0  0  0  0  0  0
  -18.3225  -16.9278   12.7856 C   0  0  0  0  0  0  0  0  0  0  0  0
  -17.2755  -17.6874   12.3473 N   0  0  0  0  0  0  0  0  0  0  0  0
  -17.7154  -18.7447   11.6888 N   0  0  0  0  0  0  0  0  0  0  0  0
  -19.0599  -18.7490   11.6517 C   0  0  0  0  0  0  0  0  0  0  0  0
  -19.4399  -17.6160   12.3356 C   0  0  0  0  0  0  0  0  0  0  0  0
  -19.9009  -19.7570   11.0130 C   0  0  0  0  0  0  0  0  0  0  0  0
  -19.4028  -20.9617   10.5682 C   0  0  0  0  0  0  0  0  0  0  0  0
  -20.2124  -21.9111    9.9632 C   0  0  0  0  0  0  0  0  0  0  0  0
  -22.0773  -20.4693   10.2263 C   0  0  0  0  0  0  0  0  0  0  0  0
  -21.2510  -19.5305   10.8305 C   0  0  0  0  0  0  0  0  0  0  0  0
  -23.3917  -20.4518    9.9591 N   0  0  0  0  0  0  0  0  0  0  0  0
  -24.3162  -19.3734   10.2413 C   0  0  0  0  0  0  0  0  0  0  0  0
  -26.5661  -19.1235   11.1973 C   0  0  0  0  0  0  0  0  0  0  0  0
  -27.6565  -21.0019   12.2689 C   0  0  0  0  0  0  0  0  0  0  0  0
  -26.5771  -21.8229   12.0200 C   0  0  0  0  0  0  0  0  0  0  0  0
  -26.5828  -23.1586   12.4273 O   0  0  0  0  0  0  0  0  0  0  0  0
  -23.7179  -21.6165    9.3611 C   0  0  0  0  0  0  0  0  0  0  0  0
  6  1  1  0
  1 15  2  0
 16  1  1  0
  4  2  2  0
  2 19  1  0
  2 20  1  0
  3 20  2  0
 21  3  1  0
 22  4  1  0
  5 23  1  1
 24  6  2  0
  8  7  1  0
  8  9  2  0
 12  8  1  0
 10  9  1  0
 11 10  1  0
 11 12  2  0
 13 11  1  0
 13 14  2  0
 17 13  1  0
 15 14  1  0
 16 17  2  0
 18 16  1  0
 19 18  1  6
 18 24  1  0
 22 21  2  0
 22 23  1  0
M  END
$$$$
