
     RDKit          3D

 24 27  0  0  0  0  0  0  0  0999 V2000
  -13.5856   -9.8993   26.4975 C   0  0  0  0  0  0  0  0  0  0  0  0
  -12.8530  -14.1940   27.6260 C   0  0  0  0  0  0  0  0  0  0  0  0
  -11.6225  -14.0982   29.6451 C   0  0  0  0  0  0  0  0  0  0  0  0
  -12.9162  -15.5716   27.7810 C   0  0  0  0  0  0  0  0  0  0  0  0
  -11.3110  -18.3366   29.4760 C   0  0  0  0  0  0  0  0  0  0  0  0
  -13.6344  -10.1771   27.8466 C   0  0  0  0  0  0  0  0  0  0  0  0
  -13.2054  -11.6168   18.9211 N   0  0  0  0  0  0  0  0  0  0  0  0
  -13.2932  -10.7989   20.0717 C   0  0  0  0  0  0  0  0  0  0  0  0
  -13.3691   -9.4360   20.1175 N   0  0  0  0  0  0  0  0  0  0  0  0
  -13.4390   -9.0188   21.3689 N   0  0  0  0  0  0  0  0  0  0  0  0
  -13.4140  -10.0644   22.2147 C   0  0  0  0  0  0  0  0  0  0  0  0
  -13.3230  -11.1755   21.4066 C   0  0  0  0  0  0  0  0  0  0  0  0
  -13.4726   -9.9954   23.6717 C   0  0  0  0  0  0  0  0  0  0  0  0
  -13.5314   -8.8001   24.3536 C   0  0  0  0  0  0  0  0  0  0  0  0
  -13.5870   -8.7481   25.7383 C   0  0  0  0  0  0  0  0  0  0  0  0
  -13.5255  -11.1180   25.8164 C   0  0  0  0  0  0  0  0  0  0  0  0
  -13.4709  -11.1504   24.4290 C   0  0  0  0  0  0  0  0  0  0  0  0
  -13.5373  -12.1036   26.7263 N   0  0  0  0  0  0  0  0  0  0  0  0
  -13.4754  -13.5257   26.4600 C   0  0  0  0  0  0  0  0  0  0  0  0
  -12.2019  -13.4295   28.5594 C   0  0  0  0  0  0  0  0  0  0  0  0
  -11.6968  -15.4601   29.7790 C   0  0  0  0  0  0  0  0  0  0  0  0
  -12.3503  -16.2333   28.8429 C   0  0  0  0  0  0  0  0  0  0  0  0
  -12.4234  -17.6208   28.9834 O   0  0  0  0  0  0  0  0  0  0  0  0
  -13.6031  -11.5465   27.9535 C   0  0  0  0  0  0  0  0  0  0  0  0
  6  1  1  0
  1 15  2  0
 16  1  1  0
  4  2  2  0
  2 19  1  0
  2 20  1  0
  3 20  2  0
 21  3  1  0
 22  4  1  0
  5 23  1  1
 24  6  2  0
  8  7  1  0
  8  9  2  0
 12  8  1  0
 10  9  1  0
 11 10  1  0
 11 12  2  0
 13 11  1  0
 13 14  2  0
 17 13  1  0
 15 14  1  0
 16 17  2  0
 18 16  1  0
 19 18  1  6
 18 24  1  0
 22 21  2  0
 22 23  1  0
M  END
$$$$
