
     RDKit          3D

 24 27  0  0  0  0  0  0  0  0999 V2000
  -12.8406  -10.2444   27.7451 C   0  0  0  0  0  0  0  0  0  0  0  0
  -13.2293   -5.9975   29.2295 C   0  0  0  0  0  0  0  0  0  0  0  0
  -13.2496   -4.0608   30.5892 C   0  0  0  0  0  0  0  0  0  0  0  0
  -12.4683   -6.6226   30.2072 C   0  0  0  0  0  0  0  0  0  0  0  0
  -11.7142   -7.9145   32.8230 C   0  0  0  0  0  0  0  0  0  0  0  0
  -12.8277  -10.0662   29.1117 C   0  0  0  0  0  0  0  0  0  0  0  0
  -12.7062  -10.6552   19.9659 N   0  0  0  0  0  0  0  0  0  0  0  0
  -12.9546  -10.1057   21.2453 C   0  0  0  0  0  0  0  0  0  0  0  0
  -13.5175   -8.8952   21.5338 N   0  0  0  0  0  0  0  0  0  0  0  0
  -13.5914   -8.7197   22.8410 N   0  0  0  0  0  0  0  0  0  0  0  0
  -13.0896   -9.7872   23.4873 C   0  0  0  0  0  0  0  0  0  0  0  0
  -12.6920  -10.6526   22.4929 C   0  0  0  0  0  0  0  0  0  0  0  0
  -13.0023   -9.9552   24.9348 C   0  0  0  0  0  0  0  0  0  0  0  0
  -12.7180  -11.1681   25.5226 C   0  0  0  0  0  0  0  0  0  0  0  0
  -12.6377  -11.3146   26.8993 C   0  0  0  0  0  0  0  0  0  0  0  0
  -13.1303   -9.0090   27.1600 C   0  0  0  0  0  0  0  0  0  0  0  0
  -13.2062   -8.8814   25.7790 C   0  0  0  0  0  0  0  0  0  0  0  0
  -13.2883   -8.1103   28.1432 N   0  0  0  0  0  0  0  0  0  0  0  0
  -13.6121   -6.7074   27.9873 C   0  0  0  0  0  0  0  0  0  0  0  0
  -13.6352   -4.6996   29.4039 C   0  0  0  0  0  0  0  0  0  0  0  0
  -12.4977   -4.6969   31.5421 C   0  0  0  0  0  0  0  0  0  0  0  0
  -12.0869   -6.0019   31.3713 C   0  0  0  0  0  0  0  0  0  0  0  0
  -11.3207   -6.6461   32.3449 O   0  0  0  0  0  0  0  0  0  0  0  0
  -13.1074   -8.7380   29.3239 C   0  0  0  0  0  0  0  0  0  0  0  0
  6  1  1  0
  1 15  2  0
 16  1  1  0
  4  2  2  0
  2 19  1  0
  2 20  1  0
  3 20  2  0
 21  3  1  0
 22  4  1  0
  5 23  1  1
 24  6  2  0
  8  7  1  0
  8  9  2  0
 12  8  1  0
 10  9  1  0
 11 10  1  0
 11 12  2  0
 13 11  1  0
 13 14  2  0
 17 13  1  0
 15 14  1  0
 16 17  2  0
 18 16  1  0
 19 18  1  6
 18 24  1  0
 22 21  2  0
 22 23  1  0
M  END
$$$$
