
     RDKit          3D

 24 27  0  0  0  0  0  0  0  0999 V2000
  -23.8574  -18.9297   11.6674 C   0  0  0  0  0  0  0  0  0  0  0  0
  -22.4964  -22.7824    9.8450 C   0  0  0  0  0  0  0  0  0  0  0  0
  -23.4338  -24.5414   11.1206 C   0  0  0  0  0  0  0  0  0  0  0  0
  -22.4333  -23.6556    8.7683 C   0  0  0  0  0  0  0  0  0  0  0  0
  -21.6791  -25.7644    6.8678 C   0  0  0  0  0  0  0  0  0  0  0  0
  -24.8908  -19.6824   11.1524 C   0  0  0  0  0  0  0  0  0  0  0  0
  -16.4238  -17.0383   12.9567 N   0  0  0  0  0  0  0  0  0  0  0  0
  -17.8310  -16.8992   12.9889 C   0  0  0  0  0  0  0  0  0  0  0  0
  -18.5516  -15.8743   13.5328 N   0  0  0  0  0  0  0  0  0  0  0  0
  -19.8462  -16.0851   13.3751 N   0  0  0  0  0  0  0  0  0  0  0  0
  -20.0578  -17.2446   12.7271 C   0  0  0  0  0  0  0  0  0  0  0  0
  -18.8014  -17.7534   12.4857 C   0  0  0  0  0  0  0  0  0  0  0  0
  -21.3568  -17.8092   12.3736 C   0  0  0  0  0  0  0  0  0  0  0  0
  -22.5425  -17.2833   12.8370 C   0  0  0  0  0  0  0  0  0  0  0  0
  -23.7702  -17.8289   12.4935 C   0  0  0  0  0  0  0  0  0  0  0  0
  -22.6608  -19.4722   11.1917 C   0  0  0  0  0  0  0  0  0  0  0  0
  -21.4404  -18.9118   11.5461 C   0  0  0  0  0  0  0  0  0  0  0  0
  -22.9612  -20.5219   10.4125 N   0  0  0  0  0  0  0  0  0  0  0  0
  -22.0223  -21.3843    9.7254 C   0  0  0  0  0  0  0  0  0  0  0  0
  -22.9999  -23.2118   11.0457 C   0  0  0  0  0  0  0  0  0  0  0  0
  -23.3626  -25.3872   10.0447 C   0  0  0  0  0  0  0  0  0  0  0  0
  -22.8568  -24.9602    8.8351 C   0  0  0  0  0  0  0  0  0  0  0  0
  -22.7860  -25.8256    7.7415 O   0  0  0  0  0  0  0  0  0  0  0  0
  -24.3034  -20.6567   10.3822 C   0  0  0  0  0  0  0  0  0  0  0  0
  6  1  1  0
  1 15  2  0
 16  1  1  0
  4  2  2  0
  2 19  1  0
  2 20  1  0
  3 20  2  0
 21  3  1  0
 22  4  1  0
  5 23  1  1
 24  6  2  0
  8  7  1  0
  8  9  2  0
 12  8  1  0
 10  9  1  0
 11 10  1  0
 11 12  2  0
 13 11  1  0
 13 14  2  0
 17 13  1  0
 15 14  1  0
 16 17  2  0
 18 16  1  0
 19 18  1  6
 18 24  1  0
 22 21  2  0
 22 23  1  0
M  END
$$$$
