
     RDKit          3D

 48 50  0  0  0  0  0  0  0  0999 V2000
   28.4345   22.3384   16.6545 N   0  0  0  0  0  0  0  0  0  0  0  0
   27.8753   23.5108   16.2737 C   0  0  0  0  0  0  0  0  0  0  0  0
   26.5710   23.6780   16.4907 N   0  0  0  0  0  0  0  0  0  0  0  0
   25.7614   22.7700   17.0610 C   0  0  0  0  0  0  0  0  0  0  0  0
   26.3156   21.5720   17.4540 C   0  0  0  0  0  0  0  0  0  0  0  0
   27.6740   21.3817   17.2349 C   0  0  0  0  0  0  0  0  0  0  0  0
   28.2785   20.1572   17.6280 N   0  0  0  0  0  0  0  0  0  0  0  0
   25.3207   20.8618   17.9804 N   0  0  0  0  0  0  0  0  0  0  0  0
   24.1914   21.5931   17.9160 C   0  0  0  0  0  0  0  0  0  0  0  0
   24.4323   22.7820   17.3506 N   0  0  0  0  0  0  0  0  0  0  0  0
   23.5931   23.8991   17.0561 C   0  0  1  0  0  0  0  0  0  0  0  0
   22.6075   23.6351   15.9370 C   0  0  2  0  0  0  0  0  0  0  0  0
   23.2224   23.7040   14.6876 O   0  0  0  0  0  0  0  0  0  0  0  0
   21.6299   24.7737   16.1386 C   0  0  2  0  0  0  0  0  0  0  0  0
   22.0984   25.8242   15.3162 O   0  0  0  0  0  0  0  0  0  0  0  0
   21.7821   25.0780   17.5958 C   0  0  2  0  0  0  0  0  0  0  0  0
   22.7290   24.1995   18.1058 O   0  0  0  0  0  0  0  0  0  0  0  0
   20.4565   24.8581   18.2883 C   0  0  0  0  0  0  0  0  0  0  0  0
   20.6278   24.2417   19.5315 O   0  0  0  0  0  0  0  0  0  0  0  0
   21.4256   27.7762   13.5170 O   0  0  0  0  0  0  0  0  0  0  0  0
   20.8321   26.7235   14.6852 P   0  0  1  0  0  5  0  0  0  0  0  0
   19.7076   25.8694   14.1687 O   0  0  0  0  0  0  0  0  0  0  0  0
   20.1737   27.6797   15.9422 O   0  0  0  0  0  0  0  0  0  0  0  0
   19.1694   24.0143   20.3238 P   0  0  1  0  0  5  0  0  0  0  0  0
   19.3533   23.6357   21.7672 O   0  0  0  0  0  0  0  0  0  0  0  0
   18.3280   25.5032   20.3033 O   0  0  0  0  0  0  0  0  0  0  0  0
   18.1837   22.8987   19.5085 O   0  0  0  0  0  0  0  0  0  0  0  0
   18.0748   21.4513   20.3382 P   0  0  2  0  0  5  0  0  0  0  0  0
   17.7815   20.2841   19.4091 O   0  0  0  0  0  0  0  0  0  0  0  0
   16.7919   21.5624   21.4406 O   0  0  0  0  0  0  0  0  0  0  0  0
   19.4589   21.0766   21.1955 O   0  0  0  0  0  0  0  0  0  0  0  0
   20.5631   20.8808   20.3588 C   0  0  0  0  0  0  0  0  0  0  0  0
   21.6238   20.0584   21.0195 C   0  0  2  0  0  0  0  0  0  0  0  0
   21.0825   18.8054   21.6555 C   0  0  0  0  0  0  0  0  0  0  0  0
   22.1603   20.9153   22.1741 C   0  0  0  0  0  0  0  0  0  0  0  0
   22.7788   19.7063   20.1123 C   0  0  1  0  0  0  0  0  0  0  0  0
   23.8221   19.1395   20.8710 O   0  0  0  0  0  0  0  0  0  0  0  0
   22.3593   18.7473   19.0549 C   0  0  0  0  0  0  0  0  0  0  0  0
   21.9061   19.1901   17.9830 O   0  0  0  0  0  0  0  0  0  0  0  0
   22.4764   17.3503   19.2709 N   0  0  0  0  0  0  0  0  0  0  0  0
   22.1315   16.4478   18.1986 C   0  0  0  0  0  0  0  0  0  0  0  0
   20.6366   16.3140   18.0151 C   0  0  0  0  0  0  0  0  0  0  0  0
   20.3554   15.2407   16.9933 C   0  0  0  0  0  0  0  0  0  0  0  0
   21.2931   14.8031   16.2928 O   0  0  0  0  0  0  0  0  0  0  0  0
   19.0319   14.7820   16.8812 N   0  0  0  0  0  0  0  0  0  0  0  0
   18.7350   13.6890   15.9839 C   0  0  0  0  0  0  0  0  0  0  0  0
   18.1704   14.1872   14.6758 C   0  0  0  0  0  0  0  0  0  0  0  0
   19.1392   15.0291   14.1069 O   0  0  0  0  0  0  0  0  0  0  0  0
  1  2  2  0
  1  6  1  0
  2  3  1  0
  3  4  2  0
  4  5  1  0
  4 10  1  0
  5  6  2  0
  5  8  1  0
  6  7  1  0
  8  9  2  0
  9 10  1  0
 11 10  1  1
 11 12  1  0
 11 17  1  0
 12 13  1  6
 12 14  1  0
 14 15  1  6
 14 16  1  0
 15 21  1  0
 16 17  1  0
 16 18  1  1
 18 19  1  0
 19 24  1  0
 21 20  1  6
 21 22  2  0
 21 23  1  0
 24 25  2  0
 24 26  1  1
 24 27  1  0
 27 28  1  0
 28 29  2  0
 28 30  1  1
 28 31  1  0
 31 32  1  0
 32 33  1  0
 33 34  1  1
 33 35  1  0
 33 36  1  0
 36 37  1  1
 36 38  1  0
 38 39  2  0
 38 40  1  0
 40 41  1  0
 41 42  1  0
 42 43  1  0
 43 44  2  0
 43 45  1  0
 45 46  1  0
 46 47  1  0
 47 48  1  0
M  END
$$$$
