
     RDKit          3D

 48 50  0  0  0  0  0  0  0  0999 V2000
   22.8728   27.6832   21.4597 N   0  0  0  0  0  0  0  0  0  0  0  0
   21.9681   26.7937   21.9315 C   0  0  0  0  0  0  0  0  0  0  0  0
   21.9085   25.5971   21.3476 N   0  0  0  0  0  0  0  0  0  0  0  0
   22.6797   25.2005   20.3213 C   0  0  0  0  0  0  0  0  0  0  0  0
   23.6052   26.0944   19.8301 C   0  0  0  0  0  0  0  0  0  0  0  0
   23.6801   27.3460   20.4277 C   0  0  0  0  0  0  0  0  0  0  0  0
   24.6238   28.2929   19.9458 N   0  0  0  0  0  0  0  0  0  0  0  0
   24.2290   25.4681   18.8352 N   0  0  0  0  0  0  0  0  0  0  0  0
   23.7091   24.2314   18.7143 C   0  0  0  0  0  0  0  0  0  0  0  0
   22.7456   24.0353   19.6224 N   0  0  0  0  0  0  0  0  0  0  0  0
   21.9014   22.9199   19.9090 C   0  0  1  0  0  0  0  0  0  0  0  0
   20.8722   22.6494   18.8316 C   0  0  2  0  0  0  0  0  0  0  0  0
   19.8039   23.5419   18.9095 O   0  0  0  0  0  0  0  0  0  0  0  0
   20.4460   21.2404   19.1864 C   0  0  2  0  0  0  0  0  0  0  0  0
   19.3323   21.3874   20.0452 O   0  0  0  0  0  0  0  0  0  0  0  0
   21.6494   20.7070   19.8982 C   0  0  2  0  0  0  0  0  0  0  0  0
   22.6024   21.7169   19.9149 O   0  0  0  0  0  0  0  0  0  0  0  0
   22.1838   19.5133   19.1403 C   0  0  0  0  0  0  0  0  0  0  0  0
   22.6977   19.8892   17.8955 O   0  0  0  0  0  0  0  0  0  0  0  0
   18.3813   19.3947   18.4251 O   0  0  0  0  0  0  0  0  0  0  0  0
   17.9507   20.7066   19.3834 P   0  0  1  0  0  5  0  0  0  0  0  0
   16.9216   20.3466   20.4189 O   0  0  0  0  0  0  0  0  0  0  0  0
   17.2191   21.8651   18.3584 O   0  0  0  0  0  0  0  0  0  0  0  0
   23.2342   18.5689   17.0151 P   0  0  1  0  0  5  0  0  0  0  0  0
   22.5499   18.4519   15.6814 O   0  0  0  0  0  0  0  0  0  0  0  0
   24.9003   18.7944   16.7013 O   0  0  0  0  0  0  0  0  0  0  0  0
   23.1078   17.1306   17.9076 O   0  0  0  0  0  0  0  0  0  0  0  0
   22.9246   15.8010   16.9108 P   0  0  2  0  0  5  0  0  0  0  0  0
   22.1669   16.1447   15.6383 O   0  0  0  0  0  0  0  0  0  0  0  0
   22.0241   14.6299   17.7420 O   0  0  0  0  0  0  0  0  0  0  0  0
   24.3771   15.1091   16.4604 O   0  0  0  0  0  0  0  0  0  0  0  0
   25.4421   16.0129   16.5428 C   0  0  0  0  0  0  0  0  0  0  0  0
   26.7251   15.4066   16.0694 C   0  0  2  0  0  0  0  0  0  0  0  0
   26.8685   15.4342   14.5707 C   0  0  0  0  0  0  0  0  0  0  0  0
   26.6552   13.9229   16.4555 C   0  0  0  0  0  0  0  0  0  0  0  0
   27.9565   16.0059   16.7061 C   0  0  1  0  0  0  0  0  0  0  0  0
   28.0447   15.5923   18.0502 O   0  0  0  0  0  0  0  0  0  0  0  0
   29.1900   15.5970   15.9814 C   0  0  0  0  0  0  0  0  0  0  0  0
   29.6405   16.3393   15.0889 O   0  0  0  0  0  0  0  0  0  0  0  0
   29.8384   14.3781   16.3069 N   0  0  0  0  0  0  0  0  0  0  0  0
   31.0193   13.9980   15.5691 C   0  0  0  0  0  0  0  0  0  0  0  0
   31.8075   12.9095   16.2622 C   0  0  0  0  0  0  0  0  0  0  0  0
   33.0257   13.5156   16.9131 C   0  0  0  0  0  0  0  0  0  0  0  0
   32.8790   14.4296   17.7526 O   0  0  0  0  0  0  0  0  0  0  0  0
   34.2819   13.0122   16.5350 N   0  0  0  0  0  0  0  0  0  0  0  0
   35.4648   13.4652   17.2304 C   0  0  0  0  0  0  0  0  0  0  0  0
   36.0544   12.3708   18.0862 C   0  0  0  0  0  0  0  0  0  0  0  0
   34.9799   11.7107   18.7031 O   0  0  0  0  0  0  0  0  0  0  0  0
  1  2  2  0
  1  6  1  0
  2  3  1  0
  3  4  2  0
  4  5  1  0
  4 10  1  0
  5  6  2  0
  5  8  1  0
  6  7  1  0
  8  9  2  0
  9 10  1  0
 11 10  1  6
 11 12  1  0
 11 17  1  0
 12 13  1  1
 12 14  1  0
 14 15  1  1
 14 16  1  0
 15 21  1  0
 16 17  1  0
 16 18  1  6
 18 19  1  0
 19 24  1  0
 21 20  1  6
 21 22  2  0
 21 23  1  0
 24 25  2  0
 24 26  1  6
 24 27  1  0
 27 28  1  0
 28 29  2  0
 28 30  1  1
 28 31  1  0
 31 32  1  0
 32 33  1  0
 33 34  1  6
 33 35  1  0
 33 36  1  0
 36 37  1  1
 36 38  1  0
 38 39  2  0
 38 40  1  0
 40 41  1  0
 41 42  1  0
 42 43  1  0
 43 44  2  0
 43 45  1  0
 45 46  1  0
 46 47  1  0
 47 48  1  0
M  END
$$$$
