
     RDKit          3D

 48 50  0  0  0  0  0  0  0  0999 V2000
   26.6071   26.4203   11.2476 N   0  0  0  0  0  0  0  0  0  0  0  0
   25.5355   26.9378   11.8925 C   0  0  0  0  0  0  0  0  0  0  0  0
   25.2344   26.4459   13.0939 N   0  0  0  0  0  0  0  0  0  0  0  0
   25.9140   25.4707   13.7204 C   0  0  0  0  0  0  0  0  0  0  0  0
   27.0070   24.9339   13.0771 C   0  0  0  0  0  0  0  0  0  0  0  0
   27.3343   25.4357   11.8239 C   0  0  0  0  0  0  0  0  0  0  0  0
   28.4561   24.9045   11.1319 N   0  0  0  0  0  0  0  0  0  0  0  0
   27.4949   24.0042   13.8950 N   0  0  0  0  0  0  0  0  0  0  0  0
   26.7320   23.9664   15.0044 C   0  0  0  0  0  0  0  0  0  0  0  0
   25.7429   24.8645   14.9262 N   0  0  0  0  0  0  0  0  0  0  0  0
   24.6851   25.2162   15.8185 C   0  0  1  0  0  0  0  0  0  0  0  0
   23.3179   25.2067   15.1672 C   0  0  2  0  0  0  0  0  0  0  0  0
   23.1123   26.3483   14.3937 O   0  0  0  0  0  0  0  0  0  0  0  0
   22.4180   25.1912   16.3849 C   0  0  2  0  0  0  0  0  0  0  0  0
   22.1413   26.5487   16.6677 O   0  0  0  0  0  0  0  0  0  0  0  0
   23.2888   24.5575   17.4239 C   0  0  2  0  0  0  0  0  0  0  0  0
   24.5073   24.2690   16.8235 O   0  0  0  0  0  0  0  0  0  0  0  0
   22.6393   23.2786   17.9009 C   0  0  0  0  0  0  0  0  0  0  0  0
   23.5369   22.2072   17.8636 O   0  0  0  0  0  0  0  0  0  0  0  0
   19.7823   26.5265   15.2767 O   0  0  0  0  0  0  0  0  0  0  0  0
   20.4922   26.8326   16.7692 P   0  0  1  0  0  5  0  0  0  0  0  0
   19.8340   26.0685   17.8844 O   0  0  0  0  0  0  0  0  0  0  0  0
   20.2531   28.4915   17.1140 O   0  0  0  0  0  0  0  0  0  0  0  0
   22.8125   20.8027   17.3078 P   0  0  1  0  0  5  0  0  0  0  0  0
   23.4577   20.2818   16.0536 O   0  0  0  0  0  0  0  0  0  0  0  0
   23.0165   19.6014   18.5080 O   0  0  0  0  0  0  0  0  0  0  0  0
   21.1382   21.0000   17.1106 O   0  0  0  0  0  0  0  0  0  0  0  0
   20.3124   20.7170   18.5366 P   0  0  2  0  0  5  0  0  0  0  0  0
   18.8057   20.7371   18.3344 O   0  0  0  0  0  0  0  0  0  0  0  0
   20.6982   21.9521   19.6316 O   0  0  0  0  0  0  0  0  0  0  0  0
   20.7054   19.2574   19.2480 O   0  0  0  0  0  0  0  0  0  0  0  0
   19.7547   18.8560   20.1928 C   0  0  0  0  0  0  0  0  0  0  0  0
   19.6737   17.3663   20.3034 C   0  0  2  0  0  0  0  0  0  0  0  0
   18.7159   16.7565   19.3142 C   0  0  0  0  0  0  0  0  0  0  0  0
   19.0812   17.0804   21.6898 C   0  0  0  0  0  0  0  0  0  0  0  0
   21.0113   16.6720   20.2057 C   0  0  1  0  0  0  0  0  0  0  0  0
   22.0469   17.6087   20.3936 O   0  0  0  0  0  0  0  0  0  0  0  0
   21.1320   15.5915   21.2214 C   0  0  0  0  0  0  0  0  0  0  0  0
   21.2250   14.4102   20.8387 O   0  0  0  0  0  0  0  0  0  0  0  0
   21.1403   15.9088   22.6039 N   0  0  0  0  0  0  0  0  0  0  0  0
   21.1593   14.8331   23.5659 C   0  0  0  0  0  0  0  0  0  0  0  0
   19.7785   14.4943   24.0805 C   0  0  0  0  0  0  0  0  0  0  0  0
   19.8752   13.3295   25.0339 C   0  0  0  0  0  0  0  0  0  0  0  0
   20.9401   12.6787   25.0976 O   0  0  0  0  0  0  0  0  0  0  0  0
   18.7440   13.0326   25.8129 N   0  0  0  0  0  0  0  0  0  0  0  0
   18.7168   11.8117   26.5852 C   0  0  0  0  0  0  0  0  0  0  0  0
   19.8738   11.7448   27.5522 C   0  0  0  0  0  0  0  0  0  0  0  0
   20.9025   11.0374   26.9101 O   0  0  0  0  0  0  0  0  0  0  0  0
  1  2  2  0
  1  6  1  0
  2  3  1  0
  3  4  2  0
  4  5  1  0
  4 10  1  0
  5  6  2  0
  5  8  1  0
  6  7  1  0
  8  9  2  0
  9 10  1  0
 11 10  1  6
 11 12  1  0
 11 17  1  0
 12 13  1  1
 12 14  1  0
 14 15  1  1
 14 16  1  0
 15 21  1  0
 16 17  1  0
 16 18  1  6
 18 19  1  0
 19 24  1  0
 21 20  1  6
 21 22  2  0
 21 23  1  0
 24 25  2  0
 24 26  1  1
 24 27  1  0
 27 28  1  0
 28 29  2  0
 28 30  1  1
 28 31  1  0
 31 32  1  0
 32 33  1  0
 33 34  1  6
 33 35  1  0
 33 36  1  0
 36 37  1  1
 36 38  1  0
 38 39  2  0
 38 40  1  0
 40 41  1  0
 41 42  1  0
 42 43  1  0
 43 44  2  0
 43 45  1  0
 45 46  1  0
 46 47  1  0
 47 48  1  0
M  END
$$$$
