
     RDKit          3D

 48 50  0  0  0  0  0  0  0  0999 V2000
   25.6940  -25.9719   34.1419 N   0  0  0  0  0  0  0  0  0  0  0  0
   26.7470  -25.5307   34.8690 C   0  0  0  0  0  0  0  0  0  0  0  0
   27.8700  -26.2476   34.8368 N   0  0  0  0  0  0  0  0  0  0  0  0
   28.0418  -27.3808   34.1355 C   0  0  0  0  0  0  0  0  0  0  0  0
   26.9795  -27.8426   33.3905 C   0  0  0  0  0  0  0  0  0  0  0  0
   25.8015  -27.1069   33.4133 C   0  0  0  0  0  0  0  0  0  0  0  0
   24.6855  -27.5548   32.6562 N   0  0  0  0  0  0  0  0  0  0  0  0
   27.4013  -28.9591   32.8017 N   0  0  0  0  0  0  0  0  0  0  0  0
   28.6783  -29.1810   33.1685 C   0  0  0  0  0  0  0  0  0  0  0  0
   29.1041  -28.2190   33.9958 N   0  0  0  0  0  0  0  0  0  0  0  0
   30.3509  -27.9937   34.6542 C   0  0  1  0  0  0  0  0  0  0  0  0
   30.7410  -29.1059   35.6051 C   0  0  2  0  0  0  0  0  0  0  0  0
   30.0355  -29.0235   36.8048 O   0  0  0  0  0  0  0  0  0  0  0  0
   32.2129  -28.8121   35.8049 C   0  0  2  0  0  0  0  0  0  0  0  0
   32.2805  -27.9773   36.9442 O   0  0  0  0  0  0  0  0  0  0  0  0
   32.5735  -28.0893   34.5452 C   0  0  2  0  0  0  0  0  0  0  0  0
   31.4250  -28.0125   33.7683 O   0  0  0  0  0  0  0  0  0  0  0  0
   33.6352  -28.8752   33.8103 C   0  0  0  0  0  0  0  0  0  0  0  0
   33.1315  -30.0895   33.3343 O   0  0  0  0  0  0  0  0  0  0  0  0
   32.3399  -27.9566   39.6821 O   0  0  0  0  0  0  0  0  0  0  0  0
   32.7487  -28.8332   38.3075 P   0  0  1  0  0  5  0  0  0  0  0  0
   32.2011  -30.2333   38.3367 O   0  0  0  0  0  0  0  0  0  0  0  0
   34.4533  -28.9820   38.2891 O   0  0  0  0  0  0  0  0  0  0  0  0
   34.3555  -31.1575   32.9248 P   0  0  1  0  0  5  0  0  0  0  0  0
   34.1758  -32.5077   33.5615 O   0  0  0  0  0  0  0  0  0  0  0  0
   34.2956  -31.3939   31.2319 O   0  0  0  0  0  0  0  0  0  0  0  0
   35.8877  -30.5095   33.2616 O   0  0  0  0  0  0  0  0  0  0  0  0
   36.8985  -30.5951   31.9327 P   0  0  2  0  0  5  0  0  0  0  0  0
   36.4393  -31.6474   30.9360 O   0  0  0  0  0  0  0  0  0  0  0  0
   38.4459  -31.0363   32.4658 O   0  0  0  0  0  0  0  0  0  0  0  0
   37.0311  -29.1469   31.1104 O   0  0  0  0  0  0  0  0  0  0  0  0
   37.4395  -28.1001   31.9442 C   0  0  0  0  0  0  0  0  0  0  0  0
   38.0456  -26.9739   31.1683 C   0  0  2  0  0  0  0  0  0  0  0  0
   37.2753  -26.6428   29.9175 C   0  0  0  0  0  0  0  0  0  0  0  0
   39.4147  -27.4802   30.6946 C   0  0  0  0  0  0  0  0  0  0  0  0
   38.2579  -25.7172   31.9786 C   0  0  1  0  0  0  0  0  0  0  0  0
   39.3976  -25.8653   32.7939 O   0  0  0  0  0  0  0  0  0  0  0  0
   38.4319  -24.5315   31.0968 C   0  0  0  0  0  0  0  0  0  0  0  0
   37.4487  -24.0962   30.4687 O   0  0  0  0  0  0  0  0  0  0  0  0
   39.7017  -23.9106   30.9774 N   0  0  0  0  0  0  0  0  0  0  0  0
   39.8199  -22.7129   30.1808 C   0  0  0  0  0  0  0  0  0  0  0  0
   40.1570  -23.0106   28.7372 C   0  0  0  0  0  0  0  0  0  0  0  0
   41.6006  -23.4374   28.6417 C   0  0  0  0  0  0  0  0  0  0  0  0
   42.2844  -23.5175   29.6846 O   0  0  0  0  0  0  0  0  0  0  0  0
   42.1087  -23.7272   27.3641 N   0  0  0  0  0  0  0  0  0  0  0  0
   43.4998  -24.0911   27.2211 C   0  0  0  0  0  0  0  0  0  0  0  0
   44.4101  -22.9415   27.5785 C   0  0  0  0  0  0  0  0  0  0  0  0
   44.5125  -22.1311   26.4365 O   0  0  0  0  0  0  0  0  0  0  0  0
  1  2  2  0
  1  6  1  0
  2  3  1  0
  3  4  2  0
  4  5  1  0
  4 10  1  0
  5  6  2  0
  5  8  1  0
  6  7  1  0
  8  9  2  0
  9 10  1  0
 11 10  1  6
 11 12  1  0
 11 17  1  0
 12 13  1  1
 12 14  1  0
 14 15  1  1
 14 16  1  0
 15 21  1  0
 16 17  1  0
 16 18  1  6
 18 19  1  0
 19 24  1  0
 21 20  1  1
 21 22  2  0
 21 23  1  0
 24 25  2  0
 24 26  1  6
 24 27  1  0
 27 28  1  0
 28 29  2  0
 28 30  1  1
 28 31  1  0
 31 32  1  0
 32 33  1  0
 33 34  1  6
 33 35  1  0
 33 36  1  0
 36 37  1  6
 36 38  1  0
 38 39  2  0
 38 40  1  0
 40 41  1  0
 41 42  1  0
 42 43  1  0
 43 44  2  0
 43 45  1  0
 45 46  1  0
 46 47  1  0
 47 48  1  0
M  END
$$$$
