
     RDKit          3D

 48 50  0  0  0  0  0  0  0  0999 V2000
   19.8055   25.3201   24.3847 N   0  0  0  0  0  0  0  0  0  0  0  0
   19.5400   25.9210   23.2013 C   0  0  0  0  0  0  0  0  0  0  0  0
   19.8685   25.2708   22.0852 N   0  0  0  0  0  0  0  0  0  0  0  0
   20.4460   24.0584   22.0406 C   0  0  0  0  0  0  0  0  0  0  0  0
   20.7224   23.4340   23.2366 C   0  0  0  0  0  0  0  0  0  0  0  0
   20.3862   24.0983   24.4091 C   0  0  0  0  0  0  0  0  0  0  0  0
   20.6575   23.4830   25.6610 N   0  0  0  0  0  0  0  0  0  0  0  0
   21.2821   22.2683   22.9218 N   0  0  0  0  0  0  0  0  0  0  0  0
   21.3500   22.1739   21.5798 C   0  0  0  0  0  0  0  0  0  0  0  0
   20.8391   23.2691   21.0048 N   0  0  0  0  0  0  0  0  0  0  0  0
   20.6776   23.6572   19.6401 C   0  0  1  0  0  0  0  0  0  0  0  0
   21.6432   24.7382   19.2017 C   0  0  2  0  0  0  0  0  0  0  0  0
   21.2459   25.9942   19.6581 O   0  0  0  0  0  0  0  0  0  0  0  0
   21.5300   24.6330   17.6954 C   0  0  2  0  0  0  0  0  0  0  0  0
   20.5210   25.5527   17.3271 O   0  0  0  0  0  0  0  0  0  0  0  0
   21.1056   23.2114   17.5003 C   0  0  2  0  0  0  0  0  0  0  0  0
   21.0086   22.6315   18.7584 O   0  0  0  0  0  0  0  0  0  0  0  0
   22.1541   22.4895   16.6851 C   0  0  0  0  0  0  0  0  0  0  0  0
   23.3626   22.3926   17.3814 O   0  0  0  0  0  0  0  0  0  0  0  0
   22.0597   25.3657   15.0694 O   0  0  0  0  0  0  0  0  0  0  0  0
   20.8097   26.2091   15.8118 P   0  0  1  0  0  5  0  0  0  0  0  0
   19.5746   26.2736   14.9566 O   0  0  0  0  0  0  0  0  0  0  0  0
   21.3389   27.8232   16.0178 O   0  0  0  0  0  0  0  0  0  0  0  0
   24.1073   20.9115   17.1399 P   0  0  1  0  0  5  0  0  0  0  0  0
   25.4595   21.0471   16.4966 O   0  0  0  0  0  0  0  0  0  0  0  0
   24.3556   20.1973   18.6740 O   0  0  0  0  0  0  0  0  0  0  0  0
   23.1101   19.8456   16.2737 O   0  0  0  0  0  0  0  0  0  0  0  0
   23.0877   18.3235   16.9651 P   0  0  2  0  0  5  0  0  0  0  0  0
   22.1481   17.3798   16.2317 O   0  0  0  0  0  0  0  0  0  0  0  0
   22.5266   18.4684   18.5580 O   0  0  0  0  0  0  0  0  0  0  0  0
   24.5922   17.5989   17.0135 O   0  0  0  0  0  0  0  0  0  0  0  0
   24.6044   16.4576   17.8229 C   0  0  0  0  0  0  0  0  0  0  0  0
   25.9332   15.7710   17.7979 C   0  0  2  0  0  0  0  0  0  0  0  0
   25.8172   14.2739   17.6849 C   0  0  0  0  0  0  0  0  0  0  0  0
   26.5695   16.0389   19.1684 C   0  0  0  0  0  0  0  0  0  0  0  0
   26.8686   16.2874   16.7305 C   0  0  1  0  0  0  0  0  0  0  0  0
   27.6457   17.3416   17.2502 O   0  0  0  0  0  0  0  0  0  0  0  0
   27.7665   15.2095   16.2348 C   0  0  0  0  0  0  0  0  0  0  0  0
   27.3017   14.3360   15.4788 O   0  0  0  0  0  0  0  0  0  0  0  0
   29.1311   15.1828   16.6214 N   0  0  0  0  0  0  0  0  0  0  0  0
   29.6802   13.9599   17.1564 C   0  0  0  0  0  0  0  0  0  0  0  0
   30.5786   13.2501   16.1688 C   0  0  0  0  0  0  0  0  0  0  0  0
   32.0106   13.6500   16.4230 C   0  0  0  0  0  0  0  0  0  0  0  0
   32.2650   14.4619   17.3382 O   0  0  0  0  0  0  0  0  0  0  0  0
   32.9992   13.0792   15.6037 N   0  0  0  0  0  0  0  0  0  0  0  0
   34.2362   13.7933   15.3845 C   0  0  0  0  0  0  0  0  0  0  0  0
   34.0238   15.0118   14.5196 C   0  0  0  0  0  0  0  0  0  0  0  0
   35.1510   15.8321   14.6853 O   0  0  0  0  0  0  0  0  0  0  0  0
  1  2  2  0
  1  6  1  0
  2  3  1  0
  3  4  2  0
  4  5  1  0
  4 10  1  0
  5  6  2  0
  5  8  1  0
  6  7  1  0
  8  9  2  0
  9 10  1  0
 11 10  1  1
 11 12  1  0
 11 17  1  0
 12 13  1  1
 12 14  1  0
 14 15  1  1
 14 16  1  0
 15 21  1  0
 16 17  1  0
 16 18  1  6
 18 19  1  0
 19 24  1  0
 21 20  1  6
 21 22  2  0
 21 23  1  0
 24 25  2  0
 24 26  1  1
 24 27  1  0
 27 28  1  0
 28 29  2  0
 28 30  1  1
 28 31  1  0
 31 32  1  0
 32 33  1  0
 33 34  1  6
 33 35  1  0
 33 36  1  0
 36 37  1  1
 36 38  1  0
 38 39  2  0
 38 40  1  0
 40 41  1  0
 41 42  1  0
 42 43  1  0
 43 44  2  0
 43 45  1  0
 45 46  1  0
 46 47  1  0
 47 48  1  0
M  END
$$$$
