
     RDKit          3D

 48 50  0  0  0  0  0  0  0  0999 V2000
   27.2779   24.4995   18.1138 N   0  0  0  0  0  0  0  0  0  0  0  0
   27.2845   23.7056   19.2101 C   0  0  0  0  0  0  0  0  0  0  0  0
   26.5794   22.5756   19.1648 N   0  0  0  0  0  0  0  0  0  0  0  0
   25.8577   22.1586   18.1110 C   0  0  0  0  0  0  0  0  0  0  0  0
   25.8412   22.9554   16.9878 C   0  0  0  0  0  0  0  0  0  0  0  0
   26.5710   24.1368   17.0187 C   0  0  0  0  0  0  0  0  0  0  0  0
   26.5759   24.9829   15.8770 N   0  0  0  0  0  0  0  0  0  0  0  0
   25.0683   22.3287   16.1039 N   0  0  0  0  0  0  0  0  0  0  0  0
   24.6224   21.1854   16.6591 C   0  0  0  0  0  0  0  0  0  0  0  0
   25.0948   21.0514   17.9041 N   0  0  0  0  0  0  0  0  0  0  0  0
   24.9246   20.0404   18.8979 C   0  0  1  0  0  0  0  0  0  0  0  0
   23.6500   20.1923   19.7014 C   0  0  2  0  0  0  0  0  0  0  0  0
   23.7702   21.1912   20.6666 O   0  0  0  0  0  0  0  0  0  0  0  0
   23.5410   18.8202   20.3325 C   0  0  2  0  0  0  0  0  0  0  0  0
   24.1979   18.9249   21.5803 O   0  0  0  0  0  0  0  0  0  0  0  0
   24.2881   17.9576   19.3646 C   0  0  2  0  0  0  0  0  0  0  0  0
   24.7376   18.7789   18.3389 O   0  0  0  0  0  0  0  0  0  0  0  0
   23.3496   16.9119   18.8071 C   0  0  0  0  0  0  0  0  0  0  0  0
   22.4601   17.4675   17.8824 O   0  0  0  0  0  0  0  0  0  0  0  0
   23.9342   18.0688   24.1683 O   0  0  0  0  0  0  0  0  0  0  0  0
   23.1268   18.7423   22.8570 P   0  0  1  0  0  5  0  0  0  0  0  0
   22.4185   20.0196   23.2145 O   0  0  0  0  0  0  0  0  0  0  0  0
   21.9125   17.6330   22.3847 O   0  0  0  0  0  0  0  0  0  0  0  0
   22.0910   16.3971   16.6478 P   0  0  1  0  0  5  0  0  0  0  0  0
   21.7630   17.0985   15.3590 O   0  0  0  0  0  0  0  0  0  0  0  0
   23.4788   15.4414   16.3549 O   0  0  0  0  0  0  0  0  0  0  0  0
   20.8589   15.3216   17.1020 O   0  0  0  0  0  0  0  0  0  0  0  0
   19.3765   16.0887   17.1998 P   0  0  2  0  0  5  0  0  0  0  0  0
   18.2421   15.1051   17.4387 O   0  0  0  0  0  0  0  0  0  0  0  0
   19.0781   16.8650   15.7227 O   0  0  0  0  0  0  0  0  0  0  0  0
   19.3079   17.2396   18.4089 O   0  0  0  0  0  0  0  0  0  0  0  0
   20.2839   18.2300   18.2531 C   0  0  0  0  0  0  0  0  0  0  0  0
   19.8175   19.5568   18.7630 C   0  0  2  0  0  0  0  0  0  0  0  0
   20.9380   20.5503   18.9218 C   0  0  0  0  0  0  0  0  0  0  0  0
   19.2842   19.2981   20.1785 C   0  0  0  0  0  0  0  0  0  0  0  0
   18.7090   20.1722   17.9425 C   0  0  1  0  0  0  0  0  0  0  0  0
   17.4600   19.8102   18.4852 O   0  0  0  0  0  0  0  0  0  0  0  0
   18.8228   21.6554   17.9108 C   0  0  0  0  0  0  0  0  0  0  0  0
   19.3992   22.1966   16.9488 O   0  0  0  0  0  0  0  0  0  0  0  0
   18.2809   22.4357   18.9641 N   0  0  0  0  0  0  0  0  0  0  0  0
   18.3577   23.8743   18.8766 C   0  0  0  0  0  0  0  0  0  0  0  0
   17.5238   24.4291   17.7438 C   0  0  0  0  0  0  0  0  0  0  0  0
   16.3250   25.1455   18.3136 C   0  0  0  0  0  0  0  0  0  0  0  0
   16.4996   26.0709   19.1351 O   0  0  0  0  0  0  0  0  0  0  0  0
   15.0542   24.7277   17.8837 N   0  0  0  0  0  0  0  0  0  0  0  0
   13.8824   25.4369   18.3440 C   0  0  0  0  0  0  0  0  0  0  0  0
   12.7441   25.3187   17.3600 C   0  0  0  0  0  0  0  0  0  0  0  0
   12.4480   23.9516   17.2400 O   0  0  0  0  0  0  0  0  0  0  0  0
  1  2  2  0
  1  6  1  0
  2  3  1  0
  3  4  2  0
  4  5  1  0
  4 10  1  0
  5  6  2  0
  5  8  1  0
  6  7  1  0
  8  9  2  0
  9 10  1  0
 11 10  1  6
 11 12  1  0
 11 17  1  0
 12 13  1  1
 12 14  1  0
 14 15  1  1
 14 16  1  0
 15 21  1  0
 16 17  1  0
 16 18  1  6
 18 19  1  0
 19 24  1  0
 21 20  1  1
 21 22  2  0
 21 23  1  0
 24 25  2  0
 24 26  1  6
 24 27  1  0
 27 28  1  0
 28 29  2  0
 28 30  1  6
 28 31  1  0
 31 32  1  0
 32 33  1  0
 33 34  1  1
 33 35  1  0
 33 36  1  0
 36 37  1  1
 36 38  1  0
 38 39  2  0
 38 40  1  0
 40 41  1  0
 41 42  1  0
 42 43  1  0
 43 44  2  0
 43 45  1  0
 45 46  1  0
 46 47  1  0
 47 48  1  0
M  END
$$$$
