
     RDKit          3D

 48 50  0  0  0  0  0  0  0  0999 V2000
   28.2126   13.4256   17.9488 N   0  0  0  0  0  0  0  0  0  0  0  0
   26.8653   13.4201   18.0781 C   0  0  0  0  0  0  0  0  0  0  0  0
   26.1649   14.2766   17.3351 N   0  0  0  0  0  0  0  0  0  0  0  0
   26.6928   15.1509   16.4621 C   0  0  0  0  0  0  0  0  0  0  0  0
   28.0625   15.1685   16.3191 C   0  0  0  0  0  0  0  0  0  0  0  0
   28.8071   14.2820   17.0864 C   0  0  0  0  0  0  0  0  0  0  0  0
   30.2229   14.2734   16.9640 N   0  0  0  0  0  0  0  0  0  0  0  0
   28.3252   16.1055   15.4111 N   0  0  0  0  0  0  0  0  0  0  0  0
   27.1609   16.6485   15.0064 C   0  0  0  0  0  0  0  0  0  0  0  0
   26.1298   16.0773   15.6403 N   0  0  0  0  0  0  0  0  0  0  0  0
   24.7190   16.2865   15.5726 C   0  0  1  0  0  0  0  0  0  0  0  0
   23.9193   15.2656   16.3547 C   0  0  2  0  0  0  0  0  0  0  0  0
   23.8234   14.0562   15.6677 O   0  0  0  0  0  0  0  0  0  0  0  0
   22.5768   15.9598   16.4475 C   0  0  2  0  0  0  0  0  0  0  0  0
   21.8382   15.5052   15.3306 O   0  0  0  0  0  0  0  0  0  0  0  0
   22.9501   17.4046   16.3354 C   0  0  2  0  0  0  0  0  0  0  0  0
   24.3309   17.4666   16.2016 O   0  0  0  0  0  0  0  0  0  0  0  0
   22.5265   18.1243   17.5954 C   0  0  0  0  0  0  0  0  0  0  0  0
   21.3452   17.5870   18.1157 O   0  0  0  0  0  0  0  0  0  0  0  0
   21.2935   13.6448   17.2651 O   0  0  0  0  0  0  0  0  0  0  0  0
   20.9151   14.1582   15.7100 P   0  0  1  0  0  5  0  0  0  0  0  0
   19.4407   14.3878   15.5251 O   0  0  0  0  0  0  0  0  0  0  0  0
   21.3446   12.8940   14.6398 O   0  0  0  0  0  0  0  0  0  0  0  0
   20.8622   18.3738   19.5136 P   0  0  1  0  0  5  0  0  0  0  0  0
   19.8214   19.4262   19.2495 O   0  0  0  0  0  0  0  0  0  0  0  0
   20.1447   17.2120   20.5436 O   0  0  0  0  0  0  0  0  0  0  0  0
   22.1881   19.0088   20.3621 O   0  0  0  0  0  0  0  0  0  0  0  0
   21.7039   20.0898   21.5421 P   0  0  2  0  0  5  0  0  0  0  0  0
   22.8851   20.8114   22.1710 O   0  0  0  0  0  0  0  0  0  0  0  0
   20.9201   19.2241   22.7707 O   0  0  0  0  0  0  0  0  0  0  0  0
   20.6463   21.2530   20.9771 O   0  0  0  0  0  0  0  0  0  0  0  0
   20.9795   22.5351   21.4276 C   0  0  0  0  0  0  0  0  0  0  0  0
   20.5644   23.5929   20.4546 C   0  0  2  0  0  0  0  0  0  0  0  0
   19.6557   24.6267   21.0653 C   0  0  0  0  0  0  0  0  0  0  0  0
   19.7251   22.8758   19.3886 C   0  0  0  0  0  0  0  0  0  0  0  0
   21.7206   24.2793   19.7670 C   0  0  1  0  0  0  0  0  0  0  0  0
   22.9323   23.8838   20.3676 O   0  0  0  0  0  0  0  0  0  0  0  0
   21.7570   23.9488   18.3167 C   0  0  0  0  0  0  0  0  0  0  0  0
   22.3167   22.8986   17.9503 O   0  0  0  0  0  0  0  0  0  0  0  0
   21.1611   24.8214   17.3704 N   0  0  0  0  0  0  0  0  0  0  0  0
   21.4996   24.6726   15.9752 C   0  0  0  0  0  0  0  0  0  0  0  0
   22.6265   25.5884   15.5538 C   0  0  0  0  0  0  0  0  0  0  0  0
   22.0538   26.9155   15.1227 C   0  0  0  0  0  0  0  0  0  0  0  0
   21.2379   27.4998   15.8673 O   0  0  0  0  0  0  0  0  0  0  0  0
   22.4749   27.4334   13.8862 N   0  0  0  0  0  0  0  0  0  0  0  0
   21.9663   28.7115   13.4437 C   0  0  0  0  0  0  0  0  0  0  0  0
   20.5346   28.6041   12.9783 C   0  0  0  0  0  0  0  0  0  0  0  0
   20.4200   27.3879   12.2863 O   0  0  0  0  0  0  0  0  0  0  0  0
  1  2  2  0
  1  6  1  0
  2  3  1  0
  3  4  2  0
  4  5  1  0
  4 10  1  0
  5  6  2  0
  5  8  1  0
  6  7  1  0
  8  9  2  0
  9 10  1  0
 11 10  1  1
 11 12  1  0
 11 17  1  0
 12 13  1  6
 12 14  1  0
 14 15  1  6
 14 16  1  0
 15 21  1  0
 16 17  1  0
 16 18  1  1
 18 19  1  0
 19 24  1  0
 21 20  1  1
 21 22  2  0
 21 23  1  0
 24 25  2  0
 24 26  1  1
 24 27  1  0
 27 28  1  0
 28 29  2  0
 28 30  1  1
 28 31  1  0
 31 32  1  0
 32 33  1  0
 33 34  1  1
 33 35  1  0
 33 36  1  0
 36 37  1  1
 36 38  1  0
 38 39  2  0
 38 40  1  0
 40 41  1  0
 41 42  1  0
 42 43  1  0
 43 44  2  0
 43 45  1  0
 45 46  1  0
 46 47  1  0
 47 48  1  0
M  END
$$$$
