
     RDKit          3D

 48 50  0  0  0  0  0  0  0  0999 V2000
   40.4750  -26.8632   38.2077 N   0  0  0  0  0  0  0  0  0  0  0  0
   40.1828  -27.4854   37.0416 C   0  0  0  0  0  0  0  0  0  0  0  0
   38.9209  -27.8612   36.8355 N   0  0  0  0  0  0  0  0  0  0  0  0
   37.9088  -27.6705   37.6984 C   0  0  0  0  0  0  0  0  0  0  0  0
   38.1901  -27.0387   38.8893 C   0  0  0  0  0  0  0  0  0  0  0  0
   39.5007  -26.6407   39.1197 C   0  0  0  0  0  0  0  0  0  0  0  0
   39.8263  -25.9860   40.3383 N   0  0  0  0  0  0  0  0  0  0  0  0
   37.0379  -26.9742   39.5523 N   0  0  0  0  0  0  0  0  0  0  0  0
   36.0778  -27.5452   38.7997 C   0  0  0  0  0  0  0  0  0  0  0  0
   36.5868  -27.9869   37.6435 N   0  0  0  0  0  0  0  0  0  0  0  0
   36.0029  -28.6512   36.5224 C   0  0  1  0  0  0  0  0  0  0  0  0
   35.4888  -30.0390   36.8438 C   0  0  2  0  0  0  0  0  0  0  0  0
   36.5282  -30.9653   36.9148 O   0  0  0  0  0  0  0  0  0  0  0  0
   34.5936  -30.2988   35.6505 C   0  0  2  0  0  0  0  0  0  0  0  0
   35.4111  -30.9524   34.6999 O   0  0  0  0  0  0  0  0  0  0  0  0
   34.2138  -28.9161   35.2225 C   0  0  2  0  0  0  0  0  0  0  0  0
   34.8347  -28.0282   36.0913 O   0  0  0  0  0  0  0  0  0  0  0  0
   32.7133  -28.7620   35.3215 C   0  0  0  0  0  0  0  0  0  0  0  0
   32.0503  -29.7922   34.6476 O   0  0  0  0  0  0  0  0  0  0  0  0
   33.8498  -32.9045   33.5810 O   0  0  0  0  0  0  0  0  0  0  0  0
   35.1063  -32.6003   34.6551 P   0  0  1  0  0  5  0  0  0  0  0  0
   36.3326  -33.4145   34.3481 O   0  0  0  0  0  0  0  0  0  0  0  0
   34.5773  -33.0909   36.2067 O   0  0  0  0  0  0  0  0  0  0  0  0
   30.8621  -30.4970   35.5951 P   0  0  1  0  0  5  0  0  0  0  0  0
   31.4344  -31.3529   36.6908 O   0  0  0  0  0  0  0  0  0  0  0  0
   29.9861  -29.2387   36.3530 O   0  0  0  0  0  0  0  0  0  0  0  0
   29.7422  -31.3575   34.6537 O   0  0  0  0  0  0  0  0  0  0  0  0
   29.1887  -30.4447   33.3670 P   0  0  2  0  0  5  0  0  0  0  0  0
   28.8034  -29.0370   33.7927 O   0  0  0  0  0  0  0  0  0  0  0  0
   27.7995  -31.1886   32.7425 O   0  0  0  0  0  0  0  0  0  0  0  0
   30.3009  -30.3091   32.1278 O   0  0  0  0  0  0  0  0  0  0  0  0
   31.2040  -31.3777   32.1076 C   0  0  0  0  0  0  0  0  0  0  0  0
   31.2594  -32.0349   30.7648 C   0  0  2  0  0  0  0  0  0  0  0  0
   32.6218  -32.5872   30.4386 C   0  0  0  0  0  0  0  0  0  0  0  0
   31.0041  -30.9201   29.7416 C   0  0  0  0  0  0  0  0  0  0  0  0
   30.2175  -33.1100   30.5664 C   0  0  1  0  0  0  0  0  0  0  0  0
   28.9965  -32.5219   30.1807 O   0  0  0  0  0  0  0  0  0  0  0  0
   30.6443  -34.0879   29.5294 C   0  0  0  0  0  0  0  0  0  0  0  0
   30.9176  -35.2529   29.8737 O   0  0  0  0  0  0  0  0  0  0  0  0
   30.7366  -33.6927   28.1702 N   0  0  0  0  0  0  0  0  0  0  0  0
   30.5567  -34.6883   27.1409 C   0  0  0  0  0  0  0  0  0  0  0  0
   29.1868  -35.3266   27.1884 C   0  0  0  0  0  0  0  0  0  0  0  0
   29.1638  -36.5231   26.2702 C   0  0  0  0  0  0  0  0  0  0  0  0
   30.2163  -37.1702   26.0833 O   0  0  0  0  0  0  0  0  0  0  0  0
   27.9399  -36.8522   25.6635 N   0  0  0  0  0  0  0  0  0  0  0  0
   27.8590  -38.0249   24.8230 C   0  0  0  0  0  0  0  0  0  0  0  0
   28.7767  -37.9126   23.6300 C   0  0  0  0  0  0  0  0  0  0  0  0
   27.9953  -38.1551   22.4892 O   0  0  0  0  0  0  0  0  0  0  0  0
  1  2  2  0
  1  6  1  0
  2  3  1  0
  3  4  2  0
  4  5  1  0
  4 10  1  0
  5  6  2  0
  5  8  1  0
  6  7  1  0
  8  9  2  0
  9 10  1  0
 11 10  1  1
 11 12  1  0
 11 17  1  0
 12 13  1  6
 12 14  1  0
 14 15  1  6
 14 16  1  0
 15 21  1  0
 16 17  1  0
 16 18  1  1
 18 19  1  0
 19 24  1  0
 21 20  1  6
 21 22  2  0
 21 23  1  0
 24 25  2  0
 24 26  1  1
 24 27  1  0
 27 28  1  0
 28 29  2  0
 28 30  1  6
 28 31  1  0
 31 32  1  0
 32 33  1  0
 33 34  1  6
 33 35  1  0
 33 36  1  0
 36 37  1  6
 36 38  1  0
 38 39  2  0
 38 40  1  0
 40 41  1  0
 41 42  1  0
 42 43  1  0
 43 44  2  0
 43 45  1  0
 45 46  1  0
 46 47  1  0
 47 48  1  0
M  END
$$$$
