
     RDKit          3D

 48 50  0  0  0  0  0  0  0  0999 V2000
   24.8349  -28.1015   33.5915 N   0  0  0  0  0  0  0  0  0  0  0  0
   25.2240  -29.2395   34.2125 C   0  0  0  0  0  0  0  0  0  0  0  0
   26.5000  -29.3416   34.5832 N   0  0  0  0  0  0  0  0  0  0  0  0
   27.4374  -28.3989   34.3886 C   0  0  0  0  0  0  0  0  0  0  0  0
   27.0570  -27.2351   33.7580 C   0  0  0  0  0  0  0  0  0  0  0  0
   25.7304  -27.1129   33.3652 C   0  0  0  0  0  0  0  0  0  0  0  0
   25.3036  -25.9252   32.7118 N   0  0  0  0  0  0  0  0  0  0  0  0
   28.1507  -26.4798   33.6893 N   0  0  0  0  0  0  0  0  0  0  0  0
   29.1715  -27.1512   34.2565 C   0  0  0  0  0  0  0  0  0  0  0  0
   28.7606  -28.3452   34.7000 N   0  0  0  0  0  0  0  0  0  0  0  0
   29.4367  -29.4142   35.3626 C   0  0  1  0  0  0  0  0  0  0  0  0
   30.1501  -30.3562   34.4155 C   0  0  2  0  0  0  0  0  0  0  0  0
   29.2589  -31.2345   33.8005 O   0  0  0  0  0  0  0  0  0  0  0  0
   31.0744  -31.0811   35.3709 C   0  0  2  0  0  0  0  0  0  0  0  0
   30.3628  -32.2303   35.7865 O   0  0  0  0  0  0  0  0  0  0  0  0
   31.2459  -30.0855   36.4749 C   0  0  2  0  0  0  0  0  0  0  0  0
   30.5003  -28.9629   36.1398 O   0  0  0  0  0  0  0  0  0  0  0  0
   32.7071  -29.7140   36.5836 C   0  0  0  0  0  0  0  0  0  0  0  0
   33.3748  -29.9145   35.3716 O   0  0  0  0  0  0  0  0  0  0  0  0
   30.1566  -34.9582   35.6619 O   0  0  0  0  0  0  0  0  0  0  0  0
   30.8993  -33.6065   34.9938 P   0  0  1  0  0  5  0  0  0  0  0  0
   30.7186  -33.5316   33.5029 O   0  0  0  0  0  0  0  0  0  0  0  0
   32.5808  -33.7637   35.2688 O   0  0  0  0  0  0  0  0  0  0  0  0
   34.2965  -28.5848   34.9372 P   0  0  1  0  0  5  0  0  0  0  0  0
   33.8259  -27.3194   35.5990 O   0  0  0  0  0  0  0  0  0  0  0  0
   35.8963  -28.8621   35.4745 O   0  0  0  0  0  0  0  0  0  0  0  0
   34.3836  -28.4100   33.2511 O   0  0  0  0  0  0  0  0  0  0  0  0
   35.0803  -29.7470   32.5283 P   0  0  2  0  0  5  0  0  0  0  0  0
   34.0519  -30.8191   32.2051 O   0  0  0  0  0  0  0  0  0  0  0  0
   36.1969  -30.4193   33.6120 O   0  0  0  0  0  0  0  0  0  0  0  0
   35.8910  -29.3843   31.1132 O   0  0  0  0  0  0  0  0  0  0  0  0
   36.8383  -28.3701   31.2908 C   0  0  0  0  0  0  0  0  0  0  0  0
   36.5648  -27.1919   30.4104 C   0  0  2  0  0  0  0  0  0  0  0  0
   35.1048  -27.0368   30.0760 C   0  0  0  0  0  0  0  0  0  0  0  0
   37.2692  -27.4902   29.0801 C   0  0  0  0  0  0  0  0  0  0  0  0
   37.1010  -25.8873   30.9501 C   0  0  1  0  0  0  0  0  0  0  0  0
   36.5559  -25.6419   32.2261 O   0  0  0  0  0  0  0  0  0  0  0  0
   38.5857  -25.9135   31.0439 C   0  0  0  0  0  0  0  0  0  0  0  0
   39.1183  -26.0408   32.1622 O   0  0  0  0  0  0  0  0  0  0  0  0
   39.3773  -25.7946   29.8728 N   0  0  0  0  0  0  0  0  0  0  0  0
   40.1882  -24.6138   29.6965 C   0  0  0  0  0  0  0  0  0  0  0  0
   41.4558  -24.8945   28.9213 C   0  0  0  0  0  0  0  0  0  0  0  0
   42.1887  -23.5983   28.6809 C   0  0  0  0  0  0  0  0  0  0  0  0
   42.4695  -22.8655   29.6534 O   0  0  0  0  0  0  0  0  0  0  0  0
   42.5226  -23.2778   27.3541 N   0  0  0  0  0  0  0  0  0  0  0  0
   43.4631  -22.2110   27.0986 C   0  0  0  0  0  0  0  0  0  0  0  0
   43.3283  -21.1021   28.1135 C   0  0  0  0  0  0  0  0  0  0  0  0
   44.0579  -20.0077   27.6224 O   0  0  0  0  0  0  0  0  0  0  0  0
  1  2  2  0
  1  6  1  0
  2  3  1  0
  3  4  2  0
  4  5  1  0
  4 10  1  0
  5  6  2  0
  5  8  1  0
  6  7  1  0
  8  9  2  0
  9 10  1  0
 11 10  1  6
 11 12  1  0
 11 17  1  0
 12 13  1  1
 12 14  1  0
 14 15  1  1
 14 16  1  0
 15 21  1  0
 16 17  1  0
 16 18  1  6
 18 19  1  0
 19 24  1  0
 21 20  1  1
 21 22  2  0
 21 23  1  0
 24 25  2  0
 24 26  1  1
 24 27  1  0
 27 28  1  0
 28 29  2  0
 28 30  1  1
 28 31  1  0
 31 32  1  0
 32 33  1  0
 33 34  1  6
 33 35  1  0
 33 36  1  0
 36 37  1  1
 36 38  1  0
 38 39  2  0
 38 40  1  0
 40 41  1  0
 41 42  1  0
 42 43  1  0
 43 44  2  0
 43 45  1  0
 45 46  1  0
 46 47  1  0
 47 48  1  0
M  END
$$$$
