
     RDKit          3D

 48 50  0  0  0  0  0  0  0  0999 V2000
   19.8866   22.0415   25.5149 N   0  0  0  0  0  0  0  0  0  0  0  0
   18.9102   21.7400   24.6274 C   0  0  0  0  0  0  0  0  0  0  0  0
   19.2038   21.8144   23.3295 N   0  0  0  0  0  0  0  0  0  0  0  0
   20.3994   22.1671   22.8283 C   0  0  0  0  0  0  0  0  0  0  0  0
   21.4033   22.4769   23.7187 C   0  0  0  0  0  0  0  0  0  0  0  0
   21.1137   22.4043   25.0752 C   0  0  0  0  0  0  0  0  0  0  0  0
   22.1263   22.7173   26.0218 N   0  0  0  0  0  0  0  0  0  0  0  0
   22.4664   22.7873   22.9806 N   0  0  0  0  0  0  0  0  0  0  0  0
   22.1334   22.6740   21.6804 C   0  0  0  0  0  0  0  0  0  0  0  0
   20.8574   22.2908   21.5533 N   0  0  0  0  0  0  0  0  0  0  0  0
   20.0356   22.0326   20.4145 C   0  0  1  0  0  0  0  0  0  0  0  0
   19.1927   23.2194   19.9968 C   0  0  2  0  0  0  0  0  0  0  0  0
   18.0823   23.3746   20.8254 O   0  0  0  0  0  0  0  0  0  0  0  0
   18.7881   22.8079   18.5969 C   0  0  2  0  0  0  0  0  0  0  0  0
   17.5531   22.1349   18.7428 O   0  0  0  0  0  0  0  0  0  0  0  0
   19.8968   21.8861   18.1963 C   0  0  2  0  0  0  0  0  0  0  0  0
   20.7861   21.8205   19.2609 O   0  0  0  0  0  0  0  0  0  0  0  0
   20.5960   22.4518   16.9813 C   0  0  0  0  0  0  0  0  0  0  0  0
   21.1928   23.6839   17.2652 O   0  0  0  0  0  0  0  0  0  0  0  0
   15.5429   23.9921   18.6438 O   0  0  0  0  0  0  0  0  0  0  0  0
   16.3647   22.8121   17.7736 P   0  0  1  0  0  5  0  0  0  0  0  0
   16.8996   23.3313   16.4677 O   0  0  0  0  0  0  0  0  0  0  0  0
   15.2323   21.5911   17.3800 O   0  0  0  0  0  0  0  0  0  0  0  0
   22.0480   24.2820   15.9548 P   0  0  1  0  0  5  0  0  0  0  0  0
   21.1563   24.6129   14.7902 O   0  0  0  0  0  0  0  0  0  0  0  0
   22.7927   25.7426   16.4418 O   0  0  0  0  0  0  0  0  0  0  0  0
   23.3041   23.2353   15.4991 O   0  0  0  0  0  0  0  0  0  0  0  0
   24.6132   23.3576   16.5320 P   0  0  2  0  0  5  0  0  0  0  0  0
   24.1858   23.3834   17.9908 O   0  0  0  0  0  0  0  0  0  0  0  0
   25.4151   24.8155   16.2081 O   0  0  0  0  0  0  0  0  0  0  0  0
   25.7139   22.1139   16.3519 O   0  0  0  0  0  0  0  0  0  0  0  0
   25.0963   20.8585   16.3352 C   0  0  0  0  0  0  0  0  0  0  0  0
   26.0671   19.7562   16.6186 C   0  0  2  0  0  0  0  0  0  0  0  0
   27.4847   20.1179   16.2622 C   0  0  0  0  0  0  0  0  0  0  0  0
   25.6805   18.6053   15.6799 C   0  0  0  0  0  0  0  0  0  0  0  0
   26.0173   19.2475   18.0398 C   0  0  1  0  0  0  0  0  0  0  0  0
   24.7399   18.7175   18.3095 O   0  0  0  0  0  0  0  0  0  0  0  0
   27.0467   18.1986   18.2721 C   0  0  0  0  0  0  0  0  0  0  0  0
   28.1393   18.5247   18.7726 O   0  0  0  0  0  0  0  0  0  0  0  0
   26.7813   16.8488   17.9263 N   0  0  0  0  0  0  0  0  0  0  0  0
   27.7977   15.8537   18.1710 C   0  0  0  0  0  0  0  0  0  0  0  0
   27.7200   14.6981   17.1990 C   0  0  0  0  0  0  0  0  0  0  0  0
   28.9618   14.6843   16.3428 C   0  0  0  0  0  0  0  0  0  0  0  0
   28.9664   15.3129   15.2628 O   0  0  0  0  0  0  0  0  0  0  0  0
   30.0660   13.9533   16.8126 N   0  0  0  0  0  0  0  0  0  0  0  0
   31.2325   13.8136   15.9712 C   0  0  0  0  0  0  0  0  0  0  0  0
   32.4885   13.6518   16.7922 C   0  0  0  0  0  0  0  0  0  0  0  0
   32.5828   12.2926   17.1311 O   0  0  0  0  0  0  0  0  0  0  0  0
  1  2  2  0
  1  6  1  0
  2  3  1  0
  3  4  2  0
  4  5  1  0
  4 10  1  0
  5  6  2  0
  5  8  1  0
  6  7  1  0
  8  9  2  0
  9 10  1  0
 11 10  1  1
 11 12  1  0
 11 17  1  0
 12 13  1  1
 12 14  1  0
 14 15  1  1
 14 16  1  0
 15 21  1  0
 16 17  1  0
 16 18  1  6
 18 19  1  0
 19 24  1  0
 21 20  1  1
 21 22  2  0
 21 23  1  0
 24 25  2  0
 24 26  1  1
 24 27  1  0
 27 28  1  0
 28 29  2  0
 28 30  1  6
 28 31  1  0
 31 32  1  0
 32 33  1  0
 33 34  1  6
 33 35  1  0
 33 36  1  0
 36 37  1  6
 36 38  1  0
 38 39  2  0
 38 40  1  0
 40 41  1  0
 41 42  1  0
 42 43  1  0
 43 44  2  0
 43 45  1  0
 45 46  1  0
 46 47  1  0
 47 48  1  0
M  END
$$$$
