
     RDKit          3D

 48 50  0  0  0  0  0  0  0  0999 V2000
   19.7418   23.4014   25.2835 N   0  0  0  0  0  0  0  0  0  0  0  0
   19.7468   22.0742   25.0175 C   0  0  0  0  0  0  0  0  0  0  0  0
   20.3035   21.6700   23.8760 N   0  0  0  0  0  0  0  0  0  0  0  0
   20.8638   22.4800   22.9620 C   0  0  0  0  0  0  0  0  0  0  0  0
   20.8666   23.8331   23.2183 C   0  0  0  0  0  0  0  0  0  0  0  0
   20.2903   24.2709   24.4038 C   0  0  0  0  0  0  0  0  0  0  0  0
   20.2758   25.6607   24.7000 N   0  0  0  0  0  0  0  0  0  0  0  0
   21.4692   24.4031   22.1775 N   0  0  0  0  0  0  0  0  0  0  0  0
   21.8268   23.4383   21.3082 C   0  0  0  0  0  0  0  0  0  0  0  0
   21.4648   22.2342   21.7666 N   0  0  0  0  0  0  0  0  0  0  0  0
   21.6091   20.9160   21.2371 C   0  0  1  0  0  0  0  0  0  0  0  0
   21.6917   20.8784   19.7255 C   0  0  2  0  0  0  0  0  0  0  0  0
   20.4350   21.0297   19.1410 O   0  0  0  0  0  0  0  0  0  0  0  0
   22.2450   19.4870   19.5009 C   0  0  2  0  0  0  0  0  0  0  0  0
   21.1151   18.6523   19.3399 O   0  0  0  0  0  0  0  0  0  0  0  0
   22.9760   19.2183   20.7787 C   0  0  2  0  0  0  0  0  0  0  0  0
   22.8282   20.3397   21.5843 O   0  0  0  0  0  0  0  0  0  0  0  0
   24.4402   18.9980   20.4742 C   0  0  0  0  0  0  0  0  0  0  0  0
   24.6746   18.9680   19.0961 O   0  0  0  0  0  0  0  0  0  0  0  0
   19.8148   17.6154   17.1642 O   0  0  0  0  0  0  0  0  0  0  0  0
   20.2615   19.0333   17.9483 P   0  0  1  0  0  5  0  0  0  0  0  0
   19.0890   19.9376   18.2097 O   0  0  0  0  0  0  0  0  0  0  0  0
   21.3049   19.8881   16.8955 O   0  0  0  0  0  0  0  0  0  0  0  0
   25.7556   17.7609   18.6710 P   0  0  1  0  0  5  0  0  0  0  0  0
   26.3027   17.0330   19.8675 O   0  0  0  0  0  0  0  0  0  0  0  0
   24.9078   16.6093   17.7329 O   0  0  0  0  0  0  0  0  0  0  0  0
   27.0001   18.3575   17.6829 O   0  0  0  0  0  0  0  0  0  0  0  0
   26.4356   18.7746   16.1655 P   0  0  2  0  0  5  0  0  0  0  0  0
   26.7591   20.2184   15.8157 O   0  0  0  0  0  0  0  0  0  0  0  0
   24.7482   18.6128   16.1599 O   0  0  0  0  0  0  0  0  0  0  0  0
   27.0488   17.8117   14.9458 O   0  0  0  0  0  0  0  0  0  0  0  0
   27.4181   16.5435   15.4075 C   0  0  0  0  0  0  0  0  0  0  0  0
   28.0297   15.7126   14.3243 C   0  0  2  0  0  0  0  0  0  0  0  0
   27.5267   16.0760   12.9523 C   0  0  0  0  0  0  0  0  0  0  0  0
   27.5526   14.2762   14.5778 C   0  0  0  0  0  0  0  0  0  0  0  0
   29.5400   15.7192   14.3271 C   0  0  1  0  0  0  0  0  0  0  0  0
   30.0112   15.8801   15.6452 O   0  0  0  0  0  0  0  0  0  0  0  0
   30.0845   14.4569   13.7583 C   0  0  0  0  0  0  0  0  0  0  0  0
   29.9970   14.2597   12.5319 O   0  0  0  0  0  0  0  0  0  0  0  0
   30.6931   13.4959   14.6058 N   0  0  0  0  0  0  0  0  0  0  0  0
   32.0939   13.6351   14.9245 C   0  0  0  0  0  0  0  0  0  0  0  0
   32.3414   14.6702   15.9986 C   0  0  0  0  0  0  0  0  0  0  0  0
   33.1122   14.0377   17.1303 C   0  0  0  0  0  0  0  0  0  0  0  0
   32.4876   13.5009   18.0702 O   0  0  0  0  0  0  0  0  0  0  0  0
   34.5151   14.0862   17.0670 N   0  0  0  0  0  0  0  0  0  0  0  0
   35.2925   13.5239   18.1476 C   0  0  0  0  0  0  0  0  0  0  0  0
   36.7194   14.0146   18.1139 C   0  0  0  0  0  0  0  0  0  0  0  0
   37.4960   12.9762   17.5757 O   0  0  0  0  0  0  0  0  0  0  0  0
  1  2  2  0
  1  6  1  0
  2  3  1  0
  3  4  2  0
  4  5  1  0
  4 10  1  0
  5  6  2  0
  5  8  1  0
  6  7  1  0
  8  9  2  0
  9 10  1  0
 11 10  1  1
 11 12  1  0
 11 17  1  0
 12 13  1  6
 12 14  1  0
 14 15  1  1
 14 16  1  0
 15 21  1  0
 16 17  1  0
 16 18  1  6
 18 19  1  0
 19 24  1  0
 21 20  1  6
 21 22  2  0
 21 23  1  0
 24 25  2  0
 24 26  1  6
 24 27  1  0
 27 28  1  0
 28 29  2  0
 28 30  1  1
 28 31  1  0
 31 32  1  0
 32 33  1  0
 33 34  1  6
 33 35  1  0
 33 36  1  0
 36 37  1  1
 36 38  1  0
 38 39  2  0
 38 40  1  0
 40 41  1  0
 41 42  1  0
 42 43  1  0
 43 44  2  0
 43 45  1  0
 45 46  1  0
 46 47  1  0
 47 48  1  0
M  END
$$$$
