
     RDKit          3D

 48 50  0  0  0  0  0  0  0  0999 V2000
   35.6165  -36.3757   28.4346 N   0  0  0  0  0  0  0  0  0  0  0  0
   34.3372  -35.9417   28.5199 C   0  0  0  0  0  0  0  0  0  0  0  0
   34.0504  -35.0269   29.4457 N   0  0  0  0  0  0  0  0  0  0  0  0
   34.9355  -34.4973   30.3068 C   0  0  0  0  0  0  0  0  0  0  0  0
   36.2413  -34.9287   30.2325 C   0  0  0  0  0  0  0  0  0  0  0  0
   36.5568  -35.8821   29.2729 C   0  0  0  0  0  0  0  0  0  0  0  0
   37.8948  -36.3495   29.1686 N   0  0  0  0  0  0  0  0  0  0  0  0
   36.9028  -34.2623   31.1757 N   0  0  0  0  0  0  0  0  0  0  0  0
   36.0384  -33.4479   31.8112 C   0  0  0  0  0  0  0  0  0  0  0  0
   34.8098  -33.5709   31.2950 N   0  0  0  0  0  0  0  0  0  0  0  0
   33.5650  -32.9437   31.6047 C   0  0  1  0  0  0  0  0  0  0  0  0
   33.0363  -33.2975   32.9790 C   0  0  2  0  0  0  0  0  0  0  0  0
   32.4579  -34.5660   32.9930 O   0  0  0  0  0  0  0  0  0  0  0  0
   31.9996  -32.2119   33.1780 C   0  0  2  0  0  0  0  0  0  0  0  0
   30.7849  -32.7574   32.7021 O   0  0  0  0  0  0  0  0  0  0  0  0
   32.5117  -31.1101   32.3044 C   0  0  2  0  0  0  0  0  0  0  0  0
   33.6851  -31.5607   31.7141 O   0  0  0  0  0  0  0  0  0  0  0  0
   32.8028  -29.8968   33.1578 C   0  0  0  0  0  0  0  0  0  0  0  0
   33.7787  -30.1736   34.1200 O   0  0  0  0  0  0  0  0  0  0  0  0
   28.1064  -33.1078   33.1526 O   0  0  0  0  0  0  0  0  0  0  0  0
   29.5606  -32.6185   33.8388 P   0  0  1  0  0  5  0  0  0  0  0  0
   29.8643  -33.3472   35.1186 O   0  0  0  0  0  0  0  0  0  0  0  0
   29.3962  -30.9661   34.2517 O   0  0  0  0  0  0  0  0  0  0  0  0
   34.1668  -28.8189   35.0257 P   0  0  1  0  0  5  0  0  0  0  0  0
   33.4627  -28.7955   36.3540 O   0  0  0  0  0  0  0  0  0  0  0  0
   35.8446  -28.8744   35.3530 O   0  0  0  0  0  0  0  0  0  0  0  0
   33.8984  -27.3875   34.1538 O   0  0  0  0  0  0  0  0  0  0  0  0
   34.9553  -26.1773   34.6159 P   0  0  2  0  0  5  0  0  0  0  0  0
   35.2716  -26.2356   36.1018 O   0  0  0  0  0  0  0  0  0  0  0  0
   34.2218  -24.6806   34.3074 O   0  0  0  0  0  0  0  0  0  0  0  0
   36.4071  -26.2187   33.7903 O   0  0  0  0  0  0  0  0  0  0  0  0
   36.2296  -26.4192   32.4169 C   0  0  0  0  0  0  0  0  0  0  0  0
   37.4140  -25.9567   31.6287 C   0  0  2  0  0  0  0  0  0  0  0  0
   37.2646  -26.1990   30.1500 C   0  0  0  0  0  0  0  0  0  0  0  0
   38.5875  -26.8366   32.0802 C   0  0  0  0  0  0  0  0  0  0  0  0
   37.7828  -24.5121   31.8694 C   0  0  1  0  0  0  0  0  0  0  0  0
   37.9449  -24.2878   33.2510 O   0  0  0  0  0  0  0  0  0  0  0  0
   39.0400  -24.1524   31.1596 C   0  0  0  0  0  0  0  0  0  0  0  0
   39.9710  -23.6348   31.8044 O   0  0  0  0  0  0  0  0  0  0  0  0
   39.1698  -24.3979   29.7685 N   0  0  0  0  0  0  0  0  0  0  0  0
   39.6554  -23.3392   28.9162 C   0  0  0  0  0  0  0  0  0  0  0  0
   39.7861  -23.7736   27.4737 C   0  0  0  0  0  0  0  0  0  0  0  0
   40.5210  -22.7086   26.6986 C   0  0  0  0  0  0  0  0  0  0  0  0
   39.9440  -22.1357   25.7496 O   0  0  0  0  0  0  0  0  0  0  0  0
   41.8372  -22.4120   27.0908 N   0  0  0  0  0  0  0  0  0  0  0  0
   42.5683  -21.3792   26.3932 C   0  0  0  0  0  0  0  0  0  0  0  0
   43.8829  -21.8968   25.8623 C   0  0  0  0  0  0  0  0  0  0  0  0
   43.9117  -23.2771   26.1175 O   0  0  0  0  0  0  0  0  0  0  0  0
  1  2  2  0
  1  6  1  0
  2  3  1  0
  3  4  2  0
  4  5  1  0
  4 10  1  0
  5  6  2  0
  5  8  1  0
  6  7  1  0
  8  9  2  0
  9 10  1  0
 11 10  1  1
 11 12  1  0
 11 17  1  0
 12 13  1  6
 12 14  1  0
 14 15  1  6
 14 16  1  0
 15 21  1  0
 16 17  1  0
 16 18  1  1
 18 19  1  0
 19 24  1  0
 21 20  1  6
 21 22  2  0
 21 23  1  0
 24 25  2  0
 24 26  1  1
 24 27  1  0
 27 28  1  0
 28 29  2  0
 28 30  1  1
 28 31  1  0
 31 32  1  0
 32 33  1  0
 33 34  1  6
 33 35  1  0
 33 36  1  0
 36 37  1  1
 36 38  1  0
 38 39  2  0
 38 40  1  0
 40 41  1  0
 41 42  1  0
 42 43  1  0
 43 44  2  0
 43 45  1  0
 45 46  1  0
 46 47  1  0
 47 48  1  0
M  END
$$$$
