
     RDKit          3D

 48 50  0  0  0  0  0  0  0  0999 V2000
   28.6692   23.1658   15.0191 N   0  0  0  0  0  0  0  0  0  0  0  0
   28.1498   24.1736   15.7586 C   0  0  0  0  0  0  0  0  0  0  0  0
   26.8228   24.2797   15.8217 N   0  0  0  0  0  0  0  0  0  0  0  0
   25.9535   23.4609   15.2059 C   0  0  0  0  0  0  0  0  0  0  0  0
   26.4665   22.4305   14.4498 C   0  0  0  0  0  0  0  0  0  0  0  0
   27.8478   22.3060   14.3736 C   0  0  0  0  0  0  0  0  0  0  0  0
   28.4112   21.2540   13.6020 N   0  0  0  0  0  0  0  0  0  0  0  0
   25.4165   21.7789   13.9558 N   0  0  0  0  0  0  0  0  0  0  0  0
   24.2938   22.3834   14.3901 C   0  0  0  0  0  0  0  0  0  0  0  0
   24.5940   23.4304   15.1678 N   0  0  0  0  0  0  0  0  0  0  0  0
   23.7855   24.3808   15.8620 C   0  0  1  0  0  0  0  0  0  0  0  0
   22.5136   24.7441   15.1248 C   0  0  2  0  0  0  0  0  0  0  0  0
   22.7630   25.6400   14.0861 O   0  0  0  0  0  0  0  0  0  0  0  0
   21.7108   25.3897   16.2345 C   0  0  2  0  0  0  0  0  0  0  0  0
   22.0057   26.7706   16.1603 O   0  0  0  0  0  0  0  0  0  0  0  0
   22.2800   24.7495   17.4615 C   0  0  2  0  0  0  0  0  0  0  0  0
   23.2677   23.8655   17.0474 O   0  0  0  0  0  0  0  0  0  0  0  0
   21.1851   23.9924   18.1778 C   0  0  0  0  0  0  0  0  0  0  0  0
   19.9383   24.2207   17.5876 O   0  0  0  0  0  0  0  0  0  0  0  0
   20.6833   27.5567   13.8946 O   0  0  0  0  0  0  0  0  0  0  0  0
   20.7033   27.6475   15.5728 P   0  0  1  0  0  5  0  0  0  0  0  0
   19.3941   27.2325   16.1849 O   0  0  0  0  0  0  0  0  0  0  0  0
   20.9311   29.2915   15.9893 O   0  0  0  0  0  0  0  0  0  0  0  0
   18.8562   22.9837   17.9118 P   0  0  1  0  0  5  0  0  0  0  0  0
   17.8026   23.3885   18.9051 O   0  0  0  0  0  0  0  0  0  0  0  0
   18.0462   22.6050   16.4539 O   0  0  0  0  0  0  0  0  0  0  0  0
   19.6554   21.5663   18.3951 O   0  0  0  0  0  0  0  0  0  0  0  0
   20.4586   20.8460   17.1179 P   0  0  2  0  0  5  0  0  0  0  0  0
   20.4450   21.7186   15.8730 O   0  0  0  0  0  0  0  0  0  0  0  0
   19.6650   19.3976   16.7362 O   0  0  0  0  0  0  0  0  0  0  0  0
   22.0530   20.4839   17.4614 O   0  0  0  0  0  0  0  0  0  0  0  0
   22.2382   20.1281   18.8018 C   0  0  0  0  0  0  0  0  0  0  0  0
   22.4774   18.6600   18.9605 C   0  0  2  0  0  0  0  0  0  0  0  0
   23.5147   18.1289   18.0069 C   0  0  0  0  0  0  0  0  0  0  0  0
   21.1605   17.9759   18.5694 C   0  0  0  0  0  0  0  0  0  0  0  0
   22.8277   18.2460   20.3701 C   0  0  1  0  0  0  0  0  0  0  0  0
   21.7196   18.4546   21.2150 O   0  0  0  0  0  0  0  0  0  0  0  0
   23.2294   16.8145   20.4263 C   0  0  0  0  0  0  0  0  0  0  0  0
   24.4024   16.5047   20.1460 O   0  0  0  0  0  0  0  0  0  0  0  0
   22.2852   15.8219   20.7943 N   0  0  0  0  0  0  0  0  0  0  0  0
   21.1275   16.2119   21.5629 C   0  0  0  0  0  0  0  0  0  0  0  0
   21.4246   16.3149   23.0419 C   0  0  0  0  0  0  0  0  0  0  0  0
   20.1305   16.2532   23.8144 C   0  0  0  0  0  0  0  0  0  0  0  0
   19.0621   16.5575   23.2420 O   0  0  0  0  0  0  0  0  0  0  0  0
   20.1957   15.8503   25.1589 N   0  0  0  0  0  0  0  0  0  0  0  0
   18.9864   15.8233   25.9494 C   0  0  0  0  0  0  0  0  0  0  0  0
   18.7129   17.1647   26.5849 C   0  0  0  0  0  0  0  0  0  0  0  0
   17.3639   17.4661   26.3386 O   0  0  0  0  0  0  0  0  0  0  0  0
  1  2  2  0
  1  6  1  0
  2  3  1  0
  3  4  2  0
  4  5  1  0
  4 10  1  0
  5  6  2  0
  5  8  1  0
  6  7  1  0
  8  9  2  0
  9 10  1  0
 11 10  1  6
 11 12  1  0
 11 17  1  0
 12 13  1  6
 12 14  1  0
 14 15  1  1
 14 16  1  0
 15 21  1  0
 16 17  1  0
 16 18  1  6
 18 19  1  0
 19 24  1  0
 21 20  1  6
 21 22  2  0
 21 23  1  0
 24 25  2  0
 24 26  1  6
 24 27  1  0
 27 28  1  0
 28 29  2  0
 28 30  1  6
 28 31  1  0
 31 32  1  0
 32 33  1  0
 33 34  1  6
 33 35  1  0
 33 36  1  0
 36 37  1  1
 36 38  1  0
 38 39  2  0
 38 40  1  0
 40 41  1  0
 41 42  1  0
 42 43  1  0
 43 44  2  0
 43 45  1  0
 45 46  1  0
 46 47  1  0
 47 48  1  0
M  END
$$$$
