
     RDKit          3D

 48 50  0  0  0  0  0  0  0  0999 V2000
   19.5879   24.2244   20.7597 N   0  0  0  0  0  0  0  0  0  0  0  0
   19.4715   23.2347   19.8437 C   0  0  0  0  0  0  0  0  0  0  0  0
   19.7645   21.9927   20.2282 N   0  0  0  0  0  0  0  0  0  0  0  0
   20.1690   21.6421   21.4605 C   0  0  0  0  0  0  0  0  0  0  0  0
   20.2923   22.6379   22.4039 C   0  0  0  0  0  0  0  0  0  0  0  0
   19.9907   23.9380   22.0192 C   0  0  0  0  0  0  0  0  0  0  0  0
   20.1072   24.9901   22.9674 N   0  0  0  0  0  0  0  0  0  0  0  0
   20.6999   22.0384   23.5200 N   0  0  0  0  0  0  0  0  0  0  0  0
   20.8246   20.7194   23.2770 C   0  0  0  0  0  0  0  0  0  0  0  0
   20.5023   20.4422   22.0080 N   0  0  0  0  0  0  0  0  0  0  0  0
   20.4685   19.2237   21.2644 C   0  0  1  0  0  0  0  0  0  0  0  0
   19.7690   19.3518   19.9273 C   0  0  2  0  0  0  0  0  0  0  0  0
   18.3827   19.3591   20.0744 O   0  0  0  0  0  0  0  0  0  0  0  0
   20.2472   18.0959   19.2296 C   0  0  2  0  0  0  0  0  0  0  0  0
   19.2708   17.1124   19.5106 O   0  0  0  0  0  0  0  0  0  0  0  0
   21.5490   17.8200   19.9142 C   0  0  2  0  0  0  0  0  0  0  0  0
   21.7380   18.8169   20.8623 O   0  0  0  0  0  0  0  0  0  0  0  0
   22.6640   17.8673   18.8945 C   0  0  0  0  0  0  0  0  0  0  0  0
   23.5164   18.9519   19.1223 O   0  0  0  0  0  0  0  0  0  0  0  0
   17.0516   17.1081   17.9059 O   0  0  0  0  0  0  0  0  0  0  0  0
   18.6019   16.4900   18.1051 P   0  0  1  0  0  5  0  0  0  0  0  0
   19.4675   16.7130   16.8959 O   0  0  0  0  0  0  0  0  0  0  0  0
   18.4530   14.7950   18.2860 O   0  0  0  0  0  0  0  0  0  0  0  0
   23.6213   19.9571   17.7864 P   0  0  1  0  0  5  0  0  0  0  0  0
   22.6099   19.6128   16.7283 O   0  0  0  0  0  0  0  0  0  0  0  0
   23.2762   21.5500   18.3048 O   0  0  0  0  0  0  0  0  0  0  0  0
   25.1961   19.9922   17.1541 O   0  0  0  0  0  0  0  0  0  0  0  0
   26.3245   19.4952   18.2832 P   0  0  2  0  0  5  0  0  0  0  0  0
   25.7807   19.5693   19.7010 O   0  0  0  0  0  0  0  0  0  0  0  0
   27.6625   20.5321   18.1936 O   0  0  0  0  0  0  0  0  0  0  0  0
   26.8654   17.9346   18.0324 O   0  0  0  0  0  0  0  0  0  0  0  0
   27.3731   17.7512   16.7415 C   0  0  0  0  0  0  0  0  0  0  0  0
   28.1497   16.4781   16.6239 C   0  0  2  0  0  0  0  0  0  0  0  0
   28.6458   16.2213   15.2255 C   0  0  0  0  0  0  0  0  0  0  0  0
   27.1545   15.3503   16.9282 C   0  0  0  0  0  0  0  0  0  0  0  0
   29.3006   16.3715   17.5960 C   0  0  1  0  0  0  0  0  0  0  0  0
   28.8681   15.7328   18.7751 O   0  0  0  0  0  0  0  0  0  0  0  0
   30.4333   15.6074   17.0070 C   0  0  0  0  0  0  0  0  0  0  0  0
   31.5497   15.6628   17.5558 O   0  0  0  0  0  0  0  0  0  0  0  0
   30.2379   14.8291   15.8373 N   0  0  0  0  0  0  0  0  0  0  0  0
   31.3672   14.1369   15.2639 C   0  0  0  0  0  0  0  0  0  0  0  0
   32.3358   13.6431   16.3148 C   0  0  0  0  0  0  0  0  0  0  0  0
   33.5700   13.1014   15.6378 C   0  0  0  0  0  0  0  0  0  0  0  0
   33.7403   13.3123   14.4179 O   0  0  0  0  0  0  0  0  0  0  0  0
   34.4782   12.3763   16.4276 N   0  0  0  0  0  0  0  0  0  0  0  0
   35.7080   11.9007   15.8365 C   0  0  0  0  0  0  0  0  0  0  0  0
   35.6625   10.4121   15.5913 C   0  0  0  0  0  0  0  0  0  0  0  0
   34.6457   10.1838   14.6505 O   0  0  0  0  0  0  0  0  0  0  0  0
  1  2  2  0
  1  6  1  0
  2  3  1  0
  3  4  2  0
  4  5  1  0
  4 10  1  0
  5  6  2  0
  5  8  1  0
  6  7  1  0
  8  9  2  0
  9 10  1  0
 11 10  1  6
 11 12  1  0
 11 17  1  0
 12 13  1  1
 12 14  1  0
 14 15  1  1
 14 16  1  0
 15 21  1  0
 16 17  1  0
 16 18  1  6
 18 19  1  0
 19 24  1  0
 21 20  1  6
 21 22  2  0
 21 23  1  0
 24 25  2  0
 24 26  1  1
 24 27  1  0
 27 28  1  0
 28 29  2  0
 28 30  1  1
 28 31  1  0
 31 32  1  0
 32 33  1  0
 33 34  1  6
 33 35  1  0
 33 36  1  0
 36 37  1  1
 36 38  1  0
 38 39  2  0
 38 40  1  0
 40 41  1  0
 41 42  1  0
 42 43  1  0
 43 44  2  0
 43 45  1  0
 45 46  1  0
 46 47  1  0
 47 48  1  0
M  END
$$$$
