
     RDKit          3D

 27 32  0  0  0  0  0  0  0  0999 V2000
   24.5996   66.9921  142.5058 C   0  0  1  0  0  0  0  0  0  0  0  0
   24.9150   65.4889  142.4611 C   0  0  0  0  0  0  0  0  0  0  0  0
   25.1513   67.5210  143.7726 C   0  0  0  0  0  0  0  0  0  0  0  0
   25.1200   67.5804  141.2497 C   0  0  2  0  0  0  0  0  0  0  0  0
   26.6223   67.5515  141.1662 C   0  0  0  0  0  0  0  0  0  0  0  0
   24.5912   68.9503  140.9310 C   0  0  2  0  0  0  0  0  0  0  0  0
   23.1328   69.1180  140.9962 C   0  0  0  0  0  0  0  0  0  0  0  0
   25.0270   69.2202  139.5444 N   0  0  0  0  0  0  0  0  0  0  0  0
   26.4478   69.1997  139.4258 C   0  0  0  0  0  0  0  0  0  0  0  0
   27.1244   68.8811  140.7375 C   0  0  2  0  0  0  0  0  0  0  0  0
   28.5875   69.0748  140.6996 C   0  0  0  0  0  0  0  0  0  0  0  0
   27.2949   71.0949  140.9675 C   0  0  0  0  0  0  0  0  0  0  0  0
   18.5253   67.2665  142.7700 C   0  0  0  0  0  0  0  0  0  0  0  0
   19.6344   66.5567  143.2257 C   0  0  0  0  0  0  0  0  0  0  0  0
   20.9262   66.9004  142.8624 C   0  0  0  0  0  0  0  0  0  0  0  0
   21.0620   67.9820  142.0255 C   0  0  0  0  0  0  0  0  0  0  0  0
   19.9733   68.6942  141.5663 C   0  0  0  0  0  0  0  0  0  0  0  0
   18.6913   68.3486  141.9303 C   0  0  0  0  0  0  0  0  0  0  0  0
   22.4461   68.1034  141.8248 C   0  0  0  0  0  0  0  0  0  0  0  0
   23.1085   67.1251  142.5206 C   0  0  0  0  0  0  0  0  0  0  0  0
   28.7414   70.5884  140.8734 C   0  0  0  0  0  0  0  0  0  0  0  0
   25.2669   70.0378  141.7502 C   0  0  0  0  0  0  0  0  0  0  0  0
   26.6870   69.9426  141.6492 N   0  0  1  0  0  4  0  0  0  0  0  0
   22.1381   66.4037  143.1474 N   0  0  0  0  0  0  0  0  0  0  0  0
   27.0782   69.4173  138.3695 O   0  0  0  0  0  0  0  0  0  0  0  0
   16.7696   66.7645  143.2904 Br  0  0  0  0  0  0  0  0  0  0  0  0
   17.2730   69.2147  141.3792 Cl  0  0  0  0  0  0  0  0  0  0  0  0
  2  1  1  1
  3  1  1  1
  4  1  1  0
  1 20  1  1
  4  5  1  1
  6  4  1  0
  5 10  1  6
  7  6  1  0
  6  8  1  6
  6 22  1  0
  7 19  1  6
  8  9  1  0
 10  9  1  6
  9 25  2  0
 11 10  1  1
 10 23  1  0
 21 11  1  1
 12 21  1  1
 23 12  1  6
 14 13  2  0
 13 18  1  0
 13 26  1  0
 15 14  1  0
 16 15  2  0
 15 24  1  0
 16 17  1  0
 16 19  1  0
 17 18  2  0
 18 27  1  0
 19 20  2  0
 20 24  1  0
 22 23  1  6
M  CHG  1  23   1
M  END
$$$$
