
     RDKit          3D

 27 32  0  0  0  0  0  0  0  0999 V2000
    4.0052   60.2874  114.5811 C   0  0  1  0  0  0  0  0  0  0  0  0
    4.4307   61.1048  115.8108 C   0  0  0  0  0  0  0  0  0  0  0  0
    4.5854   58.9344  114.7285 C   0  0  0  0  0  0  0  0  0  0  0  0
    2.5293   60.3786  114.4912 C   0  0  2  0  0  0  0  0  0  0  0  0
    1.8278   59.6779  115.6234 C   0  0  0  0  0  0  0  0  0  0  0  0
    1.9538   59.9660  113.1659 C   0  0  2  0  0  0  0  0  0  0  0  0
    2.5664   60.5670  111.9732 C   0  0  0  0  0  0  0  0  0  0  0  0
    0.5349   60.3780  113.2155 N   0  0  0  0  0  0  0  0  0  0  0  0
   -0.1635   59.7341  114.2788 C   0  0  0  0  0  0  0  0  0  0  0  0
    0.7362   58.8282  115.0849 C   0  0  2  0  0  0  0  0  0  0  0  0
    0.0001   57.9799  116.0433 C   0  0  0  0  0  0  0  0  0  0  0  0
   -0.0301   57.2048  113.7581 C   0  0  0  0  0  0  0  0  0  0  0  0
    6.7195   63.0634  109.8940 C   0  0  0  0  0  0  0  0  0  0  0  0
    6.8947   62.6817  111.2225 C   0  0  0  0  0  0  0  0  0  0  0  0
    5.9086   62.0150  111.9313 C   0  0  0  0  0  0  0  0  0  0  0  0
    4.7419   61.7466  111.2564 C   0  0  0  0  0  0  0  0  0  0  0  0
    4.5541   62.1183  109.9412 C   0  0  0  0  0  0  0  0  0  0  0  0
    5.5374   62.7808  109.2412 C   0  0  0  0  0  0  0  0  0  0  0  0
    3.9364   61.0792  112.1926 C   0  0  0  0  0  0  0  0  0  0  0  0
    4.6049   60.9564  113.3835 C   0  0  0  0  0  0  0  0  0  0  0  0
   -0.5264   56.8413  115.1650 C   0  0  0  0  0  0  0  0  0  0  0  0
    1.8958   58.4559  113.0038 C   0  0  0  0  0  0  0  0  0  0  0  0
    1.2417   57.8493  114.1176 N   0  0  1  0  0  4  0  0  0  0  0  0
    5.8166   61.5451  113.1831 N   0  0  0  0  0  0  0  0  0  0  0  0
   -1.3773   59.8878  114.5308 O   0  0  0  0  0  0  0  0  0  0  0  0
    8.0951   63.9760  108.9558 Br  0  0  0  0  0  0  0  0  0  0  0  0
    5.3555   63.2768  107.5719 Cl  0  0  0  0  0  0  0  0  0  0  0  0
  2  1  1  1
  3  1  1  1
  4  1  1  0
  1 20  1  6
  4  5  1  1
  6  4  1  0
  5 10  1  6
  7  6  1  0
  6  8  1  1
  6 22  1  0
  7 19  1  6
  8  9  1  0
 10  9  1  6
  9 25  2  0
 11 10  1  1
 10 23  1  0
 21 11  1  1
 12 21  1  1
 23 12  1  6
 14 13  2  0
 13 18  1  0
 13 26  1  0
 15 14  1  0
 16 15  2  0
 15 24  1  0
 16 17  1  0
 16 19  1  0
 17 18  2  0
 18 27  1  0
 19 20  2  0
 20 24  1  0
 22 23  1  6
M  CHG  1  23   1
M  END
$$$$
