
     RDKit          3D

 27 32  0  0  0  0  0  0  0  0999 V2000
   24.3031   68.4839  143.5613 C   0  0  1  0  0  0  0  0  0  0  0  0
   24.1563   68.3315  145.0859 C   0  0  0  0  0  0  0  0  0  0  0  0
   24.6753   69.9434  143.3656 C   0  0  0  0  0  0  0  0  0  0  0  0
   25.3022   67.5258  143.0618 C   0  0  2  0  0  0  0  0  0  0  0  0
   26.7146   68.1314  143.0116 C   0  0  0  0  0  0  0  0  0  0  0  0
   25.0193   66.8697  141.7564 C   0  0  2  0  0  0  0  0  0  0  0  0
   23.6205   66.4617  141.5253 C   0  0  0  0  0  0  0  0  0  0  0  0
   25.8377   65.6384  141.7245 N   0  0  0  0  0  0  0  0  0  0  0  0
   27.2282   65.9454  141.9311 C   0  0  0  0  0  0  0  0  0  0  0  0
   27.4649   67.4332  141.9524 C   0  0  2  0  0  0  0  0  0  0  0  0
   28.9035   67.7679  141.8174 C   0  0  0  0  0  0  0  0  0  0  0  0
   27.7716   67.1632  139.7574 C   0  0  0  0  0  0  0  0  0  0  0  0
   18.6126   68.1537  141.6531 C   0  0  0  0  0  0  0  0  0  0  0  0
   19.4729   68.8318  142.5141 C   0  0  0  0  0  0  0  0  0  0  0  0
   20.8103   68.5026  142.5918 C   0  0  0  0  0  0  0  0  0  0  0  0
   21.2749   67.4830  141.7936 C   0  0  0  0  0  0  0  0  0  0  0  0
   20.4106   66.8098  140.9361 C   0  0  0  0  0  0  0  0  0  0  0  0
   19.0817   67.1362  140.8582 C   0  0  0  0  0  0  0  0  0  0  0  0
   22.6114   67.3729  142.0707 C   0  0  0  0  0  0  0  0  0  0  0  0
   22.9437   68.2965  143.0064 C   0  0  0  0  0  0  0  0  0  0  0  0
   29.1573   67.2775  140.3815 C   0  0  0  0  0  0  0  0  0  0  0  0
   25.5558   67.6733  140.5618 C   0  0  0  0  0  0  0  0  0  0  0  0
   26.9537   67.9124  140.6553 N   0  0  1  0  0  4  0  0  0  0  0  0
   21.8237   68.9837  143.3164 N   0  0  0  0  0  0  0  0  0  0  0  0
   28.1164   65.1027  142.0732 O   0  0  0  0  0  0  0  0  0  0  0  0
   16.7638   68.5914  141.5299 Br  0  0  0  0  0  0  0  0  0  0  0  0
   18.0609   66.2373  139.7507 Cl  0  0  0  0  0  0  0  0  0  0  0  0
  1  2  1  1
  1  3  1  0
  4  1  1  0
  1 20  1  0
  4  5  1  6
  6  4  1  0
  5 10  1  0
  6  7  1  6
  6  8  1  0
  6 22  1  0
 19  7  1  0
  8  9  1  0
  9 10  1  0
  9 25  2  0
 10 11  1  1
 10 23  1  0
 11 21  1  0
 12 21  1  0
 23 12  1  6
 14 13  2  0
 13 18  1  0
 13 26  1  0
 15 14  1  0
 16 15  2  0
 15 24  1  0
 16 17  1  0
 16 19  1  0
 17 18  2  0
 18 27  1  0
 19 20  2  0
 20 24  1  0
 22 23  1  0
M  CHG  1  23   1
M  END
$$$$
