
     RDKit          3D

 27 32  0  0  0  0  0  0  0  0999 V2000
   24.5658   67.6026  142.4279 C   0  0  1  0  0  0  0  0  0  0  0  0
   25.0133   66.1381  142.3014 C   0  0  0  0  0  0  0  0  0  0  0  0
   24.9826   68.0773  143.7658 C   0  0  0  0  0  0  0  0  0  0  0  0
   25.1164   68.3254  141.2577 C   0  0  2  0  0  0  0  0  0  0  0  0
   26.6177   68.4262  141.2832 C   0  0  0  0  0  0  0  0  0  0  0  0
   24.4928   69.6675  140.9976 C   0  0  2  0  0  0  0  0  0  0  0  0
   23.0243   69.7095  140.9668 C   0  0  0  0  0  0  0  0  0  0  0  0
   24.9959   70.0767  139.6691 N   0  0  0  0  0  0  0  0  0  0  0  0
   26.4178   70.1819  139.6543 C   0  0  0  0  0  0  0  0  0  0  0  0
   27.0297   69.8212  140.9867 C   0  0  2  0  0  0  0  0  0  0  0  0
   28.4696   70.1366  141.0703 C   0  0  0  0  0  0  0  0  0  0  0  0
   26.9905   72.0177  141.3829 C   0  0  0  0  0  0  0  0  0  0  0  0
   18.4867   67.3569  142.2627 C   0  0  0  0  0  0  0  0  0  0  0  0
   19.6202   66.7079  142.7481 C   0  0  0  0  0  0  0  0  0  0  0  0
   20.8987   67.1831  142.5058 C   0  0  0  0  0  0  0  0  0  0  0  0
   20.9958   68.3326  141.7589 C   0  0  0  0  0  0  0  0  0  0  0  0
   19.8826   68.9859  141.2717 C   0  0  0  0  0  0  0  0  0  0  0  0
   18.6140   68.5095  141.5153 C   0  0  0  0  0  0  0  0  0  0  0  0
   22.3744   68.5820  141.6696 C   0  0  0  0  0  0  0  0  0  0  0  0
   23.0712   67.6113  142.3421 C   0  0  0  0  0  0  0  0  0  0  0  0
   28.4788   71.6402  141.3604 C   0  0  0  0  0  0  0  0  0  0  0  0
   25.0143   70.7413  141.9383 C   0  0  0  0  0  0  0  0  0  0  0  0
   26.4409   70.7709  141.9358 N   0  0  1  0  0  4  0  0  0  0  0  0
   22.1273   66.7672  142.8438 N   0  0  0  0  0  0  0  0  0  0  0  0
   27.0966   70.5301  138.6651 O   0  0  0  0  0  0  0  0  0  0  0  0
   16.7505   66.6745  142.6160 Br  0  0  0  0  0  0  0  0  0  0  0  0
   17.1660   69.2957  140.9232 Cl  0  0  0  0  0  0  0  0  0  0  0  0
  2  1  1  1
  3  1  1  1
  4  1  1  0
  1 20  1  1
  4  5  1  1
  6  4  1  0
  5 10  1  6
  7  6  1  0
  6  8  1  6
  6 22  1  0
  7 19  1  6
  8  9  1  0
 10  9  1  6
  9 25  2  0
 11 10  1  1
 10 23  1  0
 21 11  1  1
 12 21  1  1
 23 12  1  6
 14 13  2  0
 13 18  1  0
 13 26  1  0
 15 14  1  0
 16 15  2  0
 15 24  1  0
 16 17  1  0
 16 19  1  0
 17 18  2  0
 18 27  1  0
 19 20  2  0
 20 24  1  0
 22 23  1  6
M  CHG  1  23   1
M  END
$$$$
