
     RDKit          3D

 27 32  0  0  0  0  0  0  0  0999 V2000
   23.0841   70.1716  142.2220 C   0  0  1  0  0  0  0  0  0  0  0  0
   22.3398   70.6106  143.4926 C   0  0  0  0  0  0  0  0  0  0  0  0
   22.1209   70.2392  141.1009 C   0  0  0  0  0  0  0  0  0  0  0  0
   24.2962   71.0168  142.1173 C   0  0  2  0  0  0  0  0  0  0  0  0
   23.9817   72.4628  141.8433 C   0  0  0  0  0  0  0  0  0  0  0  0
   25.3391   70.5047  141.1644 C   0  0  2  0  0  0  0  0  0  0  0  0
   25.7234   69.0944  141.3143 C   0  0  0  0  0  0  0  0  0  0  0  0
   26.5336   71.3393  141.4135 N   0  0  0  0  0  0  0  0  0  0  0  0
   26.2731   72.7189  141.1651 C   0  0  0  0  0  0  0  0  0  0  0  0
   24.8439   72.9616  140.7427 C   0  0  2  0  0  0  0  0  0  0  0  0
   24.6046   74.3371  140.2625 C   0  0  0  0  0  0  0  0  0  0  0  0
   25.6437   72.8609  138.6611 C   0  0  0  0  0  0  0  0  0  0  0  0
   24.4920   64.3354  143.2220 C   0  0  0  0  0  0  0  0  0  0  0  0
   23.4985   65.2946  143.4075 C   0  0  0  0  0  0  0  0  0  0  0  0
   23.6479   66.6006  142.9705 C   0  0  0  0  0  0  0  0  0  0  0  0
   24.8307   66.9065  142.3412 C   0  0  0  0  0  0  0  0  0  0  0  0
   25.8233   65.9675  142.1505 C   0  0  0  0  0  0  0  0  0  0  0  0
   25.6699   64.6706  142.5868 C   0  0  0  0  0  0  0  0  0  0  0  0
   24.7153   68.2660  142.0107 C   0  0  0  0  0  0  0  0  0  0  0  0
   23.5029   68.7495  142.4308 C   0  0  0  0  0  0  0  0  0  0  0  0
   25.1282   74.2981  138.8240 C   0  0  0  0  0  0  0  0  0  0  0  0
   24.9866   70.7861  139.7130 C   0  0  0  0  0  0  0  0  0  0  0  0
   24.6761   72.1658  139.5229 N   0  0  1  0  0  4  0  0  0  0  0  0
   22.8735   67.6937  143.0176 N   0  0  0  0  0  0  0  0  0  0  0  0
   27.1148   73.6351  141.2779 O   0  0  0  0  0  0  0  0  0  0  0  0
   24.2500   62.5548  143.8354 Br  0  0  0  0  0  0  0  0  0  0  0  0
   26.8941   63.4373  142.3727 Cl  0  0  0  0  0  0  0  0  0  0  0  0
  2  1  1  1
  3  1  1  1
  4  1  1  0
  1 20  1  1
  4  5  1  6
  6  4  1  0
  5 10  1  6
  7  6  1  0
  6  8  1  1
  6 22  1  0
  7 19  1  6
  8  9  1  0
 10  9  1  1
  9 25  2  0
 11 10  1  1
 10 23  1  0
 21 11  1  1
 12 21  1  1
 23 12  1  6
 14 13  2  0
 13 18  1  0
 13 26  1  0
 15 14  1  0
 16 15  2  0
 15 24  1  0
 16 17  1  0
 16 19  1  0
 17 18  2  0
 18 27  1  0
 19 20  2  0
 20 24  1  0
 22 23  1  6
M  CHG  1  23   1
M  END
$$$$
