
     RDKit          3D

 27 32  0  0  0  0  0  0  0  0999 V2000
    0.8434   62.3454  111.9841 C   0  0  1  0  0  0  0  0  0  0  0  0
   -0.1803   62.3212  110.8384 C   0  0  0  0  0  0  0  0  0  0  0  0
    0.4799   63.4677  112.8769 C   0  0  0  0  0  0  0  0  0  0  0  0
    0.8559   60.9897  112.5812 C   0  0  2  0  0  0  0  0  0  0  0  0
   -0.4301   60.6455  113.2830 C   0  0  0  0  0  0  0  0  0  0  0  0
    2.0404   60.7006  113.4594 C   0  0  2  0  0  0  0  0  0  0  0  0
    3.3614   61.0121  112.8963 C   0  0  0  0  0  0  0  0  0  0  0  0
    1.9804   59.2474  113.7236 N   0  0  0  0  0  0  0  0  0  0  0  0
    0.7727   58.8825  114.3880 C   0  0  0  0  0  0  0  0  0  0  0  0
   -0.1318   60.0694  114.6182 C   0  0  2  0  0  0  0  0  0  0  0  0
   -1.2775   59.7659  115.4985 C   0  0  0  0  0  0  0  0  0  0  0  0
    0.8135   60.1550  116.6386 C   0  0  0  0  0  0  0  0  0  0  0  0
    6.1321   63.6569  109.2724 C   0  0  0  0  0  0  0  0  0  0  0  0
    4.7691   63.9459  109.2657 C   0  0  0  0  0  0  0  0  0  0  0  0
    3.8865   63.3449  110.1482 C   0  0  0  0  0  0  0  0  0  0  0  0
    4.4237   62.4442  111.0364 C   0  0  0  0  0  0  0  0  0  0  0  0
    5.7709   62.1480  111.0549 C   0  0  0  0  0  0  0  0  0  0  0  0
    6.6440   62.7482  110.1756 C   0  0  0  0  0  0  0  0  0  0  0  0
    3.3294   61.9980  111.7942 C   0  0  0  0  0  0  0  0  0  0  0  0
    2.1812   62.6148  111.3683 C   0  0  0  0  0  0  0  0  0  0  0  0
   -0.6651   59.8341  116.9004 C   0  0  0  0  0  0  0  0  0  0  0  0
    1.9103   61.3332  114.8353 C   0  0  0  0  0  0  0  0  0  0  0  0
    0.6631   60.9895  115.4374 N   0  0  1  0  0  4  0  0  0  0  0  0
    2.5651   63.4374  110.3529 N   0  0  0  0  0  0  0  0  0  0  0  0
    0.4785   57.7225  114.7462 O   0  0  0  0  0  0  0  0  0  0  0  0
    7.3105   64.5016  108.0465 Br  0  0  0  0  0  0  0  0  0  0  0  0
    8.3621   62.4118  110.1527 Cl  0  0  0  0  0  0  0  0  0  0  0  0
  2  1  1  1
  3  1  1  1
  4  1  1  0
  1 20  1  6
  4  5  1  1
  6  4  1  0
  5 10  1  6
  7  6  1  0
  6  8  1  1
  6 22  1  0
  7 19  1  6
  8  9  1  0
 10  9  1  6
  9 25  2  0
 11 10  1  1
 10 23  1  0
 21 11  1  1
 12 21  1  1
 23 12  1  1
 14 13  2  0
 13 18  1  0
 13 26  1  0
 15 14  1  0
 16 15  2  0
 15 24  1  0
 16 17  1  0
 16 19  1  0
 17 18  2  0
 18 27  1  0
 19 20  2  0
 20 24  1  0
 22 23  1  6
M  CHG  1  23   1
M  END
$$$$
