
     RDKit          3D

 27 32  0  0  0  0  0  0  0  0999 V2000
    5.4208   58.3326  115.4082 C   0  0  1  0  0  0  0  0  0  0  0  0
    6.0309   57.0608  114.7987 C   0  0  0  0  0  0  0  0  0  0  0  0
    4.0888   57.9713  115.9411 C   0  0  0  0  0  0  0  0  0  0  0  0
    6.4087   58.8653  116.3752 C   0  0  2  0  0  0  0  0  0  0  0  0
    6.5983   57.9730  117.5723 C   0  0  0  0  0  0  0  0  0  0  0  0
    6.1703   60.2872  116.7983 C   0  0  2  0  0  0  0  0  0  0  0  0
    5.9503   61.2605  115.7197 C   0  0  0  0  0  0  0  0  0  0  0  0
    7.3896   60.6808  117.5358 N   0  0  0  0  0  0  0  0  0  0  0  0
    7.6033   59.8552  118.6785 C   0  0  0  0  0  0  0  0  0  0  0  0
    6.5465   58.7852  118.8137 C   0  0  2  0  0  0  0  0  0  0  0  0
    6.6100   58.0639  120.1004 C   0  0  0  0  0  0  0  0  0  0  0  0
    5.5385   60.2243  120.1906 C   0  0  0  0  0  0  0  0  0  0  0  0
    4.6651   62.0795  110.6718 C   0  0  0  0  0  0  0  0  0  0  0  0
    4.5751   60.7474  111.0705 C   0  0  0  0  0  0  0  0  0  0  0  0
    4.8748   60.3454  112.3619 C   0  0  0  0  0  0  0  0  0  0  0  0
    5.2676   61.3302  113.2363 C   0  0  0  0  0  0  0  0  0  0  0  0
    5.3614   62.6530  112.8559 C   0  0  0  0  0  0  0  0  0  0  0  0
    5.0624   63.0473  111.5711 C   0  0  0  0  0  0  0  0  0  0  0  0
    5.5034   60.6571  114.4455 C   0  0  0  0  0  0  0  0  0  0  0  0
    5.2580   59.3169  114.2918 C   0  0  0  0  0  0  0  0  0  0  0  0
    5.9080   59.0201  121.0688 C   0  0  0  0  0  0  0  0  0  0  0  0
    5.0592   60.4072  117.8284 C   0  0  0  0  0  0  0  0  0  0  0  0
    5.2836   59.5215  118.9244 N   0  0  1  0  0  4  0  0  0  0  0  0
    4.8727   59.1637  112.9945 N   0  0  0  0  0  0  0  0  0  0  0  0
    8.5479   59.9852  119.4855 O   0  0  0  0  0  0  0  0  0  0  0  0
    4.2458   62.5914  108.8921 Br  0  0  0  0  0  0  0  0  0  0  0  0
    5.1632   64.7100  111.0320 Cl  0  0  0  0  0  0  0  0  0  0  0  0
  2  1  1  1
  3  1  1  1
  4  1  1  0
  1 20  1  6
  4  5  1  1
  6  4  1  0
  5 10  1  6
  7  6  1  0
  6  8  1  1
  6 22  1  0
  7 19  1  6
  8  9  1  0
 10  9  1  6
  9 25  2  0
 11 10  1  1
 10 23  1  0
 21 11  1  1
 12 21  1  1
 23 12  1  1
 14 13  2  0
 13 18  1  0
 13 26  1  0
 15 14  1  0
 16 15  2  0
 15 24  1  0
 16 17  1  0
 16 19  1  0
 17 18  2  0
 18 27  1  0
 19 20  2  0
 20 24  1  0
 22 23  1  6
M  CHG  1  23   1
M  END
$$$$
