
     RDKit          3D

 27 32  0  0  0  0  0  0  0  0999 V2000
    1.7523   60.6357  113.1994 C   0  0  1  0  0  0  0  0  0  0  0  0
    2.3923   59.9949  114.4439 C   0  0  0  0  0  0  0  0  0  0  0  0
    1.1783   59.4604  112.4271 C   0  0  0  0  0  0  0  0  0  0  0  0
    0.7586   61.6386  113.6143 C   0  0  2  0  0  0  0  0  0  0  0  0
   -0.6543   61.0435  113.7321 C   0  0  0  0  0  0  0  0  0  0  0  0
    0.6823   62.8900  112.8123 C   0  0  2  0  0  0  0  0  0  0  0  0
    1.9709   63.4593  112.3746 C   0  0  0  0  0  0  0  0  0  0  0  0
    0.0376   63.9000  113.6790 N   0  0  0  0  0  0  0  0  0  0  0  0
   -1.2399   63.4301  114.1456 C   0  0  0  0  0  0  0  0  0  0  0  0
   -1.6205   62.1293  113.4875 C   0  0  2  0  0  0  0  0  0  0  0  0
   -3.0550   61.8075  113.6835 C   0  0  0  0  0  0  0  0  0  0  0  0
   -2.5775   63.4635  111.9746 C   0  0  0  0  0  0  0  0  0  0  0  0
    6.5400   62.3110  109.9740 C   0  0  0  0  0  0  0  0  0  0  0  0
    5.9289   61.2268  110.6002 C   0  0  0  0  0  0  0  0  0  0  0  0
    4.7307   61.3712  111.2684 C   0  0  0  0  0  0  0  0  0  0  0  0
    4.1521   62.6189  111.3007 C   0  0  0  0  0  0  0  0  0  0  0  0
    4.7675   63.6974  110.6733 C   0  0  0  0  0  0  0  0  0  0  0  0
    5.9580   63.5549  110.0092 C   0  0  0  0  0  0  0  0  0  0  0  0
    2.9940   62.4736  112.0167 C   0  0  0  0  0  0  0  0  0  0  0  0
    2.8766   61.1795  112.4047 C   0  0  0  0  0  0  0  0  0  0  0  0
   -3.6964   62.9448  112.8701 C   0  0  0  0  0  0  0  0  0  0  0  0
   -0.2917   62.7760  111.6295 C   0  0  0  0  0  0  0  0  0  0  0  0
   -1.6046   62.4218  112.0426 N   0  0  1  0  0  4  0  0  0  0  0  0
    3.9538   60.5143  111.9360 N   0  0  0  0  0  0  0  0  0  0  0  0
   -1.9379   64.0135  114.9773 O   0  0  0  0  0  0  0  0  0  0  0  0
    8.1933   62.1345  109.0465 Br  0  0  0  0  0  0  0  0  0  0  0  0
    6.6663   64.9661  109.2453 Cl  0  0  0  0  0  0  0  0  0  0  0  0
  1  2  1  1
  1  3  1  0
  4  1  1  0
  1 20  1  0
  4  5  1  6
  6  4  1  0
  5 10  1  0
  6  7  1  6
  6  8  1  0
  6 22  1  0
 19  7  1  0
  8  9  1  0
  9 10  1  0
  9 25  2  0
 10 11  1  1
 10 23  1  0
 11 21  1  0
 12 21  1  0
 23 12  1  1
 14 13  2  0
 13 18  1  0
 13 26  1  0
 15 14  1  0
 16 15  2  0
 15 24  1  0
 16 17  1  0
 16 19  1  0
 17 18  2  0
 18 27  1  0
 19 20  2  0
 20 24  1  0
 22 23  1  0
M  CHG  1  23   1
M  END
$$$$
