
     RDKit          3D

 27 32  0  0  0  0  0  0  0  0999 V2000
    1.8259   60.5099  112.8378 C   0  0  1  0  0  0  0  0  0  0  0  0
    2.4515   59.6984  113.9863 C   0  0  0  0  0  0  0  0  0  0  0  0
    1.2013   59.4600  111.9352 C   0  0  0  0  0  0  0  0  0  0  0  0
    0.8745   61.4903  113.3849 C   0  0  2  0  0  0  0  0  0  0  0  0
   -0.5589   60.9375  113.4474 C   0  0  0  0  0  0  0  0  0  0  0  0
    0.8392   62.8324  112.7429 C   0  0  2  0  0  0  0  0  0  0  0  0
    2.1448   63.4034  112.3613 C   0  0  0  0  0  0  0  0  0  0  0  0
    0.2405   63.7515  113.7347 N   0  0  0  0  0  0  0  0  0  0  0  0
   -1.0499   63.2753  114.1569 C   0  0  0  0  0  0  0  0  0  0  0  0
   -1.4851   62.0797  113.3498 C   0  0  2  0  0  0  0  0  0  0  0  0
   -2.9291   61.7892  113.5236 C   0  0  0  0  0  0  0  0  0  0  0  0
   -2.4034   63.6236  112.0237 C   0  0  0  0  0  0  0  0  0  0  0  0
    6.6468   62.3911  109.7795 C   0  0  0  0  0  0  0  0  0  0  0  0
    6.0002   61.2615  110.2765 C   0  0  0  0  0  0  0  0  0  0  0  0
    4.8139   61.3668  110.9727 C   0  0  0  0  0  0  0  0  0  0  0  0
    4.2834   62.6215  111.1647 C   0  0  0  0  0  0  0  0  0  0  0  0
    4.9341   63.7454  110.6658 C   0  0  0  0  0  0  0  0  0  0  0  0
    6.1127   63.6418  109.9740 C   0  0  0  0  0  0  0  0  0  0  0  0
    3.1266   62.4321  111.8726 C   0  0  0  0  0  0  0  0  0  0  0  0
    2.9633   61.1054  112.1010 C   0  0  0  0  0  0  0  0  0  0  0  0
   -3.5337   63.0404  112.8635 C   0  0  0  0  0  0  0  0  0  0  0  0
   -0.1483   62.9000  111.5677 C   0  0  0  0  0  0  0  0  0  0  0  0
   -1.4702   62.5463  111.9514 N   0  0  1  0  0  4  0  0  0  0  0  0
    4.0106   60.4635  111.5406 N   0  0  0  0  0  0  0  0  0  0  0  0
   -1.7183   63.7775  115.0626 O   0  0  0  0  0  0  0  0  0  0  0  0
    8.2843   62.2690  108.8161 Br  0  0  0  0  0  0  0  0  0  0  0  0
    6.8677   65.1090  109.3790 Cl  0  0  0  0  0  0  0  0  0  0  0  0
  1  2  1  1
  1  3  1  0
  4  1  1  0
  1 20  1  0
  4  5  1  6
  6  4  1  0
  5 10  1  0
  6  7  1  6
  6  8  1  0
  6 22  1  0
 19  7  1  0
  8  9  1  0
  9 10  1  0
  9 25  2  0
 10 11  1  1
 10 23  1  0
 11 21  1  0
 12 21  1  0
 23 12  1  1
 14 13  2  0
 13 18  1  0
 13 26  1  0
 15 14  1  0
 16 15  2  0
 15 24  1  0
 16 17  1  0
 16 19  1  0
 17 18  2  0
 18 27  1  0
 19 20  2  0
 20 24  1  0
 22 23  1  0
M  CHG  1  23   1
M  END
$$$$
