
     RDKit          3D

 27 32  0  0  0  0  0  0  0  0999 V2000
    1.8179   62.3948  113.9185 C   0  0  1  0  0  0  0  0  0  0  0  0
    0.9634   63.6682  114.0161 C   0  0  0  0  0  0  0  0  0  0  0  0
    2.4480   62.1840  115.2404 C   0  0  0  0  0  0  0  0  0  0  0  0
    0.9326   61.3178  113.4175 C   0  0  2  0  0  0  0  0  0  0  0  0
   -0.1385   60.9326  114.4020 C   0  0  0  0  0  0  0  0  0  0  0  0
    1.6509   60.1022  112.9032 C   0  0  2  0  0  0  0  0  0  0  0  0
    2.7378   60.3438  111.9445 C   0  0  0  0  0  0  0  0  0  0  0  0
    0.6112   59.2943  112.2310 N   0  0  0  0  0  0  0  0  0  0  0  0
   -0.4234   58.9110  113.1341 C   0  0  0  0  0  0  0  0  0  0  0  0
   -0.1962   59.4544  114.5244 C   0  0  2  0  0  0  0  0  0  0  0  0
   -1.1216   58.8915  115.5277 C   0  0  0  0  0  0  0  0  0  0  0  0
    0.7379   57.4700  114.9400 C   0  0  0  0  0  0  0  0  0  0  0  0
    6.1674   63.7846  109.8945 C   0  0  0  0  0  0  0  0  0  0  0  0
    5.4150   64.2953  110.9502 C   0  0  0  0  0  0  0  0  0  0  0  0
    4.4645   63.5338  111.6104 C   0  0  0  0  0  0  0  0  0  0  0  0
    4.2985   62.2423  111.1710 C   0  0  0  0  0  0  0  0  0  0  0  0
    5.0360   61.7230  110.1271 C   0  0  0  0  0  0  0  0  0  0  0  0
    5.9796   62.4840  109.4742 C   0  0  0  0  0  0  0  0  0  0  0  0
    3.2958   61.7125  111.9984 C   0  0  0  0  0  0  0  0  0  0  0  0
    2.8815   62.6600  112.8988 C   0  0  0  0  0  0  0  0  0  0  0  0
   -0.4978   57.5305  115.8496 C   0  0  0  0  0  0  0  0  0  0  0  0
    2.1495   59.2056  114.0247 C   0  0  0  0  0  0  0  0  0  0  0  0
    1.0956   58.8962  114.9355 N   0  0  1  0  0  4  0  0  0  0  0  0
    3.6248   63.7688  112.6283 N   0  0  0  0  0  0  0  0  0  0  0  0
   -1.4106   58.2083  112.8305 O   0  0  0  0  0  0  0  0  0  0  0  0
    7.4614   64.8599  109.0143 Br  0  0  0  0  0  0  0  0  0  0  0  0
    6.9443   61.8791  108.1443 Cl  0  0  0  0  0  0  0  0  0  0  0  0
  2  1  1  1
  3  1  1  1
  4  1  1  0
  1 20  1  6
  4  5  1  1
  6  4  1  0
  5 10  1  6
  7  6  1  0
  6  8  1  6
  6 22  1  0
  7 19  1  6
  8  9  1  0
 10  9  1  6
  9 25  2  0
 11 10  1  1
 10 23  1  0
 21 11  1  1
 12 21  1  1
 23 12  1  6
 14 13  2  0
 13 18  1  0
 13 26  1  0
 15 14  1  0
 16 15  2  0
 15 24  1  0
 16 17  1  0
 16 19  1  0
 17 18  2  0
 18 27  1  0
 19 20  2  0
 20 24  1  0
 22 23  1  6
M  CHG  1  23   1
M  END
$$$$
