
     RDKit          3D

 27 32  0  0  0  0  0  0  0  0999 V2000
   24.5204   67.0361  143.5331 C   0  0  1  0  0  0  0  0  0  0  0  0
   24.2859   65.8050  144.4267 C   0  0  0  0  0  0  0  0  0  0  0  0
   24.9295   68.1303  144.5040 C   0  0  0  0  0  0  0  0  0  0  0  0
   25.5282   66.7196  142.5085 C   0  0  2  0  0  0  0  0  0  0  0  0
   26.9521   67.0826  142.9614 C   0  0  0  0  0  0  0  0  0  0  0  0
   25.3068   67.2740  141.1453 C   0  0  2  0  0  0  0  0  0  0  0  0
   23.9159   67.2514  140.6540 C   0  0  0  0  0  0  0  0  0  0  0  0
   26.1031   66.4370  140.2222 N   0  0  0  0  0  0  0  0  0  0  0  0
   27.4852   66.4114  140.6215 C   0  0  0  0  0  0  0  0  0  0  0  0
   27.7475   67.3696  141.7543 C   0  0  2  0  0  0  0  0  0  0  0  0
   29.1973   67.6147  141.9489 C   0  0  0  0  0  0  0  0  0  0  0  0
   28.1714   68.8123  140.1038 C   0  0  0  0  0  0  0  0  0  0  0  0
   18.9404   68.5483  141.8872 C   0  0  0  0  0  0  0  0  0  0  0  0
   19.7634   68.3091  142.9856 C   0  0  0  0  0  0  0  0  0  0  0  0
   21.0882   67.9606  142.8222 C   0  0  0  0  0  0  0  0  0  0  0  0
   21.5780   67.8549  141.5410 C   0  0  0  0  0  0  0  0  0  0  0  0
   20.7508   68.0952  140.4484 C   0  0  0  0  0  0  0  0  0  0  0  0
   19.4345   68.4414  140.6098 C   0  0  0  0  0  0  0  0  0  0  0  0
   22.8947   67.5030  141.6738 C   0  0  0  0  0  0  0  0  0  0  0  0
   23.1910   67.3994  142.9930 C   0  0  0  0  0  0  0  0  0  0  0  0
   29.5219   68.3475  140.6357 C   0  0  0  0  0  0  0  0  0  0  0  0
   25.9238   68.6697  140.9670 C   0  0  0  0  0  0  0  0  0  0  0  0
   27.3184   68.6832  141.2405 N   0  0  1  0  0  4  0  0  0  0  0  0
   22.0681   67.6842  143.6865 N   0  0  0  0  0  0  0  0  0  0  0  0
   28.3485   65.6984  140.1061 O   0  0  0  0  0  0  0  0  0  0  0  0
   17.1097   69.0303  142.0895 Br  0  0  0  0  0  0  0  0  0  0  0  0
   18.4610   68.7269  139.1789 Cl  0  0  0  0  0  0  0  0  0  0  0  0
  1  2  1  1
  1  3  1  0
  4  1  1  0
  1 20  1  0
  4  5  1  1
  6  4  1  0
  5 10  1  0
  6  7  1  6
  6  8  1  0
  6 22  1  0
 19  7  1  0
  8  9  1  0
  9 10  1  0
  9 25  2  0
 10 11  1  1
 10 23  1  0
 11 21  1  0
 12 21  1  0
 23 12  1  6
 14 13  2  0
 13 18  1  0
 13 26  1  0
 15 14  1  0
 16 15  2  0
 15 24  1  0
 16 17  1  0
 16 19  1  0
 17 18  2  0
 18 27  1  0
 19 20  2  0
 20 24  1  0
 22 23  1  0
M  CHG  1  23   1
M  END
$$$$
