
     RDKit          3D

 27 32  0  0  0  0  0  0  0  0999 V2000
   24.3752   66.8311  143.1549 C   0  0  1  0  0  0  0  0  0  0  0  0
   24.3792   65.3398  143.5254 C   0  0  0  0  0  0  0  0  0  0  0  0
   24.8603   67.5801  144.3350 C   0  0  0  0  0  0  0  0  0  0  0  0
   25.1583   66.9678  141.9047 C   0  0  2  0  0  0  0  0  0  0  0  0
   26.6212   66.6691  142.0927 C   0  0  0  0  0  0  0  0  0  0  0  0
   24.9653   68.2709  141.1817 C   0  0  2  0  0  0  0  0  0  0  0  0
   23.5758   68.6891  140.9507 C   0  0  0  0  0  0  0  0  0  0  0  0
   25.6175   68.0844  139.8682 N   0  0  0  0  0  0  0  0  0  0  0  0
   27.0074   67.7979  140.0064 C   0  0  0  0  0  0  0  0  0  0  0  0
   27.4345   67.7335  141.4532 C   0  0  2  0  0  0  0  0  0  0  0  0
   28.8993   67.6648  141.6249 C   0  0  0  0  0  0  0  0  0  0  0  0
   28.0245   69.8683  141.1746 C   0  0  0  0  0  0  0  0  0  0  0  0
   18.5015   68.1688  142.2869 C   0  0  0  0  0  0  0  0  0  0  0  0
   19.3758   67.4330  143.0842 C   0  0  0  0  0  0  0  0  0  0  0  0
   20.7458   67.4481  142.8795 C   0  0  0  0  0  0  0  0  0  0  0  0
   21.2039   68.2288  141.8455 C   0  0  0  0  0  0  0  0  0  0  0  0
   20.3505   68.9627  141.0478 C   0  0  0  0  0  0  0  0  0  0  0  0
   18.9895   68.9443  141.2554 C   0  0  0  0  0  0  0  0  0  0  0  0
   22.5975   68.0611  141.8651 C   0  0  0  0  0  0  0  0  0  0  0  0
   22.9530   67.2084  142.8783 C   0  0  0  0  0  0  0  0  0  0  0  0
   29.3368   69.1227  141.4567 C   0  0  0  0  0  0  0  0  0  0  0  0
   25.7412   69.4100  141.8224 C   0  0  0  0  0  0  0  0  0  0  0  0
   27.1130   69.0573  141.9953 N   0  0  1  0  0  4  0  0  0  0  0  0
   21.7847   66.8518  143.4807 N   0  0  0  0  0  0  0  0  0  0  0  0
   27.7963   67.6178  139.0547 O   0  0  0  0  0  0  0  0  0  0  0  0
   16.6292   68.1222  142.5990 Br  0  0  0  0  0  0  0  0  0  0  0  0
   17.8591   69.8544  140.2759 Cl  0  0  0  0  0  0  0  0  0  0  0  0
  2  1  1  1
  3  1  1  1
  4  1  1  0
  1 20  1  6
  4  5  1  1
  6  4  1  0
  5 10  1  6
  7  6  1  0
  6  8  1  6
  6 22  1  0
  7 19  1  6
  8  9  1  0
 10  9  1  6
  9 25  2  0
 11 10  1  1
 10 23  1  0
 21 11  1  1
 12 21  1  1
 23 12  1  6
 14 13  2  0
 13 18  1  0
 13 26  1  0
 15 14  1  0
 16 15  2  0
 15 24  1  0
 16 17  1  0
 16 19  1  0
 17 18  2  0
 18 27  1  0
 19 20  2  0
 20 24  1  0
 22 23  1  6
M  CHG  1  23   1
M  END
$$$$
