
     RDKit          3D

 27 32  0  0  0  0  0  0  0  0999 V2000
    5.0130   59.0857  114.5154 C   0  0  1  0  0  0  0  0  0  0  0  0
    6.4179   58.7147  115.0154 C   0  0  0  0  0  0  0  0  0  0  0  0
    4.3584   57.8354  114.0713 C   0  0  0  0  0  0  0  0  0  0  0  0
    4.3512   59.8390  115.6060 C   0  0  2  0  0  0  0  0  0  0  0  0
    4.0672   58.9914  116.8167 C   0  0  0  0  0  0  0  0  0  0  0  0
    3.1277   60.6048  115.1881 C   0  0  2  0  0  0  0  0  0  0  0  0
    3.2671   61.4600  114.0015 C   0  0  0  0  0  0  0  0  0  0  0  0
    2.7972   61.4658  116.3435 N   0  0  0  0  0  0  0  0  0  0  0  0
    2.5226   60.6963  117.5121 C   0  0  0  0  0  0  0  0  0  0  0  0
    2.6699   59.2139  117.2655 C   0  0  2  0  0  0  0  0  0  0  0  0
    2.1757   58.3862  118.3837 C   0  0  0  0  0  0  0  0  0  0  0  0
    0.4656   59.2477  116.9151 C   0  0  0  0  0  0  0  0  0  0  0  0
    6.0083   62.5929  109.6418 C   0  0  0  0  0  0  0  0  0  0  0  0
    6.4627   61.4633  110.3194 C   0  0  0  0  0  0  0  0  0  0  0  0
    5.8634   61.0156  111.4853 C   0  0  0  0  0  0  0  0  0  0  0  0
    4.7921   61.7439  111.9443 C   0  0  0  0  0  0  0  0  0  0  0  0
    4.3310   62.8642  111.2842 C   0  0  0  0  0  0  0  0  0  0  0  0
    4.9303   63.3051  110.1257 C   0  0  0  0  0  0  0  0  0  0  0  0
    4.3879   61.0811  113.1140 C   0  0  0  0  0  0  0  0  0  0  0  0
    5.1941   59.9953  113.3402 C   0  0  0  0  0  0  0  0  0  0  0  0
    0.6605   58.3737  118.1625 C   0  0  0  0  0  0  0  0  0  0  0  0
    1.9089   59.7101  115.0320 C   0  0  0  0  0  0  0  0  0  0  0  0
    1.7073   58.9164  116.2006 N   0  0  1  0  0  4  0  0  0  0  0  0
    6.0911   59.9881  112.3153 N   0  0  0  0  0  0  0  0  0  0  0  0
    2.1968   61.1734  118.6196 O   0  0  0  0  0  0  0  0  0  0  0  0
    6.8566   63.1755  108.0462 Br  0  0  0  0  0  0  0  0  0  0  0  0
    4.3892   64.7188  109.2460 Cl  0  0  0  0  0  0  0  0  0  0  0  0
  2  1  1  1
  3  1  1  1
  4  1  1  0
  1 20  1  6
  4  5  1  1
  6  4  1  0
  5 10  1  6
  7  6  1  0
  6  8  1  1
  6 22  1  0
  7 19  1  6
  8  9  1  0
 10  9  1  1
  9 25  2  0
 11 10  1  1
 10 23  1  0
 21 11  1  1
 12 21  1  1
 23 12  1  1
 14 13  2  0
 13 18  1  0
 13 26  1  0
 15 14  1  0
 16 15  2  0
 15 24  1  0
 16 17  1  0
 16 19  1  0
 17 18  2  0
 18 27  1  0
 19 20  2  0
 20 24  1  0
 22 23  1  6
M  CHG  1  23   1
M  END
$$$$
