
     RDKit          3D

 27 32  0  0  0  0  0  0  0  0999 V2000
    2.5755   59.4982  112.7850 C   0  0  1  0  0  0  0  0  0  0  0  0
    2.3227   58.3020  111.8544 C   0  0  0  0  0  0  0  0  0  0  0  0
    1.2746   60.1667  113.0076 C   0  0  0  0  0  0  0  0  0  0  0  0
    3.2745   58.9746  113.9817 C   0  0  2  0  0  0  0  0  0  0  0  0
    2.4094   58.0711  114.8184 C   0  0  0  0  0  0  0  0  0  0  0  0
    3.9359   60.0223  114.8319 C   0  0  2  0  0  0  0  0  0  0  0  0
    4.7968   60.9841  114.1298 C   0  0  0  0  0  0  0  0  0  0  0  0
    4.7696   59.2703  115.7935 N   0  0  0  0  0  0  0  0  0  0  0  0
    3.9830   58.4007  116.6048 C   0  0  0  0  0  0  0  0  0  0  0  0
    2.5172   58.4591  116.2472 C   0  0  2  0  0  0  0  0  0  0  0  0
    1.6543   57.7478  117.2112 C   0  0  0  0  0  0  0  0  0  0  0  0
    2.3685   59.9458  117.9057 C   0  0  0  0  0  0  0  0  0  0  0  0
    6.1408   63.2196  109.5472 C   0  0  0  0  0  0  0  0  0  0  0  0
    5.0542   62.3520  109.4572 C   0  0  0  0  0  0  0  0  0  0  0  0
    4.5614   61.6752  110.5610 C   0  0  0  0  0  0  0  0  0  0  0  0
    5.2002   61.9022  111.7564 C   0  0  0  0  0  0  0  0  0  0  0  0
    6.2771   62.7582  111.8608 C   0  0  0  0  0  0  0  0  0  0  0  0
    6.7630   63.4285  110.7607 C   0  0  0  0  0  0  0  0  0  0  0  0
    4.5093   61.1067  112.6841 C   0  0  0  0  0  0  0  0  0  0  0  0
    3.4941   60.4305  112.0579 C   0  0  0  0  0  0  0  0  0  0  0  0
    1.5166   58.7516  118.3594 C   0  0  0  0  0  0  0  0  0  0  0  0
    2.9435   60.7701  115.7073 C   0  0  0  0  0  0  0  0  0  0  0  0
    2.1388   59.8600  116.4558 N   0  0  1  0  0  4  0  0  0  0  0  0
    3.5582   60.8068  110.7505 N   0  0  0  0  0  0  0  0  0  0  0  0
    4.4344   57.6683  117.5105 O   0  0  0  0  0  0  0  0  0  0  0  0
    6.7873   64.1294  108.0111 Br  0  0  0  0  0  0  0  0  0  0  0  0
    8.1252   64.5260  110.8329 Cl  0  0  0  0  0  0  0  0  0  0  0  0
  2  1  1  1
  3  1  1  1
  4  1  1  0
  1 20  1  6
  4  5  1  1
  6  4  1  0
  5 10  1  6
  7  6  1  0
  6  8  1  1
  6 22  1  0
  7 19  1  6
  8  9  1  0
 10  9  1  1
  9 25  2  0
 11 10  1  1
 10 23  1  0
 21 11  1  1
 12 21  1  1
 23 12  1  1
 14 13  2  0
 13 18  1  0
 13 26  1  0
 15 14  1  0
 16 15  2  0
 15 24  1  0
 16 17  1  0
 16 19  1  0
 17 18  2  0
 18 27  1  0
 19 20  2  0
 20 24  1  0
 22 23  1  6
M  CHG  1  23   1
M  END
$$$$
