
     RDKit          3D

 27 32  0  0  0  0  0  0  0  0999 V2000
    4.2732   58.7465  114.0358 C   0  0  1  0  0  0  0  0  0  0  0  0
    4.4260   57.3928  113.3250 C   0  0  0  0  0  0  0  0  0  0  0  0
    2.8673   58.8531  114.4841 C   0  0  0  0  0  0  0  0  0  0  0  0
    5.3183   58.8044  115.0843 C   0  0  2  0  0  0  0  0  0  0  0  0
    5.0931   57.8120  116.1930 C   0  0  0  0  0  0  0  0  0  0  0  0
    5.5781   60.1772  115.6374 C   0  0  2  0  0  0  0  0  0  0  0  0
    5.7960   61.2464  114.6534 C   0  0  0  0  0  0  0  0  0  0  0  0
    6.8042   60.0402  116.4518 N   0  0  0  0  0  0  0  0  0  0  0  0
    6.6290   59.1052  117.5139 C   0  0  0  0  0  0  0  0  0  0  0  0
    5.2520   58.4857  117.5062 C   0  0  2  0  0  0  0  0  0  0  0  0
    4.9648   57.6908  118.7167 C   0  0  0  0  0  0  0  0  0  0  0  0
    4.7368   60.0783  118.9830 C   0  0  0  0  0  0  0  0  0  0  0  0
    5.2369   62.8760  109.6699 C   0  0  0  0  0  0  0  0  0  0  0  0
    4.6477   61.6407  109.9316 C   0  0  0  0  0  0  0  0  0  0  0  0
    4.6946   61.0558  111.1864 C   0  0  0  0  0  0  0  0  0  0  0  0
    5.3544   61.7572  112.1670 C   0  0  0  0  0  0  0  0  0  0  0  0
    5.9424   62.9811  111.9228 C   0  0  0  0  0  0  0  0  0  0  0  0
    5.8930   63.5582  110.6737 C   0  0  0  0  0  0  0  0  0  0  0  0
    5.2500   60.9504  113.3111 C   0  0  0  0  0  0  0  0  0  0  0  0
    4.5508   59.8081  113.0173 C   0  0  0  0  0  0  0  0  0  0  0  0
    4.5887   58.7564  119.7501 C   0  0  0  0  0  0  0  0  0  0  0  0
    4.5168   60.6106  116.6354 C   0  0  0  0  0  0  0  0  0  0  0  0
    4.3332   59.6197  117.6455 N   0  0  1  0  0  4  0  0  0  0  0  0
    4.2255   59.9095  111.6986 N   0  0  0  0  0  0  0  0  0  0  0  0
    7.5002   58.8180  118.3620 O   0  0  0  0  0  0  0  0  0  0  0  0
    5.1513   63.6455  107.9361 Br  0  0  0  0  0  0  0  0  0  0  0  0
    6.6204   65.1076  110.3054 Cl  0  0  0  0  0  0  0  0  0  0  0  0
  2  1  1  1
  3  1  1  1
  4  1  1  0
  1 20  1  6
  4  5  1  1
  6  4  1  0
  5 10  1  6
  7  6  1  0
  6  8  1  1
  6 22  1  0
  7 19  1  6
  8  9  1  0
 10  9  1  1
  9 25  2  0
 11 10  1  1
 10 23  1  0
 21 11  1  1
 12 21  1  1
 23 12  1  1
 14 13  2  0
 13 18  1  0
 13 26  1  0
 15 14  1  0
 16 15  2  0
 15 24  1  0
 16 17  1  0
 16 19  1  0
 17 18  2  0
 18 27  1  0
 19 20  2  0
 20 24  1  0
 22 23  1  6
M  CHG  1  23   1
M  END
$$$$
