
     RDKit          3D

 27 32  0  0  0  0  0  0  0  0999 V2000
    1.8872   61.1546  113.0302 C   0  0  1  0  0  0  0  0  0  0  0  0
    0.7083   60.6589  112.1737 C   0  0  0  0  0  0  0  0  0  0  0  0
    1.3399   62.3760  113.7484 C   0  0  0  0  0  0  0  0  0  0  0  0
    2.3413   60.0743  113.9203 C   0  0  2  0  0  0  0  0  0  0  0  0
    1.6459   60.1189  115.2910 C   0  0  0  0  0  0  0  0  0  0  0  0
    3.8081   59.9440  114.1352 C   0  0  2  0  0  0  0  0  0  0  0  0
    4.6582   60.1471  112.9468 C   0  0  0  0  0  0  0  0  0  0  0  0
    4.0386   58.5585  114.5978 N   0  0  0  0  0  0  0  0  0  0  0  0
    3.2525   58.2749  115.7691 C   0  0  0  0  0  0  0  0  0  0  0  0
    2.5577   59.5117  116.2769 C   0  0  2  0  0  0  0  0  0  0  0  0
    2.0329   59.3280  117.6519 C   0  0  0  0  0  0  0  0  0  0  0  0
    4.4168   59.7542  117.4894 C   0  0  0  0  0  0  0  0  0  0  0  0
    5.6351   63.4292  108.9179 C   0  0  0  0  0  0  0  0  0  0  0  0
    4.3331   63.4911  109.4098 C   0  0  0  0  0  0  0  0  0  0  0  0
    3.9286   62.6938  110.4603 C   0  0  0  0  0  0  0  0  0  0  0  0
    4.8480   61.8321  111.0124 C   0  0  0  0  0  0  0  0  0  0  0  0
    6.1466   61.7752  110.5165 C   0  0  0  0  0  0  0  0  0  0  0  0
    6.5494   62.5670  109.4728 C   0  0  0  0  0  0  0  0  0  0  0  0
    4.1874   61.1767  112.0170 C   0  0  0  0  0  0  0  0  0  0  0  0
    2.9097   61.6280  112.0703 C   0  0  0  0  0  0  0  0  0  0  0  0
    3.3555   59.1874  118.4250 C   0  0  0  0  0  0  0  0  0  0  0  0
    4.3107   60.7911  115.3144 C   0  0  0  0  0  0  0  0  0  0  0  0
    3.6449   60.4749  116.5296 N   0  0  1  0  0  4  0  0  0  0  0  0
    2.7667   62.5615  111.1055 N   0  0  0  0  0  0  0  0  0  0  0  0
    3.1561   57.1639  116.2940 O   0  0  0  0  0  0  0  0  0  0  0  0
    6.2147   64.5201  107.4692 Br  0  0  0  0  0  0  0  0  0  0  0  0
    8.2048   62.4327  108.9086 Cl  0  0  0  0  0  0  0  0  0  0  0  0
  1  2  1  6
  1  3  1  0
  4  1  1  0
  1 20  1  0
  4  5  1  1
  6  4  1  0
  5 10  1  0
  6  7  1  6
  6  8  1  0
  6 22  1  0
 19  7  1  0
  8  9  1  0
  9 10  1  0
  9 25  2  0
 10 11  1  1
 10 23  1  0
 11 21  1  0
 12 21  1  0
 23 12  1  1
 14 13  2  0
 13 18  1  0
 13 26  1  0
 15 14  1  0
 16 15  2  0
 15 24  1  0
 16 17  1  0
 16 19  1  0
 17 18  2  0
 18 27  1  0
 19 20  2  0
 20 24  1  0
 22 23  1  0
M  CHG  1  23   1
M  END
$$$$
