
     RDKit          3D

 27 32  0  0  0  0  0  0  0  0999 V2000
   23.1911   71.5751  141.9579 C   0  0  1  0  0  0  0  0  0  0  0  0
   22.8225   72.3219  143.2523 C   0  0  0  0  0  0  0  0  0  0  0  0
   22.7572   72.5158  140.8470 C   0  0  0  0  0  0  0  0  0  0  0  0
   24.6276   71.2556  141.9624 C   0  0  2  0  0  0  0  0  0  0  0  0
   25.4685   72.3478  141.2811 C   0  0  0  0  0  0  0  0  0  0  0  0
   25.0299   69.9328  141.4120 C   0  0  2  0  0  0  0  0  0  0  0  0
   24.1555   68.7949  141.7538 C   0  0  0  0  0  0  0  0  0  0  0  0
   26.3637   69.6359  141.9776 N   0  0  0  0  0  0  0  0  0  0  0  0
   27.2907   70.6954  141.6799 C   0  0  0  0  0  0  0  0  0  0  0  0
   26.6841   71.7095  140.7452 C   0  0  2  0  0  0  0  0  0  0  0  0
   27.7096   72.6060  140.1584 C   0  0  0  0  0  0  0  0  0  0  0  0
   27.5543   70.3989  139.1608 C   0  0  0  0  0  0  0  0  0  0  0  0
   19.1323   67.1443  141.7950 C   0  0  0  0  0  0  0  0  0  0  0  0
   19.2861   68.5265  141.8780 C   0  0  0  0  0  0  0  0  0  0  0  0
   20.5378   69.1064  141.8784 C   0  0  0  0  0  0  0  0  0  0  0  0
   21.6353   68.2812  141.7944 C   0  0  0  0  0  0  0  0  0  0  0  0
   21.4748   66.9017  141.7118 C   0  0  0  0  0  0  0  0  0  0  0  0
   20.2316   66.3246  141.7113 C   0  0  0  0  0  0  0  0  0  0  0  0
   22.7259   69.1090  141.8152 C   0  0  0  0  0  0  0  0  0  0  0  0
   22.3009   70.3934  141.9087 C   0  0  0  0  0  0  0  0  0  0  0  0
   28.4900   71.5935  139.3025 C   0  0  0  0  0  0  0  0  0  0  0  0
   25.2973   69.9780  139.8996 C   0  0  0  0  0  0  0  0  0  0  0  0
   26.2912   70.9335  139.5547 N   0  0  1  0  0  4  0  0  0  0  0  0
   20.9515   70.3745  141.9466 N   0  0  0  0  0  0  0  0  0  0  0  0
   28.4360   70.7688  142.1295 O   0  0  0  0  0  0  0  0  0  0  0  0
   17.4148   66.3228  141.7928 Br  0  0  0  0  0  0  0  0  0  0  0  0
   20.1181   64.5775  141.6041 Cl  0  0  0  0  0  0  0  0  0  0  0  0
  1  2  1  1
  1  3  1  0
  4  1  1  0
  1 20  1  0
  4  5  1  6
  6  4  1  0
  5 10  1  0
  6  7  1  6
  6  8  1  0
  6 22  1  0
 19  7  1  0
  8  9  1  0
  9 10  1  0
  9 25  2  0
 10 11  1  6
 10 23  1  0
 11 21  1  0
 12 21  1  0
 23 12  1  1
 14 13  2  0
 13 18  1  0
 13 26  1  0
 15 14  1  0
 16 15  2  0
 15 24  1  0
 16 17  1  0
 16 19  1  0
 17 18  2  0
 18 27  1  0
 19 20  2  0
 20 24  1  0
 22 23  1  0
M  CHG  1  23   1
M  END
$$$$
