
     RDKit          3D

 27 32  0  0  0  0  0  0  0  0999 V2000
    1.8631   61.1919  113.4097 C   0  0  1  0  0  0  0  0  0  0  0  0
    2.4206   61.2846  114.8414 C   0  0  0  0  0  0  0  0  0  0  0  0
    1.5376   59.7192  113.2298 C   0  0  0  0  0  0  0  0  0  0  0  0
    0.7097   62.0948  113.2679 C   0  0  2  0  0  0  0  0  0  0  0  0
   -0.6224   61.3886  113.5695 C   0  0  0  0  0  0  0  0  0  0  0  0
    0.5778   62.8295  111.9805 C   0  0  2  0  0  0  0  0  0  0  0  0
    1.8299   63.3507  111.3999 C   0  0  0  0  0  0  0  0  0  0  0  0
   -0.2879   63.9966  112.2552 N   0  0  0  0  0  0  0  0  0  0  0  0
   -1.5448   63.5776  112.8165 C   0  0  0  0  0  0  0  0  0  0  0  0
   -1.6783   62.0769  112.8056 C   0  0  2  0  0  0  0  0  0  0  0  0
   -3.0751   61.6426  113.0507 C   0  0  0  0  0  0  0  0  0  0  0  0
   -2.6010   62.4239  110.8023 C   0  0  0  0  0  0  0  0  0  0  0  0
    6.7647   62.0325  110.0334 C   0  0  0  0  0  0  0  0  0  0  0  0
    6.2205   61.2533  111.0521 C   0  0  0  0  0  0  0  0  0  0  0  0
    4.9411   61.4780  111.5163 C   0  0  0  0  0  0  0  0  0  0  0  0
    4.2129   62.4958  110.9450 C   0  0  0  0  0  0  0  0  0  0  0  0
    4.7623   63.2702  109.9280 C   0  0  0  0  0  0  0  0  0  0  0  0
    6.0334   63.0477  109.4662 C   0  0  0  0  0  0  0  0  0  0  0  0
    3.0030   62.4932  111.5861 C   0  0  0  0  0  0  0  0  0  0  0  0
    3.0000   61.5053  112.5151 C   0  0  0  0  0  0  0  0  0  0  0  0
   -3.7481   62.1781  111.7752 C   0  0  0  0  0  0  0  0  0  0  0  0
   -0.2227   62.0439  110.9304 C   0  0  0  0  0  0  0  0  0  0  0  0
   -1.5223   61.6973  111.3896 N   0  0  1  0  0  4  0  0  0  0  0  0
    4.2005   60.8899  112.4594 N   0  0  0  0  0  0  0  0  0  0  0  0
   -2.4059   64.3444  113.2520 O   0  0  0  0  0  0  0  0  0  0  0  0
    8.5280   61.7399  109.3775 Br  0  0  0  0  0  0  0  0  0  0  0  0
    6.6496   64.0701  108.1810 Cl  0  0  0  0  0  0  0  0  0  0  0  0
  1  2  1  1
  1  3  1  0
  4  1  1  0
  1 20  1  0
  4  5  1  6
  6  4  1  0
  5 10  1  0
  6  7  1  6
  6  8  1  0
  6 22  1  0
 19  7  1  0
  8  9  1  0
  9 10  1  0
  9 25  2  0
 10 11  1  1
 10 23  1  0
 11 21  1  0
 12 21  1  0
 23 12  1  6
 14 13  2  0
 13 18  1  0
 13 26  1  0
 15 14  1  0
 16 15  2  0
 15 24  1  0
 16 17  1  0
 16 19  1  0
 17 18  2  0
 18 27  1  0
 19 20  2  0
 20 24  1  0
 22 23  1  0
M  CHG  1  23   1
M  END
$$$$
