
     RDKit          3D

 27 32  0  0  0  0  0  0  0  0999 V2000
    2.6844   60.1595  113.7664 C   0  0  1  0  0  0  0  0  0  0  0  0
    1.5980   59.3369  113.0563 C   0  0  0  0  0  0  0  0  0  0  0  0
    1.9979   61.1736  114.5965 C   0  0  0  0  0  0  0  0  0  0  0  0
    3.5630   59.1976  114.4719 C   0  0  2  0  0  0  0  0  0  0  0  0
    2.8712   58.4960  115.6094 C   0  0  0  0  0  0  0  0  0  0  0  0
    4.8847   59.7602  114.9127 C   0  0  2  0  0  0  0  0  0  0  0  0
    5.6550   60.4894  113.8959 C   0  0  0  0  0  0  0  0  0  0  0  0
    5.6784   58.5900  115.3442 N   0  0  0  0  0  0  0  0  0  0  0  0
    5.0524   57.8979  116.4222 C   0  0  0  0  0  0  0  0  0  0  0  0
    3.7368   58.5261  116.8150 C   0  0  2  0  0  0  0  0  0  0  0  0
    3.1789   57.9744  118.0657 C   0  0  0  0  0  0  0  0  0  0  0  0
    4.9327   59.6056  118.3601 C   0  0  0  0  0  0  0  0  0  0  0  0
    5.6262   63.0063  109.2625 C   0  0  0  0  0  0  0  0  0  0  0  0
    4.3651   62.6010  109.6950 C   0  0  0  0  0  0  0  0  0  0  0  0
    4.1807   61.9258  110.8905 C   0  0  0  0  0  0  0  0  0  0  0  0
    5.3086   61.6734  111.6339 C   0  0  0  0  0  0  0  0  0  0  0  0
    6.5635   62.0685  111.2186 C   0  0  0  0  0  0  0  0  0  0  0  0
    6.7415   62.7394  110.0295 C   0  0  0  0  0  0  0  0  0  0  0  0
    4.8402   60.9928  112.7689 C   0  0  0  0  0  0  0  0  0  0  0  0
    3.4786   60.8470  112.6995 C   0  0  0  0  0  0  0  0  0  0  0  0
    3.9687   58.7103  119.1518 C   0  0  0  0  0  0  0  0  0  0  0  0
    4.7640   60.6093  116.1676 C   0  0  0  0  0  0  0  0  0  0  0  0
    4.0798   59.8988  117.1988 N   0  0  1  0  0  4  0  0  0  0  0  0
    3.1087   61.4346  111.5278 N   0  0  0  0  0  0  0  0  0  0  0  0
    5.5211   56.8881  116.9890 O   0  0  0  0  0  0  0  0  0  0  0  0
    5.8385   63.9300  107.6172 Br  0  0  0  0  0  0  0  0  0  0  0  0
    8.3085   63.2648  109.4519 Cl  0  0  0  0  0  0  0  0  0  0  0  0
  2  1  1  1
  3  1  1  1
  4  1  1  0
  1 20  1  6
  4  5  1  1
  6  4  1  0
  5 10  1  6
  7  6  1  0
  6  8  1  1
  6 22  1  0
  7 19  1  6
  8  9  1  0
 10  9  1  6
  9 25  2  0
 11 10  1  1
 10 23  1  0
 21 11  1  1
 12 21  1  1
 23 12  1  1
 14 13  2  0
 13 18  1  0
 13 26  1  0
 15 14  1  0
 16 15  2  0
 15 24  1  0
 16 17  1  0
 16 19  1  0
 17 18  2  0
 18 27  1  0
 19 20  2  0
 20 24  1  0
 22 23  1  6
M  CHG  1  23   1
M  END
$$$$
