
     RDKit          3D

 27 32  0  0  0  0  0  0  0  0999 V2000
    1.8522   60.3193  112.3586 C   0  0  1  0  0  0  0  0  0  0  0  0
    1.1893   59.4030  111.3146 C   0  0  0  0  0  0  0  0  0  0  0  0
    0.8063   61.3847  112.6387 C   0  0  0  0  0  0  0  0  0  0  0  0
    2.2474   59.5266  113.5336 C   0  0  2  0  0  0  0  0  0  0  0  0
    1.1522   59.5001  114.6126 C   0  0  0  0  0  0  0  0  0  0  0  0
    3.5432   59.8709  114.1795 C   0  0  2  0  0  0  0  0  0  0  0  0
    4.6557   60.1978  113.2675 C   0  0  0  0  0  0  0  0  0  0  0  0
    3.9539   58.6766  114.9489 N   0  0  0  0  0  0  0  0  0  0  0  0
    2.9257   58.2911  115.8787 C   0  0  0  0  0  0  0  0  0  0  0  0
    1.8112   59.3043  115.9163 C   0  0  2  0  0  0  0  0  0  0  0  0
    0.9280   59.1138  117.0925 C   0  0  0  0  0  0  0  0  0  0  0  0
    3.0396   60.2244  117.5379 C   0  0  0  0  0  0  0  0  0  0  0  0
    6.0335   63.1842  109.1273 C   0  0  0  0  0  0  0  0  0  0  0  0
    4.6721   62.8986  109.2051 C   0  0  0  0  0  0  0  0  0  0  0  0
    4.1617   62.1299  110.2305 C   0  0  0  0  0  0  0  0  0  0  0  0
    5.0355   61.6503  111.1787 C   0  0  0  0  0  0  0  0  0  0  0  0
    6.3938   61.9391  111.0953 C   0  0  0  0  0  0  0  0  0  0  0  0
    6.9018   62.7029  110.0768 C   0  0  0  0  0  0  0  0  0  0  0  0
    4.2713   60.9334  112.0603 C   0  0  0  0  0  0  0  0  0  0  0  0
    2.9771   60.9784  111.6577 C   0  0  0  0  0  0  0  0  0  0  0  0
    1.9114   59.4626  118.2230 C   0  0  0  0  0  0  0  0  0  0  0  0
    3.3952   60.9483  115.2648 C   0  0  0  0  0  0  0  0  0  0  0  0
    2.4704   60.5729  116.2766 N   0  0  1  0  0  4  0  0  0  0  0  0
    2.9267   61.7188  110.5298 N   0  0  0  0  0  0  0  0  0  0  0  0
    2.9487   57.2642  116.5599 O   0  0  0  0  0  0  0  0  0  0  0  0
    6.7593   64.2429  107.7212 Br  0  0  0  0  0  0  0  0  0  0  0  0
    8.6268   63.0197  110.0462 Cl  0  0  0  0  0  0  0  0  0  0  0  0
  1  2  1  6
  1  3  1  0
  4  1  1  0
  1 20  1  0
  4  5  1  1
  6  4  1  0
  5 10  1  0
  6  7  1  6
  6  8  1  0
  6 22  1  0
 19  7  1  0
  8  9  1  0
  9 10  1  0
  9 25  2  0
 10 11  1  1
 10 23  1  0
 11 21  1  0
 12 21  1  0
 23 12  1  1
 14 13  2  0
 13 18  1  0
 13 26  1  0
 15 14  1  0
 16 15  2  0
 15 24  1  0
 16 17  1  0
 16 19  1  0
 17 18  2  0
 18 27  1  0
 19 20  2  0
 20 24  1  0
 22 23  1  0
M  CHG  1  23   1
M  END
$$$$
