
     RDKit          3D

 27 32  0  0  0  0  0  0  0  0999 V2000
    3.5425   58.9420  113.5083 C   0  0  1  0  0  0  0  0  0  0  0  0
    3.3788   57.6968  112.6185 C   0  0  0  0  0  0  0  0  0  0  0  0
    2.1187   59.3913  113.7880 C   0  0  0  0  0  0  0  0  0  0  0  0
    4.3209   58.5946  114.7078 C   0  0  2  0  0  0  0  0  0  0  0  0
    3.4225   58.1751  115.8830 C   0  0  0  0  0  0  0  0  0  0  0  0
    5.3018   59.6022  115.1950 C   0  0  2  0  0  0  0  0  0  0  0  0
    6.0735   60.3110  114.1565 C   0  0  0  0  0  0  0  0  0  0  0  0
    6.2765   58.8643  116.0272 N   0  0  0  0  0  0  0  0  0  0  0  0
    5.6076   58.1479  117.0807 C   0  0  0  0  0  0  0  0  0  0  0  0
    4.1408   58.4885  117.1312 C   0  0  2  0  0  0  0  0  0  0  0  0
    3.5111   58.0421  118.3977 C   0  0  0  0  0  0  0  0  0  0  0  0
    4.8160   60.0836  118.5401 C   0  0  0  0  0  0  0  0  0  0  0  0
    5.6436   63.0464  109.6520 C   0  0  0  0  0  0  0  0  0  0  0  0
    4.6038   62.1483  109.8830 C   0  0  0  0  0  0  0  0  0  0  0  0
    4.5777   61.3635  111.0173 C   0  0  0  0  0  0  0  0  0  0  0  0
    5.6092   61.4911  111.9185 C   0  0  0  0  0  0  0  0  0  0  0  0
    6.6444   62.3899  111.6818 C   0  0  0  0  0  0  0  0  0  0  0  0
    6.6713   63.1700  110.5552 C   0  0  0  0  0  0  0  0  0  0  0  0
    5.3314   60.6101  112.9293 C   0  0  0  0  0  0  0  0  0  0  0  0
    4.1691   59.9706  112.6479 C   0  0  0  0  0  0  0  0  0  0  0  0
    4.2365   58.9625  119.3945 C   0  0  0  0  0  0  0  0  0  0  0  0
    4.6829   60.5984  116.1876 C   0  0  0  0  0  0  0  0  0  0  0  0
    4.1020   59.9512  117.3116 N   0  0  1  0  0  4  0  0  0  0  0  0
    3.7180   60.4459  111.4675 N   0  0  0  0  0  0  0  0  0  0  0  0
    6.1594   57.3556  117.8468 O   0  0  0  0  0  0  0  0  0  0  0  0
    5.6998   64.1389  108.0938 Br  0  0  0  0  0  0  0  0  0  0  0  0
    8.0134   64.2774  110.3338 Cl  0  0  0  0  0  0  0  0  0  0  0  0
  1  2  1  6
  1  3  1  0
  4  1  1  0
  1 20  1  0
  4  5  1  1
  6  4  1  0
  5 10  1  0
  6  7  1  6
  6  8  1  0
  6 22  1  0
 19  7  1  0
  8  9  1  0
  9 10  1  0
  9 25  2  0
 10 11  1  1
 10 23  1  0
 11 21  1  0
 12 21  1  0
 23 12  1  1
 14 13  2  0
 13 18  1  0
 13 26  1  0
 15 14  1  0
 16 15  2  0
 15 24  1  0
 16 17  1  0
 16 19  1  0
 17 18  2  0
 18 27  1  0
 19 20  2  0
 20 24  1  0
 22 23  1  0
M  CHG  1  23   1
M  END
$$$$
