
     RDKit          3D

 27 32  0  0  0  0  0  0  0  0999 V2000
    4.3661   58.7914  113.7854 C   0  0  1  0  0  0  0  0  0  0  0  0
    5.3712   57.6713  113.4626 C   0  0  0  0  0  0  0  0  0  0  0  0
    3.0279   58.2355  113.3301 C   0  0  0  0  0  0  0  0  0  0  0  0
    4.4356   59.1215  115.2178 C   0  0  2  0  0  0  0  0  0  0  0  0
    3.4275   58.3127  116.0508 C   0  0  0  0  0  0  0  0  0  0  0  0
    4.3160   60.5576  115.5894 C   0  0  2  0  0  0  0  0  0  0  0  0
    5.0168   61.5149  114.7126 C   0  0  0  0  0  0  0  0  0  0  0  0
    4.9139   60.6894  116.9356 N   0  0  0  0  0  0  0  0  0  0  0  0
    4.2783   59.7938  117.8652 C   0  0  0  0  0  0  0  0  0  0  0  0
    3.0886   59.1099  117.2432 C   0  0  2  0  0  0  0  0  0  0  0  0
    2.2269   58.4611  118.2612 C   0  0  0  0  0  0  0  0  0  0  0  0
    1.9719   60.8657  118.0527 C   0  0  0  0  0  0  0  0  0  0  0  0
    5.6915   62.9721  109.6748 C   0  0  0  0  0  0  0  0  0  0  0  0
    5.3352   61.6361  109.8462 C   0  0  0  0  0  0  0  0  0  0  0  0
    5.1246   61.1095  111.1037 C   0  0  0  0  0  0  0  0  0  0  0  0
    5.2760   61.9411  112.1891 C   0  0  0  0  0  0  0  0  0  0  0  0
    5.6319   63.2742  112.0111 C   0  0  0  0  0  0  0  0  0  0  0  0
    5.8414   63.7983  110.7621 C   0  0  0  0  0  0  0  0  0  0  0  0
    5.0113   61.1695  113.2890 C   0  0  0  0  0  0  0  0  0  0  0  0
    4.7095   59.9119  112.8812 C   0  0  0  0  0  0  0  0  0  0  0  0
    1.7113   59.7049  119.0053 C   0  0  0  0  0  0  0  0  0  0  0  0
    2.8591   60.9912  115.8135 C   0  0  0  0  0  0  0  0  0  0  0  0
    2.2095   60.2104  116.8075 N   0  0  1  0  0  4  0  0  0  0  0  0
    4.7838   59.8917  111.5332 N   0  0  0  0  0  0  0  0  0  0  0  0
    4.6550   59.6063  119.0238 O   0  0  0  0  0  0  0  0  0  0  0  0
    5.9870   63.7196  107.9489 Br  0  0  0  0  0  0  0  0  0  0  0  0
    6.2875   65.4892  110.6262 Cl  0  0  0  0  0  0  0  0  0  0  0  0
  1  2  1  1
  1  3  1  0
  4  1  1  0
  1 20  1  0
  4  5  1  1
  6  4  1  0
  5 10  1  0
  6  7  1  6
  6  8  1  0
  6 22  1  0
 19  7  1  0
  8  9  1  0
  9 10  1  0
  9 25  2  0
 10 11  1  1
 10 23  1  0
 11 21  1  0
 12 21  1  0
 23 12  1  1
 14 13  2  0
 13 18  1  0
 13 26  1  0
 15 14  1  0
 16 15  2  0
 15 24  1  0
 16 17  1  0
 16 19  1  0
 17 18  2  0
 18 27  1  0
 19 20  2  0
 20 24  1  0
 22 23  1  0
M  CHG  1  23   1
M  END
$$$$
