
     RDKit          3D

 27 32  0  0  0  0  0  0  0  0999 V2000
   24.2463   68.5720  143.6401 C   0  0  1  0  0  0  0  0  0  0  0  0
   24.1831   68.4893  145.1732 C   0  0  0  0  0  0  0  0  0  0  0  0
   24.7076   69.9335  143.2904 C   0  0  0  0  0  0  0  0  0  0  0  0
   25.0850   67.4405  143.1806 C   0  0  2  0  0  0  0  0  0  0  0  0
   26.5277   67.5760  143.5872 C   0  0  0  0  0  0  0  0  0  0  0  0
   24.9677   67.1255  141.7160 C   0  0  2  0  0  0  0  0  0  0  0  0
   23.6043   66.9860  141.1861 C   0  0  0  0  0  0  0  0  0  0  0  0
   25.6671   65.8349  141.5409 N   0  0  0  0  0  0  0  0  0  0  0  0
   27.0392   65.9243  141.9180 C   0  0  0  0  0  0  0  0  0  0  0  0
   27.4033   67.3008  142.4206 C   0  0  2  0  0  0  0  0  0  0  0  0
   28.8564   67.4882  142.6027 C   0  0  0  0  0  0  0  0  0  0  0  0
   28.0781   67.6774  140.3263 C   0  0  0  0  0  0  0  0  0  0  0  0
   18.4639   67.9602  141.8425 C   0  0  0  0  0  0  0  0  0  0  0  0
   19.2781   68.5325  142.8177 C   0  0  0  0  0  0  0  0  0  0  0  0
   20.6551   68.3819  142.8057 C   0  0  0  0  0  0  0  0  0  0  0  0
   21.1827   67.6360  141.7791 C   0  0  0  0  0  0  0  0  0  0  0  0
   20.3892   67.0633  140.8066 C   0  0  0  0  0  0  0  0  0  0  0  0
   19.0209   67.2160  140.8230 C   0  0  0  0  0  0  0  0  0  0  0  0
   22.5676   67.6470  142.0083 C   0  0  0  0  0  0  0  0  0  0  0  0
   22.8509   68.3760  143.1345 C   0  0  0  0  0  0  0  0  0  0  0  0
   29.3508   67.7675  141.1805 C   0  0  0  0  0  0  0  0  0  0  0  0
   25.7553   68.0945  140.8495 C   0  0  0  0  0  0  0  0  0  0  0  0
   27.1056   68.1971  141.2991 N   0  0  1  0  0  4  0  0  0  0  0  0
   21.6469   68.8126  143.5978 N   0  0  0  0  0  0  0  0  0  0  0  0
   27.8604   64.9855  141.8484 O   0  0  0  0  0  0  0  0  0  0  0  0
   16.5797   68.1892  141.8931 Br  0  0  0  0  0  0  0  0  0  0  0  0
   17.9646   66.5131  139.6166 Cl  0  0  0  0  0  0  0  0  0  0  0  0
  2  1  1  1
  3  1  1  1
  4  1  1  0
  1 20  1  6
  4  5  1  6
  6  4  1  0
  5 10  1  6
  7  6  1  0
  6  8  1  1
  6 22  1  0
  7 19  1  6
  8  9  1  0
 10  9  1  6
  9 25  2  0
 11 10  1  1
 10 23  1  0
 21 11  1  1
 12 21  1  1
 23 12  1  6
 14 13  2  0
 13 18  1  0
 13 26  1  0
 15 14  1  0
 16 15  2  0
 15 24  1  0
 16 17  1  0
 16 19  1  0
 17 18  2  0
 18 27  1  0
 19 20  2  0
 20 24  1  0
 22 23  1  6
M  CHG  1  23   1
M  END
$$$$
