
     RDKit          3D

 27 32  0  0  0  0  0  0  0  0999 V2000
    1.7116   60.9396  112.7389 C   0  0  1  0  0  0  0  0  0  0  0  0
    0.6616   60.3841  111.7642 C   0  0  0  0  0  0  0  0  0  0  0  0
    1.0720   62.0366  113.4981 C   0  0  0  0  0  0  0  0  0  0  0  0
    2.2244   59.7914  113.5222 C   0  0  2  0  0  0  0  0  0  0  0  0
    1.1899   59.1982  114.4402 C   0  0  0  0  0  0  0  0  0  0  0  0
    3.5071   60.0559  114.2589 C   0  0  2  0  0  0  0  0  0  0  0  0
    4.5969   60.6553  113.4766 C   0  0  0  0  0  0  0  0  0  0  0  0
    3.9562   58.7325  114.7408 N   0  0  0  0  0  0  0  0  0  0  0  0
    2.9991   58.1376  115.6142 C   0  0  0  0  0  0  0  0  0  0  0  0
    1.7740   59.0026  115.7907 C   0  0  2  0  0  0  0  0  0  0  0  0
    0.8728   58.5242  116.8579 C   0  0  0  0  0  0  0  0  0  0  0  0
    2.8034   59.7528  117.6239 C   0  0  0  0  0  0  0  0  0  0  0  0
    6.0152   63.3147  109.1499 C   0  0  0  0  0  0  0  0  0  0  0  0
    4.6381   63.1558  109.2914 C   0  0  0  0  0  0  0  0  0  0  0  0
    4.0832   62.4832  110.3678 C   0  0  0  0  0  0  0  0  0  0  0  0
    4.9620   61.9771  111.2953 C   0  0  0  0  0  0  0  0  0  0  0  0
    6.3276   62.1266  111.1686 C   0  0  0  0  0  0  0  0  0  0  0  0
    6.8742   62.7960  110.0967 C   0  0  0  0  0  0  0  0  0  0  0  0
    4.1463   61.3593  112.2564 C   0  0  0  0  0  0  0  0  0  0  0  0
    2.8269   61.4953  111.9090 C   0  0  0  0  0  0  0  0  0  0  0  0
    1.5432   59.0394  118.1346 C   0  0  0  0  0  0  0  0  0  0  0  0
    3.2902   60.8594  115.5307 C   0  0  0  0  0  0  0  0  0  0  0  0
    2.2835   60.2603  116.3456 N   0  0  1  0  0  4  0  0  0  0  0  0
    2.8285   62.1935  110.7396 N   0  0  0  0  0  0  0  0  0  0  0  0
    3.1385   57.0314  116.1775 O   0  0  0  0  0  0  0  0  0  0  0  0
    6.7380   64.2433  107.6598 Br  0  0  0  0  0  0  0  0  0  0  0  0
    8.5980   63.0165  109.8835 Cl  0  0  0  0  0  0  0  0  0  0  0  0
  2  1  1  1
  3  1  1  1
  4  1  1  0
  1 20  1  6
  4  5  1  1
  6  4  1  0
  5 10  1  6
  7  6  1  0
  6  8  1  1
  6 22  1  0
  7 19  1  6
  8  9  1  0
 10  9  1  6
  9 25  2  0
 11 10  1  1
 10 23  1  0
 21 11  1  1
 12 21  1  1
 23 12  1  1
 14 13  2  0
 13 18  1  0
 13 26  1  0
 15 14  1  0
 16 15  2  0
 15 24  1  0
 16 17  1  0
 16 19  1  0
 17 18  2  0
 18 27  1  0
 19 20  2  0
 20 24  1  0
 22 23  1  6
M  CHG  1  23   1
M  END
$$$$
