
     RDKit          3D

 27 32  0  0  0  0  0  0  0  0999 V2000
   23.3601   70.9503  141.6415 C   0  0  1  0  0  0  0  0  0  0  0  0
   23.0359   72.0266  142.6930 C   0  0  0  0  0  0  0  0  0  0  0  0
   23.2003   71.6667  140.3118 C   0  0  0  0  0  0  0  0  0  0  0  0
   24.7062   70.4085  141.8863 C   0  0  2  0  0  0  0  0  0  0  0  0
   25.7886   71.1595  141.0935 C   0  0  0  0  0  0  0  0  0  0  0  0
   24.8960   68.9465  141.6831 C   0  0  2  0  0  0  0  0  0  0  0  0
   23.7993   68.0786  142.1525 C   0  0  0  0  0  0  0  0  0  0  0  0
   26.1010   68.5730  142.4548 N   0  0  0  0  0  0  0  0  0  0  0  0
   27.2309   69.3672  142.0512 C   0  0  0  0  0  0  0  0  0  0  0  0
   26.9017   70.2232  140.8558 C   0  0  2  0  0  0  0  0  0  0  0  0
   28.1206   70.7782  140.2185 C   0  0  0  0  0  0  0  0  0  0  0  0
   27.6345   68.4567  139.7035 C   0  0  0  0  0  0  0  0  0  0  0  0
   18.5688   67.3329  141.9425 C   0  0  0  0  0  0  0  0  0  0  0  0
   18.9719   68.6521  141.7464 C   0  0  0  0  0  0  0  0  0  0  0  0
   20.3059   69.0020  141.7731 C   0  0  0  0  0  0  0  0  0  0  0  0
   21.2325   68.0106  141.9993 C   0  0  0  0  0  0  0  0  0  0  0  0
   20.8233   66.6952  142.1944 C   0  0  0  0  0  0  0  0  0  0  0  0
   19.4981   66.3466  142.1680 C   0  0  0  0  0  0  0  0  0  0  0  0
   22.4537   68.6294  141.9736 C   0  0  0  0  0  0  0  0  0  0  0  0
   22.2710   69.9526  141.7393 C   0  0  0  0  0  0  0  0  0  0  0  0
   28.7632   69.4808  139.6982 C   0  0  0  0  0  0  0  0  0  0  0  0
   25.2869   68.5958  140.2392 C   0  0  0  0  0  0  0  0  0  0  0  0
   26.4666   69.2685  139.8200 N   0  0  1  0  0  4  0  0  0  0  0  0
   20.9432   70.1655  141.6183 N   0  0  0  0  0  0  0  0  0  0  0  0
   28.3301   69.3530  142.6088 O   0  0  0  0  0  0  0  0  0  0  0  0
   16.7335   66.8277  141.9098 Br  0  0  0  0  0  0  0  0  0  0  0  0
   19.0680   64.6653  142.4232 Cl  0  0  0  0  0  0  0  0  0  0  0  0
  1  2  1  1
  1  3  1  0
  4  1  1  0
  1 20  1  0
  4  5  1  6
  6  4  1  0
  5 10  1  0
  6  7  1  1
  6  8  1  0
  6 22  1  0
 19  7  1  0
  8  9  1  0
  9 10  1  0
  9 25  2  0
 10 11  1  6
 10 23  1  0
 11 21  1  0
 12 21  1  0
 23 12  1  1
 14 13  2  0
 13 18  1  0
 13 26  1  0
 15 14  1  0
 16 15  2  0
 15 24  1  0
 16 17  1  0
 16 19  1  0
 17 18  2  0
 18 27  1  0
 19 20  2  0
 20 24  1  0
 22 23  1  0
M  CHG  1  23   1
M  END
$$$$
