
     RDKit          3D

 27 32  0  0  0  0  0  0  0  0999 V2000
    0.5997   62.7952  111.2908 C   0  0  1  0  0  0  0  0  0  0  0  0
   -0.1860   62.3459  110.0491 C   0  0  0  0  0  0  0  0  0  0  0  0
    0.1414   64.1597  111.6330 C   0  0  0  0  0  0  0  0  0  0  0  0
    0.4155   61.7471  112.3215 C   0  0  2  0  0  0  0  0  0  0  0  0
   -0.9994   61.6636  112.8275 C   0  0  0  0  0  0  0  0  0  0  0  0
    1.3907   61.8098  113.4629 C   0  0  2  0  0  0  0  0  0  0  0  0
    2.8113   61.9133  113.1021 C   0  0  0  0  0  0  0  0  0  0  0  0
    1.1931   60.5496  114.2100 N   0  0  0  0  0  0  0  0  0  0  0  0
   -0.1391   60.4343  114.7049 C   0  0  0  0  0  0  0  0  0  0  0  0
   -0.9971   61.6127  114.3110 C   0  0  2  0  0  0  0  0  0  0  0  0
   -2.3061   61.6334  114.9934 C   0  0  0  0  0  0  0  0  0  0  0  0
   -0.4516   62.4344  116.3136 C   0  0  0  0  0  0  0  0  0  0  0  0
    6.3787   63.1047  109.4063 C   0  0  0  0  0  0  0  0  0  0  0  0
    5.0621   63.3546  109.0245 C   0  0  0  0  0  0  0  0  0  0  0  0
    3.9924   63.1020  109.8677 C   0  0  0  0  0  0  0  0  0  0  0  0
    4.2943   62.5899  111.1068 C   0  0  0  0  0  0  0  0  0  0  0  0
    5.5927   62.3374  111.4987 C   0  0  0  0  0  0  0  0  0  0  0  0
    6.6525   62.5902  110.6568 C   0  0  0  0  0  0  0  0  0  0  0  0
    3.0504   62.4340  111.7386 C   0  0  0  0  0  0  0  0  0  0  0  0
    2.0444   62.8408  110.9004 C   0  0  0  0  0  0  0  0  0  0  0  0
   -1.9697   62.2112  116.3711 C   0  0  0  0  0  0  0  0  0  0  0  0
    1.0389   62.8951  114.4672 C   0  0  0  0  0  0  0  0  0  0  0  0
   -0.3189   62.7766  114.8897 N   0  0  1  0  0  4  0  0  0  0  0  0
    2.6643   63.2456  109.7573 N   0  0  0  0  0  0  0  0  0  0  0  0
   -0.5663   59.4784  115.3863 O   0  0  0  0  0  0  0  0  0  0  0  0
    7.8186   63.4641  108.2220 Br  0  0  0  0  0  0  0  0  0  0  0  0
    8.3196   62.2898  111.0994 Cl  0  0  0  0  0  0  0  0  0  0  0  0
  2  1  1  1
  3  1  1  1
  4  1  1  0
  1 20  1  6
  4  5  1  1
  6  4  1  0
  5 10  1  6
  7  6  1  0
  6  8  1  1
  6 22  1  0
  7 19  1  6
  8  9  1  0
 10  9  1  6
  9 25  2  0
 11 10  1  1
 10 23  1  0
 21 11  1  1
 12 21  1  1
 23 12  1  1
 14 13  2  0
 13 18  1  0
 13 26  1  0
 15 14  1  0
 16 15  2  0
 15 24  1  0
 16 17  1  0
 16 19  1  0
 17 18  2  0
 18 27  1  0
 19 20  2  0
 20 24  1  0
 22 23  1  6
M  CHG  1  23   1
M  END
$$$$
