
     RDKit          3D

 27 32  0  0  0  0  0  0  0  0999 V2000
    6.1927   58.9575  115.9619 C   0  0  1  0  0  0  0  0  0  0  0  0
    7.7189   59.1261  115.8557 C   0  0  0  0  0  0  0  0  0  0  0  0
    5.9729   57.4593  115.8421 C   0  0  0  0  0  0  0  0  0  0  0  0
    5.7158   59.5465  117.2233 C   0  0  2  0  0  0  0  0  0  0  0  0
    5.6625   58.5159  118.3631 C   0  0  0  0  0  0  0  0  0  0  0  0
    4.4208   60.2787  117.1831 C   0  0  2  0  0  0  0  0  0  0  0  0
    4.1894   61.1223  115.9952 C   0  0  0  0  0  0  0  0  0  0  0  0
    4.4155   61.1777  118.3573 N   0  0  0  0  0  0  0  0  0  0  0  0
    4.6242   60.4327  119.5704 C   0  0  0  0  0  0  0  0  0  0  0  0
    4.6202   58.9485  119.3110 C   0  0  2  0  0  0  0  0  0  0  0  0
    4.4871   58.1668  120.5644 C   0  0  0  0  0  0  0  0  0  0  0  0
    2.4320   59.1375  119.7128 C   0  0  0  0  0  0  0  0  0  0  0  0
    4.2595   61.1469  110.7082 C   0  0  0  0  0  0  0  0  0  0  0  0
    5.1129   60.2132  111.2921 C   0  0  0  0  0  0  0  0  0  0  0  0
    5.2037   60.0889  112.6630 C   0  0  0  0  0  0  0  0  0  0  0  0
    4.4266   60.9143  113.4423 C   0  0  0  0  0  0  0  0  0  0  0  0
    3.5764   61.8446  112.8528 C   0  0  0  0  0  0  0  0  0  0  0  0
    3.4855   61.9688  111.4909 C   0  0  0  0  0  0  0  0  0  0  0  0
    4.7129   60.5802  114.7390 C   0  0  0  0  0  0  0  0  0  0  0  0
    5.6337   59.5846  114.7431 C   0  0  0  0  0  0  0  0  0  0  0  0
    3.0616   58.5699  120.9794 C   0  0  0  0  0  0  0  0  0  0  0  0
    3.2151   59.3626  117.4427 C   0  0  0  0  0  0  0  0  0  0  0  0
    3.3119   58.6811  118.6862 N   0  0  1  0  0  4  0  0  0  0  0  0
    5.9252   59.2938  113.4573 N   0  0  0  0  0  0  0  0  0  0  0  0
    4.7862   60.9390  120.6824 O   0  0  0  0  0  0  0  0  0  0  0  0
    4.1183   61.3354  108.8189 Br  0  0  0  0  0  0  0  0  0  0  0  0
    2.3886   63.1672  110.8294 Cl  0  0  0  0  0  0  0  0  0  0  0  0
  1  2  1  6
  1  3  1  0
  4  1  1  0
  1 20  1  0
  4  5  1  1
  6  4  1  0
  5 10  1  0
  6  7  1  6
  6  8  1  0
  6 22  1  0
 19  7  1  0
  8  9  1  0
  9 10  1  0
  9 25  2  0
 10 11  1  1
 10 23  1  0
 11 21  1  0
 12 21  1  0
 23 12  1  1
 14 13  2  0
 13 18  1  0
 13 26  1  0
 15 14  1  0
 16 15  2  0
 15 24  1  0
 16 17  1  0
 16 19  1  0
 17 18  2  0
 18 27  1  0
 19 20  2  0
 20 24  1  0
 22 23  1  0
M  CHG  1  23   1
M  END
$$$$
