
     RDKit          3D

 27 32  0  0  0  0  0  0  0  0999 V2000
   22.7258   72.3250  141.1183 C   0  0  1  0  0  0  0  0  0  0  0  0
   21.8271   73.2059  142.0046 C   0  0  0  0  0  0  0  0  0  0  0  0
   22.3422   72.7082  139.6994 C   0  0  0  0  0  0  0  0  0  0  0  0
   24.1386   72.5622  141.4550 C   0  0  2  0  0  0  0  0  0  0  0  0
   24.7689   73.6584  140.5802 C   0  0  0  0  0  0  0  0  0  0  0  0
   25.0422   71.3797  141.4605 C   0  0  2  0  0  0  0  0  0  0  0  0
   24.4836   70.1393  142.0311 C   0  0  0  0  0  0  0  0  0  0  0  0
   26.2065   71.7507  142.2934 N   0  0  0  0  0  0  0  0  0  0  0  0
   26.8247   72.9521  141.7987 C   0  0  0  0  0  0  0  0  0  0  0  0
   26.2145   73.3855  140.4911 C   0  0  2  0  0  0  0  0  0  0  0  0
   27.0472   74.3995  139.7996 C   0  0  0  0  0  0  0  0  0  0  0  0
   27.8162   72.1055  139.6070 C   0  0  0  0  0  0  0  0  0  0  0  0
   20.3428   66.8559  141.8545 C   0  0  0  0  0  0  0  0  0  0  0  0
   20.0556   68.1672  141.4818 C   0  0  0  0  0  0  0  0  0  0  0  0
   21.0350   69.1387  141.4780 C   0  0  0  0  0  0  0  0  0  0  0  0
   22.3084   68.7779  141.8532 C   0  0  0  0  0  0  0  0  0  0  0  0
   22.5886   67.4666  142.2242 C   0  0  0  0  0  0  0  0  0  0  0  0
   21.6161   66.5007  142.2283 C   0  0  0  0  0  0  0  0  0  0  0  0
   23.0614   69.9176  141.7584 C   0  0  0  0  0  0  0  0  0  0  0  0
   22.2684   70.9347  141.3392 C   0  0  0  0  0  0  0  0  0  0  0  0
   28.2872   73.5489  139.4745 C   0  0  0  0  0  0  0  0  0  0  0  0
   25.6720   71.1102  140.0852 C   0  0  0  0  0  0  0  0  0  0  0  0
   26.3947   72.2305  139.5927 N   0  0  1  0  0  4  0  0  0  0  0  0
   21.0241   70.4385  141.1712 N   0  0  0  0  0  0  0  0  0  0  0  0
   27.7374   73.5539  142.3681 O   0  0  0  0  0  0  0  0  0  0  0  0
   19.0069   65.4994  141.8670 Br  0  0  0  0  0  0  0  0  0  0  0  0
   22.0541   64.8718  142.7097 Cl  0  0  0  0  0  0  0  0  0  0  0  0
  1  2  1  1
  1  3  1  0
  4  1  1  0
  1 20  1  0
  4  5  1  6
  6  4  1  0
  5 10  1  0
  6  7  1  1
  6  8  1  0
  6 22  1  0
 19  7  1  0
  8  9  1  0
  9 10  1  0
  9 25  2  0
 10 11  1  6
 10 23  1  0
 11 21  1  0
 12 21  1  0
 23 12  1  1
 14 13  2  0
 13 18  1  0
 13 26  1  0
 15 14  1  0
 16 15  2  0
 15 24  1  0
 16 17  1  0
 16 19  1  0
 17 18  2  0
 18 27  1  0
 19 20  2  0
 20 24  1  0
 22 23  1  0
M  CHG  1  23   1
M  END
$$$$
