
     RDKit          3D

 27 32  0  0  0  0  0  0  0  0999 V2000
   24.3691   66.8177  143.1392 C   0  0  1  0  0  0  0  0  0  0  0  0
   24.3727   65.3319  143.5310 C   0  0  0  0  0  0  0  0  0  0  0  0
   24.8538   67.5835  144.3086 C   0  0  0  0  0  0  0  0  0  0  0  0
   25.1526   66.9365  141.8875 C   0  0  2  0  0  0  0  0  0  0  0  0
   26.6155   66.6402  142.0804 C   0  0  0  0  0  0  0  0  0  0  0  0
   24.9602   68.2290  141.1458 C   0  0  2  0  0  0  0  0  0  0  0  0
   23.5708   68.6440  140.9082 C   0  0  0  0  0  0  0  0  0  0  0  0
   25.6128   68.0236  139.8353 N   0  0  0  0  0  0  0  0  0  0  0  0
   27.0026   67.7389  139.9782 C   0  0  0  0  0  0  0  0  0  0  0  0
   27.4292   67.6953  141.4259 C   0  0  2  0  0  0  0  0  0  0  0  0
   28.8939   67.6289  141.5992 C   0  0  0  0  0  0  0  0  0  0  0  0
   28.0196   69.8258  141.1169 C   0  0  0  0  0  0  0  0  0  0  0  0
   18.4959   68.1437  142.2497 C   0  0  0  0  0  0  0  0  0  0  0  0
   19.3697   67.4192  143.0578 C   0  0  0  0  0  0  0  0  0  0  0  0
   20.7398   67.4312  142.8535 C   0  0  0  0  0  0  0  0  0  0  0  0
   21.1985   68.1970  141.8085 C   0  0  0  0  0  0  0  0  0  0  0  0
   20.3455   68.9195  141.0000 C   0  0  0  0  0  0  0  0  0  0  0  0
   18.9844   68.9042  141.2074 C   0  0  0  0  0  0  0  0  0  0  0  0
   22.5921   68.0294  141.8311 C   0  0  0  0  0  0  0  0  0  0  0  0
   22.9471   67.1912  142.8566 C   0  0  0  0  0  0  0  0  0  0  0  0
   29.3317   69.0841  141.4103 C   0  0  0  0  0  0  0  0  0  0  0  0
   25.7360   69.3771  141.7703 C   0  0  0  0  0  0  0  0  0  0  0  0
   27.1077   69.0267  141.9488 N   0  0  1  0  0  4  0  0  0  0  0  0
   21.7785   66.8435  143.4636 N   0  0  0  0  0  0  0  0  0  0  0  0
   27.7919   67.5451  139.0295 O   0  0  0  0  0  0  0  0  0  0  0  0
   16.6235   68.1019  142.5616 Br  0  0  0  0  0  0  0  0  0  0  0  0
   17.8546   69.8003  140.2145 Cl  0  0  0  0  0  0  0  0  0  0  0  0
  2  1  1  1
  3  1  1  1
  4  1  1  0
  1 20  1  6
  4  5  1  1
  6  4  1  0
  5 10  1  6
  7  6  1  0
  6  8  1  6
  6 22  1  0
  7 19  1  6
  8  9  1  0
 10  9  1  6
  9 25  2  0
 11 10  1  1
 10 23  1  0
 21 11  1  1
 12 21  1  1
 23 12  1  6
 14 13  2  0
 13 18  1  0
 13 26  1  0
 15 14  1  0
 16 15  2  0
 15 24  1  0
 16 17  1  0
 16 19  1  0
 17 18  2  0
 18 27  1  0
 19 20  2  0
 20 24  1  0
 22 23  1  6
M  CHG  1  23   1
M  END
$$$$
