
     RDKit          3D

 19 19  0  0  0  0  0  0  0  0999 V2000
   20.8889    1.1294  -16.7939 C   0  0  0  0  0  0  0  0  0  0  0  0
   20.3983    0.0902  -17.5578 C   0  0  0  0  0  0  0  0  0  0  0  0
   20.9384    2.4020  -17.3305 C   0  0  0  0  0  0  0  0  0  0  0  0
   19.9970    1.5750  -19.4090 C   0  0  0  0  0  0  0  0  0  0  0  0
   20.9439   -2.2191  -17.5380 O   0  0  0  0  0  0  0  0  0  0  0  0
   20.3458   -1.2530  -16.9969 C   0  0  0  0  0  0  0  0  0  0  0  0
   19.5925   -1.4432  -15.8097 N   0  0  0  0  0  0  0  0  0  0  0  0
   19.1571   -2.7418  -15.3889 C   0  0  0  0  0  0  0  0  0  0  0  0
   19.0827   -2.8910  -13.8839 C   0  0  0  0  0  0  0  0  0  0  0  0
   18.5964   -4.3245  -13.6310 C   0  0  0  0  0  0  0  0  0  0  0  0
   18.3821   -4.5976  -12.1764 C   0  0  0  0  0  0  0  0  0  0  0  0
   19.9582    0.3034  -18.8448 C   0  0  0  0  0  0  0  0  0  0  0  0
   19.3523   -1.0687  -19.7416 Cl  0  0  0  0  0  0  0  0  0  0  0  0
   20.4989    2.6048  -18.6100 C   0  0  0  0  0  0  0  0  0  0  0  0
   20.5733    4.2334  -19.2663 Cl  0  0  0  0  0  0  0  0  0  0  0  0
   21.5569    3.7712  -16.3981 S   0  0  1  0  0  6  0  0  0  0  0  0
   22.7572    4.3643  -17.0749 O   0  0  0  0  0  0  0  0  0  0  0  0
   20.5084    4.8564  -16.3075 O   0  0  0  0  0  0  0  0  0  0  0  0
   22.0646    3.2489  -14.8328 N   0  0  0  0  0  0  0  0  0  0  0  0
  1  2  2  0
  1  3  1  0
  2  6  1  0
  2 12  1  0
  3 14  2  0
  3 16  1  0
 12  4  2  0
  4 14  1  0
  6  5  2  0
  6  7  1  0
  7  8  1  0
  8  9  1  0
  9 10  1  0
 10 11  1  0
 12 13  1  0
 14 15  1  0
 16 17  2  0
 16 18  2  0
 16 19  1  1
M  END
$$$$
