
     RDKit          3D

 19 19  0  0  0  0  0  0  0  0999 V2000
   20.4423    1.1589  -16.1200 C   0  0  0  0  0  0  0  0  0  0  0  0
   19.9273    0.0627  -16.7812 C   0  0  0  0  0  0  0  0  0  0  0  0
   20.6186    2.3450  -16.8070 C   0  0  0  0  0  0  0  0  0  0  0  0
   19.7548    1.3164  -18.8285 C   0  0  0  0  0  0  0  0  0  0  0  0
   19.7723   -1.2411  -14.8045 O   0  0  0  0  0  0  0  0  0  0  0  0
   19.7412   -1.1900  -16.0616 C   0  0  0  0  0  0  0  0  0  0  0  0
   19.5215   -2.3642  -16.8271 N   0  0  0  0  0  0  0  0  0  0  0  0
   19.2026   -3.6193  -16.2140 C   0  0  0  0  0  0  0  0  0  0  0  0
   17.8290   -4.1367  -16.5857 C   0  0  0  0  0  0  0  0  0  0  0  0
   17.6950   -5.4989  -15.8915 C   0  0  0  0  0  0  0  0  0  0  0  0
   16.4157   -6.1875  -16.2457 C   0  0  0  0  0  0  0  0  0  0  0  0
   19.5874    0.1342  -18.1135 C   0  0  0  0  0  0  0  0  0  0  0  0
   18.9420   -1.3014  -18.8728 Cl  0  0  0  0  0  0  0  0  0  0  0  0
   20.2781    2.4072  -18.1305 C   0  0  0  0  0  0  0  0  0  0  0  0
   20.5128    3.9283  -18.9788 Cl  0  0  0  0  0  0  0  0  0  0  0  0
   21.2741    3.7815  -16.0113 S   0  0  1  0  0  6  0  0  0  0  0  0
   22.4660    4.2967  -16.7625 O   0  0  0  0  0  0  0  0  0  0  0  0
   20.2409    4.8849  -15.9937 O   0  0  0  0  0  0  0  0  0  0  0  0
   21.8103    3.3906  -14.4174 N   0  0  0  0  0  0  0  0  0  0  0  0
  1  2  2  0
  1  3  1  0
  2  6  1  0
  2 12  1  0
  3 14  2  0
  3 16  1  0
 12  4  2  0
  4 14  1  0
  6  5  2  0
  6  7  1  0
  7  8  1  0
  8  9  1  0
  9 10  1  0
 10 11  1  0
 12 13  1  0
 14 15  1  0
 16 17  2  0
 16 18  2  0
 16 19  1  1
M  END
$$$$
