
     RDKit          3D

 19 19  0  0  0  0  0  0  0  0999 V2000
   20.5455    0.8301  -17.0221 C   0  0  0  0  0  0  0  0  0  0  0  0
   19.5724    0.2060  -17.7757 C   0  0  0  0  0  0  0  0  0  0  0  0
   20.5101    2.2032  -16.8705 C   0  0  0  0  0  0  0  0  0  0  0  0
   18.5099    2.3149  -18.2406 C   0  0  0  0  0  0  0  0  0  0  0  0
   18.9171   -1.8235  -18.8164 O   0  0  0  0  0  0  0  0  0  0  0  0
   19.6067   -1.2410  -17.9395 C   0  0  0  0  0  0  0  0  0  0  0  0
   20.4492   -1.9834  -17.0722 N   0  0  0  0  0  0  0  0  0  0  0  0
   20.6134   -3.4004  -17.2057 C   0  0  0  0  0  0  0  0  0  0  0  0
   21.5818   -3.7915  -18.3019 C   0  0  0  0  0  0  0  0  0  0  0  0
   22.4849   -4.8731  -17.6937 C   0  0  0  0  0  0  0  0  0  0  0  0
   22.7577   -5.9848  -18.6560 C   0  0  0  0  0  0  0  0  0  0  0  0
   18.5687    0.9312  -18.3774 C   0  0  0  0  0  0  0  0  0  0  0  0
   17.3772    0.0609  -19.3138 Cl  0  0  0  0  0  0  0  0  0  0  0  0
   19.5092    2.9160  -17.4719 C   0  0  0  0  0  0  0  0  0  0  0  0
   19.4890    4.6607  -17.2618 Cl  0  0  0  0  0  0  0  0  0  0  0  0
   21.7302    3.0562  -15.9164 S   0  0  1  0  0  6  0  0  0  0  0  0
   22.6640    3.8100  -16.8166 O   0  0  0  0  0  0  0  0  0  0  0  0
   21.0684    4.0657  -15.0064 O   0  0  0  0  0  0  0  0  0  0  0  0
   22.6867    1.9299  -15.0235 N   0  0  0  0  0  0  0  0  0  0  0  0
  1  2  2  0
  1  3  1  0
  2  6  1  0
  2 12  1  0
  3 14  2  0
  3 16  1  0
 12  4  2  0
  4 14  1  0
  6  5  2  0
  6  7  1  0
  7  8  1  0
  8  9  1  0
  9 10  1  0
 10 11  1  0
 12 13  1  0
 14 15  1  0
 16 17  2  0
 16 18  2  0
 16 19  1  1
M  END
$$$$
