
     RDKit          3D

 19 19  0  0  0  0  0  0  0  0999 V2000
   20.7679    0.8867  -16.5823 C   0  0  0  0  0  0  0  0  0  0  0  0
   20.1792   -0.1192  -17.3210 C   0  0  0  0  0  0  0  0  0  0  0  0
   20.9265    2.1387  -17.1453 C   0  0  0  0  0  0  0  0  0  0  0  0
   19.8961    1.3585  -19.1996 C   0  0  0  0  0  0  0  0  0  0  0  0
   20.5626   -2.4591  -17.2255 O   0  0  0  0  0  0  0  0  0  0  0  0
   20.0115   -1.4409  -16.7322 C   0  0  0  0  0  0  0  0  0  0  0  0
   19.1996   -1.5487  -15.5736 N   0  0  0  0  0  0  0  0  0  0  0  0
   19.0361   -2.7896  -14.8762 C   0  0  0  0  0  0  0  0  0  0  0  0
   19.5425   -2.7473  -13.4499 C   0  0  0  0  0  0  0  0  0  0  0  0
   18.6124   -1.7793  -12.7061 C   0  0  0  0  0  0  0  0  0  0  0  0
   19.1548   -1.3954  -11.3664 C   0  0  0  0  0  0  0  0  0  0  0  0
   19.7485    0.1070  -18.6090 C   0  0  0  0  0  0  0  0  0  0  0  0
   19.0139   -1.2227  -19.4730 Cl  0  0  0  0  0  0  0  0  0  0  0  0
   20.4956    2.3547  -18.4256 C   0  0  0  0  0  0  0  0  0  0  0  0
   20.7099    3.9566  -19.1159 Cl  0  0  0  0  0  0  0  0  0  0  0  0
   21.6737    3.4651  -16.2459 S   0  0  1  0  0  6  0  0  0  0  0  0
   22.8743    3.9835  -16.9810 O   0  0  0  0  0  0  0  0  0  0  0  0
   20.7004    4.6132  -16.1056 O   0  0  0  0  0  0  0  0  0  0  0  0
   22.2235    2.9093  -14.7065 N   0  0  0  0  0  0  0  0  0  0  0  0
  1  2  2  0
  1  3  1  0
  2  6  1  0
  2 12  1  0
  3 14  2  0
  3 16  1  0
 12  4  2  0
  4 14  1  0
  6  5  2  0
  6  7  1  0
  7  8  1  0
  8  9  1  0
  9 10  1  0
 10 11  1  0
 12 13  1  0
 14 15  1  0
 16 17  2  0
 16 18  2  0
 16 19  1  1
M  END
$$$$
