
     RDKit          3D

 19 19  0  0  0  0  0  0  0  0999 V2000
   20.5574    1.2245  -16.1768 C   0  0  0  0  0  0  0  0  0  0  0  0
   19.9597    0.1202  -16.7489 C   0  0  0  0  0  0  0  0  0  0  0  0
   20.7364    2.3675  -16.9327 C   0  0  0  0  0  0  0  0  0  0  0  0
   19.7082    1.2795  -18.8430 C   0  0  0  0  0  0  0  0  0  0  0  0
   19.6786   -1.0470  -14.7020 O   0  0  0  0  0  0  0  0  0  0  0  0
   19.7704   -1.0873  -15.9565 C   0  0  0  0  0  0  0  0  0  0  0  0
   19.6916   -2.3241  -16.6473 N   0  0  0  0  0  0  0  0  0  0  0  0
   19.4449   -3.5589  -15.9638 C   0  0  0  0  0  0  0  0  0  0  0  0
   19.0916   -4.6996  -16.8947 C   0  0  0  0  0  0  0  0  0  0  0  0
   18.9106   -5.9302  -15.9956 C   0  0  0  0  0  0  0  0  0  0  0  0
   20.1621   -6.7427  -15.8952 C   0  0  0  0  0  0  0  0  0  0  0  0
   19.5400    0.1414  -18.0600 C   0  0  0  0  0  0  0  0  0  0  0  0
   18.7928   -1.3009  -18.7047 Cl  0  0  0  0  0  0  0  0  0  0  0  0
   20.3163    2.3799  -18.2345 C   0  0  0  0  0  0  0  0  0  0  0  0
   20.5565    3.8469  -19.1718 Cl  0  0  0  0  0  0  0  0  0  0  0  0
   21.4960    3.8120  -16.2523 S   0  0  1  0  0  6  0  0  0  0  0  0
   22.6637    4.2339  -17.0943 O   0  0  0  0  0  0  0  0  0  0  0  0
   20.5128    4.9602  -16.2374 O   0  0  0  0  0  0  0  0  0  0  0  0
   22.1054    3.4796  -14.6715 N   0  0  0  0  0  0  0  0  0  0  0  0
  1  2  2  0
  1  3  1  0
  2  6  1  0
  2 12  1  0
  3 14  2  0
  3 16  1  0
 12  4  2  0
  4 14  1  0
  6  5  2  0
  6  7  1  0
  7  8  1  0
  8  9  1  0
  9 10  1  0
 10 11  1  0
 12 13  1  0
 14 15  1  0
 16 17  2  0
 16 18  2  0
 16 19  1  1
M  END
$$$$
