
     RDKit          3D

 19 19  0  0  0  0  0  0  0  0999 V2000
   20.3805    1.1537  -16.3220 C   0  0  0  0  0  0  0  0  0  0  0  0
   19.7006    0.1526  -16.9851 C   0  0  0  0  0  0  0  0  0  0  0  0
   20.7541    2.2920  -17.0109 C   0  0  0  0  0  0  0  0  0  0  0  0
   19.7546    1.4077  -19.0380 C   0  0  0  0  0  0  0  0  0  0  0  0
   18.8148   -0.9946  -15.1061 O   0  0  0  0  0  0  0  0  0  0  0  0
   19.3062   -1.0496  -16.2634 C   0  0  0  0  0  0  0  0  0  0  0  0
   19.4940   -2.2986  -16.9099 N   0  0  0  0  0  0  0  0  0  0  0  0
   19.1082   -3.5345  -16.2963 C   0  0  0  0  0  0  0  0  0  0  0  0
   20.1876   -4.5950  -16.3530 C   0  0  0  0  0  0  0  0  0  0  0  0
   20.6954   -4.7498  -14.9130 C   0  0  0  0  0  0  0  0  0  0  0  0
   21.7474   -5.8064  -14.7979 C   0  0  0  0  0  0  0  0  0  0  0  0
   19.3900    0.2720  -18.3210 C   0  0  0  0  0  0  0  0  0  0  0  0
   18.5272   -1.0432  -19.0825 Cl  0  0  0  0  0  0  0  0  0  0  0  0
   20.4414    2.4023  -18.3381 C   0  0  0  0  0  0  0  0  0  0  0  0
   20.9288    3.8608  -19.1887 Cl  0  0  0  0  0  0  0  0  0  0  0  0
   21.6267    3.6067  -16.2128 S   0  0  1  0  0  6  0  0  0  0  0  0
   22.8523    3.9719  -16.9972 O   0  0  0  0  0  0  0  0  0  0  0  0
   20.7558    4.8400  -16.1372 O   0  0  0  0  0  0  0  0  0  0  0  0
   22.1573    3.1090  -14.6471 N   0  0  0  0  0  0  0  0  0  0  0  0
  1  2  2  0
  1  3  1  0
  2  6  1  0
  2 12  1  0
  3 14  2  0
  3 16  1  0
 12  4  2  0
  4 14  1  0
  6  5  2  0
  6  7  1  0
  7  8  1  0
  8  9  1  0
  9 10  1  0
 10 11  1  0
 12 13  1  0
 14 15  1  0
 16 17  2  0
 16 18  2  0
 16 19  1  1
M  END
$$$$
