
     RDKit          3D

 19 19  0  0  0  0  0  0  0  0999 V2000
   20.4541    0.9308  -16.2896 C   0  0  0  0  0  0  0  0  0  0  0  0
   19.8365   -0.0663  -17.0165 C   0  0  0  0  0  0  0  0  0  0  0  0
   20.7094    2.1494  -16.8892 C   0  0  0  0  0  0  0  0  0  0  0  0
   19.7172    1.3536  -18.9563 C   0  0  0  0  0  0  0  0  0  0  0  0
   18.6588   -1.4914  -15.5288 O   0  0  0  0  0  0  0  0  0  0  0  0
   19.5668   -1.3529  -16.3891 C   0  0  0  0  0  0  0  0  0  0  0  0
   20.3664   -2.4579  -16.7800 N   0  0  0  0  0  0  0  0  0  0  0  0
   20.0363   -3.8012  -16.4066 C   0  0  0  0  0  0  0  0  0  0  0  0
   20.9792   -4.8341  -16.9869 C   0  0  0  0  0  0  0  0  0  0  0  0
   20.2943   -6.1906  -16.7723 C   0  0  0  0  0  0  0  0  0  0  0  0
   19.7142   -6.7346  -18.0388 C   0  0  0  0  0  0  0  0  0  0  0  0
   19.4718    0.1359  -18.3286 C   0  0  0  0  0  0  0  0  0  0  0  0
   18.6944   -1.1804  -19.1754 Cl  0  0  0  0  0  0  0  0  0  0  0  0
   20.3436    2.3417  -18.1933 C   0  0  0  0  0  0  0  0  0  0  0  0
   20.6804    3.9013  -18.9300 Cl  0  0  0  0  0  0  0  0  0  0  0  0
   21.4978    3.4630  -16.0064 S   0  0  1  0  0  6  0  0  0  0  0  0
   22.6829    3.9703  -16.7736 O   0  0  0  0  0  0  0  0  0  0  0  0
   20.5427    4.6220  -15.8339 O   0  0  0  0  0  0  0  0  0  0  0  0
   22.0847    2.8943  -14.4856 N   0  0  0  0  0  0  0  0  0  0  0  0
  1  2  2  0
  1  3  1  0
  2  6  1  0
  2 12  1  0
  3 14  2  0
  3 16  1  0
 12  4  2  0
  4 14  1  0
  6  5  2  0
  6  7  1  0
  7  8  1  0
  8  9  1  0
  9 10  1  0
 10 11  1  0
 12 13  1  0
 14 15  1  0
 16 17  2  0
 16 18  2  0
 16 19  1  1
M  END
$$$$
