
     RDKit          3D

 19 19  0  0  0  0  0  0  0  0999 V2000
   20.3360    1.1961  -16.4299 C   0  0  0  0  0  0  0  0  0  0  0  0
   19.7445    0.1877  -17.1630 C   0  0  0  0  0  0  0  0  0  0  0  0
   20.6220    2.4019  -17.0416 C   0  0  0  0  0  0  0  0  0  0  0  0
   19.7133    1.5704  -19.1328 C   0  0  0  0  0  0  0  0  0  0  0  0
   18.3695   -1.7020  -16.7511 O   0  0  0  0  0  0  0  0  0  0  0  0
   19.4426   -1.0854  -16.5229 C   0  0  0  0  0  0  0  0  0  0  0  0
   20.4039   -1.6165  -15.6246 N   0  0  0  0  0  0  0  0  0  0  0  0
   20.1434   -2.7882  -14.8423 C   0  0  0  0  0  0  0  0  0  0  0  0
   19.0693   -2.5836  -13.7949 C   0  0  0  0  0  0  0  0  0  0  0  0
   19.7791   -1.9561  -12.5875 C   0  0  0  0  0  0  0  0  0  0  0  0
   18.8186   -1.5705  -11.5080 C   0  0  0  0  0  0  0  0  0  0  0  0
   19.4360    0.3661  -18.4928 C   0  0  0  0  0  0  0  0  0  0  0  0
   18.6883   -0.9632  -19.3461 Cl  0  0  0  0  0  0  0  0  0  0  0  0
   20.3120    2.5705  -18.3633 C   0  0  0  0  0  0  0  0  0  0  0  0
   20.6869    4.1142  -19.1148 Cl  0  0  0  0  0  0  0  0  0  0  0  0
   21.3791    3.7292  -16.1517 S   0  0  1  0  0  6  0  0  0  0  0  0
   22.5711    4.2474  -16.9010 O   0  0  0  0  0  0  0  0  0  0  0  0
   20.4073    4.8772  -16.0012 O   0  0  0  0  0  0  0  0  0  0  0  0
   21.9468    3.1747  -14.6184 N   0  0  0  0  0  0  0  0  0  0  0  0
  1  2  2  0
  1  3  1  0
  2  6  1  0
  2 12  1  0
  3 14  2  0
  3 16  1  0
 12  4  2  0
  4 14  1  0
  6  5  2  0
  6  7  1  0
  7  8  1  0
  8  9  1  0
  9 10  1  0
 10 11  1  0
 12 13  1  0
 14 15  1  0
 16 17  2  0
 16 18  2  0
 16 19  1  1
M  END
$$$$
