
     RDKit          3D

 19 19  0  0  0  0  0  0  0  0999 V2000
   20.1093    1.0222  -16.4208 C   0  0  0  0  0  0  0  0  0  0  0  0
   19.6278   -0.0204  -17.1858 C   0  0  0  0  0  0  0  0  0  0  0  0
   20.2999    2.2605  -17.0040 C   0  0  0  0  0  0  0  0  0  0  0  0
   19.5182    1.3923  -19.1313 C   0  0  0  0  0  0  0  0  0  0  0  0
   18.4941   -1.5391  -15.7576 O   0  0  0  0  0  0  0  0  0  0  0  0
   19.4268   -1.3278  -16.5758 C   0  0  0  0  0  0  0  0  0  0  0  0
   20.3227   -2.3679  -16.9344 N   0  0  0  0  0  0  0  0  0  0  0  0
   20.1992   -3.6915  -16.4000 C   0  0  0  0  0  0  0  0  0  0  0  0
   20.2111   -4.7707  -17.4620 C   0  0  0  0  0  0  0  0  0  0  0  0
   18.7421   -4.9921  -17.8473 C   0  0  0  0  0  0  0  0  0  0  0  0
   18.5881   -6.0492  -18.8938 C   0  0  0  0  0  0  0  0  0  0  0  0
   19.3354    0.1557  -18.5196 C   0  0  0  0  0  0  0  0  0  0  0  0
   18.7300   -1.2181  -19.4142 Cl  0  0  0  0  0  0  0  0  0  0  0  0
   20.0068    2.4266  -18.3299 C   0  0  0  0  0  0  0  0  0  0  0  0
   20.2588    4.0121  -19.0448 Cl  0  0  0  0  0  0  0  0  0  0  0  0
   20.9141    3.6324  -16.0727 S   0  0  1  0  0  6  0  0  0  0  0  0
   22.1315    4.2088  -16.7330 O   0  0  0  0  0  0  0  0  0  0  0  0
   19.8739    4.7275  -16.0102 O   0  0  0  0  0  0  0  0  0  0  0  0
   21.3892    3.1194  -14.4941 N   0  0  0  0  0  0  0  0  0  0  0  0
  1  2  2  0
  1  3  1  0
  2  6  1  0
  2 12  1  0
  3 14  2  0
  3 16  1  0
 12  4  2  0
  4 14  1  0
  6  5  2  0
  6  7  1  0
  7  8  1  0
  8  9  1  0
  9 10  1  0
 10 11  1  0
 12 13  1  0
 14 15  1  0
 16 17  2  0
 16 18  2  0
 16 19  1  1
M  END
$$$$
