
     RDKit          3D

 19 19  0  0  0  0  0  0  0  0999 V2000
   20.7928    1.1890  -16.4924 C   0  0  0  0  0  0  0  0  0  0  0  0
   20.2321    0.1813  -17.2503 C   0  0  0  0  0  0  0  0  0  0  0  0
   20.8819    2.4641  -17.0177 C   0  0  0  0  0  0  0  0  0  0  0  0
   19.8388    1.7033  -19.0728 C   0  0  0  0  0  0  0  0  0  0  0  0
   19.8786   -1.3663  -15.4863 O   0  0  0  0  0  0  0  0  0  0  0  0
   20.1375   -1.1646  -16.7013 C   0  0  0  0  0  0  0  0  0  0  0  0
   20.3481   -2.2540  -17.5856 N   0  0  0  0  0  0  0  0  0  0  0  0
   20.2723   -3.6145  -17.1426 C   0  0  0  0  0  0  0  0  0  0  0  0
   20.4016   -4.6197  -18.2675 C   0  0  0  0  0  0  0  0  0  0  0  0
   20.4044   -5.9993  -17.5952 C   0  0  0  0  0  0  0  0  0  0  0  0
   21.6783   -6.7429  -17.8417 C   0  0  0  0  0  0  0  0  0  0  0  0
   19.7612    0.4283  -18.5202 C   0  0  0  0  0  0  0  0  0  0  0  0
   19.0663   -0.9053  -19.4104 Cl  0  0  0  0  0  0  0  0  0  0  0  0
   20.4115    2.7007  -18.2803 C   0  0  0  0  0  0  0  0  0  0  0  0
   20.5377    4.3316  -18.9225 Cl  0  0  0  0  0  0  0  0  0  0  0  0
   21.5905    3.7939  -16.0924 S   0  0  1  0  0  6  0  0  0  0  0  0
   22.7496    4.3885  -16.8363 O   0  0  0  0  0  0  0  0  0  0  0  0
   20.5709    4.8922  -15.8939 O   0  0  0  0  0  0  0  0  0  0  0  0
   22.1999    3.2154  -14.5841 N   0  0  0  0  0  0  0  0  0  0  0  0
  1  2  2  0
  1  3  1  0
  2  6  1  0
  2 12  1  0
  3 14  2  0
  3 16  1  0
 12  4  2  0
  4 14  1  0
  6  5  2  0
  6  7  1  0
  7  8  1  0
  8  9  1  0
  9 10  1  0
 10 11  1  0
 12 13  1  0
 14 15  1  0
 16 17  2  0
 16 18  2  0
 16 19  1  1
M  END
$$$$
