
     RDKit          3D

 19 19  0  0  0  0  0  0  0  0999 V2000
   20.1316    1.1450  -16.2158 C   0  0  0  0  0  0  0  0  0  0  0  0
   19.4457    0.1352  -16.8592 C   0  0  0  0  0  0  0  0  0  0  0  0
   20.5059    2.2704  -16.9251 C   0  0  0  0  0  0  0  0  0  0  0  0
   19.4948    1.3558  -18.9329 C   0  0  0  0  0  0  0  0  0  0  0  0
   17.8457   -1.4056  -16.0241 O   0  0  0  0  0  0  0  0  0  0  0  0
   19.0505   -1.0535  -16.1159 C   0  0  0  0  0  0  0  0  0  0  0  0
   20.0743   -1.8117  -15.4913 N   0  0  0  0  0  0  0  0  0  0  0  0
   19.8379   -3.1309  -14.9848 C   0  0  0  0  0  0  0  0  0  0  0  0
   20.6889   -4.1910  -15.6517 C   0  0  0  0  0  0  0  0  0  0  0  0
   20.3530   -5.5062  -14.9356 C   0  0  0  0  0  0  0  0  0  0  0  0
   21.1337   -6.6592  -15.4810 C   0  0  0  0  0  0  0  0  0  0  0  0
   19.1297    0.2334  -18.1956 C   0  0  0  0  0  0  0  0  0  0  0  0
   18.2595   -1.0915  -18.9314 Cl  0  0  0  0  0  0  0  0  0  0  0  0
   20.1879    2.3597  -18.2526 C   0  0  0  0  0  0  0  0  0  0  0  0
   20.6763    3.8022  -19.1295 Cl  0  0  0  0  0  0  0  0  0  0  0  0
   21.3861    3.5954  -16.1528 S   0  0  1  0  0  6  0  0  0  0  0  0
   22.5483    4.0159  -17.0030 O   0  0  0  0  0  0  0  0  0  0  0  0
   20.4843    4.7983  -15.9950 O   0  0  0  0  0  0  0  0  0  0  0  0
   22.0288    3.0822  -14.6347 N   0  0  0  0  0  0  0  0  0  0  0  0
  1  2  2  0
  1  3  1  0
  2  6  1  0
  2 12  1  0
  3 14  2  0
  3 16  1  0
 12  4  2  0
  4 14  1  0
  6  5  2  0
  6  7  1  0
  7  8  1  0
  8  9  1  0
  9 10  1  0
 10 11  1  0
 12 13  1  0
 14 15  1  0
 16 17  2  0
 16 18  2  0
 16 19  1  1
M  END
$$$$
