
     RDKit          3D

 19 19  0  0  0  0  0  0  0  0999 V2000
   20.4345    0.8615  -16.6385 C   0  0  0  0  0  0  0  0  0  0  0  0
   19.8541   -0.1196  -17.4161 C   0  0  0  0  0  0  0  0  0  0  0  0
   20.5587    2.1423  -17.1424 C   0  0  0  0  0  0  0  0  0  0  0  0
   19.5107    1.4409  -19.2160 C   0  0  0  0  0  0  0  0  0  0  0  0
   20.0049   -2.4818  -17.5848 O   0  0  0  0  0  0  0  0  0  0  0  0
   19.7226   -1.4714  -16.8897 C   0  0  0  0  0  0  0  0  0  0  0  0
   19.2618   -1.6179  -15.5558 N   0  0  0  0  0  0  0  0  0  0  0  0
   19.1709   -2.8999  -14.9225 C   0  0  0  0  0  0  0  0  0  0  0  0
   19.5671   -2.8766  -13.4613 C   0  0  0  0  0  0  0  0  0  0  0  0
   19.3837   -4.3145  -12.9570 C   0  0  0  0  0  0  0  0  0  0  0  0
   20.4055   -5.2455  -13.5273 C   0  0  0  0  0  0  0  0  0  0  0  0
   19.3979    0.1595  -18.6847 C   0  0  0  0  0  0  0  0  0  0  0  0
   18.6761   -1.1419  -19.6009 Cl  0  0  0  0  0  0  0  0  0  0  0  0
   20.1026    2.4109  -18.4038 C   0  0  0  0  0  0  0  0  0  0  0  0
   20.2734    4.0483  -19.0187 Cl  0  0  0  0  0  0  0  0  0  0  0  0
   21.2937    3.4390  -16.1911 S   0  0  1  0  0  6  0  0  0  0  0  0
   22.4675    4.0216  -16.9215 O   0  0  0  0  0  0  0  0  0  0  0  0
   20.2980    4.5556  -15.9747 O   0  0  0  0  0  0  0  0  0  0  0  0
   21.8865    2.8197  -14.6925 N   0  0  0  0  0  0  0  0  0  0  0  0
  1  2  2  0
  1  3  1  0
  2  6  1  0
  2 12  1  0
  3 14  2  0
  3 16  1  0
 12  4  2  0
  4 14  1  0
  6  5  2  0
  6  7  1  0
  7  8  1  0
  8  9  1  0
  9 10  1  0
 10 11  1  0
 12 13  1  0
 14 15  1  0
 16 17  2  0
 16 18  2  0
 16 19  1  1
M  END
$$$$
