
     RDKit          3D

 19 19  0  0  0  0  0  0  0  0999 V2000
   20.8308    1.0706  -16.8819 C   0  0  0  0  0  0  0  0  0  0  0  0
   20.0519    0.2488  -17.6707 C   0  0  0  0  0  0  0  0  0  0  0  0
   20.7145    2.4419  -17.0081 C   0  0  0  0  0  0  0  0  0  0  0  0
   19.0255    2.1526  -18.7267 C   0  0  0  0  0  0  0  0  0  0  0  0
   19.4561   -1.9824  -18.2164 O   0  0  0  0  0  0  0  0  0  0  0  0
   20.1722   -1.1971  -17.5424 C   0  0  0  0  0  0  0  0  0  0  0  0
   21.1306   -1.7005  -16.6252 N   0  0  0  0  0  0  0  0  0  0  0  0
   21.4443   -3.0963  -16.5475 C   0  0  0  0  0  0  0  0  0  0  0  0
   22.2970   -3.5846  -17.6995 C   0  0  0  0  0  0  0  0  0  0  0  0
   22.6097   -5.0554  -17.3923 C   0  0  0  0  0  0  0  0  0  0  0  0
   21.4640   -5.9561  -17.7275 C   0  0  0  0  0  0  0  0  0  0  0  0
   19.1622    0.7754  -18.5800 C   0  0  0  0  0  0  0  0  0  0  0  0
   18.2150   -0.3373  -19.5385 Cl  0  0  0  0  0  0  0  0  0  0  0  0
   19.8279    2.9565  -17.9139 C   0  0  0  0  0  0  0  0  0  0  0  0
   19.7010    4.7038  -18.0527 Cl  0  0  0  0  0  0  0  0  0  0  0  0
   21.6867    3.5430  -16.0237 S   0  0  1  0  0  6  0  0  0  0  0  0
   23.0754    3.6531  -16.5804 O   0  0  0  0  0  0  0  0  0  0  0  0
   21.0829    4.9287  -16.0409 O   0  0  0  0  0  0  0  0  0  0  0  0
   21.8331    2.9358  -14.4141 N   0  0  0  0  0  0  0  0  0  0  0  0
  1  2  2  0
  1  3  1  0
  2  6  1  0
  2 12  1  0
  3 14  2  0
  3 16  1  0
 12  4  2  0
  4 14  1  0
  6  5  2  0
  6  7  1  0
  7  8  1  0
  8  9  1  0
  9 10  1  0
 10 11  1  0
 12 13  1  0
 14 15  1  0
 16 17  2  0
 16 18  2  0
 16 19  1  1
M  END
$$$$
