
     RDKit          3D

 36 39  0  0  0  0  0  0  0  0999 V2000
   23.7585   -9.1080   -4.4568 N   0  0  0  0  0  0  0  0  0  0  0  0
   21.3789   -9.3429   -7.8411 C   0  0  0  0  0  0  0  0  0  0  0  0
   22.0853   -9.4315   -6.6609 C   0  0  0  0  0  0  0  0  0  0  0  0
   22.1001  -10.3471   -5.6243 C   0  0  0  0  0  0  0  0  0  0  0  0
   22.9415  -10.1743   -4.5270 C   0  0  0  0  0  0  0  0  0  0  0  0
   24.6478   -8.9216   -3.3013 C   0  0  0  0  0  0  0  0  0  0  0  0
   22.9182   -8.3538   -6.5790 C   0  0  0  0  0  0  0  0  0  0  0  0
   19.0413  -12.4807   -6.1869 C   0  0  0  0  0  0  0  0  0  0  0  0
   20.8928  -13.8671   -5.5277 C   0  0  0  0  0  0  0  0  0  0  0  0
   23.5516  -14.1282   -4.7288 C   0  0  0  0  0  0  0  0  0  0  0  0
   24.0147  -15.8753   -3.2015 C   0  0  0  0  0  0  0  0  0  0  0  0
   24.6336  -16.6354   -4.1777 C   0  0  0  0  0  0  0  0  0  0  0  0
   24.6916  -16.0957   -5.4397 C   0  0  0  0  0  0  0  0  0  0  0  0
   24.2691  -14.3438   -7.1362 C   0  0  0  0  0  0  0  0  0  0  0  0
   17.2812  -13.3272   -7.7112 C   0  0  0  0  0  0  0  0  0  0  0  0
   20.3292   -8.4742  -10.5114 N   0  0  0  0  0  0  0  0  0  0  0  0
   18.2831   -7.8338  -11.7058 C   0  0  0  0  0  0  0  0  0  0  0  0
   21.6968   -6.6455  -10.2536 O   0  0  0  0  0  0  0  0  0  0  0  0
   19.7934   -7.9851  -11.7564 C   0  0  0  0  0  0  0  0  0  0  0  0
   21.2039  -11.4934   -5.7271 C   0  0  0  0  0  0  0  0  0  0  0  0
   19.8826  -11.3988   -6.0911 C   0  0  0  0  0  0  0  0  0  0  0  0
   19.5516  -13.7297   -5.9021 C   0  0  0  0  0  0  0  0  0  0  0  0
   21.6981  -12.7503   -5.4457 C   0  0  0  0  0  0  0  0  0  0  0  0
   23.4797  -14.6505   -3.4452 C   0  0  0  0  0  0  0  0  0  0  0  0
   22.8097  -13.8228   -2.3973 C   0  0  0  0  0  0  0  0  0  0  0  0
   21.2870   -7.7156   -9.7842 C   0  0  0  0  0  0  0  0  0  0  0  0
   24.1659  -14.8581   -5.7451 C   0  0  0  0  0  0  0  0  0  0  0  0
   17.6114  -12.3807   -6.5805 C   0  0  1  0  0  0  0  0  0  0  0  0
   16.6908  -12.6943   -5.4221 C   0  0  0  0  0  0  0  0  0  0  0  0
   21.7900   -8.1939   -8.4841 C   0  0  0  0  0  0  0  0  0  0  0  0
   23.7342   -8.2266   -5.4703 C   0  0  0  0  0  0  0  0  0  0  0  0
   25.1567  -17.8634   -3.8812 F   0  0  0  0  0  0  0  0  0  0  0  0
   22.7140   -7.6256   -7.6983 N   0  0  0  0  0  0  0  0  0  0  0  0
   24.5059   -7.2358   -5.3858 O   0  0  0  0  0  0  0  0  0  0  0  0
   23.0404  -12.9017   -5.0693 O   0  0  0  0  0  0  0  0  0  0  0  0
   17.3122  -11.0919   -7.0071 O   0  0  0  0  0  0  0  0  0  0  0  0
  5  1  1  0
  1  6  1  0
 31  1  1  0
  2  3  1  0
 30  2  2  0
  3  4  1  0
  3  7  2  0
  4  5  2  0
  4 20  1  0
  7 31  1  0
  7 33  1  0
 21  8  2  0
  8 22  1  0
  8 28  1  0
  9 22  2  0
 23  9  1  0
 10 24  2  0
 10 27  1  0
 35 10  1  0
 11 12  2  0
 24 11  1  0
 13 12  1  0
 12 32  1  0
 27 13  2  0
 27 14  1  0
 28 15  1  6
 16 19  1  0
 26 16  1  0
 19 17  1  0
 26 18  2  0
 20 21  1  0
 20 23  2  0
 23 35  1  0
 24 25  1  0
 26 30  1  0
 28 29  1  0
 28 36  1  0
 30 33  1  0
 31 34  2  0
M  END
$$$$
