
     RDKit          3D

 36 39  0  0  0  0  0  0  0  0999 V2000
   23.4848   -9.2559   -4.3734 N   0  0  0  0  0  0  0  0  0  0  0  0
   21.6545   -9.3952   -8.0208 C   0  0  0  0  0  0  0  0  0  0  0  0
   22.1760   -9.5397   -6.7412 C   0  0  0  0  0  0  0  0  0  0  0  0
   22.0473  -10.4992   -5.7581 C   0  0  0  0  0  0  0  0  0  0  0  0
   22.7173  -10.3405   -4.5636 C   0  0  0  0  0  0  0  0  0  0  0  0
   24.1753   -9.1379   -3.0828 C   0  0  0  0  0  0  0  0  0  0  0  0
   22.9741   -8.4090   -6.5472 C   0  0  0  0  0  0  0  0  0  0  0  0
   20.6948  -13.6434   -7.3010 C   0  0  0  0  0  0  0  0  0  0  0  0
   19.2078  -12.8495   -5.5812 C   0  0  0  0  0  0  0  0  0  0  0  0
   18.5229  -10.6982   -3.7502 C   0  0  0  0  0  0  0  0  0  0  0  0
   16.3334   -9.6710   -3.6458 C   0  0  0  0  0  0  0  0  0  0  0  0
   16.0517  -10.3310   -2.4668 C   0  0  0  0  0  0  0  0  0  0  0  0
   17.0064  -11.1767   -1.9272 C   0  0  0  0  0  0  0  0  0  0  0  0
   19.2815  -12.2560   -2.0181 C   0  0  0  0  0  0  0  0  0  0  0  0
   21.1183  -14.0255   -9.7216 C   0  0  0  0  0  0  0  0  0  0  0  0
   21.0379   -8.3636  -10.8589 N   0  0  0  0  0  0  0  0  0  0  0  0
   19.7933   -8.8106  -12.8529 C   0  0  0  0  0  0  0  0  0  0  0  0
   22.2781   -6.5503  -10.2484 O   0  0  0  0  0  0  0  0  0  0  0  0
   20.7755   -7.8456  -12.1852 C   0  0  0  0  0  0  0  0  0  0  0  0
   21.1930  -11.6414   -6.0546 C   0  0  0  0  0  0  0  0  0  0  0  0
   21.5078  -12.5603   -7.0221 C   0  0  0  0  0  0  0  0  0  0  0  0
   19.5402  -13.7693   -6.5622 C   0  0  0  0  0  0  0  0  0  0  0  0
   20.0360  -11.7883   -5.3309 C   0  0  0  0  0  0  0  0  0  0  0  0
   17.5554   -9.8628   -4.2653 C   0  0  0  0  0  0  0  0  0  0  0  0
   17.8514   -9.1570   -5.5221 C   0  0  0  0  0  0  0  0  0  0  0  0
   21.8289   -7.6732   -9.9035 C   0  0  0  0  0  0  0  0  0  0  0  0
   18.2362  -11.3552   -2.5720 C   0  0  0  0  0  0  0  0  0  0  0  0
   21.0214  -14.6481   -8.3461 C   0  0  1  0  0  0  0  0  0  0  0  0
   22.3429  -15.3150   -8.0309 C   0  0  0  0  0  0  0  0  0  0  0  0
   22.1172   -8.2250   -8.5800 C   0  0  0  0  0  0  0  0  0  0  0  0
   23.6157   -8.3173   -5.3245 C   0  0  0  0  0  0  0  0  0  0  0  0
   14.8719  -10.1885   -1.8060 F   0  0  0  0  0  0  0  0  0  0  0  0
   22.9110   -7.6620   -7.6541 N   0  0  0  0  0  0  0  0  0  0  0  0
   24.3425   -7.3022   -5.1288 O   0  0  0  0  0  0  0  0  0  0  0  0
   19.7251  -10.8778   -4.3730 O   0  0  0  0  0  0  0  0  0  0  0  0
   20.0510  -15.6499   -8.4175 O   0  0  0  0  0  0  0  0  0  0  0  0
  5  1  1  0
  6  1  1  1
 31  1  1  0
  2  3  1  0
 30  2  2  0
  3  4  1  0
  3  7  2  0
  4  5  2  0
  4 20  1  0
  7 31  1  0
  7 33  1  0
 21  8  2  0
  8 22  1  0
  8 28  1  0
  9 22  2  0
 23  9  1  0
 10 24  2  0
 10 27  1  0
 35 10  1  0
 11 12  2  0
 24 11  1  0
 13 12  1  0
 12 32  1  0
 27 13  2  0
 14 27  1  1
 15 28  1  1
 19 16  1  1
 26 16  1  0
 17 19  1  1
 26 18  2  0
 20 21  1  0
 20 23  2  0
 23 35  1  0
 25 24  1  1
 26 30  1  0
 29 28  1  1
 28 36  1  6
 30 33  1  0
 31 34  2  0
M  END
$$$$
