
     RDKit          3D

 36 39  0  0  0  0  0  0  0  0999 V2000
   23.6395   -8.9592   -4.4482 N   0  0  0  0  0  0  0  0  0  0  0  0
   21.4990   -9.1296   -7.9923 C   0  0  0  0  0  0  0  0  0  0  0  0
   22.1218   -9.2402   -6.7678 C   0  0  0  0  0  0  0  0  0  0  0  0
   22.0621  -10.1725   -5.7477 C   0  0  0  0  0  0  0  0  0  0  0  0
   22.8261  -10.0209   -4.5922 C   0  0  0  0  0  0  0  0  0  0  0  0
   24.4472   -8.7950   -3.2311 C   0  0  0  0  0  0  0  0  0  0  0  0
   22.9502   -8.1674   -6.6108 C   0  0  0  0  0  0  0  0  0  0  0  0
   19.0241  -12.2790   -6.4946 C   0  0  0  0  0  0  0  0  0  0  0  0
   20.8622  -13.6945   -5.8601 C   0  0  0  0  0  0  0  0  0  0  0  0
   23.4111  -13.8970   -4.6714 C   0  0  0  0  0  0  0  0  0  0  0  0
   23.5988  -15.3331   -2.8002 C   0  0  0  0  0  0  0  0  0  0  0  0
   24.3181  -16.2676   -3.5235 C   0  0  0  0  0  0  0  0  0  0  0  0
   24.5673  -15.9731   -4.8420 C   0  0  0  0  0  0  0  0  0  0  0  0
   24.4432  -14.5640   -6.8730 C   0  0  0  0  0  0  0  0  0  0  0  0
   16.8179  -11.2764   -5.9793 C   0  0  0  0  0  0  0  0  0  0  0  0
   20.6694   -8.2320  -10.7306 N   0  0  0  0  0  0  0  0  0  0  0  0
   19.4679   -8.7996  -12.7939 C   0  0  0  0  0  0  0  0  0  0  0  0
   21.9646   -6.3790  -10.3183 O   0  0  0  0  0  0  0  0  0  0  0  0
   20.3511   -7.8000  -12.0678 C   0  0  0  0  0  0  0  0  0  0  0  0
   21.1719  -11.3134   -5.9310 C   0  0  0  0  0  0  0  0  0  0  0  0
   19.8599  -11.2022   -6.3229 C   0  0  0  0  0  0  0  0  0  0  0  0
   19.5304  -13.5402   -6.2607 C   0  0  0  0  0  0  0  0  0  0  0  0
   21.6622  -12.5822   -5.7013 C   0  0  0  0  0  0  0  0  0  0  0  0
   23.1458  -14.1703   -3.3370 C   0  0  0  0  0  0  0  0  0  0  0  0
   22.3685  -13.1556   -2.5636 C   0  0  0  0  0  0  0  0  0  0  0  0
   21.5466   -7.4708   -9.9101 C   0  0  0  0  0  0  0  0  0  0  0  0
   24.1325  -14.8091   -5.4399 C   0  0  0  0  0  0  0  0  0  0  0  0
   17.6043  -12.1612   -6.9185 C   0  0  1  0  0  0  0  0  0  0  0  0
   17.4842  -11.5884   -8.3133 C   0  0  0  0  0  0  0  0  0  0  0  0
   21.9570   -7.9721   -8.5864 C   0  0  0  0  0  0  0  0  0  0  0  0
   23.6879   -8.0614   -5.4464 C   0  0  0  0  0  0  0  0  0  0  0  0
   24.7520  -17.4237   -2.9363 F   0  0  0  0  0  0  0  0  0  0  0  0
   22.8261   -7.4203   -7.7294 N   0  0  0  0  0  0  0  0  0  0  0  0
   24.4548   -7.0752   -5.2925 O   0  0  0  0  0  0  0  0  0  0  0  0
   22.9950  -12.7506   -5.2995 O   0  0  0  0  0  0  0  0  0  0  0  0
   16.9944  -13.4103   -6.9324 O   0  0  0  0  0  0  0  0  0  0  0  0
  5  1  1  0
  1  6  1  0
 31  1  1  0
  2  3  1  0
 30  2  2  0
  3  4  1  0
  3  7  2  0
  4  5  2  0
  4 20  1  0
  7 31  1  0
  7 33  1  0
 21  8  2  0
  8 22  1  0
  8 28  1  0
  9 22  2  0
 23  9  1  0
 10 24  2  0
 10 27  1  0
 35 10  1  0
 11 12  2  0
 24 11  1  0
 13 12  1  0
 12 32  1  0
 27 13  2  0
 27 14  1  0
 28 15  1  1
 16 19  1  0
 26 16  1  0
 19 17  1  0
 26 18  2  0
 20 21  1  0
 20 23  2  0
 23 35  1  0
 24 25  1  0
 26 30  1  0
 28 29  1  0
 28 36  1  0
 30 33  1  0
 31 34  2  0
M  END
$$$$
