
     RDKit          3D

 36 39  0  0  0  0  0  0  0  0999 V2000
   24.0044   -8.6933   -4.3379 N   0  0  0  0  0  0  0  0  0  0  0  0
   21.5931   -9.3624   -7.5645 C   0  0  0  0  0  0  0  0  0  0  0  0
   22.3621   -9.3407   -6.4075 C   0  0  0  0  0  0  0  0  0  0  0  0
   22.6147  -10.2588   -5.4091 C   0  0  0  0  0  0  0  0  0  0  0  0
   23.4494   -9.9151   -4.3670 C   0  0  0  0  0  0  0  0  0  0  0  0
   24.8850   -8.3808   -3.2050 C   0  0  0  0  0  0  0  0  0  0  0  0
   22.9378   -8.0675   -6.3810 C   0  0  0  0  0  0  0  0  0  0  0  0
   22.0608  -13.9648   -5.6434 C   0  0  0  0  0  0  0  0  0  0  0  0
   19.9568  -12.7973   -5.7405 C   0  0  0  0  0  0  0  0  0  0  0  0
   18.5528  -10.2692   -5.4507 C   0  0  0  0  0  0  0  0  0  0  0  0
   16.5899  -10.2784   -4.0341 C   0  0  0  0  0  0  0  0  0  0  0  0
   15.7860   -9.9349   -5.1021 C   0  0  0  0  0  0  0  0  0  0  0  0
   16.3651   -9.7578   -6.3476 C   0  0  0  0  0  0  0  0  0  0  0  0
   18.3965   -9.7430   -7.8383 C   0  0  0  0  0  0  0  0  0  0  0  0
   23.7529  -15.3423   -6.8367 C   0  0  0  0  0  0  0  0  0  0  0  0
   20.2321   -8.5964  -10.2208 N   0  0  0  0  0  0  0  0  0  0  0  0
   20.2080   -9.2358  -12.5263 C   0  0  0  0  0  0  0  0  0  0  0  0
   21.2332   -6.5707   -9.9150 O   0  0  0  0  0  0  0  0  0  0  0  0
   19.6769   -8.2266  -11.5058 C   0  0  0  0  0  0  0  0  0  0  0  0
   21.9681  -11.5591   -5.5253 C   0  0  0  0  0  0  0  0  0  0  0  0
   22.6775  -12.7322   -5.5331 C   0  0  0  0  0  0  0  0  0  0  0  0
   20.6882  -13.9737   -5.7468 C   0  0  0  0  0  0  0  0  0  0  0  0
   20.5999  -11.5936   -5.6297 C   0  0  0  0  0  0  0  0  0  0  0  0
   17.9510  -10.4393   -4.2226 C   0  0  0  0  0  0  0  0  0  0  0  0
   18.8042  -10.8056   -3.0811 C   0  0  0  0  0  0  0  0  0  0  0  0
   21.0633   -7.7314   -9.4617 C   0  0  0  0  0  0  0  0  0  0  0  0
   17.7449   -9.9260   -6.5144 C   0  0  0  0  0  0  0  0  0  0  0  0
   22.8150  -15.2452   -5.6535 C   0  0  1  0  0  0  0  0  0  0  0  0
   23.6316  -15.3772   -4.3862 C   0  0  0  0  0  0  0  0  0  0  0  0
   21.6981   -8.1522   -8.2131 C   0  0  0  0  0  0  0  0  0  0  0  0
   23.7641   -7.7937   -5.3052 C   0  0  0  0  0  0  0  0  0  0  0  0
   14.4423   -9.7610   -4.9873 F   0  0  0  0  0  0  0  0  0  0  0  0
   22.5205   -7.4011   -7.4621 N   0  0  0  0  0  0  0  0  0  0  0  0
   24.2949   -6.6477   -5.2622 O   0  0  0  0  0  0  0  0  0  0  0  0
   19.8982  -10.4314   -5.6219 O   0  0  0  0  0  0  0  0  0  0  0  0
   21.9583  -16.3462   -5.7186 O   0  0  0  0  0  0  0  0  0  0  0  0
  5  1  1  0
  6  1  1  1
 31  1  1  0
  2  3  1  0
 30  2  2  0
  3  4  1  0
  3  7  2  0
  4  5  2  0
  4 20  1  0
  7 31  1  0
  7 33  1  0
 21  8  2  0
  8 22  1  0
  8 28  1  0
  9 22  2  0
 23  9  1  0
 10 24  2  0
 10 27  1  0
 35 10  1  0
 11 12  2  0
 24 11  1  0
 13 12  1  0
 12 32  1  0
 27 13  2  0
 14 27  1  1
 15 28  1  1
 19 16  1  1
 26 16  1  0
 17 19  1  1
 26 18  2  0
 20 21  1  0
 20 23  2  0
 23 35  1  0
 25 24  1  1
 26 30  1  0
 29 28  1  1
 28 36  1  6
 30 33  1  0
 31 34  2  0
M  END
$$$$
