
     RDKit          3D

 36 39  0  0  0  0  0  0  0  0999 V2000
   23.9592   -8.8319   -4.1765 N   0  0  0  0  0  0  0  0  0  0  0  0
   21.3463   -9.0328   -7.3865 C   0  0  0  0  0  0  0  0  0  0  0  0
   22.1261   -9.1267   -6.2538 C   0  0  0  0  0  0  0  0  0  0  0  0
   22.1658  -10.0142   -5.1937 C   0  0  0  0  0  0  0  0  0  0  0  0
   23.0873   -9.8561   -4.1604 C   0  0  0  0  0  0  0  0  0  0  0  0
   24.9331   -8.6612   -3.0888 C   0  0  0  0  0  0  0  0  0  0  0  0
   23.0151   -8.0916   -6.2596 C   0  0  0  0  0  0  0  0  0  0  0  0
   18.9480  -11.9809   -5.2425 C   0  0  0  0  0  0  0  0  0  0  0  0
   20.8230  -13.4861   -5.1846 C   0  0  0  0  0  0  0  0  0  0  0  0
   23.5761  -13.9133   -5.0709 C   0  0  0  0  0  0  0  0  0  0  0  0
   24.3232  -15.9494   -6.0172 C   0  0  0  0  0  0  0  0  0  0  0  0
   24.6120  -16.4821   -4.7736 C   0  0  0  0  0  0  0  0  0  0  0  0
   24.3638  -15.6831   -3.6840 C   0  0  0  0  0  0  0  0  0  0  0  0
   23.6110  -13.6058   -2.5687 C   0  0  0  0  0  0  0  0  0  0  0  0
   16.9900  -10.9844   -4.0973 C   0  0  0  0  0  0  0  0  0  0  0  0
   20.1154   -8.1426   -9.9706 N   0  0  0  0  0  0  0  0  0  0  0  0
   19.7673   -8.7788  -12.3152 C   0  0  0  0  0  0  0  0  0  0  0  0
   21.6740   -6.4544   -9.9248 O   0  0  0  0  0  0  0  0  0  0  0  0
   19.5905   -7.7175  -11.2434 C   0  0  0  0  0  0  0  0  0  0  0  0
   21.2089  -11.1151   -5.2025 C   0  0  0  0  0  0  0  0  0  0  0  0
   19.8464  -10.9416   -5.2343 C   0  0  0  0  0  0  0  0  0  0  0  0
   19.4412  -13.2684   -5.2174 C   0  0  0  0  0  0  0  0  0  0  0  0
   21.6852  -12.4095   -5.1777 C   0  0  0  0  0  0  0  0  0  0  0  0
   23.8177  -14.7000   -6.1882 C   0  0  0  0  0  0  0  0  0  0  0  0
   23.5028  -14.1167   -7.5271 C   0  0  0  0  0  0  0  0  0  0  0  0
   21.2036   -7.4548   -9.3667 C   0  0  0  0  0  0  0  0  0  0  0  0
   23.8517  -14.4078   -3.7972 C   0  0  0  0  0  0  0  0  0  0  0  0
   17.4735  -11.7957   -5.2769 C   0  0  1  0  0  0  0  0  0  0  0  0
   17.0286  -11.0956   -6.5417 C   0  0  0  0  0  0  0  0  0  0  0  0
   21.7694   -7.9239   -8.0893 C   0  0  0  0  0  0  0  0  0  0  0  0
   23.9098   -7.9774   -5.2120 C   0  0  0  0  0  0  0  0  0  0  0  0
   25.1200  -17.7460   -4.6549 F   0  0  0  0  0  0  0  0  0  0  0  0
   22.7717   -7.3835   -7.3840 N   0  0  0  0  0  0  0  0  0  0  0  0
   24.7338   -7.0258   -5.2085 O   0  0  0  0  0  0  0  0  0  0  0  0
   23.0678  -12.6413   -5.1448 O   0  0  0  0  0  0  0  0  0  0  0  0
   16.8266  -13.0255   -5.2376 O   0  0  0  0  0  0  0  0  0  0  0  0
  5  1  1  0
  1  6  1  0
 31  1  1  0
  2  3  1  0
 30  2  2  0
  3  4  1  0
  3  7  2  0
  4  5  2  0
  4 20  1  0
  7 31  1  0
  7 33  1  0
 21  8  2  0
  8 22  1  0
  8 28  1  0
  9 22  2  0
 23  9  1  0
 10 24  2  0
 10 27  1  0
 35 10  1  0
 11 12  2  0
 24 11  1  0
 13 12  1  0
 12 32  1  0
 27 13  2  0
 27 14  1  0
 28 15  1  1
 16 19  1  0
 26 16  1  0
 19 17  1  0
 26 18  2  0
 20 21  1  0
 20 23  2  0
 23 35  1  0
 24 25  1  0
 26 30  1  0
 28 29  1  0
 28 36  1  0
 30 33  1  0
 31 34  2  0
M  END
$$$$
