
     RDKit          3D

 36 39  0  0  0  0  0  0  0  0999 V2000
   23.6917   -8.7886   -4.2677 N   0  0  0  0  0  0  0  0  0  0  0  0
   21.2666   -9.5190   -7.4705 C   0  0  0  0  0  0  0  0  0  0  0  0
   22.0538   -9.4807   -6.3263 C   0  0  0  0  0  0  0  0  0  0  0  0
   22.3792  -10.4072   -5.3572 C   0  0  0  0  0  0  0  0  0  0  0  0
   23.2106  -10.0406   -4.3203 C   0  0  0  0  0  0  0  0  0  0  0  0
   24.5724   -8.4527   -3.1416 C   0  0  0  0  0  0  0  0  0  0  0  0
   22.5524   -8.1761   -6.2753 C   0  0  0  0  0  0  0  0  0  0  0  0
   22.0177  -14.1422   -5.4814 C   0  0  0  0  0  0  0  0  0  0  0  0
   19.9022  -13.0821   -5.9290 C   0  0  0  0  0  0  0  0  0  0  0  0
   18.4643  -10.4867   -5.4787 C   0  0  0  0  0  0  0  0  0  0  0  0
   16.8694  -10.3585   -3.6623 C   0  0  0  0  0  0  0  0  0  0  0  0
   15.8615  -10.0085   -4.5379 C   0  0  0  0  0  0  0  0  0  0  0  0
   16.1541   -9.8970   -5.8870 C   0  0  0  0  0  0  0  0  0  0  0  0
   17.7994  -10.0251   -7.7911 C   0  0  0  0  0  0  0  0  0  0  0  0
   22.3672  -16.2013   -4.1315 C   0  0  0  0  0  0  0  0  0  0  0  0
   19.8536   -8.7801  -10.1083 N   0  0  0  0  0  0  0  0  0  0  0  0
   18.5108   -9.6223  -11.9006 C   0  0  0  0  0  0  0  0  0  0  0  0
   20.6613   -6.6843   -9.7157 O   0  0  0  0  0  0  0  0  0  0  0  0
   19.4070   -8.4668  -11.4494 C   0  0  0  0  0  0  0  0  0  0  0  0
   21.8098  -11.7408   -5.4974 C   0  0  0  0  0  0  0  0  0  0  0  0
   22.5611  -12.8778   -5.3477 C   0  0  0  0  0  0  0  0  0  0  0  0
   20.6751  -14.2213   -5.7747 C   0  0  0  0  0  0  0  0  0  0  0  0
   20.4728  -11.8454   -5.7898 C   0  0  0  0  0  0  0  0  0  0  0  0
   18.1461  -10.5907   -4.1419 C   0  0  0  0  0  0  0  0  0  0  0  0
   19.2175  -10.9636   -3.2047 C   0  0  0  0  0  0  0  0  0  0  0  0
   20.6054   -7.8748   -9.3143 C   0  0  0  0  0  0  0  0  0  0  0  0
   17.4536  -10.1367   -6.3493 C   0  0  0  0  0  0  0  0  0  0  0  0
   22.8179  -15.3842   -5.3224 C   0  0  1  0  0  0  0  0  0  0  0  0
   22.6968  -16.2428   -6.5627 C   0  0  0  0  0  0  0  0  0  0  0  0
   21.2870   -8.2884   -8.0881 C   0  0  0  0  0  0  0  0  0  0  0  0
   23.3802   -7.8806   -5.2063 C   0  0  0  0  0  0  0  0  0  0  0  0
   14.5857   -9.7664   -4.1346 F   0  0  0  0  0  0  0  0  0  0  0  0
   22.0762   -7.5085   -7.3311 N   0  0  0  0  0  0  0  0  0  0  0  0
   23.8419   -6.7061   -5.1415 O   0  0  0  0  0  0  0  0  0  0  0  0
   19.7296  -10.7189   -5.9378 O   0  0  0  0  0  0  0  0  0  0  0  0
   24.1731  -15.1025   -5.1364 O   0  0  0  0  0  0  0  0  0  0  0  0
  5  1  1  0
  6  1  1  1
 31  1  1  0
  2  3  1  0
 30  2  2  0
  3  4  1  0
  3  7  2  0
  4  5  2  0
  4 20  1  0
  7 31  1  0
  7 33  1  0
 21  8  2  0
  8 22  1  0
  8 28  1  0
  9 22  2  0
 23  9  1  0
 10 24  2  0
 10 27  1  0
 35 10  1  0
 11 12  2  0
 24 11  1  0
 13 12  1  0
 12 32  1  0
 27 13  2  0
 14 27  1  1
 15 28  1  1
 19 16  1  1
 26 16  1  0
 17 19  1  1
 26 18  2  0
 20 21  1  0
 20 23  2  0
 23 35  1  0
 25 24  1  1
 26 30  1  0
 29 28  1  1
 28 36  1  1
 30 33  1  0
 31 34  2  0
M  END
$$$$
