
     RDKit          3D

 36 39  0  0  0  0  0  0  0  0999 V2000
   23.6739   -8.6628   -4.2558 N   0  0  0  0  0  0  0  0  0  0  0  0
   21.6406   -9.5491   -7.6841 C   0  0  0  0  0  0  0  0  0  0  0  0
   22.2887   -9.4554   -6.4588 C   0  0  0  0  0  0  0  0  0  0  0  0
   22.5004  -10.3365   -5.4183 C   0  0  0  0  0  0  0  0  0  0  0  0
   23.2044   -9.9192   -4.3088 C   0  0  0  0  0  0  0  0  0  0  0  0
   24.4166   -8.2721   -3.0507 C   0  0  0  0  0  0  0  0  0  0  0  0
   22.7758   -8.1465   -6.4077 C   0  0  0  0  0  0  0  0  0  0  0  0
   22.0608  -13.9231   -6.4376 C   0  0  0  0  0  0  0  0  0  0  0  0
   20.2215  -13.2160   -5.0532 C   0  0  0  0  0  0  0  0  0  0  0  0
   18.8296  -10.6360   -4.2608 C   0  0  0  0  0  0  0  0  0  0  0  0
   16.4935  -11.0921   -3.8203 C   0  0  0  0  0  0  0  0  0  0  0  0
   16.1270   -9.8787   -4.3664 C   0  0  0  0  0  0  0  0  0  0  0  0
   17.1127   -9.0410   -4.8611 C   0  0  0  0  0  0  0  0  0  0  0  0
   19.5392   -8.5479   -5.3279 C   0  0  0  0  0  0  0  0  0  0  0  0
   23.1094  -14.5086   -8.6152 C   0  0  0  0  0  0  0  0  0  0  0  0
   20.5397   -8.9347  -10.4966 N   0  0  0  0  0  0  0  0  0  0  0  0
   20.5446   -9.7549  -12.7443 C   0  0  0  0  0  0  0  0  0  0  0  0
   21.3006   -6.8204  -10.1095 O   0  0  0  0  0  0  0  0  0  0  0  0
   20.0787   -8.6180  -11.8321 C   0  0  0  0  0  0  0  0  0  0  0  0
   21.9536  -11.6788   -5.5649 C   0  0  0  0  0  0  0  0  0  0  0  0
   22.5824  -12.6499   -6.3004 C   0  0  0  0  0  0  0  0  0  0  0  0
   20.8694  -14.1862   -5.8001 C   0  0  0  0  0  0  0  0  0  0  0  0
   20.7663  -11.9651   -4.9383 C   0  0  0  0  0  0  0  0  0  0  0  0
   17.8290  -11.4502   -3.7759 C   0  0  0  0  0  0  0  0  0  0  0  0
   18.2150  -12.7448   -3.1927 C   0  0  0  0  0  0  0  0  0  0  0  0
   21.1964   -7.9916   -9.6632 C   0  0  0  0  0  0  0  0  0  0  0  0
   18.4580   -9.4247   -4.8054 C   0  0  0  0  0  0  0  0  0  0  0  0
   22.7296  -14.9868   -7.2309 C   0  0  1  0  0  0  0  0  0  0  0  0
   23.9861  -15.4490   -6.5253 C   0  0  0  0  0  0  0  0  0  0  0  0
   21.7308   -8.3466   -8.3489 C   0  0  0  0  0  0  0  0  0  0  0  0
   23.4726   -7.7989   -5.2636 C   0  0  0  0  0  0  0  0  0  0  0  0
   14.8341   -9.4646   -4.4417 F   0  0  0  0  0  0  0  0  0  0  0  0
   22.4250   -7.5289   -7.5402 N   0  0  0  0  0  0  0  0  0  0  0  0
   23.9216   -6.6195   -5.1974 O   0  0  0  0  0  0  0  0  0  0  0  0
   20.1443  -11.0028   -4.2102 O   0  0  0  0  0  0  0  0  0  0  0  0
   21.9047  -16.1017   -7.3948 O   0  0  0  0  0  0  0  0  0  0  0  0
  5  1  1  0
  6  1  1  1
 31  1  1  0
  2  3  1  0
 30  2  2  0
  3  4  1  0
  3  7  2  0
  4  5  2  0
  4 20  1  0
  7 31  1  0
  7 33  1  0
 21  8  2  0
  8 22  1  0
  8 28  1  0
  9 22  2  0
 23  9  1  0
 10 24  2  0
 10 27  1  0
 35 10  1  0
 11 12  2  0
 24 11  1  0
 13 12  1  0
 12 32  1  0
 27 13  2  0
 14 27  1  1
 15 28  1  1
 19 16  1  1
 26 16  1  0
 17 19  1  1
 26 18  2  0
 20 21  1  0
 20 23  2  0
 23 35  1  0
 25 24  1  1
 26 30  1  0
 29 28  1  1
 28 36  1  6
 30 33  1  0
 31 34  2  0
M  END
$$$$
