
     RDKit          3D

 36 39  0  0  0  0  0  0  0  0999 V2000
   23.8545   -8.9451   -4.1826 N   0  0  0  0  0  0  0  0  0  0  0  0
   21.6124   -9.6381   -7.5242 C   0  0  0  0  0  0  0  0  0  0  0  0
   22.3176   -9.6064   -6.3275 C   0  0  0  0  0  0  0  0  0  0  0  0
   22.5022  -10.5101   -5.3014 C   0  0  0  0  0  0  0  0  0  0  0  0
   23.2841  -10.1595   -4.2213 C   0  0  0  0  0  0  0  0  0  0  0  0
   24.6767   -8.6248   -3.0088 C   0  0  0  0  0  0  0  0  0  0  0  0
   22.9097   -8.3410   -6.2912 C   0  0  0  0  0  0  0  0  0  0  0  0
   21.9179  -14.2046   -5.6259 C   0  0  0  0  0  0  0  0  0  0  0  0
   19.8184  -13.0252   -5.6012 C   0  0  0  0  0  0  0  0  0  0  0  0
   18.4230  -10.5007   -5.3634 C   0  0  0  0  0  0  0  0  0  0  0  0
   16.3499  -10.4006   -4.1176 C   0  0  0  0  0  0  0  0  0  0  0  0
   15.6359  -10.1648   -5.2751 C   0  0  0  0  0  0  0  0  0  0  0  0
   16.3154  -10.0966   -6.4799 C   0  0  0  0  0  0  0  0  0  0  0  0
   18.4628  -10.1972   -7.7942 C   0  0  0  0  0  0  0  0  0  0  0  0
   23.6176  -15.5174   -6.8798 C   0  0  0  0  0  0  0  0  0  0  0  0
   20.3710   -8.8840  -10.2415 N   0  0  0  0  0  0  0  0  0  0  0  0
   18.4335   -9.1355  -11.6228 C   0  0  0  0  0  0  0  0  0  0  0  0
   21.4558   -6.8987   -9.9573 O   0  0  0  0  0  0  0  0  0  0  0  0
   19.8214   -8.4983  -11.5243 C   0  0  0  0  0  0  0  0  0  0  0  0
   21.8439  -11.8033   -5.4307 C   0  0  0  0  0  0  0  0  0  0  0  0
   22.5457  -12.9788   -5.5033 C   0  0  0  0  0  0  0  0  0  0  0  0
   20.5421  -14.2041   -5.6733 C   0  0  0  0  0  0  0  0  0  0  0  0
   20.4724  -11.8284   -5.4801 C   0  0  0  0  0  0  0  0  0  0  0  0
   17.7223  -10.5638   -4.1784 C   0  0  0  0  0  0  0  0  0  0  0  0
   18.4794  -10.8150   -2.9419 C   0  0  0  0  0  0  0  0  0  0  0  0
   21.2103   -8.0338   -9.4748 C   0  0  0  0  0  0  0  0  0  0  0  0
   17.7047  -10.2649   -6.5169 C   0  0  0  0  0  0  0  0  0  0  0  0
   22.6636  -15.4875   -5.7059 C   0  0  1  0  0  0  0  0  0  0  0  0
   23.4612  -15.7048   -4.4382 C   0  0  0  0  0  0  0  0  0  0  0  0
   21.7702   -8.4411   -8.1864 C   0  0  0  0  0  0  0  0  0  0  0  0
   23.6802   -8.0596   -5.1766 C   0  0  0  0  0  0  0  0  0  0  0  0
   14.2868   -9.9953   -5.2873 F   0  0  0  0  0  0  0  0  0  0  0  0
   22.5615   -7.6882   -7.4045 N   0  0  0  0  0  0  0  0  0  0  0  0
   24.2246   -6.9204   -5.1242 O   0  0  0  0  0  0  0  0  0  0  0  0
   19.7783  -10.6638   -5.4081 O   0  0  0  0  0  0  0  0  0  0  0  0
   21.8006  -16.5758   -5.8517 O   0  0  0  0  0  0  0  0  0  0  0  0
  5  1  1  0
  6  1  1  1
 31  1  1  0
  2  3  1  0
 30  2  2  0
  3  4  1  0
  3  7  2  0
  4  5  2  0
  4 20  1  0
  7 31  1  0
  7 33  1  0
 21  8  2  0
  8 22  1  0
  8 28  1  0
  9 22  2  0
 23  9  1  0
 10 24  2  0
 10 27  1  0
 35 10  1  0
 11 12  2  0
 24 11  1  0
 13 12  1  0
 12 32  1  0
 27 13  2  0
 14 27  1  1
 15 28  1  1
 19 16  1  1
 26 16  1  0
 17 19  1  1
 26 18  2  0
 20 21  1  0
 20 23  2  0
 23 35  1  0
 25 24  1  1
 26 30  1  0
 29 28  1  1
 28 36  1  6
 30 33  1  0
 31 34  2  0
M  END
$$$$
