
     RDKit          3D

 36 39  0  0  0  0  0  0  0  0999 V2000
   24.1129   -9.1720   -4.2515 N   0  0  0  0  0  0  0  0  0  0  0  0
   21.6557   -9.7270   -7.4651 C   0  0  0  0  0  0  0  0  0  0  0  0
   22.4361   -9.7440   -6.3157 C   0  0  0  0  0  0  0  0  0  0  0  0
   22.6770  -10.6855   -5.3364 C   0  0  0  0  0  0  0  0  0  0  0  0
   23.5295  -10.3800   -4.2968 C   0  0  0  0  0  0  0  0  0  0  0  0
   25.0114   -8.9005   -3.1221 C   0  0  0  0  0  0  0  0  0  0  0  0
   23.0414   -8.4851   -6.2723 C   0  0  0  0  0  0  0  0  0  0  0  0
   22.0293  -14.3765   -5.5677 C   0  0  0  0  0  0  0  0  0  0  0  0
   19.9642  -13.1520   -5.7553 C   0  0  0  0  0  0  0  0  0  0  0  0
   18.6156  -10.5890   -5.6253 C   0  0  0  0  0  0  0  0  0  0  0  0
   16.5784  -10.1165   -4.4062 C   0  0  0  0  0  0  0  0  0  0  0  0
   15.8364  -10.1874   -5.5678 C   0  0  0  0  0  0  0  0  0  0  0  0
   16.4839  -10.4596   -6.7614 C   0  0  0  0  0  0  0  0  0  0  0  0
   18.5936  -10.9526   -8.0480 C   0  0  0  0  0  0  0  0  0  0  0  0
   22.3438  -16.5227   -4.3513 C   0  0  0  0  0  0  0  0  0  0  0  0
   20.2128   -8.8469  -10.0420 N   0  0  0  0  0  0  0  0  0  0  0  0
   18.5968   -9.4774  -11.6900 C   0  0  0  0  0  0  0  0  0  0  0  0
   21.4050   -6.9174   -9.8079 O   0  0  0  0  0  0  0  0  0  0  0  0
   19.7199   -8.4928  -11.3565 C   0  0  0  0  0  0  0  0  0  0  0  0
   21.9993  -11.9683   -5.4693 C   0  0  0  0  0  0  0  0  0  0  0  0
   22.6754  -13.1606   -5.4413 C   0  0  0  0  0  0  0  0  0  0  0  0
   20.6621  -14.3482   -5.7250 C   0  0  0  0  0  0  0  0  0  0  0  0
   20.6358  -11.9658   -5.6273 C   0  0  0  0  0  0  0  0  0  0  0  0
   17.9465  -10.3168   -4.4516 C   0  0  0  0  0  0  0  0  0  0  0  0
   18.7335  -10.2402   -3.2107 C   0  0  0  0  0  0  0  0  0  0  0  0
   21.1455   -8.0503   -9.3275 C   0  0  0  0  0  0  0  0  0  0  0  0
   17.8695  -10.6588   -6.7830 C   0  0  0  0  0  0  0  0  0  0  0  0
   22.7472  -15.6773   -5.5395 C   0  0  1  0  0  0  0  0  0  0  0  0
   22.4552  -16.4595   -6.8017 C   0  0  0  0  0  0  0  0  0  0  0  0
   21.7825   -8.5081   -8.0930 C   0  0  0  0  0  0  0  0  0  0  0  0
   23.8841   -8.2498   -5.2001 C   0  0  0  0  0  0  0  0  0  0  0  0
   14.4898  -10.0011   -5.5949 F   0  0  0  0  0  0  0  0  0  0  0  0
   22.6292   -7.7898   -7.3371 N   0  0  0  0  0  0  0  0  0  0  0  0
   24.4417   -7.1173   -5.1420 O   0  0  0  0  0  0  0  0  0  0  0  0
   19.9671  -10.7846   -5.6549 O   0  0  0  0  0  0  0  0  0  0  0  0
   24.1304  -15.4998   -5.4649 O   0  0  0  0  0  0  0  0  0  0  0  0
  5  1  1  0
  6  1  1  1
 31  1  1  0
  2  3  1  0
 30  2  2  0
  3  4  1  0
  3  7  2  0
  4  5  2  0
  4 20  1  0
  7 31  1  0
  7 33  1  0
 21  8  2  0
  8 22  1  0
  8 28  1  0
  9 22  2  0
 23  9  1  0
 10 24  2  0
 10 27  1  0
 35 10  1  0
 11 12  2  0
 24 11  1  0
 13 12  1  0
 12 32  1  0
 27 13  2  0
 14 27  1  1
 15 28  1  1
 19 16  1  1
 26 16  1  0
 17 19  1  1
 26 18  2  0
 20 21  1  0
 20 23  2  0
 23 35  1  0
 25 24  1  1
 26 30  1  0
 29 28  1  1
 28 36  1  1
 30 33  1  0
 31 34  2  0
M  END
$$$$
