
     RDKit          3D

 36 39  0  0  0  0  0  0  0  0999 V2000
   23.4102   -8.7400   -4.0980 N   0  0  0  0  0  0  0  0  0  0  0  0
   21.8140   -9.3567   -7.8720 C   0  0  0  0  0  0  0  0  0  0  0  0
   22.2379   -9.3049   -6.5616 C   0  0  0  0  0  0  0  0  0  0  0  0
   21.9586  -10.0615   -5.4379 C   0  0  0  0  0  0  0  0  0  0  0  0
   22.5513   -9.7691   -4.2111 C   0  0  0  0  0  0  0  0  0  0  0  0
   24.0378   -8.4277   -2.8060 C   0  0  0  0  0  0  0  0  0  0  0  0
   23.1106   -8.2636   -6.4351 C   0  0  0  0  0  0  0  0  0  0  0  0
   18.7803  -12.0752   -5.6995 C   0  0  0  0  0  0  0  0  0  0  0  0
   20.6856  -13.5252   -5.9278 C   0  0  0  0  0  0  0  0  0  0  0  0
   23.4642  -13.8733   -5.5710 C   0  0  0  0  0  0  0  0  0  0  0  0
   24.4533  -15.9197   -6.2293 C   0  0  0  0  0  0  0  0  0  0  0  0
   24.5615  -16.3494   -4.9188 C   0  0  0  0  0  0  0  0  0  0  0  0
   24.1007  -15.4955   -3.9463 C   0  0  0  0  0  0  0  0  0  0  0  0
   23.0763  -13.3971   -3.1256 C   0  0  0  0  0  0  0  0  0  0  0  0
   16.8356  -11.3635   -4.3395 C   0  0  0  0  0  0  0  0  0  0  0  0
   22.7633   -6.8053  -10.5223 N   0  0  0  0  0  0  0  0  0  0  0  0
   22.9707   -5.0560  -12.2311 C   0  0  0  0  0  0  0  0  0  0  0  0
   21.6905   -8.8275  -10.7249 O   0  0  0  0  0  0  0  0  0  0  0  0
   22.5751   -6.4878  -11.9152 C   0  0  0  0  0  0  0  0  0  0  0  0
   21.0238  -11.1710   -5.5898 C   0  0  0  0  0  0  0  0  0  0  0  0
   19.6579  -11.0280   -5.5561 C   0  0  0  0  0  0  0  0  0  0  0  0
   19.2995  -13.3389   -5.8876 C   0  0  0  0  0  0  0  0  0  0  0  0
   21.5262  -12.4418   -5.7788 C   0  0  0  0  0  0  0  0  0  0  0  0
   23.9223  -14.7173   -6.5728 C   0  0  0  0  0  0  0  0  0  0  0  0
   23.8016  -14.2451   -7.9850 C   0  0  0  0  0  0  0  0  0  0  0  0
   22.2685   -8.0236   -9.9812 C   0  0  0  0  0  0  0  0  0  0  0  0
   23.5525  -14.2638   -4.2358 C   0  0  0  0  0  0  0  0  0  0  0  0
   17.3022  -11.9229   -5.6634 C   0  0  1  0  0  0  0  0  0  0  0  0
   16.8089  -11.0055   -6.7602 C   0  0  0  0  0  0  0  0  0  0  0  0
   22.4394   -8.3310   -8.5500 C   0  0  0  0  0  0  0  0  0  0  0  0
   23.6726   -8.0134   -5.1971 C   0  0  0  0  0  0  0  0  0  0  0  0
   25.1041  -17.5697   -4.6253 F   0  0  0  0  0  0  0  0  0  0  0  0
   23.2096   -7.6960   -7.6569 N   0  0  0  0  0  0  0  0  0  0  0  0
   24.4788   -7.0550   -5.0706 O   0  0  0  0  0  0  0  0  0  0  0  0
   22.9134  -12.6421   -5.8210 O   0  0  0  0  0  0  0  0  0  0  0  0
   16.6807  -13.1531   -5.8451 O   0  0  0  0  0  0  0  0  0  0  0  0
  5  1  1  0
  1  6  1  0
 31  1  1  0
  2  3  1  0
 30  2  2  0
  3  4  1  0
  3  7  2  0
  4  5  2  0
  4 20  1  0
  7 31  1  0
  7 33  1  0
 21  8  2  0
  8 22  1  0
  8 28  1  0
  9 22  2  0
 23  9  1  0
 10 24  2  0
 10 27  1  0
 35 10  1  0
 11 12  2  0
 24 11  1  0
 13 12  1  0
 12 32  1  0
 27 13  2  0
 27 14  1  0
 28 15  1  1
 16 19  1  0
 26 16  1  0
 19 17  1  0
 26 18  2  0
 20 21  1  0
 20 23  2  0
 23 35  1  0
 24 25  1  0
 26 30  1  0
 28 29  1  0
 28 36  1  0
 30 33  1  0
 31 34  2  0
M  END
$$$$
