
     RDKit          3D

 36 39  0  0  0  0  0  0  0  0999 V2000
   23.9516   -8.7955   -3.9433 N   0  0  0  0  0  0  0  0  0  0  0  0
   21.5618   -9.4878   -7.1809 C   0  0  0  0  0  0  0  0  0  0  0  0
   22.3336   -9.4620   -6.0259 C   0  0  0  0  0  0  0  0  0  0  0  0
   22.6340  -10.3948   -5.0547 C   0  0  0  0  0  0  0  0  0  0  0  0
   23.4556  -10.0412   -4.0056 C   0  0  0  0  0  0  0  0  0  0  0  0
   24.8210   -8.4734   -2.8044 C   0  0  0  0  0  0  0  0  0  0  0  0
   22.8479   -8.1640   -5.9648 C   0  0  0  0  0  0  0  0  0  0  0  0
   22.2534  -14.1181   -5.3519 C   0  0  0  0  0  0  0  0  0  0  0  0
   20.1029  -13.0439   -5.4955 C   0  0  0  0  0  0  0  0  0  0  0  0
   18.5747  -10.5877   -5.4236 C   0  0  0  0  0  0  0  0  0  0  0  0
   16.5159  -10.7292   -6.6890 C   0  0  0  0  0  0  0  0  0  0  0  0
   15.7773  -10.3870   -5.5745 C   0  0  0  0  0  0  0  0  0  0  0  0
   16.4372  -10.1444   -4.3813 C   0  0  0  0  0  0  0  0  0  0  0  0
   18.5693   -9.9920   -3.0472 C   0  0  0  0  0  0  0  0  0  0  0  0
   22.7797  -16.2302   -4.1491 C   0  0  0  0  0  0  0  0  0  0  0  0
   20.0964   -8.6916   -9.7720 N   0  0  0  0  0  0  0  0  0  0  0  0
   18.6284   -9.4858  -11.4865 C   0  0  0  0  0  0  0  0  0  0  0  0
   21.1116   -6.6703   -9.4846 O   0  0  0  0  0  0  0  0  0  0  0  0
   19.4449   -8.2864  -10.9999 C   0  0  0  0  0  0  0  0  0  0  0  0
   22.0498  -11.7208   -5.2061 C   0  0  0  0  0  0  0  0  0  0  0  0
   22.8109  -12.8610   -5.2081 C   0  0  0  0  0  0  0  0  0  0  0  0
   20.8861  -14.1865   -5.4954 C   0  0  0  0  0  0  0  0  0  0  0  0
   20.6880  -11.8146   -5.3507 C   0  0  0  0  0  0  0  0  0  0  0  0
   17.8931  -10.8238   -6.5980 C   0  0  0  0  0  0  0  0  0  0  0  0
   18.6765  -11.1890   -7.7888 C   0  0  0  0  0  0  0  0  0  0  0  0
   20.9468   -7.8310   -9.0295 C   0  0  0  0  0  0  0  0  0  0  0  0
   17.8318  -10.2462   -4.3130 C   0  0  0  0  0  0  0  0  0  0  0  0
   23.0642  -15.3635   -5.3562 C   0  0  1  0  0  0  0  0  0  0  0  0
   22.7702  -16.1707   -6.6022 C   0  0  0  0  0  0  0  0  0  0  0  0
   21.6062   -8.2561   -7.7951 C   0  0  0  0  0  0  0  0  0  0  0  0
   23.6646   -7.8815   -4.8839 C   0  0  0  0  0  0  0  0  0  0  0  0
   14.4222  -10.2764   -5.5937 F   0  0  0  0  0  0  0  0  0  0  0  0
   22.3947   -7.4880   -7.0253 N   0  0  0  0  0  0  0  0  0  0  0  0
   24.1402   -6.7130   -4.8098 O   0  0  0  0  0  0  0  0  0  0  0  0
   19.9350  -10.6849   -5.3487 O   0  0  0  0  0  0  0  0  0  0  0  0
   24.4329  -15.0862   -5.3477 O   0  0  0  0  0  0  0  0  0  0  0  0
  5  1  1  0
  6  1  1  1
 31  1  1  0
  2  3  1  0
 30  2  2  0
  3  4  1  0
  3  7  2  0
  4  5  2  0
  4 20  1  0
  7 31  1  0
  7 33  1  0
 21  8  2  0
  8 22  1  0
  8 28  1  0
  9 22  2  0
 23  9  1  0
 10 24  2  0
 10 27  1  0
 35 10  1  0
 11 12  2  0
 24 11  1  0
 13 12  1  0
 12 32  1  0
 27 13  2  0
 14 27  1  1
 15 28  1  1
 19 16  1  1
 26 16  1  0
 17 19  1  1
 26 18  2  0
 20 21  1  0
 20 23  2  0
 23 35  1  0
 25 24  1  1
 26 30  1  0
 29 28  1  1
 28 36  1  6
 30 33  1  0
 31 34  2  0
M  END
$$$$
