
     RDKit          3D

 36 39  0  0  0  0  0  0  0  0999 V2000
   24.1964   -8.7952   -4.0185 N   0  0  0  0  0  0  0  0  0  0  0  0
   21.9178   -9.6077   -7.3829 C   0  0  0  0  0  0  0  0  0  0  0  0
   22.6330   -9.5193   -6.2080 C   0  0  0  0  0  0  0  0  0  0  0  0
   22.8716  -10.3992   -5.1679 C   0  0  0  0  0  0  0  0  0  0  0  0
   23.6554  -10.0253   -4.0780 C   0  0  0  0  0  0  0  0  0  0  0  0
   25.0237   -8.3964   -2.8709 C   0  0  0  0  0  0  0  0  0  0  0  0
   23.1869   -8.2743   -6.1370 C   0  0  0  0  0  0  0  0  0  0  0  0
   22.4203  -14.1428   -5.2453 C   0  0  0  0  0  0  0  0  0  0  0  0
   20.2951  -13.0587   -5.5501 C   0  0  0  0  0  0  0  0  0  0  0  0
   18.7689  -10.7060   -5.4483 C   0  0  0  0  0  0  0  0  0  0  0  0
   16.7501  -10.6349   -4.2160 C   0  0  0  0  0  0  0  0  0  0  0  0
   15.9865  -10.8072   -5.3566 C   0  0  0  0  0  0  0  0  0  0  0  0
   16.6654  -10.9270   -6.5449 C   0  0  0  0  0  0  0  0  0  0  0  0
   18.7014  -11.0187   -7.9492 C   0  0  0  0  0  0  0  0  0  0  0  0
   24.1134  -15.5976   -6.3201 C   0  0  0  0  0  0  0  0  0  0  0  0
   20.5864   -8.9917   -9.9975 N   0  0  0  0  0  0  0  0  0  0  0  0
   20.4961   -9.6175  -12.3689 C   0  0  0  0  0  0  0  0  0  0  0  0
   21.6469   -6.9580   -9.8532 O   0  0  0  0  0  0  0  0  0  0  0  0
   20.0093   -8.6775  -11.2800 C   0  0  0  0  0  0  0  0  0  0  0  0
   22.2726  -11.7260   -5.2590 C   0  0  0  0  0  0  0  0  0  0  0  0
   22.9878  -12.8947   -5.1590 C   0  0  0  0  0  0  0  0  0  0  0  0
   21.0581  -14.2266   -5.4431 C   0  0  0  0  0  0  0  0  0  0  0  0
   20.9111  -11.8280   -5.4568 C   0  0  0  0  0  0  0  0  0  0  0  0
   18.1075  -10.5823   -4.2346 C   0  0  0  0  0  0  0  0  0  0  0  0
   18.9400  -10.3966   -3.0081 C   0  0  0  0  0  0  0  0  0  0  0  0
   21.4292   -8.0599   -9.3317 C   0  0  0  0  0  0  0  0  0  0  0  0
   18.0413  -10.8812   -6.6242 C   0  0  0  0  0  0  0  0  0  0  0  0
   23.1921  -15.4086   -5.1374 C   0  0  1  0  0  0  0  0  0  0  0  0
   24.0305  -15.4452   -3.8790 C   0  0  0  0  0  0  0  0  0  0  0  0
   22.0401   -8.3976   -8.0337 C   0  0  0  0  0  0  0  0  0  0  0  0
   23.9567   -7.9506   -5.0354 C   0  0  0  0  0  0  0  0  0  0  0  0
   14.6219  -10.8535   -5.2845 F   0  0  0  0  0  0  0  0  0  0  0  0
   22.8081   -7.6218   -7.2576 N   0  0  0  0  0  0  0  0  0  0  0  0
   24.4717   -6.8044   -4.9609 O   0  0  0  0  0  0  0  0  0  0  0  0
   20.1350  -10.6652   -5.5656 O   0  0  0  0  0  0  0  0  0  0  0  0
   22.3333  -16.5009   -5.0919 O   0  0  0  0  0  0  0  0  0  0  0  0
  5  1  1  0
  1  6  1  0
 31  1  1  0
  2  3  1  0
 30  2  2  0
  3  4  1  0
  3  7  2  0
  4  5  2  0
  4 20  1  0
  7 31  1  0
  7 33  1  0
 21  8  2  0
  8 22  1  0
  8 28  1  0
  9 22  2  0
 23  9  1  0
 10 24  2  0
 10 27  1  0
 35 10  1  0
 11 12  2  0
 24 11  1  0
 13 12  1  0
 12 32  1  0
 27 13  2  0
 27 14  1  0
 28 15  1  6
 16 19  1  0
 26 16  1  0
 19 17  1  0
 26 18  2  0
 20 21  1  0
 20 23  2  0
 23 35  1  0
 24 25  1  0
 26 30  1  0
 28 29  1  0
 28 36  1  0
 30 33  1  0
 31 34  2  0
M  END
$$$$
