
     RDKit          3D

 36 39  0  0  0  0  0  0  0  0999 V2000
   24.1180   -8.7357   -3.9768 N   0  0  0  0  0  0  0  0  0  0  0  0
   21.3519   -9.3682   -6.9967 C   0  0  0  0  0  0  0  0  0  0  0  0
   22.1720   -9.2916   -5.8917 C   0  0  0  0  0  0  0  0  0  0  0  0
   22.1831   -9.9317   -4.6655 C   0  0  0  0  0  0  0  0  0  0  0  0
   23.1618   -9.6450   -3.7159 C   0  0  0  0  0  0  0  0  0  0  0  0
   25.1524   -8.4300   -2.9782 C   0  0  0  0  0  0  0  0  0  0  0  0
   23.1468   -8.3712   -6.1454 C   0  0  0  0  0  0  0  0  0  0  0  0
   19.0151  -11.5723   -3.4423 C   0  0  0  0  0  0  0  0  0  0  0  0
   20.3133  -13.1503   -4.7108 C   0  0  0  0  0  0  0  0  0  0  0  0
   22.6313  -13.7868   -6.1259 C   0  0  0  0  0  0  0  0  0  0  0  0
   23.5383  -15.9653   -5.9504 C   0  0  0  0  0  0  0  0  0  0  0  0
   22.9912  -16.3475   -7.1622 C   0  0  0  0  0  0  0  0  0  0  0  0
   22.2575  -15.4021   -7.8368 C   0  0  0  0  0  0  0  0  0  0  0  0
   21.2533  -13.1607   -8.1424 C   0  0  0  0  0  0  0  0  0  0  0  0
   17.9067  -11.8002   -1.2382 C   0  0  0  0  0  0  0  0  0  0  0  0
   20.1182   -8.9784   -9.7008 N   0  0  0  0  0  0  0  0  0  0  0  0
   18.6605   -9.8990  -11.4474 C   0  0  0  0  0  0  0  0  0  0  0  0
   21.7565   -7.3993  -10.0229 O   0  0  0  0  0  0  0  0  0  0  0  0
   19.5421   -8.7458  -11.0009 C   0  0  0  0  0  0  0  0  0  0  0  0
   21.1344  -10.9128   -4.4100 C   0  0  0  0  0  0  0  0  0  0  0  0
   20.0009  -10.6458   -3.6811 C   0  0  0  0  0  0  0  0  0  0  0  0
   19.1724  -12.8396   -3.9629 C   0  0  0  0  0  0  0  0  0  0  0  0
   21.2758  -12.1854   -4.9234 C   0  0  0  0  0  0  0  0  0  0  0  0
   23.3772  -14.7233   -5.4242 C   0  0  0  0  0  0  0  0  0  0  0  0
   23.9642  -14.3019   -4.1166 C   0  0  0  0  0  0  0  0  0  0  0  0
   21.2559   -8.2435   -9.2678 C   0  0  0  0  0  0  0  0  0  0  0  0
   22.0607  -14.1266   -7.3515 C   0  0  0  0  0  0  0  0  0  0  0  0
   17.7878  -11.2857   -2.6540 C   0  0  1  0  0  0  0  0  0  0  0  0
   17.4988   -9.8024   -2.5914 C   0  0  0  0  0  0  0  0  0  0  0  0
   21.8371   -8.4805   -7.9344 C   0  0  0  0  0  0  0  0  0  0  0  0
   24.0956   -8.1215   -5.1715 C   0  0  0  0  0  0  0  0  0  0  0  0
   23.1828  -17.6109   -7.6488 F   0  0  0  0  0  0  0  0  0  0  0  0
   22.9144   -7.8999   -7.3899 N   0  0  0  0  0  0  0  0  0  0  0  0
   24.9988   -7.2740   -5.3964 O   0  0  0  0  0  0  0  0  0  0  0  0
   22.4145  -12.5097   -5.6747 O   0  0  0  0  0  0  0  0  0  0  0  0
   16.6820  -11.8965   -3.2342 O   0  0  0  0  0  0  0  0  0  0  0  0
  5  1  1  0
  1  6  1  0
 31  1  1  0
  2  3  1  0
 30  2  2  0
  3  4  1  0
  3  7  2  0
  4  5  2  0
  4 20  1  0
  7 31  1  0
  7 33  1  0
 21  8  2  0
  8 22  1  0
  8 28  1  0
  9 22  2  0
 23  9  1  0
 10 24  2  0
 10 27  1  0
 35 10  1  0
 11 12  2  0
 24 11  1  0
 13 12  1  0
 12 32  1  0
 27 13  2  0
 27 14  1  0
 28 15  1  1
 16 19  1  0
 26 16  1  0
 19 17  1  0
 26 18  2  0
 20 21  1  0
 20 23  2  0
 23 35  1  0
 24 25  1  0
 26 30  1  0
 28 29  1  0
 28 36  1  0
 30 33  1  0
 31 34  2  0
M  END
$$$$
