
     RDKit          3D

 36 39  0  0  0  0  0  0  0  0999 V2000
   22.6589   -8.2694   -7.8936 N   0  0  0  0  0  0  0  0  0  0  0  0
   23.6362  -10.0953   -4.3044 C   0  0  0  0  0  0  0  0  0  0  0  0
   23.1983   -9.6436   -5.5307 C   0  0  0  0  0  0  0  0  0  0  0  0
   22.3367  -10.1557   -6.4840 C   0  0  0  0  0  0  0  0  0  0  0  0
   22.0749   -9.4588   -7.6620 C   0  0  0  0  0  0  0  0  0  0  0  0
   22.3858   -7.5308   -9.1347 C   0  0  0  0  0  0  0  0  0  0  0  0
   23.7850   -8.4364   -5.7764 C   0  0  0  0  0  0  0  0  0  0  0  0
   21.8078  -13.8567   -5.9866 C   0  0  0  0  0  0  0  0  0  0  0  0
   19.7443  -12.6800   -5.6096 C   0  0  0  0  0  0  0  0  0  0  0  0
   18.2735  -10.3035   -5.7250 C   0  0  0  0  0  0  0  0  0  0  0  0
   16.2398  -10.1638   -4.5233 C   0  0  0  0  0  0  0  0  0  0  0  0
   15.4886  -10.3467   -5.6705 C   0  0  0  0  0  0  0  0  0  0  0  0
   16.1811  -10.5073   -6.8460 C   0  0  0  0  0  0  0  0  0  0  0  0
   18.2339  -10.6719   -8.2190 C   0  0  0  0  0  0  0  0  0  0  0  0
   22.6056  -15.7960   -4.6672 C   0  0  0  0  0  0  0  0  0  0  0  0
   24.9395  -10.3075   -1.6117 N   0  0  0  0  0  0  0  0  0  0  0  0
   26.1893  -11.8387   -0.1569 C   0  0  0  0  0  0  0  0  0  0  0  0
   26.0232   -8.3635   -2.1844 O   0  0  0  0  0  0  0  0  0  0  0  0
   25.6658  -10.4296   -0.3733 C   0  0  0  0  0  0  0  0  0  0  0  0
   21.7178  -11.4470   -6.2063 C   0  0  0  0  0  0  0  0  0  0  0  0
   22.3939  -12.6422   -6.2488 C   0  0  0  0  0  0  0  0  0  0  0  0
   20.4674  -13.8767   -5.6632 C   0  0  0  0  0  0  0  0  0  0  0  0
   20.3777  -11.4851   -5.8811 C   0  0  0  0  0  0  0  0  0  0  0  0
   17.5981  -10.1389   -4.5240 C   0  0  0  0  0  0  0  0  0  0  0  0
   18.4174   -9.9420   -3.2903 C   0  0  0  0  0  0  0  0  0  0  0  0
   25.2005   -9.2320   -2.5045 C   0  0  0  0  0  0  0  0  0  0  0  0
   17.5586  -10.4909   -6.9069 C   0  0  0  0  0  0  0  0  0  0  0  0
   22.5373  -15.1510   -6.0320 C   0  0  1  0  0  0  0  0  0  0  0  0
   21.8801  -16.1288   -6.9806 C   0  0  0  0  0  0  0  0  0  0  0  0
   24.5014   -9.1473   -3.7992 C   0  0  0  0  0  0  0  0  0  0  0  0
   23.4935   -7.7837   -6.9596 C   0  0  0  0  0  0  0  0  0  0  0  0
   14.1224  -10.3638   -5.6166 F   0  0  0  0  0  0  0  0  0  0  0  0
   24.5671   -8.1660   -4.7085 N   0  0  0  0  0  0  0  0  0  0  0  0
   24.0299   -6.6695   -7.1950 O   0  0  0  0  0  0  0  0  0  0  0  0
   19.6416  -10.2930   -5.8239 O   0  0  0  0  0  0  0  0  0  0  0  0
   23.8411  -14.9605   -6.4751 O   0  0  0  0  0  0  0  0  0  0  0  0
  5  1  1  0
  1  6  1  0
 31  1  1  0
  2  3  1  0
 30  2  2  0
  3  4  1  0
  3  7  2  0
  4  5  2  0
  4 20  1  0
  7 31  1  0
  7 33  1  0
 21  8  2  0
  8 22  1  0
  8 28  1  0
  9 22  2  0
 23  9  1  0
 10 24  2  0
 10 27  1  0
 35 10  1  0
 11 12  2  0
 24 11  1  0
 13 12  1  0
 12 32  1  0
 27 13  2  0
 27 14  1  0
 28 15  1  1
 16 19  1  0
 26 16  1  0
 19 17  1  0
 26 18  2  0
 20 21  1  0
 20 23  2  0
 23 35  1  0
 24 25  1  0
 26 30  1  0
 28 29  1  0
 28 36  1  0
 30 33  1  0
 31 34  2  0
M  END
$$$$
