
     RDKit          3D

 36 39  0  0  0  0  0  0  0  0999 V2000
   24.1921   -8.5119   -4.1837 N   0  0  0  0  0  0  0  0  0  0  0  0
   21.7149   -9.2247   -7.4282 C   0  0  0  0  0  0  0  0  0  0  0  0
   22.4918   -9.1677   -6.2912 C   0  0  0  0  0  0  0  0  0  0  0  0
   22.7473  -10.0588   -5.2646 C   0  0  0  0  0  0  0  0  0  0  0  0
   23.5997   -9.7191   -4.2158 C   0  0  0  0  0  0  0  0  0  0  0  0
   25.0919   -8.1491   -3.0795 C   0  0  0  0  0  0  0  0  0  0  0  0
   23.0982   -7.9461   -6.2481 C   0  0  0  0  0  0  0  0  0  0  0  0
   22.1452  -13.7809   -5.3566 C   0  0  0  0  0  0  0  0  0  0  0  0
   20.0465  -12.6121   -5.4750 C   0  0  0  0  0  0  0  0  0  0  0  0
   18.6097  -10.2195   -5.3696 C   0  0  0  0  0  0  0  0  0  0  0  0
   16.5574  -10.2099   -4.1919 C   0  0  0  0  0  0  0  0  0  0  0  0
   15.8240  -10.2322   -5.3646 C   0  0  0  0  0  0  0  0  0  0  0  0
   16.5348  -10.2479   -6.5401 C   0  0  0  0  0  0  0  0  0  0  0  0
   18.6089  -10.2602   -7.8906 C   0  0  0  0  0  0  0  0  0  0  0  0
   23.0595  -15.5759   -3.9143 C   0  0  0  0  0  0  0  0  0  0  0  0
   20.3774   -8.5964  -10.0370 N   0  0  0  0  0  0  0  0  0  0  0  0
   18.2366   -8.3311  -11.2072 C   0  0  0  0  0  0  0  0  0  0  0  0
   21.3393   -6.5202   -9.8241 O   0  0  0  0  0  0  0  0  0  0  0  0
   19.7510   -8.2541  -11.2887 C   0  0  0  0  0  0  0  0  0  0  0  0
   22.0914  -11.3603   -5.3254 C   0  0  0  0  0  0  0  0  0  0  0  0
   22.7662  -12.5568   -5.2991 C   0  0  0  0  0  0  0  0  0  0  0  0
   20.7694  -13.8097   -5.4456 C   0  0  0  0  0  0  0  0  0  0  0  0
   20.7156  -11.4074   -5.4146 C   0  0  0  0  0  0  0  0  0  0  0  0
   17.9157  -10.2032   -4.1681 C   0  0  0  0  0  0  0  0  0  0  0  0
   18.7157  -10.1792   -2.9066 C   0  0  0  0  0  0  0  0  0  0  0  0
   21.1908   -7.6543   -9.3495 C   0  0  0  0  0  0  0  0  0  0  0  0
   17.9132  -10.2422   -6.5768 C   0  0  0  0  0  0  0  0  0  0  0  0
   22.8731  -15.0766   -5.3283 C   0  0  1  0  0  0  0  0  0  0  0  0
   22.1414  -16.1447   -6.1104 C   0  0  0  0  0  0  0  0  0  0  0  0
   21.8527   -8.0191   -8.0842 C   0  0  0  0  0  0  0  0  0  0  0  0
   23.9353   -7.6561   -5.1869 C   0  0  0  0  0  0  0  0  0  0  0  0
   14.4570  -10.2380   -5.3348 F   0  0  0  0  0  0  0  0  0  0  0  0
   22.6896   -7.2765   -7.3480 N   0  0  0  0  0  0  0  0  0  0  0  0
   24.4991   -6.5317   -5.1385 O   0  0  0  0  0  0  0  0  0  0  0  0
   19.9794  -10.2144   -5.4450 O   0  0  0  0  0  0  0  0  0  0  0  0
   24.1339  -14.9400   -5.8980 O   0  0  0  0  0  0  0  0  0  0  0  0
  5  1  1  0
  1  6  1  0
 31  1  1  0
  2  3  1  0
 30  2  2  0
  3  4  1  0
  3  7  2  0
  4  5  2  0
  4 20  1  0
  7 31  1  0
  7 33  1  0
 21  8  2  0
  8 22  1  0
  8 28  1  0
  9 22  2  0
 23  9  1  0
 10 24  2  0
 10 27  1  0
 35 10  1  0
 11 12  2  0
 24 11  1  0
 13 12  1  0
 12 32  1  0
 27 13  2  0
 27 14  1  0
 28 15  1  1
 16 19  1  0
 26 16  1  0
 19 17  1  0
 26 18  2  0
 20 21  1  0
 20 23  2  0
 23 35  1  0
 24 25  1  0
 26 30  1  0
 28 29  1  0
 28 36  1  0
 30 33  1  0
 31 34  2  0
M  END
$$$$
