
     RDKit          3D

 36 39  0  0  0  0  0  0  0  0999 V2000
   23.8821   -8.7979   -4.1065 N   0  0  0  0  0  0  0  0  0  0  0  0
   21.6286   -9.5324   -7.5056 C   0  0  0  0  0  0  0  0  0  0  0  0
   22.3302   -9.4691   -6.3210 C   0  0  0  0  0  0  0  0  0  0  0  0
   22.5332  -10.3612   -5.2835 C   0  0  0  0  0  0  0  0  0  0  0  0
   23.3115  -10.0137   -4.1811 C   0  0  0  0  0  0  0  0  0  0  0  0
   24.7039   -8.4269   -2.9457 C   0  0  0  0  0  0  0  0  0  0  0  0
   22.9138   -8.2388   -6.2346 C   0  0  0  0  0  0  0  0  0  0  0  0
   21.9712  -14.0906   -5.2963 C   0  0  0  0  0  0  0  0  0  0  0  0
   19.9175  -12.9546   -5.8221 C   0  0  0  0  0  0  0  0  0  0  0  0
   18.4794  -10.5106   -5.7220 C   0  0  0  0  0  0  0  0  0  0  0  0
   16.5441  -10.3617   -4.3686 C   0  0  0  0  0  0  0  0  0  0  0  0
   15.7067  -10.4227   -5.4680 C   0  0  0  0  0  0  0  0  0  0  0  0
   16.3067  -10.5293   -6.6992 C   0  0  0  0  0  0  0  0  0  0  0  0
   18.2478  -10.6913   -8.2261 C   0  0  0  0  0  0  0  0  0  0  0  0
   24.1801  -15.1606   -4.9582 C   0  0  0  0  0  0  0  0  0  0  0  0
   20.3994   -8.8914  -10.1633 N   0  0  0  0  0  0  0  0  0  0  0  0
   18.9031   -9.6313  -11.9623 C   0  0  0  0  0  0  0  0  0  0  0  0
   21.4105   -6.8403   -9.9355 O   0  0  0  0  0  0  0  0  0  0  0  0
   19.8201   -8.5415  -11.4354 C   0  0  0  0  0  0  0  0  0  0  0  0
   21.9026  -11.6721   -5.3911 C   0  0  0  0  0  0  0  0  0  0  0  0
   22.5683  -12.8576   -5.1941 C   0  0  0  0  0  0  0  0  0  0  0  0
   20.6302  -14.1405   -5.6139 C   0  0  0  0  0  0  0  0  0  0  0  0
   20.5617  -11.7402   -5.7081 C   0  0  0  0  0  0  0  0  0  0  0  0
   17.8985  -10.4027   -4.4664 C   0  0  0  0  0  0  0  0  0  0  0  0
   18.8104  -10.3375   -3.2848 C   0  0  0  0  0  0  0  0  0  0  0  0
   21.2043   -7.9609   -9.4504 C   0  0  0  0  0  0  0  0  0  0  0  0
   17.6755  -10.5752   -6.8589 C   0  0  0  0  0  0  0  0  0  0  0  0
   22.6895  -15.3745   -5.0836 C   0  0  1  0  0  0  0  0  0  0  0  0
   22.2104  -16.0815   -3.8352 C   0  0  0  0  0  0  0  0  0  0  0  0
   21.7895   -8.3218   -8.1468 C   0  0  0  0  0  0  0  0  0  0  0  0
   23.6769   -7.9412   -5.1209 C   0  0  0  0  0  0  0  0  0  0  0  0
   14.3485  -10.3776   -5.3161 F   0  0  0  0  0  0  0  0  0  0  0  0
   22.5662   -7.5701   -7.3557 N   0  0  0  0  0  0  0  0  0  0  0  0
   24.2192   -6.8088   -5.0323 O   0  0  0  0  0  0  0  0  0  0  0  0
   19.8361  -10.5591   -5.9193 O   0  0  0  0  0  0  0  0  0  0  0  0
   22.4746  -16.2363   -6.1530 O   0  0  0  0  0  0  0  0  0  0  0  0
  5  1  1  0
  1  6  1  0
 31  1  1  0
  2  3  1  0
 30  2  2  0
  3  4  1  0
  3  7  2  0
  4  5  2  0
  4 20  1  0
  7 31  1  0
  7 33  1  0
 21  8  2  0
  8 22  1  0
  8 28  1  0
  9 22  2  0
 23  9  1  0
 10 24  2  0
 10 27  1  0
 35 10  1  0
 11 12  2  0
 24 11  1  0
 13 12  1  0
 12 32  1  0
 27 13  2  0
 27 14  1  0
 28 15  1  1
 16 19  1  0
 26 16  1  0
 19 17  1  0
 26 18  2  0
 20 21  1  0
 20 23  2  0
 23 35  1  0
 24 25  1  0
 26 30  1  0
 28 29  1  0
 28 36  1  0
 30 33  1  0
 31 34  2  0
M  END
$$$$
