
     RDKit          3D

 36 39  0  0  0  0  0  0  0  0999 V2000
   23.9555   -8.7964   -4.2254 N   0  0  0  0  0  0  0  0  0  0  0  0
   21.1552   -9.0438   -7.2698 C   0  0  0  0  0  0  0  0  0  0  0  0
   21.9919   -9.1117   -6.1767 C   0  0  0  0  0  0  0  0  0  0  0  0
   22.0403   -9.9286   -5.0616 C   0  0  0  0  0  0  0  0  0  0  0  0
   23.0274   -9.7611   -4.0923 C   0  0  0  0  0  0  0  0  0  0  0  0
   24.9986   -8.6160   -3.2056 C   0  0  0  0  0  0  0  0  0  0  0  0
   22.9383   -8.1367   -6.3011 C   0  0  0  0  0  0  0  0  0  0  0  0
   18.7215  -11.6852   -4.7085 C   0  0  0  0  0  0  0  0  0  0  0  0
   20.4921  -13.3071   -4.8467 C   0  0  0  0  0  0  0  0  0  0  0  0
   23.2057  -13.9101   -5.0628 C   0  0  0  0  0  0  0  0  0  0  0  0
   24.1938  -15.7965   -4.0312 C   0  0  0  0  0  0  0  0  0  0  0  0
   24.0341  -16.5677   -5.1685 C   0  0  0  0  0  0  0  0  0  0  0  0
   23.4449  -15.9610   -6.2512 C   0  0  0  0  0  0  0  0  0  0  0  0
   22.3947  -14.0643   -7.4451 C   0  0  0  0  0  0  0  0  0  0  0  0
   16.4756  -12.0482   -5.6896 C   0  0  0  0  0  0  0  0  0  0  0  0
   19.8612   -8.2809   -9.8639 N   0  0  0  0  0  0  0  0  0  0  0  0
   18.7724   -9.0934  -11.9077 C   0  0  0  0  0  0  0  0  0  0  0  0
   21.4617   -6.6352   -9.9723 O   0  0  0  0  0  0  0  0  0  0  0  0
   19.2804   -7.8953  -11.1250 C   0  0  0  0  0  0  0  0  0  0  0  0
   21.0216  -10.9659   -4.9434 C   0  0  0  0  0  0  0  0  0  0  0  0
   19.6784  -10.7057   -4.8196 C   0  0  0  0  0  0  0  0  0  0  0  0
   19.1324  -13.0015   -4.7222 C   0  0  0  0  0  0  0  0  0  0  0  0
   21.4153  -12.2880   -4.9553 C   0  0  0  0  0  0  0  0  0  0  0  0
   23.7983  -14.4991   -3.9548 C   0  0  0  0  0  0  0  0  0  0  0  0
   23.9668  -13.6589   -2.7310 C   0  0  0  0  0  0  0  0  0  0  0  0
   20.9917   -7.5929   -9.3436 C   0  0  0  0  0  0  0  0  0  0  0  0
   23.0240  -14.6481   -6.2312 C   0  0  0  0  0  0  0  0  0  0  0  0
   17.2677  -11.4060   -4.5744 C   0  0  1  0  0  0  0  0  0  0  0  0
   16.7213  -11.9135   -3.2585 C   0  0  0  0  0  0  0  0  0  0  0  0
   21.6015   -8.0118   -8.0689 C   0  0  0  0  0  0  0  0  0  0  0  0
   23.8969   -8.0102   -5.3131 C   0  0  0  0  0  0  0  0  0  0  0  0
   24.4495  -17.8701   -5.1946 F   0  0  0  0  0  0  0  0  0  0  0  0
   22.6727   -7.4900   -7.4571 N   0  0  0  0  0  0  0  0  0  0  0  0
   24.7741   -7.1136   -5.4192 O   0  0  0  0  0  0  0  0  0  0  0  0
   22.7749  -12.6078   -5.0796 O   0  0  0  0  0  0  0  0  0  0  0  0
   17.0279  -10.0374   -4.6195 O   0  0  0  0  0  0  0  0  0  0  0  0
  5  1  1  0
  1  6  1  0
 31  1  1  0
  2  3  1  0
 30  2  2  0
  3  4  1  0
  3  7  2  0
  4  5  2  0
  4 20  1  0
  7 31  1  0
  7 33  1  0
 21  8  2  0
  8 22  1  0
  8 28  1  0
  9 22  2  0
 23  9  1  0
 10 24  2  0
 10 27  1  0
 35 10  1  0
 11 12  2  0
 24 11  1  0
 13 12  1  0
 12 32  1  0
 27 13  2  0
 27 14  1  0
 28 15  1  6
 16 19  1  0
 26 16  1  0
 19 17  1  0
 26 18  2  0
 20 21  1  0
 20 23  2  0
 23 35  1  0
 24 25  1  0
 26 30  1  0
 28 29  1  0
 28 36  1  0
 30 33  1  0
 31 34  2  0
M  END
$$$$
