
     RDKit          3D

 36 39  0  0  0  0  0  0  0  0999 V2000
   23.6321   -8.7502   -4.6350 N   0  0  0  0  0  0  0  0  0  0  0  0
   20.8971   -9.0025   -7.7378 C   0  0  0  0  0  0  0  0  0  0  0  0
   21.7154   -9.0738   -6.6310 C   0  0  0  0  0  0  0  0  0  0  0  0
   21.7694   -9.9186   -5.5372 C   0  0  0  0  0  0  0  0  0  0  0  0
   22.7328   -9.7466   -4.5452 C   0  0  0  0  0  0  0  0  0  0  0  0
   24.6502   -8.5649   -3.5911 C   0  0  0  0  0  0  0  0  0  0  0  0
   22.6326   -8.0667   -6.7116 C   0  0  0  0  0  0  0  0  0  0  0  0
   18.5017  -11.7867   -5.2991 C   0  0  0  0  0  0  0  0  0  0  0  0
   20.3258  -13.3483   -5.4356 C   0  0  0  0  0  0  0  0  0  0  0  0
   23.0795  -13.8396   -5.4141 C   0  0  0  0  0  0  0  0  0  0  0  0
   24.0259  -15.5681   -4.1041 C   0  0  0  0  0  0  0  0  0  0  0  0
   24.0467  -16.4413   -5.1768 C   0  0  0  0  0  0  0  0  0  0  0  0
   23.5660  -15.9658   -6.3727 C   0  0  0  0  0  0  0  0  0  0  0  0
   22.5777  -14.2447   -7.8515 C   0  0  0  0  0  0  0  0  0  0  0  0
   16.6361  -11.1973   -3.7790 C   0  0  0  0  0  0  0  0  0  0  0  0
   21.2474   -6.3786  -10.4734 N   0  0  0  0  0  0  0  0  0  0  0  0
   20.7681   -4.3973  -11.8401 C   0  0  0  0  0  0  0  0  0  0  0  0
   19.7594   -8.1154  -10.2484 O   0  0  0  0  0  0  0  0  0  0  0  0
   20.6141   -5.8991  -11.6756 C   0  0  0  0  0  0  0  0  0  0  0  0
   20.7821  -10.9900   -5.4659 C   0  0  0  0  0  0  0  0  0  0  0  0
   19.4288  -10.7752   -5.3660 C   0  0  0  0  0  0  0  0  0  0  0  0
   18.9546  -13.0888   -5.3343 C   0  0  0  0  0  0  0  0  0  0  0  0
   21.2180  -12.2984   -5.4999 C   0  0  0  0  0  0  0  0  0  0  0  0
   23.5596  -14.2953   -4.1945 C   0  0  0  0  0  0  0  0  0  0  0  0
   23.5334  -13.3455   -3.0415 C   0  0  0  0  0  0  0  0  0  0  0  0
   20.7255   -7.5020   -9.7752 C   0  0  0  0  0  0  0  0  0  0  0  0
   23.0806  -14.6840   -6.5232 C   0  0  0  0  0  0  0  0  0  0  0  0
   17.0371  -11.5568   -5.1909 C   0  0  1  0  0  0  0  0  0  0  0  0
   16.5781  -10.4439   -6.1066 C   0  0  0  0  0  0  0  0  0  0  0  0
   21.3249   -7.9359   -8.5007 C   0  0  0  0  0  0  0  0  0  0  0  0
   23.5685   -7.9371   -5.7025 C   0  0  0  0  0  0  0  0  0  0  0  0
   24.5267  -17.7136   -5.0339 F   0  0  0  0  0  0  0  0  0  0  0  0
   22.3677   -7.3976   -7.8549 N   0  0  0  0  0  0  0  0  0  0  0  0
   24.4186   -7.0110   -5.7681 O   0  0  0  0  0  0  0  0  0  0  0  0
   22.5895  -12.5721   -5.6013 O   0  0  0  0  0  0  0  0  0  0  0  0
   16.3359  -12.7019   -5.5509 O   0  0  0  0  0  0  0  0  0  0  0  0
  5  1  1  0
  1  6  1  0
 31  1  1  0
  2  3  1  0
 30  2  2  0
  3  4  1  0
  3  7  2  0
  4  5  2  0
  4 20  1  0
  7 31  1  0
  7 33  1  0
 21  8  2  0
  8 22  1  0
  8 28  1  0
  9 22  2  0
 23  9  1  0
 10 24  2  0
 10 27  1  0
 35 10  1  0
 11 12  2  0
 24 11  1  0
 13 12  1  0
 12 32  1  0
 27 13  2  0
 27 14  1  0
 28 15  1  1
 16 19  1  0
 26 16  1  0
 19 17  1  0
 26 18  2  0
 20 21  1  0
 20 23  2  0
 23 35  1  0
 24 25  1  0
 26 30  1  0
 28 29  1  0
 28 36  1  0
 30 33  1  0
 31 34  2  0
M  END
$$$$
