
     RDKit          3D

 36 39  0  0  0  0  0  0  0  0999 V2000
   24.2087   -8.6160   -4.3619 N   0  0  0  0  0  0  0  0  0  0  0  0
   21.4577   -8.9192   -7.4460 C   0  0  0  0  0  0  0  0  0  0  0  0
   22.2850   -8.9754   -6.3450 C   0  0  0  0  0  0  0  0  0  0  0  0
   22.3636   -9.8204   -5.2528 C   0  0  0  0  0  0  0  0  0  0  0  0
   23.3303   -9.6303   -4.2673 C   0  0  0  0  0  0  0  0  0  0  0  0
   25.2301   -8.4116   -3.3248 C   0  0  0  0  0  0  0  0  0  0  0  0
   23.1811   -7.9499   -6.4305 C   0  0  0  0  0  0  0  0  0  0  0  0
   19.1357  -11.7543   -4.9969 C   0  0  0  0  0  0  0  0  0  0  0  0
   20.9903  -13.2787   -5.1440 C   0  0  0  0  0  0  0  0  0  0  0  0
   23.7611  -13.6998   -5.0735 C   0  0  0  0  0  0  0  0  0  0  0  0
   24.5101  -15.8473   -5.7266 C   0  0  0  0  0  0  0  0  0  0  0  0
   24.8325  -16.1882   -4.4252 C   0  0  0  0  0  0  0  0  0  0  0  0
   24.5995  -15.2390   -3.4598 C   0  0  0  0  0  0  0  0  0  0  0  0
   23.8481  -13.0258   -2.6455 C   0  0  0  0  0  0  0  0  0  0  0  0
   17.3077  -10.8241   -3.6073 C   0  0  0  0  0  0  0  0  0  0  0  0
   21.6610   -6.2227  -10.1228 N   0  0  0  0  0  0  0  0  0  0  0  0
   21.9342   -4.8882  -12.1642 C   0  0  0  0  0  0  0  0  0  0  0  0
   20.3504   -8.1063   -9.9973 O   0  0  0  0  0  0  0  0  0  0  0  0
   21.0222   -5.7744  -11.3341 C   0  0  0  0  0  0  0  0  0  0  0  0
   21.3986  -10.9116   -5.1763 C   0  0  0  0  0  0  0  0  0  0  0  0
   20.0418  -10.7242   -5.0688 C   0  0  0  0  0  0  0  0  0  0  0  0
   19.6147  -13.0469   -5.0349 C   0  0  0  0  0  0  0  0  0  0  0  0
   21.8607  -12.2109   -5.2130 C   0  0  0  0  0  0  0  0  0  0  0  0
   23.9868  -14.6410   -6.0679 C   0  0  0  0  0  0  0  0  0  0  0  0
   23.6356  -14.2644   -7.4704 C   0  0  0  0  0  0  0  0  0  0  0  0
   21.2416   -7.4197   -9.4799 C   0  0  0  0  0  0  0  0  0  0  0  0
   24.0706  -13.9986   -3.7476 C   0  0  0  0  0  0  0  0  0  0  0  0
   17.6674  -11.5540   -4.8805 C   0  0  1  0  0  0  0  0  0  0  0  0
   17.1183  -10.7621   -6.0463 C   0  0  0  0  0  0  0  0  0  0  0  0
   21.8586   -7.8431   -8.2102 C   0  0  0  0  0  0  0  0  0  0  0  0
   24.1212   -7.8028   -5.4277 C   0  0  0  0  0  0  0  0  0  0  0  0
   25.3574  -17.4166   -4.1334 F   0  0  0  0  0  0  0  0  0  0  0  0
   22.8948   -7.2848   -7.5709 N   0  0  0  0  0  0  0  0  0  0  0  0
   24.9520   -6.8598   -5.4979 O   0  0  0  0  0  0  0  0  0  0  0  0
   23.2369  -12.4568   -5.3221 O   0  0  0  0  0  0  0  0  0  0  0  0
   17.0080  -12.7778   -4.8669 O   0  0  0  0  0  0  0  0  0  0  0  0
  5  1  1  0
  1  6  1  0
 31  1  1  0
  2  3  1  0
 30  2  2  0
  3  4  1  0
  3  7  2  0
  4  5  2  0
  4 20  1  0
  7 31  1  0
  7 33  1  0
 21  8  2  0
  8 22  1  0
  8 28  1  0
  9 22  2  0
 23  9  1  0
 10 24  2  0
 10 27  1  0
 35 10  1  0
 11 12  2  0
 24 11  1  0
 13 12  1  0
 12 32  1  0
 27 13  2  0
 27 14  1  0
 28 15  1  1
 16 19  1  0
 26 16  1  0
 19 17  1  0
 26 18  2  0
 20 21  1  0
 20 23  2  0
 23 35  1  0
 24 25  1  0
 26 30  1  0
 28 29  1  0
 28 36  1  0
 30 33  1  0
 31 34  2  0
M  END
$$$$
