
     RDKit          3D

 36 39  0  0  0  0  0  0  0  0999 V2000
   23.4575   -8.7555   -4.6419 N   0  0  0  0  0  0  0  0  0  0  0  0
   21.6946   -8.9828   -8.3852 C   0  0  0  0  0  0  0  0  0  0  0  0
   22.2007   -9.0817   -7.1070 C   0  0  0  0  0  0  0  0  0  0  0  0
   22.1113  -10.0438   -6.1173 C   0  0  0  0  0  0  0  0  0  0  0  0
   22.7444   -9.8692   -4.8882 C   0  0  0  0  0  0  0  0  0  0  0  0
   24.1271   -8.5669   -3.3470 C   0  0  0  0  0  0  0  0  0  0  0  0
   22.9266   -7.9562   -6.8460 C   0  0  0  0  0  0  0  0  0  0  0  0
   20.5737  -12.9808   -7.9157 C   0  0  0  0  0  0  0  0  0  0  0  0
   19.8136  -12.9326   -5.6344 C   0  0  0  0  0  0  0  0  0  0  0  0
   19.5393  -11.4570   -3.2471 C   0  0  0  0  0  0  0  0  0  0  0  0
   17.4312  -11.0032   -2.2728 C   0  0  0  0  0  0  0  0  0  0  0  0
   17.5507  -12.0641   -1.3931 C   0  0  0  0  0  0  0  0  0  0  0  0
   18.7012  -12.8104   -1.4746 C   0  0  0  0  0  0  0  0  0  0  0  0
   20.9194  -13.3921   -2.4058 C   0  0  0  0  0  0  0  0  0  0  0  0
   21.8838  -14.2669   -9.5794 C   0  0  0  0  0  0  0  0  0  0  0  0
   20.9949   -8.0331  -11.1408 N   0  0  0  0  0  0  0  0  0  0  0  0
   19.7084   -8.4312  -13.1925 C   0  0  0  0  0  0  0  0  0  0  0  0
   22.2467   -6.1761  -10.6251 O   0  0  0  0  0  0  0  0  0  0  0  0
   20.7498   -7.5805  -12.4867 C   0  0  0  0  0  0  0  0  0  0  0  0
   21.3317  -11.2409   -6.4120 C   0  0  0  0  0  0  0  0  0  0  0  0
   21.3092  -11.8533   -7.6416 C   0  0  0  0  0  0  0  0  0  0  0  0
   19.8168  -13.5274   -6.9008 C   0  0  0  0  0  0  0  0  0  0  0  0
   20.5689  -11.8008   -5.4081 C   0  0  0  0  0  0  0  0  0  0  0  0
   18.3865  -10.6870   -3.1856 C   0  0  0  0  0  0  0  0  0  0  0  0
   18.2659   -9.5433   -4.1392 C   0  0  0  0  0  0  0  0  0  0  0  0
   21.8056   -7.2722  -10.2543 C   0  0  0  0  0  0  0  0  0  0  0  0
   19.7039  -12.5363   -2.3806 C   0  0  0  0  0  0  0  0  0  0  0  0
   20.5478  -13.6451   -9.2452 C   0  0  1  0  0  0  0  0  0  0  0  0
   19.4967  -14.7310   -9.3059 C   0  0  0  0  0  0  0  0  0  0  0  0
   22.1204   -7.7789   -8.9067 C   0  0  0  0  0  0  0  0  0  0  0  0
   23.5361   -7.8292   -5.6117 C   0  0  0  0  0  0  0  0  0  0  0  0
   16.5599  -12.3411   -0.4925 F   0  0  0  0  0  0  0  0  0  0  0  0
   22.8572   -7.1894   -7.9560 N   0  0  0  0  0  0  0  0  0  0  0  0
   24.2079   -6.7944   -5.3617 O   0  0  0  0  0  0  0  0  0  0  0  0
   20.5569  -11.2144   -4.1344 O   0  0  0  0  0  0  0  0  0  0  0  0
   20.2479  -12.7256  -10.2438 O   0  0  0  0  0  0  0  0  0  0  0  0
  5  1  1  0
  1  6  1  0
 31  1  1  0
  2  3  1  0
 30  2  2  0
  3  4  1  0
  3  7  2  0
  4  5  2  0
  4 20  1  0
  7 31  1  0
  7 33  1  0
 21  8  2  0
  8 22  1  0
  8 28  1  0
  9 22  2  0
 23  9  1  0
 10 24  2  0
 10 27  1  0
 35 10  1  0
 11 12  2  0
 24 11  1  0
 13 12  1  0
 12 32  1  0
 27 13  2  0
 27 14  1  0
 28 15  1  6
 16 19  1  0
 26 16  1  0
 19 17  1  0
 26 18  2  0
 20 21  1  0
 20 23  2  0
 23 35  1  0
 24 25  1  0
 26 30  1  0
 28 29  1  0
 28 36  1  0
 30 33  1  0
 31 34  2  0
M  END
$$$$
