
     RDKit          3D

 36 39  0  0  0  0  0  0  0  0999 V2000
   23.9011   -8.7408   -4.3311 N   0  0  0  0  0  0  0  0  0  0  0  0
   21.8040   -9.2971   -7.8615 C   0  0  0  0  0  0  0  0  0  0  0  0
   22.4501   -9.2951   -6.6441 C   0  0  0  0  0  0  0  0  0  0  0  0
   22.5995  -10.2365   -5.6417 C   0  0  0  0  0  0  0  0  0  0  0  0
   23.3277   -9.9473   -4.4894 C   0  0  0  0  0  0  0  0  0  0  0  0
   24.6701   -8.4313   -3.1173 C   0  0  0  0  0  0  0  0  0  0  0  0
   23.0361   -8.0748   -6.4728 C   0  0  0  0  0  0  0  0  0  0  0  0
   22.0572  -13.9464   -6.0500 C   0  0  0  0  0  0  0  0  0  0  0  0
   19.9529  -12.7923   -6.2080 C   0  0  0  0  0  0  0  0  0  0  0  0
   18.6231  -10.3447   -5.3912 C   0  0  0  0  0  0  0  0  0  0  0  0
   16.3482   -9.7035   -5.2760 C   0  0  0  0  0  0  0  0  0  0  0  0
   16.1886  -10.2996   -4.0379 C   0  0  0  0  0  0  0  0  0  0  0  0
   17.2911  -10.9190   -3.5013 C   0  0  0  0  0  0  0  0  0  0  0  0
   19.6557  -11.6500   -3.4973 C   0  0  0  0  0  0  0  0  0  0  0  0
   22.5199  -16.0585   -4.8404 C   0  0  0  0  0  0  0  0  0  0  0  0
   20.6992   -8.5207  -10.5377 N   0  0  0  0  0  0  0  0  0  0  0  0
   19.0448   -8.9652  -12.2950 C   0  0  0  0  0  0  0  0  0  0  0  0
   21.7182   -6.4938  -10.1709 O   0  0  0  0  0  0  0  0  0  0  0  0
   20.2250   -8.1250  -11.8395 C   0  0  0  0  0  0  0  0  0  0  0  0
   21.9671  -11.5359   -5.8402 C   0  0  0  0  0  0  0  0  0  0  0  0
   22.6560  -12.7243   -5.8628 C   0  0  0  0  0  0  0  0  0  0  0  0
   20.6897  -13.9817   -6.2247 C   0  0  0  0  0  0  0  0  0  0  0  0
   20.6000  -11.5893   -6.0165 C   0  0  0  0  0  0  0  0  0  0  0  0
   17.5246   -9.7120   -5.9556 C   0  0  0  0  0  0  0  0  0  0  0  0
   17.7061   -9.0710   -7.2929 C   0  0  0  0  0  0  0  0  0  0  0  0
   21.4796   -7.6327   -9.7474 C   0  0  0  0  0  0  0  0  0  0  0  0
   18.5097  -10.9591   -4.1452 C   0  0  0  0  0  0  0  0  0  0  0  0
   22.8004  -15.2334   -6.0749 C   0  0  1  0  0  0  0  0  0  0  0  0
   22.4380  -16.0636   -7.2862 C   0  0  0  0  0  0  0  0  0  0  0  0
   22.0014   -8.0590   -8.4367 C   0  0  0  0  0  0  0  0  0  0  0  0
   23.7482   -7.8359   -5.3122 C   0  0  0  0  0  0  0  0  0  0  0  0
   14.9827  -10.2633   -3.3944 F   0  0  0  0  0  0  0  0  0  0  0  0
   22.7447   -7.3515   -7.5759 N   0  0  0  0  0  0  0  0  0  0  0  0
   24.2922   -6.7132   -5.1452 O   0  0  0  0  0  0  0  0  0  0  0  0
   19.8500  -10.4046   -6.0019 O   0  0  0  0  0  0  0  0  0  0  0  0
   24.1706  -15.0042   -6.1277 O   0  0  0  0  0  0  0  0  0  0  0  0
  5  1  1  0
  1  6  1  0
 31  1  1  0
  2  3  1  0
 30  2  2  0
  3  4  1  0
  3  7  2  0
  4  5  2  0
  4 20  1  0
  7 31  1  0
  7 33  1  0
 21  8  2  0
  8 22  1  0
  8 28  1  0
  9 22  2  0
 23  9  1  0
 10 24  2  0
 10 27  1  0
 35 10  1  0
 11 12  2  0
 24 11  1  0
 13 12  1  0
 12 32  1  0
 27 13  2  0
 27 14  1  0
 28 15  1  1
 16 19  1  0
 26 16  1  0
 19 17  1  0
 26 18  2  0
 20 21  1  0
 20 23  2  0
 23 35  1  0
 24 25  1  0
 26 30  1  0
 28 29  1  0
 28 36  1  0
 30 33  1  0
 31 34  2  0
M  END
$$$$
