
     RDKit          3D

 36 39  0  0  0  0  0  0  0  0999 V2000
   23.6869   -8.7293   -3.6579 N   0  0  0  0  0  0  0  0  0  0  0  0
   21.4259   -9.1740   -7.1019 C   0  0  0  0  0  0  0  0  0  0  0  0
   22.0700   -9.1711   -5.8834 C   0  0  0  0  0  0  0  0  0  0  0  0
   21.9267   -9.9159   -4.7268 C   0  0  0  0  0  0  0  0  0  0  0  0
   22.7416   -9.6855   -3.6201 C   0  0  0  0  0  0  0  0  0  0  0  0
   24.5488   -8.4827   -2.4930 C   0  0  0  0  0  0  0  0  0  0  0  0
   23.0321   -8.2039   -5.9104 C   0  0  0  0  0  0  0  0  0  0  0  0
   18.5771  -11.6492   -4.7419 C   0  0  0  0  0  0  0  0  0  0  0  0
   20.3400  -13.2824   -4.6446 C   0  0  0  0  0  0  0  0  0  0  0  0
   23.2427  -13.2728   -5.6477 C   0  0  0  0  0  0  0  0  0  0  0  0
   23.3689  -14.0460   -7.8805 C   0  0  0  0  0  0  0  0  0  0  0  0
   24.5783  -14.6764   -7.6492 C   0  0  0  0  0  0  0  0  0  0  0  0
   25.0954  -14.5793   -6.3802 C   0  0  0  0  0  0  0  0  0  0  0  0
   25.0850  -13.8335   -4.0202 C   0  0  0  0  0  0  0  0  0  0  0  0
   16.4680  -11.9814   -5.9988 C   0  0  0  0  0  0  0  0  0  0  0  0
   20.5897   -8.5839   -9.9195 N   0  0  0  0  0  0  0  0  0  0  0  0
   19.0155   -9.0876  -11.7336 C   0  0  0  0  0  0  0  0  0  0  0  0
   22.1899   -6.9356   -9.8595 O   0  0  0  0  0  0  0  0  0  0  0  0
   20.1277   -8.1871  -11.2254 C   0  0  0  0  0  0  0  0  0  0  0  0
   20.8939  -10.9459   -4.7141 C   0  0  0  0  0  0  0  0  0  0  0  0
   19.5473  -10.6766   -4.7540 C   0  0  0  0  0  0  0  0  0  0  0  0
   18.9773  -12.9677   -4.6866 C   0  0  0  0  0  0  0  0  0  0  0  0
   21.2768  -12.2700   -4.6589 C   0  0  0  0  0  0  0  0  0  0  0  0
   22.6985  -13.3558   -6.9215 C   0  0  0  0  0  0  0  0  0  0  0  0
   21.3921  -12.6720   -7.1622 C   0  0  0  0  0  0  0  0  0  0  0  0
   21.6192   -7.8571   -9.2607 C   0  0  0  0  0  0  0  0  0  0  0  0
   24.4596  -13.8923   -5.3677 C   0  0  0  0  0  0  0  0  0  0  0  0
   17.1196  -11.3603   -4.7851 C   0  0  1  0  0  0  0  0  0  0  0  0
   16.4111  -11.8807   -3.5543 C   0  0  0  0  0  0  0  0  0  0  0  0
   22.0066   -8.1935   -7.8792 C   0  0  0  0  0  0  0  0  0  0  0  0
   23.8153   -8.0133   -4.7874 C   0  0  0  0  0  0  0  0  0  0  0  0
   25.2138  -15.3592   -8.6491 F   0  0  0  0  0  0  0  0  0  0  0  0
   22.9663   -7.6319   -7.1325 N   0  0  0  0  0  0  0  0  0  0  0  0
   24.7055   -7.1234   -4.8028 O   0  0  0  0  0  0  0  0  0  0  0  0
   22.6392  -12.5989   -4.6165 O   0  0  0  0  0  0  0  0  0  0  0  0
   16.8958   -9.9894   -4.8403 O   0  0  0  0  0  0  0  0  0  0  0  0
  5  1  1  0
  1  6  1  0
 31  1  1  0
  2  3  1  0
 30  2  2  0
  3  4  1  0
  3  7  2  0
  4  5  2  0
  4 20  1  0
  7 31  1  0
  7 33  1  0
 21  8  2  0
  8 22  1  0
  8 28  1  0
  9 22  2  0
 23  9  1  0
 10 24  2  0
 10 27  1  0
 35 10  1  0
 11 12  2  0
 24 11  1  0
 13 12  1  0
 12 32  1  0
 27 13  2  0
 27 14  1  0
 28 15  1  6
 16 19  1  0
 26 16  1  0
 19 17  1  0
 26 18  2  0
 20 21  1  0
 20 23  2  0
 23 35  1  0
 24 25  1  0
 26 30  1  0
 28 29  1  0
 28 36  1  0
 30 33  1  0
 31 34  2  0
M  END
$$$$
