
     RDKit          3D

 36 39  0  0  0  0  0  0  0  0999 V2000
   23.7744   -8.7567   -4.1155 N   0  0  0  0  0  0  0  0  0  0  0  0
   21.4254   -9.3456   -7.4781 C   0  0  0  0  0  0  0  0  0  0  0  0
   22.1603   -9.3330   -6.3121 C   0  0  0  0  0  0  0  0  0  0  0  0
   22.3922  -10.2689   -5.3204 C   0  0  0  0  0  0  0  0  0  0  0  0
   23.2015   -9.9687   -4.2264 C   0  0  0  0  0  0  0  0  0  0  0  0
   24.6289   -8.4355   -2.9635 C   0  0  0  0  0  0  0  0  0  0  0  0
   22.7465   -8.1070   -6.1892 C   0  0  0  0  0  0  0  0  0  0  0  0
   21.8324  -13.9945   -5.4963 C   0  0  0  0  0  0  0  0  0  0  0  0
   19.7575  -12.8392   -5.8764 C   0  0  0  0  0  0  0  0  0  0  0  0
   18.3096  -10.4245   -5.6778 C   0  0  0  0  0  0  0  0  0  0  0  0
   16.0788  -10.5349   -6.4591 C   0  0  0  0  0  0  0  0  0  0  0  0
   15.5686  -10.3698   -5.1839 C   0  0  0  0  0  0  0  0  0  0  0  0
   16.4794  -10.2330   -4.1646 C   0  0  0  0  0  0  0  0  0  0  0  0
   18.7628  -10.1009   -3.2188 C   0  0  0  0  0  0  0  0  0  0  0  0
   22.0216  -16.1228   -4.2423 C   0  0  0  0  0  0  0  0  0  0  0  0
   20.1732   -8.6110  -10.1014 N   0  0  0  0  0  0  0  0  0  0  0  0
   18.7675   -9.3344  -11.9785 C   0  0  0  0  0  0  0  0  0  0  0  0
   21.0946   -6.5344   -9.7547 O   0  0  0  0  0  0  0  0  0  0  0  0
   19.5965   -8.2208  -11.3628 C   0  0  0  0  0  0  0  0  0  0  0  0
   21.7584  -11.5745   -5.4666 C   0  0  0  0  0  0  0  0  0  0  0  0
   22.4326  -12.7665   -5.3580 C   0  0  0  0  0  0  0  0  0  0  0  0
   20.4791  -14.0321   -5.7586 C   0  0  0  0  0  0  0  0  0  0  0  0
   20.4052  -11.6303   -5.7292 C   0  0  0  0  0  0  0  0  0  0  0  0
   17.4106  -10.5650   -6.7255 C   0  0  0  0  0  0  0  0  0  0  0  0
   17.9704  -10.7428   -8.0992 C   0  0  0  0  0  0  0  0  0  0  0  0
   20.9468   -7.6920   -9.3404 C   0  0  0  0  0  0  0  0  0  0  0  0
   17.8419  -10.2557   -4.3757 C   0  0  0  0  0  0  0  0  0  0  0  0
   22.5599  -15.2855   -5.3791 C   0  0  1  0  0  0  0  0  0  0  0  0
   22.4595  -16.0997   -6.6499 C   0  0  0  0  0  0  0  0  0  0  0  0
   21.5685   -8.1083   -8.0707 C   0  0  0  0  0  0  0  0  0  0  0  0
   23.5408   -7.8572   -5.0858 C   0  0  0  0  0  0  0  0  0  0  0  0
   14.2185  -10.3464   -4.9682 F   0  0  0  0  0  0  0  0  0  0  0  0
   22.3675   -7.3909   -7.2701 N   0  0  0  0  0  0  0  0  0  0  0  0
   24.0859   -6.7291   -4.9637 O   0  0  0  0  0  0  0  0  0  0  0  0
   19.6705  -10.4421   -5.8496 O   0  0  0  0  0  0  0  0  0  0  0  0
   23.9109  -15.0636   -5.1379 O   0  0  0  0  0  0  0  0  0  0  0  0
  5  1  1  0
  1  6  1  0
 31  1  1  0
  2  3  1  0
 30  2  2  0
  3  4  1  0
  3  7  2  0
  4  5  2  0
  4 20  1  0
  7 31  1  0
  7 33  1  0
 21  8  2  0
  8 22  1  0
  8 28  1  0
  9 22  2  0
 23  9  1  0
 10 24  2  0
 10 27  1  0
 35 10  1  0
 11 12  2  0
 24 11  1  0
 13 12  1  0
 12 32  1  0
 27 13  2  0
 27 14  1  0
 28 15  1  1
 16 19  1  0
 26 16  1  0
 19 17  1  0
 26 18  2  0
 20 21  1  0
 20 23  2  0
 23 35  1  0
 24 25  1  0
 26 30  1  0
 28 29  1  0
 28 36  1  0
 30 33  1  0
 31 34  2  0
M  END
$$$$
