
     RDKit          3D

 36 39  0  0  0  0  0  0  0  0999 V2000
   22.6623   -8.2394   -6.9680 N   0  0  0  0  0  0  0  0  0  0  0  0
   23.3258  -11.2087   -4.2448 C   0  0  0  0  0  0  0  0  0  0  0  0
   22.9420  -10.3301   -5.2504 C   0  0  0  0  0  0  0  0  0  0  0  0
   21.9849  -10.3714   -6.2433 C   0  0  0  0  0  0  0  0  0  0  0  0
   21.8559   -9.3035   -7.1058 C   0  0  0  0  0  0  0  0  0  0  0  0
   22.4811   -7.1307   -7.9138 C   0  0  0  0  0  0  0  0  0  0  0  0
   23.7836   -9.2242   -5.1035 C   0  0  0  0  0  0  0  0  0  0  0  0
   20.9019  -13.9620   -6.4175 C   0  0  0  0  0  0  0  0  0  0  0  0
   18.9817  -12.5087   -6.4189 C   0  0  0  0  0  0  0  0  0  0  0  0
   17.9457   -9.8114   -6.2302 C   0  0  0  0  0  0  0  0  0  0  0  0
   15.9665   -9.3580   -4.9124 C   0  0  0  0  0  0  0  0  0  0  0  0
   15.2349   -9.0981   -6.0536 C   0  0  0  0  0  0  0  0  0  0  0  0
   15.8586   -9.1946   -7.2863 C   0  0  0  0  0  0  0  0  0  0  0  0
   17.9081   -9.6627   -8.6754 C   0  0  0  0  0  0  0  0  0  0  0  0
   20.9658  -16.1865   -5.3073 C   0  0  0  0  0  0  0  0  0  0  0  0
   24.7161  -12.4798   -1.8059 N   0  0  0  0  0  0  0  0  0  0  0  0
   24.8074  -14.4426   -0.4406 C   0  0  0  0  0  0  0  0  0  0  0  0
   26.0323  -10.6183   -1.8422 O   0  0  0  0  0  0  0  0  0  0  0  0
   25.4256  -13.0646   -0.6875 C   0  0  0  0  0  0  0  0  0  0  0  0
   21.1560  -11.5673   -6.3156 C   0  0  0  0  0  0  0  0  0  0  0  0
   21.6914  -12.8289   -6.3489 C   0  0  0  0  0  0  0  0  0  0  0  0
   19.5384  -13.7768   -6.4518 C   0  0  0  0  0  0  0  0  0  0  0  0
   19.7932  -11.4080   -6.3509 C   0  0  0  0  0  0  0  0  0  0  0  0
   17.3008   -9.7082   -5.0167 C   0  0  0  0  0  0  0  0  0  0  0  0
   18.0768   -9.9843   -3.7974 C   0  0  0  0  0  0  0  0  0  0  0  0
   25.0685  -11.2272   -2.3733 C   0  0  0  0  0  0  0  0  0  0  0  0
   17.2102   -9.5507   -7.3673 C   0  0  0  0  0  0  0  0  0  0  0  0
   21.4662  -15.3363   -6.4544 C   0  0  1  0  0  0  0  0  0  0  0  0
   21.0899  -16.0179   -7.7522 C   0  0  0  0  0  0  0  0  0  0  0  0
   24.3577  -10.6582   -3.5179 C   0  0  0  0  0  0  0  0  0  0  0  0
   23.5963   -8.1908   -6.0048 C   0  0  0  0  0  0  0  0  0  0  0  0
   13.9211   -8.7492   -6.0234 F   0  0  0  0  0  0  0  0  0  0  0  0
   24.6011   -9.4591   -4.0722 N   0  0  0  0  0  0  0  0  0  0  0  0
   24.3473   -7.1810   -5.8892 O   0  0  0  0  0  0  0  0  0  0  0  0
   19.2639  -10.1582   -6.3178 O   0  0  0  0  0  0  0  0  0  0  0  0
   22.8605  -15.3220   -6.3755 O   0  0  0  0  0  0  0  0  0  0  0  0
  5  1  1  0
  6  1  1  1
 31  1  1  0
  2  3  1  0
 30  2  2  0
  3  4  1  0
  3  7  2  0
  4  5  2  0
  4 20  1  0
  7 31  1  0
  7 33  1  0
 21  8  2  0
  8 22  1  0
  8 28  1  0
  9 22  2  0
 23  9  1  0
 10 24  2  0
 10 27  1  0
 35 10  1  0
 11 12  2  0
 24 11  1  0
 13 12  1  0
 12 32  1  0
 27 13  2  0
 14 27  1  1
 15 28  1  1
 19 16  1  1
 26 16  1  0
 17 19  1  1
 26 18  2  0
 20 21  1  0
 20 23  2  0
 23 35  1  0
 25 24  1  1
 26 30  1  0
 29 28  1  1
 28 36  1  1
 30 33  1  0
 31 34  2  0
M  END
$$$$
