
     RDKit          3D

 36 39  0  0  0  0  0  0  0  0999 V2000
   23.9796   -9.3985   -5.3848 N   0  0  0  0  0  0  0  0  0  0  0  0
   21.0575   -8.7454   -8.1612 C   0  0  0  0  0  0  0  0  0  0  0  0
   21.9667   -9.1703   -7.2003 C   0  0  0  0  0  0  0  0  0  0  0  0
   22.1562  -10.3556   -6.5201 C   0  0  0  0  0  0  0  0  0  0  0  0
   23.1810  -10.4551   -5.6031 C   0  0  0  0  0  0  0  0  0  0  0  0
   25.0547   -9.5601   -4.3977 C   0  0  0  0  0  0  0  0  0  0  0  0
   22.7959   -8.0679   -6.9760 C   0  0  0  0  0  0  0  0  0  0  0  0
   19.7451  -12.6003   -8.3213 C   0  0  0  0  0  0  0  0  0  0  0  0
   20.1525  -13.4254   -6.0959 C   0  0  0  0  0  0  0  0  0  0  0  0
   21.6033  -13.1536   -3.6051 C   0  0  0  0  0  0  0  0  0  0  0  0
   22.6450  -14.9068   -2.3008 C   0  0  0  0  0  0  0  0  0  0  0  0
   21.5495  -14.9702   -1.4637 C   0  0  0  0  0  0  0  0  0  0  0  0
   20.4779  -14.1243   -1.6964 C   0  0  0  0  0  0  0  0  0  0  0  0
   19.3770  -12.3001   -3.0416 C   0  0  0  0  0  0  0  0  0  0  0  0
   19.4050  -14.0427  -10.3184 C   0  0  0  0  0  0  0  0  0  0  0  0
   19.4535   -7.0201  -10.1493 N   0  0  0  0  0  0  0  0  0  0  0  0
   17.4974   -6.9613  -11.5259 C   0  0  0  0  0  0  0  0  0  0  0  0
   21.0434   -5.4374   -9.7417 O   0  0  0  0  0  0  0  0  0  0  0  0
   18.7542   -6.1933  -11.1104 C   0  0  0  0  0  0  0  0  0  0  0  0
   21.2403  -11.4473   -6.8230 C   0  0  0  0  0  0  0  0  0  0  0  0
   20.6139  -11.5629   -8.0369 C   0  0  0  0  0  0  0  0  0  0  0  0
   19.5274  -13.5278   -7.3278 C   0  0  0  0  0  0  0  0  0  0  0  0
   21.0072  -12.3848   -5.8479 C   0  0  0  0  0  0  0  0  0  0  0  0
   22.6557  -14.0064   -3.3511 C   0  0  0  0  0  0  0  0  0  0  0  0
   23.8258  -13.9422   -4.2410 C   0  0  0  0  0  0  0  0  0  0  0  0
   20.6254   -6.5924   -9.4719 C   0  0  0  0  0  0  0  0  0  0  0  0
   20.5112  -13.2211   -2.7656 C   0  0  0  0  0  0  0  0  0  0  0  0
   19.0583  -12.7399   -9.6317 C   0  0  1  0  0  0  0  0  0  0  0  0
   17.5580  -12.6869   -9.4402 C   0  0  0  0  0  0  0  0  0  0  0  0
   21.3242   -7.4391   -8.5055 C   0  0  0  0  0  0  0  0  0  0  0  0
   23.8024   -8.2413   -6.0422 C   0  0  0  0  0  0  0  0  0  0  0  0
   21.4730  -15.8308   -0.4137 F   0  0  0  0  0  0  0  0  0  0  0  0
   22.3825   -7.0708   -7.7647 N   0  0  0  0  0  0  0  0  0  0  0  0
   24.5635   -7.2564   -5.8245 O   0  0  0  0  0  0  0  0  0  0  0  0
   21.6280  -12.2696   -4.6460 O   0  0  0  0  0  0  0  0  0  0  0  0
   19.4074  -11.7098  -10.5076 O   0  0  0  0  0  0  0  0  0  0  0  0
  5  1  1  0
  6  1  1  1
 31  1  1  0
  2  3  1  0
 30  2  2  0
  3  4  1  0
  3  7  2  0
  4  5  2  0
  4 20  1  0
  7 31  1  0
  7 33  1  0
 21  8  2  0
  8 22  1  0
  8 28  1  0
  9 22  2  0
 23  9  1  0
 10 24  2  0
 10 27  1  0
 35 10  1  0
 11 12  2  0
 24 11  1  0
 13 12  1  0
 12 32  1  0
 27 13  2  0
 14 27  1  1
 15 28  1  1
 19 16  1  1
 26 16  1  0
 17 19  1  1
 26 18  2  0
 20 21  1  0
 20 23  2  0
 23 35  1  0
 25 24  1  1
 26 30  1  0
 29 28  1  1
 28 36  1  6
 30 33  1  0
 31 34  2  0
M  END
$$$$
