
     RDKit          3D

 36 39  0  0  0  0  0  0  0  0999 V2000
   24.3609   -9.2273   -5.4723 N   0  0  0  0  0  0  0  0  0  0  0  0
   20.3455   -9.6443   -6.0854 C   0  0  0  0  0  0  0  0  0  0  0  0
   21.7101   -9.7188   -5.8350 C   0  0  0  0  0  0  0  0  0  0  0  0
   22.5647  -10.7448   -5.4879 C   0  0  0  0  0  0  0  0  0  0  0  0
   23.9055  -10.4792   -5.3077 C   0  0  0  0  0  0  0  0  0  0  0  0
   25.7974   -9.0013   -5.2678 C   0  0  0  0  0  0  0  0  0  0  0  0
   22.1801   -8.4140   -6.0073 C   0  0  0  0  0  0  0  0  0  0  0  0
   21.9885  -14.2879   -4.3876 C   0  0  0  0  0  0  0  0  0  0  0  0
   20.2433  -13.5851   -5.8909 C   0  0  0  0  0  0  0  0  0  0  0  0
   19.0727  -11.4600   -7.4704 C   0  0  0  0  0  0  0  0  0  0  0  0
   17.8159  -11.7394   -9.5202 C   0  0  0  0  0  0  0  0  0  0  0  0
   16.6243  -11.5870   -8.8406 C   0  0  0  0  0  0  0  0  0  0  0  0
   16.6553  -11.3706   -7.4731 C   0  0  0  0  0  0  0  0  0  0  0  0
   17.9459  -11.0775   -5.3289 C   0  0  0  0  0  0  0  0  0  0  0  0
   24.0346  -15.6088   -3.8843 C   0  0  0  0  0  0  0  0  0  0  0  0
   17.5286   -8.6331   -6.8189 N   0  0  0  0  0  0  0  0  0  0  0  0
   15.2356   -9.2939   -6.9941 C   0  0  0  0  0  0  0  0  0  0  0  0
   18.5200   -6.5840   -6.9508 O   0  0  0  0  0  0  0  0  0  0  0  0
   16.1867   -8.0977   -6.9143 C   0  0  0  0  0  0  0  0  0  0  0  0
   21.9801  -12.0700   -5.3315 C   0  0  0  0  0  0  0  0  0  0  0  0
   22.5458  -13.0310   -4.5341 C   0  0  0  0  0  0  0  0  0  0  0  0
   20.8275  -14.5452   -5.0811 C   0  0  0  0  0  0  0  0  0  0  0  0
   20.8221  -12.3503   -6.0131 C   0  0  0  0  0  0  0  0  0  0  0  0
   19.0133  -11.6742   -8.8305 C   0  0  0  0  0  0  0  0  0  0  0  0
   20.2812  -11.8372   -9.5592 C   0  0  0  0  0  0  0  0  0  0  0  0
   18.6825   -7.8112   -6.7291 C   0  0  0  0  0  0  0  0  0  0  0  0
   17.8792  -11.3084   -6.7962 C   0  0  0  0  0  0  0  0  0  0  0  0
   22.5889  -15.3405   -3.5275 C   0  0  1  0  0  0  0  0  0  0  0  0
   22.5266  -14.9223   -2.0744 C   0  0  0  0  0  0  0  0  0  0  0  0
   20.0020   -8.3476   -6.3967 C   0  0  0  0  0  0  0  0  0  0  0  0
   23.5364   -8.2228   -5.8099 C   0  0  0  0  0  0  0  0  0  0  0  0
   15.4128  -11.6398   -9.4558 F   0  0  0  0  0  0  0  0  0  0  0  0
   21.1417   -7.6394   -6.3373 N   0  0  0  0  0  0  0  0  0  0  0  0
   23.9819   -7.0499   -5.9608 O   0  0  0  0  0  0  0  0  0  0  0  0
   20.2626  -11.3980   -6.8026 O   0  0  0  0  0  0  0  0  0  0  0  0
   21.9061  -16.5530   -3.6461 O   0  0  0  0  0  0  0  0  0  0  0  0
  5  1  1  0
  6  1  1  1
 31  1  1  0
  2  3  1  0
 30  2  2  0
  3  4  1  0
  3  7  2  0
  4  5  2  0
  4 20  1  0
  7 31  1  0
  7 33  1  0
 21  8  2  0
  8 22  1  0
  8 28  1  0
  9 22  2  0
 23  9  1  0
 10 24  2  0
 10 27  1  0
 35 10  1  0
 11 12  2  0
 24 11  1  0
 13 12  1  0
 12 32  1  0
 27 13  2  0
 14 27  1  1
 15 28  1  1
 19 16  1  1
 26 16  1  0
 17 19  1  1
 26 18  2  0
 20 21  1  0
 20 23  2  0
 23 35  1  0
 25 24  1  1
 26 30  1  0
 29 28  1  1
 28 36  1  1
 30 33  1  0
 31 34  2  0
M  END
$$$$
