
     RDKit          3D

 36 39  0  0  0  0  0  0  0  0999 V2000
   24.0438   -8.8381   -4.2861 N   0  0  0  0  0  0  0  0  0  0  0  0
   21.6536   -9.4649   -7.5368 C   0  0  0  0  0  0  0  0  0  0  0  0
   22.4204   -9.4606   -6.3782 C   0  0  0  0  0  0  0  0  0  0  0  0
   22.6947  -10.4031   -5.4087 C   0  0  0  0  0  0  0  0  0  0  0  0
   23.5194  -10.0719   -4.3547 C   0  0  0  0  0  0  0  0  0  0  0  0
   24.9150   -8.5398   -3.1423 C   0  0  0  0  0  0  0  0  0  0  0  0
   22.9643   -8.1750   -6.3106 C   0  0  0  0  0  0  0  0  0  0  0  0
   22.2097  -14.1215   -5.5946 C   0  0  0  0  0  0  0  0  0  0  0  0
   20.1265  -12.9853   -6.0046 C   0  0  0  0  0  0  0  0  0  0  0  0
   18.7076  -10.4176   -5.7007 C   0  0  0  0  0  0  0  0  0  0  0  0
   16.9193   -9.9619   -4.1341 C   0  0  0  0  0  0  0  0  0  0  0  0
   15.9846  -10.0063   -5.1487 C   0  0  0  0  0  0  0  0  0  0  0  0
   16.4107  -10.2568   -6.4424 C   0  0  0  0  0  0  0  0  0  0  0  0
   18.2583  -10.7318   -8.0885 C   0  0  0  0  0  0  0  0  0  0  0  0
   22.9121  -15.9464   -4.0579 C   0  0  0  0  0  0  0  0  0  0  0  0
   20.2372   -8.6347  -10.1442 N   0  0  0  0  0  0  0  0  0  0  0  0
   18.7177   -9.3523  -11.8475 C   0  0  0  0  0  0  0  0  0  0  0  0
   21.2630   -6.6239   -9.8226 O   0  0  0  0  0  0  0  0  0  0  0  0
   19.7073   -8.2591  -11.4382 C   0  0  0  0  0  0  0  0  0  0  0  0
   22.0807  -11.7148   -5.5669 C   0  0  0  0  0  0  0  0  0  0  0  0
   22.7955  -12.8781   -5.4438 C   0  0  0  0  0  0  0  0  0  0  0  0
   20.8628  -14.1516   -5.8770 C   0  0  0  0  0  0  0  0  0  0  0  0
   20.7385  -11.7704   -5.8490 C   0  0  0  0  0  0  0  0  0  0  0  0
   18.2567  -10.1666   -4.4228 C   0  0  0  0  0  0  0  0  0  0  0  0
   19.2497  -10.1184   -3.3380 C   0  0  0  0  0  0  0  0  0  0  0  0
   21.0856   -7.7887   -9.3828 C   0  0  0  0  0  0  0  0  0  0  0  0
   17.7695  -10.4609   -6.7106 C   0  0  0  0  0  0  0  0  0  0  0  0
   22.9702  -15.3916   -5.4644 C   0  0  1  0  0  0  0  0  0  0  0  0
   22.4102  -16.4318   -6.4103 C   0  0  0  0  0  0  0  0  0  0  0  0
   21.7293   -8.2327   -8.1468 C   0  0  0  0  0  0  0  0  0  0  0  0
   23.7823   -7.9148   -5.2251 C   0  0  0  0  0  0  0  0  0  0  0  0
   14.6555   -9.8142   -4.9354 F   0  0  0  0  0  0  0  0  0  0  0  0
   22.5318   -7.4855   -7.3710 N   0  0  0  0  0  0  0  0  0  0  0  0
   24.2844   -6.7579   -5.1451 O   0  0  0  0  0  0  0  0  0  0  0  0
   20.0314  -10.6179   -5.9707 O   0  0  0  0  0  0  0  0  0  0  0  0
   24.3193  -15.2180   -5.7807 O   0  0  0  0  0  0  0  0  0  0  0  0
  5  1  1  0
  6  1  1  1
 31  1  1  0
  2  3  1  0
 30  2  2  0
  3  4  1  0
  3  7  2  0
  4  5  2  0
  4 20  1  0
  7 31  1  0
  7 33  1  0
 21  8  2  0
  8 22  1  0
  8 28  1  0
  9 22  2  0
 23  9  1  0
 10 24  2  0
 10 27  1  0
 35 10  1  0
 11 12  2  0
 24 11  1  0
 13 12  1  0
 12 32  1  0
 27 13  2  0
 14 27  1  1
 15 28  1  1
 19 16  1  1
 26 16  1  0
 17 19  1  1
 26 18  2  0
 20 21  1  0
 20 23  2  0
 23 35  1  0
 25 24  1  1
 26 30  1  0
 29 28  1  1
 28 36  1  6
 30 33  1  0
 31 34  2  0
M  END
$$$$
