
     RDKit          3D

 36 39  0  0  0  0  0  0  0  0999 V2000
   23.6227   -8.9746   -4.2581 N   0  0  0  0  0  0  0  0  0  0  0  0
   21.8531   -9.6119   -7.8823 C   0  0  0  0  0  0  0  0  0  0  0  0
   22.3856   -9.5981   -6.5991 C   0  0  0  0  0  0  0  0  0  0  0  0
   22.4070  -10.5079   -5.5621 C   0  0  0  0  0  0  0  0  0  0  0  0
   23.0382  -10.1766   -4.3820 C   0  0  0  0  0  0  0  0  0  0  0  0
   24.2803   -8.6746   -2.9798 C   0  0  0  0  0  0  0  0  0  0  0  0
   22.9930   -8.3457   -6.4742 C   0  0  0  0  0  0  0  0  0  0  0  0
   21.7834  -14.0914   -6.4926 C   0  0  0  0  0  0  0  0  0  0  0  0
   19.7540  -13.0695   -5.6948 C   0  0  0  0  0  0  0  0  0  0  0  0
   18.4544  -10.7356   -4.5800 C   0  0  0  0  0  0  0  0  0  0  0  0
   16.7604  -11.1823   -2.9095 C   0  0  0  0  0  0  0  0  0  0  0  0
   15.7907  -10.5990   -3.6997 C   0  0  0  0  0  0  0  0  0  0  0  0
   16.1521  -10.0824   -4.9328 C   0  0  0  0  0  0  0  0  0  0  0  0
   17.9010   -9.6085   -6.6837 C   0  0  0  0  0  0  0  0  0  0  0  0
   23.2881  -14.9650   -8.2696 C   0  0  0  0  0  0  0  0  0  0  0  0
   21.1086   -8.8617  -10.7780 N   0  0  0  0  0  0  0  0  0  0  0  0
   19.8827   -9.5602  -12.7104 C   0  0  0  0  0  0  0  0  0  0  0  0
   22.0110   -6.8312  -10.2665 O   0  0  0  0  0  0  0  0  0  0  0  0
   20.8087   -8.4821  -12.1426 C   0  0  0  0  0  0  0  0  0  0  0  0
   21.7463  -11.7865   -5.7885 C   0  0  0  0  0  0  0  0  0  0  0  0
   22.4133  -12.8792   -6.2790 C   0  0  0  0  0  0  0  0  0  0  0  0
   20.4423  -14.1645   -6.1911 C   0  0  0  0  0  0  0  0  0  0  0  0
   20.4090  -11.8839   -5.4952 C   0  0  0  0  0  0  0  0  0  0  0  0
   18.0678  -11.2416   -3.3578 C   0  0  0  0  0  0  0  0  0  0  0  0
   19.0983  -11.8645   -2.5119 C   0  0  0  0  0  0  0  0  0  0  0  0
   21.7594   -7.9949   -9.8614 C   0  0  0  0  0  0  0  0  0  0  0  0
   17.4816  -10.1538   -5.3655 C   0  0  0  0  0  0  0  0  0  0  0  0
   22.4917  -15.2850   -7.0235 C   0  0  1  0  0  0  0  0  0  0  0  0
   23.4403  -15.8334   -5.9796 C   0  0  0  0  0  0  0  0  0  0  0  0
   22.1262   -8.4170   -8.5099 C   0  0  0  0  0  0  0  0  0  0  0  0
   23.6067   -8.0833   -5.2620 C   0  0  0  0  0  0  0  0  0  0  0  0
   14.4881  -10.5072   -3.3210 F   0  0  0  0  0  0  0  0  0  0  0  0
   22.8165   -7.6829   -7.6217 N   0  0  0  0  0  0  0  0  0  0  0  0
   24.1621   -6.9560   -5.1284 O   0  0  0  0  0  0  0  0  0  0  0  0
   19.7493  -10.8013   -5.0095 O   0  0  0  0  0  0  0  0  0  0  0  0
   21.5993  -16.3057   -7.3588 O   0  0  0  0  0  0  0  0  0  0  0  0
  5  1  1  0
  6  1  1  1
 31  1  1  0
  2  3  1  0
 30  2  2  0
  3  4  1  0
  3  7  2  0
  4  5  2  0
  4 20  1  0
  7 31  1  0
  7 33  1  0
 21  8  2  0
  8 22  1  0
  8 28  1  0
  9 22  2  0
 23  9  1  0
 10 24  2  0
 10 27  1  0
 35 10  1  0
 11 12  2  0
 24 11  1  0
 13 12  1  0
 12 32  1  0
 27 13  2  0
 14 27  1  1
 15 28  1  1
 19 16  1  1
 26 16  1  0
 17 19  1  1
 26 18  2  0
 20 21  1  0
 20 23  2  0
 23 35  1  0
 25 24  1  1
 26 30  1  0
 29 28  1  1
 28 36  1  6
 30 33  1  0
 31 34  2  0
M  END
$$$$
