
     RDKit          3D

 36 39  0  0  0  0  0  0  0  0999 V2000
   23.8716   -8.7383   -3.9427 N   0  0  0  0  0  0  0  0  0  0  0  0
   21.5566   -9.4944   -7.2954 C   0  0  0  0  0  0  0  0  0  0  0  0
   22.2789   -9.4233   -6.1237 C   0  0  0  0  0  0  0  0  0  0  0  0
   22.4958  -10.3065   -5.0816 C   0  0  0  0  0  0  0  0  0  0  0  0
   23.2946   -9.9523   -3.9961 C   0  0  0  0  0  0  0  0  0  0  0  0
   24.7149   -8.3603   -2.7997 C   0  0  0  0  0  0  0  0  0  0  0  0
   22.8692   -8.1948   -6.0589 C   0  0  0  0  0  0  0  0  0  0  0  0
   21.9448  -14.0340   -5.2446 C   0  0  0  0  0  0  0  0  0  0  0  0
   19.8298  -12.8922   -5.3343 C   0  0  0  0  0  0  0  0  0  0  0  0
   18.3591  -10.5237   -5.3035 C   0  0  0  0  0  0  0  0  0  0  0  0
   16.2807  -10.4719   -6.4336 C   0  0  0  0  0  0  0  0  0  0  0  0
   15.5747  -10.5913   -5.2499 C   0  0  0  0  0  0  0  0  0  0  0  0
   16.3122  -10.6756   -4.0940 C   0  0  0  0  0  0  0  0  0  0  0  0
   18.4162  -10.7418   -2.7923 C   0  0  0  0  0  0  0  0  0  0  0  0
   23.6491  -15.4046   -6.4087 C   0  0  0  0  0  0  0  0  0  0  0  0
   20.3533   -8.9001   -9.9771 N   0  0  0  0  0  0  0  0  0  0  0  0
   18.2645   -8.2352  -11.0806 C   0  0  0  0  0  0  0  0  0  0  0  0
   21.2483   -6.8002   -9.7119 O   0  0  0  0  0  0  0  0  0  0  0  0
   19.7409   -8.5555  -11.2350 C   0  0  0  0  0  0  0  0  0  0  0  0
   21.8578  -11.6155   -5.1660 C   0  0  0  0  0  0  0  0  0  0  0  0
   22.5490  -12.8028   -5.1649 C   0  0  0  0  0  0  0  0  0  0  0  0
   20.5692  -14.0801   -5.3303 C   0  0  0  0  0  0  0  0  0  0  0  0
   20.4825  -11.6798   -5.2523 C   0  0  0  0  0  0  0  0  0  0  0  0
   17.6378  -10.4367   -6.4858 C   0  0  0  0  0  0  0  0  0  0  0  0
   18.4084  -10.3080   -7.7592 C   0  0  0  0  0  0  0  0  0  0  0  0
   21.1057   -7.9392   -9.2474 C   0  0  0  0  0  0  0  0  0  0  0  0
   17.6907  -10.6451   -4.0864 C   0  0  0  0  0  0  0  0  0  0  0  0
   22.6906  -15.3198   -5.2436 C   0  0  1  0  0  0  0  0  0  0  0  0
   23.4840  -15.5035   -3.9690 C   0  0  0  0  0  0  0  0  0  0  0  0
   21.7116   -8.2905   -7.9507 C   0  0  0  0  0  0  0  0  0  0  0  0
   23.6526   -7.8903   -4.9614 C   0  0  0  0  0  0  0  0  0  0  0  0
   14.2077  -10.6221   -5.2509 F   0  0  0  0  0  0  0  0  0  0  0  0
   22.5051   -7.5350   -7.1802 N   0  0  0  0  0  0  0  0  0  0  0  0
   24.2013   -6.7595   -4.8928 O   0  0  0  0  0  0  0  0  0  0  0  0
   19.7298  -10.4968   -5.2573 O   0  0  0  0  0  0  0  0  0  0  0  0
   21.8121  -16.3930   -5.3400 O   0  0  0  0  0  0  0  0  0  0  0  0
  5  1  1  0
  1  6  1  0
 31  1  1  0
  2  3  1  0
 30  2  2  0
  3  4  1  0
  3  7  2  0
  4  5  2  0
  4 20  1  0
  7 31  1  0
  7 33  1  0
 21  8  2  0
  8 22  1  0
  8 28  1  0
  9 22  2  0
 23  9  1  0
 10 24  2  0
 10 27  1  0
 35 10  1  0
 11 12  2  0
 24 11  1  0
 13 12  1  0
 12 32  1  0
 27 13  2  0
 27 14  1  0
 28 15  1  6
 16 19  1  0
 26 16  1  0
 19 17  1  0
 26 18  2  0
 20 21  1  0
 20 23  2  0
 23 35  1  0
 24 25  1  0
 26 30  1  0
 28 29  1  0
 28 36  1  0
 30 33  1  0
 31 34  2  0
M  END
$$$$
