
     RDKit          3D

 36 39  0  0  0  0  0  0  0  0999 V2000
   24.0933   -8.4052   -4.3342 N   0  0  0  0  0  0  0  0  0  0  0  0
   21.6776   -9.1639   -7.6144 C   0  0  0  0  0  0  0  0  0  0  0  0
   22.4309   -9.0899   -6.4626 C   0  0  0  0  0  0  0  0  0  0  0  0
   22.6553   -9.9608   -5.4117 C   0  0  0  0  0  0  0  0  0  0  0  0
   23.4890   -9.6068   -4.3527 C   0  0  0  0  0  0  0  0  0  0  0  0
   24.9735   -8.0275   -3.2192 C   0  0  0  0  0  0  0  0  0  0  0  0
   23.0491   -7.8738   -6.4332 C   0  0  0  0  0  0  0  0  0  0  0  0
   22.0199  -13.6742   -5.5889 C   0  0  0  0  0  0  0  0  0  0  0  0
   19.9283  -12.4944   -5.4539 C   0  0  0  0  0  0  0  0  0  0  0  0
   18.5106  -10.0945   -5.3561 C   0  0  0  0  0  0  0  0  0  0  0  0
   16.3722  -10.2124   -4.3500 C   0  0  0  0  0  0  0  0  0  0  0  0
   15.7331  -10.0667   -5.5682 C   0  0  0  0  0  0  0  0  0  0  0  0
   16.5340   -9.9353   -6.6766 C   0  0  0  0  0  0  0  0  0  0  0  0
   18.7077   -9.7972   -7.8521 C   0  0  0  0  0  0  0  0  0  0  0  0
   23.5728  -15.0533   -6.9397 C   0  0  0  0  0  0  0  0  0  0  0  0
   21.5417   -6.4187  -10.2459 N   0  0  0  0  0  0  0  0  0  0  0  0
   21.0403   -4.5728  -11.7835 C   0  0  0  0  0  0  0  0  0  0  0  0
   20.3845   -8.3982  -10.0917 O   0  0  0  0  0  0  0  0  0  0  0  0
   20.8883   -6.0523  -11.4769 C   0  0  0  0  0  0  0  0  0  0  0  0
   21.9871  -11.2566   -5.4582 C   0  0  0  0  0  0  0  0  0  0  0  0
   22.6524  -12.4554   -5.5453 C   0  0  0  0  0  0  0  0  0  0  0  0
   20.6418  -13.6948   -5.5427 C   0  0  0  0  0  0  0  0  0  0  0  0
   20.6089  -11.2953   -5.4130 C   0  0  0  0  0  0  0  0  0  0  0  0
   17.7244  -10.2291   -4.2206 C   0  0  0  0  0  0  0  0  0  0  0  0
   18.4230  -10.3860   -2.9093 C   0  0  0  0  0  0  0  0  0  0  0  0
   21.2106   -7.6307   -9.5800 C   0  0  0  0  0  0  0  0  0  0  0  0
   17.9110   -9.9450   -6.6056 C   0  0  0  0  0  0  0  0  0  0  0  0
   22.7375  -14.9725   -5.6830 C   0  0  1  0  0  0  0  0  0  0  0  0
   23.6510  -15.1922   -4.4977 C   0  0  0  0  0  0  0  0  0  0  0  0
   21.8418   -7.9744   -8.2934 C   0  0  0  0  0  0  0  0  0  0  0  0
   23.8667   -7.5690   -5.3610 C   0  0  0  0  0  0  0  0  0  0  0  0
   14.3680  -10.0562   -5.6451 F   0  0  0  0  0  0  0  0  0  0  0  0
   22.6709   -7.2243   -7.5557 N   0  0  0  0  0  0  0  0  0  0  0  0
   24.4413   -6.4496   -5.3250 O   0  0  0  0  0  0  0  0  0  0  0  0
   19.8820  -10.0995   -5.3240 O   0  0  0  0  0  0  0  0  0  0  0  0
   21.8337  -16.0285   -5.7076 O   0  0  0  0  0  0  0  0  0  0  0  0
  5  1  1  0
  1  6  1  0
 31  1  1  0
  2  3  1  0
 30  2  2  0
  3  4  1  0
  3  7  2  0
  4  5  2  0
  4 20  1  0
  7 31  1  0
  7 33  1  0
 21  8  2  0
  8 22  1  0
  8 28  1  0
  9 22  2  0
 23  9  1  0
 10 24  2  0
 10 27  1  0
 35 10  1  0
 11 12  2  0
 24 11  1  0
 13 12  1  0
 12 32  1  0
 27 13  2  0
 27 14  1  0
 28 15  1  6
 16 19  1  0
 26 16  1  0
 19 17  1  0
 26 18  2  0
 20 21  1  0
 20 23  2  0
 23 35  1  0
 24 25  1  0
 26 30  1  0
 28 29  1  0
 28 36  1  0
 30 33  1  0
 31 34  2  0
M  END
$$$$
