
     RDKit          3D

 36 39  0  0  0  0  0  0  0  0999 V2000
   23.8135   -8.8367   -4.2950 N   0  0  0  0  0  0  0  0  0  0  0  0
   21.0681   -9.0542   -7.3913 C   0  0  0  0  0  0  0  0  0  0  0  0
   21.8909   -9.1385   -6.2887 C   0  0  0  0  0  0  0  0  0  0  0  0
   21.9525   -9.9995   -5.2079 C   0  0  0  0  0  0  0  0  0  0  0  0
   22.9188   -9.8382   -4.2170 C   0  0  0  0  0  0  0  0  0  0  0  0
   24.8346   -8.6626   -3.2521 C   0  0  0  0  0  0  0  0  0  0  0  0
   22.8033   -8.1263   -6.3574 C   0  0  0  0  0  0  0  0  0  0  0  0
   18.6980  -11.8866   -4.9410 C   0  0  0  0  0  0  0  0  0  0  0  0
   20.5195  -13.4352   -5.2031 C   0  0  0  0  0  0  0  0  0  0  0  0
   23.2759  -13.9152   -5.2756 C   0  0  0  0  0  0  0  0  0  0  0  0
   23.8297  -16.0667   -6.0902 C   0  0  0  0  0  0  0  0  0  0  0  0
   24.3220  -16.4634   -4.8598 C   0  0  0  0  0  0  0  0  0  0  0  0
   24.2719  -15.5390   -3.8448 C   0  0  0  0  0  0  0  0  0  0  0  0
   23.7419  -13.3272   -2.8685 C   0  0  0  0  0  0  0  0  0  0  0  0
   16.9122  -11.1215   -3.4036 C   0  0  0  0  0  0  0  0  0  0  0  0
   19.8048   -8.2462   -9.9873 N   0  0  0  0  0  0  0  0  0  0  0  0
   19.8294   -8.6593  -12.4064 C   0  0  0  0  0  0  0  0  0  0  0  0
   21.3097   -6.5094   -9.9725 O   0  0  0  0  0  0  0  0  0  0  0  0
   19.2533   -7.8495  -11.2580 C   0  0  0  0  0  0  0  0  0  0  0  0
   20.9701  -11.0761   -5.1493 C   0  0  0  0  0  0  0  0  0  0  0  0
   19.6205  -10.8701   -4.9958 C   0  0  0  0  0  0  0  0  0  0  0  0
   19.1520  -13.1846   -5.0458 C   0  0  0  0  0  0  0  0  0  0  0  0
   21.4071  -12.3805   -5.2525 C   0  0  0  0  0  0  0  0  0  0  0  0
   23.3148  -14.8303   -6.3181 C   0  0  0  0  0  0  0  0  0  0  0  0
   22.7811  -14.3934   -7.6433 C   0  0  0  0  0  0  0  0  0  0  0  0
   20.8825   -7.5239   -9.4053 C   0  0  0  0  0  0  0  0  0  0  0  0
   23.7607  -14.2701   -4.0178 C   0  0  0  0  0  0  0  0  0  0  0  0
   17.2373  -11.6662   -4.7750 C   0  0  1  0  0  0  0  0  0  0  0  0
   16.6989  -10.6974   -5.8043 C   0  0  0  0  0  0  0  0  0  0  0  0
   21.4885   -7.9744   -8.1396 C   0  0  0  0  0  0  0  0  0  0  0  0
   23.7424   -8.0078   -5.3499 C   0  0  0  0  0  0  0  0  0  0  0  0
   24.8303  -17.7202   -4.6818 F   0  0  0  0  0  0  0  0  0  0  0  0
   22.5313   -7.4413   -7.4896 N   0  0  0  0  0  0  0  0  0  0  0  0
   24.5882   -7.0772   -5.4046 O   0  0  0  0  0  0  0  0  0  0  0  0
   22.7750  -12.6453   -5.4105 O   0  0  0  0  0  0  0  0  0  0  0  0
   16.5432  -12.8605   -4.9310 O   0  0  0  0  0  0  0  0  0  0  0  0
  5  1  1  0
  1  6  1  0
 31  1  1  0
  2  3  1  0
 30  2  2  0
  3  4  1  0
  3  7  2  0
  4  5  2  0
  4 20  1  0
  7 31  1  0
  7 33  1  0
 21  8  2  0
  8 22  1  0
  8 28  1  0
  9 22  2  0
 23  9  1  0
 10 24  2  0
 10 27  1  0
 35 10  1  0
 11 12  2  0
 24 11  1  0
 13 12  1  0
 12 32  1  0
 27 13  2  0
 27 14  1  0
 28 15  1  1
 16 19  1  0
 26 16  1  0
 19 17  1  0
 26 18  2  0
 20 21  1  0
 20 23  2  0
 23 35  1  0
 24 25  1  0
 26 30  1  0
 28 29  1  0
 28 36  1  0
 30 33  1  0
 31 34  2  0
M  END
$$$$
