
     RDKit          3D

 36 39  0  0  0  0  0  0  0  0999 V2000
   23.8921   -8.8444   -4.2135 N   0  0  0  0  0  0  0  0  0  0  0  0
   21.4021   -9.7549   -7.3190 C   0  0  0  0  0  0  0  0  0  0  0  0
   22.2141   -9.6523   -6.1962 C   0  0  0  0  0  0  0  0  0  0  0  0
   22.5672  -10.5252   -5.1877 C   0  0  0  0  0  0  0  0  0  0  0  0
   23.4187  -10.1002   -4.1901 C   0  0  0  0  0  0  0  0  0  0  0  0
   24.7951   -8.4452   -3.1264 C   0  0  0  0  0  0  0  0  0  0  0  0
   22.7047   -8.3441   -6.2242 C   0  0  0  0  0  0  0  0  0  0  0  0
   22.2222  -14.2621   -5.0772 C   0  0  0  0  0  0  0  0  0  0  0  0
   20.1040  -13.2421   -5.5990 C   0  0  0  0  0  0  0  0  0  0  0  0
   18.5602  -10.7749   -5.7321 C   0  0  0  0  0  0  0  0  0  0  0  0
   16.5342   -9.8732   -4.7615 C   0  0  0  0  0  0  0  0  0  0  0  0
   15.7609  -10.5509   -5.6822 C   0  0  0  0  0  0  0  0  0  0  0  0
   16.3870  -11.3427   -6.6303 C   0  0  0  0  0  0  0  0  0  0  0  0
   18.4845  -12.2916   -7.6546 C   0  0  0  0  0  0  0  0  0  0  0  0
   24.0321  -15.7327   -5.9411 C   0  0  0  0  0  0  0  0  0  0  0  0
   20.0174   -9.1844  -10.0181 N   0  0  0  0  0  0  0  0  0  0  0  0
   18.4581  -10.0970  -11.5866 C   0  0  0  0  0  0  0  0  0  0  0  0
   20.6459   -7.0252   -9.6416 O   0  0  0  0  0  0  0  0  0  0  0  0
   19.2509   -8.8468  -11.1990 C   0  0  0  0  0  0  0  0  0  0  0  0
   22.0041  -11.8676   -5.2456 C   0  0  0  0  0  0  0  0  0  0  0  0
   22.7596  -12.9894   -5.0215 C   0  0  0  0  0  0  0  0  0  0  0  0
   20.8812  -14.3658   -5.3700 C   0  0  0  0  0  0  0  0  0  0  0  0
   20.6688  -11.9964   -5.5359 C   0  0  0  0  0  0  0  0  0  0  0  0
   17.9118   -9.9942   -4.7997 C   0  0  0  0  0  0  0  0  0  0  0  0
   18.7323   -9.2698   -3.8162 C   0  0  0  0  0  0  0  0  0  0  0  0
   20.6890   -8.2129   -9.2305 C   0  0  0  0  0  0  0  0  0  0  0  0
   17.7828  -11.4500   -6.6496 C   0  0  0  0  0  0  0  0  0  0  0  0
   23.0271  -15.4880   -4.8370 C   0  0  1  0  0  0  0  0  0  0  0  0
   23.7772  -15.3688   -3.5279 C   0  0  0  0  0  0  0  0  0  0  0  0
   21.4004   -8.5581   -8.0000 C   0  0  0  0  0  0  0  0  0  0  0  0
   23.5537   -7.9884   -5.1909 C   0  0  0  0  0  0  0  0  0  0  0  0
   14.4034  -10.4767   -5.7016 F   0  0  0  0  0  0  0  0  0  0  0  0
   22.2007   -7.7352   -7.3024 N   0  0  0  0  0  0  0  0  0  0  0  0
   24.0086   -6.8095   -5.1976 O   0  0  0  0  0  0  0  0  0  0  0  0
   19.9214  -10.8849   -5.7577 O   0  0  0  0  0  0  0  0  0  0  0  0
   22.2207  -16.6254   -4.7578 O   0  0  0  0  0  0  0  0  0  0  0  0
  5  1  1  0
  6  1  1  1
 31  1  1  0
  2  3  1  0
 30  2  2  0
  3  4  1  0
  3  7  2  0
  4  5  2  0
  4 20  1  0
  7 31  1  0
  7 33  1  0
 21  8  2  0
  8 22  1  0
  8 28  1  0
  9 22  2  0
 23  9  1  0
 10 24  2  0
 10 27  1  0
 35 10  1  0
 11 12  2  0
 24 11  1  0
 13 12  1  0
 12 32  1  0
 27 13  2  0
 14 27  1  1
 15 28  1  1
 19 16  1  1
 26 16  1  0
 17 19  1  1
 26 18  2  0
 20 21  1  0
 20 23  2  0
 23 35  1  0
 25 24  1  1
 26 30  1  0
 29 28  1  1
 28 36  1  1
 30 33  1  0
 31 34  2  0
M  END
$$$$
