
     RDKit          3D

 36 39  0  0  0  0  0  0  0  0999 V2000
   23.8522   -8.6448   -4.2701 N   0  0  0  0  0  0  0  0  0  0  0  0
   21.2959   -9.3567   -7.3735 C   0  0  0  0  0  0  0  0  0  0  0  0
   22.1300   -9.3250   -6.2628 C   0  0  0  0  0  0  0  0  0  0  0  0
   22.4952  -10.2571   -5.3134 C   0  0  0  0  0  0  0  0  0  0  0  0
   23.3691   -9.8965   -4.3099 C   0  0  0  0  0  0  0  0  0  0  0  0
   24.7791   -8.3155   -3.1797 C   0  0  0  0  0  0  0  0  0  0  0  0
   22.6306   -8.0207   -6.2250 C   0  0  0  0  0  0  0  0  0  0  0  0
   22.1445  -13.9852   -5.5860 C   0  0  0  0  0  0  0  0  0  0  0  0
   19.9781  -12.9353   -5.6439 C   0  0  0  0  0  0  0  0  0  0  0  0
   18.4296  -10.4970   -5.4030 C   0  0  0  0  0  0  0  0  0  0  0  0
   16.4189  -10.1932   -4.0899 C   0  0  0  0  0  0  0  0  0  0  0  0
   15.6322  -10.3313   -5.2155 C   0  0  0  0  0  0  0  0  0  0  0  0
   16.2439  -10.5528   -6.4381 C   0  0  0  0  0  0  0  0  0  0  0  0
   18.3254  -10.8712   -7.8220 C   0  0  0  0  0  0  0  0  0  0  0  0
   23.9857  -15.1948   -6.7400 C   0  0  0  0  0  0  0  0  0  0  0  0
   19.7097   -8.5822   -9.8989 N   0  0  0  0  0  0  0  0  0  0  0  0
   18.3996   -9.4992  -11.6787 C   0  0  0  0  0  0  0  0  0  0  0  0
   20.6567   -6.5273   -9.6172 O   0  0  0  0  0  0  0  0  0  0  0  0
   19.1960   -8.2765  -11.2176 C   0  0  0  0  0  0  0  0  0  0  0  0
   21.9202  -11.5899   -5.4376 C   0  0  0  0  0  0  0  0  0  0  0  0
   22.6934  -12.7216   -5.4681 C   0  0  0  0  0  0  0  0  0  0  0  0
   20.7733  -14.0692   -5.6731 C   0  0  0  0  0  0  0  0  0  0  0  0
   20.5548  -11.6992   -5.5261 C   0  0  0  0  0  0  0  0  0  0  0  0
   17.7954  -10.2774   -4.1994 C   0  0  0  0  0  0  0  0  0  0  0  0
   18.6302  -10.1295   -2.9967 C   0  0  0  0  0  0  0  0  0  0  0  0
   20.5588   -7.7018   -9.1786 C   0  0  0  0  0  0  0  0  0  0  0  0
   17.6389  -10.6344   -6.5245 C   0  0  0  0  0  0  0  0  0  0  0  0
   22.9683  -15.2216   -5.6205 C   0  0  1  0  0  0  0  0  0  0  0  0
   23.7063  -15.3911   -4.3102 C   0  0  0  0  0  0  0  0  0  0  0  0
   21.2908   -8.1226   -7.9842 C   0  0  0  0  0  0  0  0  0  0  0  0
   23.5022   -7.7314   -5.1897 C   0  0  0  0  0  0  0  0  0  0  0  0
   14.2748  -10.2595   -5.1795 F   0  0  0  0  0  0  0  0  0  0  0  0
   22.1110   -7.3470   -7.2561 N   0  0  0  0  0  0  0  0  0  0  0  0
   23.9664   -6.5573   -5.1373 O   0  0  0  0  0  0  0  0  0  0  0  0
   19.7900  -10.5779   -5.4959 O   0  0  0  0  0  0  0  0  0  0  0  0
   22.1807  -16.3592   -5.8101 O   0  0  0  0  0  0  0  0  0  0  0  0
  5  1  1  0
  6  1  1  1
 31  1  1  0
  2  3  1  0
 30  2  2  0
  3  4  1  0
  3  7  2  0
  4  5  2  0
  4 20  1  0
  7 31  1  0
  7 33  1  0
 21  8  2  0
  8 22  1  0
  8 28  1  0
  9 22  2  0
 23  9  1  0
 10 24  2  0
 10 27  1  0
 35 10  1  0
 11 12  2  0
 24 11  1  0
 13 12  1  0
 12 32  1  0
 27 13  2  0
 14 27  1  1
 15 28  1  1
 19 16  1  1
 26 16  1  0
 17 19  1  1
 26 18  2  0
 20 21  1  0
 20 23  2  0
 23 35  1  0
 25 24  1  1
 26 30  1  0
 29 28  1  1
 28 36  1  6
 30 33  1  0
 31 34  2  0
M  END
$$$$
