
     RDKit          3D

 35 38  0  0  0  0  0  0  0  0999 V2000
  -20.4647    8.3889   -1.2284 C   0  0  1  0  0  0  0  0  0  0  0  0
  -24.3371   10.1079   -1.1171 C   0  0  0  0  0  0  0  0  0  0  0  0
  -23.2255    9.3889   -1.4897 C   0  0  0  0  0  0  0  0  0  0  0  0
  -20.2477    5.0767    0.1294 C   0  0  0  0  0  0  0  0  0  0  0  0
  -18.0103    7.8937   -1.0706 C   0  0  1  0  0  0  0  0  0  0  0  0
  -18.4241    6.7674   -0.1520 C   0  0  2  0  0  0  0  0  0  0  0  0
  -25.5880    9.7967   -1.6182 C   0  0  0  0  0  0  0  0  0  0  0  0
  -19.8138    6.3424   -0.5740 C   0  0  2  0  0  0  0  0  0  0  0  0
  -15.5353    8.2693   -0.7904 C   0  0  0  0  0  0  0  0  0  0  0  0
   -8.2615   10.0359   -0.7967 C   0  0  0  0  0  0  0  0  0  0  0  0
  -10.5368    9.5382    0.1888 C   0  0  0  0  0  0  0  0  0  0  0  0
  -11.1603    9.6128   -1.0383 C   0  0  0  0  0  0  0  0  0  0  0  0
  -12.5524    9.4976   -1.1388 C   0  0  0  0  0  0  0  0  0  0  0  0
  -13.3321    9.3077   -0.0230 C   0  0  0  0  0  0  0  0  0  0  0  0
  -14.7788    9.1824   -0.1209 C   0  0  0  0  0  0  0  0  0  0  0  0
  -25.7192    8.7446   -2.5086 C   0  0  0  0  0  0  0  0  0  0  0  0
  -27.0332    8.3755   -3.0696 C   0  0  0  0  0  0  0  0  0  0  0  0
  -24.6192    8.0154   -2.8920 C   0  0  0  0  0  0  0  0  0  0  0  0
  -23.3786    8.3457   -2.3771 C   0  0  0  0  0  0  0  0  0  0  0  0
  -19.0731    8.9360   -1.2608 C   0  0  1  0  0  0  0  0  0  0  0  0
  -12.7097    9.2333    1.2021 C   0  0  0  0  0  0  0  0  0  0  0  0
  -11.3228    9.3481    1.3027 C   0  0  0  0  0  0  0  0  0  0  0  0
  -10.4316    9.8001   -2.1754 F   0  0  0  0  0  0  0  0  0  0  0  0
  -13.1666    9.5710   -2.3470 F   0  0  0  0  0  0  0  0  0  0  0  0
  -13.4783    9.0462    2.3020 F   0  0  0  0  0  0  0  0  0  0  0  0
  -10.6999    9.2762    2.5010 F   0  0  0  0  0  0  0  0  0  0  0  0
   -9.1137    9.6564    0.2855 N   0  0  0  0  0  0  0  0  0  0  0  0
  -16.8110    8.5593   -0.5817 N   0  0  0  0  0  0  0  0  0  0  0  0
  -16.8456    9.6242    0.1966 N   0  0  0  0  0  0  0  0  0  0  0  0
  -15.6395   10.0166    0.4866 N   0  0  0  0  0  0  0  0  0  0  0  0
  -18.5186    7.2679    1.1669 O   0  0  0  0  0  0  0  0  0  0  0  0
  -21.6157    4.9916    0.1827 O   0  0  0  0  0  0  0  0  0  0  0  0
  -20.6648    7.4080   -0.2917 O   0  0  0  0  0  0  0  0  0  0  0  0
  -18.8785    9.5179   -2.5197 O   0  0  0  0  0  0  0  0  0  0  0  0
  -21.6033    9.7544   -0.8701 S   0  0  0  0  0  0  0  0  0  0  0  0
 20  1  1  0
  1 33  1  0
  1 35  1  1
  3  2  2  0
  2  7  1  0
  3 19  1  0
 35  3  1  0
  8  4  1  0
  4 32  1  6
  5  6  1  0
  5 20  1  0
  5 28  1  1
  6  8  1  0
  6 31  1  1
  7 16  2  0
  8 33  1  1
 15  9  2  0
  9 28  1  0
 10 27  1  6
 12 11  2  0
 11 22  1  0
 11 27  1  0
 13 12  1  0
 12 23  1  0
 14 13  2  0
 13 24  1  0
 14 15  1  0
 14 21  1  0
 15 30  1  0
 17 16  1  6
 16 18  1  0
 18 19  2  0
 20 34  1  6
 21 22  2  0
 21 25  1  0
 22 26  1  0
 28 29  1  0
 29 30  2  0
M  END
$$$$
