
     RDKit          3D

 35 38  0  0  0  0  0  0  0  0999 V2000
  -20.6065    7.8752   -1.6974 C   0  0  1  0  0  0  0  0  0  0  0  0
  -24.6659    8.6726   -1.8873 C   0  0  0  0  0  0  0  0  0  0  0  0
  -23.5522    7.9229   -2.2012 C   0  0  0  0  0  0  0  0  0  0  0  0
  -19.2521    7.8197    1.6233 C   0  0  0  0  0  0  0  0  0  0  0  0
  -18.1608    7.4474   -1.6158 C   0  0  1  0  0  0  0  0  0  0  0  0
  -18.7449    6.6169   -0.5159 C   0  0  2  0  0  0  0  0  0  0  0  0
  -25.8951    8.0617   -1.6161 C   0  0  0  0  0  0  0  0  0  0  0  0
  -19.7858    7.2983    0.3069 C   0  0  2  0  0  0  0  0  0  0  0  0
  -15.8498    8.1323   -1.0407 C   0  0  0  0  0  0  0  0  0  0  0  0
   -9.1799    9.8667    1.8747 C   0  0  0  0  0  0  0  0  0  0  0  0
  -11.0421    9.7853    0.2037 C   0  0  0  0  0  0  0  0  0  0  0  0
  -11.5713   10.1145   -1.0259 C   0  0  0  0  0  0  0  0  0  0  0  0
  -12.9155    9.9546   -1.3027 C   0  0  0  0  0  0  0  0  0  0  0  0
  -13.7928    9.4575   -0.3616 C   0  0  0  0  0  0  0  0  0  0  0  0
  -15.2211    9.2898   -0.6540 C   0  0  0  0  0  0  0  0  0  0  0  0
  -26.0326    6.6939   -1.6538 C   0  0  0  0  0  0  0  0  0  0  0  0
  -27.3539    6.0610   -1.3612 C   0  0  0  0  0  0  0  0  0  0  0  0
  -24.9214    5.9427   -1.9672 C   0  0  0  0  0  0  0  0  0  0  0  0
  -23.7002    6.5519   -2.2365 C   0  0  0  0  0  0  0  0  0  0  0  0
  -19.2774    8.1347   -2.3515 C   0  0  1  0  0  0  0  0  0  0  0  0
  -13.2686    9.1246    0.8753 C   0  0  0  0  0  0  0  0  0  0  0  0
  -11.9284    9.2841    1.1515 C   0  0  0  0  0  0  0  0  0  0  0  0
  -10.7519   10.6088   -1.9948 F   0  0  0  0  0  0  0  0  0  0  0  0
  -13.4139   10.2841   -2.5157 F   0  0  0  0  0  0  0  0  0  0  0  0
  -14.1346    8.6288    1.8200 F   0  0  0  0  0  0  0  0  0  0  0  0
  -11.4282    8.9548    2.3667 F   0  0  0  0  0  0  0  0  0  0  0  0
   -9.6552    9.9453    0.5109 N   0  0  0  0  0  0  0  0  0  0  0  0
  -17.1529    8.3704   -1.2156 N   0  0  0  0  0  0  0  0  0  0  0  0
  -17.3753    9.6609   -0.9485 N   0  0  0  0  0  0  0  0  0  0  0  0
  -16.2136   10.2175   -0.6098 N   0  0  0  0  0  0  0  0  0  0  0  0
  -17.7543    6.0595    0.3132 O   0  0  0  0  0  0  0  0  0  0  0  0
  -19.9861    7.2896    2.6829 O   0  0  0  0  0  0  0  0  0  0  0  0
  -20.4886    8.2906   -0.3724 O   0  0  0  0  0  0  0  0  0  0  0  0
  -19.3778    7.7488   -3.6872 O   0  0  0  0  0  0  0  0  0  0  0  0
  -21.9778    8.6335   -2.5542 S   0  0  0  0  0  0  0  0  0  0  0  0
 20  1  1  0
  1 33  1  0
  1 35  1  6
  3  2  2  0
  2  7  1  0
  3 19  1  0
 35  3  1  0
  8  4  1  1
  4 32  1  0
  5  6  1  0
  5 20  1  0
  5 28  1  1
  6  8  1  0
  6 31  1  1
  7 16  2  0
  8 33  1  0
 15  9  2  0
  9 28  1  0
 27 10  1  0
 12 11  2  0
 11 22  1  0
 11 27  1  0
 13 12  1  0
 12 23  1  0
 14 13  2  0
 13 24  1  0
 14 15  1  0
 14 21  1  0
 15 30  1  0
 16 17  1  0
 16 18  1  0
 18 19  2  0
 20 34  1  6
 21 22  2  0
 21 25  1  0
 22 26  1  0
 28 29  1  0
 29 30  2  0
M  END
$$$$
