
     RDKit          3D

 35 38  0  0  0  0  0  0  0  0999 V2000
  -20.5837    7.8547   -1.3437 C   0  0  1  0  0  0  0  0  0  0  0  0
  -24.2906    6.3719   -2.5897 C   0  0  0  0  0  0  0  0  0  0  0  0
  -23.3377    6.7381   -1.6632 C   0  0  0  0  0  0  0  0  0  0  0  0
  -18.5703   10.4530   -2.7788 C   0  0  0  0  0  0  0  0  0  0  0  0
  -18.7139    8.5986    0.1129 C   0  0  1  0  0  0  0  0  0  0  0  0
  -19.2963    9.8546   -0.4561 C   0  0  2  0  0  0  0  0  0  0  0  0
  -25.6530    6.5745   -2.3436 C   0  0  0  0  0  0  0  0  0  0  0  0
  -19.6226    9.7985   -1.9104 C   0  0  2  0  0  0  0  0  0  0  0  0
  -16.2967    8.8946    0.5716 C   0  0  0  0  0  0  0  0  0  0  0  0
   -8.9122   10.4310    0.9505 C   0  0  0  0  0  0  0  0  0  0  0  0
  -11.1475    9.3854    1.3710 C   0  0  0  0  0  0  0  0  0  0  0  0
  -12.0555    8.7332    2.1775 C   0  0  0  0  0  0  0  0  0  0  0  0
  -13.3330    8.4397    1.7408 C   0  0  0  0  0  0  0  0  0  0  0  0
  -13.7614    8.7855    0.4761 C   0  0  0  0  0  0  0  0  0  0  0  0
  -15.1174    8.4719    0.0104 C   0  0  0  0  0  0  0  0  0  0  0  0
  -26.0860    7.1455   -1.1699 C   0  0  0  0  0  0  0  0  0  0  0  0
  -27.5453    7.3531   -0.9263 C   0  0  0  0  0  0  0  0  0  0  0  0
  -25.1359    7.5123   -0.2426 C   0  0  0  0  0  0  0  0  0  0  0  0
  -23.7818    7.3100   -0.4890 C   0  0  0  0  0  0  0  0  0  0  0  0
  -19.5252    7.4265   -0.3648 C   0  0  1  0  0  0  0  0  0  0  0  0
  -12.8552    9.4407   -0.3394 C   0  0  0  0  0  0  0  0  0  0  0  0
  -11.5814    9.7333    0.0959 C   0  0  0  0  0  0  0  0  0  0  0  0
  -11.6884    8.3686    3.4372 F   0  0  0  0  0  0  0  0  0  0  0  0
  -14.2080    7.7990    2.5483 F   0  0  0  0  0  0  0  0  0  0  0  0
  -13.2723    9.7892   -1.6015 F   0  0  0  0  0  0  0  0  0  0  0  0
  -10.7039   10.3747   -0.7127 F   0  0  0  0  0  0  0  0  0  0  0  0
   -9.8207    9.6960    1.8029 N   0  0  0  0  0  0  0  0  0  0  0  0
  -17.3239    8.4051   -0.1289 N   0  0  0  0  0  0  0  0  0  0  0  0
  -16.8274    7.6743   -1.1318 N   0  0  0  0  0  0  0  0  0  0  0  0
  -15.4985    7.7126   -1.0506 N   0  0  0  0  0  0  0  0  0  0  0  0
  -18.5037   10.9828   -0.1763 O   0  0  0  0  0  0  0  0  0  0  0  0
  -19.0811   11.6113   -3.3618 O   0  0  0  0  0  0  0  0  0  0  0  0
  -19.9275    8.5219   -2.3763 O   0  0  0  0  0  0  0  0  0  0  0  0
  -20.1555    6.7342    0.6679 O   0  0  0  0  0  0  0  0  0  0  0  0
  -21.6079    6.5074   -1.9140 S   0  0  0  0  0  0  0  0  0  0  0  0
 20  1  1  0
  1 33  1  0
  1 35  1  6
  3  2  2  0
  2  7  1  0
  3 19  1  0
 35  3  1  0
  8  4  1  6
  4 32  1  0
  5  6  1  0
  5 20  1  0
  5 28  1  6
  6  8  1  0
  6 31  1  6
  7 16  2  0
  8 33  1  0
 15  9  2  0
  9 28  1  0
 27 10  1  0
 12 11  2  0
 11 22  1  0
 11 27  1  0
 13 12  1  0
 12 23  1  0
 14 13  2  0
 13 24  1  0
 14 15  1  0
 14 21  1  0
 15 30  1  0
 16 17  1  0
 16 18  1  0
 18 19  2  0
 20 34  1  1
 21 22  2  0
 21 25  1  0
 22 26  1  0
 28 29  1  0
 29 30  2  0
M  END
$$$$
