
     RDKit          3D

 35 38  0  0  0  0  0  0  0  0999 V2000
  -17.3483    8.6433   -0.9373 C   0  0  1  0  0  0  0  0  0  0  0  0
  -13.4892    8.8007    0.8332 C   0  0  0  0  0  0  0  0  0  0  0  0
  -14.5544    8.5548   -0.0014 C   0  0  0  0  0  0  0  0  0  0  0  0
  -18.1076    9.4179   -4.3556 C   0  0  0  0  0  0  0  0  0  0  0  0
  -19.8403    8.4270   -1.1312 C   0  0  1  0  0  0  0  0  0  0  0  0
  -19.6811    9.1961   -2.4222 C   0  0  2  0  0  0  0  0  0  0  0  0
  -12.2751    8.1657    0.6450 C   0  0  0  0  0  0  0  0  0  0  0  0
  -18.3010    8.8797   -2.9564 C   0  0  2  0  0  0  0  0  0  0  0  0
  -22.2994    8.6369   -0.6267 C   0  0  0  0  0  0  0  0  0  0  0  0
  -29.3806    8.6734    2.0736 C   0  0  0  0  0  0  0  0  0  0  0  0
  -27.2464    9.4277    0.9457 C   0  0  0  0  0  0  0  0  0  0  0  0
  -26.6312   10.2815    0.0554 C   0  0  0  0  0  0  0  0  0  0  0  0
  -25.2461   10.2266   -0.1441 C   0  0  0  0  0  0  0  0  0  0  0  0
  -24.4652    9.3247    0.5384 C   0  0  0  0  0  0  0  0  0  0  0  0
  -23.0247    9.2655    0.3393 C   0  0  0  0  0  0  0  0  0  0  0  0
  -12.1337    7.2692   -0.4007 C   0  0  0  0  0  0  0  0  0  0  0  0
  -10.8577    6.5680   -0.6409 C   0  0  0  0  0  0  0  0  0  0  0  0
  -13.1875    7.0115   -1.2444 C   0  0  0  0  0  0  0  0  0  0  0  0
  -14.3919    7.6589   -1.0359 C   0  0  0  0  0  0  0  0  0  0  0  0
  -18.6547    8.5338   -0.2173 C   0  0  1  0  0  0  0  0  0  0  0  0
  -25.0793    8.4722    1.4272 C   0  0  0  0  0  0  0  0  0  0  0  0
  -26.4592    8.5266    1.6263 C   0  0  0  0  0  0  0  0  0  0  0  0
  -27.3615   11.1945   -0.6461 F   0  0  0  0  0  0  0  0  0  0  0  0
  -24.6401   11.0673   -1.0207 F   0  0  0  0  0  0  0  0  0  0  0  0
  -24.3095    7.5832    2.0999 F   0  0  0  0  0  0  0  0  0  0  0  0
  -27.0739    7.6943    2.4971 F   0  0  0  0  0  0  0  0  0  0  0  0
  -28.6623    9.4885    1.1457 N   0  0  0  0  0  0  0  0  0  0  0  0
  -21.0159    8.8701   -0.3950 N   0  0  0  0  0  0  0  0  0  0  0  0
  -20.9464    9.6234    0.6861 N   0  0  0  0  0  0  0  0  0  0  0  0
  -22.1378    9.8740    1.1448 N   0  0  0  0  0  0  0  0  0  0  0  0
  -19.7146   10.5798   -2.1341 O   0  0  0  0  0  0  0  0  0  0  0  0
  -16.8554    9.1157   -4.8268 O   0  0  0  0  0  0  0  0  0  0  0  0
  -17.3862    9.4280   -2.0609 O   0  0  0  0  0  0  0  0  0  0  0  0
  -18.6105    7.3702    0.5607 O   0  0  0  0  0  0  0  0  0  0  0  0
  -16.1282    9.3483    0.2045 S   0  0  0  0  0  0  0  0  0  0  0  0
 20  1  1  0
  1 33  1  0
  1 35  1  1
  3  2  2  0
  2  7  1  0
  3 19  1  0
 35  3  1  0
  8  4  1  0
  4 32  1  6
  5  6  1  0
  5 20  1  0
  5 28  1  1
  6  8  1  0
  6 31  1  1
  7 16  2  0
  8 33  1  1
 15  9  2  0
  9 28  1  0
 10 27  1  6
 12 11  2  0
 11 22  1  0
 11 27  1  0
 13 12  1  0
 12 23  1  0
 14 13  2  0
 13 24  1  0
 14 15  1  0
 14 21  1  0
 15 30  1  0
 17 16  1  6
 16 18  1  0
 18 19  2  0
 20 34  1  1
 21 22  2  0
 21 25  1  0
 22 26  1  0
 28 29  1  0
 29 30  2  0
M  END
$$$$
