
     RDKit          3D

 35 38  0  0  0  0  0  0  0  0999 V2000
  -20.4217    7.8833   -1.5941 C   0  0  1  0  0  0  0  0  0  0  0  0
  -23.7574    7.5667   -1.6490 C   0  0  0  0  0  0  0  0  0  0  0  0
  -23.2030    8.7820   -1.9769 C   0  0  0  0  0  0  0  0  0  0  0  0
  -20.1913    4.7780    0.1851 C   0  0  0  0  0  0  0  0  0  0  0  0
  -17.9651    7.4487   -1.3289 C   0  0  1  0  0  0  0  0  0  0  0  0
  -18.3833    6.4447   -0.2798 C   0  0  2  0  0  0  0  0  0  0  0  0
  -25.0223    7.2191   -2.0869 C   0  0  0  0  0  0  0  0  0  0  0  0
  -19.7590    5.9483   -0.6683 C   0  0  2  0  0  0  0  0  0  0  0  0
  -15.5272    7.7868   -0.7925 C   0  0  0  0  0  0  0  0  0  0  0  0
   -8.1960    9.4458   -0.2520 C   0  0  0  0  0  0  0  0  0  0  0  0
  -10.6016    9.1107    0.4527 C   0  0  0  0  0  0  0  0  0  0  0  0
  -11.4906    8.7629    1.4471 C   0  0  0  0  0  0  0  0  0  0  0  0
  -12.8621    8.6737    1.1782 C   0  0  0  0  0  0  0  0  0  0  0  0
  -13.3579    8.9291   -0.0780 C   0  0  0  0  0  0  0  0  0  0  0  0
  -14.7825    8.8429   -0.3631 C   0  0  0  0  0  0  0  0  0  0  0  0
  -25.7386    8.1108   -2.8672 C   0  0  0  0  0  0  0  0  0  0  0  0
  -27.0914    7.7840   -3.3576 C   0  0  0  0  0  0  0  0  0  0  0  0
  -25.2002    9.3295   -3.2044 C   0  0  0  0  0  0  0  0  0  0  0  0
  -23.9333    9.6545   -2.7545 C   0  0  0  0  0  0  0  0  0  0  0  0
  -19.0365    8.4420   -1.6719 C   0  0  1  0  0  0  0  0  0  0  0  0
  -12.4704    9.2764   -1.0709 C   0  0  0  0  0  0  0  0  0  0  0  0
  -11.1039    9.3653   -0.8033 C   0  0  0  0  0  0  0  0  0  0  0  0
  -11.0491    8.4998    2.7100 F   0  0  0  0  0  0  0  0  0  0  0  0
  -13.7376    8.3312    2.1572 F   0  0  0  0  0  0  0  0  0  0  0  0
  -12.9592    9.5281   -2.3090 F   0  0  0  0  0  0  0  0  0  0  0  0
  -10.2223    9.7059   -1.7706 F   0  0  0  0  0  0  0  0  0  0  0  0
   -9.2010    9.2005    0.7334 N   0  0  0  0  0  0  0  0  0  0  0  0
  -16.7840    8.1895   -0.9087 N   0  0  0  0  0  0  0  0  0  0  0  0
  -16.8185    9.4618   -0.5608 N   0  0  0  0  0  0  0  0  0  0  0  0
  -15.6307    9.8765   -0.2295 N   0  0  0  0  0  0  0  0  0  0  0  0
  -18.5101    7.1101    0.9612 O   0  0  0  0  0  0  0  0  0  0  0  0
  -21.5166    4.4883   -0.0178 O   0  0  0  0  0  0  0  0  0  0  0  0
  -20.6284    7.0289   -0.5420 O   0  0  0  0  0  0  0  0  0  0  0  0
  -18.8240    8.8589   -2.9918 O   0  0  0  0  0  0  0  0  0  0  0  0
  -21.5838    9.2668   -1.4366 S   0  0  0  0  0  0  0  0  0  0  0  0
 20  1  1  0
  1 33  1  0
  1 35  1  1
  3  2  2  0
  2  7  1  0
  3 19  1  0
 35  3  1  0
  8  4  1  0
  4 32  1  6
  5  6  1  0
  5 20  1  0
  5 28  1  1
  6  8  1  0
  6 31  1  1
  7 16  2  0
  8 33  1  1
 15  9  2  0
  9 28  1  0
 10 27  1  6
 12 11  2  0
 11 22  1  0
 11 27  1  0
 13 12  1  0
 12 23  1  0
 14 13  2  0
 13 24  1  0
 14 15  1  0
 14 21  1  0
 15 30  1  0
 17 16  1  6
 16 18  1  0
 18 19  2  0
 20 34  1  6
 21 22  2  0
 21 25  1  0
 22 26  1  0
 28 29  1  0
 29 30  2  0
M  END
$$$$
