
     RDKit          3D

 35 38  0  0  0  0  0  0  0  0999 V2000
  -20.9041    8.6573   -1.1276 C   0  0  1  0  0  0  0  0  0  0  0  0
  -24.1566    9.0944   -1.0154 C   0  0  0  0  0  0  0  0  0  0  0  0
  -23.6335    8.1982   -0.1128 C   0  0  0  0  0  0  0  0  0  0  0  0
  -20.1968    9.1976   -4.6016 C   0  0  0  0  0  0  0  0  0  0  0  0
  -18.4485    9.1596   -1.2367 C   0  0  1  0  0  0  0  0  0  0  0  0
  -18.5839    8.8775   -2.7151 C   0  0  2  0  0  0  0  0  0  0  0  0
  -25.4190    9.6304   -0.8374 C   0  0  0  0  0  0  0  0  0  0  0  0
  -20.0036    9.2298   -3.1028 C   0  0  2  0  0  0  0  0  0  0  0  0
  -16.0690    9.1974   -0.4108 C   0  0  0  0  0  0  0  0  0  0  0  0
   -8.6985    9.0200    0.9539 C   0  0  0  0  0  0  0  0  0  0  0  0
  -11.1654    8.6515    1.3714 C   0  0  0  0  0  0  0  0  0  0  0  0
  -12.1989    8.6105    2.2827 C   0  0  0  0  0  0  0  0  0  0  0  0
  -13.5248    8.4783    1.8516 C   0  0  0  0  0  0  0  0  0  0  0  0
  -13.8314    8.3864    0.5150 C   0  0  0  0  0  0  0  0  0  0  0  0
  -15.2075    8.2537    0.0599 C   0  0  0  0  0  0  0  0  0  0  0  0
  -26.1646    9.2566    0.2678 C   0  0  0  0  0  0  0  0  0  0  0  0
  -27.5161    9.8020    0.4999 C   0  0  0  0  0  0  0  0  0  0  0  0
  -25.6576    8.3623    1.1799 C   0  0  0  0  0  0  0  0  0  0  0  0
  -24.3926    7.8399    0.9801 C   0  0  0  0  0  0  0  0  0  0  0  0
  -19.5885    8.6306   -0.4165 C   0  0  1  0  0  0  0  0  0  0  0  0
  -12.7997    8.4273   -0.3948 C   0  0  0  0  0  0  0  0  0  0  0  0
  -11.4786    8.5589    0.0343 C   0  0  0  0  0  0  0  0  0  0  0  0
  -11.9472    8.6980    3.6199 F   0  0  0  0  0  0  0  0  0  0  0  0
  -14.5425    8.4379    2.7487 F   0  0  0  0  0  0  0  0  0  0  0  0
  -13.1021    8.3366   -1.7123 F   0  0  0  0  0  0  0  0  0  0  0  0
  -10.4565    8.6005   -0.8503 F   0  0  0  0  0  0  0  0  0  0  0  0
   -9.8123    8.7868    1.8179 N   0  0  0  0  0  0  0  0  0  0  0  0
  -17.2143    8.5996   -0.7039 N   0  0  0  0  0  0  0  0  0  0  0  0
  -17.0678    7.3188   -0.4226 N   0  0  0  0  0  0  0  0  0  0  0  0
  -15.8730    7.0865    0.0369 N   0  0  0  0  0  0  0  0  0  0  0  0
  -18.4202    7.4898   -2.9300 O   0  0  0  0  0  0  0  0  0  0  0  0
  -21.5164    9.0008   -4.9202 O   0  0  0  0  0  0  0  0  0  0  0  0
  -20.8362    8.3208   -2.4549 O   0  0  0  0  0  0  0  0  0  0  0  0
  -19.7074    9.4403    0.7198 O   0  0  0  0  0  0  0  0  0  0  0  0
  -22.0186    7.4877   -0.3034 S   0  0  0  0  0  0  0  0  0  0  0  0
 20  1  1  0
  1 33  1  0
  1 35  1  1
  3  2  2  0
  2  7  1  0
  3 19  1  0
 35  3  1  0
  8  4  1  0
  4 32  1  6
  5  6  1  0
  5 20  1  0
  5 28  1  1
  6  8  1  0
  6 31  1  1
  7 16  2  0
  8 33  1  1
 15  9  2  0
  9 28  1  0
 10 27  1  6
 12 11  2  0
 11 22  1  0
 11 27  1  0
 13 12  1  0
 12 23  1  0
 14 13  2  0
 13 24  1  0
 14 15  1  0
 14 21  1  0
 15 30  1  0
 17 16  1  6
 16 18  1  0
 18 19  2  0
 20 34  1  1
 21 22  2  0
 21 25  1  0
 22 26  1  0
 28 29  1  0
 29 30  2  0
M  END
$$$$
