
     RDKit          3D

 35 38  0  0  0  0  0  0  0  0999 V2000
  -21.1143    8.0849   -1.5215 C   0  0  1  0  0  0  0  0  0  0  0  0
  -24.1925    7.1406    0.6620 C   0  0  0  0  0  0  0  0  0  0  0  0
  -23.8564    7.2546   -0.6702 C   0  0  0  0  0  0  0  0  0  0  0  0
  -18.9144    9.3148   -4.0734 C   0  0  0  0  0  0  0  0  0  0  0  0
  -19.1167    9.2708   -0.6414 C   0  0  1  0  0  0  0  0  0  0  0  0
  -19.5941   10.0999   -1.7927 C   0  0  2  0  0  0  0  0  0  0  0  0
  -25.4467    7.5496    1.1282 C   0  0  0  0  0  0  0  0  0  0  0  0
  -19.9880    9.3290   -3.0072 C   0  0  2  0  0  0  0  0  0  0  0  0
  -16.6968    9.3490   -0.1133 C   0  0  0  0  0  0  0  0  0  0  0  0
   -9.9876   10.1051    2.6725 C   0  0  0  0  0  0  0  0  0  0  0  0
  -11.5598    9.3432    0.8796 C   0  0  0  0  0  0  0  0  0  0  0  0
  -11.8631    9.2066   -0.4582 C   0  0  0  0  0  0  0  0  0  0  0  0
  -13.1557    8.9763   -0.8885 C   0  0  0  0  0  0  0  0  0  0  0  0
  -14.2052    8.8719    0.0005 C   0  0  0  0  0  0  0  0  0  0  0  0
  -15.5789    8.6298   -0.4559 C   0  0  0  0  0  0  0  0  0  0  0  0
  -26.3849    8.0786    0.2732 C   0  0  0  0  0  0  0  0  0  0  0  0
  -27.7184    8.5096    0.7910 C   0  0  0  0  0  0  0  0  0  0  0  0
  -26.0515    8.1935   -1.0583 C   0  0  0  0  0  0  0  0  0  0  0  0
  -24.8041    7.7863   -1.5199 C   0  0  0  0  0  0  0  0  0  0  0  0
  -20.0624    8.1183   -0.4472 C   0  0  1  0  0  0  0  0  0  0  0  0
  -13.9083    9.0079    1.3454 C   0  0  0  0  0  0  0  0  0  0  0  0
  -12.6195    9.2376    1.7745 C   0  0  0  0  0  0  0  0  0  0  0  0
  -10.8665    9.2990   -1.3817 F   0  0  0  0  0  0  0  0  0  0  0  0
  -13.4314    8.8456   -2.2057 F   0  0  0  0  0  0  0  0  0  0  0  0
  -14.9471    8.9058    2.2390 F   0  0  0  0  0  0  0  0  0  0  0  0
  -12.3426    9.3692    3.0941 F   0  0  0  0  0  0  0  0  0  0  0  0
  -10.2299    9.5841    1.3451 N   0  0  0  0  0  0  0  0  0  0  0  0
  -17.7653    8.8295   -0.7247 N   0  0  0  0  0  0  0  0  0  0  0  0
  -17.3558    7.7881   -1.4555 N   0  0  0  0  0  0  0  0  0  0  0  0
  -16.0392    7.6652   -1.2957 N   0  0  0  0  0  0  0  0  0  0  0  0
  -18.6802   11.1141   -2.1328 O   0  0  0  0  0  0  0  0  0  0  0  0
  -19.3188   10.0706   -5.1724 O   0  0  0  0  0  0  0  0  0  0  0  0
  -20.4404    8.0390   -2.7404 O   0  0  0  0  0  0  0  0  0  0  0  0
  -20.7132    8.1402    0.7853 O   0  0  0  0  0  0  0  0  0  0  0  0
  -22.2932    6.7591   -1.3177 S   0  0  0  0  0  0  0  0  0  0  0  0
 20  1  1  0
  1 33  1  0
  1 35  1  1
  3  2  2  0
  2  7  1  0
  3 19  1  0
 35  3  1  0
  8  4  1  6
  4 32  1  0
  5  6  1  0
  5 20  1  0
  5 28  1  6
  6  8  1  0
  6 31  1  6
  7 16  2  0
  8 33  1  0
 15  9  2  0
  9 28  1  0
 27 10  1  0
 12 11  2  0
 11 22  1  0
 11 27  1  0
 13 12  1  0
 12 23  1  0
 14 13  2  0
 13 24  1  0
 14 15  1  0
 14 21  1  0
 15 30  1  0
 16 17  1  0
 16 18  1  0
 18 19  2  0
 20 34  1  1
 21 22  2  0
 21 25  1  0
 22 26  1  0
 28 29  1  0
 29 30  2  0
M  END
$$$$
