
     RDKit          3D

 35 38  0  0  0  0  0  0  0  0999 V2000
  -20.6344    7.6003   -2.0596 C   0  0  1  0  0  0  0  0  0  0  0  0
  -24.5121    7.5961   -1.9567 C   0  0  0  0  0  0  0  0  0  0  0  0
  -23.4793    8.5091   -1.9405 C   0  0  0  0  0  0  0  0  0  0  0  0
  -19.5101    7.1981    1.3225 C   0  0  0  0  0  0  0  0  0  0  0  0
  -18.1675    7.4122   -1.8355 C   0  0  1  0  0  0  0  0  0  0  0  0
  -18.7290    6.3762   -0.9123 C   0  0  2  0  0  0  0  0  0  0  0  0
  -25.6503    7.7787   -1.1637 C   0  0  0  0  0  0  0  0  0  0  0  0
  -19.8923    6.8230   -0.0927 C   0  0  2  0  0  0  0  0  0  0  0  0
  -15.9742    8.2736   -1.0685 C   0  0  0  0  0  0  0  0  0  0  0  0
   -9.5528   10.0871    2.2504 C   0  0  0  0  0  0  0  0  0  0  0  0
  -11.4430   10.2764    0.6202 C   0  0  0  0  0  0  0  0  0  0  0  0
  -12.0747   10.9273   -0.4180 C   0  0  0  0  0  0  0  0  0  0  0  0
  -13.3834   10.6464   -0.7603 C   0  0  0  0  0  0  0  0  0  0  0  0
  -14.1212    9.7007   -0.0793 C   0  0  0  0  0  0  0  0  0  0  0  0
  -15.5123    9.4035   -0.4406 C   0  0  0  0  0  0  0  0  0  0  0  0
  -25.7760    8.8745   -0.3424 C   0  0  0  0  0  0  0  0  0  0  0  0
  -26.9994    9.0510    0.4967 C   0  0  0  0  0  0  0  0  0  0  0  0
  -24.7454    9.7882   -0.3244 C   0  0  0  0  0  0  0  0  0  0  0  0
  -23.6146    9.6049   -1.1135 C   0  0  0  0  0  0  0  0  0  0  0  0
  -19.3010    8.0839   -2.5595 C   0  0  1  0  0  0  0  0  0  0  0  0
  -13.4936    9.0429    0.9642 C   0  0  0  0  0  0  0  0  0  0  0  0
  -12.1887    9.3229    1.3056 C   0  0  0  0  0  0  0  0  0  0  0  0
  -11.3947   11.8705   -1.1270 F   0  0  0  0  0  0  0  0  0  0  0  0
  -13.9841   11.2970   -1.7822 F   0  0  0  0  0  0  0  0  0  0  0  0
  -14.2203    8.0989    1.6491 F   0  0  0  0  0  0  0  0  0  0  0  0
  -11.5863    8.6720    2.3297 F   0  0  0  0  0  0  0  0  0  0  0  0
  -10.0908   10.5540    0.9916 N   0  0  0  0  0  0  0  0  0  0  0  0
  -17.2975    8.3633   -1.2301 N   0  0  0  0  0  0  0  0  0  0  0  0
  -17.6967    9.5313   -0.7174 N   0  0  0  0  0  0  0  0  0  0  0  0
  -16.6236   10.1602   -0.2410 N   0  0  0  0  0  0  0  0  0  0  0  0
  -17.7412    5.8061   -0.0886 O   0  0  0  0  0  0  0  0  0  0  0  0
  -20.4464    6.6929    2.2229 O   0  0  0  0  0  0  0  0  0  0  0  0
  -20.6531    7.8282   -0.6849 O   0  0  0  0  0  0  0  0  0  0  0  0
  -19.2673    7.8884   -3.9392 O   0  0  0  0  0  0  0  0  0  0  0  0
  -22.0201    8.3341   -2.9144 S   0  0  0  0  0  0  0  0  0  0  0  0
 20  1  1  0
  1 33  1  0
  1 35  1  6
  3  2  2  0
  2  7  1  0
  3 19  1  0
 35  3  1  0
  8  4  1  1
  4 32  1  0
  5  6  1  0
  5 20  1  0
  5 28  1  1
  6  8  1  0
  6 31  1  1
  7 16  2  0
  8 33  1  0
 15  9  2  0
  9 28  1  0
 27 10  1  0
 12 11  2  0
 11 22  1  0
 11 27  1  0
 13 12  1  0
 12 23  1  0
 14 13  2  0
 13 24  1  0
 14 15  1  0
 14 21  1  0
 15 30  1  0
 16 17  1  0
 16 18  1  0
 18 19  2  0
 20 34  1  6
 21 22  2  0
 21 25  1  0
 22 26  1  0
 28 29  1  0
 29 30  2  0
M  END
$$$$
