
     RDKit          3D

 35 38  0  0  0  0  0  0  0  0999 V2000
  -20.4582    8.1951   -1.1495 C   0  0  1  0  0  0  0  0  0  0  0  0
  -23.5492    7.9931   -1.9670 C   0  0  0  0  0  0  0  0  0  0  0  0
  -23.2604    9.1078   -1.2148 C   0  0  0  0  0  0  0  0  0  0  0  0
  -20.0938    4.9309    0.2905 C   0  0  0  0  0  0  0  0  0  0  0  0
  -17.9890    7.7512   -1.1227 C   0  0  1  0  0  0  0  0  0  0  0  0
  -18.3250    6.6462   -0.1483 C   0  0  2  0  0  0  0  0  0  0  0  0
  -24.8535    7.6772   -2.3010 C   0  0  0  0  0  0  0  0  0  0  0  0
  -19.7280    6.1823   -0.4745 C   0  0  2  0  0  0  0  0  0  0  0  0
  -15.5331    8.0095   -0.6258 C   0  0  0  0  0  0  0  0  0  0  0  0
   -8.1412    9.3985   -0.2136 C   0  0  0  0  0  0  0  0  0  0  0  0
  -10.5464    9.1702    0.5337 C   0  0  0  0  0  0  0  0  0  0  0  0
  -11.4398    9.0003    1.5696 C   0  0  0  0  0  0  0  0  0  0  0  0
  -12.8177    8.9569    1.3228 C   0  0  0  0  0  0  0  0  0  0  0  0
  -13.3155    9.0818    0.0478 C   0  0  0  0  0  0  0  0  0  0  0  0
  -14.7464    9.0423   -0.2150 C   0  0  0  0  0  0  0  0  0  0  0  0
  -25.8817    8.4981   -1.8698 C   0  0  0  0  0  0  0  0  0  0  0  0
  -27.2888    8.2016   -2.2015 C   0  0  0  0  0  0  0  0  0  0  0  0
  -25.6115    9.6160   -1.1174 C   0  0  0  0  0  0  0  0  0  0  0  0
  -24.2990    9.9111   -0.7960 C   0  0  0  0  0  0  0  0  0  0  0  0
  -19.0824    8.7671   -1.2804 C   0  0  1  0  0  0  0  0  0  0  0  0
  -12.4236    9.2513   -0.9865 C   0  0  0  0  0  0  0  0  0  0  0  0
  -11.0507    9.2946   -0.7410 C   0  0  0  0  0  0  0  0  0  0  0  0
  -10.9966    8.8718    2.8526 F   0  0  0  0  0  0  0  0  0  0  0  0
  -13.6977    8.7897    2.3427 F   0  0  0  0  0  0  0  0  0  0  0  0
  -12.9143    9.3744   -2.2432 F   0  0  0  0  0  0  0  0  0  0  0  0
  -10.1647    9.4611   -1.7491 F   0  0  0  0  0  0  0  0  0  0  0  0
   -9.1393    9.2140    0.7919 N   0  0  0  0  0  0  0  0  0  0  0  0
  -16.7771    8.4540   -0.7256 N   0  0  0  0  0  0  0  0  0  0  0  0
  -16.7631    9.7290   -0.3859 N   0  0  0  0  0  0  0  0  0  0  0  0
  -15.5569   10.1051   -0.0756 N   0  0  0  0  0  0  0  0  0  0  0  0
  -18.3523    7.1851    1.1585 O   0  0  0  0  0  0  0  0  0  0  0  0
  -21.3968    4.5753    0.0515 O   0  0  0  0  0  0  0  0  0  0  0  0
  -20.5827    7.2399   -0.1740 O   0  0  0  0  0  0  0  0  0  0  0  0
  -18.9740    9.3135   -2.5652 O   0  0  0  0  0  0  0  0  0  0  0  0
  -21.6017    9.5494   -0.7650 S   0  0  0  0  0  0  0  0  0  0  0  0
 20  1  1  0
  1 33  1  0
  1 35  1  1
  3  2  2  0
  2  7  1  0
  3 19  1  0
 35  3  1  0
  8  4  1  0
  4 32  1  6
  5  6  1  0
  5 20  1  0
  5 28  1  1
  6  8  1  0
  6 31  1  1
  7 16  2  0
  8 33  1  1
 15  9  2  0
  9 28  1  0
 10 27  1  6
 12 11  2  0
 11 22  1  0
 11 27  1  0
 13 12  1  0
 12 23  1  0
 14 13  2  0
 13 24  1  0
 14 15  1  0
 14 21  1  0
 15 30  1  0
 17 16  1  6
 16 18  1  0
 18 19  2  0
 20 34  1  6
 21 22  2  0
 21 25  1  0
 22 26  1  0
 28 29  1  0
 29 30  2  0
M  END
$$$$
