
     RDKit          3D

 35 38  0  0  0  0  0  0  0  0999 V2000
  -20.5296    8.6640   -1.0469 C   0  0  1  0  0  0  0  0  0  0  0  0
  -23.6541    9.2533   -1.4159 C   0  0  0  0  0  0  0  0  0  0  0  0
  -22.9655   10.3156   -0.8782 C   0  0  0  0  0  0  0  0  0  0  0  0
  -20.6172    5.6253    0.8556 C   0  0  0  0  0  0  0  0  0  0  0  0
  -18.2980    7.5801   -1.4206 C   0  0  1  0  0  0  0  0  0  0  0  0
  -18.6474    6.7348   -0.2177 C   0  0  2  0  0  0  0  0  0  0  0  0
  -25.0307    9.2879   -1.5441 C   0  0  0  0  0  0  0  0  0  0  0  0
  -20.1564    6.6282   -0.1772 C   0  0  2  0  0  0  0  0  0  0  0  0
  -16.2097    8.6123   -0.4618 C   0  0  0  0  0  0  0  0  0  0  0  0
  -10.2599   11.3034    3.0199 C   0  0  0  0  0  0  0  0  0  0  0  0
  -11.5691   10.6069    0.9712 C   0  0  0  0  0  0  0  0  0  0  0  0
  -12.4066    9.7810    1.6900 C   0  0  0  0  0  0  0  0  0  0  0  0
  -13.5077    9.1723    1.0748 C   0  0  0  0  0  0  0  0  0  0  0  0
  -13.7829    9.3801   -0.2557 C   0  0  0  0  0  0  0  0  0  0  0  0
  -14.9282    8.7545   -0.8999 C   0  0  0  0  0  0  0  0  0  0  0  0
  -25.7228   10.4109   -1.1235 C   0  0  0  0  0  0  0  0  0  0  0  0
  -27.1915   10.4936   -1.2403 C   0  0  0  0  0  0  0  0  0  0  0  0
  -25.0510   11.4816   -0.5838 C   0  0  0  0  0  0  0  0  0  0  0  0
  -23.6741   11.4234   -0.4660 C   0  0  0  0  0  0  0  0  0  0  0  0
  -19.1275    8.8248   -1.5424 C   0  0  1  0  0  0  0  0  0  0  0  0
  -12.9468   10.2046   -0.9733 C   0  0  0  0  0  0  0  0  0  0  0  0
  -11.8497   10.8112   -0.3608 C   0  0  0  0  0  0  0  0  0  0  0  0
  -12.1768    9.5428    3.0127 F   0  0  0  0  0  0  0  0  0  0  0  0
  -14.3325    8.3590    1.7823 F   0  0  0  0  0  0  0  0  0  0  0  0
  -13.2182   10.4093   -2.2847 F   0  0  0  0  0  0  0  0  0  0  0  0
  -11.0212   11.6236   -1.0555 F   0  0  0  0  0  0  0  0  0  0  0  0
  -10.4454   11.2264    1.6053 N   0  0  0  0  0  0  0  0  0  0  0  0
  -16.8966    7.9749   -1.3985 N   0  0  0  0  0  0  0  0  0  0  0  0
  -16.0636    7.7280   -2.3915 N   0  0  0  0  0  0  0  0  0  0  0  0
  -14.8773    8.1857   -2.1164 N   0  0  0  0  0  0  0  0  0  0  0  0
  -18.2414    7.4180    0.9516 O   0  0  0  0  0  0  0  0  0  0  0  0
  -21.6727    4.8873    0.3835 O   0  0  0  0  0  0  0  0  0  0  0  0
  -20.6440    7.9052    0.0892 O   0  0  0  0  0  0  0  0  0  0  0  0
  -19.1967    9.1593   -2.9006 O   0  0  0  0  0  0  0  0  0  0  0  0
  -21.2003   10.3123   -0.6966 S   0  0  0  0  0  0  0  0  0  0  0  0
 20  1  1  0
  1 33  1  0
  1 35  1  1
  3  2  2  0
  2  7  1  0
  3 19  1  0
 35  3  1  0
  8  4  1  0
  4 32  1  6
  5  6  1  0
  5 20  1  0
  5 28  1  1
  6  8  1  0
  6 31  1  1
  7 16  2  0
  8 33  1  1
 15  9  2  0
  9 28  1  0
 10 27  1  6
 12 11  2  0
 11 22  1  0
 11 27  1  0
 13 12  1  0
 12 23  1  0
 14 13  2  0
 13 24  1  0
 14 15  1  0
 14 21  1  0
 15 30  1  0
 17 16  1  6
 16 18  1  0
 18 19  2  0
 20 34  1  6
 21 22  2  0
 21 25  1  0
 22 26  1  0
 28 29  1  0
 29 30  2  0
M  END
$$$$
