
     RDKit          3D

 35 38  0  0  0  0  0  0  0  0999 V2000
  -20.5197    8.3766   -1.1801 C   0  0  1  0  0  0  0  0  0  0  0  0
  -24.4077    9.8423   -0.7519 C   0  0  0  0  0  0  0  0  0  0  0  0
  -23.2758    9.4002   -1.3960 C   0  0  0  0  0  0  0  0  0  0  0  0
  -20.3093    5.0552    0.1560 C   0  0  0  0  0  0  0  0  0  0  0  0
  -18.0673    7.8610   -1.0612 C   0  0  1  0  0  0  0  0  0  0  0  0
  -18.4766    6.7329   -0.1428 C   0  0  2  0  0  0  0  0  0  0  0  0
  -25.6670    9.5525   -1.2445 C   0  0  0  0  0  0  0  0  0  0  0  0
  -19.8757    6.3213   -0.5467 C   0  0  2  0  0  0  0  0  0  0  0  0
  -15.5855    8.2063   -0.8028 C   0  0  0  0  0  0  0  0  0  0  0  0
   -8.2837    9.8038   -0.8957 C   0  0  0  0  0  0  0  0  0  0  0  0
  -10.5634    9.4157    0.1281 C   0  0  0  0  0  0  0  0  0  0  0  0
  -11.2005    9.5522   -1.0867 C   0  0  0  0  0  0  0  0  0  0  0  0
  -12.5948    9.4547   -1.1753 C   0  0  0  0  0  0  0  0  0  0  0  0
  -13.3631    9.2214   -0.0598 C   0  0  0  0  0  0  0  0  0  0  0  0
  -14.8120    9.1142   -0.1457 C   0  0  0  0  0  0  0  0  0  0  0  0
  -25.7861    8.8056   -2.4042 C   0  0  0  0  0  0  0  0  0  0  0  0
  -27.1085    8.4714   -2.9674 C   0  0  0  0  0  0  0  0  0  0  0  0
  -24.6659    8.3555   -3.0608 C   0  0  0  0  0  0  0  0  0  0  0  0
  -23.4172    8.6582   -2.5487 C   0  0  0  0  0  0  0  0  0  0  0  0
  -19.1244    8.9128   -1.2300 C   0  0  1  0  0  0  0  0  0  0  0  0
  -12.7270    9.0851    1.1529 C   0  0  0  0  0  0  0  0  0  0  0  0
  -11.3380    9.1822    1.2417 C   0  0  0  0  0  0  0  0  0  0  0  0
  -10.4834    9.7845   -2.2228 F   0  0  0  0  0  0  0  0  0  0  0  0
  -13.2224    9.5891   -2.3713 F   0  0  0  0  0  0  0  0  0  0  0  0
  -13.4844    8.8551    2.2524 F   0  0  0  0  0  0  0  0  0  0  0  0
  -10.7017    9.0497    2.4277 F   0  0  0  0  0  0  0  0  0  0  0  0
   -9.1381    9.5161    0.2126 N   0  0  0  0  0  0  0  0  0  0  0  0
  -16.8557    8.5144   -0.5863 N   0  0  0  0  0  0  0  0  0  0  0  0
  -16.8704    9.5851    0.1847 N   0  0  0  0  0  0  0  0  0  0  0  0
  -15.6571    9.9638    0.4625 N   0  0  0  0  0  0  0  0  0  0  0  0
  -18.5477    7.2267    1.1801 O   0  0  0  0  0  0  0  0  0  0  0  0
  -21.4003    4.5012   -0.4640 O   0  0  0  0  0  0  0  0  0  0  0  0
  -20.7139    7.3920   -0.2461 O   0  0  0  0  0  0  0  0  0  0  0  0
  -18.9437    9.5002   -2.4883 O   0  0  0  0  0  0  0  0  0  0  0  0
  -21.6420    9.7490   -0.7976 S   0  0  0  0  0  0  0  0  0  0  0  0
 20  1  1  0
  1 33  1  0
  1 35  1  1
  3  2  2  0
  2  7  1  0
  3 19  1  0
 35  3  1  0
  8  4  1  0
  4 32  1  6
  5  6  1  0
  5 20  1  0
  5 28  1  1
  6  8  1  0
  6 31  1  1
  7 16  2  0
  8 33  1  1
 15  9  2  0
  9 28  1  0
 10 27  1  6
 12 11  2  0
 11 22  1  0
 11 27  1  0
 13 12  1  0
 12 23  1  0
 14 13  2  0
 13 24  1  0
 14 15  1  0
 14 21  1  0
 15 30  1  0
 17 16  1  6
 16 18  1  0
 18 19  2  0
 20 34  1  6
 21 22  2  0
 21 25  1  0
 22 26  1  0
 28 29  1  0
 29 30  2  0
M  END
$$$$
