
     RDKit          3D

 35 38  0  0  0  0  0  0  0  0999 V2000
  -20.1090    8.5427   -1.1981 C   0  0  1  0  0  0  0  0  0  0  0  0
  -23.1723   11.0637   -1.5670 C   0  0  0  0  0  0  0  0  0  0  0  0
  -22.5593   10.1249   -0.7705 C   0  0  0  0  0  0  0  0  0  0  0  0
  -20.3213    5.1573   -0.0340 C   0  0  0  0  0  0  0  0  0  0  0  0
  -17.8576    7.5372   -1.6612 C   0  0  1  0  0  0  0  0  0  0  0  0
  -18.2853    6.4497   -0.7031 C   0  0  2  0  0  0  0  0  0  0  0  0
  -24.5454   11.0709   -1.7321 C   0  0  0  0  0  0  0  0  0  0  0  0
  -19.7937    6.3588   -0.7843 C   0  0  2  0  0  0  0  0  0  0  0  0
  -15.9036    8.6441   -0.5201 C   0  0  0  0  0  0  0  0  0  0  0  0
   -9.6858   12.4565    1.6300 C   0  0  0  0  0  0  0  0  0  0  0  0
  -11.4661   10.6736    1.4113 C   0  0  0  0  0  0  0  0  0  0  0  0
  -11.7523   11.0294    0.1106 C   0  0  0  0  0  0  0  0  0  0  0  0
  -12.7697   10.3793   -0.5989 C   0  0  0  0  0  0  0  0  0  0  0  0
  -13.5076    9.3736   -0.0218 C   0  0  0  0  0  0  0  0  0  0  0  0
  -14.5631    8.6906   -0.7551 C   0  0  0  0  0  0  0  0  0  0  0  0
  -25.3113   10.1169   -1.0838 C   0  0  0  0  0  0  0  0  0  0  0  0
  -26.7794   10.0852   -1.2295 C   0  0  0  0  0  0  0  0  0  0  0  0
  -24.7155    9.1714   -0.2839 C   0  0  0  0  0  0  0  0  0  0  0  0
  -23.3405    9.1845   -0.1345 C   0  0  0  0  0  0  0  0  0  0  0  0
  -18.6775    8.7896   -1.5542 C   0  0  1  0  0  0  0  0  0  0  0  0
  -13.2219    9.0184    1.2767 C   0  0  0  0  0  0  0  0  0  0  0  0
  -12.2084    9.6658    1.9840 C   0  0  0  0  0  0  0  0  0  0  0  0
  -11.0490   12.0208   -0.5071 F   0  0  0  0  0  0  0  0  0  0  0  0
  -13.0517   10.7294   -1.8797 F   0  0  0  0  0  0  0  0  0  0  0  0
  -13.9493    8.0271    1.8455 F   0  0  0  0  0  0  0  0  0  0  0  0
  -11.9184    9.3254    3.2603 F   0  0  0  0  0  0  0  0  0  0  0  0
  -10.4250   11.3414    2.1315 N   0  0  0  0  0  0  0  0  0  0  0  0
  -16.4607    7.8966   -1.4614 N   0  0  0  0  0  0  0  0  0  0  0  0
  -15.4918    7.4898   -2.2595 N   0  0  0  0  0  0  0  0  0  0  0  0
  -14.3446    7.9529   -1.8568 N   0  0  0  0  0  0  0  0  0  0  0  0
  -17.9571    6.8484    0.6130 O   0  0  0  0  0  0  0  0  0  0  0  0
  -21.6822    5.0545   -0.1709 O   0  0  0  0  0  0  0  0  0  0  0  0
  -20.2979    7.5510   -0.2706 O   0  0  0  0  0  0  0  0  0  0  0  0
  -18.6572    9.4201   -2.8045 O   0  0  0  0  0  0  0  0  0  0  0  0
  -20.8015   10.0807   -0.5314 S   0  0  0  0  0  0  0  0  0  0  0  0
 20  1  1  0
  1 33  1  0
  1 35  1  1
  3  2  2  0
  2  7  1  0
  3 19  1  0
 35  3  1  0
  8  4  1  0
  4 32  1  6
  5  6  1  0
  5 20  1  0
  5 28  1  1
  6  8  1  0
  6 31  1  1
  7 16  2  0
  8 33  1  1
 15  9  2  0
  9 28  1  0
 10 27  1  6
 12 11  2  0
 11 22  1  0
 11 27  1  0
 13 12  1  0
 12 23  1  0
 14 13  2  0
 13 24  1  0
 14 15  1  0
 14 21  1  0
 15 30  1  0
 17 16  1  6
 16 18  1  0
 18 19  2  0
 20 34  1  6
 21 22  2  0
 21 25  1  0
 22 26  1  0
 28 29  1  0
 29 30  2  0
M  END
$$$$
