
     RDKit          3D

 35 38  0  0  0  0  0  0  0  0999 V2000
  -20.6546    8.3734   -0.9207 C   0  0  1  0  0  0  0  0  0  0  0  0
  -24.4784   10.1429   -0.4737 C   0  0  0  0  0  0  0  0  0  0  0  0
  -23.3891    9.4730   -0.9800 C   0  0  0  0  0  0  0  0  0  0  0  0
  -20.2583    4.9778    0.1627 C   0  0  0  0  0  0  0  0  0  0  0  0
  -18.1958    7.9038   -1.0887 C   0  0  1  0  0  0  0  0  0  0  0  0
  -18.4911    6.7101   -0.2103 C   0  0  2  0  0  0  0  0  0  0  0  0
  -25.7425    9.9476   -0.9994 C   0  0  0  0  0  0  0  0  0  0  0  0
  -19.9184    6.2957   -0.4950 C   0  0  2  0  0  0  0  0  0  0  0  0
  -15.7136    8.3318   -1.1177 C   0  0  0  0  0  0  0  0  0  0  0  0
   -8.5698   10.5024   -1.9209 C   0  0  0  0  0  0  0  0  0  0  0  0
  -10.6567    9.6881   -0.7471 C   0  0  0  0  0  0  0  0  0  0  0  0
  -11.2192    9.0892    0.3597 C   0  0  0  0  0  0  0  0  0  0  0  0
  -12.6068    8.9241    0.4530 C   0  0  0  0  0  0  0  0  0  0  0  0
  -13.4424    9.3523   -0.5507 C   0  0  0  0  0  0  0  0  0  0  0  0
  -14.8856    9.1882   -0.4579 C   0  0  0  0  0  0  0  0  0  0  0  0
  -25.9102    9.0634   -2.0516 C   0  0  0  0  0  0  0  0  0  0  0  0
  -27.2397    8.8224   -2.6449 C   0  0  0  0  0  0  0  0  0  0  0  0
  -24.8329    8.3854   -2.5699 C   0  0  0  0  0  0  0  0  0  0  0  0
  -23.5784    8.5975   -2.0273 C   0  0  0  0  0  0  0  0  0  0  0  0
  -19.2799    8.9415   -1.0777 C   0  0  1  0  0  0  0  0  0  0  0  0
  -12.8808    9.9502   -1.6557 C   0  0  0  0  0  0  0  0  0  0  0  0
  -11.4985   10.1148   -1.7491 C   0  0  0  0  0  0  0  0  0  0  0  0
  -10.4336    8.6473    1.3827 F   0  0  0  0  0  0  0  0  0  0  0  0
  -13.1610    8.3344    1.5428 F   0  0  0  0  0  0  0  0  0  0  0  0
  -13.7045   10.3722   -2.6451 F   0  0  0  0  0  0  0  0  0  0  0  0
  -10.9351   10.7011   -2.8298 F   0  0  0  0  0  0  0  0  0  0  0  0
   -9.2380    9.8543   -0.8369 N   0  0  0  0  0  0  0  0  0  0  0  0
  -16.9511    8.5507   -0.6982 N   0  0  0  0  0  0  0  0  0  0  0  0
  -16.8928    9.5174    0.1980 N   0  0  0  0  0  0  0  0  0  0  0  0
  -15.6650    9.9162    0.3596 N   0  0  0  0  0  0  0  0  0  0  0  0
  -18.4317    7.1156    1.1428 O   0  0  0  0  0  0  0  0  0  0  0  0
  -21.6145    4.8455    0.3201 O   0  0  0  0  0  0  0  0  0  0  0  0
  -20.7364    7.3266   -0.0393 O   0  0  0  0  0  0  0  0  0  0  0  0
  -19.2394    9.6128   -2.3061 O   0  0  0  0  0  0  0  0  0  0  0  0
  -21.7509    9.6940   -0.3346 S   0  0  0  0  0  0  0  0  0  0  0  0
 20  1  1  0
  1 33  1  0
  1 35  1  1
  3  2  2  0
  2  7  1  0
  3 19  1  0
 35  3  1  0
  8  4  1  0
  4 32  1  6
  5  6  1  0
  5 20  1  0
  5 28  1  1
  6  8  1  0
  6 31  1  1
  7 16  2  0
  8 33  1  1
 15  9  2  0
  9 28  1  0
 10 27  1  6
 12 11  2  0
 11 22  1  0
 11 27  1  0
 13 12  1  0
 12 23  1  0
 14 13  2  0
 13 24  1  0
 14 15  1  0
 14 21  1  0
 15 30  1  0
 17 16  1  6
 16 18  1  0
 18 19  2  0
 20 34  1  6
 21 22  2  0
 21 25  1  0
 22 26  1  0
 28 29  1  0
 29 30  2  0
M  END
$$$$
