
     RDKit          3D

 35 38  0  0  0  0  0  0  0  0999 V2000
  -20.5415    7.3817   -1.9390 C   0  0  1  0  0  0  0  0  0  0  0  0
  -21.4198   10.8258   -3.1022 C   0  0  0  0  0  0  0  0  0  0  0  0
  -21.9586   10.0060   -2.1334 C   0  0  0  0  0  0  0  0  0  0  0  0
  -19.0108    5.7570    0.8685 C   0  0  0  0  0  0  0  0  0  0  0  0
  -18.0584    7.3724   -2.0134 C   0  0  1  0  0  0  0  0  0  0  0  0
  -18.4461    5.9991   -1.5610 C   0  0  2  0  0  0  0  0  0  0  0  0
  -21.3643   12.2126   -2.9260 C   0  0  0  0  0  0  0  0  0  0  0  0
  -19.5313    5.9525   -0.5388 C   0  0  2  0  0  0  0  0  0  0  0  0
  -15.8478    8.1215   -1.1809 C   0  0  0  0  0  0  0  0  0  0  0  0
   -9.0406   10.7229    0.0705 C   0  0  0  0  0  0  0  0  0  0  0  0
  -11.2826    9.8252    0.7295 C   0  0  0  0  0  0  0  0  0  0  0  0
  -11.8276   10.0876   -0.5092 C   0  0  0  0  0  0  0  0  0  0  0  0
  -13.1469    9.7951   -0.7973 C   0  0  0  0  0  0  0  0  0  0  0  0
  -13.9823    9.2262    0.1413 C   0  0  0  0  0  0  0  0  0  0  0  0
  -15.3844    8.9175   -0.1630 C   0  0  0  0  0  0  0  0  0  0  0  0
  -21.8453   12.8034   -1.7811 C   0  0  0  0  0  0  0  0  0  0  0  0
  -21.7769   14.2863   -1.6124 C   0  0  0  0  0  0  0  0  0  0  0  0
  -22.3841   11.9866   -0.8117 C   0  0  0  0  0  0  0  0  0  0  0  0
  -22.4384   10.6080   -0.9887 C   0  0  0  0  0  0  0  0  0  0  0  0
  -19.3064    8.1605   -2.2992 C   0  0  1  0  0  0  0  0  0  0  0  0
  -13.4420    8.9598    1.3873 C   0  0  0  0  0  0  0  0  0  0  0  0
  -12.1267    9.2515    1.6747 C   0  0  0  0  0  0  0  0  0  0  0  0
  -11.0493   10.6478   -1.4761 F   0  0  0  0  0  0  0  0  0  0  0  0
  -13.6615   10.0608   -2.0191 F   0  0  0  0  0  0  0  0  0  0  0  0
  -14.2663    8.3933    2.3296 F   0  0  0  0  0  0  0  0  0  0  0  0
  -11.6103    8.9861    2.8988 F   0  0  0  0  0  0  0  0  0  0  0  0
   -9.9212   10.1224    1.0483 N   0  0  0  0  0  0  0  0  0  0  0  0
  -17.1827    8.0790   -1.1405 N   0  0  0  0  0  0  0  0  0  0  0  0
  -17.5879    8.8336   -0.1144 N   0  0  0  0  0  0  0  0  0  0  0  0
  -16.5070    9.3400    0.4764 N   0  0  0  0  0  0  0  0  0  0  0  0
  -17.3371    5.2479   -1.1309 O   0  0  0  0  0  0  0  0  0  0  0  0
  -19.9559    5.0843    1.6410 O   0  0  0  0  0  0  0  0  0  0  0  0
  -20.4144    7.0279   -0.5971 O   0  0  0  0  0  0  0  0  0  0  0  0
  -19.4211    8.5472   -3.6336 O   0  0  0  0  0  0  0  0  0  0  0  0
  -22.0584    8.2535   -2.2974 S   0  0  0  0  0  0  0  0  0  0  0  0
 20  1  1  0
  1 33  1  0
  1 35  1  1
  3  2  2  0
  2  7  1  0
  3 19  1  0
 35  3  1  0
  8  4  1  1
  4 32  1  0
  5  6  1  0
  5 20  1  0
  5 28  1  1
  6  8  1  0
  6 31  1  1
  7 16  2  0
  8 33  1  0
 15  9  2  0
  9 28  1  0
 27 10  1  0
 12 11  2  0
 11 22  1  0
 11 27  1  0
 13 12  1  0
 12 23  1  0
 14 13  2  0
 13 24  1  0
 14 15  1  0
 14 21  1  0
 15 30  1  0
 16 17  1  0
 16 18  1  0
 18 19  2  0
 20 34  1  6
 21 22  2  0
 21 25  1  0
 22 26  1  0
 28 29  1  0
 29 30  2  0
M  END
$$$$
