
     RDKit          3D

 35 38  0  0  0  0  0  0  0  0999 V2000
  -20.7816    9.1489   -0.6737 C   0  0  1  0  0  0  0  0  0  0  0  0
  -23.8679   11.4052    0.1411 C   0  0  0  0  0  0  0  0  0  0  0  0
  -23.3006   10.1906    0.4485 C   0  0  0  0  0  0  0  0  0  0  0  0
  -21.1637    5.8083   -1.9208 C   0  0  0  0  0  0  0  0  0  0  0  0
  -18.4891    8.4484   -1.4139 C   0  0  1  0  0  0  0  0  0  0  0  0
  -19.0508    7.0456   -1.4034 C   0  0  2  0  0  0  0  0  0  0  0  0
  -25.2295   11.5226   -0.0708 C   0  0  0  0  0  0  0  0  0  0  0  0
  -20.5324    7.1620   -1.6886 C   0  0  2  0  0  0  0  0  0  0  0  0
  -16.1133    9.2587   -1.2028 C   0  0  0  0  0  0  0  0  0  0  0  0
   -8.5861   10.2841   -0.6843 C   0  0  0  0  0  0  0  0  0  0  0  0
  -11.0824   10.4746   -0.3263 C   0  0  0  0  0  0  0  0  0  0  0  0
  -12.1689   11.2988   -0.1258 C   0  0  0  0  0  0  0  0  0  0  0  0
  -13.4706   10.7830   -0.1578 C   0  0  0  0  0  0  0  0  0  0  0  0
  -13.7002    9.4477   -0.3886 C   0  0  0  0  0  0  0  0  0  0  0  0
  -15.0505    8.9061   -0.4278 C   0  0  0  0  0  0  0  0  0  0  0  0
  -26.0306   10.3978    0.0288 C   0  0  0  0  0  0  0  0  0  0  0  0
  -27.4882   10.4741   -0.1886 C   0  0  0  0  0  0  0  0  0  0  0  0
  -25.4808    9.1760    0.3352 C   0  0  0  0  0  0  0  0  0  0  0  0
  -24.1164    9.0839    0.5428 C   0  0  0  0  0  0  0  0  0  0  0  0
  -19.3135    9.4323   -0.6364 C   0  0  1  0  0  0  0  0  0  0  0  0
  -12.6155    8.6248   -0.5887 C   0  0  0  0  0  0  0  0  0  0  0  0
  -11.3185    9.1383   -0.5570 C   0  0  0  0  0  0  0  0  0  0  0  0
  -11.9944   12.6309    0.1069 F   0  0  0  0  0  0  0  0  0  0  0  0
  -14.5406   11.5944    0.0396 F   0  0  0  0  0  0  0  0  0  0  0  0
  -12.8419    7.3086   -0.8163 F   0  0  0  0  0  0  0  0  0  0  0  0
  -10.2448    8.3396   -0.7525 F   0  0  0  0  0  0  0  0  0  0  0  0
   -9.7544   11.0074   -0.2928 N   0  0  0  0  0  0  0  0  0  0  0  0
  -17.1342    8.4779   -0.8812 N   0  0  0  0  0  0  0  0  0  0  0  0
  -16.7163    7.6624    0.0682 N   0  0  0  0  0  0  0  0  0  0  0  0
  -15.4702    7.8995    0.3573 N   0  0  0  0  0  0  0  0  0  0  0  0
  -18.9126    6.5103   -0.1022 O   0  0  0  0  0  0  0  0  0  0  0  0
  -22.5062    5.9319   -2.1735 O   0  0  0  0  0  0  0  0  0  0  0  0
  -21.1024    7.8180   -0.6005 O   0  0  0  0  0  0  0  0  0  0  0  0
  -19.1142   10.6972   -1.2035 O   0  0  0  0  0  0  0  0  0  0  0  0
  -21.5591    9.9966    0.7286 S   0  0  0  0  0  0  0  0  0  0  0  0
 20  1  1  0
  1 33  1  0
  1 35  1  1
  3  2  2  0
  2  7  1  0
  3 19  1  0
 35  3  1  0
  8  4  1  0
  4 32  1  6
  5  6  1  0
  5 20  1  0
  5 28  1  1
  6  8  1  0
  6 31  1  1
  7 16  2  0
  8 33  1  1
 15  9  2  0
  9 28  1  0
 10 27  1  6
 12 11  2  0
 11 22  1  0
 11 27  1  0
 13 12  1  0
 12 23  1  0
 14 13  2  0
 13 24  1  0
 14 15  1  0
 14 21  1  0
 15 30  1  0
 17 16  1  6
 16 18  1  0
 18 19  2  0
 20 34  1  6
 21 22  2  0
 21 25  1  0
 22 26  1  0
 28 29  1  0
 29 30  2  0
M  END
$$$$
