
     RDKit          3D

 35 38  0  0  0  0  0  0  0  0999 V2000
  -20.2549    8.0571   -1.5470 C   0  0  1  0  0  0  0  0  0  0  0  0
  -23.7994    9.6029   -0.3273 C   0  0  0  0  0  0  0  0  0  0  0  0
  -22.9426    9.2509   -1.3440 C   0  0  0  0  0  0  0  0  0  0  0  0
  -20.0076    5.0565    0.4013 C   0  0  0  0  0  0  0  0  0  0  0  0
  -17.8593    7.3364   -1.7359 C   0  0  1  0  0  0  0  0  0  0  0  0
  -18.1612    6.4552   -0.5460 C   0  0  2  0  0  0  0  0  0  0  0  0
  -25.1528    9.3304   -0.4096 C   0  0  0  0  0  0  0  0  0  0  0  0
  -19.6335    6.1121   -0.6139 C   0  0  2  0  0  0  0  0  0  0  0  0
  -15.7697    8.0991   -0.5536 C   0  0  0  0  0  0  0  0  0  0  0  0
   -8.9734   11.0135    1.5973 C   0  0  0  0  0  0  0  0  0  0  0  0
  -11.2275    9.8922    1.3568 C   0  0  0  0  0  0  0  0  0  0  0  0
  -11.2939   10.1757    0.0094 C   0  0  0  0  0  0  0  0  0  0  0  0
  -12.4113    9.7960   -0.7448 C   0  0  0  0  0  0  0  0  0  0  0  0
  -13.4674    9.1336   -0.1661 C   0  0  0  0  0  0  0  0  0  0  0  0
  -14.6293    8.7321   -0.9450 C   0  0  0  0  0  0  0  0  0  0  0  0
  -25.6490    8.6933   -1.5343 C   0  0  0  0  0  0  0  0  0  0  0  0
  -27.0853    8.3817   -1.6668 C   0  0  0  0  0  0  0  0  0  0  0  0
  -24.8073    8.3343   -2.5597 C   0  0  0  0  0  0  0  0  0  0  0  0
  -23.4576    8.6176   -2.4543 C   0  0  0  0  0  0  0  0  0  0  0  0
  -18.8622    8.4336   -1.9417 C   0  0  1  0  0  0  0  0  0  0  0  0
  -13.4011    8.8506    1.1791 C   0  0  0  0  0  0  0  0  0  0  0  0
  -12.2882    9.2287    1.9308 C   0  0  0  0  0  0  0  0  0  0  0  0
  -10.2722   10.8307   -0.6119 F   0  0  0  0  0  0  0  0  0  0  0  0
  -12.4769   10.0750   -2.0715 F   0  0  0  0  0  0  0  0  0  0  0  0
  -14.4422    8.1978    1.7494 F   0  0  0  0  0  0  0  0  0  0  0  0
  -12.2115    8.9559    3.2532 F   0  0  0  0  0  0  0  0  0  0  0  0
  -10.0830   10.2824    2.1225 N   0  0  0  0  0  0  0  0  0  0  0  0
  -16.5428    7.9477   -1.6188 N   0  0  0  0  0  0  0  0  0  0  0  0
  -15.8994    8.4727   -2.6443 N   0  0  0  0  0  0  0  0  0  0  0  0
  -14.7496    8.9495   -2.2656 N   0  0  0  0  0  0  0  0  0  0  0  0
  -17.9565    7.2024    0.6367 O   0  0  0  0  0  0  0  0  0  0  0  0
  -20.6216    3.9905   -0.2056 O   0  0  0  0  0  0  0  0  0  0  0  0
  -20.3340    7.2979   -0.4082 O   0  0  0  0  0  0  0  0  0  0  0  0
  -18.8806    8.7432   -3.3073 O   0  0  0  0  0  0  0  0  0  0  0  0
  -21.2004    9.5813   -1.2781 S   0  0  0  0  0  0  0  0  0  0  0  0
 20  1  1  0
  1 33  1  0
  1 35  1  1
  3  2  2  0
  2  7  1  0
  3 19  1  0
 35  3  1  0
  8  4  1  0
  4 32  1  6
  5  6  1  0
  5 20  1  0
  5 28  1  1
  6  8  1  0
  6 31  1  1
  7 16  2  0
  8 33  1  1
 15  9  2  0
  9 28  1  0
 10 27  1  6
 12 11  2  0
 11 22  1  0
 11 27  1  0
 13 12  1  0
 12 23  1  0
 14 13  2  0
 13 24  1  0
 14 15  1  0
 14 21  1  0
 15 30  1  0
 17 16  1  6
 16 18  1  0
 18 19  2  0
 20 34  1  6
 21 22  2  0
 21 25  1  0
 22 26  1  0
 28 29  1  0
 29 30  2  0
M  END
$$$$
