
     RDKit          3D

 35 38  0  0  0  0  0  0  0  0999 V2000
  -20.7805    8.3003   -0.9404 C   0  0  1  0  0  0  0  0  0  0  0  0
  -23.8608    9.0753   -1.2649 C   0  0  0  0  0  0  0  0  0  0  0  0
  -23.2087    9.8618   -0.3441 C   0  0  0  0  0  0  0  0  0  0  0  0
  -20.6652    4.7715   -0.3118 C   0  0  0  0  0  0  0  0  0  0  0  0
  -18.5383    7.5480   -1.7775 C   0  0  1  0  0  0  0  0  0  0  0  0
  -18.7940    6.2990   -0.9661 C   0  0  2  0  0  0  0  0  0  0  0  0
  -25.2057    9.2561   -1.5313 C   0  0  0  0  0  0  0  0  0  0  0  0
  -20.2942    6.1088   -0.9109 C   0  0  2  0  0  0  0  0  0  0  0  0
  -16.5462    8.6385   -0.6875 C   0  0  0  0  0  0  0  0  0  0  0  0
  -10.9231   12.8196    1.9651 C   0  0  0  0  0  0  0  0  0  0  0  0
  -12.0805   10.7592    1.0647 C   0  0  0  0  0  0  0  0  0  0  0  0
  -12.0722    9.3911    0.8959 C   0  0  0  0  0  0  0  0  0  0  0  0
  -13.1089    8.7517    0.2046 C   0  0  0  0  0  0  0  0  0  0  0  0
  -14.1582    9.4663   -0.3221 C   0  0  0  0  0  0  0  0  0  0  0  0
  -15.2411    8.8076   -1.0374 C   0  0  0  0  0  0  0  0  0  0  0  0
  -25.9032   10.2452   -0.8588 C   0  0  0  0  0  0  0  0  0  0  0  0
  -27.3390   10.4754   -1.1098 C   0  0  0  0  0  0  0  0  0  0  0  0
  -25.2676   11.0405    0.0646 C   0  0  0  0  0  0  0  0  0  0  0  0
  -23.9219   10.8404    0.3139 C   0  0  0  0  0  0  0  0  0  0  0  0
  -19.4135    8.7048   -1.3928 C   0  0  1  0  0  0  0  0  0  0  0  0
  -14.1665   10.8321   -0.1536 C   0  0  0  0  0  0  0  0  0  0  0  0
  -13.1339   11.4694    0.5350 C   0  0  0  0  0  0  0  0  0  0  0  0
  -11.0539    8.6371    1.3995 F   0  0  0  0  0  0  0  0  0  0  0  0
  -13.1009    7.4047    0.0382 F   0  0  0  0  0  0  0  0  0  0  0  0
  -15.2008   11.5363   -0.6729 F   0  0  0  0  0  0  0  0  0  0  0  0
  -13.1313   12.8108    0.7072 F   0  0  0  0  0  0  0  0  0  0  0  0
  -11.0184   11.4071    1.7722 N   0  0  0  0  0  0  0  0  0  0  0  0
  -17.1514    7.9766   -1.6627 N   0  0  0  0  0  0  0  0  0  0  0  0
  -16.2460    7.7410   -2.5932 N   0  0  0  0  0  0  0  0  0  0  0  0
  -15.0926    8.2296   -2.2414 N   0  0  0  0  0  0  0  0  0  0  0  0
  -18.3477    6.5174    0.3575 O   0  0  0  0  0  0  0  0  0  0  0  0
  -21.9962    4.5018   -0.5046 O   0  0  0  0  0  0  0  0  0  0  0  0
  -20.8082    7.1683   -0.1675 O   0  0  0  0  0  0  0  0  0  0  0  0
  -19.5671    9.5170   -2.5233 O   0  0  0  0  0  0  0  0  0  0  0  0
  -21.4847    9.6634    0.0267 S   0  0  0  0  0  0  0  0  0  0  0  0
 20  1  1  0
  1 33  1  0
  1 35  1  1
  3  2  2  0
  2  7  1  0
  3 19  1  0
 35  3  1  0
  8  4  1  0
  4 32  1  6
  5  6  1  0
  5 20  1  0
  5 28  1  1
  6  8  1  0
  6 31  1  1
  7 16  2  0
  8 33  1  1
 15  9  2  0
  9 28  1  0
 10 27  1  6
 12 11  2  0
 11 22  1  0
 11 27  1  0
 13 12  1  0
 12 23  1  0
 14 13  2  0
 13 24  1  0
 14 15  1  0
 14 21  1  0
 15 30  1  0
 17 16  1  6
 16 18  1  0
 18 19  2  0
 20 34  1  6
 21 22  2  0
 21 25  1  0
 22 26  1  0
 28 29  1  0
 29 30  2  0
M  END
$$$$
