
     RDKit          3D

 35 38  0  0  0  0  0  0  0  0999 V2000
  -20.8255    8.1669   -1.0471 C   0  0  1  0  0  0  0  0  0  0  0  0
  -24.8612    9.4296   -1.6755 C   0  0  0  0  0  0  0  0  0  0  0  0
  -23.7404    8.6457   -1.5027 C   0  0  0  0  0  0  0  0  0  0  0  0
  -19.0943    5.6905    0.8855 C   0  0  0  0  0  0  0  0  0  0  0  0
  -18.4302    7.9114   -1.6538 C   0  0  1  0  0  0  0  0  0  0  0  0
  -18.9443    6.5169   -1.4756 C   0  0  2  0  0  0  0  0  0  0  0  0
  -26.0428    8.8951   -2.2006 C   0  0  0  0  0  0  0  0  0  0  0  0
  -19.8214    6.3131   -0.2864 C   0  0  2  0  0  0  0  0  0  0  0  0
  -16.0905    8.6217   -1.2511 C   0  0  0  0  0  0  0  0  0  0  0  0
   -8.8218    9.7530    0.5353 C   0  0  0  0  0  0  0  0  0  0  0  0
  -11.1910   10.1219   -0.1841 C   0  0  0  0  0  0  0  0  0  0  0  0
  -12.1636   10.8232   -0.8644 C   0  0  0  0  0  0  0  0  0  0  0  0
  -13.4856   10.4218   -0.8568 C   0  0  0  0  0  0  0  0  0  0  0  0
  -13.8960    9.2996   -0.1678 C   0  0  0  0  0  0  0  0  0  0  0  0
  -15.3005    8.8740   -0.1571 C   0  0  0  0  0  0  0  0  0  0  0  0
  -26.1248    7.5705   -2.5613 C   0  0  0  0  0  0  0  0  0  0  0  0
  -27.3958    7.0191   -3.1204 C   0  0  0  0  0  0  0  0  0  0  0  0
  -25.0064    6.7852   -2.3896 C   0  0  0  0  0  0  0  0  0  0  0  0
  -23.8325    7.3186   -1.8674 C   0  0  0  0  0  0  0  0  0  0  0  0
  -19.5671    8.8767   -1.4646 C   0  0  1  0  0  0  0  0  0  0  0  0
  -12.9250    8.5903    0.5175 C   0  0  0  0  0  0  0  0  0  0  0  0
  -11.6069    8.9904    0.5101 C   0  0  0  0  0  0  0  0  0  0  0  0
  -11.8164   11.9391   -1.5635 F   0  0  0  0  0  0  0  0  0  0  0  0
  -14.4238   11.1245   -1.5308 F   0  0  0  0  0  0  0  0  0  0  0  0
  -13.3239    7.4708    1.2073 F   0  0  0  0  0  0  0  0  0  0  0  0
  -10.6663    8.2873    1.1856 F   0  0  0  0  0  0  0  0  0  0  0  0
   -9.8186   10.5216   -0.1773 N   0  0  0  0  0  0  0  0  0  0  0  0
  -17.3104    8.2580   -0.8451 N   0  0  0  0  0  0  0  0  0  0  0  0
  -17.3207    8.2716    0.4914 N   0  0  0  0  0  0  0  0  0  0  0  0
  -16.1114    8.6422    0.9088 N   0  0  0  0  0  0  0  0  0  0  0  0
  -17.9104    5.5629   -1.4894 O   0  0  0  0  0  0  0  0  0  0  0  0
  -19.8970    4.7252    1.4908 O   0  0  0  0  0  0  0  0  0  0  0  0
  -20.5174    7.4528    0.1093 O   0  0  0  0  0  0  0  0  0  0  0  0
  -19.8567    9.6190   -2.6084 O   0  0  0  0  0  0  0  0  0  0  0  0
  -22.2232    9.2607   -0.8484 S   0  0  0  0  0  0  0  0  0  0  0  0
 20  1  1  0
  1 33  1  0
  1 35  1  1
  3  2  2  0
  2  7  1  0
  3 19  1  0
 35  3  1  0
  8  4  1  1
  4 32  1  0
  5  6  1  0
  5 20  1  0
  5 28  1  1
  6  8  1  0
  6 31  1  1
  7 16  2  0
  8 33  1  0
 15  9  2  0
  9 28  1  0
 27 10  1  0
 12 11  2  0
 11 22  1  0
 11 27  1  0
 13 12  1  0
 12 23  1  0
 14 13  2  0
 13 24  1  0
 14 15  1  0
 14 21  1  0
 15 30  1  0
 16 17  1  0
 16 18  1  0
 18 19  2  0
 20 34  1  6
 21 22  2  0
 21 25  1  0
 22 26  1  0
 28 29  1  0
 29 30  2  0
M  END
$$$$
