
     RDKit          3D

 35 38  0  0  0  0  0  0  0  0999 V2000
  -20.9105    8.4178   -0.3128 C   0  0  1  0  0  0  0  0  0  0  0  0
  -24.6643   10.3644    0.3755 C   0  0  0  0  0  0  0  0  0  0  0  0
  -23.6584    9.5824   -0.1513 C   0  0  0  0  0  0  0  0  0  0  0  0
  -19.2247    5.2617   -0.0635 C   0  0  0  0  0  0  0  0  0  0  0  0
  -18.7094    8.3597   -1.4628 C   0  0  1  0  0  0  0  0  0  0  0  0
  -19.3683    7.0596   -1.8034 C   0  0  2  0  0  0  0  0  0  0  0  0
  -25.8889   10.5083   -0.2856 C   0  0  0  0  0  0  0  0  0  0  0  0
  -20.0499    6.3784   -0.6649 C   0  0  2  0  0  0  0  0  0  0  0  0
  -16.3583    9.0221   -1.0448 C   0  0  0  0  0  0  0  0  0  0  0  0
   -9.8006   12.0654    0.7106 C   0  0  0  0  0  0  0  0  0  0  0  0
  -11.3796   10.2613   -0.0097 C   0  0  0  0  0  0  0  0  0  0  0  0
  -12.4704   10.9041    0.5356 C   0  0  0  0  0  0  0  0  0  0  0  0
  -13.7411   10.3670    0.4588 C   0  0  0  0  0  0  0  0  0  0  0  0
  -13.9793    9.1614   -0.1675 C   0  0  0  0  0  0  0  0  0  0  0  0
  -15.3283    8.5890   -0.2473 C   0  0  0  0  0  0  0  0  0  0  0  0
  -26.1293    9.8747   -1.4823 C   0  0  0  0  0  0  0  0  0  0  0  0
  -27.4438   10.0414   -2.1725 C   0  0  0  0  0  0  0  0  0  0  0  0
  -25.1260    9.0929   -2.0107 C   0  0  0  0  0  0  0  0  0  0  0  0
  -23.9091    8.9510   -1.3519 C   0  0  0  0  0  0  0  0  0  0  0  0
  -19.6576    9.1838   -0.6370 C   0  0  1  0  0  0  0  0  0  0  0  0
  -12.8888    8.5104   -0.7175 C   0  0  0  0  0  0  0  0  0  0  0  0
  -11.6218    9.0456   -0.6409 C   0  0  0  0  0  0  0  0  0  0  0  0
  -12.2955   12.0988    1.1653 F   0  0  0  0  0  0  0  0  0  0  0  0
  -14.7974   11.0141    1.0008 F   0  0  0  0  0  0  0  0  0  0  0  0
  -13.1157    7.3083   -1.3435 F   0  0  0  0  0  0  0  0  0  0  0  0
  -10.5628    8.3977   -1.1832 F   0  0  0  0  0  0  0  0  0  0  0  0
  -10.0568   10.7987    0.0610 N   0  0  0  0  0  0  0  0  0  0  0  0
  -17.4323    8.2535   -0.8417 N   0  0  0  0  0  0  0  0  0  0  0  0
  -17.1127    7.3327    0.0728 N   0  0  0  0  0  0  0  0  0  0  0  0
  -15.8460    7.5321    0.4328 N   0  0  0  0  0  0  0  0  0  0  0  0
  -18.4894    6.1708   -2.4491 O   0  0  0  0  0  0  0  0  0  0  0  0
  -19.9541    4.0741   -0.0595 O   0  0  0  0  0  0  0  0  0  0  0  0
  -20.5093    7.2450    0.3240 O   0  0  0  0  0  0  0  0  0  0  0  0
  -20.0349   10.3752   -1.2545 O   0  0  0  0  0  0  0  0  0  0  0  0
  -22.0944    9.3633    0.6325 S   0  0  0  0  0  0  0  0  0  0  0  0
 20  1  1  0
  1 33  1  0
  1 35  1  1
  3  2  2  0
  2  7  1  0
  3 19  1  0
 35  3  1  0
  8  4  1  1
  4 32  1  0
  5  6  1  0
  5 20  1  0
  5 28  1  1
  6  8  1  0
  6 31  1  1
  7 16  2  0
  8 33  1  0
 15  9  2  0
  9 28  1  0
 27 10  1  0
 12 11  2  0
 11 22  1  0
 11 27  1  0
 13 12  1  0
 12 23  1  0
 14 13  2  0
 13 24  1  0
 14 15  1  0
 14 21  1  0
 15 30  1  0
 16 17  1  0
 16 18  1  0
 18 19  2  0
 20 34  1  6
 21 22  2  0
 21 25  1  0
 22 26  1  0
 28 29  1  0
 29 30  2  0
M  END
$$$$
