
     RDKit          3D

 35 38  0  0  0  0  0  0  0  0999 V2000
  -20.7354    8.3261   -1.0365 C   0  0  1  0  0  0  0  0  0  0  0  0
  -24.1305    8.3536   -0.4239 C   0  0  0  0  0  0  0  0  0  0  0  0
  -23.4874    9.3823   -1.0718 C   0  0  0  0  0  0  0  0  0  0  0  0
  -20.5539    5.1944    0.7016 C   0  0  0  0  0  0  0  0  0  0  0  0
  -18.2991    7.7288   -0.9937 C   0  0  1  0  0  0  0  0  0  0  0  0
  -18.6880    6.7438    0.0843 C   0  0  2  0  0  0  0  0  0  0  0  0
  -25.4588    8.0684   -0.6827 C   0  0  0  0  0  0  0  0  0  0  0  0
  -20.1226    6.3426   -0.1820 C   0  0  2  0  0  0  0  0  0  0  0  0
  -15.7959    8.0031   -0.9290 C   0  0  0  0  0  0  0  0  0  0  0  0
   -8.4773    9.5496   -1.6086 C   0  0  0  0  0  0  0  0  0  0  0  0
  -10.6875    9.1092   -0.4610 C   0  0  0  0  0  0  0  0  0  0  0  0
  -11.4078    9.4120   -1.5967 C   0  0  0  0  0  0  0  0  0  0  0  0
  -12.8073    9.3620   -1.5878 C   0  0  0  0  0  0  0  0  0  0  0  0
  -13.4986    9.0115   -0.4527 C   0  0  0  0  0  0  0  0  0  0  0  0
  -14.9527    8.9530   -0.4380 C   0  0  0  0  0  0  0  0  0  0  0  0
  -26.1484    8.8324   -1.6089 C   0  0  0  0  0  0  0  0  0  0  0  0
  -27.5664    8.5655   -1.9180 C   0  0  0  0  0  0  0  0  0  0  0  0
  -25.5215    9.8642   -2.2656 C   0  0  0  0  0  0  0  0  0  0  0  0
  -24.1925   10.1301   -1.9898 C   0  0  0  0  0  0  0  0  0  0  0  0
  -19.3287    8.7936   -1.2352 C   0  0  1  0  0  0  0  0  0  0  0  0
  -12.7796    8.7093    0.6811 C   0  0  0  0  0  0  0  0  0  0  0  0
  -11.3852    8.7590    0.6727 C   0  0  0  0  0  0  0  0  0  0  0  0
  -10.7691    9.7652   -2.7484 F   0  0  0  0  0  0  0  0  0  0  0  0
  -13.5167    9.6600   -2.7060 F   0  0  0  0  0  0  0  0  0  0  0  0
  -13.4610    8.3640    1.7999 F   0  0  0  0  0  0  0  0  0  0  0  0
  -10.6679    8.4640    1.7805 F   0  0  0  0  0  0  0  0  0  0  0  0
   -9.2573    9.1618   -0.4761 N   0  0  0  0  0  0  0  0  0  0  0  0
  -17.0389    8.3863   -0.6774 N   0  0  0  0  0  0  0  0  0  0  0  0
  -16.9693    9.5434   -0.0471 N   0  0  0  0  0  0  0  0  0  0  0  0
  -15.7289    9.9042    0.1083 N   0  0  0  0  0  0  0  0  0  0  0  0
  -18.6597    7.4033    1.3345 O   0  0  0  0  0  0  0  0  0  0  0  0
  -19.9094    4.0365    0.3477 O   0  0  0  0  0  0  0  0  0  0  0  0
  -20.9039    7.4764    0.0262 O   0  0  0  0  0  0  0  0  0  0  0  0
  -19.2072    9.2092   -2.5670 O   0  0  0  0  0  0  0  0  0  0  0  0
  -21.7848    9.7811   -0.7697 S   0  0  0  0  0  0  0  0  0  0  0  0
 20  1  1  0
  1 33  1  0
  1 35  1  1
  3  2  2  0
  2  7  1  0
  3 19  1  0
 35  3  1  0
  8  4  1  0
  4 32  1  6
  5  6  1  0
  5 20  1  0
  5 28  1  1
  6  8  1  0
  6 31  1  1
  7 16  2  0
  8 33  1  1
 15  9  2  0
  9 28  1  0
 10 27  1  6
 12 11  2  0
 11 22  1  0
 11 27  1  0
 13 12  1  0
 12 23  1  0
 14 13  2  0
 13 24  1  0
 14 15  1  0
 14 21  1  0
 15 30  1  0
 17 16  1  6
 16 18  1  0
 18 19  2  0
 20 34  1  6
 21 22  2  0
 21 25  1  0
 22 26  1  0
 28 29  1  0
 29 30  2  0
M  END
$$$$
