
     RDKit          3D

 35 38  0  0  0  0  0  0  0  0999 V2000
  -20.9682    8.7147   -0.5677 C   0  0  1  0  0  0  0  0  0  0  0  0
  -23.4543   11.3616    0.3042 C   0  0  0  0  0  0  0  0  0  0  0  0
  -23.3844   10.0053    0.5215 C   0  0  0  0  0  0  0  0  0  0  0  0
  -21.0862    5.7319   -2.5552 C   0  0  0  0  0  0  0  0  0  0  0  0
  -18.6027    8.3069   -1.2973 C   0  0  1  0  0  0  0  0  0  0  0  0
  -19.0802    6.9144   -1.6382 C   0  0  2  0  0  0  0  0  0  0  0  0
  -24.6536   11.9709   -0.0169 C   0  0  0  0  0  0  0  0  0  0  0  0
  -20.5491    7.0246   -1.9847 C   0  0  2  0  0  0  0  0  0  0  0  0
  -16.1876    8.9563   -0.9952 C   0  0  0  0  0  0  0  0  0  0  0  0
   -8.8351   10.2192   -0.8892 C   0  0  0  0  0  0  0  0  0  0  0  0
  -11.1427    9.8889    0.0915 C   0  0  0  0  0  0  0  0  0  0  0  0
  -11.9675    9.9648    1.1934 C   0  0  0  0  0  0  0  0  0  0  0  0
  -13.2983    9.5349    1.1187 C   0  0  0  0  0  0  0  0  0  0  0  0
  -13.8168    9.0281   -0.0489 C   0  0  0  0  0  0  0  0  0  0  0  0
  -15.2002    8.5840   -0.1346 C   0  0  0  0  0  0  0  0  0  0  0  0
  -25.7993   11.2004   -0.1204 C   0  0  0  0  0  0  0  0  0  0  0  0
  -27.1013   11.8060   -0.4605 C   0  0  0  0  0  0  0  0  0  0  0  0
  -25.7479    9.8438    0.0934 C   0  0  0  0  0  0  0  0  0  0  0  0
  -24.5368    9.2573    0.4133 C   0  0  0  0  0  0  0  0  0  0  0  0
  -19.5234    9.0491   -0.3733 C   0  0  1  0  0  0  0  0  0  0  0  0
  -12.9934    8.9522   -1.1489 C   0  0  0  0  0  0  0  0  0  0  0  0
  -11.6675    9.3803   -1.0750 C   0  0  0  0  0  0  0  0  0  0  0  0
  -11.5012   10.4600    2.3750 F   0  0  0  0  0  0  0  0  0  0  0  0
  -14.1107    9.6095    2.2036 F   0  0  0  0  0  0  0  0  0  0  0  0
  -13.5046    8.4526   -2.2997 F   0  0  0  0  0  0  0  0  0  0  0  0
  -10.8489    9.3110   -2.1492 F   0  0  0  0  0  0  0  0  0  0  0  0
   -9.7836   10.3298    0.1736 N   0  0  0  0  0  0  0  0  0  0  0  0
  -17.2816    8.2764   -0.6855 N   0  0  0  0  0  0  0  0  0  0  0  0
  -16.9814    7.5026    0.3403 N   0  0  0  0  0  0  0  0  0  0  0  0
  -15.7390    7.6690    0.6889 N   0  0  0  0  0  0  0  0  0  0  0  0
  -18.9789    6.1038   -0.4844 O   0  0  0  0  0  0  0  0  0  0  0  0
  -22.4469    5.6567   -2.3988 O   0  0  0  0  0  0  0  0  0  0  0  0
  -21.2131    7.3889   -0.8161 O   0  0  0  0  0  0  0  0  0  0  0  0
  -19.3699   10.4176   -0.6279 O   0  0  0  0  0  0  0  0  0  0  0  0
  -21.8668    9.1844    0.9361 S   0  0  0  0  0  0  0  0  0  0  0  0
 20  1  1  0
  1 33  1  0
  1 35  1  1
  3  2  2  0
  2  7  1  0
  3 19  1  0
 35  3  1  0
  8  4  1  0
  4 32  1  6
  5  6  1  0
  5 20  1  0
  5 28  1  1
  6  8  1  0
  6 31  1  1
  7 16  2  0
  8 33  1  1
 15  9  2  0
  9 28  1  0
 10 27  1  6
 12 11  2  0
 11 22  1  0
 11 27  1  0
 13 12  1  0
 12 23  1  0
 14 13  2  0
 13 24  1  0
 14 15  1  0
 14 21  1  0
 15 30  1  0
 17 16  1  6
 16 18  1  0
 18 19  2  0
 20 34  1  6
 21 22  2  0
 21 25  1  0
 22 26  1  0
 28 29  1  0
 29 30  2  0
M  END
$$$$
