
     RDKit          3D

 35 38  0  0  0  0  0  0  0  0999 V2000
  -21.2516    8.3618   -0.3837 C   0  0  1  0  0  0  0  0  0  0  0  0
  -24.4869    8.2468   -1.2973 C   0  0  0  0  0  0  0  0  0  0  0  0
  -24.0888    9.2952   -0.4954 C   0  0  0  0  0  0  0  0  0  0  0  0
  -19.0075    5.7224    0.5447 C   0  0  0  0  0  0  0  0  0  0  0  0
  -19.1181    8.3615   -1.6562 C   0  0  1  0  0  0  0  0  0  0  0  0
  -19.5385    6.9265   -1.5880 C   0  0  2  0  0  0  0  0  0  0  0  0
  -25.7150    8.2753   -1.9670 C   0  0  0  0  0  0  0  0  0  0  0  0
  -20.0439    6.4779   -0.2583 C   0  0  2  0  0  0  0  0  0  0  0  0
  -16.7024    8.8885   -1.8231 C   0  0  0  0  0  0  0  0  0  0  0  0
   -9.3605    9.3388   -2.8710 C   0  0  0  0  0  0  0  0  0  0  0  0
  -11.5945   10.0124   -1.9642 C   0  0  0  0  0  0  0  0  0  0  0  0
  -12.1198    8.7488   -2.1314 C   0  0  0  0  0  0  0  0  0  0  0  0
  -13.4305    8.4596   -1.8038 C   0  0  0  0  0  0  0  0  0  0  0  0
  -14.2768    9.4218   -1.2934 C   0  0  0  0  0  0  0  0  0  0  0  0
  -15.6699    9.1160   -0.9476 C   0  0  0  0  0  0  0  0  0  0  0  0
  -26.5649    9.3498   -1.8474 C   0  0  0  0  0  0  0  0  0  0  0  0
  -27.8720    9.3608   -2.5708 C   0  0  0  0  0  0  0  0  0  0  0  0
  -26.1695   10.3986   -1.0469 C   0  0  0  0  0  0  0  0  0  0  0  0
  -24.9481   10.3683   -0.3818 C   0  0  0  0  0  0  0  0  0  0  0  0
  -20.1725    9.2088   -1.0000 C   0  0  1  0  0  0  0  0  0  0  0  0
  -13.7563   10.6928   -1.1227 C   0  0  0  0  0  0  0  0  0  0  0  0
  -12.4495   10.9813   -1.4494 C   0  0  0  0  0  0  0  0  0  0  0  0
  -11.3299    7.7580   -2.6304 F   0  0  0  0  0  0  0  0  0  0  0  0
  -13.9257    7.2132   -1.9759 F   0  0  0  0  0  0  0  0  0  0  0  0
  -14.5917   11.6586   -0.6151 F   0  0  0  0  0  0  0  0  0  0  0  0
  -11.9527   12.2299   -1.2777 F   0  0  0  0  0  0  0  0  0  0  0  0
  -10.2422   10.3326   -2.2991 N   0  0  0  0  0  0  0  0  0  0  0  0
  -17.8226    8.6443   -1.1368 N   0  0  0  0  0  0  0  0  0  0  0  0
  -17.5303    8.7105    0.1657 N   0  0  0  0  0  0  0  0  0  0  0  0
  -16.2343    8.9944    0.2830 N   0  0  0  0  0  0  0  0  0  0  0  0
  -18.5341    6.0555   -2.0482 O   0  0  0  0  0  0  0  0  0  0  0  0
  -19.5788    4.5890    1.1207 O   0  0  0  0  0  0  0  0  0  0  0  0
  -20.6202    7.4918    0.5031 O   0  0  0  0  0  0  0  0  0  0  0  0
  -20.7830   10.1057   -1.8751 O   0  0  0  0  0  0  0  0  0  0  0  0
  -22.5557    9.3174    0.3750 S   0  0  0  0  0  0  0  0  0  0  0  0
 20  1  1  0
  1 33  1  0
  1 35  1  1
  3  2  2  0
  2  7  1  0
  3 19  1  0
 35  3  1  0
  8  4  1  1
  4 32  1  0
  5  6  1  0
  5 20  1  0
  5 28  1  1
  6  8  1  0
  6 31  1  1
  7 16  2  0
  8 33  1  0
 15  9  2  0
  9 28  1  0
 27 10  1  0
 12 11  2  0
 11 22  1  0
 11 27  1  0
 13 12  1  0
 12 23  1  0
 14 13  2  0
 13 24  1  0
 14 15  1  0
 14 21  1  0
 15 30  1  0
 16 17  1  0
 16 18  1  0
 18 19  2  0
 20 34  1  6
 21 22  2  0
 21 25  1  0
 22 26  1  0
 28 29  1  0
 29 30  2  0
M  END
$$$$
