
     RDKit          3D

 35 38  0  0  0  0  0  0  0  0999 V2000
  -20.6980    8.0351   -1.2008 C   0  0  1  0  0  0  0  0  0  0  0  0
  -24.3388    9.9170   -1.9793 C   0  0  0  0  0  0  0  0  0  0  0  0
  -23.4792    8.9773   -1.4598 C   0  0  0  0  0  0  0  0  0  0  0  0
  -20.2794    4.8512    0.3956 C   0  0  0  0  0  0  0  0  0  0  0  0
  -18.2231    7.6247   -1.1728 C   0  0  1  0  0  0  0  0  0  0  0  0
  -18.5369    6.5651   -0.1421 C   0  0  2  0  0  0  0  0  0  0  0  0
  -25.5979    9.5608   -2.4269 C   0  0  0  0  0  0  0  0  0  0  0  0
  -19.9362    6.0677   -0.4333 C   0  0  2  0  0  0  0  0  0  0  0  0
  -15.7570    7.9561   -0.7807 C   0  0  0  0  0  0  0  0  0  0  0  0
   -8.7220    9.4289    1.6918 C   0  0  0  0  0  0  0  0  0  0  0  0
  -10.7678    9.2391    0.2172 C   0  0  0  0  0  0  0  0  0  0  0  0
  -11.3015    9.3499   -1.0489 C   0  0  0  0  0  0  0  0  0  0  0  0
  -12.6858    9.2760   -1.2480 C   0  0  0  0  0  0  0  0  0  0  0  0
  -13.5466    9.0918   -0.1925 C   0  0  0  0  0  0  0  0  0  0  0  0
  -14.9858    9.0094   -0.3930 C   0  0  0  0  0  0  0  0  0  0  0  0
  -25.9957    8.2369   -2.3492 C   0  0  0  0  0  0  0  0  0  0  0  0
  -27.3294    7.8095   -2.8142 C   0  0  0  0  0  0  0  0  0  0  0  0
  -25.1498    7.2846   -1.8331 C   0  0  0  0  0  0  0  0  0  0  0  0
  -23.8954    7.6653   -1.3918 C   0  0  0  0  0  0  0  0  0  0  0  0
  -19.3310    8.6175   -1.3713 C   0  0  1  0  0  0  0  0  0  0  0  0
  -13.0138    8.9812    1.0715 C   0  0  0  0  0  0  0  0  0  0  0  0
  -11.6347    9.0548    1.2703 C   0  0  0  0  0  0  0  0  0  0  0  0
  -10.4901    9.5334   -2.1292 F   0  0  0  0  0  0  0  0  0  0  0  0
  -13.2116    9.3852   -2.4946 F   0  0  0  0  0  0  0  0  0  0  0  0
  -13.8624    8.7996    2.1118 F   0  0  0  0  0  0  0  0  0  0  0  0
  -11.0994    8.9471    2.5076 F   0  0  0  0  0  0  0  0  0  0  0  0
   -9.3522    9.3151    0.4146 N   0  0  0  0  0  0  0  0  0  0  0  0
  -17.0175    8.3618   -0.8211 N   0  0  0  0  0  0  0  0  0  0  0  0
  -17.0286    9.6331   -0.4679 N   0  0  0  0  0  0  0  0  0  0  0  0
  -15.8223   10.0443   -0.2063 N   0  0  0  0  0  0  0  0  0  0  0  0
  -18.5612    7.1676    1.1366 O   0  0  0  0  0  0  0  0  0  0  0  0
  -21.6203    4.5718    0.3216 O   0  0  0  0  0  0  0  0  0  0  0  0
  -20.8024    7.1278   -0.1783 O   0  0  0  0  0  0  0  0  0  0  0  0
  -19.2397    9.1009   -2.6825 O   0  0  0  0  0  0  0  0  0  0  0  0
  -21.8563    9.3920   -0.8741 S   0  0  0  0  0  0  0  0  0  0  0  0
 20  1  1  0
  1 33  1  0
  1 35  1  1
  3  2  2  0
  2  7  1  0
  3 19  1  0
 35  3  1  0
  8  4  1  0
  4 32  1  6
  5  6  1  0
  5 20  1  0
  5 28  1  1
  6  8  1  0
  6 31  1  1
  7 16  2  0
  8 33  1  1
 15  9  2  0
  9 28  1  0
 10 27  1  6
 12 11  2  0
 11 22  1  0
 11 27  1  0
 13 12  1  0
 12 23  1  0
 14 13  2  0
 13 24  1  0
 14 15  1  0
 14 21  1  0
 15 30  1  0
 17 16  1  6
 16 18  1  0
 18 19  2  0
 20 34  1  6
 21 22  2  0
 21 25  1  0
 22 26  1  0
 28 29  1  0
 29 30  2  0
M  END
$$$$
