
     RDKit          3D

 35 38  0  0  0  0  0  0  0  0999 V2000
  -20.7032    7.8975   -1.9845 C   0  0  1  0  0  0  0  0  0  0  0  0
  -23.4212    6.5538   -3.3531 C   0  0  0  0  0  0  0  0  0  0  0  0
  -23.3704    7.9314   -3.3330 C   0  0  0  0  0  0  0  0  0  0  0  0
  -19.6465    7.4770    1.4171 C   0  0  0  0  0  0  0  0  0  0  0  0
  -18.3187    7.2433   -1.7457 C   0  0  1  0  0  0  0  0  0  0  0  0
  -19.0629    6.3918   -0.7650 C   0  0  2  0  0  0  0  0  0  0  0  0
  -24.5918    5.8792   -3.7165 C   0  0  0  0  0  0  0  0  0  0  0  0
  -20.1084    7.1037    0.0254 C   0  0  2  0  0  0  0  0  0  0  0  0
  -15.9762    7.7334   -1.1026 C   0  0  0  0  0  0  0  0  0  0  0  0
   -8.7183    9.2120   -0.4244 C   0  0  0  0  0  0  0  0  0  0  0  0
  -11.0943    8.9676    0.3251 C   0  0  0  0  0  0  0  0  0  0  0  0
  -11.5755    8.9672   -0.9668 C   0  0  0  0  0  0  0  0  0  0  0  0
  -12.9292    8.9035   -1.2359 C   0  0  0  0  0  0  0  0  0  0  0  0
  -13.8646    8.8372   -0.2244 C   0  0  0  0  0  0  0  0  0  0  0  0
  -15.3028    8.7721   -0.5094 C   0  0  0  0  0  0  0  0  0  0  0  0
  -25.7298    6.5679   -4.0656 C   0  0  0  0  0  0  0  0  0  0  0  0
  -26.9697    5.8287   -4.4504 C   0  0  0  0  0  0  0  0  0  0  0  0
  -25.6816    7.9443   -4.0463 C   0  0  0  0  0  0  0  0  0  0  0  0
  -24.5168    8.6132   -3.6846 C   0  0  0  0  0  0  0  0  0  0  0  0
  -19.3060    8.0815   -2.5093 C   0  0  1  0  0  0  0  0  0  0  0  0
  -13.3888    8.8372    1.0752 C   0  0  0  0  0  0  0  0  0  0  0  0
  -12.0392    8.9007    1.3438 C   0  0  0  0  0  0  0  0  0  0  0  0
  -10.6979    9.0296   -2.0062 F   0  0  0  0  0  0  0  0  0  0  0  0
  -13.3799    8.9044   -2.5108 F   0  0  0  0  0  0  0  0  0  0  0  0
  -14.3129    8.7717    2.0902 F   0  0  0  0  0  0  0  0  0  0  0  0
  -11.5868    8.9004    2.6207 F   0  0  0  0  0  0  0  0  0  0  0  0
   -9.6982    9.0353    0.6248 N   0  0  0  0  0  0  0  0  0  0  0  0
  -17.2737    8.0389   -1.1950 N   0  0  0  0  0  0  0  0  0  0  0  0
  -17.4485    9.2563   -0.6718 N   0  0  0  0  0  0  0  0  0  0  0  0
  -16.2631    9.7006   -0.2579 N   0  0  0  0  0  0  0  0  0  0  0  0
  -18.1976    5.6874    0.0920 O   0  0  0  0  0  0  0  0  0  0  0  0
  -20.6739    7.2699    2.3359 O   0  0  0  0  0  0  0  0  0  0  0  0
  -20.6638    8.2028   -0.6253 O   0  0  0  0  0  0  0  0  0  0  0  0
  -19.3246    7.8046   -3.8754 O   0  0  0  0  0  0  0  0  0  0  0  0
  -21.9270    8.8382   -2.8827 S   0  0  0  0  0  0  0  0  0  0  0  0
 20  1  1  0
  1 33  1  0
  1 35  1  6
  3  2  2  0
  2  7  1  0
  3 19  1  0
 35  3  1  0
  8  4  1  1
  4 32  1  0
  5  6  1  0
  5 20  1  0
  5 28  1  1
  6  8  1  0
  6 31  1  1
  7 16  2  0
  8 33  1  0
 15  9  2  0
  9 28  1  0
 27 10  1  0
 12 11  2  0
 11 22  1  0
 11 27  1  0
 13 12  1  0
 12 23  1  0
 14 13  2  0
 13 24  1  0
 14 15  1  0
 14 21  1  0
 15 30  1  0
 16 17  1  0
 16 18  1  0
 18 19  2  0
 20 34  1  6
 21 22  2  0
 21 25  1  0
 22 26  1  0
 28 29  1  0
 29 30  2  0
M  END
$$$$
