
     RDKit          3D

 35 38  0  0  0  0  0  0  0  0999 V2000
  -20.6581    8.2728   -1.0781 C   0  0  1  0  0  0  0  0  0  0  0  0
  -24.5308    9.9625   -0.7173 C   0  0  0  0  0  0  0  0  0  0  0  0
  -23.4478    9.2239   -1.1334 C   0  0  0  0  0  0  0  0  0  0  0  0
  -20.2712    5.0332    0.4107 C   0  0  0  0  0  0  0  0  0  0  0  0
  -18.1919    7.8138   -1.1143 C   0  0  1  0  0  0  0  0  0  0  0  0
  -18.5059    6.7289   -0.1104 C   0  0  2  0  0  0  0  0  0  0  0  0
  -25.8169    9.6099   -1.0836 C   0  0  0  0  0  0  0  0  0  0  0  0
  -19.9205    6.2681   -0.3875 C   0  0  2  0  0  0  0  0  0  0  0  0
  -15.7205    8.0665   -0.6974 C   0  0  0  0  0  0  0  0  0  0  0  0
   -8.6566    9.7830    1.6744 C   0  0  0  0  0  0  0  0  0  0  0  0
  -10.6946    9.2153    0.2887 C   0  0  0  0  0  0  0  0  0  0  0  0
  -11.5608    9.2064    1.3610 C   0  0  0  0  0  0  0  0  0  0  0  0
  -12.9459    9.1674    1.1582 C   0  0  0  0  0  0  0  0  0  0  0  0
  -13.4780    9.1370   -0.1087 C   0  0  0  0  0  0  0  0  0  0  0  0
  -14.9166    9.1012   -0.3265 C   0  0  0  0  0  0  0  0  0  0  0  0
  -26.0133    8.4956   -1.8816 C   0  0  0  0  0  0  0  0  0  0  0  0
  -27.3669    8.0806   -2.2977 C   0  0  0  0  0  0  0  0  0  0  0  0
  -24.9427    7.7459   -2.3066 C   0  0  0  0  0  0  0  0  0  0  0  0
  -23.6658    8.1186   -1.9271 C   0  0  0  0  0  0  0  0  0  0  0  0
  -19.2834    8.8335   -1.2591 C   0  0  1  0  0  0  0  0  0  0  0  0
  -12.6132    9.1458   -1.1792 C   0  0  0  0  0  0  0  0  0  0  0  0
  -11.2332    9.1847   -0.9777 C   0  0  0  0  0  0  0  0  0  0  0  0
  -11.0830    9.2357    2.6377 F   0  0  0  0  0  0  0  0  0  0  0  0
  -13.7991    9.1586    2.2139 F   0  0  0  0  0  0  0  0  0  0  0  0
  -13.1378    9.1159   -2.4280 F   0  0  0  0  0  0  0  0  0  0  0  0
  -10.3736    9.1941   -2.0217 F   0  0  0  0  0  0  0  0  0  0  0  0
   -9.2799    9.2555    0.5020 N   0  0  0  0  0  0  0  0  0  0  0  0
  -16.9649    8.5160   -0.7653 N   0  0  0  0  0  0  0  0  0  0  0  0
  -16.9343    9.7957   -0.4450 N   0  0  0  0  0  0  0  0  0  0  0  0
  -15.7173   10.1700   -0.1777 N   0  0  0  0  0  0  0  0  0  0  0  0
  -18.4923    7.2917    1.1865 O   0  0  0  0  0  0  0  0  0  0  0  0
  -21.5990    4.7198    0.2680 O   0  0  0  0  0  0  0  0  0  0  0  0
  -20.7600    7.3363   -0.0820 O   0  0  0  0  0  0  0  0  0  0  0  0
  -19.2090    9.3557   -2.5564 O   0  0  0  0  0  0  0  0  0  0  0  0
  -21.7821    9.6411   -0.6858 S   0  0  0  0  0  0  0  0  0  0  0  0
 20  1  1  0
  1 33  1  0
  1 35  1  1
  3  2  2  0
  2  7  1  0
  3 19  1  0
 35  3  1  0
  8  4  1  0
  4 32  1  6
  5  6  1  0
  5 20  1  0
  5 28  1  1
  6  8  1  0
  6 31  1  1
  7 16  2  0
  8 33  1  1
 15  9  2  0
  9 28  1  0
 10 27  1  6
 12 11  2  0
 11 22  1  0
 11 27  1  0
 13 12  1  0
 12 23  1  0
 14 13  2  0
 13 24  1  0
 14 15  1  0
 14 21  1  0
 15 30  1  0
 17 16  1  6
 16 18  1  0
 18 19  2  0
 20 34  1  6
 21 22  2  0
 21 25  1  0
 22 26  1  0
 28 29  1  0
 29 30  2  0
M  END
$$$$
