
     RDKit          3D

 35 38  0  0  0  0  0  0  0  0999 V2000
  -20.8040    8.1955   -0.9761 C   0  0  1  0  0  0  0  0  0  0  0  0
  -23.8288    8.8805   -2.4066 C   0  0  0  0  0  0  0  0  0  0  0  0
  -23.5852    9.1668   -1.0836 C   0  0  0  0  0  0  0  0  0  0  0  0
  -20.3136    4.8641    0.2577 C   0  0  0  0  0  0  0  0  0  0  0  0
  -18.3280    7.8048   -1.0806 C   0  0  1  0  0  0  0  0  0  0  0  0
  -18.5993    6.6395   -0.1575 C   0  0  2  0  0  0  0  0  0  0  0  0
  -25.1116    8.6253   -2.8559 C   0  0  0  0  0  0  0  0  0  0  0  0
  -20.0061    6.1643   -0.4494 C   0  0  2  0  0  0  0  0  0  0  0  0
  -15.8447    8.1706   -0.8688 C   0  0  0  0  0  0  0  0  0  0  0  0
   -8.6451    9.5898    1.1857 C   0  0  0  0  0  0  0  0  0  0  0  0
  -10.8174    9.4715   -0.1039 C   0  0  0  0  0  0  0  0  0  0  0  0
  -11.4533    9.4407   -1.3265 C   0  0  0  0  0  0  0  0  0  0  0  0
  -12.8479    9.3382   -1.4024 C   0  0  0  0  0  0  0  0  0  0  0  0
  -13.6179    9.2659   -0.2662 C   0  0  0  0  0  0  0  0  0  0  0  0
  -15.0673    9.1546   -0.3381 C   0  0  0  0  0  0  0  0  0  0  0  0
  -26.1643    8.6595   -1.9571 C   0  0  0  0  0  0  0  0  0  0  0  0
  -27.5498    8.3941   -2.3900 C   0  0  0  0  0  0  0  0  0  0  0  0
  -25.9392    8.9440   -0.6315 C   0  0  0  0  0  0  0  0  0  0  0  0
  -24.6474    9.1958   -0.2060 C   0  0  0  0  0  0  0  0  0  0  0  0
  -19.4466    8.8038   -1.1329 C   0  0  1  0  0  0  0  0  0  0  0  0
  -12.9832    9.2968    0.9545 C   0  0  0  0  0  0  0  0  0  0  0  0
  -11.5937    9.3989    1.0305 C   0  0  0  0  0  0  0  0  0  0  0  0
  -10.7345    9.5092   -2.4831 F   0  0  0  0  0  0  0  0  0  0  0  0
  -13.4743    9.3078   -2.6062 F   0  0  0  0  0  0  0  0  0  0  0  0
  -13.7422    9.2256    2.0743 F   0  0  0  0  0  0  0  0  0  0  0  0
  -10.9587    9.4298    2.2241 F   0  0  0  0  0  0  0  0  0  0  0  0
   -9.3918    9.5761   -0.0324 N   0  0  0  0  0  0  0  0  0  0  0  0
  -17.1135    8.5103   -0.6962 N   0  0  0  0  0  0  0  0  0  0  0  0
  -17.1236    9.6743   -0.0749 N   0  0  0  0  0  0  0  0  0  0  0  0
  -15.9087   10.0813    0.1509 N   0  0  0  0  0  0  0  0  0  0  0  0
  -18.5795    7.1032    1.1779 O   0  0  0  0  0  0  0  0  0  0  0  0
  -21.5280    4.3663   -0.1408 O   0  0  0  0  0  0  0  0  0  0  0  0
  -20.8670    7.1844   -0.0525 O   0  0  0  0  0  0  0  0  0  0  0  0
  -19.4055    9.4240   -2.3878 O   0  0  0  0  0  0  0  0  0  0  0  0
  -21.9554    9.5007   -0.4661 S   0  0  0  0  0  0  0  0  0  0  0  0
 20  1  1  0
  1 33  1  0
  1 35  1  1
  3  2  2  0
  2  7  1  0
  3 19  1  0
 35  3  1  0
  8  4  1  0
  4 32  1  6
  5  6  1  0
  5 20  1  0
  5 28  1  1
  6  8  1  0
  6 31  1  1
  7 16  2  0
  8 33  1  1
 15  9  2  0
  9 28  1  0
 10 27  1  6
 12 11  2  0
 11 22  1  0
 11 27  1  0
 13 12  1  0
 12 23  1  0
 14 13  2  0
 13 24  1  0
 14 15  1  0
 14 21  1  0
 15 30  1  0
 17 16  1  6
 16 18  1  0
 18 19  2  0
 20 34  1  6
 21 22  2  0
 21 25  1  0
 22 26  1  0
 28 29  1  0
 29 30  2  0
M  END
$$$$
