
     RDKit          3D

 35 38  0  0  0  0  0  0  0  0999 V2000
  -21.5839    8.3412   -0.6418 C   0  0  1  0  0  0  0  0  0  0  0  0
  -24.6563    9.2909    0.0976 C   0  0  0  0  0  0  0  0  0  0  0  0
  -24.3847    7.9593    0.3294 C   0  0  0  0  0  0  0  0  0  0  0  0
  -19.5240    8.5436   -3.5709 C   0  0  0  0  0  0  0  0  0  0  0  0
  -19.4743    9.6082   -0.3021 C   0  0  1  0  0  0  0  0  0  0  0  0
  -19.9965   10.0578   -1.6309 C   0  0  2  0  0  0  0  0  0  0  0  0
  -25.9281    9.8216    0.3394 C   0  0  0  0  0  0  0  0  0  0  0  0
  -20.5142    8.9687   -2.5087 C   0  0  2  0  0  0  0  0  0  0  0  0
  -17.0375    9.6443    0.1468 C   0  0  0  0  0  0  0  0  0  0  0  0
  -10.1027    9.6676    2.7730 C   0  0  0  0  0  0  0  0  0  0  0  0
  -11.8795    9.5253    1.0152 C   0  0  0  0  0  0  0  0  0  0  0  0
  -12.3367    9.7187   -0.2709 C   0  0  0  0  0  0  0  0  0  0  0  0
  -13.6541    9.4839   -0.6147 C   0  0  0  0  0  0  0  0  0  0  0  0
  -14.5755    9.0444    0.3128 C   0  0  0  0  0  0  0  0  0  0  0  0
  -15.9756    8.7971   -0.0510 C   0  0  0  0  0  0  0  0  0  0  0  0
  -26.9485    9.0325    0.8162 C   0  0  0  0  0  0  0  0  0  0  0  0
  -28.2996    9.6185    1.0677 C   0  0  0  0  0  0  0  0  0  0  0  0
  -26.6797    7.7018    1.0485 C   0  0  0  0  0  0  0  0  0  0  0  0
  -25.4147    7.1760    0.8075 C   0  0  0  0  0  0  0  0  0  0  0  0
  -20.4551    8.6438    0.3048 C   0  0  1  0  0  0  0  0  0  0  0  0
  -14.1237    8.8478    1.6061 C   0  0  0  0  0  0  0  0  0  0  0  0
  -12.8102    9.0820    1.9491 C   0  0  0  0  0  0  0  0  0  0  0  0
  -11.4711   10.1507   -1.2293 F   0  0  0  0  0  0  0  0  0  0  0  0
  -14.0817    9.6803   -1.8823 F   0  0  0  0  0  0  0  0  0  0  0  0
  -15.0341    8.4102    2.5377 F   0  0  0  0  0  0  0  0  0  0  0  0
  -12.3810    8.8861    3.2191 F   0  0  0  0  0  0  0  0  0  0  0  0
  -10.5214    9.7648    1.3919 N   0  0  0  0  0  0  0  0  0  0  0  0
  -18.1545    9.0733   -0.3132 N   0  0  0  0  0  0  0  0  0  0  0  0
  -17.8313    7.8729   -0.8041 N   0  0  0  0  0  0  0  0  0  0  0  0
  -16.5195    7.7036   -0.6477 N   0  0  0  0  0  0  0  0  0  0  0  0
  -19.0645   10.8470   -2.3293 O   0  0  0  0  0  0  0  0  0  0  0  0
  -20.0858    8.6911   -4.8379 O   0  0  0  0  0  0  0  0  0  0  0  0
  -21.0046    7.8643   -1.8161 O   0  0  0  0  0  0  0  0  0  0  0  0
  -21.0115    9.1007    1.4984 O   0  0  0  0  0  0  0  0  0  0  0  0
  -22.8045    7.2318    0.0429 S   0  0  0  0  0  0  0  0  0  0  0  0
 20  1  1  0
  1 33  1  0
  1 35  1  1
  3  2  2  0
  2  7  1  0
  3 19  1  0
 35  3  1  0
  8  4  1  6
  4 32  1  0
  5  6  1  0
  5 20  1  0
  5 28  1  6
  6  8  1  0
  6 31  1  6
  7 16  2  0
  8 33  1  0
 15  9  2  0
  9 28  1  0
 27 10  1  0
 12 11  2  0
 11 22  1  0
 11 27  1  0
 13 12  1  0
 12 23  1  0
 14 13  2  0
 13 24  1  0
 14 15  1  0
 14 21  1  0
 15 30  1  0
 16 17  1  0
 16 18  1  0
 18 19  2  0
 20 34  1  1
 21 22  2  0
 21 25  1  0
 22 26  1  0
 28 29  1  0
 29 30  2  0
M  END
$$$$
