
     RDKit          3D

 35 38  0  0  0  0  0  0  0  0999 V2000
  -20.3964    7.8613   -1.7308 C   0  0  1  0  0  0  0  0  0  0  0  0
  -23.8056    7.9256   -0.8369 C   0  0  0  0  0  0  0  0  0  0  0  0
  -22.9485    6.8962   -0.5107 C   0  0  0  0  0  0  0  0  0  0  0  0
  -18.1219    8.9610   -4.2768 C   0  0  0  0  0  0  0  0  0  0  0  0
  -18.5157    9.2387   -0.8725 C   0  0  1  0  0  0  0  0  0  0  0  0
  -18.9691    9.9237   -2.1238 C   0  0  2  0  0  0  0  0  0  0  0  0
  -24.9322    8.2030   -0.0550 C   0  0  0  0  0  0  0  0  0  0  0  0
  -19.2535    9.0174   -3.2738 C   0  0  2  0  0  0  0  0  0  0  0  0
  -16.1396    9.4959   -0.2173 C   0  0  0  0  0  0  0  0  0  0  0  0
   -8.7109   10.5847    0.6987 C   0  0  0  0  0  0  0  0  0  0  0  0
  -11.0795    9.8603    1.0616 C   0  0  0  0  0  0  0  0  0  0  0  0
  -11.3595    9.8650   -0.2882 C   0  0  0  0  0  0  0  0  0  0  0  0
  -12.6098    9.5282   -0.7702 C   0  0  0  0  0  0  0  0  0  0  0  0
  -13.6383    9.1709    0.0766 C   0  0  0  0  0  0  0  0  0  0  0  0
  -14.9674    8.8154   -0.4344 C   0  0  0  0  0  0  0  0  0  0  0  0
  -25.2214    7.4581    1.0642 C   0  0  0  0  0  0  0  0  0  0  0  0
  -26.4296    7.7704    1.8857 C   0  0  0  0  0  0  0  0  0  0  0  0
  -24.3667    6.4290    1.3923 C   0  0  0  0  0  0  0  0  0  0  0  0
  -23.2471    6.1548    0.6136 C   0  0  0  0  0  0  0  0  0  0  0  0
  -19.4101    8.0585   -0.6128 C   0  0  1  0  0  0  0  0  0  0  0  0
  -13.3645    9.1638    1.4332 C   0  0  0  0  0  0  0  0  0  0  0  0
  -12.1180    9.4997    1.9139 C   0  0  0  0  0  0  0  0  0  0  0  0
  -10.3818   10.2083   -1.1718 F   0  0  0  0  0  0  0  0  0  0  0  0
  -12.8632    9.5395   -2.0983 F   0  0  0  0  0  0  0  0  0  0  0  0
  -14.3828    8.8095    2.2852 F   0  0  0  0  0  0  0  0  0  0  0  0
  -11.8634    9.4892    3.2445 F   0  0  0  0  0  0  0  0  0  0  0  0
   -9.7936   10.2078    1.5806 N   0  0  0  0  0  0  0  0  0  0  0  0
  -17.1407    8.8690   -0.8419 N   0  0  0  0  0  0  0  0  0  0  0  0
  -16.6344    7.7963   -1.4578 N   0  0  0  0  0  0  0  0  0  0  0  0
  -15.3254    7.7613   -1.2143 N   0  0  0  0  0  0  0  0  0  0  0  0
  -18.0910   10.9504   -2.5163 O   0  0  0  0  0  0  0  0  0  0  0  0
  -18.4855    9.6217   -5.4488 O   0  0  0  0  0  0  0  0  0  0  0  0
  -19.6531    7.7357   -2.9029 O   0  0  0  0  0  0  0  0  0  0  0  0
  -20.1299    8.1629    0.5764 O   0  0  0  0  0  0  0  0  0  0  0  0
  -21.5151    6.4966   -1.4562 S   0  0  0  0  0  0  0  0  0  0  0  0
 20  1  1  0
  1 33  1  0
  1 35  1  1
  3  2  2  0
  2  7  1  0
  3 19  1  0
 35  3  1  0
  8  4  1  6
  4 32  1  0
  5  6  1  0
  5 20  1  0
  5 28  1  6
  6  8  1  0
  6 31  1  6
  7 16  2  0
  8 33  1  0
 15  9  2  0
  9 28  1  0
 27 10  1  0
 12 11  2  0
 11 22  1  0
 11 27  1  0
 13 12  1  0
 12 23  1  0
 14 13  2  0
 13 24  1  0
 14 15  1  0
 14 21  1  0
 15 30  1  0
 16 17  1  0
 16 18  1  0
 18 19  2  0
 20 34  1  1
 21 22  2  0
 21 25  1  0
 22 26  1  0
 28 29  1  0
 29 30  2  0
M  END
$$$$
