
     RDKit          3D

 35 38  0  0  0  0  0  0  0  0999 V2000
  -20.7485    8.1116   -0.9897 C   0  0  1  0  0  0  0  0  0  0  0  0
  -23.6155    8.1964   -2.6250 C   0  0  0  0  0  0  0  0  0  0  0  0
  -23.5283    9.0557   -1.5505 C   0  0  0  0  0  0  0  0  0  0  0  0
  -19.1003    5.2915    0.4919 C   0  0  0  0  0  0  0  0  0  0  0  0
  -18.3957    7.8182   -1.7309 C   0  0  1  0  0  0  0  0  0  0  0  0
  -18.9854    6.4424   -1.7313 C   0  0  2  0  0  0  0  0  0  0  0  0
  -24.7962    8.0854   -3.3675 C   0  0  0  0  0  0  0  0  0  0  0  0
  -19.8302    6.1157   -0.5462 C   0  0  2  0  0  0  0  0  0  0  0  0
  -16.0357    8.4472   -1.3118 C   0  0  0  0  0  0  0  0  0  0  0  0
   -8.9977   10.2678    1.0600 C   0  0  0  0  0  0  0  0  0  0  0  0
  -11.0813    9.7285   -0.2184 C   0  0  0  0  0  0  0  0  0  0  0  0
  -11.7849    9.5748   -1.3939 C   0  0  0  0  0  0  0  0  0  0  0  0
  -13.1036    9.1628   -1.4008 C   0  0  0  0  0  0  0  0  0  0  0  0
  -13.7799    8.8852   -0.2311 C   0  0  0  0  0  0  0  0  0  0  0  0
  -15.1814    8.4499   -0.2374 C   0  0  0  0  0  0  0  0  0  0  0  0
  -25.9081    8.8298   -3.0499 C   0  0  0  0  0  0  0  0  0  0  0  0
  -27.1593    8.6965   -3.8552 C   0  0  0  0  0  0  0  0  0  0  0  0
  -25.8235    9.6891   -1.9767 C   0  0  0  0  0  0  0  0  0  0  0  0
  -24.6488    9.7980   -1.2398 C   0  0  0  0  0  0  0  0  0  0  0  0
  -19.4657    8.8057   -1.3563 C   0  0  1  0  0  0  0  0  0  0  0  0
  -13.0799    9.0371    0.9531 C   0  0  0  0  0  0  0  0  0  0  0  0
  -11.7650    9.4480    0.9601 C   0  0  0  0  0  0  0  0  0  0  0  0
  -11.1678    9.8334   -2.5801 F   0  0  0  0  0  0  0  0  0  0  0  0
  -13.7753    9.0187   -2.5654 F   0  0  0  0  0  0  0  0  0  0  0  0
  -13.7449    8.7632    2.1240 F   0  0  0  0  0  0  0  0  0  0  0  0
  -11.0915    9.5932    2.1266 F   0  0  0  0  0  0  0  0  0  0  0  0
   -9.7176   10.1559   -0.1896 N   0  0  0  0  0  0  0  0  0  0  0  0
  -17.2293    7.9831   -0.9307 N   0  0  0  0  0  0  0  0  0  0  0  0
  -17.1594    7.6866    0.3707 N   0  0  0  0  0  0  0  0  0  0  0  0
  -15.9271    7.9666    0.7913 N   0  0  0  0  0  0  0  0  0  0  0  0
  -18.0113    5.4462   -1.9264 O   0  0  0  0  0  0  0  0  0  0  0  0
  -19.8817    4.2038    0.8777 O   0  0  0  0  0  0  0  0  0  0  0  0
  -20.4426    7.2217    0.0382 O   0  0  0  0  0  0  0  0  0  0  0  0
  -19.7510    9.7205   -2.3686 O   0  0  0  0  0  0  0  0  0  0  0  0
  -22.0706    9.2386   -0.5759 S   0  0  0  0  0  0  0  0  0  0  0  0
 20  1  1  0
  1 33  1  0
  1 35  1  1
  3  2  2  0
  2  7  1  0
  3 19  1  0
 35  3  1  0
  8  4  1  1
  4 32  1  0
  5  6  1  0
  5 20  1  0
  5 28  1  1
  6  8  1  0
  6 31  1  1
  7 16  2  0
  8 33  1  0
 15  9  2  0
  9 28  1  0
 27 10  1  0
 12 11  2  0
 11 22  1  0
 11 27  1  0
 13 12  1  0
 12 23  1  0
 14 13  2  0
 13 24  1  0
 14 15  1  0
 14 21  1  0
 15 30  1  0
 16 17  1  0
 16 18  1  0
 18 19  2  0
 20 34  1  6
 21 22  2  0
 21 25  1  0
 22 26  1  0
 28 29  1  0
 29 30  2  0
M  END
$$$$
