
     RDKit          3D

 79 80  0  0  0  0  0  0  0  0999 V2000
  -15.5415   -6.3962    9.8882 N   0  0  0  0  0  4  0  0  0  0  0  0
  -14.6072   -5.6121   10.6303 C   0  0  2  0  0  0  0  0  0  0  0  0
  -13.9716   -4.5515    9.7790 C   0  0  0  0  0  0  0  0  0  0  0  0
  -13.8760   -4.7009    8.5256 O   0  0  0  0  0  0  0  0  0  0  0  0
  -13.6134   -6.3323   11.4576 C   0  0  0  0  0  0  0  0  0  0  0  0
  -12.9688   -7.5391   10.8823 C   0  0  1  0  0  0  0  0  0  0  0  0
  -11.4425   -7.3079   11.0145 C   0  0  0  0  0  0  0  0  0  0  0  0
  -13.2257   -8.7975   11.6708 C   0  0  0  0  0  0  0  0  0  0  0  0
  -13.4462   -3.3415   10.3028 N   0  0  0  0  0  0  0  0  0  0  0  0
  -12.8555   -2.3235    9.4667 C   0  0  2  0  0  0  0  0  0  0  0  0
  -11.3888   -2.5520    9.4352 C   0  0  0  0  0  0  0  0  0  0  0  0
  -10.8288   -3.1664   10.3410 O   0  0  0  0  0  0  0  0  0  0  0  0
  -13.2523   -0.9299    9.8043 C   0  0  0  0  0  0  0  0  0  0  0  0
  -14.6355   -0.7345    9.8783 O   0  0  0  0  0  0  0  0  0  0  0  0
  -10.5759   -2.0686    8.3546 N   0  0  0  0  0  0  0  0  0  0  0  0
   -9.1468   -2.1530    8.3612 C   0  0  2  0  0  0  0  0  0  0  0  0
   -8.4427   -1.4322    9.4157 C   0  0  0  0  0  0  0  0  0  0  0  0
   -8.4886   -0.1793    9.4899 O   0  0  0  0  0  0  0  0  0  0  0  0
   -8.6640   -1.8483    6.9681 C   0  0  2  0  0  0  0  0  0  0  0  0
   -7.2967   -2.1043    6.9251 O   0  0  0  0  0  0  0  0  0  0  0  0
   -8.8423   -0.3938    6.6038 C   0  0  0  0  0  0  0  0  0  0  0  0
   -7.6685   -2.0633   10.4346 N   0  0  0  0  0  0  0  0  0  0  0  0
   -6.9996   -1.3347   11.4361 C   0  0  2  0  0  0  0  0  0  0  0  0
   -5.9223   -0.4174   11.0452 C   0  0  0  0  0  0  0  0  0  0  0  0
   -6.0711    0.8001   11.4635 O   0  0  0  0  0  0  0  0  0  0  0  0
   -6.7968   -1.9163   12.7804 C   0  0  0  0  0  0  0  0  0  0  0  0
   -5.9916   -1.2252   13.7900 C   0  0  0  0  0  0  0  0  0  0  0  0
   -6.6954   -0.3676   14.7516 C   0  0  0  0  0  0  0  0  0  0  0  0
   -6.9364    0.8507   14.5376 O   0  0  0  0  0  0  0  0  0  0  0  0
   -7.1030   -0.9427   15.9445 O   0  0  0  0  0  0  0  0  0  0  0  0
   -4.7747   -0.6950   10.2790 N   0  0  0  0  0  0  0  0  0  0  0  0
   -3.9487    0.3410    9.7756 C   0  0  2  0  0  0  0  0  0  0  0  0
   -4.5162    1.6782    9.6207 C   0  0  0  0  0  0  0  0  0  0  0  0
   -5.8125    1.6747    9.7492 O   0  0  0  0  0  0  0  0  0  0  0  0
   -3.2342    0.0428    8.5016 C   0  0  0  0  0  0  0  0  0  0  0  0
   -2.2751    1.0079    7.9901 C   0  0  1  0  0  0  0  0  0  0  0  0
   -1.6114    0.2916    6.7375 C   0  0  0  0  0  0  0  0  0  0  0  0
   -2.6848    2.3097    7.4259 C   0  0  0  0  0  0  0  0  0  0  0  0
   -3.9067    2.9232    9.3680 N   0  0  0  0  0  0  0  0  0  0  0  0
   -4.7378    4.1033    9.3698 C   0  0  2  0  0  0  0  0  0  0  0  0
   -4.0694    5.2751    8.8391 C   0  0  0  0  0  0  0  0  0  0  0  0
   -3.4264    5.2056    7.7147 O   0  0  0  0  0  0  0  0  0  0  0  0
   -5.3367    4.3430   10.7574 C   0  0  0  0  0  0  0  0  0  0  0  0
   -6.3094    3.3951   11.0468 O   0  0  0  0  0  0  0  0  0  0  0  0
   -4.0074    6.5886    9.3971 N   0  0  0  0  0  0  0  0  0  0  0  0
   -3.9266    7.7158    8.5289 C   0  0  1  0  0  0  0  0  0  0  0  0
   -5.2777    7.9591    7.8065 C   0  0  1  0  0  0  0  0  0  0  0  0
   -5.5165    9.3759    7.4621 C   0  0  0  0  0  0  0  0  0  0  0  0
   -5.2495    7.0685    6.7327 O   0  0  0  0  0  0  0  0  0  0  0  0
   -6.5106    7.2825    5.6525 P   0  0  1  0  0  5  0  0  0  0  0  0
   -8.0270    7.1646    6.3890 O   0  0  0  0  0  0  0  0  0  0  0  0
   -6.3387    8.7103    4.7537 O   0  0  0  0  0  0  0  0  0  0  0  0
   -6.4313    6.1566    4.6431 O   0  0  0  0  0  0  0  0  0  0  0  0
   -3.6759    8.9568    9.2602 C   0  0  0  0  0  0  0  0  0  0  0  0
   -4.5962    9.8493    9.4136 O   0  0  0  0  0  0  0  0  0  0  0  0
   -2.4383    9.3046    9.8558 N   0  0  0  0  0  0  0  0  0  0  0  0
   -2.3416    9.8786   11.2028 C   0  0  2  0  0  0  0  0  0  0  0  0
   -1.0576   10.5586   11.3917 C   0  0  0  0  0  0  0  0  0  0  0  0
    0.0500    9.8939   11.3283 O   0  0  0  0  0  0  0  0  0  0  0  0
   -2.4521    8.7495   12.2158 C   0  0  0  0  0  0  0  0  0  0  0  0
   -3.3580    9.0811   13.3738 C   0  0  0  0  0  0  0  0  0  0  0  0
   -2.5720    9.2378   14.6269 C   0  0  0  0  0  0  0  0  0  0  0  0
   -2.3609    8.2290   15.3402 O   0  0  0  0  0  0  0  0  0  0  0  0
   -2.0516   10.4443   15.0607 O   0  0  0  0  0  0  0  0  0  0  0  0
   -1.0016   11.9598   11.6401 N   0  0  0  0  0  0  0  0  0  0  0  0
    0.2140   12.7343   11.8928 C   0  0  2  0  0  0  0  0  0  0  0  0
    1.1486   12.0022   12.8126 C   0  0  0  0  0  0  0  0  0  0  0  0
    0.7324   11.1624   13.6191 O   0  0  0  0  0  0  0  0  0  0  0  0
   -0.2862   13.9711   12.5890 C   0  0  0  0  0  0  0  0  0  0  0  0
   -1.7770   13.9251   12.6646 C   0  0  0  0  0  0  0  0  0  0  0  0
   -2.1009   12.8809   11.6116 C   0  0  0  0  0  0  0  0  0  0  0  0
    2.5178   12.2886   12.7394 N   0  0  0  0  0  0  0  0  0  0  0  0
    3.5466   11.7674   13.6314 C   0  0  2  0  0  0  0  0  0  0  0  0
    3.8861   12.7499   14.6958 C   0  0  0  0  0  0  0  0  0  0  0  0
    3.2985   13.9929   14.7350 O   0  0  0  0  0  0  0  0  0  0  0  0
    4.7459   11.5384   12.7191 C   0  0  0  0  0  0  0  0  0  0  0  0
    4.4711   12.2928   11.4412 C   0  0  0  0  0  0  0  0  0  0  0  0
    3.2142   13.1007   11.7735 C   0  0  0  0  0  0  0  0  0  0  0  0
    4.7235   12.4575   15.5848 O   0  0  0  0  0  0  0  0  0  0  0  0
  2  1  1  6
  2  3  1  0
  2  5  1  0
  3  4  2  0
  3  9  1  0
  5  6  1  0
  6  7  1  1
  6  8  1  0
  9 10  1  0
 10 11  1  0
 10 13  1  1
 11 12  2  0
 11 15  1  0
 13 14  1  0
 16 15  1  6
 16 17  1  0
 16 19  1  0
 17 18  2  0
 17 22  1  0
 19 20  1  0
 19 21  1  1
 22 23  1  0
 23 24  1  0
 23 26  1  1
 24 25  2  0
 24 31  1  0
 26 27  1  0
 27 28  1  0
 28 29  2  0
 28 30  1  0
 31 32  1  0
 32 33  1  0
 32 35  1  6
 33 34  2  0
 33 39  1  0
 35 36  1  0
 36 37  1  6
 36 38  1  0
 39 40  1  0
 40 41  1  0
 40 43  1  1
 41 42  2  0
 41 45  1  0
 43 44  1  0
 46 45  1  1
 46 47  1  0
 46 54  1  0
 47 48  1  6
 47 49  1  0
 49 50  1  0
 50 51  1  1
 50 52  1  0
 50 53  2  0
 54 55  2  0
 54 56  1  0
 56 57  1  0
 57 58  1  0
 57 60  1  1
 58 59  2  0
 58 65  1  0
 60 61  1  0
 61 62  1  0
 62 63  2  0
 62 64  1  0
 65 66  1  0
 65 71  1  0
 66 67  1  1
 66 69  1  0
 67 68  2  0
 67 72  1  0
 69 70  1  0
 70 71  1  0
 72 73  1  0
 72 78  1  0
 73 74  1  1
 73 76  1  0
 74 75  1  0
 74 79  2  0
 76 77  1  0
 77 78  1  0
M  CHG  1   1   1
M  END
$$$$
