
     RDKit          3D

 79 80  0  0  0  0  0  0  0  0999 V2000
   -8.9487   -7.5827   14.3076 N   0  0  0  0  0  4  0  0  0  0  0  0
   -8.1362   -6.4670   14.6727 C   0  0  2  0  0  0  0  0  0  0  0  0
   -8.0844   -5.4365   13.5822 C   0  0  0  0  0  0  0  0  0  0  0  0
   -7.3825   -5.6275   12.5463 O   0  0  0  0  0  0  0  0  0  0  0  0
   -6.7969   -6.7502   15.2356 C   0  0  0  0  0  0  0  0  0  0  0  0
   -6.2726   -8.1346   15.1286 C   0  0  1  0  0  0  0  0  0  0  0  0
   -6.2347   -8.6864   16.5758 C   0  0  0  0  0  0  0  0  0  0  0  0
   -7.1924   -9.0757   14.3939 C   0  0  0  0  0  0  0  0  0  0  0  0
   -8.7963   -4.2097   13.6334 N   0  0  0  0  0  0  0  0  0  0  0  0
   -8.7658   -3.2471   12.5580 C   0  0  2  0  0  0  0  0  0  0  0  0
   -7.3875   -2.7018   12.4714 C   0  0  0  0  0  0  0  0  0  0  0  0
   -6.6788   -2.6227   13.4729 O   0  0  0  0  0  0  0  0  0  0  0  0
   -9.8328   -2.2118   12.6156 C   0  0  0  0  0  0  0  0  0  0  0  0
  -11.1313   -2.7299   12.5646 O   0  0  0  0  0  0  0  0  0  0  0  0
   -6.8347   -2.2505   11.2253 N   0  0  0  0  0  0  0  0  0  0  0  0
   -5.6928   -1.3905   11.1495 C   0  0  2  0  0  0  0  0  0  0  0  0
   -5.7621   -0.1273   11.8754 C   0  0  0  0  0  0  0  0  0  0  0  0
   -6.7980    0.2073   12.5016 O   0  0  0  0  0  0  0  0  0  0  0  0
   -5.3170   -1.2557    9.6979 C   0  0  2  0  0  0  0  0  0  0  0  0
   -6.3519   -1.7925    8.9378 O   0  0  0  0  0  0  0  0  0  0  0  0
   -4.0747   -2.0409    9.3511 C   0  0  0  0  0  0  0  0  0  0  0  0
   -4.6905    0.8120   11.9474 N   0  0  0  0  0  0  0  0  0  0  0  0
   -4.8188    2.0571   12.5915 C   0  0  2  0  0  0  0  0  0  0  0  0
   -3.6859    2.9900   12.5623 C   0  0  0  0  0  0  0  0  0  0  0  0
   -3.9373    4.1275   11.9946 O   0  0  0  0  0  0  0  0  0  0  0  0
   -5.6383    2.1895   13.8152 C   0  0  0  0  0  0  0  0  0  0  0  0
   -5.0265    2.1349   15.1448 C   0  0  0  0  0  0  0  0  0  0  0  0
   -5.1531    0.8833   15.9015 C   0  0  0  0  0  0  0  0  0  0  0  0
   -6.0692    0.0436   15.6921 O   0  0  0  0  0  0  0  0  0  0  0  0
   -4.2134    0.6333   16.8887 O   0  0  0  0  0  0  0  0  0  0  0  0
   -2.3834    2.7973   13.0600 N   0  0  0  0  0  0  0  0  0  0  0  0
   -1.3906    3.8032   12.9531 C   0  0  2  0  0  0  0  0  0  0  0  0
   -1.3685    4.6431   11.7580 C   0  0  0  0  0  0  0  0  0  0  0  0
   -0.4911    4.2294   10.8885 O   0  0  0  0  0  0  0  0  0  0  0  0
    0.0146    3.3568   13.1732 C   0  0  0  0  0  0  0  0  0  0  0  0
    0.4080    2.8965   14.4947 C   0  0  1  0  0  0  0  0  0  0  0  0
    1.8920    2.3615   14.3099 C   0  0  0  0  0  0  0  0  0  0  0  0
    0.5462    3.8129   15.6445 C   0  0  0  0  0  0  0  0  0  0  0  0
   -2.1195    5.7831   11.4089 N   0  0  0  0  0  0  0  0  0  0  0  0
   -1.7682    6.4881   10.1994 C   0  0  2  0  0  0  0  0  0  0  0  0
   -2.6247    7.6266    9.9311 C   0  0  0  0  0  0  0  0  0  0  0  0
   -3.8983    7.5538   10.1658 O   0  0  0  0  0  0  0  0  0  0  0  0
   -1.6806    5.5232    9.0150 C   0  0  0  0  0  0  0  0  0  0  0  0
   -2.6905    5.7754    8.0958 O   0  0  0  0  0  0  0  0  0  0  0  0
   -2.2597    8.9084    9.4170 N   0  0  0  0  0  0  0  0  0  0  0  0
   -3.0581   10.0448    9.7364 C   0  0  1  0  0  0  0  0  0  0  0  0
   -2.2717   11.3610    9.5001 C   0  0  1  0  0  0  0  0  0  0  0  0
   -1.1162   11.5291   10.4053 C   0  0  0  0  0  0  0  0  0  0  0  0
   -1.9776   11.3361    8.1364 O   0  0  0  0  0  0  0  0  0  0  0  0
   -1.1152   12.6725    7.6134 P   0  0  1  0  0  5  0  0  0  0  0  0
    0.4018   12.7975    8.3473 O   0  0  0  0  0  0  0  0  0  0  0  0
   -1.0217   12.7430    5.9216 O   0  0  0  0  0  0  0  0  0  0  0  0
   -1.8984   13.9007    8.0271 O   0  0  0  0  0  0  0  0  0  0  0  0
   -4.2274   10.1579    8.8659 C   0  0  0  0  0  0  0  0  0  0  0  0
   -5.1040   11.0917    9.0285 O   0  0  0  0  0  0  0  0  0  0  0  0
   -4.5176    9.2836    7.7893 N   0  0  0  0  0  0  0  0  0  0  0  0
   -5.7398    9.3967    6.9851 C   0  0  2  0  0  0  0  0  0  0  0  0
   -6.6929    8.3382    7.3287 C   0  0  0  0  0  0  0  0  0  0  0  0
   -6.2709    7.1692    7.6864 O   0  0  0  0  0  0  0  0  0  0  0  0
   -5.3641    9.2607    5.5176 C   0  0  0  0  0  0  0  0  0  0  0  0
   -6.5595    9.0965    4.6144 C   0  0  0  0  0  0  0  0  0  0  0  0
   -6.1313    8.7237    3.2396 C   0  0  0  0  0  0  0  0  0  0  0  0
   -6.3230    7.5506    2.8421 O   0  0  0  0  0  0  0  0  0  0  0  0
   -5.5263    9.6031    2.3591 O   0  0  0  0  0  0  0  0  0  0  0  0
   -8.0964    8.5751    7.2838 N   0  0  0  0  0  0  0  0  0  0  0  0
   -9.1391    7.5612    7.4459 C   0  0  2  0  0  0  0  0  0  0  0  0
   -8.7973    6.3006    6.7046 C   0  0  0  0  0  0  0  0  0  0  0  0
   -8.2535    6.3332    5.5947 O   0  0  0  0  0  0  0  0  0  0  0  0
  -10.3511    8.1873    6.8106 C   0  0  0  0  0  0  0  0  0  0  0  0
  -10.0114    9.5692    6.3575 C   0  0  0  0  0  0  0  0  0  0  0  0
   -8.7484    9.8460    7.1527 C   0  0  0  0  0  0  0  0  0  0  0  0
   -9.1070    5.0710    7.3001 N   0  0  0  0  0  0  0  0  0  0  0  0
   -8.9184    3.7587    6.6936 C   0  0  2  0  0  0  0  0  0  0  0  0
  -10.1862    3.2492    6.1049 C   0  0  0  0  0  0  0  0  0  0  0  0
  -11.2598    4.0817    5.8900 O   0  0  0  0  0  0  0  0  0  0  0  0
   -8.4799    2.8740    7.8548 C   0  0  0  0  0  0  0  0  0  0  0  0
   -8.8084    3.6248    9.1221 C   0  0  0  0  0  0  0  0  0  0  0  0
   -9.6244    4.8192    8.6215 C   0  0  0  0  0  0  0  0  0  0  0  0
  -10.2980    2.0383    5.7913 O   0  0  0  0  0  0  0  0  0  0  0  0
  2  1  1  6
  2  3  1  0
  2  5  1  0
  3  4  2  0
  3  9  1  0
  5  6  1  0
  6  7  1  1
  6  8  1  0
  9 10  1  0
 10 11  1  0
 10 13  1  1
 11 12  2  0
 11 15  1  0
 13 14  1  0
 16 15  1  6
 16 17  1  0
 16 19  1  0
 17 18  2  0
 17 22  1  0
 19 20  1  0
 19 21  1  1
 22 23  1  0
 23 24  1  0
 23 26  1  1
 24 25  2  0
 24 31  1  0
 26 27  1  0
 27 28  1  0
 28 29  2  0
 28 30  1  0
 31 32  1  0
 32 33  1  0
 32 35  1  6
 33 34  2  0
 33 39  1  0
 35 36  1  0
 36 37  1  6
 36 38  1  0
 39 40  1  0
 40 41  1  0
 40 43  1  6
 41 42  2  0
 41 45  1  0
 43 44  1  0
 46 45  1  6
 46 47  1  0
 46 54  1  0
 47 48  1  1
 47 49  1  0
 49 50  1  0
 50 51  1  1
 50 52  1  0
 50 53  2  0
 54 55  2  0
 54 56  1  0
 56 57  1  0
 57 58  1  0
 57 60  1  6
 58 59  2  0
 58 65  1  0
 60 61  1  0
 61 62  1  0
 62 63  2  0
 62 64  1  0
 65 66  1  0
 65 71  1  0
 66 67  1  6
 66 69  1  0
 67 68  2  0
 67 72  1  0
 69 70  1  0
 70 71  1  0
 72 73  1  0
 72 78  1  0
 73 74  1  1
 73 76  1  0
 74 75  1  0
 74 79  2  0
 76 77  1  0
 77 78  1  0
M  CHG  1   1   1
M  END
$$$$
