
     RDKit          3D

 79 80  0  0  0  0  0  0  0  0999 V2000
   -3.1143    5.4874    2.8712 N   0  0  0  0  0  4  0  0  0  0  0  0
   -3.3254    4.5762    3.9498 C   0  0  2  0  0  0  0  0  0  0  0  0
   -4.5923    3.7903    3.7738 C   0  0  0  0  0  0  0  0  0  0  0  0
   -5.5678    4.2741    3.1282 O   0  0  0  0  0  0  0  0  0  0  0  0
   -3.1814    5.0998    5.3268 C   0  0  0  0  0  0  0  0  0  0  0  0
   -2.2507    4.3995    6.2466 C   0  0  1  0  0  0  0  0  0  0  0  0
   -1.6375    5.5004    7.1479 C   0  0  0  0  0  0  0  0  0  0  0  0
   -2.9384    3.4675    7.2107 C   0  0  0  0  0  0  0  0  0  0  0  0
   -4.7825    2.4875    4.3041 N   0  0  0  0  0  0  0  0  0  0  0  0
   -5.9390    1.6818    3.9920 C   0  0  2  0  0  0  0  0  0  0  0  0
   -7.1193    2.3045    4.6429 C   0  0  0  0  0  0  0  0  0  0  0  0
   -6.9784    3.1813    5.4931 O   0  0  0  0  0  0  0  0  0  0  0  0
   -5.7811    0.2285    4.2688 C   0  0  0  0  0  0  0  0  0  0  0  0
   -4.8013   -0.3958    3.4895 O   0  0  0  0  0  0  0  0  0  0  0  0
   -8.4584    1.9099    4.3065 N   0  0  0  0  0  0  0  0  0  0  0  0
   -9.6002    2.3100    5.0718 C   0  0  2  0  0  0  0  0  0  0  0  0
   -9.7863    1.6740    6.3711 C   0  0  0  0  0  0  0  0  0  0  0  0
   -9.5131    0.4608    6.5468 O   0  0  0  0  0  0  0  0  0  0  0  0
  -10.8024    2.2452    4.1679 C   0  0  2  0  0  0  0  0  0  0  0  0
  -11.1242    0.9039    3.9818 O   0  0  0  0  0  0  0  0  0  0  0  0
  -10.5225    2.8158    2.7982 C   0  0  0  0  0  0  0  0  0  0  0  0
  -10.2716    2.3513    7.5293 N   0  0  0  0  0  0  0  0  0  0  0  0
  -10.5382    1.6832    8.7393 C   0  0  2  0  0  0  0  0  0  0  0  0
   -9.5435    0.7381    9.2610 C   0  0  0  0  0  0  0  0  0  0  0  0
   -9.8764   -0.5098    9.1547 O   0  0  0  0  0  0  0  0  0  0  0  0
  -11.9231    1.3180    9.1071 C   0  0  0  0  0  0  0  0  0  0  0  0
  -12.2172    0.6494   10.3766 C   0  0  0  0  0  0  0  0  0  0  0  0
  -13.6282    0.4655   10.7382 C   0  0  0  0  0  0  0  0  0  0  0  0
  -14.0020    0.1107   11.8882 O   0  0  0  0  0  0  0  0  0  0  0  0
  -14.5769    0.6953    9.7549 O   0  0  0  0  0  0  0  0  0  0  0  0
   -8.3004    1.0202    9.8580 N   0  0  0  0  0  0  0  0  0  0  0  0
   -7.4319   -0.0132   10.2901 C   0  0  2  0  0  0  0  0  0  0  0  0
   -6.1989    0.3509   10.9838 C   0  0  0  0  0  0  0  0  0  0  0  0
   -5.3654   -0.6479   11.0515 O   0  0  0  0  0  0  0  0  0  0  0  0
   -7.0463   -1.0146    9.2553 C   0  0  0  0  0  0  0  0  0  0  0  0
   -6.0671   -2.0344    9.5933 C   0  0  1  0  0  0  0  0  0  0  0  0
   -6.8744   -3.4012    9.5414 C   0  0  0  0  0  0  0  0  0  0  0  0
   -4.8999   -2.3272    8.7373 C   0  0  0  0  0  0  0  0  0  0  0  0
   -5.7830    1.5653   11.5651 N   0  0  0  0  0  0  0  0  0  0  0  0
   -4.3753    1.7520   11.8232 C   0  0  2  0  0  0  0  0  0  0  0  0
   -4.0684    3.0361   12.4218 C   0  0  0  0  0  0  0  0  0  0  0  0
   -4.8769    4.0383   12.2652 O   0  0  0  0  0  0  0  0  0  0  0  0
   -3.5514    1.4759   10.5636 C   0  0  0  0  0  0  0  0  0  0  0  0
   -2.4216    2.2823   10.5248 O   0  0  0  0  0  0  0  0  0  0  0  0
   -2.9377    3.3954   13.2175 N   0  0  0  0  0  0  0  0  0  0  0  0
   -2.9626    4.6098   13.9626 C   0  0  1  0  0  0  0  0  0  0  0  0
   -2.4975    4.3753   15.4239 C   0  0  1  0  0  0  0  0  0  0  0  0
   -3.5378    3.7775   16.2861 C   0  0  0  0  0  0  0  0  0  0  0  0
   -1.3219    3.6362   15.2874 O   0  0  0  0  0  0  0  0  0  0  0  0
   -0.5035    3.4084   16.7301 P   0  0  1  0  0  5  0  0  0  0  0  0
    0.1861    4.8337   17.3206 O   0  0  0  0  0  0  0  0  0  0  0  0
   -1.4668    2.6294   17.8881 O   0  0  0  0  0  0  0  0  0  0  0  0
    0.6414    2.4577   16.4500 O   0  0  0  0  0  0  0  0  0  0  0  0
   -2.0229    5.5982   13.4355 C   0  0  0  0  0  0  0  0  0  0  0  0
   -1.2640    6.2933   14.2152 O   0  0  0  0  0  0  0  0  0  0  0  0
   -1.8514    5.8931   12.0603 N   0  0  0  0  0  0  0  0  0  0  0  0
   -0.9099    6.9112   11.5805 C   0  0  2  0  0  0  0  0  0  0  0  0
   -1.6222    8.0433   10.9824 C   0  0  0  0  0  0  0  0  0  0  0  0
   -2.5984    7.8403   10.1588 O   0  0  0  0  0  0  0  0  0  0  0  0
   -0.0168    6.2802   10.5233 C   0  0  0  0  0  0  0  0  0  0  0  0
   -0.2385    6.8501    9.1458 C   0  0  0  0  0  0  0  0  0  0  0  0
    1.0600    7.1742    8.4966 C   0  0  0  0  0  0  0  0  0  0  0  0
    1.8587    7.9387    9.0870 O   0  0  0  0  0  0  0  0  0  0  0  0
    1.4474    6.6774    7.2647 O   0  0  0  0  0  0  0  0  0  0  0  0
   -1.2619    9.3841   11.2996 N   0  0  0  0  0  0  0  0  0  0  0  0
   -1.6125   10.0940   12.5302 C   0  0  2  0  0  0  0  0  0  0  0  0
   -3.0347    9.8256   12.9313 C   0  0  0  0  0  0  0  0  0  0  0  0
   -3.8018    9.1902   12.1987 O   0  0  0  0  0  0  0  0  0  0  0  0
   -1.4763   11.5460   12.1588 C   0  0  0  0  0  0  0  0  0  0  0  0
   -0.9856   11.6506   10.7522 C   0  0  0  0  0  0  0  0  0  0  0  0
   -0.4313   10.2566   10.5209 C   0  0  0  0  0  0  0  0  0  0  0  0
   -3.4832   10.3113   14.1663 N   0  0  0  0  0  0  0  0  0  0  0  0
   -4.8271   10.1507   14.7083 C   0  0  2  0  0  0  0  0  0  0  0  0
   -5.6528   11.3655   14.4719 C   0  0  0  0  0  0  0  0  0  0  0  0
   -5.1422   12.4600   13.8136 O   0  0  0  0  0  0  0  0  0  0  0  0
   -4.6017    9.9453   16.2016 C   0  0  0  0  0  0  0  0  0  0  0  0
   -3.1853   10.3782   16.4917 C   0  0  0  0  0  0  0  0  0  0  0  0
   -2.7376   11.0197   15.1760 C   0  0  0  0  0  0  0  0  0  0  0  0
   -6.8417   11.4121   14.8736 O   0  0  0  0  0  0  0  0  0  0  0  0
  2  1  1  6
  2  3  1  0
  2  5  1  0
  3  4  2  0
  3  9  1  0
  5  6  1  0
  6  7  1  1
  6  8  1  0
  9 10  1  0
 10 11  1  0
 10 13  1  1
 11 12  2  0
 11 15  1  0
 13 14  1  0
 16 15  1  6
 16 17  1  0
 16 19  1  0
 17 18  2  0
 17 22  1  0
 19 20  1  0
 19 21  1  6
 22 23  1  0
 23 24  1  0
 23 26  1  6
 24 25  2  0
 24 31  1  0
 26 27  1  0
 27 28  1  0
 28 29  2  0
 28 30  1  0
 31 32  1  0
 32 33  1  0
 32 35  1  6
 33 34  2  0
 33 39  1  0
 35 36  1  0
 36 37  1  6
 36 38  1  0
 39 40  1  0
 40 41  1  0
 40 43  1  6
 41 42  2  0
 41 45  1  0
 43 44  1  0
 46 45  1  6
 46 47  1  0
 46 54  1  0
 47 48  1  1
 47 49  1  0
 49 50  1  0
 50 51  1  1
 50 52  1  0
 50 53  2  0
 54 55  2  0
 54 56  1  0
 56 57  1  0
 57 58  1  0
 57 60  1  6
 58 59  2  0
 58 65  1  0
 60 61  1  0
 61 62  1  0
 62 63  2  0
 62 64  1  0
 65 66  1  0
 65 71  1  0
 66 67  1  6
 66 69  1  0
 67 68  2  0
 67 72  1  0
 69 70  1  0
 70 71  1  0
 72 73  1  0
 72 78  1  0
 73 74  1  1
 73 76  1  0
 74 75  1  0
 74 79  2  0
 76 77  1  0
 77 78  1  0
M  CHG  1   1   1
M  END
$$$$
