
     RDKit          3D

 79 80  0  0  0  0  0  0  0  0999 V2000
  -15.0662   -4.8646   13.0404 N   0  0  0  0  0  4  0  0  0  0  0  0
  -14.9735   -3.4402   13.0688 C   0  0  2  0  0  0  0  0  0  0  0  0
  -14.2602   -2.9053   11.8611 C   0  0  0  0  0  0  0  0  0  0  0  0
  -13.8252   -3.6897   10.9680 O   0  0  0  0  0  0  0  0  0  0  0  0
  -14.4988   -2.8097   14.3210 C   0  0  0  0  0  0  0  0  0  0  0  0
  -14.6677   -1.3429   14.4721 C   0  0  1  0  0  0  0  0  0  0  0  0
  -16.1134   -1.1339   14.9887 C   0  0  0  0  0  0  0  0  0  0  0  0
  -13.7971   -0.7399   15.5443 C   0  0  0  0  0  0  0  0  0  0  0  0
  -14.0277   -1.5225   11.6409 N   0  0  0  0  0  0  0  0  0  0  0  0
  -13.0900   -1.0384   10.6557 C   0  0  2  0  0  0  0  0  0  0  0  0
  -11.7303   -1.4686   11.0686 C   0  0  0  0  0  0  0  0  0  0  0  0
  -11.4407   -1.5809   12.2582 O   0  0  0  0  0  0  0  0  0  0  0  0
  -13.2062    0.4112   10.3418 C   0  0  0  0  0  0  0  0  0  0  0  0
  -12.0237    1.1323   10.5385 O   0  0  0  0  0  0  0  0  0  0  0  0
  -10.7108   -1.7675   10.1024 N   0  0  0  0  0  0  0  0  0  0  0  0
   -9.5381   -2.5242   10.4211 C   0  0  2  0  0  0  0  0  0  0  0  0
   -8.3708   -1.7802   10.8805 C   0  0  0  0  0  0  0  0  0  0  0  0
   -8.1460   -0.6108   10.4813 O   0  0  0  0  0  0  0  0  0  0  0  0
   -9.2695   -3.4580    9.2711 C   0  0  2  0  0  0  0  0  0  0  0  0
   -9.3075   -2.7110    8.0974 O   0  0  0  0  0  0  0  0  0  0  0  0
  -10.3297   -4.5249    9.1380 C   0  0  0  0  0  0  0  0  0  0  0  0
   -7.4108   -2.2914   11.8041 N   0  0  0  0  0  0  0  0  0  0  0  0
   -6.1195   -1.7458   11.9315 C   0  0  2  0  0  0  0  0  0  0  0  0
   -5.5002   -1.1104   10.7621 C   0  0  0  0  0  0  0  0  0  0  0  0
   -4.8037   -0.0506   11.0288 O   0  0  0  0  0  0  0  0  0  0  0  0
   -5.1290   -2.3627   12.8396 C   0  0  0  0  0  0  0  0  0  0  0  0
   -5.5056   -2.7976   14.1866 C   0  0  0  0  0  0  0  0  0  0  0  0
   -4.4660   -3.4179   15.0172 C   0  0  0  0  0  0  0  0  0  0  0  0
   -4.4059   -3.2691   16.2672 O   0  0  0  0  0  0  0  0  0  0  0  0
   -3.5150   -4.1969   14.3780 O   0  0  0  0  0  0  0  0  0  0  0  0
   -5.5776   -1.5023    9.4124 N   0  0  0  0  0  0  0  0  0  0  0  0
   -4.9484   -0.7562    8.3846 C   0  0  2  0  0  0  0  0  0  0  0  0
   -5.1687    0.6869    8.3296 C   0  0  0  0  0  0  0  0  0  0  0  0
   -5.9686    1.0205    7.3570 O   0  0  0  0  0  0  0  0  0  0  0  0
   -5.1515   -1.2607    6.9965 C   0  0  0  0  0  0  0  0  0  0  0  0
   -4.6379   -2.5737    6.6428 C   0  0  1  0  0  0  0  0  0  0  0  0
   -5.1691   -2.8303    5.1681 C   0  0  0  0  0  0  0  0  0  0  0  0
   -3.1934   -2.8499    6.5080 C   0  0  0  0  0  0  0  0  0  0  0  0
   -4.6753    1.7339    9.1333 N   0  0  0  0  0  0  0  0  0  0  0  0
   -5.0497    3.0869    8.7976 C   0  0  2  0  0  0  0  0  0  0  0  0
   -4.3504    3.6033    7.6375 C   0  0  0  0  0  0  0  0  0  0  0  0
   -3.1967    3.1151    7.3009 O   0  0  0  0  0  0  0  0  0  0  0  0
   -4.9258    4.0025   10.0174 C   0  0  0  0  0  0  0  0  0  0  0  0
   -5.9260    3.7327   10.9421 O   0  0  0  0  0  0  0  0  0  0  0  0
   -4.7639    4.6350    6.7401 N   0  0  0  0  0  0  0  0  0  0  0  0
   -3.8583    5.1016    5.7437 C   0  0  1  0  0  0  0  0  0  0  0  0
   -4.5165    6.1957    4.8626 C   0  0  1  0  0  0  0  0  0  0  0  0
   -4.2164    6.0543    3.4229 C   0  0  0  0  0  0  0  0  0  0  0  0
   -5.8665    6.1401    5.2110 O   0  0  0  0  0  0  0  0  0  0  0  0
   -6.3117    7.2849    6.3486 P   0  0  1  0  0  5  0  0  0  0  0  0
   -7.4960    8.3461    5.7767 O   0  0  0  0  0  0  0  0  0  0  0  0
   -6.7413    6.5742    7.8272 O   0  0  0  0  0  0  0  0  0  0  0  0
   -5.0857    8.1233    6.6435 O   0  0  0  0  0  0  0  0  0  0  0  0
   -2.6892    5.7580    6.3268 C   0  0  0  0  0  0  0  0  0  0  0  0
   -1.5164    5.6451    5.7988 O   0  0  0  0  0  0  0  0  0  0  0  0
   -2.7143    6.5582    7.4958 N   0  0  0  0  0  0  0  0  0  0  0  0
   -1.7247    7.6098    7.7567 C   0  0  2  0  0  0  0  0  0  0  0  0
   -1.8374    8.1062    9.1307 C   0  0  0  0  0  0  0  0  0  0  0  0
   -2.6050    9.1109    9.4021 O   0  0  0  0  0  0  0  0  0  0  0  0
   -1.9821    8.7612    6.7969 C   0  0  0  0  0  0  0  0  0  0  0  0
   -1.1211    8.7040    5.5611 C   0  0  0  0  0  0  0  0  0  0  0  0
   -0.4010    9.9903    5.3631 C   0  0  0  0  0  0  0  0  0  0  0  0
    0.8508   10.0002    5.4260 O   0  0  0  0  0  0  0  0  0  0  0  0
   -1.0350   11.1939    5.1100 O   0  0  0  0  0  0  0  0  0  0  0  0
   -1.1141    7.4911   10.1921 N   0  0  0  0  0  0  0  0  0  0  0  0
   -1.1563    7.8920   11.5988 C   0  0  2  0  0  0  0  0  0  0  0  0
   -1.1280    9.3866   11.7436 C   0  0  0  0  0  0  0  0  0  0  0  0
   -0.7985   10.1188   10.8033 O   0  0  0  0  0  0  0  0  0  0  0  0
    0.1125    7.3221   12.1732 C   0  0  0  0  0  0  0  0  0  0  0  0
    0.8279    6.5478   11.1154 C   0  0  0  0  0  0  0  0  0  0  0  0
   -0.2795    6.3281   10.1008 C   0  0  0  0  0  0  0  0  0  0  0  0
   -1.4876    9.9448   12.9770 N   0  0  0  0  0  0  0  0  0  0  0  0
   -1.4518   11.3629   13.3136 C   0  0  2  0  0  0  0  0  0  0  0  0
   -0.2124   11.7090   14.0604 C   0  0  0  0  0  0  0  0  0  0  0  0
    0.9324   10.9572   13.9329 O   0  0  0  0  0  0  0  0  0  0  0  0
   -2.6771   11.5645   14.1975 C   0  0  0  0  0  0  0  0  0  0  0  0
   -3.1306   10.1923   14.6323 C   0  0  0  0  0  0  0  0  0  0  0  0
   -2.0019    9.2791   14.1473 C   0  0  0  0  0  0  0  0  0  0  0  0
   -0.1910   12.7031   14.8274 O   0  0  0  0  0  0  0  0  0  0  0  0
  2  1  1  1
  2  3  1  0
  2  5  1  0
  3  4  2  0
  3  9  1  0
  5  6  1  0
  6  7  1  1
  6  8  1  0
  9 10  1  0
 10 11  1  0
 10 13  1  1
 11 12  2  0
 11 15  1  0
 13 14  1  0
 16 15  1  6
 16 17  1  0
 16 19  1  0
 17 18  2  0
 17 22  1  0
 19 20  1  0
 19 21  1  6
 22 23  1  0
 23 24  1  0
 23 26  1  6
 24 25  2  0
 24 31  1  0
 26 27  1  0
 27 28  1  0
 28 29  2  0
 28 30  1  0
 31 32  1  0
 32 33  1  0
 32 35  1  6
 33 34  2  0
 33 39  1  0
 35 36  1  0
 36 37  1  6
 36 38  1  0
 39 40  1  0
 40 41  1  0
 40 43  1  1
 41 42  2  0
 41 45  1  0
 43 44  1  0
 46 45  1  1
 46 47  1  0
 46 54  1  0
 47 48  1  6
 47 49  1  0
 49 50  1  0
 50 51  1  6
 50 52  1  0
 50 53  2  0
 54 55  2  0
 54 56  1  0
 56 57  1  0
 57 58  1  0
 57 60  1  6
 58 59  2  0
 58 65  1  0
 60 61  1  0
 61 62  1  0
 62 63  2  0
 62 64  1  0
 65 66  1  0
 65 71  1  0
 66 67  1  6
 66 69  1  0
 67 68  2  0
 67 72  1  0
 69 70  1  0
 70 71  1  0
 72 73  1  0
 72 78  1  0
 73 74  1  1
 73 76  1  0
 74 75  1  0
 74 79  2  0
 76 77  1  0
 77 78  1  0
M  CHG  1   1   1
M  END
$$$$
