
     RDKit          3D

 79 80  0  0  0  0  0  0  0  0999 V2000
   -9.3269   -2.8270   18.6424 N   0  0  0  0  0  4  0  0  0  0  0  0
   -9.3252   -4.2361   18.4122 C   0  0  2  0  0  0  0  0  0  0  0  0
   -9.1839   -4.5610   16.9535 C   0  0  0  0  0  0  0  0  0  0  0  0
   -8.5673   -5.6017   16.5806 O   0  0  0  0  0  0  0  0  0  0  0  0
  -10.3874   -5.0372   19.0611 C   0  0  0  0  0  0  0  0  0  0  0  0
  -10.4178   -5.0862   20.5442 C   0  0  1  0  0  0  0  0  0  0  0  0
   -8.9646   -4.8133   21.0070 C   0  0  0  0  0  0  0  0  0  0  0  0
  -11.2238   -3.9776   21.1707 C   0  0  0  0  0  0  0  0  0  0  0  0
   -9.7145   -3.7481   15.9180 N   0  0  0  0  0  0  0  0  0  0  0  0
   -9.5298   -4.0516   14.5187 C   0  0  2  0  0  0  0  0  0  0  0  0
   -8.5719   -3.0647   13.9593 C   0  0  0  0  0  0  0  0  0  0  0  0
   -8.3983   -1.9775   14.5065 O   0  0  0  0  0  0  0  0  0  0  0  0
  -10.7888   -4.1948   13.7389 C   0  0  0  0  0  0  0  0  0  0  0  0
  -11.6057   -3.0595   13.7642 O   0  0  0  0  0  0  0  0  0  0  0  0
   -7.8181   -3.3406   12.7686 N   0  0  0  0  0  0  0  0  0  0  0  0
   -6.8931   -2.4061   12.2023 C   0  0  2  0  0  0  0  0  0  0  0  0
   -7.4446   -1.1691   11.6610 C   0  0  0  0  0  0  0  0  0  0  0  0
   -8.4583   -1.1783   10.9197 O   0  0  0  0  0  0  0  0  0  0  0  0
   -6.0044   -3.1617   11.2505 C   0  0  2  0  0  0  0  0  0  0  0  0
   -6.7036   -4.2827   10.8129 O   0  0  0  0  0  0  0  0  0  0  0  0
   -4.7488   -3.6697   11.9179 C   0  0  0  0  0  0  0  0  0  0  0  0
   -6.9068    0.1263   11.9223 N   0  0  0  0  0  0  0  0  0  0  0  0
   -7.3921    1.2874   11.2915 C   0  0  2  0  0  0  0  0  0  0  0  0
   -7.2453    1.4175    9.8367 C   0  0  0  0  0  0  0  0  0  0  0  0
   -6.0309    1.2897    9.4027 O   0  0  0  0  0  0  0  0  0  0  0  0
   -7.3606    2.5909   11.9889 C   0  0  0  0  0  0  0  0  0  0  0  0
   -7.9264    3.7927   11.3719 C   0  0  0  0  0  0  0  0  0  0  0  0
   -9.2980    4.1653   11.7395 C   0  0  0  0  0  0  0  0  0  0  0  0
   -9.7369    5.3434   11.6517 O   0  0  0  0  0  0  0  0  0  0  0  0
  -10.1320    3.1613   12.2046 O   0  0  0  0  0  0  0  0  0  0  0  0
   -8.2446    1.6673    8.8775 N   0  0  0  0  0  0  0  0  0  0  0  0
   -7.9269    1.8930    7.5147 C   0  0  2  0  0  0  0  0  0  0  0  0
   -6.5294    1.8107    7.0971 C   0  0  0  0  0  0  0  0  0  0  0  0
   -5.8747    0.9035    7.7643 O   0  0  0  0  0  0  0  0  0  0  0  0
   -8.4647    3.1501    6.9205 C   0  0  0  0  0  0  0  0  0  0  0  0
   -9.9047    3.3378    6.8555 C   0  0  1  0  0  0  0  0  0  0  0  0
  -10.0951    4.7655    6.1861 C   0  0  0  0  0  0  0  0  0  0  0  0
  -10.7787    2.4838    6.0261 C   0  0  0  0  0  0  0  0  0  0  0  0
   -5.8069    2.5267    6.1220 N   0  0  0  0  0  0  0  0  0  0  0  0
   -4.8048    1.8210    5.3597 C   0  0  2  0  0  0  0  0  0  0  0  0
   -3.9545    2.6993    4.5805 C   0  0  0  0  0  0  0  0  0  0  0  0
   -3.8241    2.5157    3.3030 O   0  0  0  0  0  0  0  0  0  0  0  0
   -5.4436    0.7162    4.5154 C   0  0  0  0  0  0  0  0  0  0  0  0
   -4.4949    0.0950    3.7140 O   0  0  0  0  0  0  0  0  0  0  0  0
   -3.1872    3.8175    5.0295 N   0  0  0  0  0  0  0  0  0  0  0  0
   -3.2623    5.0499    4.3180 C   0  0  1  0  0  0  0  0  0  0  0  0
   -4.4173    5.0249    3.2827 C   0  0  1  0  0  0  0  0  0  0  0  0
   -3.9773    5.3033    1.9001 C   0  0  0  0  0  0  0  0  0  0  0  0
   -5.0267    3.7868    3.4896 O   0  0  0  0  0  0  0  0  0  0  0  0
   -6.6955    3.8717    3.5946 P   0  0  1  0  0  5  0  0  0  0  0  0
   -7.4494    2.4158    3.1853 O   0  0  0  0  0  0  0  0  0  0  0  0
   -7.2057    4.4619    5.1004 O   0  0  0  0  0  0  0  0  0  0  0  0
   -7.1563    4.8975    2.5805 O   0  0  0  0  0  0  0  0  0  0  0  0
   -3.5847    6.1735    5.1964 C   0  0  0  0  0  0  0  0  0  0  0  0
   -2.8139    7.2055    5.2853 O   0  0  0  0  0  0  0  0  0  0  0  0
   -4.7355    6.2478    6.0195 N   0  0  0  0  0  0  0  0  0  0  0  0
   -4.8006    7.0972    7.2143 C   0  0  2  0  0  0  0  0  0  0  0  0
   -3.4884    7.1970    7.8584 C   0  0  0  0  0  0  0  0  0  0  0  0
   -2.8791    6.1329    8.2694 O   0  0  0  0  0  0  0  0  0  0  0  0
   -5.7818    6.4735    8.1948 C   0  0  0  0  0  0  0  0  0  0  0  0
   -6.9215    7.3917    8.5551 C   0  0  0  0  0  0  0  0  0  0  0  0
   -6.6817    8.0327    9.8756 C   0  0  0  0  0  0  0  0  0  0  0  0
   -6.2249    9.1995    9.9091 O   0  0  0  0  0  0  0  0  0  0  0  0
   -6.9351    7.4135   11.0868 O   0  0  0  0  0  0  0  0  0  0  0  0
   -2.8558    8.4602    8.0376 N   0  0  0  0  0  0  0  0  0  0  0  0
   -1.6806    8.7161    8.8711 C   0  0  2  0  0  0  0  0  0  0  0  0
   -1.7672    7.9841   10.1796 C   0  0  0  0  0  0  0  0  0  0  0  0
   -2.8471    7.5677   10.6146 O   0  0  0  0  0  0  0  0  0  0  0  0
   -1.7427   10.1964    9.1352 C   0  0  0  0  0  0  0  0  0  0  0  0
   -2.9036   10.7799    8.3989 C   0  0  0  0  0  0  0  0  0  0  0  0
   -3.1954    9.6905    7.3829 C   0  0  0  0  0  0  0  0  0  0  0  0
   -0.5886    7.7763   10.9076 N   0  0  0  0  0  0  0  0  0  0  0  0
   -0.4847    7.0661   12.1766 C   0  0  2  0  0  0  0  0  0  0  0  0
   -0.4594    8.0128   13.3242 C   0  0  0  0  0  0  0  0  0  0  0  0
   -0.4909    9.3740   13.1287 O   0  0  0  0  0  0  0  0  0  0  0  0
    0.8406    6.3200   12.0757 C   0  0  0  0  0  0  0  0  0  0  0  0
    1.6017    6.9380   10.9284 C   0  0  0  0  0  0  0  0  0  0  0  0
    0.7572    8.1620   10.5652 C   0  0  0  0  0  0  0  0  0  0  0  0
   -0.4082    7.5802   14.5020 O   0  0  0  0  0  0  0  0  0  0  0  0
  2  1  1  6
  2  3  1  0
  2  5  1  0
  3  4  2  0
  3  9  1  0
  5  6  1  0
  6  7  1  1
  6  8  1  0
  9 10  1  0
 10 11  1  0
 10 13  1  6
 11 12  2  0
 11 15  1  0
 13 14  1  0
 16 15  1  6
 16 17  1  0
 16 19  1  0
 17 18  2  0
 17 22  1  0
 19 20  1  0
 19 21  1  1
 22 23  1  0
 23 24  1  0
 23 26  1  1
 24 25  2  0
 24 31  1  0
 26 27  1  0
 27 28  1  0
 28 29  2  0
 28 30  1  0
 31 32  1  0
 32 33  1  0
 32 35  1  1
 33 34  2  0
 33 39  1  0
 35 36  1  0
 36 37  1  6
 36 38  1  0
 39 40  1  0
 40 41  1  0
 40 43  1  6
 41 42  2  0
 41 45  1  0
 43 44  1  0
 46 45  1  1
 46 47  1  0
 46 54  1  0
 47 48  1  6
 47 49  1  0
 49 50  1  0
 50 51  1  6
 50 52  1  0
 50 53  2  0
 54 55  2  0
 54 56  1  0
 56 57  1  0
 57 58  1  0
 57 60  1  1
 58 59  2  0
 58 65  1  0
 60 61  1  0
 61 62  1  0
 62 63  2  0
 62 64  1  0
 65 66  1  0
 65 71  1  0
 66 67  1  1
 66 69  1  0
 67 68  2  0
 67 72  1  0
 69 70  1  0
 70 71  1  0
 72 73  1  0
 72 78  1  0
 73 74  1  1
 73 76  1  0
 74 75  1  0
 74 79  2  0
 76 77  1  0
 77 78  1  0
M  CHG  1   1   1
M  END
$$$$
