
     RDKit          3D

 79 80  0  0  0  0  0  0  0  0999 V2000
   -0.3142    6.1003   22.2594 N   0  0  0  0  0  4  0  0  0  0  0  0
   -1.3541    5.2893   21.7124 C   0  0  2  0  0  0  0  0  0  0  0  0
   -1.0716    4.9090   20.2879 C   0  0  0  0  0  0  0  0  0  0  0  0
   -0.8448    5.7976   19.4153 O   0  0  0  0  0  0  0  0  0  0  0  0
   -2.7495    5.7458   21.9009 C   0  0  0  0  0  0  0  0  0  0  0  0
   -3.7691    4.7367   22.2815 C   0  0  1  0  0  0  0  0  0  0  0  0
   -3.1998    4.0069   23.5240 C   0  0  0  0  0  0  0  0  0  0  0  0
   -5.0654    5.3365   22.7621 C   0  0  0  0  0  0  0  0  0  0  0  0
   -1.0408    3.5659   19.8302 N   0  0  0  0  0  0  0  0  0  0  0  0
   -0.6638    3.2117   18.4824 C   0  0  2  0  0  0  0  0  0  0  0  0
   -1.8267    3.4758   17.5979 C   0  0  0  0  0  0  0  0  0  0  0  0
   -2.9759    3.3387   18.0129 O   0  0  0  0  0  0  0  0  0  0  0  0
   -0.0764    1.8528   18.3345 C   0  0  0  0  0  0  0  0  0  0  0  0
    0.2661    1.5213   17.0192 O   0  0  0  0  0  0  0  0  0  0  0  0
   -1.6547    3.8982   16.2362 N   0  0  0  0  0  0  0  0  0  0  0  0
   -2.7564    4.1783   15.3660 C   0  0  2  0  0  0  0  0  0  0  0  0
   -3.5513    3.0427   14.9125 C   0  0  0  0  0  0  0  0  0  0  0  0
   -4.0220    2.2110   15.7274 O   0  0  0  0  0  0  0  0  0  0  0  0
   -2.2519    5.0674   14.2608 C   0  0  2  0  0  0  0  0  0  0  0  0
   -0.9735    4.6374   13.9174 O   0  0  0  0  0  0  0  0  0  0  0  0
   -2.1202    6.5071   14.6968 C   0  0  0  0  0  0  0  0  0  0  0  0
   -3.8664    2.7838   13.5452 N   0  0  0  0  0  0  0  0  0  0  0  0
   -4.7041    1.7238   13.1502 C   0  0  2  0  0  0  0  0  0  0  0  0
   -4.9300    1.4950   11.7179 C   0  0  0  0  0  0  0  0  0  0  0  0
   -5.2683    2.5521   11.0489 O   0  0  0  0  0  0  0  0  0  0  0  0
   -5.8611    1.3297   13.9825 C   0  0  0  0  0  0  0  0  0  0  0  0
   -6.9038    2.2961   14.3343 C   0  0  0  0  0  0  0  0  0  0  0  0
   -8.1248    1.7804   14.9658 C   0  0  0  0  0  0  0  0  0  0  0  0
   -8.2874    0.5648   15.2558 O   0  0  0  0  0  0  0  0  0  0  0  0
   -9.1339    2.6877   15.2455 O   0  0  0  0  0  0  0  0  0  0  0  0
   -4.8329    0.2877   11.0008 N   0  0  0  0  0  0  0  0  0  0  0  0
   -4.7491    0.2683    9.5861 C   0  0  2  0  0  0  0  0  0  0  0  0
   -5.9577   -0.0142    8.8155 C   0  0  0  0  0  0  0  0  0  0  0  0
   -5.6872   -0.5964    7.6820 O   0  0  0  0  0  0  0  0  0  0  0  0
   -3.6778   -0.5931    9.0092 C   0  0  0  0  0  0  0  0  0  0  0  0
   -2.5083    0.0380    8.4202 C   0  0  1  0  0  0  0  0  0  0  0  0
   -1.8294    0.8274    9.6197 C   0  0  0  0  0  0  0  0  0  0  0  0
   -1.3768   -0.7402    7.8770 C   0  0  0  0  0  0  0  0  0  0  0  0
   -7.3169    0.2304    9.0951 N   0  0  0  0  0  0  0  0  0  0  0  0
   -8.3093   -0.3633    8.2314 C   0  0  2  0  0  0  0  0  0  0  0  0
   -8.9154    0.5860    7.3187 C   0  0  0  0  0  0  0  0  0  0  0  0
   -9.8314    0.1967    6.4867 O   0  0  0  0  0  0  0  0  0  0  0  0
   -9.3442   -1.1404    9.0480 C   0  0  0  0  0  0  0  0  0  0  0  0
   -8.7508   -1.7534   10.1436 O   0  0  0  0  0  0  0  0  0  0  0  0
   -8.6470    1.9826    7.1856 N   0  0  0  0  0  0  0  0  0  0  0  0
   -9.1775    2.6951    6.0713 C   0  0  1  0  0  0  0  0  0  0  0  0
   -9.4870    4.1676    6.4490 C   0  0  1  0  0  0  0  0  0  0  0  0
  -10.9074    4.4071    6.7771 C   0  0  0  0  0  0  0  0  0  0  0  0
   -8.5718    4.4535    7.4627 O   0  0  0  0  0  0  0  0  0  0  0  0
   -8.6470    6.0357    8.0053 P   0  0  1  0  0  5  0  0  0  0  0  0
   -7.5847    6.3375    9.2843 O   0  0  0  0  0  0  0  0  0  0  0  0
   -8.4651    7.1485    6.7386 O   0  0  0  0  0  0  0  0  0  0  0  0
  -10.0451    6.2587    8.5425 O   0  0  0  0  0  0  0  0  0  0  0  0
   -8.2164    2.7949    4.9739 C   0  0  0  0  0  0  0  0  0  0  0  0
   -8.2627    3.7622    4.1199 O   0  0  0  0  0  0  0  0  0  0  0  0
   -7.1688    1.8715    4.7343 N   0  0  0  0  0  0  0  0  0  0  0  0
   -6.2648    1.9811    3.5836 C   0  0  2  0  0  0  0  0  0  0  0  0
   -6.0245    3.3844    3.2378 C   0  0  0  0  0  0  0  0  0  0  0  0
   -6.9756    4.1085    2.7443 O   0  0  0  0  0  0  0  0  0  0  0  0
   -6.9129    1.2874    2.3952 C   0  0  0  0  0  0  0  0  0  0  0  0
   -6.0275    1.2534    1.1760 C   0  0  0  0  0  0  0  0  0  0  0  0
   -6.4501    2.2852    0.1915 C   0  0  0  0  0  0  0  0  0  0  0  0
   -5.6313    2.6645   -0.6784 O   0  0  0  0  0  0  0  0  0  0  0  0
   -7.7083    2.8608    0.1751 O   0  0  0  0  0  0  0  0  0  0  0  0
   -4.7475    3.9800    3.4440 N   0  0  0  0  0  0  0  0  0  0  0  0
   -4.3687    5.3414    3.0635 C   0  0  2  0  0  0  0  0  0  0  0  0
   -4.8990    5.6979    1.7044 C   0  0  0  0  0  0  0  0  0  0  0  0
   -5.4301    4.8504    0.9774 O   0  0  0  0  0  0  0  0  0  0  0  0
   -2.8659    5.2929    3.0035 C   0  0  0  0  0  0  0  0  0  0  0  0
   -2.4000    3.9349    3.4147 C   0  0  0  0  0  0  0  0  0  0  0  0
   -3.6284    3.3964    4.1255 C   0  0  0  0  0  0  0  0  0  0  0  0
   -4.7824    7.0242    1.2690 N   0  0  0  0  0  0  0  0  0  0  0  0
   -5.0805    7.5102   -0.0728 C   0  0  2  0  0  0  0  0  0  0  0  0
   -3.8423    7.6378   -0.8879 C   0  0  0  0  0  0  0  0  0  0  0  0
   -2.6511    8.0285   -0.3219 O   0  0  0  0  0  0  0  0  0  0  0  0
   -5.7053    8.8807    0.1603 C   0  0  0  0  0  0  0  0  0  0  0  0
   -5.3841    9.2692    1.5829 C   0  0  0  0  0  0  0  0  0  0  0  0
   -4.3973    8.1871    2.0283 C   0  0  0  0  0  0  0  0  0  0  0  0
   -3.8648    7.3883   -2.1184 O   0  0  0  0  0  0  0  0  0  0  0  0
  2  1  1  6
  2  3  1  0
  2  5  1  0
  3  4  2  0
  3  9  1  0
  5  6  1  0
  6  7  1  1
  6  8  1  0
  9 10  1  0
 10 11  1  0
 10 13  1  1
 11 12  2  0
 11 15  1  0
 13 14  1  0
 16 15  1  6
 16 17  1  0
 16 19  1  0
 17 18  2  0
 17 22  1  0
 19 20  1  0
 19 21  1  1
 22 23  1  0
 23 24  1  0
 23 26  1  1
 24 25  2  0
 24 31  1  0
 26 27  1  0
 27 28  1  0
 28 29  2  0
 28 30  1  0
 31 32  1  0
 32 33  1  0
 32 35  1  1
 33 34  2  0
 33 39  1  0
 35 36  1  0
 36 37  1  1
 36 38  1  0
 39 40  1  0
 40 41  1  0
 40 43  1  1
 41 42  2  0
 41 45  1  0
 43 44  1  0
 46 45  1  1
 46 47  1  0
 46 54  1  0
 47 48  1  1
 47 49  1  0
 49 50  1  0
 50 51  1  1
 50 52  1  0
 50 53  2  0
 54 55  2  0
 54 56  1  0
 56 57  1  0
 57 58  1  0
 57 60  1  6
 58 59  2  0
 58 65  1  0
 60 61  1  0
 61 62  1  0
 62 63  2  0
 62 64  1  0
 65 66  1  0
 65 71  1  0
 66 67  1  6
 66 69  1  0
 67 68  2  0
 67 72  1  0
 69 70  1  0
 70 71  1  0
 72 73  1  0
 72 78  1  0
 73 74  1  6
 73 76  1  0
 74 75  1  0
 74 79  2  0
 76 77  1  0
 77 78  1  0
M  CHG  1   1   1
M  END
$$$$
