
     RDKit          3D

 79 80  0  0  0  0  0  0  0  0999 V2000
    0.3605   11.3246   14.2547 N   0  0  0  0  0  4  0  0  0  0  0  0
   -0.5769   10.3929   13.7149 C   0  0  2  0  0  0  0  0  0  0  0  0
   -0.5235    9.0735   14.4290 C   0  0  0  0  0  0  0  0  0  0  0  0
    0.4263    8.8066   15.2220 O   0  0  0  0  0  0  0  0  0  0  0  0
   -0.6106   10.2295   12.2442 C   0  0  0  0  0  0  0  0  0  0  0  0
   -1.7657   10.7965   11.5046 C   0  0  1  0  0  0  0  0  0  0  0  0
   -1.2029   11.9863   10.6874 C   0  0  0  0  0  0  0  0  0  0  0  0
   -2.3357    9.8658   10.4653 C   0  0  0  0  0  0  0  0  0  0  0  0
   -1.5042    8.0599   14.2699 N   0  0  0  0  0  0  0  0  0  0  0  0
   -1.4524    6.8079   14.9869 C   0  0  2  0  0  0  0  0  0  0  0  0
   -1.5686    5.7083   13.9960 C   0  0  0  0  0  0  0  0  0  0  0  0
   -2.1356    5.8890   12.9202 O   0  0  0  0  0  0  0  0  0  0  0  0
   -2.3966    6.7043   16.1321 C   0  0  0  0  0  0  0  0  0  0  0  0
   -2.2821    5.5137   16.8576 O   0  0  0  0  0  0  0  0  0  0  0  0
   -1.0272    4.4036   14.2543 N   0  0  0  0  0  0  0  0  0  0  0  0
   -1.3449    3.2597   13.4543 C   0  0  2  0  0  0  0  0  0  0  0  0
   -2.3600    3.4317   12.4211 C   0  0  0  0  0  0  0  0  0  0  0  0
   -2.7969    4.5704   12.1214 O   0  0  0  0  0  0  0  0  0  0  0  0
   -1.5937    2.1041   14.3866 C   0  0  2  0  0  0  0  0  0  0  0  0
   -2.7717    2.3625   15.0813 O   0  0  0  0  0  0  0  0  0  0  0  0
   -0.5051    1.9575   15.4227 C   0  0  0  0  0  0  0  0  0  0  0  0
   -2.9264    2.3578   11.6717 N   0  0  0  0  0  0  0  0  0  0  0  0
   -3.9150    2.5600   10.6902 C   0  0  2  0  0  0  0  0  0  0  0  0
   -4.6396    1.3968   10.1641 C   0  0  0  0  0  0  0  0  0  0  0  0
   -5.3520    1.6364    9.1085 O   0  0  0  0  0  0  0  0  0  0  0  0
   -3.7764    3.6459    9.6962 C   0  0  0  0  0  0  0  0  0  0  0  0
   -2.7449    3.5935    8.6576 C   0  0  0  0  0  0  0  0  0  0  0  0
   -1.6530    4.5719    8.7328 C   0  0  0  0  0  0  0  0  0  0  0  0
   -0.6634    4.5582    7.9526 O   0  0  0  0  0  0  0  0  0  0  0  0
   -1.7317    5.5458    9.7152 O   0  0  0  0  0  0  0  0  0  0  0  0
   -4.6588    0.0812   10.6640 N   0  0  0  0  0  0  0  0  0  0  0  0
   -5.8250   -0.7218   10.5986 C   0  0  2  0  0  0  0  0  0  0  0  0
   -7.1299   -0.0737   10.7049 C   0  0  0  0  0  0  0  0  0  0  0  0
   -7.6206    0.2272    9.5363 O   0  0  0  0  0  0  0  0  0  0  0  0
   -5.8642   -1.8892   11.5249 C   0  0  0  0  0  0  0  0  0  0  0  0
   -5.7295   -3.2282   10.9756 C   0  0  1  0  0  0  0  0  0  0  0  0
   -4.3202   -3.2233   10.2429 C   0  0  0  0  0  0  0  0  0  0  0  0
   -5.6345   -4.4294   11.8294 C   0  0  0  0  0  0  0  0  0  0  0  0
   -7.9131    0.2608   11.8276 N   0  0  0  0  0  0  0  0  0  0  0  0
   -9.2981    0.6070   11.6152 C   0  0  2  0  0  0  0  0  0  0  0  0
   -9.4775    1.7104   10.6922 C   0  0  0  0  0  0  0  0  0  0  0  0
  -10.6422    1.9405   10.1697 O   0  0  0  0  0  0  0  0  0  0  0  0
  -10.0119    0.8320   12.9499 C   0  0  0  0  0  0  0  0  0  0  0  0
   -9.6598    2.0582   13.4986 O   0  0  0  0  0  0  0  0  0  0  0  0
   -8.5051    2.6539   10.2395 N   0  0  0  0  0  0  0  0  0  0  0  0
   -8.9095    3.7236    9.3893 C   0  0  1  0  0  0  0  0  0  0  0  0
   -9.5040    4.8953   10.2142 C   0  0  1  0  0  0  0  0  0  0  0  0
  -10.4694    4.4617   11.2450 C   0  0  0  0  0  0  0  0  0  0  0  0
   -8.3816    5.5801   10.6815 O   0  0  0  0  0  0  0  0  0  0  0  0
   -8.3706    5.7920   12.3422 P   0  0  1  0  0  5  0  0  0  0  0  0
   -9.6489    6.7547   12.8851 O   0  0  0  0  0  0  0  0  0  0  0  0
   -8.2795    4.3138   13.1684 O   0  0  0  0  0  0  0  0  0  0  0  0
   -7.0950    6.5299   12.6909 O   0  0  0  0  0  0  0  0  0  0  0  0
   -7.7794    4.3169    8.6760 C   0  0  0  0  0  0  0  0  0  0  0  0
   -6.7854    4.8480    9.3060 O   0  0  0  0  0  0  0  0  0  0  0  0
   -7.6582    4.3750    7.2655 N   0  0  0  0  0  0  0  0  0  0  0  0
   -6.3702    4.5665    6.5890 C   0  0  2  0  0  0  0  0  0  0  0  0
   -6.4948    4.3303    5.1483 C   0  0  0  0  0  0  0  0  0  0  0  0
   -6.7134    3.1380    4.6977 O   0  0  0  0  0  0  0  0  0  0  0  0
   -5.3725    3.5730    7.1641 C   0  0  0  0  0  0  0  0  0  0  0  0
   -5.8946    2.1594    7.1904 C   0  0  0  0  0  0  0  0  0  0  0  0
   -4.8908    1.2401    7.7902 C   0  0  0  0  0  0  0  0  0  0  0  0
   -4.2466    0.4719    7.0379 O   0  0  0  0  0  0  0  0  0  0  0  0
   -4.6192    1.1790    9.1456 O   0  0  0  0  0  0  0  0  0  0  0  0
   -6.3865    5.4041    4.2191 N   0  0  0  0  0  0  0  0  0  0  0  0
   -6.5208    5.2928    2.7662 C   0  0  2  0  0  0  0  0  0  0  0  0
   -5.8155    4.0746    2.2426 C   0  0  0  0  0  0  0  0  0  0  0  0
   -4.8632    3.5708    2.8494 O   0  0  0  0  0  0  0  0  0  0  0  0
   -5.8243    6.5211    2.2458 C   0  0  0  0  0  0  0  0  0  0  0  0
   -5.3635    7.3516    3.3982 C   0  0  0  0  0  0  0  0  0  0  0  0
   -6.2070    6.7929    4.5298 C   0  0  0  0  0  0  0  0  0  0  0  0
   -6.2614    3.5099    1.0408 N   0  0  0  0  0  0  0  0  0  0  0  0
   -5.6681    2.3612    0.3669 C   0  0  2  0  0  0  0  0  0  0  0  0
   -4.7572    2.7897   -0.7286 C   0  0  0  0  0  0  0  0  0  0  0  0
   -4.7635    4.0822   -1.1990 O   0  0  0  0  0  0  0  0  0  0  0  0
   -6.8644    1.6077   -0.2025 C   0  0  0  0  0  0  0  0  0  0  0  0
   -8.0378    2.5558   -0.1572 C   0  0  0  0  0  0  0  0  0  0  0  0
   -7.3974    3.8886    0.2387 C   0  0  0  0  0  0  0  0  0  0  0  0
   -3.9597    1.9698   -1.2471 O   0  0  0  0  0  0  0  0  0  0  0  0
  2  1  1  6
  2  3  1  0
  2  5  1  0
  3  4  2  0
  3  9  1  0
  5  6  1  0
  6  7  1  6
  6  8  1  0
  9 10  1  0
 10 11  1  0
 10 13  1  1
 11 12  2  0
 11 15  1  0
 13 14  1  0
 16 15  1  1
 16 17  1  0
 16 19  1  0
 17 18  2  0
 17 22  1  0
 19 20  1  0
 19 21  1  1
 22 23  1  0
 23 24  1  0
 23 26  1  6
 24 25  2  0
 24 31  1  0
 26 27  1  0
 27 28  1  0
 28 29  2  0
 28 30  1  0
 31 32  1  0
 32 33  1  0
 32 35  1  1
 33 34  2  0
 33 39  1  0
 35 36  1  0
 36 37  1  1
 36 38  1  0
 39 40  1  0
 40 41  1  0
 40 43  1  1
 41 42  2  0
 41 45  1  0
 43 44  1  0
 46 45  1  1
 46 47  1  0
 46 54  1  0
 47 48  1  1
 47 49  1  0
 49 50  1  0
 50 51  1  1
 50 52  1  0
 50 53  2  0
 54 55  2  0
 54 56  1  0
 56 57  1  0
 57 58  1  0
 57 60  1  1
 58 59  2  0
 58 65  1  0
 60 61  1  0
 61 62  1  0
 62 63  2  0
 62 64  1  0
 65 66  1  0
 65 71  1  0
 66 67  1  6
 66 69  1  0
 67 68  2  0
 67 72  1  0
 69 70  1  0
 70 71  1  0
 72 73  1  0
 72 78  1  0
 73 74  1  6
 73 76  1  0
 74 75  1  0
 74 79  2  0
 76 77  1  0
 77 78  1  0
M  CHG  1   1   1
M  END
$$$$
