
     RDKit          3D

 79 80  0  0  0  0  0  0  0  0999 V2000
  -11.6226   -2.5825   20.3193 N   0  0  0  0  0  4  0  0  0  0  0  0
  -10.2446   -2.2662   20.1210 C   0  0  2  0  0  0  0  0  0  0  0  0
   -9.9019   -2.1635   18.6631 C   0  0  0  0  0  0  0  0  0  0  0  0
   -9.2361   -3.0752   18.0906 O   0  0  0  0  0  0  0  0  0  0  0  0
   -9.2452   -3.0570   20.8738 C   0  0  0  0  0  0  0  0  0  0  0  0
   -8.6903   -2.4754   22.1215 C   0  0  1  0  0  0  0  0  0  0  0  0
   -9.6447   -2.9209   23.2577 C   0  0  0  0  0  0  0  0  0  0  0  0
   -7.3515   -3.0462   22.5129 C   0  0  0  0  0  0  0  0  0  0  0  0
  -10.2872   -1.0686   17.8461 N   0  0  0  0  0  0  0  0  0  0  0  0
  -10.3519   -1.1570   16.4066 C   0  0  2  0  0  0  0  0  0  0  0  0
  -10.4060    0.2247   15.8657 C   0  0  0  0  0  0  0  0  0  0  0  0
  -11.4370    0.6606   15.3571 O   0  0  0  0  0  0  0  0  0  0  0  0
  -11.4098   -2.0628   15.8832 C   0  0  0  0  0  0  0  0  0  0  0  0
  -11.2301   -3.4065   16.2287 O   0  0  0  0  0  0  0  0  0  0  0  0
   -9.2662    1.0967   15.9160 N   0  0  0  0  0  0  0  0  0  0  0  0
   -9.2504    2.3888   15.2999 C   0  0  2  0  0  0  0  0  0  0  0  0
   -9.8851    2.5101   13.9923 C   0  0  0  0  0  0  0  0  0  0  0  0
  -11.1284    2.3924   13.8591 O   0  0  0  0  0  0  0  0  0  0  0  0
   -7.8377    2.9060   15.3577 C   0  0  2  0  0  0  0  0  0  0  0  0
   -7.0867    2.2009   14.4217 O   0  0  0  0  0  0  0  0  0  0  0  0
   -7.1916    2.6629   16.7006 C   0  0  0  0  0  0  0  0  0  0  0  0
   -9.1767    2.7748   12.7824 N   0  0  0  0  0  0  0  0  0  0  0  0
   -9.7934    3.3521   11.6564 C   0  0  2  0  0  0  0  0  0  0  0  0
   -8.9511    3.8176   10.5479 C   0  0  0  0  0  0  0  0  0  0  0  0
   -7.9222    3.0696   10.3003 O   0  0  0  0  0  0  0  0  0  0  0  0
  -11.0363    4.1400   11.8012 C   0  0  0  0  0  0  0  0  0  0  0  0
  -11.7643    4.6269   10.6272 C   0  0  0  0  0  0  0  0  0  0  0  0
  -12.8664    3.8009   10.1189 C   0  0  0  0  0  0  0  0  0  0  0  0
  -14.0404    4.2355    9.9741 O   0  0  0  0  0  0  0  0  0  0  0  0
  -12.5826    2.4849    9.7912 O   0  0  0  0  0  0  0  0  0  0  0  0
   -9.1198    4.9604    9.7437 N   0  0  0  0  0  0  0  0  0  0  0  0
   -8.1473    5.3466    8.7877 C   0  0  2  0  0  0  0  0  0  0  0  0
   -6.7840    5.6109    9.2411 C   0  0  0  0  0  0  0  0  0  0  0  0
   -6.4973    6.8812    9.2067 O   0  0  0  0  0  0  0  0  0  0  0  0
   -8.5201    6.4883    7.9046 C   0  0  0  0  0  0  0  0  0  0  0  0
   -7.5054    7.0720    7.0429 C   0  0  1  0  0  0  0  0  0  0  0  0
   -8.2859    8.1469    6.1721 C   0  0  0  0  0  0  0  0  0  0  0  0
   -6.3736    7.8593    7.5720 C   0  0  0  0  0  0  0  0  0  0  0  0
   -5.7708    4.7436    9.6959 N   0  0  0  0  0  0  0  0  0  0  0  0
   -4.4182    5.2439    9.7525 C   0  0  2  0  0  0  0  0  0  0  0  0
   -4.0519    6.0361    8.5950 C   0  0  0  0  0  0  0  0  0  0  0  0
   -4.6268    5.8242    7.4516 O   0  0  0  0  0  0  0  0  0  0  0  0
   -3.4305    4.1078   10.0267 C   0  0  0  0  0  0  0  0  0  0  0  0
   -2.1203    4.5610    9.9455 O   0  0  0  0  0  0  0  0  0  0  0  0
   -3.0930    7.0916    8.5109 N   0  0  0  0  0  0  0  0  0  0  0  0
   -2.8324    7.7029    7.2503 C   0  0  1  0  0  0  0  0  0  0  0  0
   -2.1279    9.0731    7.4318 C   0  0  1  0  0  0  0  0  0  0  0  0
   -2.2676    9.9682    6.2647 C   0  0  0  0  0  0  0  0  0  0  0  0
   -2.6416    9.5579    8.6351 O   0  0  0  0  0  0  0  0  0  0  0  0
   -1.8151   10.8877    9.2281 P   0  0  1  0  0  5  0  0  0  0  0  0
   -1.7247   12.1511    8.1095 O   0  0  0  0  0  0  0  0  0  0  0  0
   -2.4247   11.3950   10.7271 O   0  0  0  0  0  0  0  0  0  0  0  0
   -0.3920   10.4463    9.4981 O   0  0  0  0  0  0  0  0  0  0  0  0
   -1.9010    6.9189    6.4407 C   0  0  0  0  0  0  0  0  0  0  0  0
   -1.6663    7.2119    5.2053 O   0  0  0  0  0  0  0  0  0  0  0  0
   -1.1827    5.7897    6.9060 N   0  0  0  0  0  0  0  0  0  0  0  0
   -0.2488    5.0407    6.0574 C   0  0  2  0  0  0  0  0  0  0  0  0
   -0.9395    3.9662    5.3396 C   0  0  0  0  0  0  0  0  0  0  0  0
   -2.1137    3.5771    5.7170 O   0  0  0  0  0  0  0  0  0  0  0  0
    0.8221    4.4272    6.9460 C   0  0  0  0  0  0  0  0  0  0  0  0
    0.3632    3.1729    7.6445 C   0  0  0  0  0  0  0  0  0  0  0  0
    0.0047    3.4611    9.0590 C   0  0  0  0  0  0  0  0  0  0  0  0
   -0.9546    4.2321    9.2964 O   0  0  0  0  0  0  0  0  0  0  0  0
    0.6730    2.9237   10.1450 O   0  0  0  0  0  0  0  0  0  0  0  0
   -0.3392    3.3363    4.2123 N   0  0  0  0  0  0  0  0  0  0  0  0
   -0.9917    2.3734    3.3243 C   0  0  2  0  0  0  0  0  0  0  0  0
   -1.8157    1.3851    4.0987 C   0  0  0  0  0  0  0  0  0  0  0  0
   -2.2278    1.6409    5.2360 O   0  0  0  0  0  0  0  0  0  0  0  0
    0.1560    1.6486    2.6746 C   0  0  0  0  0  0  0  0  0  0  0  0
    1.4430    2.2460    3.1405 C   0  0  0  0  0  0  0  0  0  0  0  0
    0.9746    3.5808    3.6912 C   0  0  0  0  0  0  0  0  0  0  0  0
   -2.1155    0.1534    3.5027 N   0  0  0  0  0  0  0  0  0  0  0  0
   -2.9592   -0.8882    4.0761 C   0  0  2  0  0  0  0  0  0  0  0  0
   -2.1418   -1.9459    4.7293 C   0  0  0  0  0  0  0  0  0  0  0  0
   -2.6328   -2.6795    5.7841 O   0  0  0  0  0  0  0  0  0  0  0  0
   -3.7069   -1.4604    2.8775 C   0  0  0  0  0  0  0  0  0  0  0  0
   -2.9787   -0.9864    1.6435 C   0  0  0  0  0  0  0  0  0  0  0  0
   -1.7123   -0.3394    2.2096 C   0  0  0  0  0  0  0  0  0  0  0  0
   -0.9782   -2.1887    4.3241 O   0  0  0  0  0  0  0  0  0  0  0  0
  2  1  1  6
  2  3  1  0
  2  5  1  0
  3  4  2  0
  3  9  1  0
  5  6  1  0
  6  7  1  1
  6  8  1  0
  9 10  1  0
 10 11  1  0
 10 13  1  1
 11 12  2  0
 11 15  1  0
 13 14  1  0
 16 15  1  6
 16 17  1  0
 16 19  1  0
 17 18  2  0
 17 22  1  0
 19 20  1  0
 19 21  1  1
 22 23  1  0
 23 24  1  0
 23 26  1  1
 24 25  2  0
 24 31  1  0
 26 27  1  0
 27 28  1  0
 28 29  2  0
 28 30  1  0
 31 32  1  0
 32 33  1  0
 32 35  1  1
 33 34  2  0
 33 39  1  0
 35 36  1  0
 36 37  1  6
 36 38  1  0
 39 40  1  0
 40 41  1  0
 40 43  1  6
 41 42  2  0
 41 45  1  0
 43 44  1  0
 46 45  1  1
 46 47  1  0
 46 54  1  0
 47 48  1  6
 47 49  1  0
 49 50  1  0
 50 51  1  6
 50 52  1  0
 50 53  2  0
 54 55  2  0
 54 56  1  0
 56 57  1  0
 57 58  1  0
 57 60  1  1
 58 59  2  0
 58 65  1  0
 60 61  1  0
 61 62  1  0
 62 63  2  0
 62 64  1  0
 65 66  1  0
 65 71  1  0
 66 67  1  1
 66 69  1  0
 67 68  2  0
 67 72  1  0
 69 70  1  0
 70 71  1  0
 72 73  1  0
 72 78  1  0
 73 74  1  6
 73 76  1  0
 74 75  1  0
 74 79  2  0
 76 77  1  0
 77 78  1  0
M  CHG  1   1   1
M  END
$$$$
