
     RDKit          3D

 79 80  0  0  0  0  0  0  0  0999 V2000
  -10.2486   -9.9647   13.0791 N   0  0  0  0  0  4  0  0  0  0  0  0
   -9.3817   -8.8320   13.1403 C   0  0  2  0  0  0  0  0  0  0  0  0
   -9.8837   -7.7011   12.2901 C   0  0  0  0  0  0  0  0  0  0  0  0
  -10.9007   -7.8508   11.5516 O   0  0  0  0  0  0  0  0  0  0  0  0
   -7.9324   -9.0680   12.9544 C   0  0  0  0  0  0  0  0  0  0  0  0
   -7.3500  -10.3131   13.5142 C   0  0  1  0  0  0  0  0  0  0  0  0
   -5.8538  -10.2989   13.1124 C   0  0  0  0  0  0  0  0  0  0  0  0
   -7.3319  -10.3497   15.0207 C   0  0  0  0  0  0  0  0  0  0  0  0
   -9.2713   -6.4212   12.2533 N   0  0  0  0  0  0  0  0  0  0  0  0
   -9.8175   -5.3190   11.4976 C   0  0  2  0  0  0  0  0  0  0  0  0
   -8.8751   -4.1770   11.6085 C   0  0  0  0  0  0  0  0  0  0  0  0
   -8.4743   -3.7972   12.7070 O   0  0  0  0  0  0  0  0  0  0  0  0
  -11.2308   -4.9816   11.8175 C   0  0  0  0  0  0  0  0  0  0  0  0
  -11.5406   -3.6260   11.6646 O   0  0  0  0  0  0  0  0  0  0  0  0
   -8.3998   -3.4793   10.4469 N   0  0  0  0  0  0  0  0  0  0  0  0
   -7.6389   -2.2693   10.5262 C   0  0  2  0  0  0  0  0  0  0  0  0
   -7.7753   -1.4763   11.7427 C   0  0  0  0  0  0  0  0  0  0  0  0
   -7.6866   -2.0059   12.8781 O   0  0  0  0  0  0  0  0  0  0  0  0
   -7.8673   -1.5007    9.2520 C   0  0  2  0  0  0  0  0  0  0  0  0
   -8.9772   -0.6824    9.4406 O   0  0  0  0  0  0  0  0  0  0  0  0
   -8.1907   -2.4045    8.0864 C   0  0  0  0  0  0  0  0  0  0  0  0
   -8.0054   -0.0682   11.7563 N   0  0  0  0  0  0  0  0  0  0  0  0
   -7.8654    0.7093   12.9214 C   0  0  2  0  0  0  0  0  0  0  0  0
   -8.1663    2.1446   12.8559 C   0  0  0  0  0  0  0  0  0  0  0  0
   -9.3642    2.4273   12.4504 O   0  0  0  0  0  0  0  0  0  0  0  0
   -6.8221    0.3879   13.9188 C   0  0  0  0  0  0  0  0  0  0  0  0
   -6.6480    1.2055   15.1215 C   0  0  0  0  0  0  0  0  0  0  0  0
   -7.2150    0.6984   16.3772 C   0  0  0  0  0  0  0  0  0  0  0  0
   -7.6318   -0.4829   16.5152 O   0  0  0  0  0  0  0  0  0  0  0  0
   -7.2886    1.5754   17.4474 O   0  0  0  0  0  0  0  0  0  0  0  0
   -7.3235    3.2282   13.1668 N   0  0  0  0  0  0  0  0  0  0  0  0
   -7.7923    4.5655   13.1413 C   0  0  2  0  0  0  0  0  0  0  0  0
   -6.8531    5.6441   13.4390 C   0  0  0  0  0  0  0  0  0  0  0  0
   -6.9939    6.0904   14.6548 O   0  0  0  0  0  0  0  0  0  0  0  0
   -9.0134    4.8428   13.9503 C   0  0  0  0  0  0  0  0  0  0  0  0
   -9.4181    6.2226   14.1632 C   0  0  1  0  0  0  0  0  0  0  0  0
   -9.7799    6.7646   12.7148 C   0  0  0  0  0  0  0  0  0  0  0  0
  -10.6191    6.5851   14.9425 C   0  0  0  0  0  0  0  0  0  0  0  0
   -5.8552    6.2518   12.6513 N   0  0  0  0  0  0  0  0  0  0  0  0
   -4.4831    5.8576   12.8641 C   0  0  2  0  0  0  0  0  0  0  0  0
   -4.1942    4.5155   12.3984 C   0  0  0  0  0  0  0  0  0  0  0  0
   -3.7215    3.6285   13.2184 O   0  0  0  0  0  0  0  0  0  0  0  0
   -4.0755    6.0768   14.3226 C   0  0  0  0  0  0  0  0  0  0  0  0
   -4.7016    7.1995   14.8478 O   0  0  0  0  0  0  0  0  0  0  0  0
   -4.3653    3.9767   11.0865 N   0  0  0  0  0  0  0  0  0  0  0  0
   -3.3031    3.2389   10.4880 C   0  0  1  0  0  0  0  0  0  0  0  0
   -3.8536    2.0822    9.6130 C   0  0  1  0  0  0  0  0  0  0  0  0
   -4.0476    0.8202   10.3562 C   0  0  0  0  0  0  0  0  0  0  0  0
   -4.9967    2.6225    9.0227 O   0  0  0  0  0  0  0  0  0  0  0  0
   -5.8421    1.5294    8.0775 P   0  0  1  0  0  5  0  0  0  0  0  0
   -5.1818   -0.0252    8.1300 O   0  0  0  0  0  0  0  0  0  0  0  0
   -7.5009    1.5385    8.4295 O   0  0  0  0  0  0  0  0  0  0  0  0
   -5.7302    1.9985    6.6421 O   0  0  0  0  0  0  0  0  0  0  0  0
   -2.5198    4.0552    9.5617 C   0  0  0  0  0  0  0  0  0  0  0  0
   -1.7131    3.5221    8.7062 O   0  0  0  0  0  0  0  0  0  0  0  0
   -2.5565    5.4705    9.5067 N   0  0  0  0  0  0  0  0  0  0  0  0
   -1.7351    6.2480    8.5718 C   0  0  2  0  0  0  0  0  0  0  0  0
   -1.3365    7.5276    9.1636 C   0  0  0  0  0  0  0  0  0  0  0  0
   -2.2320    8.3844    9.5331 O   0  0  0  0  0  0  0  0  0  0  0  0
   -2.5573    6.5210    7.3217 C   0  0  0  0  0  0  0  0  0  0  0  0
   -1.8115    7.3253    6.2879 C   0  0  0  0  0  0  0  0  0  0  0  0
   -2.6906    7.6338    5.1285 C   0  0  0  0  0  0  0  0  0  0  0  0
   -2.4472    7.0956    4.0230 O   0  0  0  0  0  0  0  0  0  0  0  0
   -3.7760    8.4895    5.1944 O   0  0  0  0  0  0  0  0  0  0  0  0
    0.0379    7.8502    9.3510 N   0  0  0  0  0  0  0  0  0  0  0  0
    0.5524    8.9665   10.1451 C   0  0  2  0  0  0  0  0  0  0  0  0
   -0.2521   10.2147    9.9211 C   0  0  0  0  0  0  0  0  0  0  0  0
   -1.2171   10.2292    9.1482 O   0  0  0  0  0  0  0  0  0  0  0  0
    1.9421    9.1790    9.6083 C   0  0  0  0  0  0  0  0  0  0  0  0
    2.2323    8.1460    8.5695 C   0  0  0  0  0  0  0  0  0  0  0  0
    1.1669    7.1074    8.8703 C   0  0  0  0  0  0  0  0  0  0  0  0
    0.1122   11.3770   10.6129 N   0  0  0  0  0  0  0  0  0  0  0  0
   -0.5777   12.6597   10.5472 C   0  0  2  0  0  0  0  0  0  0  0  0
    0.0970   13.5873    9.5996 C   0  0  0  0  0  0  0  0  0  0  0  0
    1.4158   13.4158    9.2484 O   0  0  0  0  0  0  0  0  0  0  0  0
   -0.4912   13.1997   11.9698 C   0  0  0  0  0  0  0  0  0  0  0  0
    0.5653   12.3888   12.6797 C   0  0  0  0  0  0  0  0  0  0  0  0
    1.1889   11.5611   11.5531 C   0  0  0  0  0  0  0  0  0  0  0  0
   -0.5329   14.5519    9.0998 O   0  0  0  0  0  0  0  0  0  0  0  0
  2  1  1  6
  2  3  1  0
  2  5  1  0
  3  4  2  0
  3  9  1  0
  5  6  1  0
  6  7  1  6
  6  8  1  0
  9 10  1  0
 10 11  1  0
 10 13  1  1
 11 12  2  0
 11 15  1  0
 13 14  1  0
 16 15  1  1
 16 17  1  0
 16 19  1  0
 17 18  2  0
 17 22  1  0
 19 20  1  0
 19 21  1  6
 22 23  1  0
 23 24  1  0
 23 26  1  6
 24 25  2  0
 24 31  1  0
 26 27  1  0
 27 28  1  0
 28 29  2  0
 28 30  1  0
 31 32  1  0
 32 33  1  0
 32 35  1  1
 33 34  2  0
 33 39  1  0
 35 36  1  0
 36 37  1  6
 36 38  1  0
 39 40  1  0
 40 41  1  0
 40 43  1  1
 41 42  2  0
 41 45  1  0
 43 44  1  0
 46 45  1  6
 46 47  1  0
 46 54  1  0
 47 48  1  1
 47 49  1  0
 49 50  1  0
 50 51  1  6
 50 52  1  0
 50 53  2  0
 54 55  2  0
 54 56  1  0
 56 57  1  0
 57 58  1  0
 57 60  1  6
 58 59  2  0
 58 65  1  0
 60 61  1  0
 61 62  1  0
 62 63  2  0
 62 64  1  0
 65 66  1  0
 65 71  1  0
 66 67  1  6
 66 69  1  0
 67 68  2  0
 67 72  1  0
 69 70  1  0
 70 71  1  0
 72 73  1  0
 72 78  1  0
 73 74  1  6
 73 76  1  0
 74 75  1  0
 74 79  2  0
 76 77  1  0
 77 78  1  0
M  CHG  1   1   1
M  END
$$$$
