
     RDKit          3D

 79 80  0  0  0  0  0  0  0  0999 V2000
  -13.2677   -4.5636   13.9970 N   0  0  0  0  0  4  0  0  0  0  0  0
  -12.5024   -4.6790   12.7973 C   0  0  2  0  0  0  0  0  0  0  0  0
  -11.0420   -4.4335   13.0437 C   0  0  0  0  0  0  0  0  0  0  0  0
  -10.4634   -4.9376   14.0504 O   0  0  0  0  0  0  0  0  0  0  0  0
  -12.9938   -3.9610   11.5998 C   0  0  0  0  0  0  0  0  0  0  0  0
  -14.2444   -4.4418   10.9614 C   0  0  1  0  0  0  0  0  0  0  0  0
  -14.4133   -5.9134   11.4155 C   0  0  0  0  0  0  0  0  0  0  0  0
  -15.4858   -3.7509   11.4640 C   0  0  0  0  0  0  0  0  0  0  0  0
  -10.2294   -3.6408   12.1917 N   0  0  0  0  0  0  0  0  0  0  0  0
   -8.8544   -3.3266   12.4996 C   0  0  2  0  0  0  0  0  0  0  0  0
   -8.5863   -1.9425   12.0339 C   0  0  0  0  0  0  0  0  0  0  0  0
   -9.1601   -1.4898   11.0453 O   0  0  0  0  0  0  0  0  0  0  0  0
   -7.8637   -4.3338   12.0329 C   0  0  0  0  0  0  0  0  0  0  0  0
   -8.1341   -5.6380   12.4605 O   0  0  0  0  0  0  0  0  0  0  0  0
   -7.6551   -1.0875   12.7150 N   0  0  0  0  0  0  0  0  0  0  0  0
   -6.7401   -0.2306   12.0236 C   0  0  2  0  0  0  0  0  0  0  0  0
   -6.7562   -0.2782   10.5660 C   0  0  0  0  0  0  0  0  0  0  0  0
   -6.0002   -1.0552    9.9319 O   0  0  0  0  0  0  0  0  0  0  0  0
   -5.3795   -0.4227   12.6388 C   0  0  2  0  0  0  0  0  0  0  0  0
   -4.8073   -1.5537   12.0640 O   0  0  0  0  0  0  0  0  0  0  0  0
   -5.4526   -0.6836   14.1243 C   0  0  0  0  0  0  0  0  0  0  0  0
   -7.6116    0.5212    9.7504 N   0  0  0  0  0  0  0  0  0  0  0  0
   -7.3847    0.7087    8.3739 C   0  0  2  0  0  0  0  0  0  0  0  0
   -6.0018    0.7935    7.8888 C   0  0  0  0  0  0  0  0  0  0  0  0
   -5.6986   -0.0669    6.9683 O   0  0  0  0  0  0  0  0  0  0  0  0
   -8.3275    1.5037    7.5580 C   0  0  0  0  0  0  0  0  0  0  0  0
   -9.6286    1.9142    8.0907 C   0  0  0  0  0  0  0  0  0  0  0  0
  -10.5121    2.6869    7.2088 C   0  0  0  0  0  0  0  0  0  0  0  0
  -11.6561    3.0832    7.5586 O   0  0  0  0  0  0  0  0  0  0  0  0
  -10.0492    2.9817    5.9365 O   0  0  0  0  0  0  0  0  0  0  0  0
   -4.9846    1.6744    8.3013 N   0  0  0  0  0  0  0  0  0  0  0  0
   -3.8873    1.9885    7.4609 C   0  0  2  0  0  0  0  0  0  0  0  0
   -3.8540    3.2957    6.8096 C   0  0  0  0  0  0  0  0  0  0  0  0
   -2.7484    3.4809    6.1460 O   0  0  0  0  0  0  0  0  0  0  0  0
   -3.5718    0.9884    6.4014 C   0  0  0  0  0  0  0  0  0  0  0  0
   -2.3011    1.0817    5.7015 C   0  0  1  0  0  0  0  0  0  0  0  0
   -2.2654   -0.1962    4.7590 C   0  0  0  0  0  0  0  0  0  0  0  0
   -1.9945    2.1756    4.7580 C   0  0  0  0  0  0  0  0  0  0  0  0
   -4.7936    4.3455    6.7834 N   0  0  0  0  0  0  0  0  0  0  0  0
   -4.4210    5.5793    6.1335 C   0  0  2  0  0  0  0  0  0  0  0  0
   -3.3277    6.2661    6.7926 C   0  0  0  0  0  0  0  0  0  0  0  0
   -2.5239    5.6129    7.5737 O   0  0  0  0  0  0  0  0  0  0  0  0
   -5.6441    6.4760    5.9298 C   0  0  0  0  0  0  0  0  0  0  0  0
   -6.8186    5.7670    6.1446 O   0  0  0  0  0  0  0  0  0  0  0  0
   -2.9679    7.6458    6.7071 N   0  0  0  0  0  0  0  0  0  0  0  0
   -2.0257    8.1829    7.6316 C   0  0  1  0  0  0  0  0  0  0  0  0
   -1.5233    9.5754    7.1677 C   0  0  1  0  0  0  0  0  0  0  0  0
   -0.8813    9.5586    5.8372 C   0  0  0  0  0  0  0  0  0  0  0  0
   -2.6455   10.3954    7.2912 O   0  0  0  0  0  0  0  0  0  0  0  0
   -2.2739   12.0223    7.4265 P   0  0  1  0  0  5  0  0  0  0  0  0
   -3.6290   13.0171    7.2544 O   0  0  0  0  0  0  0  0  0  0  0  0
   -1.4029   12.3569    8.8426 O   0  0  0  0  0  0  0  0  0  0  0  0
   -1.3387   12.3642    6.2856 O   0  0  0  0  0  0  0  0  0  0  0  0
   -2.6215    8.4293    8.9439 C   0  0  0  0  0  0  0  0  0  0  0  0
   -3.8870    8.2789    9.1512 O   0  0  0  0  0  0  0  0  0  0  0  0
   -1.9011    8.8488   10.0895 N   0  0  0  0  0  0  0  0  0  0  0  0
   -2.4689    8.8039   11.4419 C   0  0  2  0  0  0  0  0  0  0  0  0
   -1.6168    8.0227   12.3422 C   0  0  0  0  0  0  0  0  0  0  0  0
   -1.6536    6.7302   12.3197 O   0  0  0  0  0  0  0  0  0  0  0  0
   -3.8375    8.1447   11.3673 C   0  0  0  0  0  0  0  0  0  0  0  0
   -4.2531    7.4974   12.6634 C   0  0  0  0  0  0  0  0  0  0  0  0
   -5.0773    8.4316   13.4760 C   0  0  0  0  0  0  0  0  0  0  0  0
   -5.2484    9.6033   13.0650 O   0  0  0  0  0  0  0  0  0  0  0  0
   -5.6759    8.0837   14.6740 O   0  0  0  0  0  0  0  0  0  0  0  0
   -0.7291    8.6664   13.2509 N   0  0  0  0  0  0  0  0  0  0  0  0
    0.0074    8.0123   14.3330 C   0  0  2  0  0  0  0  0  0  0  0  0
   -0.8530    7.0177   15.0582 C   0  0  0  0  0  0  0  0  0  0  0  0
   -2.0595    7.2200   15.2383 O   0  0  0  0  0  0  0  0  0  0  0  0
    0.3457    9.1399   15.2704 C   0  0  0  0  0  0  0  0  0  0  0  0
   -0.1354   10.4273   14.6863 C   0  0  0  0  0  0  0  0  0  0  0  0
   -0.3308   10.0443   13.2305 C   0  0  0  0  0  0  0  0  0  0  0  0
   -0.2590    5.8408   15.5318 N   0  0  0  0  0  0  0  0  0  0  0  0
   -0.9427    4.7672   16.2427 C   0  0  2  0  0  0  0  0  0  0  0  0
   -0.7520    4.8872   17.7134 C   0  0  0  0  0  0  0  0  0  0  0  0
   -0.3060    6.0569   18.2833 O   0  0  0  0  0  0  0  0  0  0  0  0
   -0.2779    3.4976   15.7238 C   0  0  0  0  0  0  0  0  0  0  0  0
    0.9981    3.9230   15.0394 C   0  0  0  0  0  0  0  0  0  0  0  0
    1.1088    5.4080   15.3940 C   0  0  0  0  0  0  0  0  0  0  0  0
   -0.9976    3.9124   18.4661 O   0  0  0  0  0  0  0  0  0  0  0  0
  2  1  1  1
  2  3  1  0
  2  5  1  0
  3  4  2  0
  3  9  1  0
  5  6  1  0
  6  7  1  1
  6  8  1  0
  9 10  1  0
 10 11  1  0
 10 13  1  6
 11 12  2  0
 11 15  1  0
 13 14  1  0
 16 15  1  1
 16 17  1  0
 16 19  1  0
 17 18  2  0
 17 22  1  0
 19 20  1  0
 19 21  1  1
 22 23  1  0
 23 24  1  0
 23 26  1  1
 24 25  2  0
 24 31  1  0
 26 27  1  0
 27 28  1  0
 28 29  2  0
 28 30  1  0
 31 32  1  0
 32 33  1  0
 32 35  1  6
 33 34  2  0
 33 39  1  0
 35 36  1  0
 36 37  1  6
 36 38  1  0
 39 40  1  0
 40 41  1  0
 40 43  1  1
 41 42  2  0
 41 45  1  0
 43 44  1  0
 46 45  1  6
 46 47  1  0
 46 54  1  0
 47 48  1  6
 47 49  1  0
 49 50  1  0
 50 51  1  6
 50 52  1  0
 50 53  2  0
 54 55  2  0
 54 56  1  0
 56 57  1  0
 57 58  1  0
 57 60  1  6
 58 59  2  0
 58 65  1  0
 60 61  1  0
 61 62  1  0
 62 63  2  0
 62 64  1  0
 65 66  1  0
 65 71  1  0
 66 67  1  1
 66 69  1  0
 67 68  2  0
 67 72  1  0
 69 70  1  0
 70 71  1  0
 72 73  1  0
 72 78  1  0
 73 74  1  1
 73 76  1  0
 74 75  1  0
 74 79  2  0
 76 77  1  0
 77 78  1  0
M  CHG  1   1   1
M  END
$$$$
