
     RDKit          3D

 79 80  0  0  0  0  0  0  0  0999 V2000
  -13.7014    2.7257    1.4015 N   0  0  0  0  0  4  0  0  0  0  0  0
  -13.5091    3.4273    2.6299 C   0  0  2  0  0  0  0  0  0  0  0  0
  -12.1339    3.2034    3.1887 C   0  0  0  0  0  0  0  0  0  0  0  0
  -11.4448    2.2050    2.8272 O   0  0  0  0  0  0  0  0  0  0  0  0
  -14.5591    3.2965    3.6649 C   0  0  0  0  0  0  0  0  0  0  0  0
  -15.9719    3.4948    3.2557 C   0  0  1  0  0  0  0  0  0  0  0  0
  -16.6427    2.1022    3.3600 C   0  0  0  0  0  0  0  0  0  0  0  0
  -16.7611    4.3616    4.2028 C   0  0  0  0  0  0  0  0  0  0  0  0
  -11.5259    4.0685    4.1355 N   0  0  0  0  0  0  0  0  0  0  0  0
  -10.1742    3.8798    4.6062 C   0  0  2  0  0  0  0  0  0  0  0  0
  -10.1367    2.6240    5.3973 C   0  0  0  0  0  0  0  0  0  0  0  0
  -11.0384    1.7937    5.3018 O   0  0  0  0  0  0  0  0  0  0  0  0
   -9.5827    5.0578    5.2962 C   0  0  0  0  0  0  0  0  0  0  0  0
   -8.3208    4.8179    5.8504 O   0  0  0  0  0  0  0  0  0  0  0  0
   -9.0548    2.3339    6.2960 N   0  0  0  0  0  0  0  0  0  0  0  0
   -8.8477    1.0379    6.8677 C   0  0  2  0  0  0  0  0  0  0  0  0
   -7.7549    0.8995    7.8238 C   0  0  0  0  0  0  0  0  0  0  0  0
   -6.7891    1.7023    7.8288 O   0  0  0  0  0  0  0  0  0  0  0  0
   -8.8206    0.0398    5.7409 C   0  0  2  0  0  0  0  0  0  0  0  0
   -7.8342    0.4370    4.8429 O   0  0  0  0  0  0  0  0  0  0  0  0
  -10.1185    0.0085    4.9700 C   0  0  0  0  0  0  0  0  0  0  0  0
   -7.6878   -0.1225    8.8171 N   0  0  0  0  0  0  0  0  0  0  0  0
   -6.5967   -0.2507    9.6972 C   0  0  2  0  0  0  0  0  0  0  0  0
   -5.2355   -0.1375    9.1594 C   0  0  0  0  0  0  0  0  0  0  0  0
   -4.4173    0.5428    9.8992 O   0  0  0  0  0  0  0  0  0  0  0  0
   -6.6768   -1.1503   10.8679 C   0  0  0  0  0  0  0  0  0  0  0  0
   -7.9673   -1.6362   11.3616 C   0  0  0  0  0  0  0  0  0  0  0  0
   -7.9546   -2.5757   12.4897 C   0  0  0  0  0  0  0  0  0  0  0  0
   -8.2720   -2.2441   13.6633 O   0  0  0  0  0  0  0  0  0  0  0  0
   -7.5707   -3.8818   12.2317 O   0  0  0  0  0  0  0  0  0  0  0  0
   -4.7257   -0.6620    7.9569 N   0  0  0  0  0  0  0  0  0  0  0  0
   -3.3972   -0.4019    7.5368 C   0  0  2  0  0  0  0  0  0  0  0  0
   -2.9712    0.9862    7.3760 C   0  0  0  0  0  0  0  0  0  0  0  0
   -3.1271    1.4046    6.1522 O   0  0  0  0  0  0  0  0  0  0  0  0
   -2.9511   -1.1184    6.3080 C   0  0  0  0  0  0  0  0  0  0  0  0
   -1.5541   -1.0374    5.9142 C   0  0  1  0  0  0  0  0  0  0  0  0
   -1.4372   -1.9866    4.6461 C   0  0  0  0  0  0  0  0  0  0  0  0
   -0.9393    0.2138    5.4268 C   0  0  0  0  0  0  0  0  0  0  0  0
   -2.4426    1.9094    8.3000 N   0  0  0  0  0  0  0  0  0  0  0  0
   -2.4903    3.3129    7.9664 C   0  0  2  0  0  0  0  0  0  0  0  0
   -1.8947    4.1625    8.9788 C   0  0  0  0  0  0  0  0  0  0  0  0
   -2.1692    3.9735   10.2324 O   0  0  0  0  0  0  0  0  0  0  0  0
   -3.9154    3.7363    7.6042 C   0  0  0  0  0  0  0  0  0  0  0  0
   -3.9960    5.1130    7.4410 O   0  0  0  0  0  0  0  0  0  0  0  0
   -0.9845    5.2490    8.8004 N   0  0  0  0  0  0  0  0  0  0  0  0
   -0.4965    5.9489    9.9417 C   0  0  1  0  0  0  0  0  0  0  0  0
    0.6756    6.8899    9.5578 C   0  0  1  0  0  0  0  0  0  0  0  0
    1.5662    6.3308    8.5201 C   0  0  0  0  0  0  0  0  0  0  0  0
    0.0479    8.0939    9.2364 O   0  0  0  0  0  0  0  0  0  0  0  0
    0.5462    9.3819   10.1830 P   0  0  1  0  0  5  0  0  0  0  0  0
    0.1665   10.8794    9.4985 O   0  0  0  0  0  0  0  0  0  0  0  0
   -0.0055    9.2438   11.7807 O   0  0  0  0  0  0  0  0  0  0  0  0
    2.0566    9.3160   10.2691 O   0  0  0  0  0  0  0  0  0  0  0  0
   -1.5054    6.8388   10.5144 C   0  0  0  0  0  0  0  0  0  0  0  0
   -1.3306    8.1171   10.5632 O   0  0  0  0  0  0  0  0  0  0  0  0
   -2.7397    6.4101   11.0625 N   0  0  0  0  0  0  0  0  0  0  0  0
   -3.6546    7.3204   11.7606 C   0  0  2  0  0  0  0  0  0  0  0  0
   -3.3385    7.3867   13.1897 C   0  0  0  0  0  0  0  0  0  0  0  0
   -2.9853    6.3209   13.8315 O   0  0  0  0  0  0  0  0  0  0  0  0
   -5.0729    6.7963   11.5960 C   0  0  0  0  0  0  0  0  0  0  0  0
   -5.3648    5.5991   12.4639 C   0  0  0  0  0  0  0  0  0  0  0  0
   -6.7319    5.0778   12.1963 C   0  0  0  0  0  0  0  0  0  0  0  0
   -7.4754    4.7998   13.1664 O   0  0  0  0  0  0  0  0  0  0  0  0
   -7.2421    4.8776   10.9257 O   0  0  0  0  0  0  0  0  0  0  0  0
   -3.4055    8.6209   13.8971 N   0  0  0  0  0  0  0  0  0  0  0  0
   -3.1438    8.8018   15.3254 C   0  0  2  0  0  0  0  0  0  0  0  0
   -3.7577    7.6987   16.1388 C   0  0  0  0  0  0  0  0  0  0  0  0
   -4.7697    7.1013   15.7543 O   0  0  0  0  0  0  0  0  0  0  0  0
   -3.8367   10.0959   15.6567 C   0  0  0  0  0  0  0  0  0  0  0  0
   -4.4237   10.6734   14.4109 C   0  0  0  0  0  0  0  0  0  0  0  0
   -3.6605    9.9173   13.3385 C   0  0  0  0  0  0  0  0  0  0  0  0
   -3.1560    7.3518   17.3553 N   0  0  0  0  0  0  0  0  0  0  0  0
   -3.6324    6.3316   18.2815 C   0  0  2  0  0  0  0  0  0  0  0  0
   -4.4176    6.9354   19.3917 C   0  0  0  0  0  0  0  0  0  0  0  0
   -5.0036    8.1730   19.2621 O   0  0  0  0  0  0  0  0  0  0  0  0
   -2.3561    5.6955   18.8197 C   0  0  0  0  0  0  0  0  0  0  0  0
   -1.2235    6.6299   18.4712 C   0  0  0  0  0  0  0  0  0  0  0  0
   -1.9434    7.8705   17.9365 C   0  0  0  0  0  0  0  0  0  0  0  0
   -4.5597    6.3186   20.4763 O   0  0  0  0  0  0  0  0  0  0  0  0
  2  1  1  6
  2  3  1  0
  2  5  1  0
  3  4  2  0
  3  9  1  0
  5  6  1  0
  6  7  1  1
  6  8  1  0
  9 10  1  0
 10 11  1  0
 10 13  1  1
 11 12  2  0
 11 15  1  0
 13 14  1  0
 16 15  1  6
 16 17  1  0
 16 19  1  0
 17 18  2  0
 17 22  1  0
 19 20  1  0
 19 21  1  6
 22 23  1  0
 23 24  1  0
 23 26  1  6
 24 25  2  0
 24 31  1  0
 26 27  1  0
 27 28  1  0
 28 29  2  0
 28 30  1  0
 31 32  1  0
 32 33  1  0
 32 35  1  6
 33 34  2  0
 33 39  1  0
 35 36  1  0
 36 37  1  6
 36 38  1  0
 39 40  1  0
 40 41  1  0
 40 43  1  1
 41 42  2  0
 41 45  1  0
 43 44  1  0
 46 45  1  6
 46 47  1  0
 46 54  1  0
 47 48  1  6
 47 49  1  0
 49 50  1  0
 50 51  1  6
 50 52  1  0
 50 53  2  0
 54 55  2  0
 54 56  1  0
 56 57  1  0
 57 58  1  0
 57 60  1  1
 58 59  2  0
 58 65  1  0
 60 61  1  0
 61 62  1  0
 62 63  2  0
 62 64  1  0
 65 66  1  0
 65 71  1  0
 66 67  1  1
 66 69  1  0
 67 68  2  0
 67 72  1  0
 69 70  1  0
 70 71  1  0
 72 73  1  0
 72 78  1  0
 73 74  1  1
 73 76  1  0
 74 75  1  0
 74 79  2  0
 76 77  1  0
 77 78  1  0
M  CHG  1   1   1
M  END
$$$$
