
     RDKit          3D

 79 80  0  0  0  0  0  0  0  0999 V2000
  -10.8785   -5.1538   15.9487 N   0  0  0  0  0  4  0  0  0  0  0  0
  -11.0636   -4.1137   14.9884 C   0  0  2  0  0  0  0  0  0  0  0  0
  -10.5900   -4.5254   13.6247 C   0  0  0  0  0  0  0  0  0  0  0  0
   -9.5394   -5.2180   13.4878 O   0  0  0  0  0  0  0  0  0  0  0  0
  -10.6010   -2.7555   15.3523 C   0  0  0  0  0  0  0  0  0  0  0  0
  -11.5148   -1.8954   16.1447 C   0  0  1  0  0  0  0  0  0  0  0  0
  -11.2447   -0.4441   15.6744 C   0  0  0  0  0  0  0  0  0  0  0  0
  -12.9738   -2.1208   15.8419 C   0  0  0  0  0  0  0  0  0  0  0  0
  -11.2654   -4.1767   12.4259 N   0  0  0  0  0  0  0  0  0  0  0  0
  -10.7893   -4.5720   11.1216 C   0  0  2  0  0  0  0  0  0  0  0  0
   -9.4626   -3.9406   10.9084 C   0  0  0  0  0  0  0  0  0  0  0  0
   -9.1646   -2.8949   11.4823 O   0  0  0  0  0  0  0  0  0  0  0  0
  -11.7567   -4.3571   10.0118 C   0  0  0  0  0  0  0  0  0  0  0  0
  -11.1962   -4.4832    8.7363 O   0  0  0  0  0  0  0  0  0  0  0  0
   -8.4854   -4.5226   10.0318 N   0  0  0  0  0  0  0  0  0  0  0  0
   -7.2208   -3.9079    9.7627 C   0  0  2  0  0  0  0  0  0  0  0  0
   -7.2119   -2.7837    8.8334 C   0  0  0  0  0  0  0  0  0  0  0  0
   -6.9341   -2.9453    7.6193 O   0  0  0  0  0  0  0  0  0  0  0  0
   -6.2424   -5.0018    9.4275 C   0  0  2  0  0  0  0  0  0  0  0  0
   -4.9899   -4.4178    9.2620 O   0  0  0  0  0  0  0  0  0  0  0  0
   -6.5735   -5.6890    8.1243 C   0  0  0  0  0  0  0  0  0  0  0  0
   -7.5175   -1.4399    9.2029 N   0  0  0  0  0  0  0  0  0  0  0  0
   -7.4971   -0.3786    8.2785 C   0  0  2  0  0  0  0  0  0  0  0  0
   -6.2801    0.4334    8.1586 C   0  0  0  0  0  0  0  0  0  0  0  0
   -5.8467    0.9254    9.2764 O   0  0  0  0  0  0  0  0  0  0  0  0
   -8.7276    0.3875    7.9861 C   0  0  0  0  0  0  0  0  0  0  0  0
   -8.6823    1.6171    7.1916 C   0  0  0  0  0  0  0  0  0  0  0  0
   -9.2727    2.8274    7.7763 C   0  0  0  0  0  0  0  0  0  0  0  0
   -9.1259    3.9744    7.2751 O   0  0  0  0  0  0  0  0  0  0  0  0
  -10.0202    2.6810    8.9337 O   0  0  0  0  0  0  0  0  0  0  0  0
   -5.5473    0.7417    6.9970 N   0  0  0  0  0  0  0  0  0  0  0  0
   -4.4162    1.5949    7.0364 C   0  0  2  0  0  0  0  0  0  0  0  0
   -4.5281    2.8768    7.7281 C   0  0  0  0  0  0  0  0  0  0  0  0
   -5.7022    3.4170    7.5652 O   0  0  0  0  0  0  0  0  0  0  0  0
   -3.7747    1.8864    5.7226 C   0  0  0  0  0  0  0  0  0  0  0  0
   -3.0108    0.8391    5.0648 C   0  0  1  0  0  0  0  0  0  0  0  0
   -1.5238    1.3953    5.0160 C   0  0  0  0  0  0  0  0  0  0  0  0
   -2.8252   -0.4996    5.6601 C   0  0  0  0  0  0  0  0  0  0  0  0
   -3.6042    3.5916    8.5161 N   0  0  0  0  0  0  0  0  0  0  0  0
   -3.9947    4.8865    9.0203 C   0  0  2  0  0  0  0  0  0  0  0  0
   -2.9733    5.5157    9.8343 C   0  0  0  0  0  0  0  0  0  0  0  0
   -3.1800    5.7172   11.0989 O   0  0  0  0  0  0  0  0  0  0  0  0
   -5.3484    4.8069    9.7293 C   0  0  0  0  0  0  0  0  0  0  0  0
   -5.2539    4.0549   10.8929 O   0  0  0  0  0  0  0  0  0  0  0  0
   -1.6816    5.9768    9.4351 N   0  0  0  0  0  0  0  0  0  0  0  0
   -0.8359    6.6077   10.3930 C   0  0  1  0  0  0  0  0  0  0  0  0
   -0.0593    7.7900    9.7559 C   0  0  1  0  0  0  0  0  0  0  0  0
    0.8503    8.4748   10.6974 C   0  0  0  0  0  0  0  0  0  0  0  0
    0.5420    7.2282    8.6290 O   0  0  0  0  0  0  0  0  0  0  0  0
   -0.5323    6.9137    7.3840 P   0  0  1  0  0  5  0  0  0  0  0  0
   -0.0732    7.6385    5.9281 O   0  0  0  0  0  0  0  0  0  0  0  0
   -0.8336    5.2537    7.2121 O   0  0  0  0  0  0  0  0  0  0  0  0
   -1.8606    7.5281    7.7730 O   0  0  0  0  0  0  0  0  0  0  0  0
   -1.5972    7.2170   11.4824 C   0  0  0  0  0  0  0  0  0  0  0  0
   -2.4676    8.1451   11.2630 O   0  0  0  0  0  0  0  0  0  0  0  0
   -1.4647    6.8703   12.8498 N   0  0  0  0  0  0  0  0  0  0  0  0
   -1.5878    7.8543   13.9315 C   0  0  2  0  0  0  0  0  0  0  0  0
   -2.2346    9.0793   13.4543 C   0  0  0  0  0  0  0  0  0  0  0  0
   -1.6840    9.7902   12.5248 O   0  0  0  0  0  0  0  0  0  0  0  0
   -0.1926    8.1986   14.4294 C   0  0  0  0  0  0  0  0  0  0  0  0
   -0.1991    9.1749   15.5776 C   0  0  0  0  0  0  0  0  0  0  0  0
    0.7921    8.7751   16.6121 C   0  0  0  0  0  0  0  0  0  0  0  0
    1.6907    9.5866   16.9363 O   0  0  0  0  0  0  0  0  0  0  0  0
    0.7844    7.5465   17.2484 O   0  0  0  0  0  0  0  0  0  0  0  0
   -3.4807    9.5069   13.9954 N   0  0  0  0  0  0  0  0  0  0  0  0
   -4.1305   10.7912   13.7315 C   0  0  2  0  0  0  0  0  0  0  0  0
   -3.1395   11.9195   13.7451 C   0  0  0  0  0  0  0  0  0  0  0  0
   -2.0071   11.7768   14.2208 O   0  0  0  0  0  0  0  0  0  0  0  0
   -5.0773   10.9595   14.8891 C   0  0  0  0  0  0  0  0  0  0  0  0
   -5.0114    9.7478   15.7596 C   0  0  0  0  0  0  0  0  0  0  0  0
   -4.3632    8.7407   14.8270 C   0  0  0  0  0  0  0  0  0  0  0  0
   -3.5234   13.1519   13.2010 N   0  0  0  0  0  0  0  0  0  0  0  0
   -2.7008   14.3546   13.1504 C   0  0  2  0  0  0  0  0  0  0  0  0
   -3.0352   15.2841   14.2629 C   0  0  0  0  0  0  0  0  0  0  0  0
   -4.1733   15.1163   15.0170 O   0  0  0  0  0  0  0  0  0  0  0  0
   -3.0513   14.9864   11.8083 C   0  0  0  0  0  0  0  0  0  0  0  0
   -4.3243   14.3273   11.3361 C   0  0  0  0  0  0  0  0  0  0  0  0
   -4.7600   13.4974   12.5463 C   0  0  0  0  0  0  0  0  0  0  0  0
   -2.2762   16.2470   14.5345 O   0  0  0  0  0  0  0  0  0  0  0  0
  2  1  1  1
  2  3  1  0
  2  5  1  0
  3  4  2  0
  3  9  1  0
  5  6  1  0
  6  7  1  6
  6  8  1  0
  9 10  1  0
 10 11  1  0
 10 13  1  6
 11 12  2  0
 11 15  1  0
 13 14  1  0
 16 15  1  6
 16 17  1  0
 16 19  1  0
 17 18  2  0
 17 22  1  0
 19 20  1  0
 19 21  1  6
 22 23  1  0
 23 24  1  0
 23 26  1  1
 24 25  2  0
 24 31  1  0
 26 27  1  0
 27 28  1  0
 28 29  2  0
 28 30  1  0
 31 32  1  0
 32 33  1  0
 32 35  1  6
 33 34  2  0
 33 39  1  0
 35 36  1  0
 36 37  1  1
 36 38  1  0
 39 40  1  0
 40 41  1  0
 40 43  1  1
 41 42  2  0
 41 45  1  0
 43 44  1  0
 46 45  1  6
 46 47  1  0
 46 54  1  0
 47 48  1  1
 47 49  1  0
 49 50  1  0
 50 51  1  6
 50 52  1  0
 50 53  2  0
 54 55  2  0
 54 56  1  0
 56 57  1  0
 57 58  1  0
 57 60  1  6
 58 59  2  0
 58 65  1  0
 60 61  1  0
 61 62  1  0
 62 63  2  0
 62 64  1  0
 65 66  1  0
 65 71  1  0
 66 67  1  1
 66 69  1  0
 67 68  2  0
 67 72  1  0
 69 70  1  0
 70 71  1  0
 72 73  1  0
 72 78  1  0
 73 74  1  1
 73 76  1  0
 74 75  1  0
 74 79  2  0
 76 77  1  0
 77 78  1  0
M  CHG  1   1   1
M  END
$$$$
