
     RDKit          3D

 79 80  0  0  0  0  0  0  0  0999 V2000
    0.0014   10.3935   19.3802 N   0  0  0  0  0  4  0  0  0  0  0  0
   -0.5873   10.7498   18.1293 C   0  0  2  0  0  0  0  0  0  0  0  0
   -0.9562    9.5383   17.3233 C   0  0  0  0  0  0  0  0  0  0  0  0
   -0.0826    8.6738   17.0205 O   0  0  0  0  0  0  0  0  0  0  0  0
    0.1051   11.7723   17.3132 C   0  0  0  0  0  0  0  0  0  0  0  0
    0.1678   13.1594   17.8373 C   0  0  1  0  0  0  0  0  0  0  0  0
    0.8186   14.0072   16.7156 C   0  0  0  0  0  0  0  0  0  0  0  0
   -1.1849   13.7904   18.0455 C   0  0  0  0  0  0  0  0  0  0  0  0
   -2.2717    9.2832   16.8554 N   0  0  0  0  0  0  0  0  0  0  0  0
   -2.6790    7.9969   16.3419 C   0  0  2  0  0  0  0  0  0  0  0  0
   -1.8396    7.6913   15.1560 C   0  0  0  0  0  0  0  0  0  0  0  0
   -0.6592    8.0331   15.1165 O   0  0  0  0  0  0  0  0  0  0  0  0
   -4.1418    7.8504   16.1126 C   0  0  0  0  0  0  0  0  0  0  0  0
   -4.5038    6.6448   15.5023 O   0  0  0  0  0  0  0  0  0  0  0  0
   -2.3698    6.9907   14.0203 N   0  0  0  0  0  0  0  0  0  0  0  0
   -1.5524    6.5452   12.9327 C   0  0  2  0  0  0  0  0  0  0  0  0
   -2.2378    6.0316   11.7522 C   0  0  0  0  0  0  0  0  0  0  0  0
   -3.1873    5.2160   11.8544 O   0  0  0  0  0  0  0  0  0  0  0  0
   -0.5044    5.6227   13.4960 C   0  0  2  0  0  0  0  0  0  0  0  0
   -1.1507    4.4916   13.9860 O   0  0  0  0  0  0  0  0  0  0  0  0
    0.2344    6.2363   14.6612 C   0  0  0  0  0  0  0  0  0  0  0  0
   -1.9104    6.4031   10.4141 N   0  0  0  0  0  0  0  0  0  0  0  0
   -1.7499    5.4566    9.3846 C   0  0  2  0  0  0  0  0  0  0  0  0
   -2.3491    4.1262    9.5455 C   0  0  0  0  0  0  0  0  0  0  0  0
   -2.6267    3.5208    8.4339 O   0  0  0  0  0  0  0  0  0  0  0  0
   -0.5164    5.4342    8.5695 C   0  0  0  0  0  0  0  0  0  0  0  0
   -0.3827    4.5307    7.4245 C   0  0  0  0  0  0  0  0  0  0  0  0
   -0.7149    3.1157    7.6316 C   0  0  0  0  0  0  0  0  0  0  0  0
   -0.6793    2.2594    6.7076 O   0  0  0  0  0  0  0  0  0  0  0  0
   -1.0846    2.7244    8.9083 O   0  0  0  0  0  0  0  0  0  0  0  0
   -2.6593    3.4471   10.7388 N   0  0  0  0  0  0  0  0  0  0  0  0
   -3.3038    2.1848   10.7295 C   0  0  2  0  0  0  0  0  0  0  0  0
   -4.7170    2.1211   10.3650 C   0  0  0  0  0  0  0  0  0  0  0  0
   -5.2494    0.9743   10.6785 O   0  0  0  0  0  0  0  0  0  0  0  0
   -3.1575    1.3702   11.9695 C   0  0  0  0  0  0  0  0  0  0  0  0
   -1.9272    0.6256   12.1812 C   0  0  1  0  0  0  0  0  0  0  0  0
   -2.3398   -0.5697   13.1423 C   0  0  0  0  0  0  0  0  0  0  0  0
   -1.2287   -0.0788   11.0872 C   0  0  0  0  0  0  0  0  0  0  0  0
   -5.5634    3.0685    9.7552 N   0  0  0  0  0  0  0  0  0  0  0  0
   -6.9303    3.1557   10.2103 C   0  0  2  0  0  0  0  0  0  0  0  0
   -7.6895    4.1969    9.5460 C   0  0  0  0  0  0  0  0  0  0  0  0
   -7.2927    5.4306    9.6034 O   0  0  0  0  0  0  0  0  0  0  0  0
   -6.9885    3.2646   11.7355 C   0  0  0  0  0  0  0  0  0  0  0  0
   -7.9256    2.3836   12.2590 O   0  0  0  0  0  0  0  0  0  0  0  0
   -8.8881    4.0679    8.7797 N   0  0  0  0  0  0  0  0  0  0  0  0
   -8.8271    4.1755    7.3600 C   0  0  1  0  0  0  0  0  0  0  0  0
   -7.7955    5.2504    6.9276 C   0  0  1  0  0  0  0  0  0  0  0  0
   -7.9777    6.5504    7.6054 C   0  0  0  0  0  0  0  0  0  0  0  0
   -6.5614    4.6295    7.1242 O   0  0  0  0  0  0  0  0  0  0  0  0
   -5.2734    5.4809    6.4768 P   0  0  1  0  0  5  0  0  0  0  0  0
   -3.7941    5.0551    7.1739 O   0  0  0  0  0  0  0  0  0  0  0  0
   -5.2399    5.3878    4.7839 O   0  0  0  0  0  0  0  0  0  0  0  0
   -5.4974    6.9439    6.7974 O   0  0  0  0  0  0  0  0  0  0  0  0
   -8.3520    2.9422    6.7346 C   0  0  0  0  0  0  0  0  0  0  0  0
   -8.2595    1.8390    7.3990 O   0  0  0  0  0  0  0  0  0  0  0  0
   -7.9517    2.8284    5.3803 N   0  0  0  0  0  0  0  0  0  0  0  0
   -8.0134    1.5627    4.6403 C   0  0  2  0  0  0  0  0  0  0  0  0
   -7.4475    1.7129    3.2972 C   0  0  0  0  0  0  0  0  0  0  0  0
   -8.0266    2.4718    2.4247 O   0  0  0  0  0  0  0  0  0  0  0  0
   -9.4719    1.1500    4.5144 C   0  0  0  0  0  0  0  0  0  0  0  0
   -9.6554   -0.1572    3.7868 C   0  0  0  0  0  0  0  0  0  0  0  0
  -11.0998   -0.4876    3.6575 C   0  0  0  0  0  0  0  0  0  0  0  0
  -11.4307   -1.5309    3.0467 O   0  0  0  0  0  0  0  0  0  0  0  0
  -12.1158    0.2952    4.1767 O   0  0  0  0  0  0  0  0  0  0  0  0
   -6.2500    1.0362    2.9283 N   0  0  0  0  0  0  0  0  0  0  0  0
   -5.4006    1.3665    1.7834 C   0  0  2  0  0  0  0  0  0  0  0  0
   -6.2209    1.6798    0.5651 C   0  0  0  0  0  0  0  0  0  0  0  0
   -5.9720    2.6617   -0.1442 O   0  0  0  0  0  0  0  0  0  0  0  0
   -4.6231    0.1020    1.5360 C   0  0  0  0  0  0  0  0  0  0  0  0
   -4.9812   -0.9079    2.5763 C   0  0  0  0  0  0  0  0  0  0  0  0
   -5.6130   -0.0321    3.6429 C   0  0  0  0  0  0  0  0  0  0  0  0
   -7.2853    0.8293    0.2399 N   0  0  0  0  0  0  0  0  0  0  0  0
   -8.1685    0.9708   -0.9114 C   0  0  2  0  0  0  0  0  0  0  0  0
   -9.4442    1.6370   -0.5341 C   0  0  0  0  0  0  0  0  0  0  0  0
   -9.6607    2.0944    0.7449 O   0  0  0  0  0  0  0  0  0  0  0  0
   -8.4306   -0.4636   -1.3553 C   0  0  0  0  0  0  0  0  0  0  0  0
   -8.0020   -1.3568   -0.2168 C   0  0  0  0  0  0  0  0  0  0  0  0
   -7.7156   -0.3684    0.9165 C   0  0  0  0  0  0  0  0  0  0  0  0
  -10.3535    1.7941   -1.3859 O   0  0  0  0  0  0  0  0  0  0  0  0
  2  1  1  1
  2  3  1  0
  2  5  1  0
  3  4  2  0
  3  9  1  0
  5  6  1  0
  6  7  1  6
  6  8  1  0
  9 10  1  0
 10 11  1  0
 10 13  1  6
 11 12  2  0
 11 15  1  0
 13 14  1  0
 16 15  1  1
 16 17  1  0
 16 19  1  0
 17 18  2  0
 17 22  1  0
 19 20  1  0
 19 21  1  1
 22 23  1  0
 23 24  1  0
 23 26  1  1
 24 25  2  0
 24 31  1  0
 26 27  1  0
 27 28  1  0
 28 29  2  0
 28 30  1  0
 31 32  1  0
 32 33  1  0
 32 35  1  1
 33 34  2  0
 33 39  1  0
 35 36  1  0
 36 37  1  1
 36 38  1  0
 39 40  1  0
 40 41  1  0
 40 43  1  1
 41 42  2  0
 41 45  1  0
 43 44  1  0
 46 45  1  1
 46 47  1  0
 46 54  1  0
 47 48  1  1
 47 49  1  0
 49 50  1  0
 50 51  1  1
 50 52  1  0
 50 53  2  0
 54 55  2  0
 54 56  1  0
 56 57  1  0
 57 58  1  0
 57 60  1  6
 58 59  2  0
 58 65  1  0
 60 61  1  0
 61 62  1  0
 62 63  2  0
 62 64  1  0
 65 66  1  0
 65 71  1  0
 66 67  1  6
 66 69  1  0
 67 68  2  0
 67 72  1  0
 69 70  1  0
 70 71  1  0
 72 73  1  0
 72 78  1  0
 73 74  1  1
 73 76  1  0
 74 75  1  0
 74 79  2  0
 76 77  1  0
 77 78  1  0
M  CHG  1   1   1
M  END
$$$$
