
     RDKit          3D

 79 80  0  0  0  0  0  0  0  0999 V2000
   -3.7189   13.2613   -0.3237 N   0  0  0  0  0  4  0  0  0  0  0  0
   -4.1983   11.9672   -0.6896 C   0  0  2  0  0  0  0  0  0  0  0  0
   -3.5985   10.8896    0.1664 C   0  0  0  0  0  0  0  0  0  0  0  0
   -2.6167   11.1395    0.9253 O   0  0  0  0  0  0  0  0  0  0  0  0
   -4.1814   11.6115   -2.1263 C   0  0  0  0  0  0  0  0  0  0  0  0
   -3.1659   10.6345   -2.5920 C   0  0  1  0  0  0  0  0  0  0  0  0
   -3.6661    9.2461   -2.1203 C   0  0  0  0  0  0  0  0  0  0  0  0
   -3.0854   10.5127   -4.0920 C   0  0  0  0  0  0  0  0  0  0  0  0
   -4.0739    9.5523    0.1846 N   0  0  0  0  0  0  0  0  0  0  0  0
   -3.6481    8.5888    1.1718 C   0  0  2  0  0  0  0  0  0  0  0  0
   -4.2463    7.2768    0.8177 C   0  0  0  0  0  0  0  0  0  0  0  0
   -4.9842    7.1655   -0.1593 O   0  0  0  0  0  0  0  0  0  0  0  0
   -3.8677    9.0023    2.5840 C   0  0  0  0  0  0  0  0  0  0  0  0
   -5.2138    9.0385    2.9633 O   0  0  0  0  0  0  0  0  0  0  0  0
   -3.9874    6.0981    1.5962 N   0  0  0  0  0  0  0  0  0  0  0  0
   -4.5866    4.8306    1.3071 C   0  0  2  0  0  0  0  0  0  0  0  0
   -5.1924    4.1114    2.4220 C   0  0  0  0  0  0  0  0  0  0  0  0
   -5.0377    4.4982    3.6068 O   0  0  0  0  0  0  0  0  0  0  0  0
   -3.5936    4.0257    0.5117 C   0  0  2  0  0  0  0  0  0  0  0  0
   -3.6878    2.7008    0.9275 O   0  0  0  0  0  0  0  0  0  0  0  0
   -2.1692    4.4575    0.7660 C   0  0  0  0  0  0  0  0  0  0  0  0
   -5.9993    2.9439    2.2750 N   0  0  0  0  0  0  0  0  0  0  0  0
   -6.6369    2.3235    3.3660 C   0  0  2  0  0  0  0  0  0  0  0  0
   -5.9726    2.3349    4.6749 C   0  0  0  0  0  0  0  0  0  0  0  0
   -5.6717    1.1626    5.1381 O   0  0  0  0  0  0  0  0  0  0  0  0
   -7.4801    1.1260    3.1622 C   0  0  0  0  0  0  0  0  0  0  0  0
   -8.0079    0.7891    1.8382 C   0  0  0  0  0  0  0  0  0  0  0  0
   -9.4565    0.9096    1.6320 C   0  0  0  0  0  0  0  0  0  0  0  0
  -10.2508   -0.0614    1.7529 O   0  0  0  0  0  0  0  0  0  0  0  0
   -9.9532    2.1562    1.2867 O   0  0  0  0  0  0  0  0  0  0  0  0
   -5.6378    3.4440    5.4742 N   0  0  0  0  0  0  0  0  0  0  0  0
   -5.0290    3.2879    6.7446 C   0  0  2  0  0  0  0  0  0  0  0  0
   -5.8736    2.9684    7.8929 C   0  0  0  0  0  0  0  0  0  0  0  0
   -5.3900    1.9823    8.5935 O   0  0  0  0  0  0  0  0  0  0  0  0
   -4.1385    4.4011    7.1809 C   0  0  0  0  0  0  0  0  0  0  0  0
   -2.9308    4.0854    7.9258 C   0  0  1  0  0  0  0  0  0  0  0  0
   -2.2091    5.4848    8.1350 C   0  0  0  0  0  0  0  0  0  0  0  0
   -2.9655    3.5424    9.2987 C   0  0  0  0  0  0  0  0  0  0  0  0
   -7.0796    3.5383    8.3472 N   0  0  0  0  0  0  0  0  0  0  0  0
   -7.7584    2.9080    9.4541 C   0  0  2  0  0  0  0  0  0  0  0  0
   -6.9297    2.7814   10.6368 C   0  0  0  0  0  0  0  0  0  0  0  0
   -6.6123    1.6073   11.0878 O   0  0  0  0  0  0  0  0  0  0  0  0
   -8.3791    1.5773    9.0231 C   0  0  0  0  0  0  0  0  0  0  0  0
   -9.7294    1.7309    8.7374 O   0  0  0  0  0  0  0  0  0  0  0  0
   -6.3634    3.8202   11.4373 N   0  0  0  0  0  0  0  0  0  0  0  0
   -5.6567    3.4814   12.6275 C   0  0  1  0  0  0  0  0  0  0  0  0
   -5.0938    4.7501   13.3203 C   0  0  1  0  0  0  0  0  0  0  0  0
   -4.2676    4.4565   14.5093 C   0  0  0  0  0  0  0  0  0  0  0  0
   -4.4535    5.4392   12.2897 O   0  0  0  0  0  0  0  0  0  0  0  0
   -3.8727    6.9409   12.7487 P   0  0  1  0  0  5  0  0  0  0  0  0
   -4.9066    7.7402   13.8200 O   0  0  0  0  0  0  0  0  0  0  0  0
   -2.2822    6.8536   13.3305 O   0  0  0  0  0  0  0  0  0  0  0  0
   -3.8006    7.7939   11.4996 O   0  0  0  0  0  0  0  0  0  0  0  0
   -6.5292    2.8748   13.6318 C   0  0  0  0  0  0  0  0  0  0  0  0
   -7.2529    3.5944   14.4226 O   0  0  0  0  0  0  0  0  0  0  0  0
   -6.6679    1.4804   13.8416 N   0  0  0  0  0  0  0  0  0  0  0  0
   -7.5445    0.9189   14.8758 C   0  0  2  0  0  0  0  0  0  0  0  0
   -6.9461    1.0642   16.2054 C   0  0  0  0  0  0  0  0  0  0  0  0
   -5.7942    0.5368   16.4653 O   0  0  0  0  0  0  0  0  0  0  0  0
   -7.7426   -0.5611   14.5866 C   0  0  0  0  0  0  0  0  0  0  0  0
   -8.8697   -1.1723   15.3790 C   0  0  0  0  0  0  0  0  0  0  0  0
  -10.1092   -1.2430   14.5599 C   0  0  0  0  0  0  0  0  0  0  0  0
  -11.2204   -1.1527   15.1328 O   0  0  0  0  0  0  0  0  0  0  0  0
  -10.1130   -1.4041   13.1856 O   0  0  0  0  0  0  0  0  0  0  0  0
   -7.6129    1.7921   17.2318 N   0  0  0  0  0  0  0  0  0  0  0  0
   -7.2787    1.7603   18.6561 C   0  0  2  0  0  0  0  0  0  0  0  0
   -6.9771    0.3632   19.1170 C   0  0  0  0  0  0  0  0  0  0  0  0
   -7.6015   -0.6092   18.6770 O   0  0  0  0  0  0  0  0  0  0  0  0
   -8.5368    2.2358   19.3312 C   0  0  0  0  0  0  0  0  0  0  0  0
   -9.5464    2.5986   18.2923 C   0  0  0  0  0  0  0  0  0  0  0  0
   -8.6727    2.7432   17.0594 C   0  0  0  0  0  0  0  0  0  0  0  0
   -5.9622    0.1770   20.0644 N   0  0  0  0  0  0  0  0  0  0  0  0
   -5.5425   -1.1023   20.6236 C   0  0  2  0  0  0  0  0  0  0  0  0
   -6.1678   -1.3415   21.9523 C   0  0  0  0  0  0  0  0  0  0  0  0
   -7.4432   -0.9078   22.2305 O   0  0  0  0  0  0  0  0  0  0  0  0
   -4.0311   -0.9660   20.7659 C   0  0  0  0  0  0  0  0  0  0  0  0
   -3.7133    0.5044   20.6441 C   0  0  0  0  0  0  0  0  0  0  0  0
   -5.0944    1.1644   20.6552 C   0  0  0  0  0  0  0  0  0  0  0  0
   -5.5351   -1.9493   22.8507 O   0  0  0  0  0  0  0  0  0  0  0  0
  2  1  1  6
  2  3  1  0
  2  5  1  0
  3  4  2  0
  3  9  1  0
  5  6  1  0
  6  7  1  1
  6  8  1  0
  9 10  1  0
 10 11  1  0
 10 13  1  1
 11 12  2  0
 11 15  1  0
 13 14  1  0
 16 15  1  1
 16 17  1  0
 16 19  1  0
 17 18  2  0
 17 22  1  0
 19 20  1  0
 19 21  1  1
 22 23  1  0
 23 24  1  0
 23 26  1  6
 24 25  2  0
 24 31  1  0
 26 27  1  0
 27 28  1  0
 28 29  2  0
 28 30  1  0
 31 32  1  0
 32 33  1  0
 32 35  1  1
 33 34  2  0
 33 39  1  0
 35 36  1  0
 36 37  1  1
 36 38  1  0
 39 40  1  0
 40 41  1  0
 40 43  1  6
 41 42  2  0
 41 45  1  0
 43 44  1  0
 46 45  1  6
 46 47  1  0
 46 54  1  0
 47 48  1  1
 47 49  1  0
 49 50  1  0
 50 51  1  1
 50 52  1  0
 50 53  2  0
 54 55  2  0
 54 56  1  0
 56 57  1  0
 57 58  1  0
 57 60  1  6
 58 59  2  0
 58 65  1  0
 60 61  1  0
 61 62  1  0
 62 63  2  0
 62 64  1  0
 65 66  1  0
 65 71  1  0
 66 67  1  1
 66 69  1  0
 67 68  2  0
 67 72  1  0
 69 70  1  0
 70 71  1  0
 72 73  1  0
 72 78  1  0
 73 74  1  1
 73 76  1  0
 74 75  1  0
 74 79  2  0
 76 77  1  0
 77 78  1  0
M  CHG  1   1   1
M  END
$$$$
