
     RDKit          3D

 79 80  0  0  0  0  0  0  0  0999 V2000
   -4.5238    6.1712   -1.4985 N   0  0  0  0  0  4  0  0  0  0  0  0
   -5.1543    6.7531   -0.3575 C   0  0  2  0  0  0  0  0  0  0  0  0
   -4.4918    6.3283    0.9209 C   0  0  0  0  0  0  0  0  0  0  0  0
   -3.6896    5.3492    0.9380 O   0  0  0  0  0  0  0  0  0  0  0  0
   -6.6299    6.6713   -0.2742 C   0  0  0  0  0  0  0  0  0  0  0  0
   -7.4246    7.2221   -1.4001 C   0  0  1  0  0  0  0  0  0  0  0  0
   -8.8524    6.6440   -1.2336 C   0  0  0  0  0  0  0  0  0  0  0  0
   -7.6161    8.7155   -1.3331 C   0  0  0  0  0  0  0  0  0  0  0  0
   -4.7117    6.9737    2.1657 N   0  0  0  0  0  0  0  0  0  0  0  0
   -4.0724    6.5461    3.3874 C   0  0  2  0  0  0  0  0  0  0  0  0
   -4.5769    5.1891    3.7168 C   0  0  0  0  0  0  0  0  0  0  0  0
   -5.4448    4.6568    3.0276 O   0  0  0  0  0  0  0  0  0  0  0  0
   -4.1537    7.5200    4.5092 C   0  0  0  0  0  0  0  0  0  0  0  0
   -3.0074    8.3070    4.6634 O   0  0  0  0  0  0  0  0  0  0  0  0
   -4.0741    4.4531    4.8427 N   0  0  0  0  0  0  0  0  0  0  0  0
   -4.6874    3.2508    5.3198 C   0  0  2  0  0  0  0  0  0  0  0  0
   -5.9815    3.3807    5.9799 C   0  0  0  0  0  0  0  0  0  0  0  0
   -6.4874    4.5081    6.2039 O   0  0  0  0  0  0  0  0  0  0  0  0
   -3.6555    2.4947    6.1137 C   0  0  2  0  0  0  0  0  0  0  0  0
   -3.3532    3.2463    7.2454 O   0  0  0  0  0  0  0  0  0  0  0  0
   -2.3623    2.3188    5.3543 C   0  0  0  0  0  0  0  0  0  0  0  0
   -6.7727    2.2742    6.4106 N   0  0  0  0  0  0  0  0  0  0  0  0
   -8.1404    2.3980    6.7199 C   0  0  2  0  0  0  0  0  0  0  0  0
   -8.8857    1.2011    7.1282 C   0  0  0  0  0  0  0  0  0  0  0  0
   -9.8630    1.4271    7.9488 O   0  0  0  0  0  0  0  0  0  0  0  0
   -8.9847    3.3847    6.0127 C   0  0  0  0  0  0  0  0  0  0  0  0
  -10.4233    3.4736    6.2727 C   0  0  0  0  0  0  0  0  0  0  0  0
  -10.8480    3.9493    7.5951 C   0  0  0  0  0  0  0  0  0  0  0  0
  -11.8217    3.4540    8.2233 O   0  0  0  0  0  0  0  0  0  0  0  0
  -10.1337    4.9935    8.1603 O   0  0  0  0  0  0  0  0  0  0  0  0
   -8.6649   -0.1363    6.7490 N   0  0  0  0  0  0  0  0  0  0  0  0
   -8.6246   -1.1827    7.7041 C   0  0  2  0  0  0  0  0  0  0  0  0
   -8.0568   -0.9084    9.0219 C   0  0  0  0  0  0  0  0  0  0  0  0
   -6.8931   -1.4727    9.1775 O   0  0  0  0  0  0  0  0  0  0  0  0
   -8.0093   -2.4603    7.2444 C   0  0  0  0  0  0  0  0  0  0  0  0
   -8.0546   -3.6188    8.1212 C   0  0  1  0  0  0  0  0  0  0  0  0
   -6.8658   -3.3924    9.1499 C   0  0  0  0  0  0  0  0  0  0  0  0
   -9.1968   -3.8905    9.0171 C   0  0  0  0  0  0  0  0  0  0  0  0
   -8.5478   -0.1560   10.1074 N   0  0  0  0  0  0  0  0  0  0  0  0
   -7.5943    0.4930   10.9751 C   0  0  2  0  0  0  0  0  0  0  0  0
   -7.3166    1.8646   10.5964 C   0  0  0  0  0  0  0  0  0  0  0  0
   -8.2582    2.6080   10.1030 O   0  0  0  0  0  0  0  0  0  0  0  0
   -6.3246   -0.3498   11.1129 C   0  0  0  0  0  0  0  0  0  0  0  0
   -6.4219   -1.2179   12.1925 O   0  0  0  0  0  0  0  0  0  0  0  0
   -6.0829    2.5780   10.6926 N   0  0  0  0  0  0  0  0  0  0  0  0
   -6.1027    3.9853   10.9158 C   0  0  1  0  0  0  0  0  0  0  0  0
   -7.3495    4.4000   11.7406 C   0  0  1  0  0  0  0  0  0  0  0  0
   -8.5661    3.6358   11.3965 C   0  0  0  0  0  0  0  0  0  0  0  0
   -6.9235    4.3013   13.0656 O   0  0  0  0  0  0  0  0  0  0  0  0
   -8.0768    4.7882   14.1773 P   0  0  1  0  0  5  0  0  0  0  0  0
   -7.4399    5.7869   15.3825 O   0  0  0  0  0  0  0  0  0  0  0  0
   -9.4339    5.4709   13.4236 O   0  0  0  0  0  0  0  0  0  0  0  0
   -8.5837    3.5416   14.8716 O   0  0  0  0  0  0  0  0  0  0  0  0
   -4.9676    4.4305   11.7229 C   0  0  0  0  0  0  0  0  0  0  0  0
   -4.7694    3.9817   12.9172 O   0  0  0  0  0  0  0  0  0  0  0  0
   -3.9979    5.3724   11.2987 N   0  0  0  0  0  0  0  0  0  0  0  0
   -2.8265    5.7225   12.1100 C   0  0  2  0  0  0  0  0  0  0  0  0
   -2.7863    4.9300   13.3417 C   0  0  0  0  0  0  0  0  0  0  0  0
   -3.6553    5.1320   14.2780 O   0  0  0  0  0  0  0  0  0  0  0  0
   -2.9190    7.1954   12.4777 C   0  0  0  0  0  0  0  0  0  0  0  0
   -1.7309    7.6834   13.2663 C   0  0  0  0  0  0  0  0  0  0  0  0
   -0.5513    7.8666   12.3790 C   0  0  0  0  0  0  0  0  0  0  0  0
   -0.6090    8.7196   11.4624 O   0  0  0  0  0  0  0  0  0  0  0  0
    0.6225    7.1447   12.5037 O   0  0  0  0  0  0  0  0  0  0  0  0
   -1.7997    3.9203   13.5298 N   0  0  0  0  0  0  0  0  0  0  0  0
   -1.5141    3.2294   14.7878 C   0  0  2  0  0  0  0  0  0  0  0  0
   -1.5156    4.1822   15.9487 C   0  0  0  0  0  0  0  0  0  0  0  0
   -1.3473    5.3963   15.7859 O   0  0  0  0  0  0  0  0  0  0  0  0
   -0.1200    2.6959   14.5963 C   0  0  0  0  0  0  0  0  0  0  0  0
    0.3477    3.0238   13.2165 C   0  0  0  0  0  0  0  0  0  0  0  0
   -0.9635    3.3388   12.5198 C   0  0  0  0  0  0  0  0  0  0  0  0
   -1.7155    3.6664   17.2356 N   0  0  0  0  0  0  0  0  0  0  0  0
   -1.7775    4.4457   18.4662 C   0  0  2  0  0  0  0  0  0  0  0  0
   -0.4730    4.4290   19.1816 C   0  0  0  0  0  0  0  0  0  0  0  0
    0.6268    3.7983   18.6481 O   0  0  0  0  0  0  0  0  0  0  0  0
   -2.8460    3.7434   19.2956 C   0  0  0  0  0  0  0  0  0  0  0  0
   -3.0646    2.3889   18.6669 C   0  0  0  0  0  0  0  0  0  0  0  0
   -1.9437    2.2986   17.6284 C   0  0  0  0  0  0  0  0  0  0  0  0
   -0.3536    4.9962   20.2956 O   0  0  0  0  0  0  0  0  0  0  0  0
  2  1  1  6
  2  3  1  0
  2  5  1  0
  3  4  2  0
  3  9  1  0
  5  6  1  0
  6  7  1  1
  6  8  1  0
  9 10  1  0
 10 11  1  0
 10 13  1  1
 11 12  2  0
 11 15  1  0
 13 14  1  0
 16 15  1  1
 16 17  1  0
 16 19  1  0
 17 18  2  0
 17 22  1  0
 19 20  1  0
 19 21  1  6
 22 23  1  0
 23 24  1  0
 23 26  1  6
 24 25  2  0
 24 31  1  0
 26 27  1  0
 27 28  1  0
 28 29  2  0
 28 30  1  0
 31 32  1  0
 32 33  1  0
 32 35  1  6
 33 34  2  0
 33 39  1  0
 35 36  1  0
 36 37  1  1
 36 38  1  0
 39 40  1  0
 40 41  1  0
 40 43  1  6
 41 42  2  0
 41 45  1  0
 43 44  1  0
 46 45  1  1
 46 47  1  0
 46 54  1  0
 47 48  1  1
 47 49  1  0
 49 50  1  0
 50 51  1  1
 50 52  1  0
 50 53  2  0
 54 55  2  0
 54 56  1  0
 56 57  1  0
 57 58  1  0
 57 60  1  1
 58 59  2  0
 58 65  1  0
 60 61  1  0
 61 62  1  0
 62 63  2  0
 62 64  1  0
 65 66  1  0
 65 71  1  0
 66 67  1  1
 66 69  1  0
 67 68  2  0
 67 72  1  0
 69 70  1  0
 70 71  1  0
 72 73  1  0
 72 78  1  0
 73 74  1  1
 73 76  1  0
 74 75  1  0
 74 79  2  0
 76 77  1  0
 77 78  1  0
M  CHG  1   1   1
M  END
$$$$
