
     RDKit          3D

 79 80  0  0  0  0  0  0  0  0999 V2000
   -0.0691   10.8417   11.1528 N   0  0  0  0  0  4  0  0  0  0  0  0
   -1.4478   10.8966   11.5194 C   0  0  2  0  0  0  0  0  0  0  0  0
   -2.1397    9.5864   11.2782 C   0  0  0  0  0  0  0  0  0  0  0  0
   -1.9443    8.9406   10.2072 O   0  0  0  0  0  0  0  0  0  0  0  0
   -2.2420   12.0448   11.0278 C   0  0  0  0  0  0  0  0  0  0  0  0
   -1.6295   13.3953   11.0897 C   0  0  1  0  0  0  0  0  0  0  0  0
   -2.8049   14.3848   11.2890 C   0  0  0  0  0  0  0  0  0  0  0  0
   -0.7531   13.6084   12.2970 C   0  0  0  0  0  0  0  0  0  0  0  0
   -3.0374    8.9956   12.2054 N   0  0  0  0  0  0  0  0  0  0  0  0
   -3.9413    7.9301   11.8424 C   0  0  2  0  0  0  0  0  0  0  0  0
   -3.2755    7.0980   10.8085 C   0  0  0  0  0  0  0  0  0  0  0  0
   -2.2295    7.4700   10.2801 O   0  0  0  0  0  0  0  0  0  0  0  0
   -5.3158    8.3719   11.4829 C   0  0  0  0  0  0  0  0  0  0  0  0
   -6.1791    7.3250   11.1430 O   0  0  0  0  0  0  0  0  0  0  0  0
   -3.8230    5.8380   10.3906 N   0  0  0  0  0  0  0  0  0  0  0  0
   -3.1988    5.0102    9.4034 C   0  0  2  0  0  0  0  0  0  0  0  0
   -3.6243    5.1890    8.0198 C   0  0  0  0  0  0  0  0  0  0  0  0
   -4.6914    4.6798    7.5963 O   0  0  0  0  0  0  0  0  0  0  0  0
   -3.2573    3.5885    9.8951 C   0  0  2  0  0  0  0  0  0  0  0  0
   -2.5763    3.5281   11.1074 O   0  0  0  0  0  0  0  0  0  0  0  0
   -2.5606    2.6286    8.9606 C   0  0  0  0  0  0  0  0  0  0  0  0
   -2.8963    5.9429    7.0516 N   0  0  0  0  0  0  0  0  0  0  0  0
   -3.0489    5.7421    5.6667 C   0  0  2  0  0  0  0  0  0  0  0  0
   -3.3367    4.3896    5.1742 C   0  0  0  0  0  0  0  0  0  0  0  0
   -4.4321    3.8698    5.6318 O   0  0  0  0  0  0  0  0  0  0  0  0
   -2.2756    6.5510    4.7002 C   0  0  0  0  0  0  0  0  0  0  0  0
   -2.4971    7.9932    4.5728 C   0  0  0  0  0  0  0  0  0  0  0  0
   -1.5451    8.8896    5.2403 C   0  0  0  0  0  0  0  0  0  0  0  0
   -1.7720   10.1147    5.4297 O   0  0  0  0  0  0  0  0  0  0  0  0
   -0.3466    8.3447    5.6723 O   0  0  0  0  0  0  0  0  0  0  0  0
   -2.5762    3.6029    4.2888 N   0  0  0  0  0  0  0  0  0  0  0  0
   -3.0960    2.4149    3.7164 C   0  0  2  0  0  0  0  0  0  0  0  0
   -4.2597    1.7875    4.3379 C   0  0  0  0  0  0  0  0  0  0  0  0
   -5.2333    1.6190    3.4890 O   0  0  0  0  0  0  0  0  0  0  0  0
   -2.1109    1.3212    3.4801 C   0  0  0  0  0  0  0  0  0  0  0  0
   -2.5569    0.1016    2.8270 C   0  0  1  0  0  0  0  0  0  0  0  0
   -2.6220    0.4715    1.2837 C   0  0  0  0  0  0  0  0  0  0  0  0
   -1.7486   -1.1344    2.8191 C   0  0  0  0  0  0  0  0  0  0  0  0
   -4.4854    1.3491    5.6579 N   0  0  0  0  0  0  0  0  0  0  0  0
   -5.7801    0.8003    5.9832 C   0  0  2  0  0  0  0  0  0  0  0  0
   -5.9546    0.5458    7.3996 C   0  0  0  0  0  0  0  0  0  0  0  0
   -4.9224    0.4829    8.1827 O   0  0  0  0  0  0  0  0  0  0  0  0
   -6.0808   -0.4279    5.1214 C   0  0  0  0  0  0  0  0  0  0  0  0
   -7.0988   -1.1882    5.6818 O   0  0  0  0  0  0  0  0  0  0  0  0
   -7.1713    0.3441    8.1204 N   0  0  0  0  0  0  0  0  0  0  0  0
   -7.4137    1.0915    9.3093 C   0  0  1  0  0  0  0  0  0  0  0  0
   -8.2528    2.3607    9.0069 C   0  0  1  0  0  0  0  0  0  0  0  0
   -7.5074    3.6216    9.2003 C   0  0  0  0  0  0  0  0  0  0  0  0
   -8.7476    2.1376    7.7215 O   0  0  0  0  0  0  0  0  0  0  0  0
   -8.2551    3.2853    6.6064 P   0  0  1  0  0  5  0  0  0  0  0  0
   -8.8900    4.8186    6.9251 O   0  0  0  0  0  0  0  0  0  0  0  0
   -6.5691    3.3095    6.4255 O   0  0  0  0  0  0  0  0  0  0  0  0
   -8.8008    2.8628    5.2585 O   0  0  0  0  0  0  0  0  0  0  0  0
   -8.2185    0.3442   10.2745 C   0  0  0  0  0  0  0  0  0  0  0  0
   -8.9380    0.9436   11.1634 O   0  0  0  0  0  0  0  0  0  0  0  0
   -8.2909   -1.0693   10.3398 N   0  0  0  0  0  0  0  0  0  0  0  0
   -9.1543   -1.7745   11.2940 C   0  0  2  0  0  0  0  0  0  0  0  0
   -8.9513   -1.2716   12.6551 C   0  0  0  0  0  0  0  0  0  0  0  0
   -7.7563   -1.1334   13.1298 O   0  0  0  0  0  0  0  0  0  0  0  0
   -8.8012   -3.2534   11.2600 C   0  0  0  0  0  0  0  0  0  0  0  0
  -10.0080   -4.1462   11.1247 C   0  0  0  0  0  0  0  0  0  0  0  0
  -10.5196   -4.1291    9.7282 C   0  0  0  0  0  0  0  0  0  0  0  0
  -11.5850   -4.7347    9.4654 O   0  0  0  0  0  0  0  0  0  0  0  0
   -9.8844   -3.4773    8.6859 O   0  0  0  0  0  0  0  0  0  0  0  0
  -10.0593   -0.9187   13.4773 N   0  0  0  0  0  0  0  0  0  0  0  0
  -10.0096   -0.6770   14.9197 C   0  0  2  0  0  0  0  0  0  0  0  0
   -9.1433   -1.6878   15.6149 C   0  0  0  0  0  0  0  0  0  0  0  0
   -8.2940   -2.3414   14.9981 O   0  0  0  0  0  0  0  0  0  0  0  0
  -11.4344   -0.8669   15.3652 C   0  0  0  0  0  0  0  0  0  0  0  0
  -12.2905   -1.1441   14.1734 C   0  0  0  0  0  0  0  0  0  0  0  0
  -11.4014   -0.6581   13.0431 C   0  0  0  0  0  0  0  0  0  0  0  0
   -9.3140   -1.8790   16.9920 N   0  0  0  0  0  0  0  0  0  0  0  0
   -8.5643   -2.8141   17.8221 C   0  0  2  0  0  0  0  0  0  0  0  0
   -9.3259   -4.0738   18.0383 C   0  0  0  0  0  0  0  0  0  0  0  0
   -8.9836   -5.2366   17.3881 O   0  0  0  0  0  0  0  0  0  0  0  0
   -8.3805   -2.0728   19.1411 C   0  0  0  0  0  0  0  0  0  0  0  0
   -9.3545   -0.9200   19.1320 C   0  0  0  0  0  0  0  0  0  0  0  0
  -10.2068   -1.1901   17.8895 C   0  0  0  0  0  0  0  0  0  0  0  0
  -10.3037   -4.0963   18.8259 O   0  0  0  0  0  0  0  0  0  0  0  0
  2  1  1  6
  2  3  1  0
  2  5  1  0
  3  4  2  0
  3  9  1  0
  5  6  1  0
  6  7  1  1
  6  8  1  0
  9 10  1  0
 10 11  1  0
 10 13  1  6
 11 12  2  0
 11 15  1  0
 13 14  1  0
 16 15  1  1
 16 17  1  0
 16 19  1  0
 17 18  2  0
 17 22  1  0
 19 20  1  0
 19 21  1  6
 22 23  1  0
 23 24  1  0
 23 26  1  6
 24 25  2  0
 24 31  1  0
 26 27  1  0
 27 28  1  0
 28 29  2  0
 28 30  1  0
 31 32  1  0
 32 33  1  0
 32 35  1  1
 33 34  2  0
 33 39  1  0
 35 36  1  0
 36 37  1  6
 36 38  1  0
 39 40  1  0
 40 41  1  0
 40 43  1  6
 41 42  2  0
 41 45  1  0
 43 44  1  0
 46 45  1  6
 46 47  1  0
 46 54  1  0
 47 48  1  6
 47 49  1  0
 49 50  1  0
 50 51  1  1
 50 52  1  0
 50 53  2  0
 54 55  2  0
 54 56  1  0
 56 57  1  0
 57 58  1  0
 57 60  1  1
 58 59  2  0
 58 65  1  0
 60 61  1  0
 61 62  1  0
 62 63  2  0
 62 64  1  0
 65 66  1  0
 65 71  1  0
 66 67  1  1
 66 69  1  0
 67 68  2  0
 67 72  1  0
 69 70  1  0
 70 71  1  0
 72 73  1  0
 72 78  1  0
 73 74  1  1
 73 76  1  0
 74 75  1  0
 74 79  2  0
 76 77  1  0
 77 78  1  0
M  CHG  1   1   1
M  END
$$$$
