
     RDKit          3D

 79 80  0  0  0  0  0  0  0  0999 V2000
    0.7718    1.0481   23.9507 N   0  0  0  0  0  4  0  0  0  0  0  0
    0.8749    2.2369   23.1668 C   0  0  2  0  0  0  0  0  0  0  0  0
   -0.3057    2.4057   22.2550 C   0  0  0  0  0  0  0  0  0  0  0  0
   -1.4270    1.8979   22.5498 O   0  0  0  0  0  0  0  0  0  0  0  0
    2.1567    2.4893   22.4711 C   0  0  0  0  0  0  0  0  0  0  0  0
    3.4128    2.0950   23.1563 C   0  0  1  0  0  0  0  0  0  0  0  0
    3.7034    0.6417   22.7049 C   0  0  0  0  0  0  0  0  0  0  0  0
    4.6204    2.8751   22.7043 C   0  0  0  0  0  0  0  0  0  0  0  0
   -0.2507    3.1243   21.0322 N   0  0  0  0  0  0  0  0  0  0  0  0
   -1.4094    3.7590   20.4502 C   0  0  2  0  0  0  0  0  0  0  0  0
   -0.9611    4.5272   19.2613 C   0  0  0  0  0  0  0  0  0  0  0  0
    0.1752    4.9934   19.2061 O   0  0  0  0  0  0  0  0  0  0  0  0
   -2.2413    4.5383   21.4063 C   0  0  0  0  0  0  0  0  0  0  0  0
   -3.3537    5.1534   20.8222 O   0  0  0  0  0  0  0  0  0  0  0  0
   -1.8301    4.7525   18.1405 N   0  0  0  0  0  0  0  0  0  0  0  0
   -1.3972    4.6129   16.7831 C   0  0  2  0  0  0  0  0  0  0  0  0
   -2.3648    4.9337   15.7400 C   0  0  0  0  0  0  0  0  0  0  0  0
   -3.5930    4.7311   15.9070 O   0  0  0  0  0  0  0  0  0  0  0  0
   -0.7569    3.2575   16.6441 C   0  0  2  0  0  0  0  0  0  0  0  0
   -0.1182    3.2122   15.4083 O   0  0  0  0  0  0  0  0  0  0  0  0
   -1.7720    2.1397   16.6464 C   0  0  0  0  0  0  0  0  0  0  0  0
   -2.0187    5.4985   14.4762 N   0  0  0  0  0  0  0  0  0  0  0  0
   -2.7685    6.5287   13.8780 C   0  0  2  0  0  0  0  0  0  0  0  0
   -2.3688    7.0184   12.5531 C   0  0  0  0  0  0  0  0  0  0  0  0
   -1.1797    7.5312   12.5029 O   0  0  0  0  0  0  0  0  0  0  0  0
   -3.4040    7.5750   14.7074 C   0  0  0  0  0  0  0  0  0  0  0  0
   -4.2358    8.6179   14.1028 C   0  0  0  0  0  0  0  0  0  0  0  0
   -4.8425    9.6097   14.9993 C   0  0  0  0  0  0  0  0  0  0  0  0
   -5.4854   10.6102   14.5824 O   0  0  0  0  0  0  0  0  0  0  0  0
   -4.6876    9.4202   16.3631 O   0  0  0  0  0  0  0  0  0  0  0  0
   -3.1109    7.0049   11.3571 N   0  0  0  0  0  0  0  0  0  0  0  0
   -2.8361    6.0761   10.3224 C   0  0  2  0  0  0  0  0  0  0  0  0
   -3.9515    5.5417    9.5448 C   0  0  0  0  0  0  0  0  0  0  0  0
   -4.1330    4.2706    9.7642 O   0  0  0  0  0  0  0  0  0  0  0  0
   -1.9976    4.9044   10.7052 C   0  0  0  0  0  0  0  0  0  0  0  0
   -1.5357    3.9998    9.6653 C   0  0  1  0  0  0  0  0  0  0  0  0
   -2.8148    3.1396    9.2823 C   0  0  0  0  0  0  0  0  0  0  0  0
   -1.0734    4.4780    8.3467 C   0  0  0  0  0  0  0  0  0  0  0  0
   -4.8302    6.1605    8.6335 N   0  0  0  0  0  0  0  0  0  0  0  0
   -6.0983    5.5241    8.3683 C   0  0  2  0  0  0  0  0  0  0  0  0
   -5.9740    4.2930    7.6129 C   0  0  0  0  0  0  0  0  0  0  0  0
   -4.9893    4.1335    6.7837 O   0  0  0  0  0  0  0  0  0  0  0  0
   -7.0780    6.5115    7.7307 C   0  0  0  0  0  0  0  0  0  0  0  0
   -7.1198    7.6998    8.4480 O   0  0  0  0  0  0  0  0  0  0  0  0
   -6.8230    3.1446    7.6441 N   0  0  0  0  0  0  0  0  0  0  0  0
   -6.9310    2.3213    6.4860 C   0  0  1  0  0  0  0  0  0  0  0  0
   -8.3174    1.6279    6.4241 C   0  0  1  0  0  0  0  0  0  0  0  0
   -8.3349    0.4171    5.5777 C   0  0  0  0  0  0  0  0  0  0  0  0
   -8.6582    1.4386    7.7638 O   0  0  0  0  0  0  0  0  0  0  0  0
   -9.9107    2.4219    8.2811 P   0  0  1  0  0  5  0  0  0  0  0  0
   -9.3641    3.8500    9.0001 O   0  0  0  0  0  0  0  0  0  0  0  0
  -11.0392    2.7105    7.0485 O   0  0  0  0  0  0  0  0  0  0  0  0
  -10.6652    1.6604    9.3506 O   0  0  0  0  0  0  0  0  0  0  0  0
   -6.8568    3.0983    5.2497 C   0  0  0  0  0  0  0  0  0  0  0  0
   -7.6755    4.0674    5.0096 O   0  0  0  0  0  0  0  0  0  0  0  0
   -5.9141    2.8778    4.2152 N   0  0  0  0  0  0  0  0  0  0  0  0
   -6.0283    3.5046    2.8933 C   0  0  2  0  0  0  0  0  0  0  0  0
   -6.3926    2.5166    1.8746 C   0  0  0  0  0  0  0  0  0  0  0  0
   -5.7253    1.4143    1.7644 O   0  0  0  0  0  0  0  0  0  0  0  0
   -4.6810    4.1094    2.5300 C   0  0  0  0  0  0  0  0  0  0  0  0
   -4.6867    4.8047    1.1927 C   0  0  0  0  0  0  0  0  0  0  0  0
   -5.0091    6.2479    1.3529 C   0  0  0  0  0  0  0  0  0  0  0  0
   -4.0749    7.0591    1.5535 O   0  0  0  0  0  0  0  0  0  0  0  0
   -6.2937    6.7587    1.2932 O   0  0  0  0  0  0  0  0  0  0  0  0
   -7.4884    2.7442    0.9939 N   0  0  0  0  0  0  0  0  0  0  0  0
   -7.8388    1.9206   -0.1638 C   0  0  2  0  0  0  0  0  0  0  0  0
   -6.6176    1.5201   -0.9408 C   0  0  0  0  0  0  0  0  0  0  0  0
   -5.5394    2.1074   -0.7943 O   0  0  0  0  0  0  0  0  0  0  0  0
   -8.6797    2.8345   -1.0137 C   0  0  0  0  0  0  0  0  0  0  0  0
   -8.8591    4.1379   -0.3071 C   0  0  0  0  0  0  0  0  0  0  0  0
   -8.4910    3.7627    1.1170 C   0  0  0  0  0  0  0  0  0  0  0  0
   -6.7210    0.4549   -1.8446 N   0  0  0  0  0  0  0  0  0  0  0  0
   -5.6301   -0.0991   -2.6375 C   0  0  2  0  0  0  0  0  0  0  0  0
   -5.6370    0.4479   -4.0211 C   0  0  0  0  0  0  0  0  0  0  0  0
   -6.0570    1.7318   -4.2800 O   0  0  0  0  0  0  0  0  0  0  0  0
   -5.9113   -1.5970   -2.6583 C   0  0  0  0  0  0  0  0  0  0  0  0
   -7.3404   -1.7779   -2.2079 C   0  0  0  0  0  0  0  0  0  0  0  0
   -7.8776   -0.3453   -2.1598 C   0  0  0  0  0  0  0  0  0  0  0  0
   -5.2556   -0.2609   -4.9850 O   0  0  0  0  0  0  0  0  0  0  0  0
  2  1  1  6
  2  3  1  0
  2  5  1  0
  3  4  2  0
  3  9  1  0
  5  6  1  0
  6  7  1  6
  6  8  1  0
  9 10  1  0
 10 11  1  0
 10 13  1  1
 11 12  2  0
 11 15  1  0
 13 14  1  0
 16 15  1  1
 16 17  1  0
 16 19  1  0
 17 18  2  0
 17 22  1  0
 19 20  1  0
 19 21  1  6
 22 23  1  0
 23 24  1  0
 23 26  1  1
 24 25  2  0
 24 31  1  0
 26 27  1  0
 27 28  1  0
 28 29  2  0
 28 30  1  0
 31 32  1  0
 32 33  1  0
 32 35  1  1
 33 34  2  0
 33 39  1  0
 35 36  1  0
 36 37  1  6
 36 38  1  0
 39 40  1  0
 40 41  1  0
 40 43  1  6
 41 42  2  0
 41 45  1  0
 43 44  1  0
 46 45  1  1
 46 47  1  0
 46 54  1  0
 47 48  1  6
 47 49  1  0
 49 50  1  0
 50 51  1  1
 50 52  1  0
 50 53  2  0
 54 55  2  0
 54 56  1  0
 56 57  1  0
 57 58  1  0
 57 60  1  6
 58 59  2  0
 58 65  1  0
 60 61  1  0
 61 62  1  0
 62 63  2  0
 62 64  1  0
 65 66  1  0
 65 71  1  0
 66 67  1  6
 66 69  1  0
 67 68  2  0
 67 72  1  0
 69 70  1  0
 70 71  1  0
 72 73  1  0
 72 78  1  0
 73 74  1  6
 73 76  1  0
 74 75  1  0
 74 79  2  0
 76 77  1  0
 77 78  1  0
M  CHG  1   1   1
M  END
$$$$
