
     RDKit          3D

 79 80  0  0  0  0  0  0  0  0999 V2000
   -6.8503   -4.5351    8.4553 N   0  0  0  0  0  4  0  0  0  0  0  0
   -5.8351   -4.2155    7.5037 C   0  0  2  0  0  0  0  0  0  0  0  0
   -6.4101   -3.5902    6.2660 C   0  0  0  0  0  0  0  0  0  0  0  0
   -7.6081   -3.8162    5.9254 O   0  0  0  0  0  0  0  0  0  0  0  0
   -4.8388   -5.2634    7.1872 C   0  0  0  0  0  0  0  0  0  0  0  0
   -3.9053   -5.6867    8.2606 C   0  0  1  0  0  0  0  0  0  0  0  0
   -3.1680   -6.9346    7.7131 C   0  0  0  0  0  0  0  0  0  0  0  0
   -2.8057   -4.6932    8.5342 C   0  0  0  0  0  0  0  0  0  0  0  0
   -5.6734   -2.7274    5.4131 N   0  0  0  0  0  0  0  0  0  0  0  0
   -6.3042   -1.8907    4.4200 C   0  0  2  0  0  0  0  0  0  0  0  0
   -5.3797   -0.7706    4.1119 C   0  0  0  0  0  0  0  0  0  0  0  0
   -4.7189   -0.2381    5.0014 O   0  0  0  0  0  0  0  0  0  0  0  0
   -7.6921   -1.4679    4.7495 C   0  0  0  0  0  0  0  0  0  0  0  0
   -8.6732   -2.0647    3.9505 O   0  0  0  0  0  0  0  0  0  0  0  0
   -5.2233   -0.2714    2.7745 N   0  0  0  0  0  0  0  0  0  0  0  0
   -4.3564    0.8209    2.4507 C   0  0  2  0  0  0  0  0  0  0  0  0
   -4.6339    2.1024    3.0895 C   0  0  0  0  0  0  0  0  0  0  0  0
   -5.8042    2.4332    3.4031 O   0  0  0  0  0  0  0  0  0  0  0  0
   -4.2401    0.8838    0.9511 C   0  0  2  0  0  0  0  0  0  0  0  0
   -5.4979    1.1870    0.4381 O   0  0  0  0  0  0  0  0  0  0  0  0
   -3.8371   -0.4416    0.3502 C   0  0  0  0  0  0  0  0  0  0  0  0
   -3.6329    3.0653    3.4159 N   0  0  0  0  0  0  0  0  0  0  0  0
   -3.9464    4.3336    3.9397 C   0  0  2  0  0  0  0  0  0  0  0  0
   -5.3026    4.5753    4.4469 C   0  0  0  0  0  0  0  0  0  0  0  0
   -6.2514    4.2684    3.6193 O   0  0  0  0  0  0  0  0  0  0  0  0
   -3.3160    5.5519    3.3875 C   0  0  0  0  0  0  0  0  0  0  0  0
   -1.8917    5.5787    3.0471 C   0  0  0  0  0  0  0  0  0  0  0  0
   -1.3529    6.8165    2.4703 C   0  0  0  0  0  0  0  0  0  0  0  0
   -1.6257    7.9607    2.9225 O   0  0  0  0  0  0  0  0  0  0  0  0
   -0.5094    6.7000    1.3772 O   0  0  0  0  0  0  0  0  0  0  0  0
   -5.6871    5.0976    5.6961 N   0  0  0  0  0  0  0  0  0  0  0  0
   -7.0385    5.0838    6.1233 C   0  0  2  0  0  0  0  0  0  0  0  0
   -7.3458    5.4908    7.4923 C   0  0  0  0  0  0  0  0  0  0  0  0
   -8.4602    6.1619    7.5620 O   0  0  0  0  0  0  0  0  0  0  0  0
   -7.7816    3.8125    5.8911 C   0  0  0  0  0  0  0  0  0  0  0  0
   -8.1726    3.4635    4.5353 C   0  0  1  0  0  0  0  0  0  0  0  0
   -8.8677    2.0417    4.6697 C   0  0  0  0  0  0  0  0  0  0  0  0
   -9.1792    4.2339    3.7775 C   0  0  0  0  0  0  0  0  0  0  0  0
   -6.6565    5.2772    8.7026 N   0  0  0  0  0  0  0  0  0  0  0  0
   -6.9169    6.1730    9.8039 C   0  0  2  0  0  0  0  0  0  0  0  0
   -5.7111    6.6417   10.4581 C   0  0  0  0  0  0  0  0  0  0  0  0
   -4.7300    5.8229   10.6808 O   0  0  0  0  0  0  0  0  0  0  0  0
   -7.9167    5.5532   10.7827 C   0  0  0  0  0  0  0  0  0  0  0  0
   -7.2690    4.7369   11.7006 O   0  0  0  0  0  0  0  0  0  0  0  0
   -5.4103    7.9579   10.9246 N   0  0  0  0  0  0  0  0  0  0  0  0
   -4.2082    8.1848   11.6555 C   0  0  1  0  0  0  0  0  0  0  0  0
   -3.9597    9.7023   11.8599 C   0  0  1  0  0  0  0  0  0  0  0  0
   -2.6044   10.0172   12.3565 C   0  0  0  0  0  0  0  0  0  0  0  0
   -4.3039   10.2673   10.6314 O   0  0  0  0  0  0  0  0  0  0  0  0
   -3.4231   11.6409   10.2564 P   0  0  1  0  0  5  0  0  0  0  0  0
   -4.0541   12.4784    8.9312 O   0  0  0  0  0  0  0  0  0  0  0  0
   -3.2048   12.6414   11.6080 O   0  0  0  0  0  0  0  0  0  0  0  0
   -2.0339   11.1873    9.8597 O   0  0  0  0  0  0  0  0  0  0  0  0
   -4.2777    7.6412   13.0111 C   0  0  0  0  0  0  0  0  0  0  0  0
   -3.2115    7.3507   13.6789 O   0  0  0  0  0  0  0  0  0  0  0  0
   -5.4801    7.3796   13.7133 N   0  0  0  0  0  0  0  0  0  0  0  0
   -5.5008    6.9668   15.1213 C   0  0  2  0  0  0  0  0  0  0  0  0
   -4.8886    5.6463   15.2892 C   0  0  0  0  0  0  0  0  0  0  0  0
   -5.3330    4.6301   14.6239 O   0  0  0  0  0  0  0  0  0  0  0  0
   -6.9490    6.8978   15.5809 C   0  0  0  0  0  0  0  0  0  0  0  0
   -7.0967    6.4014   16.9964 C   0  0  0  0  0  0  0  0  0  0  0  0
   -6.5477    7.3924   17.9602 C   0  0  0  0  0  0  0  0  0  0  0  0
   -7.3402    8.0230   18.6987 O   0  0  0  0  0  0  0  0  0  0  0  0
   -5.1980    7.6657   18.0950 O   0  0  0  0  0  0  0  0  0  0  0  0
   -3.7921    5.4562   16.1778 N   0  0  0  0  0  0  0  0  0  0  0  0
   -3.1663    4.1731   16.4995 C   0  0  2  0  0  0  0  0  0  0  0  0
   -4.1945    3.0970   16.6997 C   0  0  0  0  0  0  0  0  0  0  0  0
   -5.3875    3.3705   16.8752 O   0  0  0  0  0  0  0  0  0  0  0  0
   -2.4692    4.4313   17.8080 C   0  0  0  0  0  0  0  0  0  0  0  0
   -2.6430    5.8661   18.1840 C   0  0  0  0  0  0  0  0  0  0  0  0
   -3.0503    6.4792   16.8565 C   0  0  0  0  0  0  0  0  0  0  0  0
   -3.7747    1.7607   16.6820 N   0  0  0  0  0  0  0  0  0  0  0  0
   -4.6451    0.5929   16.7467 C   0  0  2  0  0  0  0  0  0  0  0  0
   -4.7189    0.0511   18.1304 C   0  0  0  0  0  0  0  0  0  0  0  0
   -3.9795    0.5986   19.1528 O   0  0  0  0  0  0  0  0  0  0  0  0
   -3.9805   -0.4159   15.8172 C   0  0  0  0  0  0  0  0  0  0  0  0
   -2.5760    0.0786   15.5710 C   0  0  0  0  0  0  0  0  0  0  0  0
   -2.4358    1.2426   16.5551 C   0  0  0  0  0  0  0  0  0  0  0  0
   -5.4651   -0.9250   18.3900 O   0  0  0  0  0  0  0  0  0  0  0  0
  2  1  1  6
  2  3  1  0
  2  5  1  0
  3  4  2  0
  3  9  1  0
  5  6  1  0
  6  7  1  6
  6  8  1  0
  9 10  1  0
 10 11  1  0
 10 13  1  1
 11 12  2  0
 11 15  1  0
 13 14  1  0
 16 15  1  6
 16 17  1  0
 16 19  1  0
 17 18  2  0
 17 22  1  0
 19 20  1  0
 19 21  1  6
 22 23  1  0
 23 24  1  0
 23 26  1  6
 24 25  2  0
 24 31  1  0
 26 27  1  0
 27 28  1  0
 28 29  2  0
 28 30  1  0
 31 32  1  0
 32 33  1  0
 32 35  1  1
 33 34  2  0
 33 39  1  0
 35 36  1  0
 36 37  1  1
 36 38  1  0
 39 40  1  0
 40 41  1  0
 40 43  1  1
 41 42  2  0
 41 45  1  0
 43 44  1  0
 46 45  1  1
 46 47  1  0
 46 54  1  0
 47 48  1  6
 47 49  1  0
 49 50  1  0
 50 51  1  6
 50 52  1  0
 50 53  2  0
 54 55  2  0
 54 56  1  0
 56 57  1  0
 57 58  1  0
 57 60  1  6
 58 59  2  0
 58 65  1  0
 60 61  1  0
 61 62  1  0
 62 63  2  0
 62 64  1  0
 65 66  1  0
 65 71  1  0
 66 67  1  1
 66 69  1  0
 67 68  2  0
 67 72  1  0
 69 70  1  0
 70 71  1  0
 72 73  1  0
 72 78  1  0
 73 74  1  1
 73 76  1  0
 74 75  1  0
 74 79  2  0
 76 77  1  0
 77 78  1  0
M  CHG  1   1   1
M  END
$$$$
