
     RDKit          3D

 61 62  0  0  0  0  0  0  0  0999 V2000
   52.0108  -34.5756   -3.6289 N   0  0  0  0  0  0  0  0  0  0  0  0
   51.2827  -33.3639   -3.8353 C   0  0  2  0  0  0  0  0  0  0  0  0
   50.2250  -33.4434   -4.8747 C   0  0  0  0  0  0  0  0  0  0  0  0
   49.9983  -32.3223   -5.4886 O   0  0  0  0  0  0  0  0  0  0  0  0
   52.2019  -32.1863   -4.1095 C   0  0  0  0  0  0  0  0  0  0  0  0
   52.6304  -31.4480   -2.9001 C   0  0  0  0  0  0  0  0  0  0  0  0
   52.0009  -31.9568   -1.6239 C   0  0  0  0  0  0  0  0  0  0  0  0
   52.7374  -31.3981   -0.5063 N   0  0  0  0  0  0  0  0  0  0  0  0
   53.5567  -30.2292   -0.6315 C   0  0  0  0  0  0  0  0  0  0  0  0
   53.4628  -29.3545   -1.7352 N   0  0  0  0  0  0  0  0  0  0  0  0
   54.4047  -29.9705    0.2952 N   0  0  0  0  0  0  0  0  0  0  0  0
   49.4639  -34.5184   -5.2755 N   0  0  0  0  0  0  0  0  0  0  0  0
   48.5274  -35.3502   -4.5087 C   0  0  2  0  0  0  0  0  0  0  0  0
   47.3042  -35.6109   -5.3237 C   0  0  0  0  0  0  0  0  0  0  0  0
   46.3563  -36.2178   -4.7014 O   0  0  0  0  0  0  0  0  0  0  0  0
   48.2767  -34.7867   -3.1588 C   0  0  0  0  0  0  0  0  0  0  0  0
   48.7781  -35.6163   -2.0224 C   0  0  0  0  0  0  0  0  0  0  0  0
   50.2613  -35.9441   -2.1702 C   0  0  0  0  0  0  0  0  0  0  0  0
   50.9852  -35.6181   -0.9630 N   0  0  0  0  0  0  0  0  0  0  0  0
   52.3794  -35.8569   -0.8385 C   0  0  0  0  0  0  0  0  0  0  0  0
   53.0372  -36.1784   -1.9045 N   0  0  0  0  0  0  0  0  0  0  0  0
   52.9954  -35.7330    0.4445 N   0  0  0  0  0  0  0  0  0  0  0  0
   47.0461  -35.2947   -6.6436 N   0  0  0  0  0  0  0  0  0  0  0  0
   47.6489  -35.7279   -7.8750 C   0  0  2  0  0  0  0  0  0  0  0  0
   46.5401  -36.0320   -8.8588 C   0  0  0  0  0  0  0  0  0  0  0  0
   45.3666  -35.5712   -8.6918 O   0  0  0  0  0  0  0  0  0  0  0  0
   48.4518  -36.9752   -7.7736 C   0  0  0  0  0  0  0  0  0  0  0  0
   49.4615  -37.0286   -8.8896 C   0  0  0  0  0  0  0  0  0  0  0  0
   50.5528  -35.9840   -8.7674 C   0  0  0  0  0  0  0  0  0  0  0  0
   51.4965  -36.4366   -7.6786 C   0  0  0  0  0  0  0  0  0  0  0  0
   52.7547  -36.9256   -8.1891 N   0  0  0  0  0  0  0  0  0  0  0  0
   46.7133  -36.8266  -10.0093 N   0  0  0  0  0  0  0  0  0  0  0  0
   45.7659  -36.8305  -11.1446 C   0  0  2  0  0  0  0  0  0  0  0  0
   45.7903  -38.0488  -11.9118 C   0  0  0  0  0  0  0  0  0  0  0  0
   46.9182  -38.6179  -12.1343 O   0  0  0  0  0  0  0  0  0  0  0  0
   45.9003  -35.5090  -11.8803 C   0  0  0  0  0  0  0  0  0  0  0  0
   47.1876  -34.8270  -11.7650 C   0  0  0  0  0  0  0  0  0  0  0  0
   47.6282  -33.6929  -12.5512 C   0  0  0  0  0  0  0  0  0  0  0  0
   48.0587  -33.7989  -13.9460 C   0  0  0  0  0  0  0  0  0  0  0  0
   48.8344  -32.7146  -14.4339 N   0  0  0  0  0  4  0  0  0  0  0  0
   44.6507  -38.6916  -12.4469 N   0  0  0  0  0  0  0  0  0  0  0  0
   43.8353  -39.6178  -11.7538 C   0  0  0  0  0  0  0  0  0  0  0  0
   44.6551  -40.7051  -11.1734 C   0  0  0  0  0  0  0  0  0  0  0  0
   44.3209  -41.2313   -9.9437 C   0  0  0  0  0  0  0  0  0  0  0  0
   45.0738  -42.2709   -9.3816 C   0  0  0  0  0  0  0  0  0  0  0  0
   46.1619  -42.7886  -10.0429 C   0  0  0  0  0  0  0  0  0  0  0  0
   46.9633  -43.8656   -9.4819 C   0  0  0  0  0  0  0  0  0  0  0  0
   47.0331  -44.0238   -8.0814 N   0  0  0  0  0  0  0  0  0  0  0  0
   47.5988  -44.6609  -10.2384 N   0  0  0  0  0  0  0  0  0  0  0  0
   46.4608  -42.2339  -11.2678 C   0  0  0  0  0  0  0  0  0  0  0  0
   45.7532  -41.2271  -11.8411 C   0  0  0  0  0  0  0  0  0  0  0  0
   53.3533  -34.8442   -3.8877 C   0  0  0  0  0  0  0  0  0  0  0  0
   54.0956  -34.6185   -5.1502 C   0  0  0  0  0  0  0  0  0  0  0  0
   54.8193  -35.9445   -5.4365 C   0  0  0  0  0  0  0  0  0  0  0  0
   53.7679  -36.9267   -5.8860 C   0  0  0  0  0  0  0  0  0  0  0  0
   53.8440  -37.1710   -7.3455 C   0  0  0  0  0  0  0  0  0  0  0  0
   54.0644  -35.3476   -2.9457 O   0  0  0  0  0  0  0  0  0  0  0  0
   54.9539  -37.6172   -7.7963 O   0  0  0  0  0  0  0  0  0  0  0  0
   54.3046  -29.1281    0.8964 H   0  0  0  0  0  0  0  0  0  0  0  0
   53.7168  -36.9523   -1.8740 H   0  0  0  0  0  0  0  0  0  0  0  0
   48.1586  -45.4607   -9.9010 H   0  0  0  0  0  0  0  0  0  0  0  0
  1  2  1  0
  1 52  1  0
  2  3  1  0
  2  5  1  6
  3  4  2  0
  3 12  1  0
  5  6  1  0
  6  7  1  0
  7  8  1  0
  8  9  1  0
  9 10  1  0
  9 11  2  0
 12 13  1  0
 13 14  1  0
 13 16  1  1
 14 15  2  0
 14 23  1  0
 16 17  1  0
 17 18  1  0
 18 19  1  0
 19 20  1  0
 20 21  2  0
 20 22  1  0
 23 24  1  0
 24 25  1  6
 24 27  1  0
 25 26  2  0
 25 32  1  0
 27 28  1  0
 28 29  1  0
 29 30  1  0
 30 31  1  0
 31 56  1  0
 32 33  1  0
 33 34  1  0
 33 36  1  6
 34 35  2  0
 34 41  1  0
 36 37  1  0
 37 38  1  0
 38 39  1  0
 39 40  1  0
 41 42  1  0
 42 43  1  0
 43 44  2  0
 43 51  1  0
 44 45  1  0
 45 46  2  0
 46 47  1  0
 46 50  1  0
 47 48  1  0
 47 49  2  0
 50 51  2  0
 52 53  1  0
 52 57  2  0
 53 54  1  0
 54 55  1  0
 55 56  1  0
 56 58  2  0
 11 59  1  0
 21 60  1  0
 49 61  1  0
M  CHG  1  40   1
M  END
$$$$
