
     RDKit          3D

 61 62  0  0  0  0  0  0  0  0999 V2000
   55.1589  -36.0164   -5.8252 N   0  0  0  0  0  0  0  0  0  0  0  0
   54.5983  -34.7924   -5.3470 C   0  0  2  0  0  0  0  0  0  0  0  0
   53.4743  -34.2635   -6.1610 C   0  0  0  0  0  0  0  0  0  0  0  0
   53.3694  -32.9698   -6.1445 O   0  0  0  0  0  0  0  0  0  0  0  0
   55.6554  -33.7196   -5.1506 C   0  0  0  0  0  0  0  0  0  0  0  0
   56.6058  -33.9896   -4.0482 C   0  0  0  0  0  0  0  0  0  0  0  0
   55.9343  -34.2857   -2.7271 C   0  0  0  0  0  0  0  0  0  0  0  0
   56.9683  -34.5847   -1.7550 N   0  0  0  0  0  0  0  0  0  0  0  0
   56.6739  -34.8822   -0.3846 C   0  0  0  0  0  0  0  0  0  0  0  0
   56.7054  -36.1971    0.1275 N   0  0  0  0  0  0  0  0  0  0  0  0
   56.3720  -33.9163    0.4032 N   0  0  0  0  0  0  0  0  0  0  0  0
   52.5438  -34.9373   -6.9197 N   0  0  0  0  0  0  0  0  0  0  0  0
   51.5508  -35.9434   -6.5212 C   0  0  2  0  0  0  0  0  0  0  0  0
   50.2523  -35.6650   -7.2030 C   0  0  0  0  0  0  0  0  0  0  0  0
   49.2707  -36.4045   -6.8242 O   0  0  0  0  0  0  0  0  0  0  0  0
   51.4715  -36.0770   -5.0452 C   0  0  0  0  0  0  0  0  0  0  0  0
   51.5459  -34.7918   -4.2875 C   0  0  0  0  0  0  0  0  0  0  0  0
   50.6930  -33.7027   -4.9323 C   0  0  0  0  0  0  0  0  0  0  0  0
   51.3484  -32.4177   -4.8511 N   0  0  0  0  0  0  0  0  0  0  0  0
   51.1878  -31.5650   -3.7269 C   0  0  0  0  0  0  0  0  0  0  0  0
   50.0060  -31.1005   -3.4821 N   0  0  0  0  0  0  0  0  0  0  0  0
   52.3243  -31.2577   -2.9179 N   0  0  0  0  0  0  0  0  0  0  0  0
   49.9560  -34.7311   -8.1770 N   0  0  0  0  0  0  0  0  0  0  0  0
   50.4093  -34.5737   -9.5324 C   0  0  2  0  0  0  0  0  0  0  0  0
   49.2066  -34.2627  -10.3964 C   0  0  0  0  0  0  0  0  0  0  0  0
   49.3105  -34.1669  -11.6602 O   0  0  0  0  0  0  0  0  0  0  0  0
   51.0319  -35.7853  -10.1284 C   0  0  0  0  0  0  0  0  0  0  0  0
   51.9487  -35.3903  -11.2560 C   0  0  0  0  0  0  0  0  0  0  0  0
   53.1828  -34.6400  -10.7965 C   0  0  0  0  0  0  0  0  0  0  0  0
   54.1219  -35.6460  -10.1744 C   0  0  0  0  0  0  0  0  0  0  0  0
   55.2619  -35.9448  -11.0075 N   0  0  0  0  0  0  0  0  0  0  0  0
   47.9091  -34.0619   -9.8853 N   0  0  0  0  0  0  0  0  0  0  0  0
   47.1959  -35.0621   -9.0622 C   0  0  2  0  0  0  0  0  0  0  0  0
   46.2386  -35.8417   -9.8033 C   0  0  0  0  0  0  0  0  0  0  0  0
   45.6799  -35.3202  -10.8335 O   0  0  0  0  0  0  0  0  0  0  0  0
   46.7420  -34.3862   -7.7805 C   0  0  0  0  0  0  0  0  0  0  0  0
   47.4984  -34.7064   -6.5719 C   0  0  0  0  0  0  0  0  0  0  0  0
   47.5462  -33.9168   -5.3583 C   0  0  0  0  0  0  0  0  0  0  0  0
   46.5200  -33.9788   -4.3166 C   0  0  0  0  0  0  0  0  0  0  0  0
   46.7050  -33.0984   -3.2183 N   0  0  0  0  0  4  0  0  0  0  0  0
   45.8580  -37.1668   -9.4907 N   0  0  0  0  0  0  0  0  0  0  0  0
   44.5956  -37.7413   -9.7723 C   0  0  0  0  0  0  0  0  0  0  0  0
   43.9766  -38.2755   -8.5383 C   0  0  0  0  0  0  0  0  0  0  0  0
   44.7689  -38.5747   -7.4505 C   0  0  0  0  0  0  0  0  0  0  0  0
   44.2031  -39.0675   -6.2670 C   0  0  0  0  0  0  0  0  0  0  0  0
   42.8466  -39.2640   -6.1645 C   0  0  0  0  0  0  0  0  0  0  0  0
   42.2324  -39.7773   -4.9494 C   0  0  0  0  0  0  0  0  0  0  0  0
   40.8306  -39.9274   -4.8886 N   0  0  0  0  0  0  0  0  0  0  0  0
   42.9437  -40.0891   -3.9468 N   0  0  0  0  0  0  0  0  0  0  0  0
   42.0924  -38.9529   -7.2743 C   0  0  0  0  0  0  0  0  0  0  0  0
   42.6076  -38.4738   -8.4354 C   0  0  0  0  0  0  0  0  0  0  0  0
   56.4299  -36.2518   -6.3454 C   0  0  0  0  0  0  0  0  0  0  0  0
   57.1125  -35.5180   -7.4370 C   0  0  0  0  0  0  0  0  0  0  0  0
   57.6203  -36.6046   -8.3989 C   0  0  0  0  0  0  0  0  0  0  0  0
   56.4131  -37.1469   -9.1205 C   0  0  0  0  0  0  0  0  0  0  0  0
   56.3581  -36.6659  -10.5209 C   0  0  0  0  0  0  0  0  0  0  0  0
   57.1224  -37.2098   -5.8464 O   0  0  0  0  0  0  0  0  0  0  0  0
   57.3615  -36.9424  -11.2631 O   0  0  0  0  0  0  0  0  0  0  0  0
   56.3703  -34.0439    1.4351 H   0  0  0  0  0  0  0  0  0  0  0  0
   49.2284  -31.7501   -3.2944 H   0  0  0  0  0  0  0  0  0  0  0  0
   43.9708  -39.9870   -3.9090 H   0  0  0  0  0  0  0  0  0  0  0  0
  1  2  1  0
  1 52  1  0
  2  3  1  0
  2  5  1  6
  3  4  2  0
  3 12  1  0
  5  6  1  0
  6  7  1  0
  7  8  1  0
  8  9  1  0
  9 10  1  0
  9 11  2  0
 12 13  1  0
 13 14  1  0
 13 16  1  1
 14 15  2  0
 14 23  1  0
 16 17  1  0
 17 18  1  0
 18 19  1  0
 19 20  1  0
 20 21  2  0
 20 22  1  0
 23 24  1  0
 24 25  1  6
 24 27  1  0
 25 26  2  0
 25 32  1  0
 27 28  1  0
 28 29  1  0
 29 30  1  0
 30 31  1  0
 31 56  1  0
 32 33  1  0
 33 34  1  0
 33 36  1  1
 34 35  2  0
 34 41  1  0
 36 37  1  0
 37 38  1  0
 38 39  1  0
 39 40  1  0
 41 42  1  0
 42 43  1  0
 43 44  2  0
 43 51  1  0
 44 45  1  0
 45 46  2  0
 46 47  1  0
 46 50  1  0
 47 48  1  0
 47 49  2  0
 50 51  2  0
 52 53  1  0
 52 57  2  0
 53 54  1  0
 54 55  1  0
 55 56  1  0
 56 58  2  0
 11 59  1  0
 21 60  1  0
 49 61  1  0
M  CHG  1  40   1
M  END
$$$$
