
     RDKit          3D

 61 62  0  0  0  0  0  0  0  0999 V2000
   53.1997  -33.5072   -3.6817 N   0  0  0  0  0  0  0  0  0  0  0  0
   51.9956  -32.8404   -4.0644 C   0  0  2  0  0  0  0  0  0  0  0  0
   51.2108  -33.5308   -5.1193 C   0  0  0  0  0  0  0  0  0  0  0  0
   50.5234  -32.7328   -5.8781 O   0  0  0  0  0  0  0  0  0  0  0  0
   52.2447  -31.3942   -4.4563 C   0  0  0  0  0  0  0  0  0  0  0  0
   52.0278  -30.4171   -3.3656 C   0  0  0  0  0  0  0  0  0  0  0  0
   51.0382  -30.8822   -2.3223 C   0  0  0  0  0  0  0  0  0  0  0  0
   51.7814  -31.2600   -1.1355 N   0  0  0  0  0  0  0  0  0  0  0  0
   51.6589  -30.5555    0.1063 C   0  0  0  0  0  0  0  0  0  0  0  0
   50.6490  -29.5964    0.3352 N   0  0  0  0  0  0  0  0  0  0  0  0
   52.4984  -30.8085    1.0422 N   0  0  0  0  0  0  0  0  0  0  0  0
   51.1105  -34.8740   -5.4047 N   0  0  0  0  0  0  0  0  0  0  0  0
   50.6328  -35.9834   -4.5692 C   0  0  2  0  0  0  0  0  0  0  0  0
   49.7721  -36.8911   -5.3839 C   0  0  0  0  0  0  0  0  0  0  0  0
   49.1881  -37.8255   -4.7207 O   0  0  0  0  0  0  0  0  0  0  0  0
   50.0172  -35.4929   -3.3109 C   0  0  0  0  0  0  0  0  0  0  0  0
   50.9630  -35.3208   -2.1676 C   0  0  0  0  0  0  0  0  0  0  0  0
   52.2731  -36.0691   -2.3972 C   0  0  0  0  0  0  0  0  0  0  0  0
   52.4749  -37.0797   -1.3845 N   0  0  0  0  0  0  0  0  0  0  0  0
   52.5416  -36.7534   -0.0041 C   0  0  0  0  0  0  0  0  0  0  0  0
   51.6054  -36.0100    0.4892 N   0  0  0  0  0  0  0  0  0  0  0  0
   53.6268  -37.2543    0.7783 N   0  0  0  0  0  0  0  0  0  0  0  0
   49.5144  -36.8706   -6.7410 N   0  0  0  0  0  0  0  0  0  0  0  0
   50.3614  -37.0630   -7.8869 C   0  0  2  0  0  0  0  0  0  0  0  0
   49.6366  -37.9676   -8.8596 C   0  0  0  0  0  0  0  0  0  0  0  0
   49.4549  -39.1998   -8.6031 O   0  0  0  0  0  0  0  0  0  0  0  0
   51.6573  -37.7335   -7.6013 C   0  0  0  0  0  0  0  0  0  0  0  0
   52.6621  -37.3856   -8.6678 C   0  0  0  0  0  0  0  0  0  0  0  0
   53.0892  -35.9316   -8.6440 C   0  0  0  0  0  0  0  0  0  0  0  0
   54.0300  -35.7525   -7.4761 C   0  0  0  0  0  0  0  0  0  0  0  0
   55.4075  -35.6005   -7.8788 N   0  0  0  0  0  0  0  0  0  0  0  0
   49.1163  -37.5297  -10.0936 N   0  0  0  0  0  0  0  0  0  0  0  0
   47.6942  -37.1799  -10.2979 C   0  0  2  0  0  0  0  0  0  0  0  0
   46.8534  -38.3175  -10.5668 C   0  0  0  0  0  0  0  0  0  0  0  0
   45.5798  -38.1666  -10.5386 O   0  0  0  0  0  0  0  0  0  0  0  0
   47.6279  -35.9917  -11.2411 C   0  0  0  0  0  0  0  0  0  0  0  0
   47.6611  -34.6674  -10.6243 C   0  0  0  0  0  0  0  0  0  0  0  0
   46.5433  -33.9826  -10.0080 C   0  0  0  0  0  0  0  0  0  0  0  0
   46.1016  -32.6445  -10.4039 C   0  0  0  0  0  0  0  0  0  0  0  0
   44.7102  -32.5037  -10.6479 N   0  0  0  0  0  4  0  0  0  0  0  0
   47.3214  -39.6155  -10.8744 N   0  0  0  0  0  0  0  0  0  0  0  0
   46.7365  -40.8224  -10.4221 C   0  0  0  0  0  0  0  0  0  0  0  0
   45.4457  -40.5579   -9.7476 C   0  0  0  0  0  0  0  0  0  0  0  0
   44.3211  -41.2610  -10.1240 C   0  0  0  0  0  0  0  0  0  0  0  0
   43.0918  -41.0379   -9.4895 C   0  0  0  0  0  0  0  0  0  0  0  0
   42.9796  -40.1132   -8.4787 C   0  0  0  0  0  0  0  0  0  0  0  0
   41.7156  -39.8587   -7.8045 C   0  0  0  0  0  0  0  0  0  0  0  0
   41.6795  -38.9757   -6.7045 N   0  0  0  0  0  0  0  0  0  0  0  0
   40.6489  -40.4227   -8.1952 N   0  0  0  0  0  0  0  0  0  0  0  0
   44.1269  -39.4331   -8.1344 C   0  0  0  0  0  0  0  0  0  0  0  0
   45.3329  -39.6247   -8.7276 C   0  0  0  0  0  0  0  0  0  0  0  0
   54.5200  -33.0992   -3.8602 C   0  0  0  0  0  0  0  0  0  0  0  0
   55.1698  -32.6565   -5.1162 C   0  0  0  0  0  0  0  0  0  0  0  0
   56.4708  -33.4708   -5.2074 C   0  0  0  0  0  0  0  0  0  0  0  0
   56.0777  -34.8821   -5.5624 C   0  0  0  0  0  0  0  0  0  0  0  0
   56.3960  -35.1935   -6.9756 C   0  0  0  0  0  0  0  0  0  0  0  0
   55.2969  -33.0931   -2.8390 O   0  0  0  0  0  0  0  0  0  0  0  0
   57.6184  -35.0724   -7.3293 O   0  0  0  0  0  0  0  0  0  0  0  0
   53.2381  -30.1252    1.3008 H   0  0  0  0  0  0  0  0  0  0  0  0
   50.7074  -36.4325    0.7662 H   0  0  0  0  0  0  0  0  0  0  0  0
   40.5150  -41.4460   -8.2378 H   0  0  0  0  0  0  0  0  0  0  0  0
  1  2  1  0
  1 52  1  0
  2  3  1  0
  2  5  1  6
  3  4  2  0
  3 12  1  0
  5  6  1  0
  6  7  1  0
  7  8  1  0
  8  9  1  0
  9 10  1  0
  9 11  2  0
 12 13  1  0
 13 14  1  0
 13 16  1  1
 14 15  2  0
 14 23  1  0
 16 17  1  0
 17 18  1  0
 18 19  1  0
 19 20  1  0
 20 21  2  0
 20 22  1  0
 23 24  1  0
 24 25  1  6
 24 27  1  0
 25 26  2  0
 25 32  1  0
 27 28  1  0
 28 29  1  0
 29 30  1  0
 30 31  1  0
 31 56  1  0
 32 33  1  0
 33 34  1  0
 33 36  1  6
 34 35  2  0
 34 41  1  0
 36 37  1  0
 37 38  1  0
 38 39  1  0
 39 40  1  0
 41 42  1  0
 42 43  1  0
 43 44  2  0
 43 51  1  0
 44 45  1  0
 45 46  2  0
 46 47  1  0
 46 50  1  0
 47 48  1  0
 47 49  2  0
 50 51  2  0
 52 53  1  0
 52 57  2  0
 53 54  1  0
 54 55  1  0
 55 56  1  0
 56 58  2  0
 11 59  1  0
 21 60  1  0
 49 61  1  0
M  CHG  1  40   1
M  END
$$$$
