
     RDKit          3D

 61 62  0  0  0  0  0  0  0  0999 V2000
   53.1328  -33.9640   -3.4358 N   0  0  0  0  0  0  0  0  0  0  0  0
   53.4483  -35.3331   -3.6951 C   0  0  2  0  0  0  0  0  0  0  0  0
   52.5705  -35.9951   -4.6934 C   0  0  0  0  0  0  0  0  0  0  0  0
   52.4202  -37.2707   -4.5055 O   0  0  0  0  0  0  0  0  0  0  0  0
   53.5075  -36.1557   -2.4197 C   0  0  0  0  0  0  0  0  0  0  0  0
   54.3761  -35.5884   -1.3637 C   0  0  0  0  0  0  0  0  0  0  0  0
   54.6601  -34.1144   -1.5388 C   0  0  0  0  0  0  0  0  0  0  0  0
   55.1058  -33.5885   -0.2627 N   0  0  0  0  0  0  0  0  0  0  0  0
   55.6508  -32.2709   -0.1210 C   0  0  0  0  0  0  0  0  0  0  0  0
   56.9283  -31.9243   -0.6109 N   0  0  0  0  0  0  0  0  0  0  0  0
   54.9496  -31.3758    0.4722 N   0  0  0  0  0  0  0  0  0  0  0  0
   51.9026  -35.4586   -5.7713 N   0  0  0  0  0  0  0  0  0  0  0  0
   52.4249  -34.7607   -6.9533 C   0  0  2  0  0  0  0  0  0  0  0  0
   51.7101  -35.2369   -8.1742 C   0  0  0  0  0  0  0  0  0  0  0  0
   52.1786  -34.7915   -9.2860 O   0  0  0  0  0  0  0  0  0  0  0  0
   53.9057  -34.8353   -7.0209 C   0  0  0  0  0  0  0  0  0  0  0  0
   54.6147  -34.5322   -5.7416 C   0  0  0  0  0  0  0  0  0  0  0  0
   56.1278  -34.6708   -5.8848 C   0  0  0  0  0  0  0  0  0  0  0  0
   56.7883  -34.4568   -4.6177 N   0  0  0  0  0  0  0  0  0  0  0  0
   56.6110  -33.2604   -3.8736 C   0  0  0  0  0  0  0  0  0  0  0  0
   55.7233  -33.2571   -2.9331 N   0  0  0  0  0  0  0  0  0  0  0  0
   57.4116  -32.1198   -4.1877 N   0  0  0  0  0  0  0  0  0  0  0  0
   50.6233  -36.0833   -8.2798 N   0  0  0  0  0  0  0  0  0  0  0  0
   49.2600  -35.9625   -7.8393 C   0  0  2  0  0  0  0  0  0  0  0  0
   48.3604  -36.4256   -8.9645 C   0  0  0  0  0  0  0  0  0  0  0  0
   48.0832  -35.6620   -9.9429 O   0  0  0  0  0  0  0  0  0  0  0  0
   48.8262  -34.5767   -7.5201 C   0  0  0  0  0  0  0  0  0  0  0  0
   47.6593  -34.6096   -6.5687 C   0  0  0  0  0  0  0  0  0  0  0  0
   48.0212  -35.1139   -5.1860 C   0  0  0  0  0  0  0  0  0  0  0  0
   48.7697  -34.0085   -4.4798 C   0  0  0  0  0  0  0  0  0  0  0  0
   47.9846  -33.3578   -3.4585 N   0  0  0  0  0  0  0  0  0  0  0  0
   47.7749  -37.7059   -9.0195 N   0  0  0  0  0  0  0  0  0  0  0  0
   46.3373  -37.9316   -9.2820 C   0  0  2  0  0  0  0  0  0  0  0  0
   45.5847  -36.7161   -9.4540 C   0  0  0  0  0  0  0  0  0  0  0  0
   45.9353  -35.6724   -8.7958 O   0  0  0  0  0  0  0  0  0  0  0  0
   45.8295  -38.9632   -8.2902 C   0  0  0  0  0  0  0  0  0  0  0  0
   45.6440  -38.5080   -6.9141 C   0  0  0  0  0  0  0  0  0  0  0  0
   45.1858  -39.3139   -5.8009 C   0  0  0  0  0  0  0  0  0  0  0  0
   44.9583  -38.7770   -4.4584 C   0  0  0  0  0  0  0  0  0  0  0  0
   44.5796  -39.7262   -3.4729 N   0  0  0  0  0  4  0  0  0  0  0  0
   44.4712  -36.5679  -10.3122 N   0  0  0  0  0  0  0  0  0  0  0  0
   44.0118  -37.5436  -11.2289 C   0  0  0  0  0  0  0  0  0  0  0  0
   44.5429  -37.2788  -12.5850 C   0  0  0  0  0  0  0  0  0  0  0  0
   44.5354  -38.2827  -13.5300 C   0  0  0  0  0  0  0  0  0  0  0  0
   45.0194  -38.0507  -14.8244 C   0  0  0  0  0  0  0  0  0  0  0  0
   45.5126  -36.8181  -15.1805 C   0  0  0  0  0  0  0  0  0  0  0  0
   46.0243  -36.5498  -16.5159 C   0  0  0  0  0  0  0  0  0  0  0  0
   46.4297  -35.2416  -16.8555 N   0  0  0  0  0  0  0  0  0  0  0  0
   46.1081  -37.4787  -17.3754 N   0  0  0  0  0  0  0  0  0  0  0  0
   45.5019  -35.8443  -14.2064 C   0  0  0  0  0  0  0  0  0  0  0  0
   45.0405  -36.0349  -12.9440 C   0  0  0  0  0  0  0  0  0  0  0  0
   52.6500  -33.3844   -2.2643 C   0  0  0  0  0  0  0  0  0  0  0  0
   51.4748  -33.8020   -1.4642 C   0  0  0  0  0  0  0  0  0  0  0  0
   50.6617  -32.5167   -1.2386 C   0  0  0  0  0  0  0  0  0  0  0  0
   50.0132  -32.1743   -2.5556 C   0  0  0  0  0  0  0  0  0  0  0  0
   48.5624  -32.4751   -2.5389 C   0  0  0  0  0  0  0  0  0  0  0  0
   53.2698  -32.3655   -1.7908 O   0  0  0  0  0  0  0  0  0  0  0  0
   47.8642  -31.8884   -1.6433 O   0  0  0  0  0  0  0  0  0  0  0  0
   55.2759  -30.9342    1.3551 H   0  0  0  0  0  0  0  0  0  0  0  0
   56.0030  -33.4641   -1.9632 H   0  0  0  0  0  0  0  0  0  0  0  0
   45.5147  -38.3241  -17.3766 H   0  0  0  0  0  0  0  0  0  0  0  0
  1  2  1  0
  1 52  1  0
  2  3  1  0
  2  5  1  1
  3  4  2  0
  3 12  1  0
  5  6  1  0
  6  7  1  0
  7  8  1  0
  8  9  1  0
  9 10  1  0
  9 11  2  0
 12 13  1  0
 13 14  1  0
 13 16  1  6
 14 15  2  0
 14 23  1  0
 16 17  1  0
 17 18  1  0
 18 19  1  0
 19 20  1  0
 20 21  2  0
 20 22  1  0
 23 24  1  0
 24 25  1  6
 24 27  1  0
 25 26  2  0
 25 32  1  0
 27 28  1  0
 28 29  1  0
 29 30  1  0
 30 31  1  0
 31 56  1  0
 32 33  1  0
 33 34  1  0
 33 36  1  1
 34 35  2  0
 34 41  1  0
 36 37  1  0
 37 38  1  0
 38 39  1  0
 39 40  1  0
 41 42  1  0
 42 43  1  0
 43 44  2  0
 43 51  1  0
 44 45  1  0
 45 46  2  0
 46 47  1  0
 46 50  1  0
 47 48  1  0
 47 49  2  0
 50 51  2  0
 52 53  1  0
 52 57  2  0
 53 54  1  0
 54 55  1  0
 55 56  1  0
 56 58  2  0
 11 59  1  0
 21 60  1  0
 49 61  1  0
M  CHG  1  40   1
M  END
$$$$
