
     RDKit          3D

 61 62  0  0  0  0  0  0  0  0999 V2000
   51.5482  -36.3102   -4.5830 N   0  0  0  0  0  0  0  0  0  0  0  0
   50.8848  -35.0454   -4.5462 C   0  0  2  0  0  0  0  0  0  0  0  0
   49.9691  -34.7902   -5.6871 C   0  0  0  0  0  0  0  0  0  0  0  0
   49.8531  -33.5370   -6.0051 O   0  0  0  0  0  0  0  0  0  0  0  0
   51.8621  -33.8935   -4.3887 C   0  0  0  0  0  0  0  0  0  0  0  0
   52.2647  -33.6174   -2.9912 C   0  0  0  0  0  0  0  0  0  0  0  0
   51.6193  -34.5375   -1.9809 C   0  0  0  0  0  0  0  0  0  0  0  0
   52.0846  -34.1531   -0.6620 N   0  0  0  0  0  0  0  0  0  0  0  0
   51.3929  -34.5240    0.5368 C   0  0  0  0  0  0  0  0  0  0  0  0
   51.8044  -35.6069    1.3431 N   0  0  0  0  0  0  0  0  0  0  0  0
   50.3632  -33.8448    0.8879 N   0  0  0  0  0  0  0  0  0  0  0  0
   49.2386  -35.6777   -6.4450 N   0  0  0  0  0  0  0  0  0  0  0  0
   48.1892  -36.6227   -6.0417 C   0  0  2  0  0  0  0  0  0  0  0  0
   47.0756  -36.5906   -7.0353 C   0  0  0  0  0  0  0  0  0  0  0  0
   46.0395  -37.2807   -6.7122 O   0  0  0  0  0  0  0  0  0  0  0  0
   47.7804  -36.4143   -4.6303 C   0  0  0  0  0  0  0  0  0  0  0  0
   47.6778  -34.9862   -4.2043 C   0  0  0  0  0  0  0  0  0  0  0  0
   48.7510  -34.1204   -4.8582 C   0  0  0  0  0  0  0  0  0  0  0  0
   48.6646  -32.7541   -4.3963 N   0  0  0  0  0  0  0  0  0  0  0  0
   49.6948  -31.8108   -4.6522 C   0  0  0  0  0  0  0  0  0  0  0  0
   50.8696  -32.2617   -4.9505 N   0  0  0  0  0  0  0  0  0  0  0  0
   49.3972  -30.4158   -4.5728 N   0  0  0  0  0  0  0  0  0  0  0  0
   46.9991  -35.9286   -8.2455 N   0  0  0  0  0  0  0  0  0  0  0  0
   47.7449  -36.0629   -9.4674 C   0  0  2  0  0  0  0  0  0  0  0  0
   46.7654  -36.0357  -10.6205 C   0  0  0  0  0  0  0  0  0  0  0  0
   47.1119  -35.6145  -11.7693 O   0  0  0  0  0  0  0  0  0  0  0  0
   48.4951  -37.3392   -9.6052 C   0  0  0  0  0  0  0  0  0  0  0  0
   49.6393  -37.1614  -10.5682 C   0  0  0  0  0  0  0  0  0  0  0  0
   50.7323  -36.2506  -10.0460 C   0  0  0  0  0  0  0  0  0  0  0  0
   51.5148  -37.0249   -9.0120 C   0  0  0  0  0  0  0  0  0  0  0  0
   52.8155  -37.4385   -9.4812 N   0  0  0  0  0  0  0  0  0  0  0  0
   45.4274  -36.4650  -10.5185 N   0  0  0  0  0  0  0  0  0  0  0  0
   45.0418  -37.8672  -10.2507 C   0  0  2  0  0  0  0  0  0  0  0  0
   44.1365  -38.4131  -11.2284 C   0  0  0  0  0  0  0  0  0  0  0  0
   43.4275  -37.6090  -11.9328 O   0  0  0  0  0  0  0  0  0  0  0  0
   44.6789  -37.9878   -8.7812 C   0  0  0  0  0  0  0  0  0  0  0  0
   45.5359  -38.8466   -7.9668 C   0  0  0  0  0  0  0  0  0  0  0  0
   45.3340  -39.1806   -6.5717 C   0  0  0  0  0  0  0  0  0  0  0  0
   45.7630  -40.4473   -5.9770 C   0  0  0  0  0  0  0  0  0  0  0  0
   45.4781  -40.6052   -4.5952 N   0  0  0  0  0  4  0  0  0  0  0  0
   43.9632  -39.7913  -11.4908 N   0  0  0  0  0  0  0  0  0  0  0  0
   44.6886  -40.5368  -12.4507 C   0  0  0  0  0  0  0  0  0  0  0  0
   44.4382  -40.0183  -13.8144 C   0  0  0  0  0  0  0  0  0  0  0  0
   43.6803  -40.7569  -14.6980 C   0  0  0  0  0  0  0  0  0  0  0  0
   43.4181  -40.2793  -15.9890 C   0  0  0  0  0  0  0  0  0  0  0  0
   43.9107  -39.0648  -16.4032 C   0  0  0  0  0  0  0  0  0  0  0  0
   43.6569  -38.5455  -17.7385 C   0  0  0  0  0  0  0  0  0  0  0  0
   44.2762  -37.3453  -18.1473 N   0  0  0  0  0  0  0  0  0  0  0  0
   42.8853  -39.1600  -18.5357 N   0  0  0  0  0  0  0  0  0  0  0  0
   44.6628  -38.3599  -15.4895 C   0  0  0  0  0  0  0  0  0  0  0  0
   44.9356  -38.7927  -14.2319 C   0  0  0  0  0  0  0  0  0  0  0  0
   52.9055  -36.5815   -4.7430 C   0  0  0  0  0  0  0  0  0  0  0  0
   53.8108  -36.0809   -5.8040 C   0  0  0  0  0  0  0  0  0  0  0  0
   54.5307  -37.3280   -6.3431 C   0  0  0  0  0  0  0  0  0  0  0  0
   53.5212  -38.0962   -7.1574 C   0  0  0  0  0  0  0  0  0  0  0  0
   53.7794  -37.9581   -8.6098 C   0  0  0  0  0  0  0  0  0  0  0  0
   53.4751  -37.3530   -3.8905 O   0  0  0  0  0  0  0  0  0  0  0  0
   54.9263  -38.3373   -9.0281 O   0  0  0  0  0  0  0  0  0  0  0  0
   49.4430  -34.3035    1.0424 H   0  0  0  0  0  0  0  0  0  0  0  0
   51.2110  -32.2013   -5.9208 H   0  0  0  0  0  0  0  0  0  0  0  0
   42.5650  -40.1325  -18.4001 H   0  0  0  0  0  0  0  0  0  0  0  0
  1  2  1  0
  1 52  1  0
  2  3  1  0
  2  5  1  6
  3  4  2  0
  3 12  1  0
  5  6  1  0
  6  7  1  0
  7  8  1  0
  8  9  1  0
  9 10  1  0
  9 11  2  0
 12 13  1  0
 13 14  1  0
 13 16  1  1
 14 15  2  0
 14 23  1  0
 16 17  1  0
 17 18  1  0
 18 19  1  0
 19 20  1  0
 20 21  2  0
 20 22  1  0
 23 24  1  0
 24 25  1  6
 24 27  1  0
 25 26  2  0
 25 32  1  0
 27 28  1  0
 28 29  1  0
 29 30  1  0
 30 31  1  0
 31 56  1  0
 32 33  1  0
 33 34  1  0
 33 36  1  1
 34 35  2  0
 34 41  1  0
 36 37  1  0
 37 38  1  0
 38 39  1  0
 39 40  1  0
 41 42  1  0
 42 43  1  0
 43 44  2  0
 43 51  1  0
 44 45  1  0
 45 46  2  0
 46 47  1  0
 46 50  1  0
 47 48  1  0
 47 49  2  0
 50 51  2  0
 52 53  1  0
 52 57  2  0
 53 54  1  0
 54 55  1  0
 55 56  1  0
 56 58  2  0
 11 59  1  0
 21 60  1  0
 49 61  1  0
M  CHG  1  40   1
M  END
$$$$
