
     RDKit          3D

 61 62  0  0  0  0  0  0  0  0999 V2000
   52.6195  -34.3109   -4.5095 N   0  0  0  0  0  0  0  0  0  0  0  0
   51.8935  -33.3358   -5.2600 C   0  0  2  0  0  0  0  0  0  0  0  0
   51.1672  -33.8728   -6.4387 C   0  0  0  0  0  0  0  0  0  0  0  0
   51.0396  -33.0266   -7.4148 O   0  0  0  0  0  0  0  0  0  0  0  0
   52.7692  -32.1648   -5.6708 C   0  0  0  0  0  0  0  0  0  0  0  0
   52.3323  -30.8551   -5.1367 C   0  0  0  0  0  0  0  0  0  0  0  0
   51.7563  -30.9305   -3.7416 C   0  0  0  0  0  0  0  0  0  0  0  0
   52.8160  -31.3398   -2.8399 N   0  0  0  0  0  0  0  0  0  0  0  0
   53.0187  -30.7258   -1.5611 C   0  0  0  0  0  0  0  0  0  0  0  0
   54.1228  -31.0378   -0.7389 N   0  0  0  0  0  0  0  0  0  0  0  0
   52.1647  -29.8611   -1.1517 N   0  0  0  0  0  0  0  0  0  0  0  0
   50.6200  -35.1197   -6.6424 N   0  0  0  0  0  0  0  0  0  0  0  0
   49.5695  -35.8231   -5.8949 C   0  0  2  0  0  0  0  0  0  0  0  0
   48.6356  -36.4909   -6.8490 C   0  0  0  0  0  0  0  0  0  0  0  0
   47.5982  -37.0257   -6.3088 O   0  0  0  0  0  0  0  0  0  0  0  0
   48.9223  -34.9353   -4.8971 C   0  0  0  0  0  0  0  0  0  0  0  0
   49.8625  -34.1937   -4.0042 C   0  0  0  0  0  0  0  0  0  0  0  0
   49.6146  -34.5092   -2.5317 C   0  0  0  0  0  0  0  0  0  0  0  0
   50.5801  -33.8400   -1.6905 N   0  0  0  0  0  0  0  0  0  0  0  0
   50.5450  -33.9520   -0.2753 C   0  0  0  0  0  0  0  0  0  0  0  0
   51.6022  -33.6100    0.3864 N   0  0  0  0  0  0  0  0  0  0  0  0
   49.3566  -34.4311    0.3562 N   0  0  0  0  0  0  0  0  0  0  0  0
   48.7259  -36.6154   -8.2220 N   0  0  0  0  0  0  0  0  0  0  0  0
   49.6697  -37.2925   -9.0694 C   0  0  2  0  0  0  0  0  0  0  0  0
   48.8945  -38.0332  -10.1372 C   0  0  0  0  0  0  0  0  0  0  0  0
   48.2400  -39.0886   -9.8635 O   0  0  0  0  0  0  0  0  0  0  0  0
   50.4985  -38.3205   -8.3860 C   0  0  0  0  0  0  0  0  0  0  0  0
   51.7753  -38.5441   -9.1527 C   0  0  0  0  0  0  0  0  0  0  0  0
   52.7174  -37.3574   -9.1164 C   0  0  0  0  0  0  0  0  0  0  0  0
   53.3575  -37.3259   -7.7489 C   0  0  0  0  0  0  0  0  0  0  0  0
   54.7378  -37.7471   -7.7617 N   0  0  0  0  0  0  0  0  0  0  0  0
   48.8345  -37.6238  -11.4840 N   0  0  0  0  0  0  0  0  0  0  0  0
   48.1127  -36.4145  -11.9346 C   0  0  2  0  0  0  0  0  0  0  0  0
   46.9991  -36.6974  -12.8024 C   0  0  0  0  0  0  0  0  0  0  0  0
   47.1662  -36.6135  -14.0715 O   0  0  0  0  0  0  0  0  0  0  0  0
   49.1383  -35.3888  -12.3839 C   0  0  0  0  0  0  0  0  0  0  0  0
   48.8273  -33.9893  -12.1010 C   0  0  0  0  0  0  0  0  0  0  0  0
   49.0350  -33.3045  -10.8415 C   0  0  0  0  0  0  0  0  0  0  0  0
   50.1897  -32.4461  -10.5728 C   0  0  0  0  0  0  0  0  0  0  0  0
   50.1689  -31.7590   -9.3306 N   0  0  0  0  0  4  0  0  0  0  0  0
   45.7089  -37.0766  -12.3665 N   0  0  0  0  0  0  0  0  0  0  0  0
   45.3666  -38.3424  -11.8339 C   0  0  0  0  0  0  0  0  0  0  0  0
   44.7152  -38.1956  -10.5128 C   0  0  0  0  0  0  0  0  0  0  0  0
   44.2206  -39.3088   -9.8672 C   0  0  0  0  0  0  0  0  0  0  0  0
   43.6132  -39.1959   -8.6095 C   0  0  0  0  0  0  0  0  0  0  0  0
   43.4965  -37.9734   -7.9920 C   0  0  0  0  0  0  0  0  0  0  0  0
   42.8680  -37.8261   -6.6880 C   0  0  0  0  0  0  0  0  0  0  0  0
   42.2633  -38.9451   -6.0770 N   0  0  0  0  0  0  0  0  0  0  0  0
   42.8580  -36.7036   -6.0976 N   0  0  0  0  0  0  0  0  0  0  0  0
   44.0033  -36.8878   -8.6717 C   0  0  0  0  0  0  0  0  0  0  0  0
   44.5976  -36.9618   -9.8901 C   0  0  0  0  0  0  0  0  0  0  0  0
   53.9969  -34.4380   -4.3421 C   0  0  0  0  0  0  0  0  0  0  0  0
   55.0377  -34.4807   -5.3960 C   0  0  0  0  0  0  0  0  0  0  0  0
   55.9016  -35.7079   -5.0618 C   0  0  0  0  0  0  0  0  0  0  0  0
   55.0827  -36.9250   -5.4088 C   0  0  0  0  0  0  0  0  0  0  0  0
   55.5703  -37.5693   -6.6508 C   0  0  0  0  0  0  0  0  0  0  0  0
   54.4574  -34.5322   -3.1482 O   0  0  0  0  0  0  0  0  0  0  0  0
   56.7889  -37.9552   -6.6578 O   0  0  0  0  0  0  0  0  0  0  0  0
   52.4417  -29.0953   -0.5053 H   0  0  0  0  0  0  0  0  0  0  0  0
   51.5503  -32.8475    1.0775 H   0  0  0  0  0  0  0  0  0  0  0  0
   43.1261  -35.8110   -6.5427 H   0  0  0  0  0  0  0  0  0  0  0  0
  1  2  1  0
  1 52  1  0
  2  3  1  0
  2  5  1  6
  3  4  2  0
  3 12  1  0
  5  6  1  0
  6  7  1  0
  7  8  1  0
  8  9  1  0
  9 10  1  0
  9 11  2  0
 12 13  1  0
 13 14  1  0
 13 16  1  6
 14 15  2  0
 14 23  1  0
 16 17  1  0
 17 18  1  0
 18 19  1  0
 19 20  1  0
 20 21  2  0
 20 22  1  0
 23 24  1  0
 24 25  1  6
 24 27  1  0
 25 26  2  0
 25 32  1  0
 27 28  1  0
 28 29  1  0
 29 30  1  0
 30 31  1  0
 31 56  1  0
 32 33  1  0
 33 34  1  0
 33 36  1  6
 34 35  2  0
 34 41  1  0
 36 37  1  0
 37 38  1  0
 38 39  1  0
 39 40  1  0
 41 42  1  0
 42 43  1  0
 43 44  2  0
 43 51  1  0
 44 45  1  0
 45 46  2  0
 46 47  1  0
 46 50  1  0
 47 48  1  0
 47 49  2  0
 50 51  2  0
 52 53  1  0
 52 57  2  0
 53 54  1  0
 54 55  1  0
 55 56  1  0
 56 58  2  0
 11 59  1  0
 21 60  1  0
 49 61  1  0
M  CHG  1  40   1
M  END
$$$$
