
     RDKit          3D

 61 62  0  0  0  0  0  0  0  0999 V2000
   52.9972  -35.4616   -3.6855 N   0  0  0  0  0  0  0  0  0  0  0  0
   52.4471  -34.2191   -3.2443 C   0  0  2  0  0  0  0  0  0  0  0  0
   51.2671  -33.7526   -4.0160 C   0  0  0  0  0  0  0  0  0  0  0  0
   51.1425  -32.4616   -4.0671 O   0  0  0  0  0  0  0  0  0  0  0  0
   53.4968  -33.1234   -3.1755 C   0  0  0  0  0  0  0  0  0  0  0  0
   53.9855  -32.8271   -1.8100 C   0  0  0  0  0  0  0  0  0  0  0  0
   54.0046  -34.0318   -0.8977 C   0  0  0  0  0  0  0  0  0  0  0  0
   54.5077  -33.6081    0.3949 N   0  0  0  0  0  0  0  0  0  0  0  0
   53.6755  -33.5368    1.5593 C   0  0  0  0  0  0  0  0  0  0  0  0
   54.1465  -33.0477    2.7967 N   0  0  0  0  0  0  0  0  0  0  0  0
   52.4586  -33.9318    1.4706 N   0  0  0  0  0  0  0  0  0  0  0  0
   50.3029  -34.4810   -4.6757 N   0  0  0  0  0  0  0  0  0  0  0  0
   49.3526  -35.4747   -4.1595 C   0  0  2  0  0  0  0  0  0  0  0  0
   48.0105  -35.2528   -4.7743 C   0  0  0  0  0  0  0  0  0  0  0  0
   47.0659  -35.9814   -4.2937 O   0  0  0  0  0  0  0  0  0  0  0  0
   49.3659  -35.5233   -2.6763 C   0  0  0  0  0  0  0  0  0  0  0  0
   50.6765  -35.1884   -2.0427 C   0  0  0  0  0  0  0  0  0  0  0  0
   51.4763  -34.1969   -2.8833 C   0  0  0  0  0  0  0  0  0  0  0  0
   50.7781  -32.9373   -2.9994 N   0  0  0  0  0  0  0  0  0  0  0  0
   51.3606  -31.7160   -2.5685 C   0  0  0  0  0  0  0  0  0  0  0  0
   51.2422  -30.6831   -3.3376 N   0  0  0  0  0  0  0  0  0  0  0  0
   52.0458  -31.6750   -1.3156 N   0  0  0  0  0  0  0  0  0  0  0  0
   47.6401  -34.3809   -5.7799 N   0  0  0  0  0  0  0  0  0  0  0  0
   48.0070  -34.2969   -7.1676 C   0  0  2  0  0  0  0  0  0  0  0  0
   46.7488  -34.0518   -7.9717 C   0  0  0  0  0  0  0  0  0  0  0  0
   46.1160  -32.9521   -7.8860 O   0  0  0  0  0  0  0  0  0  0  0  0
   48.6115  -35.5330   -7.7307 C   0  0  0  0  0  0  0  0  0  0  0  0
   49.4511  -35.1927   -8.9338 C   0  0  0  0  0  0  0  0  0  0  0  0
   50.6987  -34.4015   -8.5954 C   0  0  0  0  0  0  0  0  0  0  0  0
   51.6902  -35.3577   -7.9761 C   0  0  0  0  0  0  0  0  0  0  0  0
   52.7818  -35.6901   -8.8598 N   0  0  0  0  0  0  0  0  0  0  0  0
   46.1927  -34.9951   -8.8583 N   0  0  0  0  0  0  0  0  0  0  0  0
   46.9099  -36.2064   -9.3110 C   0  0  2  0  0  0  0  0  0  0  0  0
   46.2100  -36.9434  -10.3310 C   0  0  0  0  0  0  0  0  0  0  0  0
   45.0581  -37.4374  -10.0578 O   0  0  0  0  0  0  0  0  0  0  0  0
   47.3997  -36.9551   -8.0842 C   0  0  0  0  0  0  0  0  0  0  0  0
   48.5675  -37.8140   -8.2681 C   0  0  0  0  0  0  0  0  0  0  0  0
   49.6112  -38.0589   -7.2938 C   0  0  0  0  0  0  0  0  0  0  0  0
   50.5209  -39.2036   -7.3592 C   0  0  0  0  0  0  0  0  0  0  0  0
   51.1157  -39.5871   -6.1285 N   0  0  0  0  0  4  0  0  0  0  0  0
   46.6906  -37.1682  -11.6413 N   0  0  0  0  0  0  0  0  0  0  0  0
   45.8829  -37.2903  -12.7971 C   0  0  0  0  0  0  0  0  0  0  0  0
   45.2647  -38.6337  -12.8643 C   0  0  0  0  0  0  0  0  0  0  0  0
   43.8955  -38.7513  -12.9740 C   0  0  0  0  0  0  0  0  0  0  0  0
   43.2896  -40.0123  -13.0539 C   0  0  0  0  0  0  0  0  0  0  0  0
   44.0463  -41.1593  -13.0241 C   0  0  0  0  0  0  0  0  0  0  0  0
   43.4440  -42.4816  -13.1021 C   0  0  0  0  0  0  0  0  0  0  0  0
   44.2723  -43.6240  -13.1051 N   0  0  0  0  0  0  0  0  0  0  0  0
   42.1847  -42.6160  -13.1683 N   0  0  0  0  0  0  0  0  0  0  0  0
   45.4096  -40.9966  -12.9133 C   0  0  0  0  0  0  0  0  0  0  0  0
   46.0287  -39.7910  -12.8341 C   0  0  0  0  0  0  0  0  0  0  0  0
   54.2377  -35.7108   -4.2693 C   0  0  0  0  0  0  0  0  0  0  0  0
   54.8403  -35.0331   -5.4412 C   0  0  0  0  0  0  0  0  0  0  0  0
   55.3058  -36.1673   -6.3691 C   0  0  0  0  0  0  0  0  0  0  0  0
   54.0656  -36.7658   -6.9822 C   0  0  0  0  0  0  0  0  0  0  0  0
   53.9173  -36.3678   -8.4017 C   0  0  0  0  0  0  0  0  0  0  0  0
   54.9748  -36.6294   -3.7601 O   0  0  0  0  0  0  0  0  0  0  0  0
   54.8777  -36.6742   -9.1876 O   0  0  0  0  0  0  0  0  0  0  0  0
   52.0410  -34.5545    2.1909 H   0  0  0  0  0  0  0  0  0  0  0  0
   51.6843  -29.7914   -3.0705 H   0  0  0  0  0  0  0  0  0  0  0  0
   41.5211  -41.8306  -13.2666 H   0  0  0  0  0  0  0  0  0  0  0  0
  1  2  1  0
  1 52  1  0
  2  3  1  0
  2  5  1  6
  3  4  2  0
  3 12  1  0
  5  6  1  0
  6  7  1  0
  7  8  1  0
  8  9  1  0
  9 10  1  0
  9 11  2  0
 12 13  1  0
 13 14  1  0
 13 16  1  1
 14 15  2  0
 14 23  1  0
 16 17  1  0
 17 18  1  0
 18 19  1  0
 19 20  1  0
 20 21  2  0
 20 22  1  0
 23 24  1  0
 24 25  1  6
 24 27  1  0
 25 26  2  0
 25 32  1  0
 27 28  1  0
 28 29  1  0
 29 30  1  0
 30 31  1  0
 31 56  1  0
 32 33  1  0
 33 34  1  0
 33 36  1  1
 34 35  2  0
 34 41  1  0
 36 37  1  0
 37 38  1  0
 38 39  1  0
 39 40  1  0
 41 42  1  0
 42 43  1  0
 43 44  2  0
 43 51  1  0
 44 45  1  0
 45 46  2  0
 46 47  1  0
 46 50  1  0
 47 48  1  0
 47 49  2  0
 50 51  2  0
 52 53  1  0
 52 57  2  0
 53 54  1  0
 54 55  1  0
 55 56  1  0
 56 58  2  0
 11 59  1  0
 21 60  1  0
 49 61  1  0
M  CHG  1  40   1
M  END
$$$$
