
     RDKit          3D

 61 62  0  0  0  0  0  0  0  0999 V2000
   52.1959  -36.2808   -5.9881 N   0  0  0  0  0  0  0  0  0  0  0  0
   51.2692  -35.2828   -5.5564 C   0  0  2  0  0  0  0  0  0  0  0  0
   50.1947  -34.9684   -6.5321 C   0  0  0  0  0  0  0  0  0  0  0  0
   49.7592  -33.7473   -6.4675 O   0  0  0  0  0  0  0  0  0  0  0  0
   51.9683  -34.0084   -5.1156 C   0  0  0  0  0  0  0  0  0  0  0  0
   52.2759  -33.9466   -3.6689 C   0  0  0  0  0  0  0  0  0  0  0  0
   51.3722  -34.8098   -2.8191 C   0  0  0  0  0  0  0  0  0  0  0  0
   52.1543  -35.3231   -1.7107 N   0  0  0  0  0  0  0  0  0  0  0  0
   52.5099  -34.5168   -0.5807 C   0  0  0  0  0  0  0  0  0  0  0  0
   51.5962  -34.2183    0.4528 N   0  0  0  0  0  0  0  0  0  0  0  0
   53.7028  -34.0517   -0.5082 N   0  0  0  0  0  0  0  0  0  0  0  0
   49.6049  -35.7727   -7.4813 N   0  0  0  0  0  0  0  0  0  0  0  0
   48.8532  -37.0244   -7.3228 C   0  0  2  0  0  0  0  0  0  0  0  0
   47.6553  -37.0070   -8.2134 C   0  0  0  0  0  0  0  0  0  0  0  0
   46.8490  -37.9969   -8.0582 O   0  0  0  0  0  0  0  0  0  0  0  0
   48.5723  -37.3149   -5.8947 C   0  0  0  0  0  0  0  0  0  0  0  0
   47.9705  -36.1854   -5.1244 C   0  0  0  0  0  0  0  0  0  0  0  0
   47.8686  -34.9158   -5.9652 C   0  0  0  0  0  0  0  0  0  0  0  0
   47.2305  -33.8539   -5.2218 N   0  0  0  0  0  0  0  0  0  0  0  0
   47.9508  -32.7135   -4.7775 C   0  0  0  0  0  0  0  0  0  0  0  0
   47.3176  -31.5885   -4.7007 N   0  0  0  0  0  0  0  0  0  0  0  0
   49.3308  -32.8512   -4.4350 N   0  0  0  0  0  0  0  0  0  0  0  0
   47.2910  -36.0844   -9.1750 N   0  0  0  0  0  0  0  0  0  0  0  0
   47.9024  -35.6911  -10.4155 C   0  0  2  0  0  0  0  0  0  0  0  0
   46.8170  -35.6014  -11.4660 C   0  0  0  0  0  0  0  0  0  0  0  0
   46.9345  -34.8302  -12.4703 O   0  0  0  0  0  0  0  0  0  0  0  0
   48.9040  -36.6507  -10.9509 C   0  0  0  0  0  0  0  0  0  0  0  0
   49.8588  -35.9369  -11.8712 C   0  0  0  0  0  0  0  0  0  0  0  0
   50.7668  -34.9559  -11.1568 C   0  0  0  0  0  0  0  0  0  0  0  0
   51.8191  -35.7573  -10.4279 C   0  0  0  0  0  0  0  0  0  0  0  0
   53.1172  -35.6870  -11.0546 N   0  0  0  0  0  0  0  0  0  0  0  0
   45.6220  -36.3463  -11.4195 N   0  0  0  0  0  0  0  0  0  0  0  0
   45.4517  -37.5587  -10.5903 C   0  0  2  0  0  0  0  0  0  0  0  0
   44.2596  -38.3054  -10.8987 C   0  0  0  0  0  0  0  0  0  0  0  0
   43.1314  -37.6951  -10.9062 O   0  0  0  0  0  0  0  0  0  0  0  0
   45.7180  -37.1858   -9.1428 C   0  0  0  0  0  0  0  0  0  0  0  0
   47.0587  -37.4666   -8.6336 C   0  0  0  0  0  0  0  0  0  0  0  0
   47.3783  -38.1605   -7.4029 C   0  0  0  0  0  0  0  0  0  0  0  0
   46.4900  -38.1876   -6.2400 C   0  0  0  0  0  0  0  0  0  0  0  0
   47.1171  -38.4489   -4.9934 N   0  0  0  0  0  4  0  0  0  0  0  0
   44.2255  -39.6841  -11.2091 N   0  0  0  0  0  0  0  0  0  0  0  0
   45.1987  -40.3733  -11.9714 C   0  0  0  0  0  0  0  0  0  0  0  0
   44.7744  -40.4835  -13.3853 C   0  0  0  0  0  0  0  0  0  0  0  0
   45.5079  -41.2556  -14.2608 C   0  0  0  0  0  0  0  0  0  0  0  0
   45.1169  -41.3862  -15.6001 C   0  0  0  0  0  0  0  0  0  0  0  0
   43.9944  -40.7476  -16.0706 C   0  0  0  0  0  0  0  0  0  0  0  0
   43.5667  -40.8630  -17.4566 C   0  0  0  0  0  0  0  0  0  0  0  0
   42.6296  -39.9436  -17.9740 N   0  0  0  0  0  0  0  0  0  0  0  0
   44.0267  -41.7806  -18.2015 N   0  0  0  0  0  0  0  0  0  0  0  0
   43.2913  -39.9866  -15.1630 C   0  0  0  0  0  0  0  0  0  0  0  0
   43.6416  -39.8388  -13.8597 C   0  0  0  0  0  0  0  0  0  0  0  0
   53.5517  -36.1474   -6.2805 C   0  0  0  0  0  0  0  0  0  0  0  0
   54.1904  -35.1674   -7.1902 C   0  0  0  0  0  0  0  0  0  0  0  0
   55.1100  -35.9991   -8.0994 C   0  0  0  0  0  0  0  0  0  0  0  0
   54.2167  -36.7476   -9.0554 C   0  0  0  0  0  0  0  0  0  0  0  0
   54.2680  -36.1620  -10.4155 C   0  0  0  0  0  0  0  0  0  0  0  0
   54.3768  -36.9509   -5.7147 O   0  0  0  0  0  0  0  0  0  0  0  0
   55.4155  -36.1122  -10.9766 O   0  0  0  0  0  0  0  0  0  0  0  0
   54.2265  -34.0508    0.3900 H   0  0  0  0  0  0  0  0  0  0  0  0
   47.3457  -31.0428   -3.8271 H   0  0  0  0  0  0  0  0  0  0  0  0
   44.7568  -42.4517  -17.9127 H   0  0  0  0  0  0  0  0  0  0  0  0
  1  2  1  0
  1 52  1  0
  2  3  1  0
  2  5  1  6
  3  4  2  0
  3 12  1  0
  5  6  1  0
  6  7  1  0
  7  8  1  0
  8  9  1  0
  9 10  1  0
  9 11  2  0
 12 13  1  0
 13 14  1  0
 13 16  1  1
 14 15  2  0
 14 23  1  0
 16 17  1  0
 17 18  1  0
 18 19  1  0
 19 20  1  0
 20 21  2  0
 20 22  1  0
 23 24  1  0
 24 25  1  6
 24 27  1  0
 25 26  2  0
 25 32  1  0
 27 28  1  0
 28 29  1  0
 29 30  1  0
 30 31  1  0
 31 56  1  0
 32 33  1  0
 33 34  1  0
 33 36  1  1
 34 35  2  0
 34 41  1  0
 36 37  1  0
 37 38  1  0
 38 39  1  0
 39 40  1  0
 41 42  1  0
 42 43  1  0
 43 44  2  0
 43 51  1  0
 44 45  1  0
 45 46  2  0
 46 47  1  0
 46 50  1  0
 47 48  1  0
 47 49  2  0
 50 51  2  0
 52 53  1  0
 52 57  2  0
 53 54  1  0
 54 55  1  0
 55 56  1  0
 56 58  2  0
 11 59  1  0
 21 60  1  0
 49 61  1  0
M  CHG  1  40   1
M  END
$$$$
