
     RDKit          3D

 61 62  0  0  0  0  0  0  0  0999 V2000
   52.9122  -35.4607   -6.2371 N   0  0  0  0  0  0  0  0  0  0  0  0
   51.9881  -34.4651   -5.7945 C   0  0  2  0  0  0  0  0  0  0  0  0
   50.8187  -34.2616   -6.6869 C   0  0  0  0  0  0  0  0  0  0  0  0
   50.3414  -33.0546   -6.6701 O   0  0  0  0  0  0  0  0  0  0  0  0
   52.6714  -33.1383   -5.5126 C   0  0  0  0  0  0  0  0  0  0  0  0
   53.4140  -33.0905   -4.2329 C   0  0  0  0  0  0  0  0  0  0  0  0
   53.1143  -34.2522   -3.3138 C   0  0  0  0  0  0  0  0  0  0  0  0
   54.1032  -34.2518   -2.2528 N   0  0  0  0  0  0  0  0  0  0  0  0
   55.3982  -34.8457   -2.4071 C   0  0  0  0  0  0  0  0  0  0  0  0
   56.3182  -34.9413   -1.3410 N   0  0  0  0  0  0  0  0  0  0  0  0
   55.7300  -35.3072   -3.5567 N   0  0  0  0  0  0  0  0  0  0  0  0
   50.1794  -35.1545   -7.5174 N   0  0  0  0  0  0  0  0  0  0  0  0
   49.4964  -36.4155   -7.2009 C   0  0  2  0  0  0  0  0  0  0  0  0
   48.2239  -36.5058   -7.9761 C   0  0  0  0  0  0  0  0  0  0  0  0
   47.4756  -37.5080   -7.6766 O   0  0  0  0  0  0  0  0  0  0  0  0
   49.3565  -36.6074   -5.7358 C   0  0  0  0  0  0  0  0  0  0  0  0
   49.9987  -35.5535   -4.8943 C   0  0  0  0  0  0  0  0  0  0  0  0
   49.2056  -34.2497   -4.9145 C   0  0  0  0  0  0  0  0  0  0  0  0
   48.1175  -34.2924   -3.9649 N   0  0  0  0  0  0  0  0  0  0  0  0
   47.3179  -33.1513   -3.6907 C   0  0  0  0  0  0  0  0  0  0  0  0
   47.7697  -32.2833   -2.8453 N   0  0  0  0  0  0  0  0  0  0  0  0
   46.0602  -33.0068   -4.3527 N   0  0  0  0  0  0  0  0  0  0  0  0
   47.7378  -35.6709   -8.9637 N   0  0  0  0  0  0  0  0  0  0  0  0
   48.2192  -35.3514  -10.2803 C   0  0  2  0  0  0  0  0  0  0  0  0
   47.0414  -35.3778  -11.2299 C   0  0  0  0  0  0  0  0  0  0  0  0
   47.1853  -35.1130  -12.4654 O   0  0  0  0  0  0  0  0  0  0  0  0
   49.2071  -36.3139  -10.8357 C   0  0  0  0  0  0  0  0  0  0  0  0
   50.0458  -35.6393  -11.8889 C   0  0  0  0  0  0  0  0  0  0  0  0
   50.9734  -34.5771  -11.3336 C   0  0  0  0  0  0  0  0  0  0  0  0
   52.1185  -35.2853  -10.6493 C   0  0  0  0  0  0  0  0  0  0  0  0
   53.3514  -35.2182  -11.3966 N   0  0  0  0  0  0  0  0  0  0  0  0
   45.7262  -35.6916  -10.8340 N   0  0  0  0  0  0  0  0  0  0  0  0
   45.4000  -36.7798   -9.8874 C   0  0  2  0  0  0  0  0  0  0  0  0
   46.4072  -36.9887   -8.8797 C   0  0  0  0  0  0  0  0  0  0  0  0
   47.6161  -36.6410   -9.1311 O   0  0  0  0  0  0  0  0  0  0  0  0
   44.9173  -37.9767  -10.6874 C   0  0  0  0  0  0  0  0  0  0  0  0
   43.6440  -37.8219  -11.3875 C   0  0  0  0  0  0  0  0  0  0  0  0
   42.9052  -38.8702  -12.0611 C   0  0  0  0  0  0  0  0  0  0  0  0
   41.9449  -38.6151  -13.1358 C   0  0  0  0  0  0  0  0  0  0  0  0
   41.8603  -39.6195  -14.1356 N   0  0  0  0  0  4  0  0  0  0  0  0
   46.1717  -37.5499   -7.6038 N   0  0  0  0  0  0  0  0  0  0  0  0
   46.7717  -38.7324   -7.1090 C   0  0  0  0  0  0  0  0  0  0  0  0
   48.2163  -38.5231   -6.8630 C   0  0  0  0  0  0  0  0  0  0  0  0
   49.1427  -39.0673   -7.7269 C   0  0  0  0  0  0  0  0  0  0  0  0
   50.5148  -38.8699   -7.5222 C   0  0  0  0  0  0  0  0  0  0  0  0
   50.9675  -38.1301   -6.4559 C   0  0  0  0  0  0  0  0  0  0  0  0
   52.3860  -37.9113   -6.2171 C   0  0  0  0  0  0  0  0  0  0  0  0
   52.8000  -36.7928   -5.4628 N   0  0  0  0  0  0  0  0  0  0  0  0
   53.2515  -38.7144   -6.6802 N   0  0  0  0  0  0  0  0  0  0  0  0
   50.0088  -37.6050   -5.6177 C   0  0  0  0  0  0  0  0  0  0  0  0
   48.6727  -37.7765   -5.7868 C   0  0  0  0  0  0  0  0  0  0  0  0
   54.2298  -35.3038   -6.6622 C   0  0  0  0  0  0  0  0  0  0  0  0
   54.7442  -34.3737   -7.6948 C   0  0  0  0  0  0  0  0  0  0  0  0
   55.6117  -35.2397   -8.6230 C   0  0  0  0  0  0  0  0  0  0  0  0
   54.6676  -36.0878   -9.4364 C   0  0  0  0  0  0  0  0  0  0  0  0
   54.5731  -35.6045  -10.8339 C   0  0  0  0  0  0  0  0  0  0  0  0
   55.1342  -36.0339   -6.1188 O   0  0  0  0  0  0  0  0  0  0  0  0
   55.6628  -35.5581  -11.5006 O   0  0  0  0  0  0  0  0  0  0  0  0
   55.0916  -35.2272   -4.3735 H   0  0  0  0  0  0  0  0  0  0  0  0
   48.0193  -31.3365   -3.1664 H   0  0  0  0  0  0  0  0  0  0  0  0
   53.7045  -39.4613   -6.1291 H   0  0  0  0  0  0  0  0  0  0  0  0
  1  2  1  0
  1 52  1  0
  2  3  1  0
  2  5  1  6
  3  4  2  0
  3 12  1  0
  5  6  1  0
  6  7  1  0
  7  8  1  0
  8  9  1  0
  9 10  1  0
  9 11  2  0
 12 13  1  0
 13 14  1  0
 13 16  1  1
 14 15  2  0
 14 23  1  0
 16 17  1  0
 17 18  1  0
 18 19  1  0
 19 20  1  0
 20 21  2  0
 20 22  1  0
 23 24  1  0
 24 25  1  6
 24 27  1  0
 25 26  2  0
 25 32  1  0
 27 28  1  0
 28 29  1  0
 29 30  1  0
 30 31  1  0
 31 56  1  0
 32 33  1  0
 33 34  1  0
 33 36  1  6
 34 35  2  0
 34 41  1  0
 36 37  1  0
 37 38  1  0
 38 39  1  0
 39 40  1  0
 41 42  1  0
 42 43  1  0
 43 44  2  0
 43 51  1  0
 44 45  1  0
 45 46  2  0
 46 47  1  0
 46 50  1  0
 47 48  1  0
 47 49  2  0
 50 51  2  0
 52 53  1  0
 52 57  2  0
 53 54  1  0
 54 55  1  0
 55 56  1  0
 56 58  2  0
 11 59  1  0
 21 60  1  0
 49 61  1  0
M  CHG  1  40   1
M  END
$$$$
