
     RDKit          3D

  8  7  0  0  0  0  0  0  0  0999 V2000
    4.8352    1.1832   -1.0328 C   0  0  0  0  0  0  0  0  0  0  0  0
    1.3454    0.9454   -1.2241 C   0  0  0  0  0  0  0  0  0  0  0  0
    3.8763    0.6263   -0.2095 O   0  0  0  0  0  0  0  0  0  0  0  0
    3.2772   -0.4738   -0.8095 C   0  0  0  0  0  0  0  0  0  0  0  0
    1.7740   -0.3452   -0.5301 C   0  0  2  0  0  0  0  0  0  0  0  0
    1.0735   -1.4358   -1.0191 O   0  0  0  0  0  0  0  0  0  0  0  0
    0.5375    0.5994   -2.2803 O   0  0  0  0  0  0  0  0  0  0  0  0
   -0.8126    0.8093   -1.9701 C   0  0  0  0  0  0  0  0  0  0  0  0
  1  3  1  6
  5  2  1  0
  2  7  1  6
  4  3  1  1
  4  5  1  0
  5  6  1  6
  8  7  1  6
M  END
$$$$
