
     RDKit          3D

  8  7  0  0  0  0  0  0  0  0999 V2000
   -3.9376    4.2041   -2.6050 C   0  0  0  0  0  0  0  0  0  0  0  0
   -4.8676    4.6887    1.0820 C   0  0  0  0  0  0  0  0  0  0  0  0
   -5.2228    3.8094   -2.2886 O   0  0  0  0  0  0  0  0  0  0  0  0
   -5.7086    4.5127   -1.1939 C   0  0  0  0  0  0  0  0  0  0  0  0
   -5.3475    3.6788    0.0424 C   0  0  2  0  0  0  0  0  0  0  0  0
   -6.4385    2.9610    0.5047 O   0  0  0  0  0  0  0  0  0  0  0  0
   -5.3314    4.2745    2.3072 O   0  0  0  0  0  0  0  0  0  0  0  0
   -4.3304    4.3723    3.2828 C   0  0  0  0  0  0  0  0  0  0  0  0
  1  3  1  6
  5  2  1  0
  2  7  1  6
  4  3  1  1
  4  5  1  0
  5  6  1  1
  8  7  1  6
M  END
$$$$
