
     RDKit          3D

  8  7  0  0  0  0  0  0  0  0999 V2000
    0.4965   -4.4095    2.5102 C   0  0  0  0  0  0  0  0  0  0  0  0
   -2.4261   -2.7912   -0.4725 C   0  0  0  0  0  0  0  0  0  0  0  0
   -0.3212   -5.0246    1.5989 O   0  0  0  0  0  0  0  0  0  0  0  0
   -0.7016   -4.2743    0.5219 C   0  0  0  0  0  0  0  0  0  0  0  0
   -1.9476   -3.4624    0.8044 C   0  0  2  0  0  0  0  0  0  0  0  0
   -2.9746   -4.3099    1.2427 O   0  0  0  0  0  0  0  0  0  0  0  0
   -3.7744   -3.0300   -0.6815 O   0  0  0  0  0  0  0  0  0  0  0  0
   -4.5148   -1.9362   -0.2714 C   0  0  0  0  0  0  0  0  0  0  0  0
  3  1  1  0
  5  2  1  0
  2  7  1  0
  4  3  1  0
  4  5  1  0
  5  6  1  6
  7  8  1  0
M  END
$$$$
