
     RDKit          3D

  8  7  0  0  0  0  0  0  0  0999 V2000
    6.8359   -9.0200   -0.0655 C   0  0  0  0  0  0  0  0  0  0  0  0
    6.6618   -4.3919   -0.5190 C   0  0  0  0  0  0  0  0  0  0  0  0
    7.2438   -7.8156    0.4734 O   0  0  0  0  0  0  0  0  0  0  0  0
    7.1060   -6.7826   -0.4448 C   0  0  0  0  0  0  0  0  0  0  0  0
    6.3733   -5.6532    0.2914 C   0  0  2  0  0  0  0  0  0  0  0  0
    5.0124   -5.9003    0.3702 O   0  0  0  0  0  0  0  0  0  0  0  0
    6.0653   -3.3374    0.1291 O   0  0  0  0  0  0  0  0  0  0  0  0
    5.4145   -2.4924   -0.7796 C   0  0  0  0  0  0  0  0  0  0  0  0
  1  3  1  6
  5  2  1  0
  2  7  1  6
  4  3  1  1
  4  5  1  0
  5  6  1  6
  8  7  1  6
M  END
$$$$
