
     RDKit          3D

  8  7  0  0  0  0  0  0  0  0999 V2000
    5.8186   -3.0687    2.5552 C   0  0  0  0  0  0  0  0  0  0  0  0
    2.4526   -5.9281    2.9097 C   0  0  0  0  0  0  0  0  0  0  0  0
    4.5268   -3.1993    2.1176 O   0  0  0  0  0  0  0  0  0  0  0  0
    4.1199   -4.4639    1.7969 C   0  0  0  0  0  0  0  0  0  0  0  0
    2.6464   -4.6754    2.0713 C   0  0  2  0  0  0  0  0  0  0  0  0
    2.1433   -3.5950    2.8094 O   0  0  0  0  0  0  0  0  0  0  0  0
    1.4140   -6.6991    2.4142 O   0  0  0  0  0  0  0  0  0  0  0  0
    1.9037   -7.9082    1.9547 C   0  0  0  0  0  0  0  0  0  0  0  0
  3  1  1  0
  5  2  1  0
  2  7  1  0
  4  3  1  0
  4  5  1  0
  5  6  1  1
  7  8  1  0
M  END
$$$$
