
     RDKit          3D

  8  7  0  0  0  0  0  0  0  0999 V2000
   -5.4619    2.2162    2.4887 C   0  0  0  0  0  0  0  0  0  0  0  0
   -4.8355    5.9341    0.5048 C   0  0  0  0  0  0  0  0  0  0  0  0
   -5.0716    3.2798    1.6989 O   0  0  0  0  0  0  0  0  0  0  0  0
   -5.0327    4.4601    2.4300 C   0  0  0  0  0  0  0  0  0  0  0  0
   -5.8022    5.4987    1.6033 C   0  0  2  0  0  0  0  0  0  0  0  0
   -6.9619    4.9612    1.0688 O   0  0  0  0  0  0  0  0  0  0  0  0
   -5.4574    5.7233   -0.7021 O   0  0  0  0  0  0  0  0  0  0  0  0
   -5.3830    6.8644   -1.5118 C   0  0  0  0  0  0  0  0  0  0  0  0
  1  3  1  6
  5  2  1  0
  2  7  1  6
  4  3  1  1
  4  5  1  0
  5  6  1  6
  8  7  1  6
M  END
$$$$
