
     RDKit          3D

  8  7  0  0  0  0  0  0  0  0999 V2000
    7.7874   -1.2888   -3.0237 C   0  0  0  0  0  0  0  0  0  0  0  0
    5.3146   -4.9824   -1.2980 C   0  0  0  0  0  0  0  0  0  0  0  0
    6.6457   -1.9686   -2.6891 O   0  0  0  0  0  0  0  0  0  0  0  0
    6.8141   -3.1263   -1.9826 C   0  0  0  0  0  0  0  0  0  0  0  0
    5.9095   -4.2337   -2.4793 C   0  0  2  0  0  0  0  0  0  0  0  0
    4.8446   -3.6838   -3.2064 O   0  0  0  0  0  0  0  0  0  0  0  0
    4.1811   -5.6828   -1.6764 O   0  0  0  0  0  0  0  0  0  0  0  0
    4.1697   -6.9240   -1.0663 C   0  0  0  0  0  0  0  0  0  0  0  0
  3  1  1  0
  5  2  1  0
  2  7  1  0
  4  3  1  0
  4  5  1  0
  5  6  1  1
  7  8  1  0
M  END
$$$$
