
     RDKit          3D

  8  7  0  0  0  0  0  0  0  0999 V2000
   -5.6143    5.1471    2.9751 C   0  0  0  0  0  0  0  0  0  0  0  0
   -5.0529    1.4904    0.1995 C   0  0  0  0  0  0  0  0  0  0  0  0
   -4.6865    4.6539    2.0956 O   0  0  0  0  0  0  0  0  0  0  0  0
   -4.7306    3.3088    1.8584 C   0  0  0  0  0  0  0  0  0  0  0  0
   -5.0519    2.9951    0.4128 C   0  0  2  0  0  0  0  0  0  0  0  0
   -6.3360    3.4635    0.1017 O   0  0  0  0  0  0  0  0  0  0  0  0
   -4.3792    1.1552   -0.9634 O   0  0  0  0  0  0  0  0  0  0  0  0
   -5.1638    0.3195   -1.7372 C   0  0  0  0  0  0  0  0  0  0  0  0
  3  1  1  0
  5  2  1  0
  2  7  1  0
  4  3  1  0
  4  5  1  0
  5  6  1  1
  7  8  1  0
M  END
$$$$
