
     RDKit          3D

  8  7  0  0  0  0  0  0  0  0999 V2000
    4.2898   -4.3753   -3.0875 C   0  0  0  0  0  0  0  0  0  0  0  0
    4.8378   -5.8542    0.7787 C   0  0  0  0  0  0  0  0  0  0  0  0
    4.5395   -5.4141   -2.2122 O   0  0  0  0  0  0  0  0  0  0  0  0
    5.6354   -5.1377   -1.4050 C   0  0  0  0  0  0  0  0  0  0  0  0
    5.7182   -6.2866   -0.3913 C   0  0  2  0  0  0  0  0  0  0  0  0
    5.2750   -7.4787   -0.9406 O   0  0  0  0  0  0  0  0  0  0  0  0
    3.5698   -6.3267    0.5400 O   0  0  0  0  0  0  0  0  0  0  0  0
    3.0936   -7.0622    1.6334 C   0  0  0  0  0  0  0  0  0  0  0  0
  1  3  1  6
  5  2  1  0
  2  7  1  6
  4  3  1  1
  4  5  1  0
  5  6  1  6
  8  7  1  6
M  END
$$$$
