
     RDKit          3D

  8  7  0  0  0  0  0  0  0  0999 V2000
    3.6710   -4.1158    3.2523 C   0  0  0  0  0  0  0  0  0  0  0  0
    5.8804   -5.4671    0.7885 C   0  0  0  0  0  0  0  0  0  0  0  0
    4.4599   -3.4839    2.3111 O   0  0  0  0  0  0  0  0  0  0  0  0
    5.8056   -3.7583    2.5184 C   0  0  0  0  0  0  0  0  0  0  0  0
    6.3940   -4.0721    1.1365 C   0  0  2  0  0  0  0  0  0  0  0  0
    5.9949   -3.1393    0.1931 O   0  0  0  0  0  0  0  0  0  0  0  0
    6.1377   -5.6831   -0.5438 O   0  0  0  0  0  0  0  0  0  0  0  0
    4.9483   -5.7435   -1.2819 C   0  0  0  0  0  0  0  0  0  0  0  0
  1  3  1  6
  5  2  1  0
  2  7  1  6
  4  3  1  1
  4  5  1  0
  5  6  1  6
  8  7  1  6
M  END
$$$$
