
     RDKit          3D

  8  7  0  0  0  0  0  0  0  0999 V2000
    4.2204   -3.4506   -3.4289 C   0  0  0  0  0  0  0  0  0  0  0  0
    3.2123   -6.3703   -0.3247 C   0  0  0  0  0  0  0  0  0  0  0  0
    4.3009   -4.1825   -2.2604 O   0  0  0  0  0  0  0  0  0  0  0  0
    3.9565   -5.5108   -2.4754 C   0  0  0  0  0  0  0  0  0  0  0  0
    2.7013   -5.7673   -1.6310 C   0  0  2  0  0  0  0  0  0  0  0  0
    1.9972   -4.5962   -1.4028 O   0  0  0  0  0  0  0  0  0  0  0  0
    2.2005   -6.2740    0.5999 O   0  0  0  0  0  0  0  0  0  0  0  0
    1.9099   -7.5256    1.1588 C   0  0  0  0  0  0  0  0  0  0  0  0
  1  3  1  6
  5  2  1  0
  2  7  1  6
  4  3  1  1
  4  5  1  0
  5  6  1  1
  8  7  1  6
M  END
$$$$
