
     RDKit          3D

  8  7  0  0  0  0  0  0  0  0999 V2000
    8.0135   -2.0786   -2.8801 C   0  0  0  0  0  0  0  0  0  0  0  0
    5.9269   -3.6804    1.0929 C   0  0  0  0  0  0  0  0  0  0  0  0
    7.9783   -2.5792   -1.6051 O   0  0  0  0  0  0  0  0  0  0  0  0
    6.7442   -2.6799   -1.0268 C   0  0  0  0  0  0  0  0  0  0  0  0
    6.5833   -3.9676   -0.2474 C   0  0  2  0  0  0  0  0  0  0  0  0
    5.7407   -4.8419   -0.9480 O   0  0  0  0  0  0  0  0  0  0  0  0
    6.0923   -4.7455    1.9629 O   0  0  0  0  0  0  0  0  0  0  0  0
    4.8727   -5.0983    2.5115 C   0  0  0  0  0  0  0  0  0  0  0  0
  3  1  1  0
  5  2  1  0
  2  7  1  0
  4  3  1  0
  4  5  1  0
  5  6  1  6
  7  8  1  0
M  END
$$$$
