
     RDKit          3D

  8  7  0  0  0  0  0  0  0  0999 V2000
   -3.5438    2.9804    2.7201 C   0  0  0  0  0  0  0  0  0  0  0  0
   -3.0744    7.3367    1.8917 C   0  0  0  0  0  0  0  0  0  0  0  0
   -4.1195    3.8505    1.8151 O   0  0  0  0  0  0  0  0  0  0  0  0
   -4.0830    5.1578    2.2830 C   0  0  0  0  0  0  0  0  0  0  0  0
   -2.9994    5.8727    1.4651 C   0  0  2  0  0  0  0  0  0  0  0  0
   -1.7447    5.3402    1.7131 O   0  0  0  0  0  0  0  0  0  0  0  0
   -2.0626    7.5576    2.7947 O   0  0  0  0  0  0  0  0  0  0  0  0
   -2.5541    8.1518    3.9646 C   0  0  0  0  0  0  0  0  0  0  0  0
  1  3  1  6
  5  2  1  0
  2  7  1  6
  4  3  1  1
  4  5  1  0
  5  6  1  1
  8  7  1  6
M  END
$$$$
