
     RDKit          3D

  8  7  0  0  0  0  0  0  0  0999 V2000
   -5.2015   -0.7964   -0.1363 C   0  0  0  0  0  0  0  0  0  0  0  0
   -3.4757   -4.6795   -0.6919 C   0  0  0  0  0  0  0  0  0  0  0  0
   -5.4350   -2.1296   -0.3500 O   0  0  0  0  0  0  0  0  0  0  0  0
   -4.8391   -2.9971    0.5218 C   0  0  0  0  0  0  0  0  0  0  0  0
   -4.8094   -4.4127   -0.0137 C   0  0  2  0  0  0  0  0  0  0  0  0
   -4.9298   -5.3216    1.0467 O   0  0  0  0  0  0  0  0  0  0  0  0
   -2.4528   -4.7507    0.2393 O   0  0  0  0  0  0  0  0  0  0  0  0
   -1.3003   -4.1940   -0.2847 C   0  0  0  0  0  0  0  0  0  0  0  0
  3  1  1  0
  5  2  1  0
  2  7  1  0
  4  3  1  0
  4  5  1  0
  5  6  1  1
  7  8  1  0
M  END
$$$$
