
     RDKit          3D

  8  7  0  0  0  0  0  0  0  0999 V2000
   -3.1490    4.2474    3.1093 C   0  0  0  0  0  0  0  0  0  0  0  0
   -5.1067    3.9543   -0.7288 C   0  0  0  0  0  0  0  0  0  0  0  0
   -3.7713    4.6310    1.9375 O   0  0  0  0  0  0  0  0  0  0  0  0
   -4.9005    3.8599    1.6933 C   0  0  0  0  0  0  0  0  0  0  0  0
   -4.6074    3.0698    0.4110 C   0  0  2  0  0  0  0  0  0  0  0  0
   -3.2549    2.7987    0.2819 O   0  0  0  0  0  0  0  0  0  0  0  0
   -4.0209    4.2843   -1.5036 O   0  0  0  0  0  0  0  0  0  0  0  0
   -3.9887    3.5177   -2.6760 C   0  0  0  0  0  0  0  0  0  0  0  0
  1  3  1  6
  5  2  1  0
  2  7  1  6
  4  3  1  1
  4  5  1  0
  5  6  1  6
  8  7  1  6
M  END
$$$$
