
     RDKit          3D

  8  7  0  0  0  0  0  0  0  0999 V2000
   -0.5993    5.5153    0.2436 C   0  0  0  0  0  0  0  0  0  0  0  0
    3.8690    5.4487   -0.1181 C   0  0  0  0  0  0  0  0  0  0  0  0
    0.3817    5.0181    1.0608 O   0  0  0  0  0  0  0  0  0  0  0  0
    1.6219    5.5768    0.9290 C   0  0  0  0  0  0  0  0  0  0  0  0
    2.4904    4.8129   -0.0476 C   0  0  2  0  0  0  0  0  0  0  0  0
    2.6587    3.4953    0.4004 O   0  0  0  0  0  0  0  0  0  0  0  0
    4.7768    4.5954   -0.7234 O   0  0  0  0  0  0  0  0  0  0  0  0
    5.6902    5.3267   -1.4606 C   0  0  0  0  0  0  0  0  0  0  0  0
  3  1  1  0
  5  2  1  0
  2  7  1  0
  4  3  1  0
  4  5  1  0
  5  6  1  1
  7  8  1  0
M  END
$$$$
