
     RDKit          3D

  8  7  0  0  0  0  0  0  0  0999 V2000
    3.9343   -3.6842    4.3976 C   0  0  0  0  0  0  0  0  0  0  0  0
    1.0888   -5.6210    1.2181 C   0  0  0  0  0  0  0  0  0  0  0  0
    3.9013   -4.1013    3.0928 O   0  0  0  0  0  0  0  0  0  0  0  0
    2.9261   -5.0020    2.7685 C   0  0  0  0  0  0  0  0  0  0  0  0
    2.1102   -4.5536    1.5749 C   0  0  2  0  0  0  0  0  0  0  0  0
    1.4024   -3.3873    1.8976 O   0  0  0  0  0  0  0  0  0  0  0  0
    0.3302   -5.2341    0.1256 O   0  0  0  0  0  0  0  0  0  0  0  0
   -0.9647   -4.9592    0.5260 C   0  0  0  0  0  0  0  0  0  0  0  0
  3  1  1  0
  5  2  1  0
  2  7  1  0
  4  3  1  0
  4  5  1  0
  5  6  1  1
  7  8  1  0
M  END
$$$$
