
     RDKit          3D

  8  7  0  0  0  0  0  0  0  0999 V2000
    2.4312   -2.0329   -2.5936 C   0  0  0  0  0  0  0  0  0  0  0  0
    6.3477   -4.4107   -3.2077 C   0  0  0  0  0  0  0  0  0  0  0  0
    3.2031   -3.1637   -2.6491 O   0  0  0  0  0  0  0  0  0  0  0  0
    4.2360   -3.1497   -3.5438 C   0  0  0  0  0  0  0  0  0  0  0  0
    5.5849   -3.1438   -2.8570 C   0  0  2  0  0  0  0  0  0  0  0  0
    6.3435   -2.0574   -3.3146 O   0  0  0  0  0  0  0  0  0  0  0  0
    7.6192   -4.3905   -2.6587 O   0  0  0  0  0  0  0  0  0  0  0  0
    8.5555   -4.6967   -3.6295 C   0  0  0  0  0  0  0  0  0  0  0  0
  3  1  1  0
  5  2  1  0
  2  7  1  0
  4  3  1  0
  4  5  1  0
  5  6  1  6
  7  8  1  0
M  END
$$$$
