
     RDKit          3D

  8  7  0  0  0  0  0  0  0  0999 V2000
   -4.5808    2.1280   -4.0643 C   0  0  0  0  0  0  0  0  0  0  0  0
   -6.7112    5.0447   -1.1790 C   0  0  0  0  0  0  0  0  0  0  0  0
   -5.7440    2.2716   -3.3545 O   0  0  0  0  0  0  0  0  0  0  0  0
   -6.1304    3.5525   -3.0760 C   0  0  0  0  0  0  0  0  0  0  0  0
   -5.7579    3.9670   -1.6685 C   0  0  2  0  0  0  0  0  0  0  0  0
   -5.8847    2.8709   -0.8039 O   0  0  0  0  0  0  0  0  0  0  0  0
   -6.7014    5.1227    0.2039 O   0  0  0  0  0  0  0  0  0  0  0  0
   -5.9572    6.2162    0.6079 C   0  0  0  0  0  0  0  0  0  0  0  0
  3  1  1  0
  5  2  1  0
  2  7  1  0
  4  3  1  0
  4  5  1  0
  5  6  1  1
  7  8  1  0
M  END
$$$$
