
     RDKit          3D

  8  7  0  0  0  0  0  0  0  0999 V2000
    7.2853   -2.3099   -0.6165 C   0  0  0  0  0  0  0  0  0  0  0  0
    6.0725   -6.7139   -0.5881 C   0  0  0  0  0  0  0  0  0  0  0  0
    7.1142   -3.3665   -1.4893 O   0  0  0  0  0  0  0  0  0  0  0  0
    7.2235   -4.5844   -0.8306 C   0  0  0  0  0  0  0  0  0  0  0  0
    6.2685   -5.5454   -1.5510 C   0  0  2  0  0  0  0  0  0  0  0  0
    5.0628   -4.9315   -1.8489 O   0  0  0  0  0  0  0  0  0  0  0  0
    4.7278   -6.8117   -0.3233 O   0  0  0  0  0  0  0  0  0  0  0  0
    4.4998   -7.5173    0.8655 C   0  0  0  0  0  0  0  0  0  0  0  0
  1  3  1  6
  5  2  1  0
  2  7  1  6
  4  3  1  1
  4  5  1  0
  5  6  1  1
  8  7  1  6
M  END
$$$$
