
     RDKit          3D

  8  7  0  0  0  0  0  0  0  0999 V2000
    5.5663    5.6295    1.1616 C   0  0  0  0  0  0  0  0  0  0  0  0
    4.3039    2.2680   -1.2870 C   0  0  0  0  0  0  0  0  0  0  0  0
    4.4080    4.8783    1.2023 O   0  0  0  0  0  0  0  0  0  0  0  0
    4.6276    3.5913    0.7284 C   0  0  0  0  0  0  0  0  0  0  0  0
    3.7052    3.4216   -0.4860 C   0  0  2  0  0  0  0  0  0  0  0  0
    2.4047    3.1431   -0.0983 O   0  0  0  0  0  0  0  0  0  0  0  0
    4.4020    1.1861   -0.4456 O   0  0  0  0  0  0  0  0  0  0  0  0
    5.2652    0.2163   -0.9726 C   0  0  0  0  0  0  0  0  0  0  0  0
  1  3  1  6
  5  2  1  0
  2  7  1  6
  4  3  1  1
  4  5  1  0
  5  6  1  1
  8  7  1  6
M  END
$$$$
