
     RDKit          3D

  8  7  0  0  0  0  0  0  0  0999 V2000
    5.3971   -6.5386    0.6627 C   0  0  0  0  0  0  0  0  0  0  0  0
    6.7195   -3.2865    0.8184 C   0  0  0  0  0  0  0  0  0  0  0  0
    4.9673   -5.3011    1.0646 O   0  0  0  0  0  0  0  0  0  0  0  0
    5.4460   -4.8526    2.2634 C   0  0  0  0  0  0  0  0  0  0  0  0
    6.0260   -3.4582    2.1598 C   0  0  2  0  0  0  0  0  0  0  0  0
    4.9942   -2.5113    2.2226 O   0  0  0  0  0  0  0  0  0  0  0  0
    7.3726   -2.0668    0.7518 O   0  0  0  0  0  0  0  0  0  0  0  0
    7.0140   -1.4042   -0.4080 C   0  0  0  0  0  0  0  0  0  0  0  0
  3  1  1  0
  5  2  1  0
  2  7  1  0
  4  3  1  0
  4  5  1  0
  5  6  1  6
  7  8  1  0
M  END
$$$$
