
     RDKit          3D

  8  7  0  0  0  0  0  0  0  0999 V2000
    1.2510   -7.6178    1.6704 C   0  0  0  0  0  0  0  0  0  0  0  0
    5.1895   -5.4091    2.2124 C   0  0  0  0  0  0  0  0  0  0  0  0
    2.1014   -7.1047    2.6144 O   0  0  0  0  0  0  0  0  0  0  0  0
    3.4356   -7.1623    2.3241 C   0  0  0  0  0  0  0  0  0  0  0  0
    4.2375   -6.1611    3.1278 C   0  0  2  0  0  0  0  0  0  0  0  0
    3.3750   -5.2171    3.7023 O   0  0  0  0  0  0  0  0  0  0  0  0
    5.4796   -4.1548    2.7233 O   0  0  0  0  0  0  0  0  0  0  0  0
    4.5523   -3.2354    2.2676 C   0  0  0  0  0  0  0  0  0  0  0  0
  3  1  1  0
  5  2  1  0
  2  7  1  0
  4  3  1  0
  4  5  1  0
  5  6  1  6
  7  8  1  0
M  END
$$$$
