
     RDKit          3D

  8  7  0  0  0  0  0  0  0  0999 V2000
   -4.6190    0.0715   -0.9510 C   0  0  0  0  0  0  0  0  0  0  0  0
   -5.7596   -4.1308    0.3512 C   0  0  0  0  0  0  0  0  0  0  0  0
   -4.0204   -1.1593   -1.0161 O   0  0  0  0  0  0  0  0  0  0  0  0
   -4.8538   -2.2418   -0.9804 C   0  0  0  0  0  0  0  0  0  0  0  0
   -4.7273   -3.0161    0.3141 C   0  0  2  0  0  0  0  0  0  0  0  0
   -3.4615   -3.6144    0.3851 O   0  0  0  0  0  0  0  0  0  0  0  0
   -5.6706   -4.8483    1.5327 O   0  0  0  0  0  0  0  0  0  0  0  0
   -5.1941   -6.1209    1.2753 C   0  0  0  0  0  0  0  0  0  0  0  0
  3  1  1  0
  5  2  1  0
  2  7  1  0
  4  3  1  0
  4  5  1  0
  5  6  1  6
  7  8  1  0
M  END
$$$$
