
     RDKit          3D

  8  7  0  0  0  0  0  0  0  0999 V2000
   -5.9430    3.7609   -3.2251 C   0  0  0  0  0  0  0  0  0  0  0  0
   -2.7912    6.3231   -1.8720 C   0  0  0  0  0  0  0  0  0  0  0  0
   -4.8618    4.0165   -2.4047 O   0  0  0  0  0  0  0  0  0  0  0  0
   -3.7801    4.4935   -3.1339 C   0  0  0  0  0  0  0  0  0  0  0  0
   -2.6856    4.8186   -2.1089 C   0  0  2  0  0  0  0  0  0  0  0  0
   -2.8679    4.1101   -0.9324 O   0  0  0  0  0  0  0  0  0  0  0  0
   -1.6788    6.7103   -1.1645 O   0  0  0  0  0  0  0  0  0  0  0  0
   -2.0396    7.3909    0.0060 C   0  0  0  0  0  0  0  0  0  0  0  0
  1  3  1  6
  5  2  1  0
  2  7  1  6
  4  3  1  1
  4  5  1  0
  5  6  1  1
  8  7  1  6
M  END
$$$$
