
     RDKit          3D

  8  7  0  0  0  0  0  0  0  0999 V2000
    6.2038   -2.5691    0.2390 C   0  0  0  0  0  0  0  0  0  0  0  0
    6.5511   -6.5586   -1.0043 C   0  0  0  0  0  0  0  0  0  0  0  0
    6.6568   -3.4006   -0.7664 O   0  0  0  0  0  0  0  0  0  0  0  0
    7.4447   -4.4237   -0.2548 C   0  0  0  0  0  0  0  0  0  0  0  0
    6.4787   -5.5490    0.1387 C   0  0  2  0  0  0  0  0  0  0  0  0
    6.8403   -6.1275    1.3445 O   0  0  0  0  0  0  0  0  0  0  0  0
    5.8800   -7.6882   -0.6026 O   0  0  0  0  0  0  0  0  0  0  0  0
    4.6028   -7.7446   -1.1761 C   0  0  0  0  0  0  0  0  0  0  0  0
  1  3  1  6
  5  2  1  0
  2  7  1  6
  4  3  1  1
  4  5  1  0
  5  6  1  1
  8  7  1  6
M  END
$$$$
