
     RDKit          3D

  8  7  0  0  0  0  0  0  0  0999 V2000
    6.0385   -0.5130   -2.3642 C   0  0  0  0  0  0  0  0  0  0  0  0
    6.1081   -5.1376   -1.3043 C   0  0  0  0  0  0  0  0  0  0  0  0
    5.6173   -1.6524   -1.7301 O   0  0  0  0  0  0  0  0  0  0  0  0
    6.4549   -2.7300   -1.7995 C   0  0  0  0  0  0  0  0  0  0  0  0
    5.7299   -3.9889   -2.2247 C   0  0  2  0  0  0  0  0  0  0  0  0
    4.3458   -3.7985   -2.1107 O   0  0  0  0  0  0  0  0  0  0  0  0
    5.2058   -6.1821   -1.4204 O   0  0  0  0  0  0  0  0  0  0  0  0
    5.7991   -7.2454   -2.0763 C   0  0  0  0  0  0  0  0  0  0  0  0
  3  1  1  0
  5  2  1  0
  2  7  1  0
  4  3  1  0
  4  5  1  0
  5  6  1  1
  7  8  1  0
M  END
$$$$
