
     RDKit          3D

  8  7  0  0  0  0  0  0  0  0999 V2000
    2.0788   11.6614   15.5964 C   0  0  0  0  0  0  0  0  0  0  0  0
   -0.6580    9.9560   19.0564 C   0  0  0  0  0  0  0  0  0  0  0  0
    0.9671   10.9064   15.8638 O   0  0  0  0  0  0  0  0  0  0  0  0
    0.8465   10.4355   17.1410 C   0  0  0  0  0  0  0  0  0  0  0  0
   -0.5764   10.5255   17.6498 C   0  0  2  0  0  0  0  0  0  0  0  0
   -0.9696   11.8693   17.7180 O   0  0  0  0  0  0  0  0  0  0  0  0
   -1.7089    9.0606   19.1674 O   0  0  0  0  0  0  0  0  0  0  0  0
   -2.3193    9.2023   20.4003 C   0  0  0  0  0  0  0  0  0  0  0  0
  3  1  1  0
  5  2  1  0
  2  7  1  0
  4  3  1  0
  4  5  1  0
  5  6  1  1
  7  8  1  0
M  END
$$$$
