
     RDKit          3D

  8  7  0  0  0  0  0  0  0  0999 V2000
   -6.4217    6.3417    1.0489 C   0  0  0  0  0  0  0  0  0  0  0  0
   -4.2206    5.4100   -2.5266 C   0  0  0  0  0  0  0  0  0  0  0  0
   -6.6986    5.6305   -0.0892 O   0  0  0  0  0  0  0  0  0  0  0  0
   -5.6802    4.8707   -0.5924 C   0  0  0  0  0  0  0  0  0  0  0  0
   -5.6046    4.9469   -2.1023 C   0  0  2  0  0  0  0  0  0  0  0  0
   -5.8066    3.6726   -2.6505 O   0  0  0  0  0  0  0  0  0  0  0  0
   -3.3739    4.3301   -2.7152 O   0  0  0  0  0  0  0  0  0  0  0  0
   -2.3346    4.3827   -1.8042 C   0  0  0  0  0  0  0  0  0  0  0  0
  3  1  1  0
  5  2  1  0
  2  7  1  0
  4  3  1  0
  4  5  1  0
  5  6  1  6
  7  8  1  0
M  END
$$$$
