
     RDKit          3D

  8  7  0  0  0  0  0  0  0  0999 V2000
    1.7622   -3.2507    1.1423 C   0  0  0  0  0  0  0  0  0  0  0  0
    5.3302   -4.7398    3.6059 C   0  0  0  0  0  0  0  0  0  0  0  0
    3.0970   -3.5849    1.0236 O   0  0  0  0  0  0  0  0  0  0  0  0
    3.4915   -4.4446    2.0407 C   0  0  0  0  0  0  0  0  0  0  0  0
    4.5190   -3.6710    2.8775 C   0  0  2  0  0  0  0  0  0  0  0  0
    5.3300   -2.8811    2.0789 O   0  0  0  0  0  0  0  0  0  0  0  0
    6.5504   -4.8316    2.9809 O   0  0  0  0  0  0  0  0  0  0  0  0
    6.4874   -5.6961    1.8800 C   0  0  0  0  0  0  0  0  0  0  0  0
  1  3  1  6
  5  2  1  0
  2  7  1  6
  4  3  1  1
  4  5  1  0
  5  6  1  6
  8  7  1  6
M  END
$$$$
