
     RDKit          3D

  8  7  0  0  0  0  0  0  0  0999 V2000
   -5.9324    7.3204   -1.4373 C   0  0  0  0  0  0  0  0  0  0  0  0
   -5.1233    3.7483    1.3371 C   0  0  0  0  0  0  0  0  0  0  0  0
   -6.1726    5.9639   -1.3388 O   0  0  0  0  0  0  0  0  0  0  0  0
   -6.0679    5.5299   -0.0236 C   0  0  0  0  0  0  0  0  0  0  0  0
   -4.9949    4.4330   -0.0214 C   0  0  2  0  0  0  0  0  0  0  0  0
   -5.1880    3.5344   -1.0579 O   0  0  0  0  0  0  0  0  0  0  0  0
   -4.0110    2.9605    1.5109 O   0  0  0  0  0  0  0  0  0  0  0  0
   -3.0298    3.6328    2.2516 C   0  0  0  0  0  0  0  0  0  0  0  0
  1  3  1  6
  5  2  1  0
  2  7  1  6
  4  3  1  1
  4  5  1  0
  5  6  1  6
  8  7  1  6
M  END
$$$$
