
     RDKit          3D

  8  7  0  0  0  0  0  0  0  0999 V2000
    7.5171   -2.6609   -4.3908 C   0  0  0  0  0  0  0  0  0  0  0  0
    4.4229   -4.7353   -2.1379 C   0  0  0  0  0  0  0  0  0  0  0  0
    6.5672   -3.5121   -3.8610 O   0  0  0  0  0  0  0  0  0  0  0  0
    6.0844   -3.0337   -2.6497 C   0  0  0  0  0  0  0  0  0  0  0  0
    4.5746   -3.3069   -2.6553 C   0  0  2  0  0  0  0  0  0  0  0  0
    3.8946   -2.4061   -1.8519 O   0  0  0  0  0  0  0  0  0  0  0  0
    3.9089   -4.6630   -0.8657 O   0  0  0  0  0  0  0  0  0  0  0  0
    4.7101   -5.3698    0.0408 C   0  0  0  0  0  0  0  0  0  0  0  0
  1  3  1  6
  5  2  1  0
  2  7  1  6
  4  3  1  1
  4  5  1  0
  5  6  1  1
  8  7  1  6
M  END
$$$$
