
     RDKit          3D

  8  7  0  0  0  0  0  0  0  0999 V2000
    3.2142   -7.8410    1.7250 C   0  0  0  0  0  0  0  0  0  0  0  0
    4.7330   -5.1507   -0.8991 C   0  0  0  0  0  0  0  0  0  0  0  0
    2.6950   -7.6658    0.4572 O   0  0  0  0  0  0  0  0  0  0  0  0
    2.8339   -6.3497    0.0356 C   0  0  0  0  0  0  0  0  0  0  0  0
    3.8484   -6.3761   -1.1153 C   0  0  2  0  0  0  0  0  0  0  0  0
    4.5946   -7.5433   -1.1051 O   0  0  0  0  0  0  0  0  0  0  0  0
    6.0394   -5.5527   -1.0391 O   0  0  0  0  0  0  0  0  0  0  0  0
    6.7220   -5.4772    0.1822 C   0  0  0  0  0  0  0  0  0  0  0  0
  1  3  1  6
  5  2  1  0
  2  7  1  6
  4  3  1  1
  4  5  1  0
  5  6  1  1
  8  7  1  6
M  END
$$$$
