
     RDKit          3D

  8  7  0  0  0  0  0  0  0  0999 V2000
    9.0321   -3.4865   -1.2677 C   0  0  0  0  0  0  0  0  0  0  0  0
    4.8043   -2.8629   -3.1861 C   0  0  0  0  0  0  0  0  0  0  0  0
    8.1589   -2.5057   -1.6592 O   0  0  0  0  0  0  0  0  0  0  0  0
    7.2099   -2.8680   -2.5733 C   0  0  0  0  0  0  0  0  0  0  0  0
    5.8060   -2.6021   -2.0734 C   0  0  2  0  0  0  0  0  0  0  0  0
    5.5042   -3.4803   -1.0232 O   0  0  0  0  0  0  0  0  0  0  0  0
    3.5074   -2.8359   -2.7005 O   0  0  0  0  0  0  0  0  0  0  0  0
    2.6671   -3.5128   -3.5657 C   0  0  0  0  0  0  0  0  0  0  0  0
  3  1  1  0
  5  2  1  0
  2  7  1  0
  4  3  1  0
  4  5  1  0
  5  6  1  1
  7  8  1  0
M  END
$$$$
