
     RDKit          3D

  8  7  0  0  0  0  0  0  0  0999 V2000
    2.5587   -2.0282   -2.5328 C   0  0  0  0  0  0  0  0  0  0  0  0
    4.4609   -5.3659   -1.5562 C   0  0  0  0  0  0  0  0  0  0  0  0
    3.1262   -3.2407   -2.1928 O   0  0  0  0  0  0  0  0  0  0  0  0
    3.6782   -3.8654   -3.3038 C   0  0  0  0  0  0  0  0  0  0  0  0
    4.9218   -4.6095   -2.7997 C   0  0  2  0  0  0  0  0  0  0  0  0
    5.4170   -5.4758   -3.7608 O   0  0  0  0  0  0  0  0  0  0  0  0
    5.5804   -5.8688   -0.9383 O   0  0  0  0  0  0  0  0  0  0  0  0
    5.5798   -7.2698   -0.9600 C   0  0  0  0  0  0  0  0  0  0  0  0
  1  3  1  6
  5  2  1  0
  2  7  1  6
  4  3  1  1
  4  5  1  0
  5  6  1  6
  8  7  1  6
M  END
$$$$
