
     RDKit          3D

  8  7  0  0  0  0  0  0  0  0999 V2000
    4.4461   -3.0426    2.5307 C   0  0  0  0  0  0  0  0  0  0  0  0
    3.7770   -6.1906    3.5198 C   0  0  0  0  0  0  0  0  0  0  0  0
    5.0845   -4.2068    2.1922 O   0  0  0  0  0  0  0  0  0  0  0  0
    4.3895   -5.0690    1.3916 C   0  0  0  0  0  0  0  0  0  0  0  0
    4.1528   -6.4050    2.0629 C   0  0  2  0  0  0  0  0  0  0  0  0
    3.0789   -7.0607    1.4450 O   0  0  0  0  0  0  0  0  0  0  0  0
    2.5086   -6.6822    3.7809 O   0  0  0  0  0  0  0  0  0  0  0  0
    1.5562   -5.8333    3.2470 C   0  0  0  0  0  0  0  0  0  0  0  0
  3  1  1  0
  5  2  1  0
  2  7  1  0
  4  3  1  0
  4  5  1  0
  5  6  1  6
  7  8  1  0
M  END
$$$$
