
     RDKit          3D

 39 43  0  0  0  0  0  0  0  0999 V2000
  -13.6817    7.7518   -2.2551 C   0  0  0  0  0  0  0  0  0  0  0  0
  -13.5143    7.3303   -3.5625 C   0  0  0  0  0  0  0  0  0  0  0  0
  -11.1725    7.2762   -3.3161 C   0  0  0  0  0  0  0  0  0  0  0  0
  -11.2660    7.6959   -2.0014 C   0  0  0  0  0  0  0  0  0  0  0  0
  -15.0201    7.9959   -1.7199 C   0  0  0  0  0  0  0  0  0  0  0  0
  -16.1819    8.0389   -2.4599 C   0  0  0  0  0  0  0  0  0  0  0  0
  -19.3888    7.1363   -1.7912 C   0  0  2  0  0  0  0  0  0  0  0  0
  -18.6172    8.4014   -2.0643 C   0  0  1  0  0  0  0  0  0  0  0  0
  -19.2724    9.6254   -1.4807 C   0  0  2  0  0  0  0  0  0  0  0  0
  -23.3152   10.3264   -1.2653 C   0  0  0  0  0  0  0  0  0  0  0  0
  -28.9936    8.6388    2.5009 C   0  0  0  0  0  0  0  0  0  0  0  0
  -30.7542    8.5535    4.0952 C   0  0  0  0  0  0  0  0  0  0  0  0
  -31.1984    9.2523    1.8989 C   0  0  0  0  0  0  0  0  0  0  0  0
  -12.5434    7.9228   -1.5097 C   0  0  0  0  0  0  0  0  0  0  0  0
  -12.2785    7.0869   -4.1137 C   0  0  0  0  0  0  0  0  0  0  0  0
  -19.9956    7.0676   -0.4319 C   0  0  1  0  0  0  0  0  0  0  0  0
  -20.6387    9.1922   -0.9771 C   0  0  1  0  0  0  0  0  0  0  0  0
  -19.1456    6.3889    0.5973 C   0  0  0  0  0  0  0  0  0  0  0  0
  -24.3011   10.0784   -0.1678 C   0  0  1  0  0  0  0  0  0  0  0  0
  -24.6571    8.6222   -0.0116 C   0  0  0  0  0  0  0  0  0  0  0  0
  -27.5873    8.4472    2.1625 C   0  0  0  0  0  0  0  0  0  0  0  0
  -26.9831    8.7741    0.9679 C   0  0  0  0  0  0  0  0  0  0  0  0
  -29.4258    8.3738    3.7723 C   0  0  0  0  0  0  0  0  0  0  0  0
  -31.6717    8.9965    3.1678 C   0  0  0  0  0  0  0  0  0  0  0  0
  -29.8803    9.0805    1.5556 C   0  0  0  0  0  0  0  0  0  0  0  0
  -10.1507    7.8718   -1.2449 F   0  0  0  0  0  0  0  0  0  0  0  0
  -31.1925    8.2888    5.3705 F   0  0  0  0  0  0  0  0  0  0  0  0
  -15.3966    8.2212   -0.4509 N   0  0  0  0  0  0  0  0  0  0  0  0
  -16.7284    8.3935   -0.4212 N   0  0  0  0  0  0  0  0  0  0  0  0
  -17.2352    8.2883   -1.6286 N   0  0  0  0  0  0  0  0  0  0  0  0
  -25.6652    8.4519    1.0175 N   0  0  0  0  0  0  0  0  0  0  0  0
  -25.4845    7.9365    2.2329 N   0  0  0  0  0  0  0  0  0  0  0  0
  -26.6085    7.9271    2.9194 N   0  0  0  0  0  0  0  0  0  0  0  0
  -20.4023    8.2993    0.0719 O   0  0  0  0  0  0  0  0  0  0  0  0
  -18.4826    6.0636   -1.9185 O   0  0  0  0  0  0  0  0  0  0  0  0
  -19.8584    5.4844    1.3722 O   0  0  0  0  0  0  0  0  0  0  0  0
  -19.4402   10.5847   -2.4717 O   0  0  0  0  0  0  0  0  0  0  0  0
  -23.7796   10.5301    1.0576 O   0  0  0  0  0  0  0  0  0  0  0  0
  -21.6805   10.5742   -0.5207 S   0  0  0  0  0  0  0  0  0  0  0  0
  1  2  2  0
  5  1  1  0
  1 14  1  0
  2 15  1  0
  4  3  1  0
 15  3  2  0
 14  4  2  0
  4 26  1  0
  6  5  2  0
  5 28  1  0
 30  6  1  0
  8  7  1  0
 16  7  1  0
  7 35  1  1
  9  8  1  0
  8 30  1  1
 17  9  1  0
  9 37  1  6
 19 10  1  0
 10 39  1  6
 21 11  1  0
 11 23  1  0
 11 25  2  0
 23 12  2  0
 12 24  1  0
 12 27  1  0
 13 24  2  0
 25 13  1  0
 16 18  1  0
 16 34  1  1
 17 34  1  0
 17 39  1  1
 18 36  1  6
 20 19  1  0
 19 38  1  1
 20 31  1  6
 22 21  2  0
 21 33  1  0
 22 31  1  0
 28 29  2  0
 29 30  1  0
 31 32  1  0
 32 33  2  0
M  END
$$$$
