
     RDKit          3D

 39 43  0  0  0  0  0  0  0  0999 V2000
  -26.7612    8.3502    0.0080 C   0  0  0  0  0  0  0  0  0  0  0  0
  -27.6579    9.3484   -0.2495 C   0  0  0  0  0  0  0  0  0  0  0  0
  -29.4227    8.0804    0.6986 C   0  0  0  0  0  0  0  0  0  0  0  0
  -28.5338    7.0851    0.9566 C   0  0  0  0  0  0  0  0  0  0  0  0
  -25.3622    8.5006   -0.3581 C   0  0  0  0  0  0  0  0  0  0  0  0
  -24.2619    8.1388    0.4272 C   0  0  0  0  0  0  0  0  0  0  0  0
  -21.2174    6.8673   -0.1639 C   0  0  2  0  0  0  0  0  0  0  0  0
  -21.7989    8.1855    0.2649 C   0  0  1  0  0  0  0  0  0  0  0  0
  -20.8617    9.2858   -0.1222 C   0  0  2  0  0  0  0  0  0  0  0  0
  -17.1519   10.6206   -1.1246 C   0  0  0  0  0  0  0  0  0  0  0  0
  -10.7688    9.1417   -3.9185 C   0  0  0  0  0  0  0  0  0  0  0  0
   -8.8395   10.0158   -5.0823 C   0  0  0  0  0  0  0  0  0  0  0  0
   -9.4719    7.7509   -5.4252 C   0  0  0  0  0  0  0  0  0  0  0  0
  -27.1939    7.1950    0.6204 C   0  0  0  0  0  0  0  0  0  0  0  0
  -29.0063    9.2345    0.0901 C   0  0  0  0  0  0  0  0  0  0  0  0
  -19.9101    6.7394    0.5972 C   0  0  1  0  0  0  0  0  0  0  0  0
  -19.4337    8.9954    0.0744 C   0  0  1  0  0  0  0  0  0  0  0  0
  -19.2992    5.3999    0.1890 C   0  0  0  0  0  0  0  0  0  0  0  0
  -16.0282   10.4375   -2.1012 C   0  0  1  0  0  0  0  0  0  0  0  0
  -15.3143    9.1180   -1.7997 C   0  0  0  0  0  0  0  0  0  0  0  0
  -11.8746    9.3403   -2.9927 C   0  0  0  0  0  0  0  0  0  0  0  0
  -13.1832    8.9446   -3.1417 C   0  0  0  0  0  0  0  0  0  0  0  0
   -9.8967   10.1667   -4.2140 C   0  0  0  0  0  0  0  0  0  0  0  0
   -8.6106    8.8095   -5.6999 C   0  0  0  0  0  0  0  0  0  0  0  0
  -10.5355    7.9354   -4.5394 C   0  0  0  0  0  0  0  0  0  0  0  0
  -28.9581    5.9566    1.5578 F   0  0  0  0  0  0  0  0  0  0  0  0
   -8.0118   11.0481   -5.3414 F   0  0  0  0  0  0  0  0  0  0  0  0
  -24.8265    8.9985   -1.4858 N   0  0  0  0  0  0  0  0  0  0  0  0
  -23.4991    8.9502   -1.4085 N   0  0  0  0  0  0  0  0  0  0  0  0
  -23.1216    8.4326   -0.2573 N   0  0  0  0  0  0  0  0  0  0  0  0
  -13.9034    9.3233   -2.0501 N   0  0  0  0  0  0  0  0  0  0  0  0
  -13.0289    9.9376   -1.2617 N   0  0  0  0  0  0  0  0  0  0  0  0
  -11.8254    9.9577   -1.8016 N   0  0  0  0  0  0  0  0  0  0  0  0
  -19.0335    7.7217    0.3516 O   0  0  0  0  0  0  0  0  0  0  0  0
  -20.9399    6.8088   -1.5260 O   0  0  0  0  0  0  0  0  0  0  0  0
  -18.7164    4.7685    1.2681 O   0  0  0  0  0  0  0  0  0  0  0  0
  -21.2370   10.3830    0.6815 O   0  0  0  0  0  0  0  0  0  0  0  0
  -16.5395   10.4343   -3.3944 O   0  0  0  0  0  0  0  0  0  0  0  0
  -18.4895    9.5028   -1.3904 S   0  0  0  0  0  0  0  0  0  0  0  0
  1  2  2  0
  5  1  1  0
  1 14  1  0
  2 15  1  0
  4  3  1  0
 15  3  2  0
 14  4  2  0
  4 26  1  0
  6  5  2  0
  5 28  1  0
 30  6  1  0
  8  7  1  0
 16  7  1  0
  7 35  1  6
  9  8  1  0
  8 30  1  6
 17  9  1  0
  9 37  1  1
 19 10  1  0
 10 39  1  0
 21 11  1  0
 11 23  1  0
 11 25  2  0
 23 12  2  0
 12 24  1  0
 12 27  1  0
 13 24  2  0
 25 13  1  0
 16 18  1  6
 34 16  1  0
 17 34  1  0
 17 39  1  6
 18 36  1  0
 20 19  1  0
 19 38  1  6
 31 20  1  0
 22 21  2  0
 21 33  1  0
 22 31  1  0
 28 29  2  0
 29 30  1  0
 31 32  1  0
 32 33  2  0
M  END
$$$$
