
     RDKit          3D

 39 43  0  0  0  0  0  0  0  0999 V2000
  -26.1233    9.0269    3.0253 C   0  0  0  0  0  0  0  0  0  0  0  0
  -25.8093    8.0648    3.9691 C   0  0  0  0  0  0  0  0  0  0  0  0
  -27.8325    8.4344    5.1170 C   0  0  0  0  0  0  0  0  0  0  0  0
  -28.2102    9.4078    4.2098 C   0  0  0  0  0  0  0  0  0  0  0  0
  -25.2009    9.3200    1.9296 C   0  0  0  0  0  0  0  0  0  0  0  0
  -24.0899    8.5750    1.5982 C   0  0  0  0  0  0  0  0  0  0  0  0
  -22.5830    7.6206   -1.1718 C   0  0  2  0  0  0  0  0  0  0  0  0
  -22.2630    8.6283   -0.0982 C   0  0  1  0  0  0  0  0  0  0  0  0
  -21.3817    9.7470   -0.5880 C   0  0  2  0  0  0  0  0  0  0  0  0
  -18.6055    9.4743   -3.7577 C   0  0  0  0  0  0  0  0  0  0  0  0
  -12.7010    8.6795    0.3808 C   0  0  0  0  0  0  0  0  0  0  0  0
  -12.5222    8.5963    2.7492 C   0  0  0  0  0  0  0  0  0  0  0  0
  -10.5966    8.3885    1.4232 C   0  0  0  0  0  0  0  0  0  0  0  0
  -27.3232    9.6733    3.1764 C   0  0  0  0  0  0  0  0  0  0  0  0
  -26.6413    7.7515    5.0180 C   0  0  0  0  0  0  0  0  0  0  0  0
  -22.8264    8.2123   -2.5176 C   0  0  1  0  0  0  0  0  0  0  0  0
  -20.9251    9.3644   -1.9856 C   0  0  1  0  0  0  0  0  0  0  0  0
  -24.2629    8.5090   -2.8184 C   0  0  0  0  0  0  0  0  0  0  0  0
  -17.4166    8.9588   -3.0101 C   0  0  1  0  0  0  0  0  0  0  0  0
  -16.3751   10.0179   -2.7543 C   0  0  0  0  0  0  0  0  0  0  0  0
  -13.5207    8.8137   -0.8189 C   0  0  0  0  0  0  0  0  0  0  0  0
  -14.6919    9.5310   -0.9314 C   0  0  0  0  0  0  0  0  0  0  0  0
  -13.2940    8.7223    1.6137 C   0  0  0  0  0  0  0  0  0  0  0  0
  -11.1565    8.4265    2.6819 C   0  0  0  0  0  0  0  0  0  0  0  0
  -11.3458    8.5120    0.2794 C   0  0  0  0  0  0  0  0  0  0  0  0
  -29.3949   10.0608    4.3409 F   0  0  0  0  0  0  0  0  0  0  0  0
  -13.1132    8.6386    3.9891 F   0  0  0  0  0  0  0  0  0  0  0  0
  -25.2296   10.3305    1.0458 N   0  0  0  0  0  0  0  0  0  0  0  0
  -24.1823   10.2050    0.2142 N   0  0  0  0  0  0  0  0  0  0  0  0
  -23.4698    9.1459    0.5249 N   0  0  0  0  0  0  0  0  0  0  0  0
  -15.1737    9.4265   -2.1963 N   0  0  0  0  0  0  0  0  0  0  0  0
  -14.2963    8.6524   -2.8338 N   0  0  0  0  0  0  0  0  0  0  0  0
  -13.3164    8.2834   -2.0348 N   0  0  0  0  0  0  0  0  0  0  0  0
  -22.0740    9.3529   -2.7815 O   0  0  0  0  0  0  0  0  0  0  0  0
  -23.7569    6.9494   -0.7722 O   0  0  0  0  0  0  0  0  0  0  0  0
  -24.8683    7.5197   -3.5811 O   0  0  0  0  0  0  0  0  0  0  0  0
  -20.2681    9.8609    0.2349 O   0  0  0  0  0  0  0  0  0  0  0  0
  -17.8190    8.4388   -1.7671 O   0  0  0  0  0  0  0  0  0  0  0  0
  -19.6317   10.4323   -2.6100 S   0  0  0  0  0  0  0  0  0  0  0  0
  1  2  2  0
  5  1  1  0
  1 14  1  0
  2 15  1  0
  4  3  1  0
 15  3  2  0
 14  4  2  0
  4 26  1  0
  6  5  2  0
  5 28  1  0
 30  6  1  0
  8  7  1  0
 16  7  1  0
  7 35  1  1
  9  8  1  0
  8 30  1  6
 17  9  1  0
  9 37  1  1
 19 10  1  0
 10 39  1  6
 21 11  1  0
 11 23  1  0
 11 25  2  0
 23 12  2  0
 12 24  1  0
 12 27  1  0
 13 24  2  0
 25 13  1  0
 16 18  1  0
 16 34  1  1
 17 34  1  0
 17 39  1  6
 18 36  1  6
 20 19  1  0
 19 38  1  1
 20 31  1  6
 22 21  2  0
 21 33  1  0
 22 31  1  0
 28 29  2  0
 29 30  1  0
 31 32  1  0
 32 33  2  0
M  END
$$$$
