
     RDKit          3D

 39 43  0  0  0  0  0  0  0  0999 V2000
  -27.9054    8.6585    3.0617 C   0  0  0  0  0  0  0  0  0  0  0  0
  -28.6930    9.6410    3.6357 C   0  0  0  0  0  0  0  0  0  0  0  0
  -30.0832    8.0305    4.6462 C   0  0  0  0  0  0  0  0  0  0  0  0
  -29.3398    6.9976    4.1043 C   0  0  0  0  0  0  0  0  0  0  0  0
  -26.7597    9.0190    2.2282 C   0  0  0  0  0  0  0  0  0  0  0  0
  -25.9802    8.1348    1.5142 C   0  0  0  0  0  0  0  0  0  0  0  0
  -24.1757    8.6210   -1.4388 C   0  0  2  0  0  0  0  0  0  0  0  0
  -23.9992    8.2161    0.0018 C   0  0  1  0  0  0  0  0  0  0  0  0
  -22.6113    8.4853    0.5207 C   0  0  2  0  0  0  0  0  0  0  0  0
  -19.1257    8.0324   -1.5742 C   0  0  0  0  0  0  0  0  0  0  0  0
  -12.0507    8.6450   -2.1114 C   0  0  0  0  0  0  0  0  0  0  0  0
  -10.9199   10.3688   -3.2940 C   0  0  0  0  0  0  0  0  0  0  0  0
   -9.7122    8.9291   -1.8876 C   0  0  0  0  0  0  0  0  0  0  0  0
  -28.2562    7.3575    3.3160 C   0  0  0  0  0  0  0  0  0  0  0  0
  -29.7805    9.3554    4.4270 C   0  0  0  0  0  0  0  0  0  0  0  0
  -23.4854    9.8882   -1.8103 C   0  0  1  0  0  0  0  0  0  0  0  0
  -21.7685    8.8934   -0.6756 C   0  0  1  0  0  0  0  0  0  0  0  0
  -24.3333   11.1172   -1.6967 C   0  0  0  0  0  0  0  0  0  0  0  0
  -17.6635    8.0927   -1.2638 C   0  0  1  0  0  0  0  0  0  0  0  0
  -16.8392    7.1655   -2.1199 C   0  0  0  0  0  0  0  0  0  0  0  0
  -13.2861    7.9425   -1.7807 C   0  0  0  0  0  0  0  0  0  0  0  0
  -14.5162    8.1315   -2.3722 C   0  0  0  0  0  0  0  0  0  0  0  0
  -12.0856    9.7030   -2.9791 C   0  0  0  0  0  0  0  0  0  0  0  0
   -9.7064    9.9987   -2.7567 C   0  0  0  0  0  0  0  0  0  0  0  0
  -10.8606    8.2520   -1.5601 C   0  0  0  0  0  0  0  0  0  0  0  0
  -29.6700    5.7010    4.3434 F   0  0  0  0  0  0  0  0  0  0  0  0
  -10.9501   11.4316   -4.1646 F   0  0  0  0  0  0  0  0  0  0  0  0
  -26.2378   10.2319    1.9848 N   0  0  0  0  0  0  0  0  0  0  0  0
  -25.1875   10.0910    1.1594 N   0  0  0  0  0  0  0  0  0  0  0  0
  -25.0055    8.8260    0.8549 N   0  0  0  0  0  0  0  0  0  0  0  0
  -15.4294    7.3015   -1.8063 N   0  0  0  0  0  0  0  0  0  0  0  0
  -14.7489    6.6222   -0.8838 N   0  0  0  0  0  0  0  0  0  0  0  0
  -13.4843    6.9891   -0.8570 N   0  0  0  0  0  0  0  0  0  0  0  0
  -22.2935   10.1078   -1.1263 O   0  0  0  0  0  0  0  0  0  0  0  0
  -25.5581    8.7993   -1.6517 O   0  0  0  0  0  0  0  0  0  0  0  0
  -24.7583   11.5934   -2.9293 O   0  0  0  0  0  0  0  0  0  0  0  0
  -22.0826    7.3237    1.0697 O   0  0  0  0  0  0  0  0  0  0  0  0
  -17.1846    9.4006   -1.4577 O   0  0  0  0  0  0  0  0  0  0  0  0
  -20.0197    8.9639   -0.3010 S   0  0  0  0  0  0  0  0  0  0  0  0
  1  2  2  0
  5  1  1  0
  1 14  1  0
  2 15  1  0
  4  3  1  0
 15  3  2  0
 14  4  2  0
  4 26  1  0
  6  5  2  0
  5 28  1  0
 30  6  1  0
  8  7  1  0
 16  7  1  0
  7 35  1  1
  9  8  1  0
  8 30  1  1
 17  9  1  0
  9 37  1  6
 19 10  1  0
 10 39  1  6
 21 11  1  0
 11 23  1  0
 11 25  2  0
 23 12  2  0
 12 24  1  0
 12 27  1  0
 13 24  2  0
 25 13  1  0
 16 18  1  0
 16 34  1  1
 17 34  1  0
 17 39  1  1
 18 36  1  6
 20 19  1  0
 19 38  1  6
 20 31  1  6
 22 21  2  0
 21 33  1  0
 22 31  1  0
 28 29  2  0
 29 30  1  0
 31 32  1  0
 32 33  2  0
M  END
$$$$
