
     RDKit          3D

 39 43  0  0  0  0  0  0  0  0999 V2000
  -13.2915    8.1820   -1.0280 C   0  0  0  0  0  0  0  0  0  0  0  0
  -12.6546    7.6156   -2.0959 C   0  0  0  0  0  0  0  0  0  0  0  0
  -10.6587    7.3656   -0.8409 C   0  0  0  0  0  0  0  0  0  0  0  0
  -11.2888    7.9285    0.2238 C   0  0  0  0  0  0  0  0  0  0  0  0
  -14.6775    8.6082   -1.1348 C   0  0  0  0  0  0  0  0  0  0  0  0
  -15.7711    7.7871   -1.4316 C   0  0  0  0  0  0  0  0  0  0  0  0
  -18.7395    7.1236   -0.6248 C   0  0  2  0  0  0  0  0  0  0  0  0
  -18.2129    8.0165   -1.7133 C   0  0  1  0  0  0  0  0  0  0  0  0
  -19.1924    9.1202   -1.9612 C   0  0  2  0  0  0  0  0  0  0  0  0
  -23.2043   10.2624   -1.5105 C   0  0  0  0  0  0  0  0  0  0  0  0
  -28.3977    8.1324    3.0359 C   0  0  0  0  0  0  0  0  0  0  0  0
  -28.6132    6.2425    4.5267 C   0  0  0  0  0  0  0  0  0  0  0  0
  -30.1213    8.0663    4.7422 C   0  0  0  0  0  0  0  0  0  0  0  0
  -12.6082    8.3466    0.1563 C   0  0  0  0  0  0  0  0  0  0  0  0
  -11.3259    7.1959   -2.0248 C   0  0  0  0  0  0  0  0  0  0  0  0
  -20.0430    6.5615   -1.1629 C   0  0  1  0  0  0  0  0  0  0  0  0
  -20.6082    8.7239   -1.9340 C   0  0  1  0  0  0  0  0  0  0  0  0
  -20.5983    5.6386   -0.0794 C   0  0  0  0  0  0  0  0  0  0  0  0
  -24.2235   10.2080   -0.4113 C   0  0  1  0  0  0  0  0  0  0  0  0
  -25.2669    9.1411   -0.7499 C   0  0  0  0  0  0  0  0  0  0  0  0
  -27.7137    8.7911    1.9325 C   0  0  0  0  0  0  0  0  0  0  0  0
  -26.6728    8.3084    1.1744 C   0  0  0  0  0  0  0  0  0  0  0  0
  -27.9925    6.8947    3.4856 C   0  0  0  0  0  0  0  0  0  0  0  0
  -29.6840    6.8158    5.1698 C   0  0  0  0  0  0  0  0  0  0  0  0
  -29.4706    8.7027    3.6831 C   0  0  0  0  0  0  0  0  0  0  0  0
  -10.6197    8.0868    1.3825 F   0  0  0  0  0  0  0  0  0  0  0  0
  -28.1815    5.0313    4.9324 F   0  0  0  0  0  0  0  0  0  0  0  0
  -15.2051    9.8346   -0.9786 N   0  0  0  0  0  0  0  0  0  0  0  0
  -16.5216    9.7808   -1.1633 N   0  0  0  0  0  0  0  0  0  0  0  0
  -16.8996    8.5496   -1.4409 N   0  0  0  0  0  0  0  0  0  0  0  0
  -26.3174    9.2345    0.2417 N   0  0  0  0  0  0  0  0  0  0  0  0
  -27.1407   10.2563    0.4457 N   0  0  0  0  0  0  0  0  0  0  0  0
  -27.9725   10.0131    1.4404 N   0  0  0  0  0  0  0  0  0  0  0  0
  -20.9577    7.4914   -1.4672 O   0  0  0  0  0  0  0  0  0  0  0  0
  -19.0101    7.8041    0.5582 O   0  0  0  0  0  0  0  0  0  0  0  0
  -21.8265    5.1265   -0.4424 O   0  0  0  0  0  0  0  0  0  0  0  0
  -18.8642    9.6177   -3.2399 O   0  0  0  0  0  0  0  0  0  0  0  0
  -23.5886    9.9096    0.7894 O   0  0  0  0  0  0  0  0  0  0  0  0
  -21.5674    9.9139   -0.9550 S   0  0  0  0  0  0  0  0  0  0  0  0
  1  2  2  0
  5  1  1  0
  1 14  1  0
  2 15  1  0
  4  3  1  0
 15  3  2  0
 14  4  2  0
  4 26  1  0
  6  5  2  0
  5 28  1  0
 30  6  1  0
  8  7  1  0
 16  7  1  0
  7 35  1  1
  9  8  1  0
  8 30  1  1
 17  9  1  0
  9 37  1  6
 19 10  1  0
 10 39  1  0
 21 11  1  0
 11 23  1  0
 11 25  2  0
 23 12  2  0
 12 24  1  0
 12 27  1  0
 13 24  2  0
 25 13  1  0
 16 18  1  1
 34 16  1  0
 17 34  1  0
 17 39  1  1
 18 36  1  0
 20 19  1  0
 19 38  1  1
 31 20  1  0
 22 21  2  0
 21 33  1  0
 22 31  1  0
 28 29  2  0
 29 30  1  0
 31 32  1  0
 32 33  2  0
M  END
$$$$
