
     RDKit          3D

 39 43  0  0  0  0  0  0  0  0999 V2000
  -27.4863    8.5548    3.5206 C   0  0  0  0  0  0  0  0  0  0  0  0
  -28.6198    9.3421    3.6220 C   0  0  0  0  0  0  0  0  0  0  0  0
  -29.4876    7.9887    5.3433 C   0  0  0  0  0  0  0  0  0  0  0  0
  -28.3819    7.1590    5.2963 C   0  0  0  0  0  0  0  0  0  0  0  0
  -26.4437    8.8773    2.5479 C   0  0  0  0  0  0  0  0  0  0  0  0
  -25.6468    7.9611    1.8961 C   0  0  0  0  0  0  0  0  0  0  0  0
  -24.1409    8.1241   -1.2422 C   0  0  2  0  0  0  0  0  0  0  0  0
  -23.8020    7.9737    0.2183 C   0  0  1  0  0  0  0  0  0  0  0  0
  -22.4101    8.4441    0.5486 C   0  0  2  0  0  0  0  0  0  0  0  0
  -19.0847    7.9308   -1.7556 C   0  0  0  0  0  0  0  0  0  0  0  0
  -12.9804    8.9856    0.3423 C   0  0  0  0  0  0  0  0  0  0  0  0
  -11.4875    9.8907    1.9549 C   0  0  0  0  0  0  0  0  0  0  0  0
  -11.4614    7.5882    1.4997 C   0  0  0  0  0  0  0  0  0  0  0  0
  -27.4023    7.4796    4.3675 C   0  0  0  0  0  0  0  0  0  0  0  0
  -29.6287    9.0825    4.5193 C   0  0  0  0  0  0  0  0  0  0  0  0
  -23.6185    9.3707   -1.8694 C   0  0  1  0  0  0  0  0  0  0  0  0
  -21.7183    8.7268   -0.7741 C   0  0  1  0  0  0  0  0  0  0  0  0
  -24.5754   10.5225   -1.8599 C   0  0  0  0  0  0  0  0  0  0  0  0
  -18.1252    8.7657   -2.5432 C   0  0  1  0  0  0  0  0  0  0  0  0
  -16.8007    8.0843   -2.7740 C   0  0  0  0  0  0  0  0  0  0  0  0
  -14.0465    9.1737   -0.6361 C   0  0  0  0  0  0  0  0  0  0  0  0
  -14.8846    8.1968   -1.1282 C   0  0  0  0  0  0  0  0  0  0  0  0
  -12.4952   10.0649    1.0301 C   0  0  0  0  0  0  0  0  0  0  0  0
  -10.9467    8.6498    2.2121 C   0  0  0  0  0  0  0  0  0  0  0  0
  -12.4644    7.7387    0.5745 C   0  0  0  0  0  0  0  0  0  0  0  0
  -28.2784    6.0879    6.1264 F   0  0  0  0  0  0  0  0  0  0  0  0
  -10.9973   10.9714    2.6479 F   0  0  0  0  0  0  0  0  0  0  0  0
  -26.0498   10.0786    2.0955 N   0  0  0  0  0  0  0  0  0  0  0  0
  -25.0576    9.9002    1.2079 N   0  0  0  0  0  0  0  0  0  0  0  0
  -24.7895    8.6221    1.0650 N   0  0  0  0  0  0  0  0  0  0  0  0
  -15.7510    8.7425   -2.0195 N   0  0  0  0  0  0  0  0  0  0  0  0
  -15.4321   10.0357   -2.0589 N   0  0  0  0  0  0  0  0  0  0  0  0
  -14.4292   10.3049   -1.2487 N   0  0  0  0  0  0  0  0  0  0  0  0
  -22.4017    9.8017   -1.3495 O   0  0  0  0  0  0  0  0  0  0  0  0
  -25.5474    8.1434   -1.3404 O   0  0  0  0  0  0  0  0  0  0  0  0
  -25.1204   10.7794   -3.1104 O   0  0  0  0  0  0  0  0  0  0  0  0
  -21.7202    7.4373    1.2124 O   0  0  0  0  0  0  0  0  0  0  0  0
  -18.6767    9.0759   -3.7991 O   0  0  0  0  0  0  0  0  0  0  0  0
  -19.9606    9.0104   -0.5915 S   0  0  0  0  0  0  0  0  0  0  0  0
  1  2  2  0
  5  1  1  0
  1 14  1  0
  2 15  1  0
  4  3  1  0
 15  3  2  0
 14  4  2  0
  4 26  1  0
  6  5  2  0
  5 28  1  0
 30  6  1  0
  8  7  1  0
 16  7  1  0
  7 35  1  1
  9  8  1  0
  8 30  1  1
 17  9  1  0
  9 37  1  6
 19 10  1  0
 10 39  1  6
 21 11  1  0
 11 23  1  0
 11 25  2  0
 23 12  2  0
 12 24  1  0
 12 27  1  0
 13 24  2  0
 25 13  1  0
 16 18  1  0
 16 34  1  1
 17 34  1  0
 17 39  1  1
 18 36  1  6
 20 19  1  0
 19 38  1  6
 20 31  1  6
 22 21  2  0
 21 33  1  0
 22 31  1  0
 28 29  2  0
 29 30  1  0
 31 32  1  0
 32 33  2  0
M  END
$$$$
