
     RDKit          3D

 39 43  0  0  0  0  0  0  0  0999 V2000
  -13.2879    7.7632   -1.5958 C   0  0  0  0  0  0  0  0  0  0  0  0
  -12.2423    8.4788   -1.0395 C   0  0  0  0  0  0  0  0  0  0  0  0
  -10.6507    7.0547   -2.0326 C   0  0  0  0  0  0  0  0  0  0  0  0
  -11.6458    6.2944   -2.6200 C   0  0  0  0  0  0  0  0  0  0  0  0
  -14.6730    8.1602   -1.3482 C   0  0  0  0  0  0  0  0  0  0  0  0
  -15.7758    7.6756   -2.0177 C   0  0  0  0  0  0  0  0  0  0  0  0
  -18.7630    6.6837   -1.4678 C   0  0  2  0  0  0  0  0  0  0  0  0
  -18.2483    7.9995   -1.9915 C   0  0  1  0  0  0  0  0  0  0  0  0
  -19.1702    9.1515   -1.6900 C   0  0  2  0  0  0  0  0  0  0  0  0
  -23.3512    8.8739   -1.1544 C   0  0  0  0  0  0  0  0  0  0  0  0
  -28.9821    9.0155    3.1681 C   0  0  0  0  0  0  0  0  0  0  0  0
  -30.3215    7.1372    3.7394 C   0  0  0  0  0  0  0  0  0  0  0  0
  -30.4783    9.1117    4.9988 C   0  0  0  0  0  0  0  0  0  0  0  0
  -12.9543    6.6850   -2.3746 C   0  0  0  0  0  0  0  0  0  0  0  0
  -10.9232    8.1476   -1.2411 C   0  0  0  0  0  0  0  0  0  0  0  0
  -19.4216    6.7682   -0.1338 C   0  0  1  0  0  0  0  0  0  0  0  0
  -20.4477    8.5536   -1.1259 C   0  0  1  0  0  0  0  0  0  0  0  0
  -18.5135    6.5077    1.0280 C   0  0  0  0  0  0  0  0  0  0  0  0
  -24.2364    9.2768   -0.0177 C   0  0  1  0  0  0  0  0  0  0  0  0
  -25.6036    9.7273   -0.4648 C   0  0  0  0  0  0  0  0  0  0  0  0
  -27.9775    9.6349    2.3099 C   0  0  0  0  0  0  0  0  0  0  0  0
  -27.3447    9.0454    1.2371 C   0  0  0  0  0  0  0  0  0  0  0  0
  -29.3722    7.7252    2.9306 C   0  0  0  0  0  0  0  0  0  0  0  0
  -30.8970    7.8150    4.7918 C   0  0  0  0  0  0  0  0  0  0  0  0
  -29.5348    9.7168    4.2062 C   0  0  0  0  0  0  0  0  0  0  0  0
  -11.3374    5.2217   -3.3954 F   0  0  0  0  0  0  0  0  0  0  0  0
  -30.7161    5.8420    3.5047 F   0  0  0  0  0  0  0  0  0  0  0  0
  -15.1551    9.0417   -0.4574 N   0  0  0  0  0  0  0  0  0  0  0  0
  -16.4918    9.0905   -0.5802 N   0  0  0  0  0  0  0  0  0  0  0  0
  -16.8998    8.2702   -1.5218 N   0  0  0  0  0  0  0  0  0  0  0  0
  -26.4740    9.9247    0.6788 N   0  0  0  0  0  0  0  0  0  0  0  0
  -26.5865   11.0308    1.4133 N   0  0  0  0  0  0  0  0  0  0  0  0
  -27.4690   10.8751    2.3785 N   0  0  0  0  0  0  0  0  0  0  0  0
  -20.0975    7.9635    0.0917 O   0  0  0  0  0  0  0  0  0  0  0  0
  -17.6529    5.8221   -1.3519 O   0  0  0  0  0  0  0  0  0  0  0  0
  -19.0322    5.5776    1.9183 O   0  0  0  0  0  0  0  0  0  0  0  0
  -19.4703    9.8313   -2.8640 O   0  0  0  0  0  0  0  0  0  0  0  0
  -24.4048    8.1965    0.8666 O   0  0  0  0  0  0  0  0  0  0  0  0
  -21.7720    9.7496   -0.9879 S   0  0  0  0  0  0  0  0  0  0  0  0
  1  2  2  0
  5  1  1  0
  1 14  1  0
  2 15  1  0
  4  3  1  0
 15  3  2  0
 14  4  2  0
  4 26  1  0
  6  5  2  0
  5 28  1  0
 30  6  1  0
  8  7  1  0
 16  7  1  0
  7 35  1  1
  9  8  1  0
  8 30  1  1
 17  9  1  0
  9 37  1  6
 19 10  1  0
 10 39  1  6
 21 11  1  0
 11 23  1  0
 11 25  2  0
 23 12  2  0
 12 24  1  0
 12 27  1  0
 13 24  2  0
 25 13  1  0
 16 18  1  0
 16 34  1  1
 17 34  1  0
 17 39  1  1
 18 36  1  6
 20 19  1  0
 19 38  1  1
 20 31  1  6
 22 21  2  0
 21 33  1  0
 22 31  1  0
 28 29  2  0
 29 30  1  0
 31 32  1  0
 32 33  2  0
M  END
$$$$
