
     RDKit          3D

 39 43  0  0  0  0  0  0  0  0999 V2000
  -13.2632    8.6752   -0.5700 C   0  0  0  0  0  0  0  0  0  0  0  0
  -12.1985    9.3873   -1.0456 C   0  0  0  0  0  0  0  0  0  0  0  0
  -10.7142    8.2360    0.4010 C   0  0  0  0  0  0  0  0  0  0  0  0
  -11.7708    7.5254    0.8766 C   0  0  0  0  0  0  0  0  0  0  0  0
  -14.6013    8.9122   -1.0871 C   0  0  0  0  0  0  0  0  0  0  0  0
  -15.6676    8.0064   -1.0587 C   0  0  0  0  0  0  0  0  0  0  0  0
  -18.5241    7.3056   -0.4975 C   0  0  2  0  0  0  0  0  0  0  0  0
  -18.0301    7.9328   -1.7712 C   0  0  1  0  0  0  0  0  0  0  0  0
  -19.0657    8.8823   -2.2859 C   0  0  2  0  0  0  0  0  0  0  0  0
  -23.2334    9.6232   -1.7949 C   0  0  0  0  0  0  0  0  0  0  0  0
  -28.4648    8.6327    2.9471 C   0  0  0  0  0  0  0  0  0  0  0  0
  -30.0248    6.7890    3.0350 C   0  0  0  0  0  0  0  0  0  0  0  0
  -30.1356    8.4811    4.6998 C   0  0  0  0  0  0  0  0  0  0  0  0
  -13.0589    7.7263    0.4069 C   0  0  0  0  0  0  0  0  0  0  0  0
  -10.9028    9.1827   -0.5704 C   0  0  0  0  0  0  0  0  0  0  0  0
  -19.7847    6.5531   -0.8840 C   0  0  1  0  0  0  0  0  0  0  0  0
  -20.4573    8.4226   -2.1656 C   0  0  1  0  0  0  0  0  0  0  0  0
  -20.3056    5.8941    0.3922 C   0  0  0  0  0  0  0  0  0  0  0  0
  -24.0144    9.3502   -0.5437 C   0  0  1  0  0  0  0  0  0  0  0  0
  -25.2098   10.3035   -0.4829 C   0  0  0  0  0  0  0  0  0  0  0  0
  -27.3481    9.3042    2.2980 C   0  0  0  0  0  0  0  0  0  0  0  0
  -27.0200    9.3002    0.9625 C   0  0  0  0  0  0  0  0  0  0  0  0
  -28.9719    7.4529    2.4477 C   0  0  0  0  0  0  0  0  0  0  0  0
  -30.6217    7.2905    4.1669 C   0  0  0  0  0  0  0  0  0  0  0  0
  -29.0658    9.1312    4.0809 C   0  0  0  0  0  0  0  0  0  0  0  0
  -11.5690    6.5958    1.8307 F   0  0  0  0  0  0  0  0  0  0  0  0
  -30.4879    5.6366    2.5101 F   0  0  0  0  0  0  0  0  0  0  0  0
  -15.1012   10.0079   -1.6838 N   0  0  0  0  0  0  0  0  0  0  0  0
  -16.3766    9.8005   -2.0013 N   0  0  0  0  0  0  0  0  0  0  0  0
  -16.7536    8.5924   -1.6351 N   0  0  0  0  0  0  0  0  0  0  0  0
  -25.9013   10.0502    0.7633 N   0  0  0  0  0  0  0  0  0  0  0  0
  -25.5700   10.4944    1.9703 N   0  0  0  0  0  0  0  0  0  0  0  0
  -26.4127   10.0641    2.8895 N   0  0  0  0  0  0  0  0  0  0  0  0
  -20.7449    7.3245   -1.4103 O   0  0  0  0  0  0  0  0  0  0  0  0
  -18.8525    8.2390    0.4806 O   0  0  0  0  0  0  0  0  0  0  0  0
  -21.4109    5.1106    0.1330 O   0  0  0  0  0  0  0  0  0  0  0  0
  -18.7443    9.0685   -3.6470 O   0  0  0  0  0  0  0  0  0  0  0  0
  -24.4420    8.0269   -0.5487 O   0  0  0  0  0  0  0  0  0  0  0  0
  -21.4982    9.7586   -1.5124 S   0  0  0  0  0  0  0  0  0  0  0  0
  1  2  2  0
  5  1  1  0
  1 14  1  0
  2 15  1  0
  4  3  1  0
 15  3  2  0
 14  4  2  0
  4 26  1  0
  6  5  2  0
  5 28  1  0
 30  6  1  0
  8  7  1  0
 16  7  1  0
  7 35  1  1
  9  8  1  0
  8 30  1  1
 17  9  1  0
  9 37  1  6
 19 10  1  0
 10 39  1  0
 21 11  1  0
 11 23  1  0
 11 25  2  0
 23 12  2  0
 12 24  1  0
 12 27  1  0
 13 24  2  0
 25 13  1  0
 16 18  1  1
 34 16  1  0
 17 34  1  0
 17 39  1  1
 18 36  1  0
 20 19  1  0
 19 38  1  6
 31 20  1  0
 22 21  2  0
 21 33  1  0
 22 31  1  0
 28 29  2  0
 29 30  1  0
 31 32  1  0
 32 33  2  0
M  END
$$$$
