
     RDKit          3D

 39 43  0  0  0  0  0  0  0  0999 V2000
  -13.8706    8.7626    0.8614 C   0  0  0  0  0  0  0  0  0  0  0  0
  -14.5475    8.3952    1.9900 C   0  0  0  0  0  0  0  0  0  0  0  0
  -12.5294    8.2880    3.2297 C   0  0  0  0  0  0  0  0  0  0  0  0
  -11.8524    8.6535    2.1092 C   0  0  0  0  0  0  0  0  0  0  0  0
  -14.5844    9.0112   -0.3807 C   0  0  0  0  0  0  0  0  0  0  0  0
  -15.9441    8.7736   -0.6110 C   0  0  0  0  0  0  0  0  0  0  0  0
  -17.8023    7.7127   -3.1654 C   0  0  2  0  0  0  0  0  0  0  0  0
  -17.5604    9.0183   -2.4609 C   0  0  1  0  0  0  0  0  0  0  0  0
  -18.6094    9.2131   -1.4118 C   0  0  2  0  0  0  0  0  0  0  0  0
  -22.4929    7.8641   -0.3750 C   0  0  0  0  0  0  0  0  0  0  0  0
  -26.8452   11.5408    3.7743 C   0  0  0  0  0  0  0  0  0  0  0  0
  -27.7595   12.6810    5.6989 C   0  0  0  0  0  0  0  0  0  0  0  0
  -28.9822   10.8924    4.7227 C   0  0  0  0  0  0  0  0  0  0  0  0
  -12.5009    8.8972    0.9090 C   0  0  0  0  0  0  0  0  0  0  0  0
  -13.8915    8.1504    3.1968 C   0  0  0  0  0  0  0  0  0  0  0  0
  -19.1712    7.8511   -3.8070 C   0  0  1  0  0  0  0  0  0  0  0  0
  -19.9694    8.8089   -1.7982 C   0  0  1  0  0  0  0  0  0  0  0  0
  -19.4411    6.5391   -4.5418 C   0  0  0  0  0  0  0  0  0  0  0  0
  -23.0165    8.7762    0.6946 C   0  0  1  0  0  0  0  0  0  0  0  0
  -23.9595    9.8006    0.0600 C   0  0  0  0  0  0  0  0  0  0  0  0
  -25.7825   11.3889    2.7910 C   0  0  0  0  0  0  0  0  0  0  0  0
  -25.6273   10.3868    1.8621 C   0  0  0  0  0  0  0  0  0  0  0  0
  -26.7739   12.5067    4.7542 C   0  0  0  0  0  0  0  0  0  0  0  0
  -28.8760   11.8795    5.6985 C   0  0  0  0  0  0  0  0  0  0  0  0
  -27.9653   10.7404    3.7778 C   0  0  0  0  0  0  0  0  0  0  0  0
  -10.5126    8.7870    2.1580 F   0  0  0  0  0  0  0  0  0  0  0  0
  -27.6461   13.6401    6.6398 F   0  0  0  0  0  0  0  0  0  0  0  0
  -14.1237    9.5061   -1.5424 N   0  0  0  0  0  0  0  0  0  0  0  0
  -15.1173    9.5713   -2.4249 N   0  0  0  0  0  0  0  0  0  0  0  0
  -16.2393    9.1331   -1.8910 N   0  0  0  0  0  0  0  0  0  0  0  0
  -24.5009   10.6105    1.1307 N   0  0  0  0  0  0  0  0  0  0  0  0
  -23.9938   11.7352    1.6222 N   0  0  0  0  0  0  0  0  0  0  0  0
  -24.7367   12.2096    2.6036 N   0  0  0  0  0  0  0  0  0  0  0  0
  -20.1632    8.0870   -2.9386 O   0  0  0  0  0  0  0  0  0  0  0  0
  -17.8305    6.6220   -2.3020 O   0  0  0  0  0  0  0  0  0  0  0  0
  -19.9678    6.7695   -5.7957 O   0  0  0  0  0  0  0  0  0  0  0  0
  -18.5884   10.5950   -1.1283 O   0  0  0  0  0  0  0  0  0  0  0  0
  -23.6843    8.0229    1.6540 O   0  0  0  0  0  0  0  0  0  0  0  0
  -20.7320    7.8416   -0.4649 S   0  0  0  0  0  0  0  0  0  0  0  0
  1  2  2  0
  5  1  1  0
  1 14  1  0
  2 15  1  0
  4  3  1  0
 15  3  2  0
 14  4  2  0
  4 26  1  0
  6  5  2  0
  5 28  1  0
 30  6  1  0
  8  7  1  0
 16  7  1  0
  7 35  1  1
  9  8  1  0
  8 30  1  1
 17  9  1  0
  9 37  1  6
 19 10  1  0
 10 39  1  0
 21 11  1  0
 11 23  1  0
 11 25  2  0
 23 12  2  0
 12 24  1  0
 12 27  1  0
 13 24  2  0
 25 13  1  0
 16 18  1  1
 34 16  1  0
 17 34  1  0
 17 39  1  1
 18 36  1  0
 20 19  1  0
 19 38  1  1
 31 20  1  0
 22 21  2  0
 21 33  1  0
 22 31  1  0
 28 29  2  0
 29 30  1  0
 31 32  1  0
 32 33  2  0
M  END
$$$$
