
     RDKit          3D

 39 43  0  0  0  0  0  0  0  0999 V2000
  -26.8774    9.1631    2.9143 C   0  0  0  0  0  0  0  0  0  0  0  0
  -27.4783   10.2628    3.5011 C   0  0  0  0  0  0  0  0  0  0  0  0
  -28.9602    8.8907    4.7130 C   0  0  0  0  0  0  0  0  0  0  0  0
  -28.4063    7.7481    4.1647 C   0  0  0  0  0  0  0  0  0  0  0  0
  -25.7779    9.3361    1.9664 C   0  0  0  0  0  0  0  0  0  0  0  0
  -24.7984    8.4044    1.6987 C   0  0  0  0  0  0  0  0  0  0  0  0
  -23.0269    7.7101   -1.1643 C   0  0  2  0  0  0  0  0  0  0  0  0
  -22.7861    8.1998    0.2402 C   0  0  1  0  0  0  0  0  0  0  0  0
  -21.5362    9.0305    0.3653 C   0  0  2  0  0  0  0  0  0  0  0  0
  -17.9800    8.3023   -1.3877 C   0  0  0  0  0  0  0  0  0  0  0  0
  -12.5366    9.1191    0.3697 C   0  0  0  0  0  0  0  0  0  0  0  0
  -11.9773    8.1691    2.4752 C   0  0  0  0  0  0  0  0  0  0  0  0
  -10.7388    9.9814    1.6441 C   0  0  0  0  0  0  0  0  0  0  0  0
  -27.3640    7.9305    3.2672 C   0  0  0  0  0  0  0  0  0  0  0  0
  -28.5149   10.1546    4.3978 C   0  0  0  0  0  0  0  0  0  0  0  0
  -22.6937    8.7007   -2.2264 C   0  0  1  0  0  0  0  0  0  0  0  0
  -20.8030    8.9202   -0.9607 C   0  0  1  0  0  0  0  0  0  0  0  0
  -23.8439    9.5507   -2.6700 C   0  0  0  0  0  0  0  0  0  0  0  0
  -17.3658    8.6899   -2.6955 C   0  0  1  0  0  0  0  0  0  0  0  0
  -16.0780    7.9610   -2.9823 C   0  0  0  0  0  0  0  0  0  0  0  0
  -13.3787    9.1396   -0.8217 C   0  0  0  0  0  0  0  0  0  0  0  0
  -14.4146    8.2759   -1.1043 C   0  0  0  0  0  0  0  0  0  0  0  0
  -12.7710    8.1909    1.3480 C   0  0  0  0  0  0  0  0  0  0  0  0
  -10.9433    9.0625    2.6507 C   0  0  0  0  0  0  0  0  0  0  0  0
  -11.5166   10.0212    0.5136 C   0  0  0  0  0  0  0  0  0  0  0  0
  -28.8733    6.5167    4.5005 F   0  0  0  0  0  0  0  0  0  0  0  0
  -12.2089    7.2389    3.4599 F   0  0  0  0  0  0  0  0  0  0  0  0
  -25.4918   10.3895    1.1844 N   0  0  0  0  0  0  0  0  0  0  0  0
  -24.3873   10.1101    0.4729 N   0  0  0  0  0  0  0  0  0  0  0  0
  -23.9417    8.9090    0.7637 N   0  0  0  0  0  0  0  0  0  0  0  0
  -14.9683    8.6001   -2.3006 N   0  0  0  0  0  0  0  0  0  0  0  0
  -14.2678    9.6496   -2.7287 N   0  0  0  0  0  0  0  0  0  0  0  0
  -13.3273    9.9791   -1.8676 N   0  0  0  0  0  0  0  0  0  0  0  0
  -21.6235    9.5328   -1.9120 O   0  0  0  0  0  0  0  0  0  0  0  0
  -24.4002    7.4068   -1.2668 O   0  0  0  0  0  0  0  0  0  0  0  0
  -24.4293    9.0943   -3.8429 O   0  0  0  0  0  0  0  0  0  0  0  0
  -20.7290    8.5142    1.3714 O   0  0  0  0  0  0  0  0  0  0  0  0
  -18.2601    8.4175   -3.7460 O   0  0  0  0  0  0  0  0  0  0  0  0
  -19.1484    9.5996   -0.8976 S   0  0  0  0  0  0  0  0  0  0  0  0
  1  2  2  0
  5  1  1  0
  1 14  1  0
  2 15  1  0
  4  3  1  0
 15  3  2  0
 14  4  2  0
  4 26  1  0
  6  5  2  0
  5 28  1  0
 30  6  1  0
  8  7  1  0
 16  7  1  0
  7 35  1  1
  9  8  1  0
  8 30  1  6
 17  9  1  0
  9 37  1  1
 19 10  1  0
 10 39  1  6
 21 11  1  0
 11 23  1  0
 11 25  2  0
 23 12  2  0
 12 24  1  0
 12 27  1  0
 13 24  2  0
 25 13  1  0
 16 18  1  0
 16 34  1  1
 17 34  1  0
 17 39  1  1
 18 36  1  6
 20 19  1  0
 19 38  1  6
 20 31  1  6
 22 21  2  0
 21 33  1  0
 22 31  1  0
 28 29  2  0
 29 30  1  0
 31 32  1  0
 32 33  2  0
M  END
$$$$
