
     RDKit          3D

 39 43  0  0  0  0  0  0  0  0999 V2000
  -13.5430    8.6674   -0.5985 C   0  0  0  0  0  0  0  0  0  0  0  0
  -12.7633    8.3293   -1.6906 C   0  0  0  0  0  0  0  0  0  0  0  0
  -10.8720    9.3686   -0.7469 C   0  0  0  0  0  0  0  0  0  0  0  0
  -11.5918    9.7393    0.3746 C   0  0  0  0  0  0  0  0  0  0  0  0
  -14.9527    8.2838   -0.5462 C   0  0  0  0  0  0  0  0  0  0  0  0
  -15.8971    8.5750   -1.5067 C   0  0  0  0  0  0  0  0  0  0  0  0
  -18.9095    6.8238   -2.2159 C   0  0  2  0  0  0  0  0  0  0  0  0
  -18.3280    8.1763   -1.8947 C   0  0  1  0  0  0  0  0  0  0  0  0
  -19.3126    9.0916   -1.2159 C   0  0  2  0  0  0  0  0  0  0  0  0
  -23.3315    9.3286   -2.0150 C   0  0  0  0  0  0  0  0  0  0  0  0
  -28.1178    9.2719    3.3636 C   0  0  0  0  0  0  0  0  0  0  0  0
  -30.3936    9.8779    3.6832 C   0  0  0  0  0  0  0  0  0  0  0  0
  -29.2980    8.5604    5.2873 C   0  0  0  0  0  0  0  0  0  0  0  0
  -12.9280    9.3672    0.4077 C   0  0  0  0  0  0  0  0  0  0  0  0
  -11.4338    8.6657   -1.7888 C   0  0  0  0  0  0  0  0  0  0  0  0
  -19.8159    6.2792   -1.1661 C   0  0  1  0  0  0  0  0  0  0  0  0
  -20.6637    8.3993   -1.2715 C   0  0  1  0  0  0  0  0  0  0  0  0
  -19.1458    5.3946   -0.1607 C   0  0  0  0  0  0  0  0  0  0  0  0
  -24.6398    9.2156   -1.2982 C   0  0  1  0  0  0  0  0  0  0  0  0
  -24.8644   10.3232   -0.3009 C   0  0  0  0  0  0  0  0  0  0  0  0
  -26.9007    9.3175    2.5601 C   0  0  0  0  0  0  0  0  0  0  0  0
  -26.7346    9.9867    1.3670 C   0  0  0  0  0  0  0  0  0  0  0  0
  -29.2420    9.9186    2.9261 C   0  0  0  0  0  0  0  0  0  0  0  0
  -30.4498    9.1987    4.8806 C   0  0  0  0  0  0  0  0  0  0  0  0
  -28.1406    8.5879    4.5496 C   0  0  0  0  0  0  0  0  0  0  0  0
  -11.0020   10.4333    1.3834 F   0  0  0  0  0  0  0  0  0  0  0  0
  -31.5247   10.5256    3.2478 F   0  0  0  0  0  0  0  0  0  0  0  0
  -15.6087    7.5962    0.4024 N   0  0  0  0  0  0  0  0  0  0  0  0
  -16.8949    7.4750    0.0345 N   0  0  0  0  0  0  0  0  0  0  0  0
  -17.1017    8.0605   -1.1232 N   0  0  0  0  0  0  0  0  0  0  0  0
  -25.4694    9.8028    0.9105 N   0  0  0  0  0  0  0  0  0  0  0  0
  -24.8848    9.0294    1.8247 N   0  0  0  0  0  0  0  0  0  0  0  0
  -25.7161    8.7351    2.8030 N   0  0  0  0  0  0  0  0  0  0  0  0
  -20.5453    7.2496   -0.4857 O   0  0  0  0  0  0  0  0  0  0  0  0
  -17.8268    5.9324   -2.3620 O   0  0  0  0  0  0  0  0  0  0  0  0
  -20.0046    4.4471    0.3793 O   0  0  0  0  0  0  0  0  0  0  0  0
  -19.3920   10.2923   -1.9104 O   0  0  0  0  0  0  0  0  0  0  0  0
  -25.6986    9.2452   -2.2231 O   0  0  0  0  0  0  0  0  0  0  0  0
  -22.0122    9.4682   -0.7789 S   0  0  0  0  0  0  0  0  0  0  0  0
  1  2  2  0
  5  1  1  0
  1 14  1  0
  2 15  1  0
  4  3  1  0
 15  3  2  0
 14  4  2  0
  4 26  1  0
  6  5  2  0
  5 28  1  0
 30  6  1  0
  8  7  1  0
 16  7  1  0
  7 35  1  1
  9  8  1  0
  8 30  1  1
 17  9  1  0
  9 37  1  6
 19 10  1  0
 10 39  1  6
 21 11  1  0
 11 23  1  0
 11 25  2  0
 23 12  2  0
 12 24  1  0
 12 27  1  0
 13 24  2  0
 25 13  1  0
 16 18  1  0
 16 34  1  1
 17 34  1  0
 17 39  1  1
 18 36  1  6
 20 19  1  0
 19 38  1  6
 20 31  1  6
 22 21  2  0
 21 33  1  0
 22 31  1  0
 28 29  2  0
 29 30  1  0
 31 32  1  0
 32 33  2  0
M  END
$$$$
