
     RDKit          3D

 39 43  0  0  0  0  0  0  0  0999 V2000
  -13.6028    8.4574   -2.3398 C   0  0  0  0  0  0  0  0  0  0  0  0
  -12.5312    8.7218   -1.5051 C   0  0  0  0  0  0  0  0  0  0  0  0
  -11.0223    8.6627   -3.3126 C   0  0  0  0  0  0  0  0  0  0  0  0
  -12.0459    8.3966   -4.2040 C   0  0  0  0  0  0  0  0  0  0  0  0
  -14.9569    8.3541   -1.7985 C   0  0  0  0  0  0  0  0  0  0  0  0
  -16.1194    8.5823   -2.5025 C   0  0  0  0  0  0  0  0  0  0  0  0
  -19.2836    7.2174   -2.1514 C   0  0  2  0  0  0  0  0  0  0  0  0
  -18.5770    8.5465   -2.0813 C   0  0  1  0  0  0  0  0  0  0  0  0
  -19.2903    9.5443   -1.2075 C   0  0  2  0  0  0  0  0  0  0  0  0
  -23.3920    9.8811   -0.7721 C   0  0  0  0  0  0  0  0  0  0  0  0
  -28.9085    9.6013    3.6656 C   0  0  0  0  0  0  0  0  0  0  0  0
  -30.1209    9.5325    5.7086 C   0  0  0  0  0  0  0  0  0  0  0  0
  -30.4070   11.3405    4.2395 C   0  0  0  0  0  0  0  0  0  0  0  0
  -13.3244    8.3019   -3.6735 C   0  0  0  0  0  0  0  0  0  0  0  0
  -11.2394    8.8288   -1.9634 C   0  0  0  0  0  0  0  0  0  0  0  0
  -19.8810    6.7700   -0.8617 C   0  0  1  0  0  0  0  0  0  0  0  0
  -20.6313    8.9291   -0.8455 C   0  0  1  0  0  0  0  0  0  0  0  0
  -18.9944    5.8911   -0.0349 C   0  0  0  0  0  0  0  0  0  0  0  0
  -24.3712    9.7100    0.3459 C   0  0  1  0  0  0  0  0  0  0  0  0
  -25.6285    8.9929   -0.0747 C   0  0  0  0  0  0  0  0  0  0  0  0
  -27.9473    8.9989    2.7477 C   0  0  0  0  0  0  0  0  0  0  0  0
  -27.3091    9.6316    1.7031 C   0  0  0  0  0  0  0  0  0  0  0  0
  -29.2128    8.9661    4.8393 C   0  0  0  0  0  0  0  0  0  0  0  0
  -30.7393   10.7318    5.4304 C   0  0  0  0  0  0  0  0  0  0  0  0
  -29.5057   10.7947    3.3593 C   0  0  0  0  0  0  0  0  0  0  0  0
  -11.7922    8.2387   -5.5298 F   0  0  0  0  0  0  0  0  0  0  0  0
  -30.4294    8.8984    6.8881 F   0  0  0  0  0  0  0  0  0  0  0  0
  -15.3499    8.0300   -0.5561 N   0  0  0  0  0  0  0  0  0  0  0  0
  -16.6919    8.0598   -0.5075 N   0  0  0  0  0  0  0  0  0  0  0  0
  -17.1895    8.3927   -1.6769 N   0  0  0  0  0  0  0  0  0  0  0  0
  -26.4869    8.7559    1.0704 N   0  0  0  0  0  0  0  0  0  0  0  0
  -26.6337    7.6091    1.7328 N   0  0  0  0  0  0  0  0  0  0  0  0
  -27.4914    7.7368    2.7242 N   0  0  0  0  0  0  0  0  0  0  0  0
  -20.3468    7.8081   -0.0606 O   0  0  0  0  0  0  0  0  0  0  0  0
  -18.3254    6.2600   -2.5431 O   0  0  0  0  0  0  0  0  0  0  0  0
  -19.6012    4.6933    0.3170 O   0  0  0  0  0  0  0  0  0  0  0  0
  -19.5095   10.7176   -1.9186 O   0  0  0  0  0  0  0  0  0  0  0  0
  -23.7836    8.9757    1.3913 O   0  0  0  0  0  0  0  0  0  0  0  0
  -21.7390   10.0932   -0.0574 S   0  0  0  0  0  0  0  0  0  0  0  0
  1  2  2  0
  5  1  1  0
  1 14  1  0
  2 15  1  0
  4  3  1  0
 15  3  2  0
 14  4  2  0
  4 26  1  0
  6  5  2  0
  5 28  1  0
 30  6  1  0
  8  7  1  0
 16  7  1  0
  7 35  1  1
  9  8  1  0
  8 30  1  1
 17  9  1  0
  9 37  1  6
 19 10  1  0
 10 39  1  6
 21 11  1  0
 11 23  1  0
 11 25  2  0
 23 12  2  0
 12 24  1  0
 12 27  1  0
 13 24  2  0
 25 13  1  0
 16 18  1  0
 16 34  1  1
 17 34  1  0
 17 39  1  1
 18 36  1  6
 20 19  1  0
 19 38  1  1
 20 31  1  6
 22 21  2  0
 21 33  1  0
 22 31  1  0
 28 29  2  0
 29 30  1  0
 31 32  1  0
 32 33  2  0
M  END
$$$$
