
     RDKit          3D

 39 43  0  0  0  0  0  0  0  0999 V2000
  -27.2691    8.5448    3.5863 C   0  0  0  0  0  0  0  0  0  0  0  0
  -28.4307    7.9854    3.1339 C   0  0  0  0  0  0  0  0  0  0  0  0
  -29.1132    7.4825    5.3480 C   0  0  0  0  0  0  0  0  0  0  0  0
  -27.9589    8.0382    5.8020 C   0  0  0  0  0  0  0  0  0  0  0  0
  -26.3043    9.1023    2.6522 C   0  0  0  0  0  0  0  0  0  0  0  0
  -25.9883    8.5880    1.3897 C   0  0  0  0  0  0  0  0  0  0  0  0
  -24.5403   10.3389   -1.4011 C   0  0  2  0  0  0  0  0  0  0  0  0
  -24.4907    9.1419   -0.4932 C   0  0  1  0  0  0  0  0  0  0  0  0
  -23.0779    8.6597   -0.3914 C   0  0  2  0  0  0  0  0  0  0  0  0
  -19.4382    9.0719   -2.5807 C   0  0  0  0  0  0  0  0  0  0  0  0
  -13.1784    7.7478    0.3244 C   0  0  0  0  0  0  0  0  0  0  0  0
  -12.6474    8.2415    2.6297 C   0  0  0  0  0  0  0  0  0  0  0  0
  -10.9906    7.2473    1.2462 C   0  0  0  0  0  0  0  0  0  0  0  0
  -27.0176    8.5776    4.9399 C   0  0  0  0  0  0  0  0  0  0  0  0
  -29.3763    7.4429    4.0046 C   0  0  0  0  0  0  0  0  0  0  0  0
  -24.0546    9.8394   -2.7498 C   0  0  1  0  0  0  0  0  0  0  0  0
  -22.3126    8.6824   -1.6468 C   0  0  1  0  0  0  0  0  0  0  0  0
  -24.1042   11.0352   -3.6994 C   0  0  0  0  0  0  0  0  0  0  0  0
  -18.2212    8.3919   -2.0274 C   0  0  1  0  0  0  0  0  0  0  0  0
  -16.9773    8.9522   -2.7203 C   0  0  0  0  0  0  0  0  0  0  0  0
  -14.1321    7.7574   -0.7755 C   0  0  0  0  0  0  0  0  0  0  0  0
  -15.1665    8.6380   -0.9897 C   0  0  0  0  0  0  0  0  0  0  0  0
  -13.5212    8.2359    1.5664 C   0  0  0  0  0  0  0  0  0  0  0  0
  -11.3722    7.7489    2.4875 C   0  0  0  0  0  0  0  0  0  0  0  0
  -11.9002    7.2554    0.1866 C   0  0  0  0  0  0  0  0  0  0  0  0
  -27.7153    8.0717    7.1267 F   0  0  0  0  0  0  0  0  0  0  0  0
  -13.0274    8.7300    3.8276 F   0  0  0  0  0  0  0  0  0  0  0  0
  -25.5287   10.1926    2.7795 N   0  0  0  0  0  0  0  0  0  0  0  0
  -24.7894   10.3448    1.6838 N   0  0  0  0  0  0  0  0  0  0  0  0
  -25.0440    9.3854    0.8175 N   0  0  0  0  0  0  0  0  0  0  0  0
  -15.8255    8.3015   -2.1325 N   0  0  0  0  0  0  0  0  0  0  0  0
  -15.1868    7.2311   -2.5910 N   0  0  0  0  0  0  0  0  0  0  0  0
  -14.1839    6.8947   -1.8028 N   0  0  0  0  0  0  0  0  0  0  0  0
  -22.8141    9.3347   -2.7341 O   0  0  0  0  0  0  0  0  0  0  0  0
  -23.7054   11.3729   -0.9892 O   0  0  0  0  0  0  0  0  0  0  0  0
  -23.2693   10.8474   -4.7812 O   0  0  0  0  0  0  0  0  0  0  0  0
  -23.1791    7.3330    0.0778 O   0  0  0  0  0  0  0  0  0  0  0  0
  -18.1579    8.6087   -0.6551 O   0  0  0  0  0  0  0  0  0  0  0  0
  -20.6677    9.3937   -1.3584 S   0  0  0  0  0  0  0  0  0  0  0  0
  1  2  2  0
  5  1  1  0
  1 14  1  0
  2 15  1  0
  4  3  1  0
 15  3  2  0
 14  4  2  0
  4 26  1  0
  6  5  2  0
  5 28  1  0
 30  6  1  0
  8  7  1  0
 16  7  1  0
  7 35  1  1
  9  8  1  0
  8 30  1  1
 17  9  1  0
  9 37  1  6
 19 10  1  0
 10 39  1  0
 21 11  1  0
 11 23  1  0
 11 25  2  0
 23 12  2  0
 12 24  1  0
 12 27  1  0
 13 24  2  0
 25 13  1  0
 16 18  1  6
 34 16  1  0
 17 34  1  0
 17 39  1  1
 18 36  1  0
 20 19  1  0
 19 38  1  1
 31 20  1  0
 22 21  2  0
 21 33  1  0
 22 31  1  0
 28 29  2  0
 29 30  1  0
 31 32  1  0
 32 33  2  0
M  END
$$$$
