
     RDKit          3D

 39 43  0  0  0  0  0  0  0  0999 V2000
  -13.0716    8.2313   -0.9349 C   0  0  0  0  0  0  0  0  0  0  0  0
  -12.7115    7.8308   -2.1906 C   0  0  0  0  0  0  0  0  0  0  0  0
  -10.4215    7.7882   -1.5781 C   0  0  0  0  0  0  0  0  0  0  0  0
  -10.7757    8.1863   -0.3278 C   0  0  0  0  0  0  0  0  0  0  0  0
  -14.4687    8.4616   -0.6046 C   0  0  0  0  0  0  0  0  0  0  0  0
  -15.5666    7.7913   -1.1557 C   0  0  0  0  0  0  0  0  0  0  0  0
  -18.7202    7.0927    0.1848 C   0  0  2  0  0  0  0  0  0  0  0  0
  -18.0255    7.8119   -0.9376 C   0  0  1  0  0  0  0  0  0  0  0  0
  -18.8876    8.9417   -1.4060 C   0  0  2  0  0  0  0  0  0  0  0  0
  -22.9296   10.2238   -1.3158 C   0  0  0  0  0  0  0  0  0  0  0  0
  -28.6763    8.6473    2.5979 C   0  0  0  0  0  0  0  0  0  0  0  0
  -29.2965    6.4841    3.4791 C   0  0  0  0  0  0  0  0  0  0  0  0
  -30.6147    8.3823    4.0329 C   0  0  0  0  0  0  0  0  0  0  0  0
  -12.0971    8.4156    0.0206 C   0  0  0  0  0  0  0  0  0  0  0  0
  -11.3800    7.6011   -2.5383 C   0  0  0  0  0  0  0  0  0  0  0  0
  -20.0080    6.5597   -0.4170 C   0  0  1  0  0  0  0  0  0  0  0  0
  -20.3265    8.6479   -1.4790 C   0  0  1  0  0  0  0  0  0  0  0  0
  -20.7330    5.8121    0.7009 C   0  0  0  0  0  0  0  0  0  0  0  0
  -23.9471   10.1662   -0.2153 C   0  0  1  0  0  0  0  0  0  0  0  0
  -25.3485   10.1735   -0.8297 C   0  0  0  0  0  0  0  0  0  0  0  0
  -27.7805    9.4678    1.7955 C   0  0  0  0  0  0  0  0  0  0  0  0
  -26.9888    9.0733    0.7425 C   0  0  0  0  0  0  0  0  0  0  0  0
  -28.4722    7.2910    2.7280 C   0  0  0  0  0  0  0  0  0  0  0  0
  -30.3774    7.0149    4.1416 C   0  0  0  0  0  0  0  0  0  0  0  0
  -29.7602    9.1745    3.2632 C   0  0  0  0  0  0  0  0  0  0  0  0
   -9.8214    8.3639    0.6066 F   0  0  0  0  0  0  0  0  0  0  0  0
  -29.0574    5.1608    3.5772 F   0  0  0  0  0  0  0  0  0  0  0  0
  -15.0043    9.3317    0.2687 N   0  0  0  0  0  0  0  0  0  0  0  0
  -16.3295    9.2123    0.2616 N   0  0  0  0  0  0  0  0  0  0  0  0
  -16.7055    8.2838   -0.5942 N   0  0  0  0  0  0  0  0  0  0  0  0
  -26.2988   10.1441    0.2619 N   0  0  0  0  0  0  0  0  0  0  0  0
  -26.6787   11.1635    1.0237 N   0  0  0  0  0  0  0  0  0  0  0  0
  -27.5533   10.7835    1.9352 N   0  0  0  0  0  0  0  0  0  0  0  0
  -20.8141    7.5063   -0.9151 O   0  0  0  0  0  0  0  0  0  0  0  0
  -19.0456    7.9261    1.2504 O   0  0  0  0  0  0  0  0  0  0  0  0
  -22.0530    5.5830    0.3726 O   0  0  0  0  0  0  0  0  0  0  0  0
  -18.4032    9.2600   -2.6923 O   0  0  0  0  0  0  0  0  0  0  0  0
  -23.7466    9.0129    0.5356 O   0  0  0  0  0  0  0  0  0  0  0  0
  -21.2761   10.0081   -0.7422 S   0  0  0  0  0  0  0  0  0  0  0  0
  1  2  2  0
  5  1  1  0
  1 14  1  0
  2 15  1  0
  4  3  1  0
 15  3  2  0
 14  4  2  0
  4 26  1  0
  6  5  2  0
  5 28  1  0
 30  6  1  0
  8  7  1  0
 16  7  1  0
  7 35  1  1
  9  8  1  0
  8 30  1  1
 17  9  1  0
  9 37  1  6
 19 10  1  0
 10 39  1  0
 21 11  1  0
 11 23  1  0
 11 25  2  0
 23 12  2  0
 12 24  1  0
 12 27  1  0
 13 24  2  0
 25 13  1  0
 16 18  1  1
 34 16  1  0
 17 34  1  0
 17 39  1  1
 18 36  1  0
 20 19  1  0
 19 38  1  6
 31 20  1  0
 22 21  2  0
 21 33  1  0
 22 31  1  0
 28 29  2  0
 29 30  1  0
 31 32  1  0
 32 33  2  0
M  END
$$$$
