
     RDKit          3D

 39 43  0  0  0  0  0  0  0  0999 V2000
  -13.5741    8.0266   -2.2434 C   0  0  0  0  0  0  0  0  0  0  0  0
  -12.4646    8.6759   -1.7311 C   0  0  0  0  0  0  0  0  0  0  0  0
  -11.0194    7.4577   -3.1364 C   0  0  0  0  0  0  0  0  0  0  0  0
  -12.0829    6.7703   -3.6929 C   0  0  0  0  0  0  0  0  0  0  0  0
  -14.9135    8.3472   -1.7528 C   0  0  0  0  0  0  0  0  0  0  0  0
  -16.0935    8.0642   -2.4058 C   0  0  0  0  0  0  0  0  0  0  0  0
  -19.0309    6.9643   -1.8548 C   0  0  2  0  0  0  0  0  0  0  0  0
  -18.5389    8.3776   -2.0309 C   0  0  1  0  0  0  0  0  0  0  0  0
  -19.3926    9.3893   -1.3129 C   0  0  2  0  0  0  0  0  0  0  0  0
  -23.4855    8.8942   -0.3012 C   0  0  0  0  0  0  0  0  0  0  0  0
  -29.3630    9.4930    3.5750 C   0  0  0  0  0  0  0  0  0  0  0  0
  -30.9462    9.9198    5.2954 C   0  0  0  0  0  0  0  0  0  0  0  0
  -30.5420    7.7151    4.5989 C   0  0  0  0  0  0  0  0  0  0  0  0
  -13.3467    7.0869   -3.2158 C   0  0  0  0  0  0  0  0  0  0  0  0
  -11.1846    8.4116   -2.1577 C   0  0  0  0  0  0  0  0  0  0  0  0
  -19.5429    6.6571   -0.4895 C   0  0  1  0  0  0  0  0  0  0  0  0
  -20.6193    8.6480   -0.8092 C   0  0  1  0  0  0  0  0  0  0  0  0
  -18.5249    6.0767    0.4428 C   0  0  0  0  0  0  0  0  0  0  0  0
  -24.4672    9.6152    0.5674 C   0  0  1  0  0  0  0  0  0  0  0  0
  -25.8605    9.6356   -0.0071 C   0  0  0  0  0  0  0  0  0  0  0  0
  -28.3871    9.9845    2.6078 C   0  0  0  0  0  0  0  0  0  0  0  0
  -27.6149    9.2155    1.7645 C   0  0  0  0  0  0  0  0  0  0  0  0
  -30.0238   10.3810    4.3801 C   0  0  0  0  0  0  0  0  0  0  0  0
  -31.2275    8.5775    5.4270 C   0  0  0  0  0  0  0  0  0  0  0  0
  -29.6196    8.1522    3.6809 C   0  0  0  0  0  0  0  0  0  0  0  0
  -11.8801    5.8348   -4.6577 F   0  0  0  0  0  0  0  0  0  0  0  0
  -31.6121   10.8077    6.1058 F   0  0  0  0  0  0  0  0  0  0  0  0
  -15.2740    8.9586   -0.6130 N   0  0  0  0  0  0  0  0  0  0  0  0
  -16.6140    9.0433   -0.5751 N   0  0  0  0  0  0  0  0  0  0  0  0
  -17.1416    8.5075   -1.6524 N   0  0  0  0  0  0  0  0  0  0  0  0
  -26.8241   10.0183    1.0075 N   0  0  0  0  0  0  0  0  0  0  0  0
  -27.1224   11.2574    1.3964 N   0  0  0  0  0  0  0  0  0  0  0  0
  -28.0421   11.2534    2.3391 N   0  0  0  0  0  0  0  0  0  0  0  0
  -20.1589    7.7333    0.1420 O   0  0  0  0  0  0  0  0  0  0  0  0
  -17.9383    6.1110   -2.1125 O   0  0  0  0  0  0  0  0  0  0  0  0
  -19.0184    5.0105    1.1820 O   0  0  0  0  0  0  0  0  0  0  0  0
  -19.7962   10.3775   -2.2022 O   0  0  0  0  0  0  0  0  0  0  0  0
  -24.5297    9.0036    1.8321 O   0  0  0  0  0  0  0  0  0  0  0  0
  -21.8891    9.7472   -0.1904 S   0  0  0  0  0  0  0  0  0  0  0  0
  1  2  2  0
  5  1  1  0
  1 14  1  0
  2 15  1  0
  4  3  1  0
 15  3  2  0
 14  4  2  0
  4 26  1  0
  6  5  2  0
  5 28  1  0
 30  6  1  0
  8  7  1  0
 16  7  1  0
  7 35  1  1
  9  8  1  0
  8 30  1  1
 17  9  1  0
  9 37  1  6
 19 10  1  0
 10 39  1  6
 21 11  1  0
 11 23  1  0
 11 25  2  0
 23 12  2  0
 12 24  1  0
 12 27  1  0
 13 24  2  0
 25 13  1  0
 16 18  1  0
 16 34  1  1
 17 34  1  0
 17 39  1  1
 18 36  1  6
 20 19  1  0
 19 38  1  1
 20 31  1  6
 22 21  2  0
 21 33  1  0
 22 31  1  0
 28 29  2  0
 29 30  1  0
 31 32  1  0
 32 33  2  0
M  END
$$$$
