
     RDKit          3D

 39 43  0  0  0  0  0  0  0  0999 V2000
  -27.4242    8.9719    2.6821 C   0  0  0  0  0  0  0  0  0  0  0  0
  -27.7643    7.6594    2.9584 C   0  0  0  0  0  0  0  0  0  0  0  0
  -29.5017    8.3414    4.3949 C   0  0  0  0  0  0  0  0  0  0  0  0
  -29.2166    9.6750    4.1640 C   0  0  0  0  0  0  0  0  0  0  0  0
  -26.3210    9.2767    1.7724 C   0  0  0  0  0  0  0  0  0  0  0  0
  -25.3607    8.3823    1.3519 C   0  0  0  0  0  0  0  0  0  0  0  0
  -23.6233    8.0836   -1.5787 C   0  0  2  0  0  0  0  0  0  0  0  0
  -23.3524    8.3802   -0.1264 C   0  0  1  0  0  0  0  0  0  0  0  0
  -22.0955    9.1829    0.0835 C   0  0  2  0  0  0  0  0  0  0  0  0
  -18.5869    8.7191   -1.8935 C   0  0  0  0  0  0  0  0  0  0  0  0
  -11.5698    8.7389   -0.4361 C   0  0  0  0  0  0  0  0  0  0  0  0
   -9.5697    9.3990    0.6651 C   0  0  0  0  0  0  0  0  0  0  0  0
  -10.1563    7.1284    0.5680 C   0  0  0  0  0  0  0  0  0  0  0  0
  -28.1668    9.9462    3.2983 C   0  0  0  0  0  0  0  0  0  0  0  0
  -28.7923    7.3193    3.8058 C   0  0  0  0  0  0  0  0  0  0  0  0
  -23.3051    9.2064   -2.5053 C   0  0  1  0  0  0  0  0  0  0  0  0
  -21.3889    9.2487   -1.2597 C   0  0  1  0  0  0  0  0  0  0  0  0
  -24.4588   10.1117   -2.8081 C   0  0  0  0  0  0  0  0  0  0  0  0
  -17.1899    9.1093   -1.5270 C   0  0  1  0  0  0  0  0  0  0  0  0
  -16.1524    8.5305   -2.4546 C   0  0  0  0  0  0  0  0  0  0  0  0
  -12.7746    9.0888   -1.1812 C   0  0  0  0  0  0  0  0  0  0  0  0
  -13.9115    8.3197   -1.3028 C   0  0  0  0  0  0  0  0  0  0  0  0
  -10.7093    9.7263   -0.0388 C   0  0  0  0  0  0  0  0  0  0  0  0
   -9.2658    8.0939    0.9853 C   0  0  0  0  0  0  0  0  0  0  0  0
  -11.2966    7.4316   -0.1337 C   0  0  0  0  0  0  0  0  0  0  0  0
  -29.9398   10.6566    4.7645 F   0  0  0  0  0  0  0  0  0  0  0  0
   -8.7029   10.3871    1.0661 F   0  0  0  0  0  0  0  0  0  0  0  0
  -26.0132   10.4385    1.1739 N   0  0  0  0  0  0  0  0  0  0  0  0
  -24.9144   10.2580    0.4228 N   0  0  0  0  0  0  0  0  0  0  0  0
  -24.4935    9.0166    0.5103 N   0  0  0  0  0  0  0  0  0  0  0  0
  -14.8241    8.9689   -2.0700 N   0  0  0  0  0  0  0  0  0  0  0  0
  -14.2359   10.1170   -2.4037 N   0  0  0  0  0  0  0  0  0  0  0  0
  -13.0274   10.2019   -1.8871 N   0  0  0  0  0  0  0  0  0  0  0  0
  -22.2242    9.9856   -2.1039 O   0  0  0  0  0  0  0  0  0  0  0  0
  -25.0000    7.8011   -1.6932 O   0  0  0  0  0  0  0  0  0  0  0  0
  -24.7248   10.2081   -4.1670 O   0  0  0  0  0  0  0  0  0  0  0  0
  -21.2719    8.5341    0.9952 O   0  0  0  0  0  0  0  0  0  0  0  0
  -17.0597   10.5093   -1.5521 O   0  0  0  0  0  0  0  0  0  0  0  0
  -19.7295    9.9084   -1.1395 S   0  0  0  0  0  0  0  0  0  0  0  0
  1  2  2  0
  5  1  1  0
  1 14  1  0
  2 15  1  0
  4  3  1  0
 15  3  2  0
 14  4  2  0
  4 26  1  0
  6  5  2  0
  5 28  1  0
 30  6  1  0
  8  7  1  0
 16  7  1  0
  7 35  1  1
  9  8  1  0
  8 30  1  6
 17  9  1  0
  9 37  1  1
 19 10  1  0
 10 39  1  6
 21 11  1  0
 11 23  1  0
 11 25  2  0
 23 12  2  0
 12 24  1  0
 12 27  1  0
 13 24  2  0
 25 13  1  0
 16 18  1  0
 16 34  1  1
 17 34  1  0
 17 39  1  1
 18 36  1  6
 20 19  1  0
 19 38  1  6
 20 31  1  6
 22 21  2  0
 21 33  1  0
 22 31  1  0
 28 29  2  0
 29 30  1  0
 31 32  1  0
 32 33  2  0
M  END
$$$$
