
     RDKit          3D

 39 43  0  0  0  0  0  0  0  0999 V2000
  -28.1667    8.8194    2.0236 C   0  0  0  0  0  0  0  0  0  0  0  0
  -28.6845   10.0333    2.3777 C   0  0  0  0  0  0  0  0  0  0  0  0
  -30.7541    9.0381    2.9672 C   0  0  0  0  0  0  0  0  0  0  0  0
  -30.2426    7.8288    2.6162 C   0  0  0  0  0  0  0  0  0  0  0  0
  -26.8037    8.7132    1.5286 C   0  0  0  0  0  0  0  0  0  0  0  0
  -26.0740    9.7288    0.9007 C   0  0  0  0  0  0  0  0  0  0  0  0
  -22.6350   10.3351    0.7887 C   0  0  2  0  0  0  0  0  0  0  0  0
  -23.8278   10.0372   -0.0762 C   0  0  1  0  0  0  0  0  0  0  0  0
  -23.3691    9.3675   -1.3332 C   0  0  2  0  0  0  0  0  0  0  0  0
  -19.7208    8.9380   -3.5100 C   0  0  0  0  0  0  0  0  0  0  0  0
  -13.0303    8.3500   -1.7475 C   0  0  0  0  0  0  0  0  0  0  0  0
  -12.0344    6.1988   -1.2773 C   0  0  0  0  0  0  0  0  0  0  0  0
  -10.8004    8.1746   -0.8076 C   0  0  0  0  0  0  0  0  0  0  0  0
  -28.9485    7.6917    2.1401 C   0  0  0  0  0  0  0  0  0  0  0  0
  -29.9880   10.1679    2.8565 C   0  0  0  0  0  0  0  0  0  0  0  0
  -21.7733   11.2804   -0.0288 C   0  0  1  0  0  0  0  0  0  0  0  0
  -22.1325    9.9061   -1.9188 C   0  0  1  0  0  0  0  0  0  0  0  0
  -20.5545   11.6107    0.8313 C   0  0  0  0  0  0  0  0  0  0  0  0
  -18.3854    9.0630   -2.8384 C   0  0  1  0  0  0  0  0  0  0  0  0
  -17.3951    9.7067   -3.8113 C   0  0  0  0  0  0  0  0  0  0  0  0
  -14.1535    9.1343   -2.2402 C   0  0  0  0  0  0  0  0  0  0  0  0
  -15.3021    8.6790   -2.8441 C   0  0  0  0  0  0  0  0  0  0  0  0
  -13.0769    6.9731   -1.7336 C   0  0  0  0  0  0  0  0  0  0  0  0
  -10.8831    6.7850   -0.8086 C   0  0  0  0  0  0  0  0  0  0  0  0
  -11.8751    8.9327   -1.2772 C   0  0  0  0  0  0  0  0  0  0  0  0
  -31.0079    6.7261    2.7329 F   0  0  0  0  0  0  0  0  0  0  0  0
  -12.1254    4.8536   -1.2825 F   0  0  0  0  0  0  0  0  0  0  0  0
  -25.9666    7.6620    1.5599 N   0  0  0  0  0  0  0  0  0  0  0  0
  -24.8086    7.9968    0.9966 N   0  0  0  0  0  0  0  0  0  0  0  0
  -24.8397    9.2478    0.5842 N   0  0  0  0  0  0  0  0  0  0  0  0
  -16.1036    9.7338   -3.1581 N   0  0  0  0  0  0  0  0  0  0  0  0
  -15.4356   10.8041   -2.7435 N   0  0  0  0  0  0  0  0  0  0  0  0
  -14.2815   10.4700   -2.1989 N   0  0  0  0  0  0  0  0  0  0  0  0
  -21.3671   10.7773   -1.2017 O   0  0  0  0  0  0  0  0  0  0  0  0
  -21.8820    9.2047    1.0906 O   0  0  0  0  0  0  0  0  0  0  0  0
  -19.7690   12.5741    0.2333 O   0  0  0  0  0  0  0  0  0  0  0  0
  -24.4349    9.5319   -2.2429 O   0  0  0  0  0  0  0  0  0  0  0  0
  -18.5192    9.8371   -1.6908 O   0  0  0  0  0  0  0  0  0  0  0  0
  -21.0254    8.5471   -2.3900 S   0  0  0  0  0  0  0  0  0  0  0  0
  1  2  2  0
  5  1  1  0
  1 14  1  0
  2 15  1  0
  4  3  1  0
 15  3  2  0
 14  4  2  0
  4 26  1  0
  6  5  2  0
  5 28  1  0
 30  6  1  0
  8  7  1  0
 16  7  1  0
  7 35  1  6
  9  8  1  0
  8 30  1  1
 17  9  1  0
  9 37  1  6
 19 10  1  0
 10 39  1  0
 21 11  1  0
 11 23  1  0
 11 25  2  0
 23 12  2  0
 12 24  1  0
 12 27  1  0
 13 24  2  0
 25 13  1  0
 16 18  1  1
 34 16  1  0
 17 34  1  0
 17 39  1  1
 18 36  1  0
 20 19  1  0
 19 38  1  1
 31 20  1  0
 22 21  2  0
 21 33  1  0
 22 31  1  0
 28 29  2  0
 29 30  1  0
 31 32  1  0
 32 33  2  0
M  END
$$$$
