
     RDKit          3D

 39 43  0  0  0  0  0  0  0  0999 V2000
  -11.9659    8.1693   -0.4026 C   0  0  0  0  0  0  0  0  0  0  0  0
  -11.6497    8.7459    0.7951 C   0  0  0  0  0  0  0  0  0  0  0  0
   -9.3943    8.0416    0.5991 C   0  0  0  0  0  0  0  0  0  0  0  0
   -9.7049    7.4668   -0.5928 C   0  0  0  0  0  0  0  0  0  0  0  0
  -13.3217    8.2418   -0.9228 C   0  0  0  0  0  0  0  0  0  0  0  0
  -14.3954    8.9177   -0.3322 C   0  0  0  0  0  0  0  0  0  0  0  0
  -17.4132   10.0707   -1.9437 C   0  0  2  0  0  0  0  0  0  0  0  0
  -16.7849    9.3257   -0.7992 C   0  0  1  0  0  0  0  0  0  0  0  0
  -17.7303    8.2685   -0.3222 C   0  0  2  0  0  0  0  0  0  0  0  0
  -21.5897    6.8558   -0.0678 C   0  0  0  0  0  0  0  0  0  0  0  0
  -28.4273    8.6355   -1.1073 C   0  0  0  0  0  0  0  0  0  0  0  0
  -30.4392    8.1676    0.1474 C   0  0  0  0  0  0  0  0  0  0  0  0
  -30.3945   10.0405   -1.3145 C   0  0  0  0  0  0  0  0  0  0  0  0
  -10.9866    7.5162   -1.1173 C   0  0  0  0  0  0  0  0  0  0  0  0
  -10.3582    8.6941    1.3206 C   0  0  0  0  0  0  0  0  0  0  0  0
  -18.6674   10.7043   -1.3692 C   0  0  1  0  0  0  0  0  0  0  0  0
  -19.1457    8.6643   -0.2741 C   0  0  1  0  0  0  0  0  0  0  0  0
  -19.3240   11.4797   -2.5102 C   0  0  0  0  0  0  0  0  0  0  0  0
  -22.8367    7.6043   -0.4346 C   0  0  1  0  0  0  0  0  0  0  0  0
  -23.8282    6.6358   -1.0829 C   0  0  0  0  0  0  0  0  0  0  0  0
  -27.0546    8.2963   -1.4535 C   0  0  0  0  0  0  0  0  0  0  0  0
  -26.2045    7.4382   -0.7962 C   0  0  0  0  0  0  0  0  0  0  0  0
  -29.1410    7.8766   -0.2056 C   0  0  0  0  0  0  0  0  0  0  0  0
  -31.0848    9.2507   -0.3994 C   0  0  0  0  0  0  0  0  0  0  0  0
  -29.0781    9.7194   -1.6523 C   0  0  0  0  0  0  0  0  0  0  0  0
   -8.7451    6.8303   -1.2920 F   0  0  0  0  0  0  0  0  0  0  0  0
  -31.0984    7.3955    1.0346 F   0  0  0  0  0  0  0  0  0  0  0  0
  -13.8337    7.7017   -2.0421 N   0  0  0  0  0  0  0  0  0  0  0  0
  -15.1227    8.0164   -2.1402 N   0  0  0  0  0  0  0  0  0  0  0  0
  -15.4974    8.7557   -1.1160 N   0  0  0  0  0  0  0  0  0  0  0  0
  -25.0057    7.3981   -1.4404 N   0  0  0  0  0  0  0  0  0  0  0  0
  -25.1450    8.2251   -2.4702 N   0  0  0  0  0  0  0  0  0  0  0  0
  -26.3483    8.7652   -2.4944 N   0  0  0  0  0  0  0  0  0  0  0  0
  -19.5445    9.8265   -0.8651 O   0  0  0  0  0  0  0  0  0  0  0  0
  -17.7835    9.2422   -2.9984 O   0  0  0  0  0  0  0  0  0  0  0  0
  -20.6870   11.5813   -2.3240 O   0  0  0  0  0  0  0  0  0  0  0  0
  -17.2854    7.9415    0.9761 O   0  0  0  0  0  0  0  0  0  0  0  0
  -23.3841    8.1736    0.7100 O   0  0  0  0  0  0  0  0  0  0  0  0
  -20.1799    7.3605   -0.9990 S   0  0  0  0  0  0  0  0  0  0  0  0
  1  2  2  0
  5  1  1  0
  1 14  1  0
  2 15  1  0
  4  3  1  0
 15  3  2  0
 14  4  2  0
  4 26  1  0
  6  5  2  0
  5 28  1  0
 30  6  1  0
  8  7  1  0
 16  7  1  0
  7 35  1  6
  9  8  1  0
  8 30  1  6
 17  9  1  0
  9 37  1  1
 19 10  1  0
 10 39  1  0
 21 11  1  0
 11 23  1  0
 11 25  2  0
 23 12  2  0
 12 24  1  0
 12 27  1  0
 13 24  2  0
 25 13  1  0
 16 18  1  6
 34 16  1  0
 17 34  1  0
 17 39  1  6
 18 36  1  0
 20 19  1  0
 19 38  1  1
 31 20  1  0
 22 21  2  0
 21 33  1  0
 22 31  1  0
 28 29  2  0
 29 30  1  0
 31 32  1  0
 32 33  2  0
M  END
$$$$
