
     RDKit          3D

 39 43  0  0  0  0  0  0  0  0999 V2000
  -13.0206    8.0236   -0.7554 C   0  0  0  0  0  0  0  0  0  0  0  0
  -12.5742    7.4037   -1.8882 C   0  0  0  0  0  0  0  0  0  0  0  0
  -10.4301    7.0791   -0.9296 C   0  0  0  0  0  0  0  0  0  0  0  0
  -10.8705    7.6951    0.1991 C   0  0  0  0  0  0  0  0  0  0  0  0
  -14.3857    8.5171   -0.6719 C   0  0  0  0  0  0  0  0  0  0  0  0
  -15.5366    7.8271   -1.0686 C   0  0  0  0  0  0  0  0  0  0  0  0
  -18.6837    7.5809    0.0392 C   0  0  2  0  0  0  0  0  0  0  0  0
  -17.9748    8.2097   -1.1277 C   0  0  1  0  0  0  0  0  0  0  0  0
  -18.7799    9.3682   -1.6263 C   0  0  2  0  0  0  0  0  0  0  0  0
  -22.6613   11.0014   -1.6419 C   0  0  0  0  0  0  0  0  0  0  0  0
  -27.9876    8.2155    2.1454 C   0  0  0  0  0  0  0  0  0  0  0  0
  -27.8471    6.5327    3.8744 C   0  0  0  0  0  0  0  0  0  0  0  0
  -29.8762    7.7370    3.5916 C   0  0  0  0  0  0  0  0  0  0  0  0
  -12.1644    8.1780    0.3122 C   0  0  0  0  0  0  0  0  0  0  0  0
  -11.2706    6.9188   -1.9989 C   0  0  0  0  0  0  0  0  0  0  0  0
  -20.0144    7.1009   -0.5115 C   0  0  1  0  0  0  0  0  0  0  0  0
  -20.2350    9.1579   -1.6560 C   0  0  1  0  0  0  0  0  0  0  0  0
  -20.7553    6.4455    0.6528 C   0  0  0  0  0  0  0  0  0  0  0  0
  -23.7983   10.7164   -0.7060 C   0  0  1  0  0  0  0  0  0  0  0  0
  -24.7747    9.7534   -1.3849 C   0  0  0  0  0  0  0  0  0  0  0  0
  -27.3654    8.9513    1.0542 C   0  0  0  0  0  0  0  0  0  0  0  0
  -26.1465    8.7154    0.4626 C   0  0  0  0  0  0  0  0  0  0  0  0
  -27.2928    7.2471    2.8367 C   0  0  0  0  0  0  0  0  0  0  0  0
  -29.1434    6.7653    4.2675 C   0  0  0  0  0  0  0  0  0  0  0  0
  -29.2857    8.4450    2.5427 C   0  0  0  0  0  0  0  0  0  0  0  0
  -10.0324    7.8433    1.2436 F   0  0  0  0  0  0  0  0  0  0  0  0
  -27.1283    5.5936    4.5219 F   0  0  0  0  0  0  0  0  0  0  0  0
  -14.8374    9.6971   -0.2132 N   0  0  0  0  0  0  0  0  0  0  0  0
  -16.1633    9.7379   -0.3162 N   0  0  0  0  0  0  0  0  0  0  0  0
  -16.6216    8.6160   -0.8331 N   0  0  0  0  0  0  0  0  0  0  0  0
  -25.9304    9.6307   -0.5219 N   0  0  0  0  0  0  0  0  0  0  0  0
  -27.0118   10.4015   -0.5133 N   0  0  0  0  0  0  0  0  0  0  0  0
  -27.8705   10.0158    0.4110 N   0  0  0  0  0  0  0  0  0  0  0  0
  -20.7752    8.0721   -1.0329 O   0  0  0  0  0  0  0  0  0  0  0  0
  -18.9342    8.4762    1.0744 O   0  0  0  0  0  0  0  0  0  0  0  0
  -21.9640    5.9222    0.2430 O   0  0  0  0  0  0  0  0  0  0  0  0
  -18.3083    9.6027   -2.9351 O   0  0  0  0  0  0  0  0  0  0  0  0
  -23.2991   10.1623    0.4678 O   0  0  0  0  0  0  0  0  0  0  0  0
  -21.0854   10.6021   -0.9589 S   0  0  0  0  0  0  0  0  0  0  0  0
  1  2  2  0
  5  1  1  0
  1 14  1  0
  2 15  1  0
  4  3  1  0
 15  3  2  0
 14  4  2  0
  4 26  1  0
  6  5  2  0
  5 28  1  0
 30  6  1  0
  8  7  1  0
 16  7  1  0
  7 35  1  1
  9  8  1  0
  8 30  1  1
 17  9  1  0
  9 37  1  6
 19 10  1  0
 10 39  1  0
 21 11  1  0
 11 23  1  0
 11 25  2  0
 23 12  2  0
 12 24  1  0
 12 27  1  0
 13 24  2  0
 25 13  1  0
 16 18  1  1
 34 16  1  0
 17 34  1  0
 17 39  1  1
 18 36  1  0
 20 19  1  0
 19 38  1  1
 31 20  1  0
 22 21  2  0
 21 33  1  0
 22 31  1  0
 28 29  2  0
 29 30  1  0
 31 32  1  0
 32 33  2  0
M  END
$$$$
