
     RDKit          3D

 39 43  0  0  0  0  0  0  0  0999 V2000
  -26.1052    9.3982    2.2872 C   0  0  0  0  0  0  0  0  0  0  0  0
  -27.2860   10.0359    2.0304 C   0  0  0  0  0  0  0  0  0  0  0  0
  -27.9776    9.7759    4.2833 C   0  0  0  0  0  0  0  0  0  0  0  0
  -26.8040    9.1413    4.5428 C   0  0  0  0  0  0  0  0  0  0  0  0
  -25.1249    9.2043    1.2310 C   0  0  0  0  0  0  0  0  0  0  0  0
  -23.8987    8.5418    1.3570 C   0  0  0  0  0  0  0  0  0  0  0  0
  -22.0172    6.7183   -0.9050 C   0  0  2  0  0  0  0  0  0  0  0  0
  -21.9691    7.9689   -0.0723 C   0  0  1  0  0  0  0  0  0  0  0  0
  -21.0366    8.9495   -0.7108 C   0  0  2  0  0  0  0  0  0  0  0  0
  -17.9020    8.7810   -3.6178 C   0  0  0  0  0  0  0  0  0  0  0  0
  -12.6647    9.8227    0.9804 C   0  0  0  0  0  0  0  0  0  0  0  0
  -12.8346    9.4119    3.3558 C   0  0  0  0  0  0  0  0  0  0  0  0
  -10.8614   10.4153    2.4916 C   0  0  0  0  0  0  0  0  0  0  0  0
  -25.8484    8.9389    3.5599 C   0  0  0  0  0  0  0  0  0  0  0  0
  -28.2462   10.2379    3.0223 C   0  0  0  0  0  0  0  0  0  0  0  0
  -20.5985    6.1782   -0.8994 C   0  0  1  0  0  0  0  0  0  0  0  0
  -19.8059    8.3741   -1.2736 C   0  0  1  0  0  0  0  0  0  0  0  0
  -20.6181    4.8971   -1.7315 C   0  0  0  0  0  0  0  0  0  0  0  0
  -16.8020    9.4379   -2.8377 C   0  0  1  0  0  0  0  0  0  0  0  0
  -15.5380    8.5814   -2.9382 C   0  0  0  0  0  0  0  0  0  0  0  0
  -13.2454    9.7489   -0.3526 C   0  0  0  0  0  0  0  0  0  0  0  0
  -14.3003    8.9733   -0.7732 C   0  0  0  0  0  0  0  0  0  0  0  0
  -13.3519    9.3604    2.0814 C   0  0  0  0  0  0  0  0  0  0  0  0
  -11.5851    9.9383    3.5809 C   0  0  0  0  0  0  0  0  0  0  0  0
  -11.4136   10.3490    1.2106 C   0  0  0  0  0  0  0  0  0  0  0  0
  -26.5533    8.6945    5.7889 F   0  0  0  0  0  0  0  0  0  0  0  0
  -13.5445    8.9473    4.4038 F   0  0  0  0  0  0  0  0  0  0  0  0
  -25.1689    9.5978   -0.0534 N   0  0  0  0  0  0  0  0  0  0  0  0
  -24.0590    9.2110   -0.6769 N   0  0  0  0  0  0  0  0  0  0  0  0
  -23.2640    8.5657    0.1522 N   0  0  0  0  0  0  0  0  0  0  0  0
  -14.5327    9.1947   -2.0963 N   0  0  0  0  0  0  0  0  0  0  0  0
  -13.6236   10.0936   -2.4558 N   0  0  0  0  0  0  0  0  0  0  0  0
  -12.8540   10.4329   -1.4394 N   0  0  0  0  0  0  0  0  0  0  0  0
  -19.6879    7.0218   -1.4025 O   0  0  0  0  0  0  0  0  0  0  0  0
  -22.3923    6.9533   -2.2241 O   0  0  0  0  0  0  0  0  0  0  0  0
  -19.5654    4.0704   -1.3984 O   0  0  0  0  0  0  0  0  0  0  0  0
  -20.7076    9.8601    0.3153 O   0  0  0  0  0  0  0  0  0  0  0  0
  -16.5739   10.7111   -3.3483 O   0  0  0  0  0  0  0  0  0  0  0  0
  -19.5009    9.0571   -2.9274 S   0  0  0  0  0  0  0  0  0  0  0  0
  1  2  2  0
  5  1  1  0
  1 14  1  0
  2 15  1  0
  4  3  1  0
 15  3  2  0
 14  4  2  0
  4 26  1  0
  6  5  2  0
  5 28  1  0
 30  6  1  0
  8  7  1  0
 16  7  1  0
  7 35  1  6
  9  8  1  0
  8 30  1  6
 17  9  1  0
  9 37  1  1
 19 10  1  0
 10 39  1  0
 21 11  1  0
 11 23  1  0
 11 25  2  0
 23 12  2  0
 12 24  1  0
 12 27  1  0
 13 24  2  0
 25 13  1  0
 16 18  1  6
 34 16  1  0
 17 34  1  0
 17 39  1  6
 18 36  1  0
 20 19  1  0
 19 38  1  6
 31 20  1  0
 22 21  2  0
 21 33  1  0
 22 31  1  0
 28 29  2  0
 29 30  1  0
 31 32  1  0
 32 33  2  0
M  END
$$$$
