
     RDKit          3D

 39 43  0  0  0  0  0  0  0  0999 V2000
  -26.0125    8.5317    2.4348 C   0  0  0  0  0  0  0  0  0  0  0  0
  -25.9999    7.2486    2.9529 C   0  0  0  0  0  0  0  0  0  0  0  0
  -27.8611    7.7102    4.3204 C   0  0  0  0  0  0  0  0  0  0  0  0
  -27.9325    9.0074    3.8457 C   0  0  0  0  0  0  0  0  0  0  0  0
  -25.0231    8.9394    1.4388 C   0  0  0  0  0  0  0  0  0  0  0  0
  -23.9268    8.1999    1.0511 C   0  0  0  0  0  0  0  0  0  0  0  0
  -22.3035    7.7552   -1.8550 C   0  0  2  0  0  0  0  0  0  0  0  0
  -22.0128    8.4165   -0.5326 C   0  0  1  0  0  0  0  0  0  0  0  0
  -20.9889    9.5157   -0.6394 C   0  0  2  0  0  0  0  0  0  0  0  0
  -17.7840    9.5957   -3.2956 C   0  0  0  0  0  0  0  0  0  0  0  0
  -11.9590    8.7519    0.5872 C   0  0  0  0  0  0  0  0  0  0  0  0
  -10.3577    9.6769    2.0801 C   0  0  0  0  0  0  0  0  0  0  0  0
  -11.5715    7.7672    2.7037 C   0  0  0  0  0  0  0  0  0  0  0  0
  -26.9860    9.3775    2.9011 C   0  0  0  0  0  0  0  0  0  0  0  0
  -26.9073    6.8155    3.8907 C   0  0  0  0  0  0  0  0  0  0  0  0
  -22.3482    8.6909   -3.0138 C   0  0  1  0  0  0  0  0  0  0  0  0
  -20.4208    9.4493   -2.0468 C   0  0  1  0  0  0  0  0  0  0  0  0
  -23.7125    9.2141   -3.3412 C   0  0  0  0  0  0  0  0  0  0  0  0
  -16.4322    9.7190   -2.6667 C   0  0  1  0  0  0  0  0  0  0  0  0
  -15.5675    8.5034   -2.8821 C   0  0  0  0  0  0  0  0  0  0  0  0
  -12.6556    8.7842   -0.6946 C   0  0  0  0  0  0  0  0  0  0  0  0
  -13.9976    8.5488   -0.9006 C   0  0  0  0  0  0  0  0  0  0  0  0
  -11.0180    9.7048    0.8700 C   0  0  0  0  0  0  0  0  0  0  0  0
  -10.6179    8.7088    3.0253 C   0  0  0  0  0  0  0  0  0  0  0  0
  -12.2410    7.7759    1.5052 C   0  0  0  0  0  0  0  0  0  0  0  0
  -28.8892    9.8622    4.2943 F   0  0  0  0  0  0  0  0  0  0  0  0
   -9.4122   10.6316    2.3684 F   0  0  0  0  0  0  0  0  0  0  0  0
  -24.9652   10.0694    0.7158 N   0  0  0  0  0  0  0  0  0  0  0  0
  -23.8816   10.0186   -0.0763 N   0  0  0  0  0  0  0  0  0  0  0  0
  -23.2290    8.8930    0.1048 N   0  0  0  0  0  0  0  0  0  0  0  0
  -14.2861    8.6665   -2.2219 N   0  0  0  0  0  0  0  0  0  0  0  0
  -13.1245    8.9699   -2.8000 N   0  0  0  0  0  0  0  0  0  0  0  0
  -12.1542    9.0427   -1.9124 N   0  0  0  0  0  0  0  0  0  0  0  0
  -21.4743    9.7687   -2.9079 O   0  0  0  0  0  0  0  0  0  0  0  0
  -23.5681    7.1418   -1.7413 O   0  0  0  0  0  0  0  0  0  0  0  0
  -23.9910    9.1768   -4.7006 O   0  0  0  0  0  0  0  0  0  0  0  0
  -19.9641    9.2919    0.2717 O   0  0  0  0  0  0  0  0  0  0  0  0
  -15.7548   10.8311   -3.1975 O   0  0  0  0  0  0  0  0  0  0  0  0
  -18.9787   10.4872   -2.2630 S   0  0  0  0  0  0  0  0  0  0  0  0
  1  2  2  0
  5  1  1  0
  1 14  1  0
  2 15  1  0
  4  3  1  0
 15  3  2  0
 14  4  2  0
  4 26  1  0
  6  5  2  0
  5 28  1  0
 30  6  1  0
  8  7  1  0
 16  7  1  0
  7 35  1  1
  9  8  1  0
  8 30  1  6
 17  9  1  0
  9 37  1  1
 19 10  1  0
 10 39  1  6
 21 11  1  0
 11 23  1  0
 11 25  2  0
 23 12  2  0
 12 24  1  0
 12 27  1  0
 13 24  2  0
 25 13  1  0
 16 18  1  0
 16 34  1  1
 17 34  1  0
 17 39  1  1
 18 36  1  6
 20 19  1  0
 19 38  1  6
 20 31  1  6
 22 21  2  0
 21 33  1  0
 22 31  1  0
 28 29  2  0
 29 30  1  0
 31 32  1  0
 32 33  2  0
M  END
$$$$
