
     RDKit          3D

 39 43  0  0  0  0  0  0  0  0999 V2000
  -13.5730    8.9415   -0.4098 C   0  0  0  0  0  0  0  0  0  0  0  0
  -12.9738    7.8743   -1.0171 C   0  0  0  0  0  0  0  0  0  0  0  0
  -10.9036    8.3765    0.0236 C   0  0  0  0  0  0  0  0  0  0  0  0
  -11.4961    9.4391    0.6297 C   0  0  0  0  0  0  0  0  0  0  0  0
  -14.9787    9.2313   -0.6429 C   0  0  0  0  0  0  0  0  0  0  0  0
  -15.9288    8.3416   -1.1567 C   0  0  0  0  0  0  0  0  0  0  0  0
  -18.7624    7.1578   -0.9018 C   0  0  2  0  0  0  0  0  0  0  0  0
  -18.3338    8.3481   -1.7137 C   0  0  1  0  0  0  0  0  0  0  0  0
  -19.4598    9.3315   -1.7773 C   0  0  2  0  0  0  0  0  0  0  0  0
  -23.6837    9.2750   -1.1265 C   0  0  0  0  0  0  0  0  0  0  0  0
  -28.0854   11.2596    3.9859 C   0  0  0  0  0  0  0  0  0  0  0  0
  -27.4969   12.5678    5.9308 C   0  0  0  0  0  0  0  0  0  0  0  0
  -29.5808   11.4265    5.8892 C   0  0  0  0  0  0  0  0  0  0  0  0
  -12.8328    9.7444    0.4292 C   0  0  0  0  0  0  0  0  0  0  0  0
  -11.6276    7.5697   -0.8133 C   0  0  0  0  0  0  0  0  0  0  0  0
  -19.9405    6.5636   -1.6527 C   0  0  1  0  0  0  0  0  0  0  0  0
  -20.7979    8.7468   -1.9503 C   0  0  1  0  0  0  0  0  0  0  0  0
  -20.3926    5.3418   -0.8546 C   0  0  0  0  0  0  0  0  0  0  0  0
  -24.5537    9.5396    0.0664 C   0  0  1  0  0  0  0  0  0  0  0  0
  -25.7490   10.3914   -0.3660 C   0  0  0  0  0  0  0  0  0  0  0  0
  -27.7543   10.7630    2.6580 C   0  0  0  0  0  0  0  0  0  0  0  0
  -26.6343   11.0365    1.9083 C   0  0  0  0  0  0  0  0  0  0  0  0
  -27.2174   12.0778    4.6753 C   0  0  0  0  0  0  0  0  0  0  0  0
  -28.6791   12.2512    6.5560 C   0  0  0  0  0  0  0  0  0  0  0  0
  -29.2684   10.9453    4.6160 C   0  0  0  0  0  0  0  0  0  0  0  0
  -10.7711   10.2223    1.4520 F   0  0  0  0  0  0  0  0  0  0  0  0
  -26.6161   13.3656    6.5677 F   0  0  0  0  0  0  0  0  0  0  0  0
  -15.6600   10.3696   -0.4267 N   0  0  0  0  0  0  0  0  0  0  0  0
  -16.9323   10.2016   -0.7778 N   0  0  0  0  0  0  0  0  0  0  0  0
  -17.1305    8.9788   -1.2266 N   0  0  0  0  0  0  0  0  0  0  0  0
  -26.7059   10.3758    0.7200 N   0  0  0  0  0  0  0  0  0  0  0  0
  -27.8581    9.7169    0.7659 N   0  0  0  0  0  0  0  0  0  0  0  0
  -28.4915    9.9334    1.9026 N   0  0  0  0  0  0  0  0  0  0  0  0
  -20.9734    7.4024   -1.8057 O   0  0  0  0  0  0  0  0  0  0  0  0
  -19.1837    7.4935    0.3811 O   0  0  0  0  0  0  0  0  0  0  0  0
  -21.7253    5.4359   -0.5116 O   0  0  0  0  0  0  0  0  0  0  0  0
  -19.1583   10.1590   -2.8794 O   0  0  0  0  0  0  0  0  0  0  0  0
  -24.9816    8.3289    0.6003 O   0  0  0  0  0  0  0  0  0  0  0  0
  -21.9686    9.5248   -0.8019 S   0  0  0  0  0  0  0  0  0  0  0  0
  1  2  2  0
  5  1  1  0
  1 14  1  0
  2 15  1  0
  4  3  1  0
 15  3  2  0
 14  4  2  0
  4 26  1  0
  6  5  2  0
  5 28  1  0
 30  6  1  0
  8  7  1  0
 16  7  1  0
  7 35  1  1
  9  8  1  0
  8 30  1  1
 17  9  1  0
  9 37  1  6
 19 10  1  0
 10 39  1  0
 21 11  1  0
 11 23  1  0
 11 25  2  0
 23 12  2  0
 12 24  1  0
 12 27  1  0
 13 24  2  0
 25 13  1  0
 16 18  1  1
 34 16  1  0
 17 34  1  0
 17 39  1  1
 18 36  1  0
 20 19  1  0
 19 38  1  6
 31 20  1  0
 22 21  2  0
 21 33  1  0
 22 31  1  0
 28 29  2  0
 29 30  1  0
 31 32  1  0
 32 33  2  0
M  END
$$$$
