
     RDKit          3D

 39 43  0  0  0  0  0  0  0  0999 V2000
  -13.4299    9.0951   -0.3598 C   0  0  0  0  0  0  0  0  0  0  0  0
  -12.7311   10.0854    0.2710 C   0  0  0  0  0  0  0  0  0  0  0  0
  -10.7396    8.8011    0.1958 C   0  0  0  0  0  0  0  0  0  0  0  0
  -11.4312    7.8137   -0.4320 C   0  0  0  0  0  0  0  0  0  0  0  0
  -14.8455    9.2583   -0.6491 C   0  0  0  0  0  0  0  0  0  0  0  0
  -15.7377    8.2384   -0.9981 C   0  0  0  0  0  0  0  0  0  0  0  0
  -18.4622    6.9139   -0.5845 C   0  0  2  0  0  0  0  0  0  0  0  0
  -18.1306    8.0085   -1.5600 C   0  0  1  0  0  0  0  0  0  0  0  0
  -19.3260    8.8918   -1.7332 C   0  0  2  0  0  0  0  0  0  0  0  0
  -23.5320    8.8142   -1.1470 C   0  0  0  0  0  0  0  0  0  0  0  0
  -28.6674    9.4455    3.4946 C   0  0  0  0  0  0  0  0  0  0  0  0
  -29.0139    7.8619    5.2871 C   0  0  0  0  0  0  0  0  0  0  0  0
  -30.2614    9.8844    5.2704 C   0  0  0  0  0  0  0  0  0  0  0  0
  -12.7808    7.9358   -0.7221 C   0  0  0  0  0  0  0  0  0  0  0  0
  -11.3724    9.9591    0.5618 C   0  0  0  0  0  0  0  0  0  0  0  0
  -19.6021    6.1403   -1.2224 C   0  0  1  0  0  0  0  0  0  0  0  0
  -20.6197    8.1958   -1.7965 C   0  0  1  0  0  0  0  0  0  0  0  0
  -19.9549    5.0109   -0.2559 C   0  0  0  0  0  0  0  0  0  0  0  0
  -24.4564    9.6150   -0.2786 C   0  0  1  0  0  0  0  0  0  0  0  0
  -25.9022    9.3253   -0.6875 C   0  0  0  0  0  0  0  0  0  0  0  0
  -27.9852    9.8226    2.2652 C   0  0  0  0  0  0  0  0  0  0  0  0
  -27.2135    9.0290    1.4491 C   0  0  0  0  0  0  0  0  0  0  0  0
  -28.3907    8.2511    4.1232 C   0  0  0  0  0  0  0  0  0  0  0  0
  -29.9561    8.6696    5.8777 C   0  0  0  0  0  0  0  0  0  0  0  0
  -29.6118   10.2512    4.0899 C   0  0  0  0  0  0  0  0  0  0  0  0
  -10.7942    6.6811   -0.7878 F   0  0  0  0  0  0  0  0  0  0  0  0
  -28.7107    6.6829    5.8666 F   0  0  0  0  0  0  0  0  0  0  0  0
  -15.5910   10.3768   -0.6468 N   0  0  0  0  0  0  0  0  0  0  0  0
  -16.8467   10.0767   -0.9684 N   0  0  0  0  0  0  0  0  0  0  0  0
  -16.9711    8.7837   -1.1889 N   0  0  0  0  0  0  0  0  0  0  0  0
  -26.7539    9.7625    0.3982 N   0  0  0  0  0  0  0  0  0  0  0  0
  -27.2492   10.9797    0.5904 N   0  0  0  0  0  0  0  0  0  0  0  0
  -27.9789   11.0347    1.6880 N   0  0  0  0  0  0  0  0  0  0  0  0
  -20.6951    6.8750   -1.4664 O   0  0  0  0  0  0  0  0  0  0  0  0
  -18.8923    7.3921    0.6492 O   0  0  0  0  0  0  0  0  0  0  0  0
  -21.3198    4.9102   -0.0842 O   0  0  0  0  0  0  0  0  0  0  0  0
  -19.0981    9.5793   -2.9439 O   0  0  0  0  0  0  0  0  0  0  0  0
  -24.2456    9.2745    1.0531 O   0  0  0  0  0  0  0  0  0  0  0  0
  -21.8311    9.0395   -0.7404 S   0  0  0  0  0  0  0  0  0  0  0  0
  1  2  2  0
  5  1  1  0
  1 14  1  0
  2 15  1  0
  4  3  1  0
 15  3  2  0
 14  4  2  0
  4 26  1  0
  6  5  2  0
  5 28  1  0
 30  6  1  0
  8  7  1  0
 16  7  1  0
  7 35  1  1
  9  8  1  0
  8 30  1  1
 17  9  1  0
  9 37  1  6
 19 10  1  0
 10 39  1  0
 21 11  1  0
 11 23  1  0
 11 25  2  0
 23 12  2  0
 12 24  1  0
 12 27  1  0
 13 24  2  0
 25 13  1  0
 16 18  1  1
 34 16  1  0
 17 34  1  0
 17 39  1  1
 18 36  1  0
 20 19  1  0
 19 38  1  1
 31 20  1  0
 22 21  2  0
 21 33  1  0
 22 31  1  0
 28 29  2  0
 29 30  1  0
 31 32  1  0
 32 33  2  0
M  END
$$$$
