
     RDKit          3D

 39 43  0  0  0  0  0  0  0  0999 V2000
  -13.5106    8.1854   -1.1891 C   0  0  0  0  0  0  0  0  0  0  0  0
  -13.0664    7.1706   -2.0183 C   0  0  0  0  0  0  0  0  0  0  0  0
  -10.8161    7.7489   -1.6324 C   0  0  0  0  0  0  0  0  0  0  0  0
  -11.1891    8.7816   -0.7912 C   0  0  0  0  0  0  0  0  0  0  0  0
  -14.9414    8.3937   -0.9725 C   0  0  0  0  0  0  0  0  0  0  0  0
  -15.9485    7.9552   -1.8046 C   0  0  0  0  0  0  0  0  0  0  0  0
  -19.0024    6.7291   -1.4060 C   0  0  2  0  0  0  0  0  0  0  0  0
  -18.4391    8.0365   -1.9000 C   0  0  1  0  0  0  0  0  0  0  0  0
  -19.3960    9.1874   -1.7337 C   0  0  2  0  0  0  0  0  0  0  0  0
  -23.4324    9.0631   -2.2972 C   0  0  0  0  0  0  0  0  0  0  0  0
  -28.2833    8.0937    2.7565 C   0  0  0  0  0  0  0  0  0  0  0  0
  -28.9565    5.9485    3.5270 C   0  0  0  0  0  0  0  0  0  0  0  0
  -30.1757    7.8527    4.1567 C   0  0  0  0  0  0  0  0  0  0  0  0
  -12.5506    8.9652   -0.5969 C   0  0  0  0  0  0  0  0  0  0  0  0
  -11.7331    6.9327   -2.2552 C   0  0  0  0  0  0  0  0  0  0  0  0
  -19.8090    6.8397   -0.1579 C   0  0  1  0  0  0  0  0  0  0  0  0
  -20.7260    8.5920   -1.3039 C   0  0  1  0  0  0  0  0  0  0  0  0
  -19.0376    6.6148    1.1057 C   0  0  0  0  0  0  0  0  0  0  0  0
  -24.6301    8.9722   -1.4054 C   0  0  1  0  0  0  0  0  0  0  0  0
  -24.3991    9.5746   -0.0431 C   0  0  0  0  0  0  0  0  0  0  0  0
  -27.3681    8.9271    1.9840 C   0  0  0  0  0  0  0  0  0  0  0  0
  -26.2161    8.5079    1.3546 C   0  0  0  0  0  0  0  0  0  0  0  0
  -28.0931    6.7389    2.7982 C   0  0  0  0  0  0  0  0  0  0  0  0
  -30.0174    6.4853    4.2231 C   0  0  0  0  0  0  0  0  0  0  0  0
  -29.3284    8.6586    3.4375 C   0  0  0  0  0  0  0  0  0  0  0  0
  -10.2541    9.5667   -0.1941 F   0  0  0  0  0  0  0  0  0  0  0  0
  -28.7693    4.5878    3.5717 F   0  0  0  0  0  0  0  0  0  0  0  0
  -15.5618    9.0275    0.0357 N   0  0  0  0  0  0  0  0  0  0  0  0
  -16.8875    8.9762   -0.1746 N   0  0  0  0  0  0  0  0  0  0  0  0
  -17.1544    8.3300   -1.2868 N   0  0  0  0  0  0  0  0  0  0  0  0
  -25.6238    9.5602    0.7343 N   0  0  0  0  0  0  0  0  0  0  0  0
  -26.4166   10.5997    0.9919 N   0  0  0  0  0  0  0  0  0  0  0  0
  -27.4489   10.2420    1.7275 N   0  0  0  0  0  0  0  0  0  0  0  0
  -20.5132    8.0342   -0.0402 O   0  0  0  0  0  0  0  0  0  0  0  0
  -17.9076    5.8801   -1.1434 O   0  0  0  0  0  0  0  0  0  0  0  0
  -19.7918    5.9969    2.0937 O   0  0  0  0  0  0  0  0  0  0  0  0
  -19.5646    9.8364   -2.9506 O   0  0  0  0  0  0  0  0  0  0  0  0
  -25.7193    9.6389   -1.9940 O   0  0  0  0  0  0  0  0  0  0  0  0
  -22.0644    9.7795   -1.3467 S   0  0  0  0  0  0  0  0  0  0  0  0
  1  2  2  0
  5  1  1  0
  1 14  1  0
  2 15  1  0
  4  3  1  0
 15  3  2  0
 14  4  2  0
  4 26  1  0
  6  5  2  0
  5 28  1  0
 30  6  1  0
  8  7  1  0
 16  7  1  0
  7 35  1  1
  9  8  1  0
  8 30  1  1
 17  9  1  0
  9 37  1  6
 19 10  1  0
 10 39  1  6
 21 11  1  0
 11 23  1  0
 11 25  2  0
 23 12  2  0
 12 24  1  0
 12 27  1  0
 13 24  2  0
 25 13  1  0
 16 18  1  0
 16 34  1  1
 17 34  1  0
 17 39  1  1
 18 36  1  6
 20 19  1  0
 19 38  1  6
 20 31  1  6
 22 21  2  0
 21 33  1  0
 22 31  1  0
 28 29  2  0
 29 30  1  0
 31 32  1  0
 32 33  2  0
M  END
$$$$
