
     RDKit          3D

 39 43  0  0  0  0  0  0  0  0999 V2000
  -13.0977    8.1804   -0.8143 C   0  0  0  0  0  0  0  0  0  0  0  0
  -12.1764    7.9871    0.1999 C   0  0  0  0  0  0  0  0  0  0  0  0
  -10.3764    8.1836   -1.3063 C   0  0  0  0  0  0  0  0  0  0  0  0
  -11.2405    8.3831   -2.3677 C   0  0  0  0  0  0  0  0  0  0  0  0
  -14.5309    8.1740   -0.5259 C   0  0  0  0  0  0  0  0  0  0  0  0
  -15.5319    8.4242   -1.4394 C   0  0  0  0  0  0  0  0  0  0  0  0
  -18.6801    7.2241   -1.8215 C   0  0  2  0  0  0  0  0  0  0  0  0
  -18.0229    8.5347   -1.4735 C   0  0  1  0  0  0  0  0  0  0  0  0
  -18.9126    9.4396   -0.6626 C   0  0  2  0  0  0  0  0  0  0  0  0
  -23.0292    9.7381   -1.0186 C   0  0  0  0  0  0  0  0  0  0  0  0
  -28.9317    9.8919    2.7494 C   0  0  0  0  0  0  0  0  0  0  0  0
  -29.4615   11.6865    4.2148 C   0  0  0  0  0  0  0  0  0  0  0  0
  -30.5908    9.6389    4.4176 C   0  0  0  0  0  0  0  0  0  0  0  0
  -12.5970    8.3739   -2.0762 C   0  0  0  0  0  0  0  0  0  0  0  0
  -10.8189    7.9842   -0.0181 C   0  0  0  0  0  0  0  0  0  0  0  0
  -19.5171    6.6476   -0.7318 C   0  0  1  0  0  0  0  0  0  0  0  0
  -20.2892    8.7973   -0.6435 C   0  0  1  0  0  0  0  0  0  0  0  0
  -18.8008    5.6823    0.1611 C   0  0  0  0  0  0  0  0  0  0  0  0
  -24.2223    9.5991   -0.1269 C   0  0  1  0  0  0  0  0  0  0  0  0
  -25.5135    9.4413   -0.8882 C   0  0  0  0  0  0  0  0  0  0  0  0
  -28.1497    9.3582    1.6391 C   0  0  0  0  0  0  0  0  0  0  0  0
  -27.0953    9.9825    1.0087 C   0  0  0  0  0  0  0  0  0  0  0  0
  -28.7245   11.1793    3.1656 C   0  0  0  0  0  0  0  0  0  0  0  0
  -30.4114   10.9298    4.8655 C   0  0  0  0  0  0  0  0  0  0  0  0
  -29.8684    9.1135    3.3751 C   0  0  0  0  0  0  0  0  0  0  0  0
  -10.7656    8.5766   -3.6263 F   0  0  0  0  0  0  0  0  0  0  0  0
  -29.2569   12.9785    4.6360 F   0  0  0  0  0  0  0  0  0  0  0  0
  -15.1598    7.9345    0.6360 N   0  0  0  0  0  0  0  0  0  0  0  0
  -16.4844    8.0348    0.4372 N   0  0  0  0  0  0  0  0  0  0  0  0
  -16.7425    8.3319   -0.8162 N   0  0  0  0  0  0  0  0  0  0  0  0
  -26.6133    9.1841    0.0222 N   0  0  0  0  0  0  0  0  0  0  0  0
  -27.3747    8.0913    0.0637 N   0  0  0  0  0  0  0  0  0  0  0  0
  -28.2848    8.1794    1.0117 N   0  0  0  0  0  0  0  0  0  0  0  0
  -20.1504    7.5989    0.0622 O   0  0  0  0  0  0  0  0  0  0  0  0
  -17.6479    6.3076   -2.1093 O   0  0  0  0  0  0  0  0  0  0  0  0
  -19.6157    4.6468    0.5976 O   0  0  0  0  0  0  0  0  0  0  0  0
  -19.0030   10.6820   -1.2779 O   0  0  0  0  0  0  0  0  0  0  0  0
  -24.0714    8.4763    0.7062 O   0  0  0  0  0  0  0  0  0  0  0  0
  -21.5506    9.8788    0.0217 S   0  0  0  0  0  0  0  0  0  0  0  0
  1  2  2  0
  5  1  1  0
  1 14  1  0
  2 15  1  0
  4  3  1  0
 15  3  2  0
 14  4  2  0
  4 26  1  0
  6  5  2  0
  5 28  1  0
 30  6  1  0
  8  7  1  0
 16  7  1  0
  7 35  1  1
  9  8  1  0
  8 30  1  1
 17  9  1  0
  9 37  1  6
 19 10  1  0
 10 39  1  6
 21 11  1  0
 11 23  1  0
 11 25  2  0
 23 12  2  0
 12 24  1  0
 12 27  1  0
 13 24  2  0
 25 13  1  0
 16 18  1  0
 16 34  1  1
 17 34  1  0
 17 39  1  1
 18 36  1  6
 20 19  1  0
 19 38  1  1
 20 31  1  6
 22 21  2  0
 21 33  1  0
 22 31  1  0
 28 29  2  0
 29 30  1  0
 31 32  1  0
 32 33  2  0
M  END
$$$$
