
     RDKit          3D

 39 43  0  0  0  0  0  0  0  0999 V2000
  -24.6568    8.7346    1.7521 C   0  0  0  0  0  0  0  0  0  0  0  0
  -25.9725    8.4463    1.9814 C   0  0  0  0  0  0  0  0  0  0  0  0
  -26.1059   10.1282    3.6471 C   0  0  0  0  0  0  0  0  0  0  0  0
  -24.7972   10.4181    3.4218 C   0  0  0  0  0  0  0  0  0  0  0  0
  -23.9017    7.9967    0.7524 C   0  0  0  0  0  0  0  0  0  0  0  0
  -22.9268    8.5266   -0.1002 C   0  0  0  0  0  0  0  0  0  0  0  0
  -21.9590    8.1856   -3.2164 C   0  0  2  0  0  0  0  0  0  0  0  0
  -21.4244    7.7269   -1.8885 C   0  0  1  0  0  0  0  0  0  0  0  0
  -20.3980    8.7036   -1.4074 C   0  0  2  0  0  0  0  0  0  0  0  0
  -17.9181   11.7695   -3.0248 C   0  0  0  0  0  0  0  0  0  0  0  0
  -11.9028    9.3384    0.2175 C   0  0  0  0  0  0  0  0  0  0  0  0
  -10.2567    8.7642    1.8912 C   0  0  0  0  0  0  0  0  0  0  0  0
   -9.5573    9.0990   -0.3551 C   0  0  0  0  0  0  0  0  0  0  0  0
  -24.0480    9.7343    2.4777 C   0  0  0  0  0  0  0  0  0  0  0  0
  -26.7240    9.1365    2.9330 C   0  0  0  0  0  0  0  0  0  0  0  0
  -20.7613    8.1949   -4.1491 C   0  0  1  0  0  0  0  0  0  0  0  0
  -19.4927    9.2267   -2.4414 C   0  0  1  0  0  0  0  0  0  0  0  0
  -21.2771    8.6482   -5.5139 C   0  0  0  0  0  0  0  0  0  0  0  0
  -16.6709   11.6397   -2.2016 C   0  0  1  0  0  0  0  0  0  0  0  0
  -16.0960   10.2334   -2.3839 C   0  0  0  0  0  0  0  0  0  0  0  0
  -13.2864    9.6140   -0.1420 C   0  0  0  0  0  0  0  0  0  0  0  0
  -13.8205    9.7549   -1.4014 C   0  0  0  0  0  0  0  0  0  0  0  0
  -11.5532    9.0321    1.5145 C   0  0  0  0  0  0  0  0  0  0  0  0
   -9.2411    8.7931    0.9656 C   0  0  0  0  0  0  0  0  0  0  0  0
  -10.8823    9.3661   -0.7061 C   0  0  0  0  0  0  0  0  0  0  0  0
  -24.2036   11.3980    4.1309 F   0  0  0  0  0  0  0  0  0  0  0  0
   -9.9617    8.4693    3.1734 F   0  0  0  0  0  0  0  0  0  0  0  0
  -23.9620    6.6927    0.4318 N   0  0  0  0  0  0  0  0  0  0  0  0
  -23.0940    6.4322   -0.5423 N   0  0  0  0  0  0  0  0  0  0  0  0
  -22.4472    7.5261   -0.8901 N   0  0  0  0  0  0  0  0  0  0  0  0
  -15.1548   10.0087   -1.3073 N   0  0  0  0  0  0  0  0  0  0  0  0
  -15.4084   10.0179   -0.0038 N   0  0  0  0  0  0  0  0  0  0  0  0
  -14.3172    9.7869    0.7005 N   0  0  0  0  0  0  0  0  0  0  0  0
  -19.7674    9.0031   -3.7581 O   0  0  0  0  0  0  0  0  0  0  0  0
  -22.4946    9.4691   -3.1768 O   0  0  0  0  0  0  0  0  0  0  0  0
  -20.2887    8.5659   -6.4725 O   0  0  0  0  0  0  0  0  0  0  0  0
  -19.6531    8.0005   -0.4372 O   0  0  0  0  0  0  0  0  0  0  0  0
  -15.7516   12.6017   -2.6058 O   0  0  0  0  0  0  0  0  0  0  0  0
  -19.3272   11.0260   -2.2692 S   0  0  0  0  0  0  0  0  0  0  0  0
  1  2  2  0
  5  1  1  0
  1 14  1  0
  2 15  1  0
  4  3  1  0
 15  3  2  0
 14  4  2  0
  4 26  1  0
  6  5  2  0
  5 28  1  0
 30  6  1  0
  8  7  1  0
 16  7  1  0
  7 35  1  1
  9  8  1  0
  8 30  1  1
 17  9  1  0
  9 37  1  1
 19 10  1  0
 10 39  1  0
 21 11  1  0
 11 23  1  0
 11 25  2  0
 23 12  2  0
 12 24  1  0
 12 27  1  0
 13 24  2  0
 25 13  1  0
 16 18  1  6
 34 16  1  0
 17 34  1  0
 17 39  1  6
 18 36  1  0
 20 19  1  0
 19 38  1  6
 31 20  1  0
 22 21  2  0
 21 33  1  0
 22 31  1  0
 28 29  2  0
 29 30  1  0
 31 32  1  0
 32 33  2  0
M  END
$$$$
