
     RDKit          3D

 39 43  0  0  0  0  0  0  0  0999 V2000
  -28.6435    9.5214    1.8766 C   0  0  0  0  0  0  0  0  0  0  0  0
  -29.6816    8.6561    2.0784 C   0  0  0  0  0  0  0  0  0  0  0  0
  -30.9559   10.3492    3.1418 C   0  0  0  0  0  0  0  0  0  0  0  0
  -29.9256   11.2130    2.9428 C   0  0  0  0  0  0  0  0  0  0  0  0
  -27.4304    9.0776    1.2092 C   0  0  0  0  0  0  0  0  0  0  0  0
  -26.5534    9.8828    0.4738 C   0  0  0  0  0  0  0  0  0  0  0  0
  -24.1261   11.0624   -0.5151 C   0  0  2  0  0  0  0  0  0  0  0  0
  -24.4512    9.6215   -0.7940 C   0  0  1  0  0  0  0  0  0  0  0  0
  -23.2179    8.7944   -0.6107 C   0  0  2  0  0  0  0  0  0  0  0  0
  -19.0029    9.1115   -0.5079 C   0  0  0  0  0  0  0  0  0  0  0  0
  -13.0621    7.9742   -1.2898 C   0  0  0  0  0  0  0  0  0  0  0  0
  -11.5200    6.3056   -0.4663 C   0  0  0  0  0  0  0  0  0  0  0  0
  -10.6990    8.4619   -1.0350 C   0  0  0  0  0  0  0  0  0  0  0  0
  -28.7552   10.8233    2.3113 C   0  0  0  0  0  0  0  0  0  0  0  0
  -30.8585    9.0516    2.7147 C   0  0  0  0  0  0  0  0  0  0  0  0
  -23.0773   11.4432   -1.5445 C   0  0  1  0  0  0  0  0  0  0  0  0
  -21.9751    9.3956   -1.1171 C   0  0  1  0  0  0  0  0  0  0  0  0
  -22.7336   12.9103   -1.2922 C   0  0  0  0  0  0  0  0  0  0  0  0
  -18.6389    7.7404   -0.9950 C   0  0  1  0  0  0  0  0  0  0  0  0
  -17.9601    7.8593   -2.3611 C   0  0  0  0  0  0  0  0  0  0  0  0
  -14.4163    8.3611   -1.6584 C   0  0  0  0  0  0  0  0  0  0  0  0
  -15.5277    7.5573   -1.7569 C   0  0  0  0  0  0  0  0  0  0  0  0
  -12.7873    6.7076   -0.8224 C   0  0  0  0  0  0  0  0  0  0  0  0
  -10.4589    7.1732   -0.5665 C   0  0  0  0  0  0  0  0  0  0  0  0
  -11.9961    8.8398   -1.3885 C   0  0  0  0  0  0  0  0  0  0  0  0
  -30.0372   12.4870    3.3666 F   0  0  0  0  0  0  0  0  0  0  0  0
  -11.2989    5.0550   -0.0133 F   0  0  0  0  0  0  0  0  0  0  0  0
  -26.8943    7.8466    1.1485 N   0  0  0  0  0  0  0  0  0  0  0  0
  -25.7733    7.8828    0.4327 N   0  0  0  0  0  0  0  0  0  0  0  0
  -25.5362    9.1068    0.0067 N   0  0  0  0  0  0  0  0  0  0  0  0
  -16.6022    8.3051   -2.1313 N   0  0  0  0  0  0  0  0  0  0  0  0
  -16.1309    9.5407   -2.2533 N   0  0  0  0  0  0  0  0  0  0  0  0
  -14.8418    9.5935   -1.9783 N   0  0  0  0  0  0  0  0  0  0  0  0
  -21.9593   10.7079   -1.4869 O   0  0  0  0  0  0  0  0  0  0  0  0
  -23.5913   11.2671    0.7530 O   0  0  0  0  0  0  0  0  0  0  0  0
  -21.7616   13.3517   -2.1656 O   0  0  0  0  0  0  0  0  0  0  0  0
  -23.4792    7.5930   -1.3026 O   0  0  0  0  0  0  0  0  0  0  0  0
  -17.7880    7.1371   -0.0752 O   0  0  0  0  0  0  0  0  0  0  0  0
  -20.6511    9.2118    0.1108 S   0  0  0  0  0  0  0  0  0  0  0  0
  1  2  2  0
  5  1  1  0
  1 14  1  0
  2 15  1  0
  4  3  1  0
 15  3  2  0
 14  4  2  0
  4 26  1  0
  6  5  2  0
  5 28  1  0
 30  6  1  0
  8  7  1  0
 16  7  1  0
  7 35  1  1
  9  8  1  0
  8 30  1  1
 17  9  1  0
  9 37  1  6
 19 10  1  0
 10 39  1  0
 21 11  1  0
 11 23  1  0
 11 25  2  0
 23 12  2  0
 12 24  1  0
 12 27  1  0
 13 24  2  0
 25 13  1  0
 16 18  1  1
 34 16  1  0
 17 34  1  0
 17 39  1  1
 18 36  1  0
 20 19  1  0
 19 38  1  1
 31 20  1  0
 22 21  2  0
 21 33  1  0
 22 31  1  0
 28 29  2  0
 29 30  1  0
 31 32  1  0
 32 33  2  0
M  END
$$$$
