
     RDKit          3D

 39 43  0  0  0  0  0  0  0  0999 V2000
  -28.2480    9.2241    2.4836 C   0  0  0  0  0  0  0  0  0  0  0  0
  -29.2715    8.7452    1.7155 C   0  0  0  0  0  0  0  0  0  0  0  0
  -30.6044    8.3593    3.6379 C   0  0  0  0  0  0  0  0  0  0  0  0
  -29.5886    8.8351    4.4054 C   0  0  0  0  0  0  0  0  0  0  0  0
  -27.0115    9.6778    1.8678 C   0  0  0  0  0  0  0  0  0  0  0  0
  -26.4533    9.1869    0.6822 C   0  0  0  0  0  0  0  0  0  0  0  0
  -23.5285   10.7346   -1.0499 C   0  0  2  0  0  0  0  0  0  0  0  0
  -24.4641    9.6057   -0.7186 C   0  0  1  0  0  0  0  0  0  0  0  0
  -23.6727    8.3498   -0.5308 C   0  0  2  0  0  0  0  0  0  0  0  0
  -20.0755    6.4021   -1.3745 C   0  0  0  0  0  0  0  0  0  0  0  0
  -13.3334    8.4365   -0.1277 C   0  0  0  0  0  0  0  0  0  0  0  0
  -12.3507    9.4829    1.8165 C   0  0  0  0  0  0  0  0  0  0  0  0
  -11.1506    9.4905   -0.2345 C   0  0  0  0  0  0  0  0  0  0  0  0
  -28.3968    9.2747    3.8517 C   0  0  0  0  0  0  0  0  0  0  0  0
  -30.4702    8.3031    2.2762 C   0  0  0  0  0  0  0  0  0  0  0  0
  -22.8600   10.3322   -2.3521 C   0  0  1  0  0  0  0  0  0  0  0  0
  -22.5663    8.1545   -1.4795 C   0  0  1  0  0  0  0  0  0  0  0  0
  -21.9080   11.4688   -2.7209 C   0  0  0  0  0  0  0  0  0  0  0  0
  -18.6882    6.8813   -1.6836 C   0  0  1  0  0  0  0  0  0  0  0  0
  -17.6833    6.0558   -0.8772 C   0  0  0  0  0  0  0  0  0  0  0  0
  -14.4353    7.7101   -0.7420 C   0  0  0  0  0  0  0  0  0  0  0  0
  -15.6122    7.3062   -0.1563 C   0  0  0  0  0  0  0  0  0  0  0  0
  -13.3737    8.7979    1.2013 C   0  0  0  0  0  0  0  0  0  0  0  0
  -11.2263    9.8391    1.1111 C   0  0  0  0  0  0  0  0  0  0  0  0
  -12.2051    8.7953   -0.8302 C   0  0  0  0  0  0  0  0  0  0  0  0
  -29.7365    8.8863    5.7436 F   0  0  0  0  0  0  0  0  0  0  0  0
  -12.4347    9.8159    3.1204 F   0  0  0  0  0  0  0  0  0  0  0  0
  -26.1578   10.6323    2.2763 N   0  0  0  0  0  0  0  0  0  0  0  0
  -25.1492   10.7277    1.4139 N   0  0  0  0  0  0  0  0  0  0  0  0
  -25.2974    9.8623    0.4315 N   0  0  0  0  0  0  0  0  0  0  0  0
  -16.3790    6.6527   -1.0721 N   0  0  0  0  0  0  0  0  0  0  0  0
  -15.6624    6.6697   -2.1901 N   0  0  0  0  0  0  0  0  0  0  0  0
  -14.5113    7.2897   -2.0147 N   0  0  0  0  0  0  0  0  0  0  0  0
  -22.1760    9.1826   -2.2856 O   0  0  0  0  0  0  0  0  0  0  0  0
  -22.5399   10.9256   -0.0896 O   0  0  0  0  0  0  0  0  0  0  0  0
  -21.1975   11.1720   -3.8654 O   0  0  0  0  0  0  0  0  0  0  0  0
  -24.6094    7.3046   -0.6738 O   0  0  0  0  0  0  0  0  0  0  0  0
  -18.4497    6.7489   -3.0473 O   0  0  0  0  0  0  0  0  0  0  0  0
  -21.0732    7.6276   -0.5920 S   0  0  0  0  0  0  0  0  0  0  0  0
  1  2  2  0
  5  1  1  0
  1 14  1  0
  2 15  1  0
  4  3  1  0
 15  3  2  0
 14  4  2  0
  4 26  1  0
  6  5  2  0
  5 28  1  0
 30  6  1  0
  8  7  1  0
 16  7  1  0
  7 35  1  1
  9  8  1  0
  8 30  1  1
 17  9  1  0
  9 37  1  6
 19 10  1  0
 10 39  1  0
 21 11  1  0
 11 23  1  0
 11 25  2  0
 23 12  2  0
 12 24  1  0
 12 27  1  0
 13 24  2  0
 25 13  1  0
 16 18  1  1
 34 16  1  0
 17 34  1  0
 17 39  1  1
 18 36  1  0
 20 19  1  0
 19 38  1  6
 31 20  1  0
 22 21  2  0
 21 33  1  0
 22 31  1  0
 28 29  2  0
 29 30  1  0
 31 32  1  0
 32 33  2  0
M  END
$$$$
