
     RDKit          3D

 39 43  0  0  0  0  0  0  0  0999 V2000
  -13.2816    8.7535   -0.9994 C   0  0  0  0  0  0  0  0  0  0  0  0
  -13.0123    8.8571   -2.3349 C   0  0  0  0  0  0  0  0  0  0  0  0
  -10.6842    8.6521   -1.9357 C   0  0  0  0  0  0  0  0  0  0  0  0
  -10.9480    8.5485   -0.6063 C   0  0  0  0  0  0  0  0  0  0  0  0
  -14.6515    8.8070   -0.5151 C   0  0  0  0  0  0  0  0  0  0  0  0
  -15.7661    8.2274   -1.1315 C   0  0  0  0  0  0  0  0  0  0  0  0
  -18.6308    6.8148    0.0268 C   0  0  2  0  0  0  0  0  0  0  0  0
  -18.1942    8.0400   -0.7267 C   0  0  1  0  0  0  0  0  0  0  0  0
  -19.1990    9.1292   -0.5194 C   0  0  2  0  0  0  0  0  0  0  0  0
  -23.0869   10.1375    0.4964 C   0  0  0  0  0  0  0  0  0  0  0  0
  -26.3600    8.3634   -4.5408 C   0  0  0  0  0  0  0  0  0  0  0  0
  -28.7341    8.2319   -4.1085 C   0  0  0  0  0  0  0  0  0  0  0  0
  -27.9546    8.0892   -6.3488 C   0  0  0  0  0  0  0  0  0  0  0  0
  -12.2412    8.5965   -0.1108 C   0  0  0  0  0  0  0  0  0  0  0  0
  -11.7090    8.8086   -2.8306 C   0  0  0  0  0  0  0  0  0  0  0  0
  -19.9656    6.4244   -0.5819 C   0  0  1  0  0  0  0  0  0  0  0  0
  -20.6054    8.7000   -0.5340 C   0  0  1  0  0  0  0  0  0  0  0  0
  -20.4309    5.1717    0.1587 C   0  0  0  0  0  0  0  0  0  0  0  0
  -23.2359   10.5685   -0.9326 C   0  0  1  0  0  0  0  0  0  0  0  0
  -22.3598    9.6785   -1.8168 C   0  0  0  0  0  0  0  0  0  0  0  0
  -24.9985    8.5067   -4.0459 C   0  0  0  0  0  0  0  0  0  0  0  0
  -24.5694    9.2068   -2.9427 C   0  0  0  0  0  0  0  0  0  0  0  0
  -27.4336    8.3631   -3.6773 C   0  0  0  0  0  0  0  0  0  0  0  0
  -29.0148    8.0933   -5.4467 C   0  0  0  0  0  0  0  0  0  0  0  0
  -26.6461    8.2244   -5.8803 C   0  0  0  0  0  0  0  0  0  0  0  0
   -9.9293    8.3927    0.2615 F   0  0  0  0  0  0  0  0  0  0  0  0
  -29.7534    8.2368   -3.2259 F   0  0  0  0  0  0  0  0  0  0  0  0
  -15.1415    9.3981    0.5881 N   0  0  0  0  0  0  0  0  0  0  0  0
  -16.4559    9.2019    0.6531 N   0  0  0  0  0  0  0  0  0  0  0  0
  -16.8690    8.4932   -0.3779 N   0  0  0  0  0  0  0  0  0  0  0  0
  -23.2178    9.0928   -2.8249 N   0  0  0  0  0  0  0  0  0  0  0  0
  -22.8499    8.3319   -3.8492 N   0  0  0  0  0  0  0  0  0  0  0  0
  -23.8878    7.9761   -4.5817 N   0  0  0  0  0  0  0  0  0  0  0  0
  -20.9085    7.3713   -0.4908 O   0  0  0  0  0  0  0  0  0  0  0  0
  -18.8190    7.0463    1.3858 O   0  0  0  0  0  0  0  0  0  0  0  0
  -21.7639    4.9146   -0.0858 O   0  0  0  0  0  0  0  0  0  0  0  0
  -18.9708   10.0401   -1.5724 O   0  0  0  0  0  0  0  0  0  0  0  0
  -24.5717   10.4678   -1.3058 O   0  0  0  0  0  0  0  0  0  0  0  0
  -21.4998    9.4566    0.8525 S   0  0  0  0  0  0  0  0  0  0  0  0
  1  2  2  0
  5  1  1  0
  1 14  1  0
  2 15  1  0
  4  3  1  0
 15  3  2  0
 14  4  2  0
  4 26  1  0
  6  5  2  0
  5 28  1  0
 30  6  1  0
  8  7  1  0
 16  7  1  0
  7 35  1  1
  9  8  1  0
  8 30  1  1
 17  9  1  0
  9 37  1  6
 19 10  1  0
 10 39  1  0
 21 11  1  0
 11 23  1  0
 11 25  2  0
 23 12  2  0
 12 24  1  0
 12 27  1  0
 13 24  2  0
 25 13  1  0
 16 18  1  1
 34 16  1  0
 17 34  1  0
 17 39  1  1
 18 36  1  0
 20 19  1  0
 19 38  1  6
 31 20  1  0
 22 21  2  0
 21 33  1  0
 22 31  1  0
 28 29  2  0
 29 30  1  0
 31 32  1  0
 32 33  2  0
M  END
$$$$
