
     RDKit          3D

 26 29  0  0  0  0  0  0  0  0999 V2000
   95.7596   10.7956   44.5039 C   0  0  0  0  0  0  0  0  0  0  0  0
   94.8544   10.0910   43.7525 C   0  0  0  0  0  0  0  0  0  0  0  0
   93.5093   10.1550   44.0213 C   0  0  0  0  0  0  0  0  0  0  0  0
   93.1102   10.9543   45.0755 C   0  0  0  0  0  0  0  0  0  0  0  0
   93.9577   11.6943   45.8811 C   0  0  0  0  0  0  0  0  0  0  0  0
   95.3097   11.5910   45.5596 C   0  0  0  0  0  0  0  0  0  0  0  0
   92.5507    9.4049   43.2190 C   0  0  0  0  0  0  0  0  0  0  0  0
   93.2796   12.5690   47.1722 S   0  0  2  0  0  6  0  0  0  0  0  0
   93.2014   14.2552   46.8076 N   0  0  0  0  0  0  0  0  0  0  0  0
   94.2002   12.4779   48.3637 O   0  0  0  0  0  0  0  0  0  0  0  0
   91.9598   12.2012   47.6894 O   0  0  0  0  0  0  0  0  0  0  0  0
   91.2948    9.0148   43.6006 C   0  0  0  0  0  0  0  0  0  0  0  0
   90.7478    8.3545   42.5810 O   0  0  0  0  0  0  0  0  0  0  0  0
   91.5684    8.3008   41.5859 N   0  0  0  0  0  0  0  0  0  0  0  0
   92.7215    8.9491   41.9368 C   0  0  0  0  0  0  0  0  0  0  0  0
   93.9125    9.1147   41.0811 C   0  0  0  0  0  0  0  0  0  0  0  0
   90.6180    9.2482   44.8786 C   0  0  0  0  0  0  0  0  0  0  0  0
   92.7052   14.5087   45.5018 C   0  0  1  0  0  0  0  0  0  0  0  0
   91.7949   15.7113   45.4207 C   0  0  0  0  0  0  0  0  0  0  0  0
   92.8217   16.8460   45.3824 C   0  0  0  0  0  0  0  0  0  0  0  0
   93.7529   16.3487   44.3034 C   0  0  0  0  0  0  0  0  0  0  0  0
   93.7781   14.8695   44.5020 C   0  0  0  0  0  0  0  0  0  0  0  0
   97.0848   10.7619   44.2547 N   0  0  0  0  0  0  0  0  0  0  0  0
   97.9730   11.4656   44.9849 C   0  0  0  0  0  0  0  0  0  0  0  0
   97.5599   12.2574   46.0270 C   0  0  0  0  0  0  0  0  0  0  0  0
   96.1919   12.3203   46.3197 C   0  0  0  0  0  0  0  0  0  0  0  0
  1  2  2  0
  1  6  1  0
  1 23  1  0
  2  3  1  0
  3  4  2  0
  3  7  1  0
  4  5  1  0
  5  6  2  0
  5  8  1  0
  6 26  1  0
  7 12  2  0
  7 15  1  0
  8  9  1  6
  8 10  2  0
  8 11  2  0
 18  9  1  1
 12 13  1  0
 17 12  1  6
 13 14  1  0
 14 15  2  0
 16 15  1  6
 19 18  1  1
 18 22  1  0
 20 19  1  1
 21 20  1  1
 22 21  1  6
 23 24  2  0
 24 25  1  0
 25 26  2  0
M  END
$$$$
