
     RDKit          3D

 26 29  0  0  0  0  0  0  0  0999 V2000
   95.7858   10.3594   44.5842 C   0  0  0  0  0  0  0  0  0  0  0  0
   94.8783    9.6567   43.8083 C   0  0  0  0  0  0  0  0  0  0  0  0
   93.5122    9.8671   43.9044 C   0  0  0  0  0  0  0  0  0  0  0  0
   93.0768   10.8049   44.8028 C   0  0  0  0  0  0  0  0  0  0  0  0
   93.9250   11.5398   45.6057 C   0  0  0  0  0  0  0  0  0  0  0  0
   95.2849   11.2917   45.4717 C   0  0  0  0  0  0  0  0  0  0  0  0
   92.6289    9.0831   43.0495 C   0  0  0  0  0  0  0  0  0  0  0  0
   93.3563   12.7342   46.7488 S   0  0  2  0  0  6  0  0  0  0  0  0
   94.1733   14.2258   46.5016 N   0  0  0  0  0  0  0  0  0  0  0  0
   93.5866   12.2262   48.1389 O   0  0  0  0  0  0  0  0  0  0  0  0
   91.9026   12.9514   46.5079 O   0  0  0  0  0  0  0  0  0  0  0  0
   91.5369    8.3312   43.4732 C   0  0  0  0  0  0  0  0  0  0  0  0
   90.9876    7.7677   42.4233 O   0  0  0  0  0  0  0  0  0  0  0  0
   91.6382    8.0931   41.3371 N   0  0  0  0  0  0  0  0  0  0  0  0
   92.6602    8.9055   41.6809 C   0  0  0  0  0  0  0  0  0  0  0  0
   93.6803    9.5358   40.7939 C   0  0  0  0  0  0  0  0  0  0  0  0
   91.1104    8.2231   44.9021 C   0  0  0  0  0  0  0  0  0  0  0  0
   93.8942   14.8402   45.2609 C   0  0  1  0  0  0  0  0  0  0  0  0
   92.5174   15.3857   45.0989 C   0  0  0  0  0  0  0  0  0  0  0  0
   92.6245   16.2040   43.8289 C   0  0  0  0  0  0  0  0  0  0  0  0
   94.0893   16.5312   43.6484 C   0  0  0  0  0  0  0  0  0  0  0  0
   94.7700   16.0182   44.9250 C   0  0  0  0  0  0  0  0  0  0  0  0
   97.1156   10.1470   44.4831 N   0  0  0  0  0  0  0  0  0  0  0  0
   97.9437   10.8608   45.2634 C   0  0  0  0  0  0  0  0  0  0  0  0
   97.4878   11.8027   46.1643 C   0  0  0  0  0  0  0  0  0  0  0  0
   96.1324   12.0311   46.2792 C   0  0  0  0  0  0  0  0  0  0  0  0
  1  2  2  0
  1  6  1  0
  1 23  1  0
  2  3  1  0
  3  4  2  0
  3  7  1  0
  4  5  1  0
  5  6  2  0
  5  8  1  0
  6 26  1  0
  7 12  2  0
  7 15  1  0
  8  9  1  1
  8 10  2  0
  8 11  2  0
 18  9  1  1
 12 13  1  0
 12 17  1  0
 13 14  1  0
 14 15  2  0
 15 16  1  0
 18 19  1  0
 18 22  1  0
 19 20  1  0
 20 21  1  0
 21 22  1  0
 23 24  2  0
 24 25  1  0
 25 26  2  0
M  END
$$$$
