
     RDKit          3D

 26 29  0  0  0  0  0  0  0  0999 V2000
   93.5237   13.3694   43.5034 C   0  0  0  0  0  0  0  0  0  0  0  0
   93.1380   12.1419   43.0295 C   0  0  0  0  0  0  0  0  0  0  0  0
   92.8934   11.0973   43.8867 C   0  0  0  0  0  0  0  0  0  0  0  0
   93.0528   11.3351   45.2385 C   0  0  0  0  0  0  0  0  0  0  0  0
   93.4393   12.5412   45.7964 C   0  0  0  0  0  0  0  0  0  0  0  0
   93.6715   13.5634   44.8782 C   0  0  0  0  0  0  0  0  0  0  0  0
   92.4825    9.7943   43.3783 C   0  0  0  0  0  0  0  0  0  0  0  0
   93.6421   12.6186   47.4830 S   0  0  2  0  0  6  0  0  0  0  0  0
   95.2228   12.0975   47.9436 N   0  0  0  0  0  0  0  0  0  0  0  0
   92.7084   11.6297   48.1353 O   0  0  0  0  0  0  0  0  0  0  0  0
   93.4056   13.8795   48.1894 O   0  0  0  0  0  0  0  0  0  0  0  0
   92.9256    9.1876   42.2334 C   0  0  0  0  0  0  0  0  0  0  0  0
   92.3062    8.0125   42.1312 O   0  0  0  0  0  0  0  0  0  0  0  0
   91.5058    7.8360   43.1284 N   0  0  0  0  0  0  0  0  0  0  0  0
   91.5793    8.9318   43.9453 C   0  0  0  0  0  0  0  0  0  0  0  0
   90.8208    9.1277   45.1960 C   0  0  0  0  0  0  0  0  0  0  0  0
   93.8990    9.6843   41.2581 C   0  0  0  0  0  0  0  0  0  0  0  0
   96.2479   12.9064   47.3866 C   0  0  1  0  0  0  0  0  0  0  0  0
   97.4154   13.1340   48.3176 C   0  0  0  0  0  0  0  0  0  0  0  0
   98.1849   11.8229   48.1383 C   0  0  0  0  0  0  0  0  0  0  0  0
   98.2402   11.7308   46.6327 C   0  0  0  0  0  0  0  0  0  0  0  0
   96.9285   12.2878   46.1886 C   0  0  0  0  0  0  0  0  0  0  0  0
   93.7580   14.4166   42.6860 N   0  0  0  0  0  0  0  0  0  0  0  0
   94.1238   15.6271   43.1532 C   0  0  0  0  0  0  0  0  0  0  0  0
   94.2749   15.8477   44.4993 C   0  0  0  0  0  0  0  0  0  0  0  0
   94.0416   14.7866   45.3829 C   0  0  0  0  0  0  0  0  0  0  0  0
  1  2  2  0
  1  6  1  0
  1 23  1  0
  2  3  1  0
  3  4  2  0
  3  7  1  0
  4  5  1  0
  5  6  2  0
  5  8  1  0
  6 26  1  0
  7 12  2  0
  7 15  1  0
  8  9  1  6
  8 10  2  0
  8 11  2  0
 18  9  1  1
 12 13  1  0
 17 12  1  6
 13 14  1  0
 14 15  2  0
 16 15  1  6
 19 18  1  1
 18 22  1  0
 20 19  1  1
 21 20  1  1
 22 21  1  6
 23 24  2  0
 24 25  1  0
 25 26  2  0
M  END
$$$$
