
     RDKit          3D

 26 29  0  0  0  0  0  0  0  0999 V2000
   93.8508   12.9014   43.6273 C   0  0  0  0  0  0  0  0  0  0  0  0
   93.4119   11.6897   43.1186 C   0  0  0  0  0  0  0  0  0  0  0  0
   93.3129   10.5549   43.9073 C   0  0  0  0  0  0  0  0  0  0  0  0
   93.6670   10.6662   45.2258 C   0  0  0  0  0  0  0  0  0  0  0  0
   94.1118   11.8410   45.7969 C   0  0  0  0  0  0  0  0  0  0  0  0
   94.1933   12.9498   44.9645 C   0  0  0  0  0  0  0  0  0  0  0  0
   92.8414    9.3213   43.2896 C   0  0  0  0  0  0  0  0  0  0  0  0
   94.5608   11.9698   47.4817 S   0  0  2  0  0  6  0  0  0  0  0  0
   95.8832   13.0528   47.6604 N   0  0  0  0  0  0  0  0  0  0  0  0
   94.9153   10.6086   47.9965 O   0  0  0  0  0  0  0  0  0  0  0  0
   93.3982   12.5232   48.2304 O   0  0  0  0  0  0  0  0  0  0  0  0
   91.8287    8.4990   43.7752 C   0  0  0  0  0  0  0  0  0  0  0  0
   91.6860    7.4859   42.9538 O   0  0  0  0  0  0  0  0  0  0  0  0
   92.5314    7.5798   41.9610 N   0  0  0  0  0  0  0  0  0  0  0  0
   93.2643    8.7008   42.1312 C   0  0  0  0  0  0  0  0  0  0  0  0
   94.3528    9.2356   41.2631 C   0  0  0  0  0  0  0  0  0  0  0  0
   91.0665    8.7778   45.0308 C   0  0  0  0  0  0  0  0  0  0  0  0
   96.9973   12.7452   46.8489 C   0  0  1  0  0  0  0  0  0  0  0  0
   98.0963   13.7510   46.8421 C   0  0  0  0  0  0  0  0  0  0  0  0
   99.2208   13.0194   46.1392 C   0  0  0  0  0  0  0  0  0  0  0  0
   98.9270   11.5429   46.2756 C   0  0  0  0  0  0  0  0  0  0  0  0
   97.7075   11.4658   47.2047 C   0  0  0  0  0  0  0  0  0  0  0  0
   93.9438   14.0019   42.8503 N   0  0  0  0  0  0  0  0  0  0  0  0
   94.3765   15.1470   43.4034 C   0  0  0  0  0  0  0  0  0  0  0  0
   94.7296   15.2418   44.7349 C   0  0  0  0  0  0  0  0  0  0  0  0
   94.6400   14.1265   45.5415 C   0  0  0  0  0  0  0  0  0  0  0  0
  1  2  2  0
  1  6  1  0
  1 23  1  0
  2  3  1  0
  3  4  2  0
  3  7  1  0
  4  5  1  0
  5  6  2  0
  5  8  1  0
  6 26  1  0
  7 12  2  0
  7 15  1  0
  8  9  1  6
  8 10  2  0
  8 11  2  0
 18  9  1  1
 12 13  1  0
 12 17  1  0
 13 14  1  0
 14 15  2  0
 15 16  1  0
 18 19  1  0
 18 22  1  0
 19 20  1  0
 20 21  1  0
 21 22  1  0
 23 24  2  0
 24 25  1  0
 25 26  2  0
M  END
$$$$
