
     RDKit          3D

 26 29  0  0  0  0  0  0  0  0999 V2000
   92.7610   11.6344   46.5447 C   0  0  0  0  0  0  0  0  0  0  0  0
   92.3536   10.8271   45.4950 C   0  0  0  0  0  0  0  0  0  0  0  0
   93.2586   10.2453   44.6221 C   0  0  0  0  0  0  0  0  0  0  0  0
   94.5895   10.4947   44.8293 C   0  0  0  0  0  0  0  0  0  0  0  0
   95.0637   11.2882   45.8538 C   0  0  0  0  0  0  0  0  0  0  0  0
   94.1166   11.8481   46.7013 C   0  0  0  0  0  0  0  0  0  0  0  0
   92.7424    9.4097   43.5447 C   0  0  0  0  0  0  0  0  0  0  0  0
   96.7655   11.5986   46.1074 S   0  0  2  0  0  6  0  0  0  0  0  0
   97.3561   12.6752   44.9051 N   0  0  0  0  0  0  0  0  0  0  0  0
   97.5086   10.2987   46.0681 O   0  0  0  0  0  0  0  0  0  0  0  0
   96.9250   12.2496   47.4376 O   0  0  0  0  0  0  0  0  0  0  0  0
   91.7246    8.4669   43.6573 C   0  0  0  0  0  0  0  0  0  0  0  0
   91.5365    7.9157   42.4816 O   0  0  0  0  0  0  0  0  0  0  0  0
   92.3565    8.4264   41.6008 N   0  0  0  0  0  0  0  0  0  0  0  0
   93.1193    9.3540   42.2178 C   0  0  0  0  0  0  0  0  0  0  0  0
   94.1959   10.2047   41.6332 C   0  0  0  0  0  0  0  0  0  0  0  0
   91.0033    8.1758   44.9341 C   0  0  0  0  0  0  0  0  0  0  0  0
   96.6649   13.9051   44.8393 C   0  0  1  0  0  0  0  0  0  0  0  0
   97.0871   14.9432   45.8210 C   0  0  0  0  0  0  0  0  0  0  0  0
   96.3885   16.1893   45.3178 C   0  0  0  0  0  0  0  0  0  0  0  0
   96.0834   15.9528   43.8562 C   0  0  0  0  0  0  0  0  0  0  0  0
   96.7689   14.6215   43.5188 C   0  0  0  0  0  0  0  0  0  0  0  0
   91.8710   12.1970   47.3903 N   0  0  0  0  0  0  0  0  0  0  0  0
   92.3296   12.9699   48.3885 C   0  0  0  0  0  0  0  0  0  0  0  0
   93.6752   13.2110   48.5832 C   0  0  0  0  0  0  0  0  0  0  0  0
   94.5967   12.6435   47.7279 C   0  0  0  0  0  0  0  0  0  0  0  0
  1  2  2  0
  1  6  1  0
  1 23  1  0
  2  3  1  0
  3  4  2  0
  3  7  1  0
  4  5  1  0
  5  6  2  0
  5  8  1  0
  6 26  1  0
  7 12  2  0
  7 15  1  0
  8  9  1  6
  8 10  2  0
  8 11  2  0
 18  9  1  6
 12 13  1  0
 12 17  1  0
 13 14  1  0
 14 15  2  0
 15 16  1  0
 18 19  1  0
 18 22  1  0
 19 20  1  0
 20 21  1  0
 21 22  1  0
 23 24  2  0
 24 25  1  0
 25 26  2  0
M  END
$$$$
