
     RDKit          3D

 26 29  0  0  0  0  0  0  0  0999 V2000
   95.8388   10.1620   44.8531 C   0  0  0  0  0  0  0  0  0  0  0  0
   94.8907    9.4438   44.1426 C   0  0  0  0  0  0  0  0  0  0  0  0
   93.6093    9.9269   43.9322 C   0  0  0  0  0  0  0  0  0  0  0  0
   93.3010   11.1549   44.4550 C   0  0  0  0  0  0  0  0  0  0  0  0
   94.1960   11.9224   45.1718 C   0  0  0  0  0  0  0  0  0  0  0  0
   95.4672   11.3939   45.3551 C   0  0  0  0  0  0  0  0  0  0  0  0
   92.6751    9.1045   43.1730 C   0  0  0  0  0  0  0  0  0  0  0  0
   93.7897   13.4888   45.8339 S   0  0  2  0  0  6  0  0  0  0  0  0
   92.2545   13.4255   46.6038 N   0  0  0  0  0  0  0  0  0  0  0  0
   93.7885   14.4992   44.7282 O   0  0  0  0  0  0  0  0  0  0  0  0
   94.8128   13.8389   46.8582 O   0  0  0  0  0  0  0  0  0  0  0  0
   91.5263    8.4984   43.6734 C   0  0  0  0  0  0  0  0  0  0  0  0
   90.9432    7.8432   42.6975 O   0  0  0  0  0  0  0  0  0  0  0  0
   91.6241    7.9729   41.5890 N   0  0  0  0  0  0  0  0  0  0  0  0
   92.7024    8.7455   41.8403 C   0  0  0  0  0  0  0  0  0  0  0  0
   93.7734    9.1754   40.8955 C   0  0  0  0  0  0  0  0  0  0  0  0
   91.0829    8.6123   45.0966 C   0  0  0  0  0  0  0  0  0  0  0  0
   92.1887   12.5266   47.6912 C   0  0  1  0  0  0  0  0  0  0  0  0
   92.6055   13.0718   49.0135 C   0  0  0  0  0  0  0  0  0  0  0  0
   92.1585   11.9949   49.9801 C   0  0  0  0  0  0  0  0  0  0  0  0
   91.0762   11.2068   49.2781 C   0  0  0  0  0  0  0  0  0  0  0  0
   90.8189   11.9664   47.9692 C   0  0  0  0  0  0  0  0  0  0  0  0
   97.0853    9.6824   45.0527 N   0  0  0  0  0  0  0  0  0  0  0  0
   97.9587   10.4273   45.7502 C   0  0  0  0  0  0  0  0  0  0  0  0
   97.6313   11.6637   46.2704 C   0  0  0  0  0  0  0  0  0  0  0  0
   96.3621   12.1673   46.0749 C   0  0  0  0  0  0  0  0  0  0  0  0
  1  2  2  0
  1  6  1  0
  1 23  1  0
  2  3  1  0
  3  4  2  0
  3  7  1  0
  4  5  1  0
  5  6  2  0
  5  8  1  0
  6 26  1  0
  7 12  2  0
  7 15  1  0
  8  9  1  1
  8 10  2  0
  8 11  2  0
 18  9  1  6
 12 13  1  0
 12 17  1  0
 13 14  1  0
 14 15  2  0
 15 16  1  0
 18 19  1  0
 18 22  1  0
 19 20  1  0
 20 21  1  0
 21 22  1  0
 23 24  2  0
 24 25  1  0
 25 26  2  0
M  END
$$$$
