
     RDKit          3D

 26 29  0  0  0  0  0  0  0  0999 V2000
   95.2775   12.5409   43.3733 C   0  0  0  0  0  0  0  0  0  0  0  0
   94.5841   11.4196   42.9476 C   0  0  0  0  0  0  0  0  0  0  0  0
   93.7523   10.7052   43.7945 C   0  0  0  0  0  0  0  0  0  0  0  0
   93.6327   11.1459   45.0860 C   0  0  0  0  0  0  0  0  0  0  0  0
   94.2938   12.2539   45.5754 C   0  0  0  0  0  0  0  0  0  0  0  0
   95.1154   12.9354   44.6870 C   0  0  0  0  0  0  0  0  0  0  0  0
   93.0607    9.5371   43.2629 C   0  0  0  0  0  0  0  0  0  0  0  0
   94.1324   12.8061   47.2264 S   0  0  2  0  0  6  0  0  0  0  0  0
   95.3692   12.1206   48.2031 N   0  0  0  0  0  0  0  0  0  0  0  0
   92.7777   12.4228   47.7377 O   0  0  0  0  0  0  0  0  0  0  0  0
   94.2936   14.2867   47.2380 O   0  0  0  0  0  0  0  0  0  0  0  0
   91.9805    8.8875   43.8534 C   0  0  0  0  0  0  0  0  0  0  0  0
   91.6292    7.8829   43.0860 O   0  0  0  0  0  0  0  0  0  0  0  0
   92.3995    7.8223   42.0314 N   0  0  0  0  0  0  0  0  0  0  0  0
   93.2979    8.8276   42.1027 C   0  0  0  0  0  0  0  0  0  0  0  0
   94.3815    9.1706   41.1370 C   0  0  0  0  0  0  0  0  0  0  0  0
   91.3666    9.3120   45.1488 C   0  0  0  0  0  0  0  0  0  0  0  0
   96.6794   12.4684   47.8068 C   0  0  1  0  0  0  0  0  0  0  0  0
   97.7609   12.1510   48.7811 C   0  0  0  0  0  0  0  0  0  0  0  0
   99.0216   12.3675   47.9702 C   0  0  0  0  0  0  0  0  0  0  0  0
   98.6249   12.2518   46.5161 C   0  0  0  0  0  0  0  0  0  0  0  0
   97.1558   11.8073   46.5404 C   0  0  0  0  0  0  0  0  0  0  0  0
   96.0860   13.2305   42.5399 N   0  0  0  0  0  0  0  0  0  0  0  0
   96.7309   14.3094   43.0135 C   0  0  0  0  0  0  0  0  0  0  0  0
   96.5990   14.7402   44.3188 C   0  0  0  0  0  0  0  0  0  0  0  0
   95.7769   14.0464   45.1821 C   0  0  0  0  0  0  0  0  0  0  0  0
  1  2  2  0
  1  6  1  0
  1 23  1  0
  2  3  1  0
  3  4  2  0
  3  7  1  0
  4  5  1  0
  5  6  2  0
  5  8  1  0
  6 26  1  0
  7 12  2  0
  7 15  1  0
  8  9  1  1
  8 10  2  0
  8 11  2  0
 18  9  1  1
 12 13  1  0
 12 17  1  0
 13 14  1  0
 14 15  2  0
 15 16  1  0
 18 19  1  0
 18 22  1  0
 19 20  1  0
 20 21  1  0
 21 22  1  0
 23 24  2  0
 24 25  1  0
 25 26  2  0
M  END
$$$$
