
     RDKit          3D

 26 29  0  0  0  0  0  0  0  0999 V2000
   96.0672   10.8604   44.4314 C   0  0  0  0  0  0  0  0  0  0  0  0
   95.1284   10.1346   43.7163 C   0  0  0  0  0  0  0  0  0  0  0  0
   93.7925   10.1003   44.0823 C   0  0  0  0  0  0  0  0  0  0  0  0
   93.4199   10.8158   45.1893 C   0  0  0  0  0  0  0  0  0  0  0  0
   94.3020   11.5592   45.9464 C   0  0  0  0  0  0  0  0  0  0  0  0
   95.6295   11.5613   45.5382 C   0  0  0  0  0  0  0  0  0  0  0  0
   92.8727    9.3105   43.2726 C   0  0  0  0  0  0  0  0  0  0  0  0
   93.8133   12.4684   47.3576 S   0  0  2  0  0  6  0  0  0  0  0  0
   94.0848   14.1463   47.1036 N   0  0  0  0  0  0  0  0  0  0  0  0
   94.5857   11.9787   48.5438 O   0  0  0  0  0  0  0  0  0  0  0  0
   92.3534   12.2564   47.5631 O   0  0  0  0  0  0  0  0  0  0  0  0
   93.1552    8.7426   42.0336 C   0  0  0  0  0  0  0  0  0  0  0  0
   92.0862    8.1084   41.6134 O   0  0  0  0  0  0  0  0  0  0  0  0
   91.1183    8.2166   42.4855 N   0  0  0  0  0  0  0  0  0  0  0  0
   91.5638    8.9523   43.5261 C   0  0  0  0  0  0  0  0  0  0  0  0
   90.8289    9.3471   44.7624 C   0  0  0  0  0  0  0  0  0  0  0  0
   94.4770    8.8696   41.3467 C   0  0  0  0  0  0  0  0  0  0  0  0
   93.8075   14.5853   45.7902 C   0  0  1  0  0  0  0  0  0  0  0  0
   92.3668   14.7480   45.4478 C   0  0  0  0  0  0  0  0  0  0  0  0
   92.4140   15.4808   44.1232 C   0  0  0  0  0  0  0  0  0  0  0  0
   93.7628   16.1596   44.0531 C   0  0  0  0  0  0  0  0  0  0  0  0
   94.3971   15.9236   45.4309 C   0  0  0  0  0  0  0  0  0  0  0  0
   97.3671   10.8875   44.0665 N   0  0  0  0  0  0  0  0  0  0  0  0
   98.2282   11.6103   44.8016 C   0  0  0  0  0  0  0  0  0  0  0  0
   97.8356   12.3261   45.9151 C   0  0  0  0  0  0  0  0  0  0  0  0
   96.5113   12.3084   46.3006 C   0  0  0  0  0  0  0  0  0  0  0  0
  1  2  2  0
  1  6  1  0
  1 23  1  0
  2  3  1  0
  3  4  2  0
  3  7  1  0
  4  5  1  0
  5  6  2  0
  5  8  1  0
  6 26  1  0
  7 12  2  0
  7 15  1  0
  8  9  1  6
  8 10  2  0
  8 11  2  0
 18  9  1  1
 12 13  1  0
 12 17  1  0
 13 14  1  0
 14 15  2  0
 15 16  1  0
 18 19  1  0
 18 22  1  0
 19 20  1  0
 20 21  1  0
 21 22  1  0
 23 24  2  0
 24 25  1  0
 25 26  2  0
M  END
$$$$
