
     RDKit          3D

 26 29  0  0  0  0  0  0  0  0999 V2000
   94.5409   12.3803   44.1688 C   0  0  0  0  0  0  0  0  0  0  0  0
   93.9286   11.3305   43.5337 C   0  0  0  0  0  0  0  0  0  0  0  0
   92.9104   10.6347   44.1376 C   0  0  0  0  0  0  0  0  0  0  0  0
   92.5328   11.0349   45.4051 C   0  0  0  0  0  0  0  0  0  0  0  0
   93.0990   12.0802   46.1135 C   0  0  0  0  0  0  0  0  0  0  0  0
   94.1253   12.7495   45.4497 C   0  0  0  0  0  0  0  0  0  0  0  0
   92.2617    9.5199   43.4580 C   0  0  0  0  0  0  0  0  0  0  0  0
   92.5381   12.3797   47.6907 S   0  0  2  0  0  6  0  0  0  0  0  0
   91.8750   13.9687   47.8235 N   0  0  0  0  0  0  0  0  0  0  0  0
   93.7120   12.3750   48.6381 O   0  0  0  0  0  0  0  0  0  0  0  0
   91.5602   11.4766   48.3013 O   0  0  0  0  0  0  0  0  0  0  0  0
   92.7572    8.8106   42.3966 C   0  0  0  0  0  0  0  0  0  0  0  0
   91.8595    7.8800   42.0760 O   0  0  0  0  0  0  0  0  0  0  0  0
   90.8353    7.9524   42.8585 N   0  0  0  0  0  0  0  0  0  0  0  0
   91.0389    8.9714   43.7493 C   0  0  0  0  0  0  0  0  0  0  0  0
   90.1052    9.3850   44.8147 C   0  0  0  0  0  0  0  0  0  0  0  0
   94.0313    8.9907   41.6967 C   0  0  0  0  0  0  0  0  0  0  0  0
   90.5758   14.0667   47.2596 C   0  0  1  0  0  0  0  0  0  0  0  0
   89.6008   14.8443   48.1118 C   0  0  0  0  0  0  0  0  0  0  0  0
   89.9944   16.2810   47.7591 C   0  0  0  0  0  0  0  0  0  0  0  0
   90.0114   16.2079   46.2515 C   0  0  0  0  0  0  0  0  0  0  0  0
   90.5315   14.8389   45.9625 C   0  0  0  0  0  0  0  0  0  0  0  0
   95.5344   13.0897   43.5950 N   0  0  0  0  0  0  0  0  0  0  0  0
   96.1267   14.1304   44.2142 C   0  0  0  0  0  0  0  0  0  0  0  0
   95.7378   14.5173   45.4721 C   0  0  0  0  0  0  0  0  0  0  0  0
   94.7097   13.8069   46.1041 C   0  0  0  0  0  0  0  0  0  0  0  0
  1  2  2  0
  1  6  1  0
  1 23  1  0
  2  3  1  0
  3  4  2  0
  3  7  1  0
  4  5  1  0
  5  6  2  0
  5  8  1  0
  6 26  1  0
  7 12  2  0
  7 15  1  0
  8  9  1  6
  8 10  2  0
  8 11  2  0
 18  9  1  1
 12 13  1  0
 17 12  1  6
 13 14  1  0
 14 15  2  0
 16 15  1  6
 19 18  1  1
 18 22  1  0
 20 19  1  1
 21 20  1  1
 22 21  1  6
 23 24  2  0
 24 25  1  0
 25 26  2  0
M  END
$$$$
