
     RDKit          3D

 26 29  0  0  0  0  0  0  0  0999 V2000
   93.1436   12.3712   45.6362 C   0  0  0  0  0  0  0  0  0  0  0  0
   92.6840   11.4985   44.6836 C   0  0  0  0  0  0  0  0  0  0  0  0
   93.4072   10.3837   44.3373 C   0  0  0  0  0  0  0  0  0  0  0  0
   94.6107   10.1814   44.9855 C   0  0  0  0  0  0  0  0  0  0  0  0
   95.1445   11.0125   45.9548 C   0  0  0  0  0  0  0  0  0  0  0  0
   94.3657   12.1256   46.2653 C   0  0  0  0  0  0  0  0  0  0  0  0
   92.9140    9.4581   43.3248 C   0  0  0  0  0  0  0  0  0  0  0  0
   96.6733   10.6266   46.5917 S   0  0  2  0  0  6  0  0  0  0  0  0
   97.7379   11.9845   46.5189 N   0  0  0  0  0  0  0  0  0  0  0  0
   97.3217    9.5851   45.7141 O   0  0  0  0  0  0  0  0  0  0  0  0
   96.7841   10.0931   47.9509 O   0  0  0  0  0  0  0  0  0  0  0  0
   91.7561    8.7291   43.3794 C   0  0  0  0  0  0  0  0  0  0  0  0
   91.6754    8.0114   42.2599 O   0  0  0  0  0  0  0  0  0  0  0  0
   92.6983    8.2359   41.5052 N   0  0  0  0  0  0  0  0  0  0  0  0
   93.5110    9.1420   42.1311 C   0  0  0  0  0  0  0  0  0  0  0  0
   94.7854    9.6666   41.6032 C   0  0  0  0  0  0  0  0  0  0  0  0
   90.7491    8.6982   44.4427 C   0  0  0  0  0  0  0  0  0  0  0  0
   98.1138   12.3124   45.1897 C   0  0  1  0  0  0  0  0  0  0  0  0
   97.4743   13.5794   44.6726 C   0  0  0  0  0  0  0  0  0  0  0  0
   98.3729   14.6378   45.3172 C   0  0  0  0  0  0  0  0  0  0  0  0
   99.7391   14.1077   44.9551 C   0  0  0  0  0  0  0  0  0  0  0  0
   99.5829   12.6251   45.0318 C   0  0  0  0  0  0  0  0  0  0  0  0
   92.4488   13.4668   46.0055 N   0  0  0  0  0  0  0  0  0  0  0  0
   92.8944   14.3171   46.9519 C   0  0  0  0  0  0  0  0  0  0  0  0
   94.0907   14.1002   47.5885 C   0  0  0  0  0  0  0  0  0  0  0  0
   94.8439   12.9741   47.2345 C   0  0  0  0  0  0  0  0  0  0  0  0
  1  2  2  0
  1  6  1  0
  1 23  1  0
  2  3  1  0
  3  4  2  0
  3  7  1  0
  4  5  1  0
  5  6  2  0
  5  8  1  0
  6 26  1  0
  7 12  2  0
  7 15  1  0
  8  9  1  1
  8 10  2  0
  8 11  2  0
 18  9  1  1
 12 13  1  0
 17 12  1  6
 13 14  1  0
 14 15  2  0
 16 15  1  6
 19 18  1  1
 18 22  1  0
 20 19  1  1
 21 20  1  1
 22 21  1  6
 23 24  2  0
 24 25  1  0
 25 26  2  0
M  END
$$$$
