
     RDKit          3D

 26 29  0  0  0  0  0  0  0  0999 V2000
   93.2669   13.3485   44.1967 C   0  0  0  0  0  0  0  0  0  0  0  0
   92.7267   12.2241   43.6275 C   0  0  0  0  0  0  0  0  0  0  0  0
   93.1008   10.9703   44.0443 C   0  0  0  0  0  0  0  0  0  0  0  0
   94.0399   10.8915   45.0548 C   0  0  0  0  0  0  0  0  0  0  0  0
   94.6328   11.9748   45.6794 C   0  0  0  0  0  0  0  0  0  0  0  0
   94.2127   13.2199   45.2158 C   0  0  0  0  0  0  0  0  0  0  0  0
   92.5229    9.7777   43.4368 C   0  0  0  0  0  0  0  0  0  0  0  0
   95.8172   11.6722   46.8615 S   0  0  2  0  0  6  0  0  0  0  0  0
   96.8711   10.3943   46.3728 N   0  0  0  0  0  0  0  0  0  0  0  0
   95.1444   11.1566   48.1093 O   0  0  0  0  0  0  0  0  0  0  0  0
   96.6815   12.7602   47.3240 O   0  0  0  0  0  0  0  0  0  0  0  0
   92.7828    9.2921   42.1831 C   0  0  0  0  0  0  0  0  0  0  0  0
   92.0542    8.1894   42.0160 O   0  0  0  0  0  0  0  0  0  0  0  0
   91.3549    7.9460   43.0735 N   0  0  0  0  0  0  0  0  0  0  0  0
   91.6141    8.9190   44.0005 C   0  0  0  0  0  0  0  0  0  0  0  0
   91.0171    9.0083   45.3473 C   0  0  0  0  0  0  0  0  0  0  0  0
   93.6841    9.8365   41.1647 C   0  0  0  0  0  0  0  0  0  0  0  0
   97.6191   10.7183   45.2105 C   0  0  1  0  0  0  0  0  0  0  0  0
   99.0711   11.0275   45.4892 C   0  0  0  0  0  0  0  0  0  0  0  0
   99.6463    9.6143   45.6133 C   0  0  0  0  0  0  0  0  0  0  0  0
   99.0871    8.9707   44.3677 C   0  0  0  0  0  0  0  0  0  0  0  0
   97.7327    9.5814   44.2228 C   0  0  0  0  0  0  0  0  0  0  0  0
   92.9088   14.5922   43.8166 N   0  0  0  0  0  0  0  0  0  0  0  0
   93.4299   15.6974   44.3860 C   0  0  0  0  0  0  0  0  0  0  0  0
   94.3597   15.6019   45.3909 C   0  0  0  0  0  0  0  0  0  0  0  0
   94.7595   14.3287   45.8154 C   0  0  0  0  0  0  0  0  0  0  0  0
  1  2  2  0
  1  6  1  0
  1 23  1  0
  2  3  1  0
  3  4  2  0
  3  7  1  0
  4  5  1  0
  5  6  2  0
  5  8  1  0
  6 26  1  0
  7 12  2  0
  7 15  1  0
  8  9  1  6
  8 10  2  0
  8 11  2  0
 18  9  1  1
 12 13  1  0
 17 12  1  6
 13 14  1  0
 14 15  2  0
 16 15  1  6
 19 18  1  1
 18 22  1  0
 20 19  1  1
 21 20  1  1
 22 21  1  6
 23 24  2  0
 24 25  1  0
 25 26  2  0
M  END
$$$$
