
     RDKit          3D

 26 29  0  0  0  0  0  0  0  0999 V2000
   96.0874   10.4232   44.5593 C   0  0  0  0  0  0  0  0  0  0  0  0
   95.1189    9.7926   43.8212 C   0  0  0  0  0  0  0  0  0  0  0  0
   93.7901   10.0925   43.9938 C   0  0  0  0  0  0  0  0  0  0  0  0
   93.4731   11.0501   44.9382 C   0  0  0  0  0  0  0  0  0  0  0  0
   94.3878   11.7302   45.7230 C   0  0  0  0  0  0  0  0  0  0  0  0
   95.7197   11.3851   45.5022 C   0  0  0  0  0  0  0  0  0  0  0  0
   92.7640    9.4202   43.2060 C   0  0  0  0  0  0  0  0  0  0  0  0
   93.7963   12.8301   46.8772 S   0  0  2  0  0  6  0  0  0  0  0  0
   93.8320   14.4467   46.2708 N   0  0  0  0  0  0  0  0  0  0  0  0
   94.7287   12.8459   48.0629 O   0  0  0  0  0  0  0  0  0  0  0  0
   92.4629   12.6386   47.4515 O   0  0  0  0  0  0  0  0  0  0  0  0
   91.6004    8.8732   43.6771 C   0  0  0  0  0  0  0  0  0  0  0  0
   90.9442    8.3587   42.6381 O   0  0  0  0  0  0  0  0  0  0  0  0
   91.6104    8.5424   41.5477 N   0  0  0  0  0  0  0  0  0  0  0  0
   92.7673    9.2080   41.8510 C   0  0  0  0  0  0  0  0  0  0  0  0
   93.8084    9.6118   40.8861 C   0  0  0  0  0  0  0  0  0  0  0  0
   91.1086    8.8282   45.0561 C   0  0  0  0  0  0  0  0  0  0  0  0
   92.6707   14.7748   45.5231 C   0  0  1  0  0  0  0  0  0  0  0  0
   91.7630   15.7649   46.2141 C   0  0  0  0  0  0  0  0  0  0  0  0
   92.4828   17.0794   45.9026 C   0  0  0  0  0  0  0  0  0  0  0  0
   92.6947   16.9405   44.4146 C   0  0  0  0  0  0  0  0  0  0  0  0
   92.9639   15.4848   44.2228 C   0  0  0  0  0  0  0  0  0  0  0  0
   97.4006   10.1583   44.4018 N   0  0  0  0  0  0  0  0  0  0  0  0
   98.3532   10.7884   45.1179 C   0  0  0  0  0  0  0  0  0  0  0  0
   98.0219   11.7395   46.0500 C   0  0  0  0  0  0  0  0  0  0  0  0
   96.6692   12.0444   46.2451 C   0  0  0  0  0  0  0  0  0  0  0  0
  1  2  2  0
  1  6  1  0
  1 23  1  0
  2  3  1  0
  3  4  2  0
  3  7  1  0
  4  5  1  0
  5  6  2  0
  5  8  1  0
  6 26  1  0
  7 12  2  0
  7 15  1  0
  8  9  1  6
  8 10  2  0
  8 11  2  0
 18  9  1  1
 12 13  1  0
 17 12  1  6
 13 14  1  0
 14 15  2  0
 16 15  1  6
 19 18  1  1
 18 22  1  0
 20 19  1  1
 21 20  1  1
 22 21  1  6
 23 24  2  0
 24 25  1  0
 25 26  2  0
M  END
$$$$
