
     RDKit          3D

 26 29  0  0  0  0  0  0  0  0999 V2000
   96.0345   10.1124   44.6116 C   0  0  0  0  0  0  0  0  0  0  0  0
   94.9667    9.5147   43.9619 C   0  0  0  0  0  0  0  0  0  0  0  0
   93.7437   10.1503   43.8212 C   0  0  0  0  0  0  0  0  0  0  0  0
   93.6176   11.4071   44.3513 C   0  0  0  0  0  0  0  0  0  0  0  0
   94.6392   12.0602   45.0100 C   0  0  0  0  0  0  0  0  0  0  0  0
   95.8450   11.3808   45.1246 C   0  0  0  0  0  0  0  0  0  0  0  0
   92.6742    9.4475   43.1229 C   0  0  0  0  0  0  0  0  0  0  0  0
   94.4653   13.6649   45.6822 S   0  0  2  0  0  6  0  0  0  0  0  0
   92.8774   14.2569   45.3966 N   0  0  0  0  0  0  0  0  0  0  0  0
   95.4881   14.5661   45.0616 O   0  0  0  0  0  0  0  0  0  0  0  0
   94.6740   13.5761   47.1542 O   0  0  0  0  0  0  0  0  0  0  0  0
   92.6069    9.2162   41.7519 C   0  0  0  0  0  0  0  0  0  0  0  0
   91.5025    8.5559   41.4954 O   0  0  0  0  0  0  0  0  0  0  0  0
   90.8357    8.3345   42.5979 N   0  0  0  0  0  0  0  0  0  0  0  0
   91.5262    8.8698   43.6272 C   0  0  0  0  0  0  0  0  0  0  0  0
   91.1727    8.8742   45.0761 C   0  0  0  0  0  0  0  0  0  0  0  0
   93.6516    9.6701   40.7835 C   0  0  0  0  0  0  0  0  0  0  0  0
   91.8696   13.5848   46.1226 C   0  0  1  0  0  0  0  0  0  0  0  0
   91.6137   14.0880   47.5013 C   0  0  0  0  0  0  0  0  0  0  0  0
   90.3317   13.3802   47.8878 C   0  0  0  0  0  0  0  0  0  0  0  0
   89.6554   12.9767   46.5975 C   0  0  0  0  0  0  0  0  0  0  0  0
   90.5038   13.6153   45.4890 C   0  0  0  0  0  0  0  0  0  0  0  0
   97.2227    9.4845   44.7435 N   0  0  0  0  0  0  0  0  0  0  0  0
   98.2190   10.1178   45.3843 C   0  0  0  0  0  0  0  0  0  0  0  0
   98.0749   11.3852   45.9129 C   0  0  0  0  0  0  0  0  0  0  0  0
   96.8673   12.0397   45.7862 C   0  0  0  0  0  0  0  0  0  0  0  0
  1  2  2  0
  1  6  1  0
  1 23  1  0
  2  3  1  0
  3  4  2  0
  3  7  1  0
  4  5  1  0
  5  6  2  0
  5  8  1  0
  6 26  1  0
  7 12  2  0
  7 15  1  0
  8  9  1  1
  8 10  2  0
  8 11  2  0
 18  9  1  6
 12 13  1  0
 12 17  1  0
 13 14  1  0
 14 15  2  0
 15 16  1  0
 18 19  1  0
 18 22  1  0
 19 20  1  0
 20 21  1  0
 21 22  1  0
 23 24  2  0
 24 25  1  0
 25 26  2  0
M  END
$$$$
