
     RDKit          3D

 26 29  0  0  0  0  0  0  0  0999 V2000
   95.9266   10.3401   44.6552 C   0  0  0  0  0  0  0  0  0  0  0  0
   94.9935    9.5793   43.9988 C   0  0  0  0  0  0  0  0  0  0  0  0
   93.7504   10.0827   43.7041 C   0  0  0  0  0  0  0  0  0  0  0  0
   93.4820   11.3803   44.0960 C   0  0  0  0  0  0  0  0  0  0  0  0
   94.3657   12.2118   44.7615 C   0  0  0  0  0  0  0  0  0  0  0  0
   95.6107   11.6471   45.0315 C   0  0  0  0  0  0  0  0  0  0  0  0
   92.7620    9.2704   43.0052 C   0  0  0  0  0  0  0  0  0  0  0  0
   93.8264   13.7590   45.2164 S   0  0  2  0  0  6  0  0  0  0  0  0
   92.3119   13.6718   46.0417 N   0  0  0  0  0  0  0  0  0  0  0  0
   93.5384   14.5633   43.9732 O   0  0  0  0  0  0  0  0  0  0  0  0
   94.6859   14.6215   46.0300 O   0  0  0  0  0  0  0  0  0  0  0  0
   91.6091    8.7534   43.5331 C   0  0  0  0  0  0  0  0  0  0  0  0
   90.9894    8.0754   42.5681 O   0  0  0  0  0  0  0  0  0  0  0  0
   91.6687    8.1283   41.4717 N   0  0  0  0  0  0  0  0  0  0  0  0
   92.7969    8.8708   41.6936 C   0  0  0  0  0  0  0  0  0  0  0  0
   93.8412    9.1724   40.6954 C   0  0  0  0  0  0  0  0  0  0  0  0
   91.0941    8.8844   44.8981 C   0  0  0  0  0  0  0  0  0  0  0  0
   92.3968   12.9533   47.2632 C   0  0  1  0  0  0  0  0  0  0  0  0
   92.8286   13.8000   48.4372 C   0  0  0  0  0  0  0  0  0  0  0  0
   91.5093   14.4896   48.7938 C   0  0  0  0  0  0  0  0  0  0  0  0
   90.5733   13.3061   48.8348 C   0  0  0  0  0  0  0  0  0  0  0  0
   91.0712   12.4144   47.7462 C   0  0  0  0  0  0  0  0  0  0  0  0
   97.1595    9.8764   44.9461 N   0  0  0  0  0  0  0  0  0  0  0  0
   98.0812   10.6294   45.5791 C   0  0  0  0  0  0  0  0  0  0  0  0
   97.7998   11.9177   45.9590 C   0  0  0  0  0  0  0  0  0  0  0  0
   96.5308   12.4380   45.6763 C   0  0  0  0  0  0  0  0  0  0  0  0
  1  2  2  0
  1  6  1  0
  1 23  1  0
  2  3  1  0
  3  4  2  0
  3  7  1  0
  4  5  1  0
  5  6  2  0
  5  8  1  0
  6 26  1  0
  7 12  2  0
  7 15  1  0
  8  9  1  1
  8 10  2  0
  8 11  2  0
 18  9  1  6
 12 13  1  0
 17 12  1  6
 13 14  1  0
 14 15  2  0
 16 15  1  6
 19 18  1  1
 18 22  1  0
 20 19  1  1
 21 20  1  1
 22 21  1  6
 23 24  2  0
 24 25  1  0
 25 26  2  0
M  END
$$$$
