
     RDKit          3D

 26 29  0  0  0  0  0  0  0  0999 V2000
   95.9845   10.5672   44.9049 C   0  0  0  0  0  0  0  0  0  0  0  0
   95.0790    9.7182   44.3221 C   0  0  0  0  0  0  0  0  0  0  0  0
   93.8130   10.1442   44.0034 C   0  0  0  0  0  0  0  0  0  0  0  0
   93.4930   11.4565   44.2944 C   0  0  0  0  0  0  0  0  0  0  0  0
   94.3462   12.3746   44.8812 C   0  0  0  0  0  0  0  0  0  0  0  0
   95.6164   11.8857   45.1802 C   0  0  0  0  0  0  0  0  0  0  0  0
   92.8541    9.2382   43.3830 C   0  0  0  0  0  0  0  0  0  0  0  0
   93.7455   13.9293   45.2185 S   0  0  2  0  0  6  0  0  0  0  0  0
   93.1488   14.0278   46.8362 N   0  0  0  0  0  0  0  0  0  0  0  0
   92.5397   14.1885   44.3500 O   0  0  0  0  0  0  0  0  0  0  0  0
   94.6036   15.1006   45.0277 O   0  0  0  0  0  0  0  0  0  0  0  0
   91.7120    8.7426   43.9532 C   0  0  0  0  0  0  0  0  0  0  0  0
   91.1201    7.9546   43.0568 O   0  0  0  0  0  0  0  0  0  0  0  0
   91.8068    7.9186   41.9643 N   0  0  0  0  0  0  0  0  0  0  0  0
   92.9114    8.7120   42.1177 C   0  0  0  0  0  0  0  0  0  0  0  0
   93.9550    8.9437   41.1003 C   0  0  0  0  0  0  0  0  0  0  0  0
   91.1821    8.9929   45.2956 C   0  0  0  0  0  0  0  0  0  0  0  0
   93.1699   12.7745   47.5028 C   0  0  1  0  0  0  0  0  0  0  0  0
   94.4892   12.0478   47.3882 C   0  0  0  0  0  0  0  0  0  0  0  0
   95.3081   12.7695   48.4614 C   0  0  0  0  0  0  0  0  0  0  0  0
   94.3522   12.7191   49.6285 C   0  0  0  0  0  0  0  0  0  0  0  0
   93.0073   12.8785   49.0006 C   0  0  0  0  0  0  0  0  0  0  0  0
   97.2384   10.1802   45.2168 N   0  0  0  0  0  0  0  0  0  0  0  0
   98.1327   11.0190   45.7770 C   0  0  0  0  0  0  0  0  0  0  0  0
   97.8000   12.3207   46.0570 C   0  0  0  0  0  0  0  0  0  0  0  0
   96.5075   12.7633   45.7492 C   0  0  0  0  0  0  0  0  0  0  0  0
  1  2  2  0
  1  6  1  0
  1 23  1  0
  2  3  1  0
  3  4  2  0
  3  7  1  0
  4  5  1  0
  5  6  2  0
  5  8  1  0
  6 26  1  0
  7 12  2  0
  7 15  1  0
  8  9  1  1
  8 10  2  0
  8 11  2  0
 18  9  1  6
 12 13  1  0
 17 12  1  6
 13 14  1  0
 14 15  2  0
 16 15  1  6
 19 18  1  1
 18 22  1  0
 20 19  1  1
 21 20  1  1
 22 21  1  6
 23 24  2  0
 24 25  1  0
 25 26  2  0
M  END
$$$$
