
     RDKit          3D

 26 29  0  0  0  0  0  0  0  0999 V2000
   92.3118   11.5775   46.3838 C   0  0  0  0  0  0  0  0  0  0  0  0
   91.9690   10.7667   45.3139 C   0  0  0  0  0  0  0  0  0  0  0  0
   92.9186   10.2668   44.4376 C   0  0  0  0  0  0  0  0  0  0  0  0
   94.2276   10.6021   44.6623 C   0  0  0  0  0  0  0  0  0  0  0  0
   94.6382   11.4043   45.7073 C   0  0  0  0  0  0  0  0  0  0  0  0
   93.6483   11.8800   46.5574 C   0  0  0  0  0  0  0  0  0  0  0  0
   92.4693    9.4208   43.3385 C   0  0  0  0  0  0  0  0  0  0  0  0
   96.3127   11.8249   45.9831 S   0  0  2  0  0  6  0  0  0  0  0  0
   96.4700   13.5241   46.1866 N   0  0  0  0  0  0  0  0  0  0  0  0
   97.1313   11.3506   44.8219 O   0  0  0  0  0  0  0  0  0  0  0  0
   96.7570   11.1600   47.2396 O   0  0  0  0  0  0  0  0  0  0  0  0
   91.4699    8.4544   43.4064 C   0  0  0  0  0  0  0  0  0  0  0  0
   91.3460    7.9006   42.2234 O   0  0  0  0  0  0  0  0  0  0  0  0
   92.1914    8.4315   41.3794 N   0  0  0  0  0  0  0  0  0  0  0  0
   92.9048    9.3757   42.0292 C   0  0  0  0  0  0  0  0  0  0  0  0
   93.9856   10.2521   41.4924 C   0  0  0  0  0  0  0  0  0  0  0  0
   90.7008    8.1448   44.6505 C   0  0  0  0  0  0  0  0  0  0  0  0
   96.0499   14.2822   45.0715 C   0  0  1  0  0  0  0  0  0  0  0  0
   94.5975   14.2142   44.7470 C   0  0  0  0  0  0  0  0  0  0  0  0
   94.4264   15.3198   43.7262 C   0  0  0  0  0  0  0  0  0  0  0  0
   95.5831   16.2728   43.9237 C   0  0  0  0  0  0  0  0  0  0  0  0
   96.3074   15.7621   45.1771 C   0  0  0  0  0  0  0  0  0  0  0  0
   91.3787   12.0599   47.2324 N   0  0  0  0  0  0  0  0  0  0  0  0
   91.7754   12.8410   48.2506 C   0  0  0  0  0  0  0  0  0  0  0  0
   93.0997   13.1694   48.4627 C   0  0  0  0  0  0  0  0  0  0  0  0
   94.0646   12.6845   47.6046 C   0  0  0  0  0  0  0  0  0  0  0  0
  1  2  2  0
  1  6  1  0
  1 23  1  0
  2  3  1  0
  3  4  2  0
  3  7  1  0
  4  5  1  0
  5  6  2  0
  5  8  1  0
  6 26  1  0
  7 12  2  0
  7 15  1  0
  8  9  1  1
  8 10  2  0
  8 11  2  0
 18  9  1  1
 12 13  1  0
 12 17  1  0
 13 14  1  0
 14 15  2  0
 15 16  1  0
 18 19  1  0
 18 22  1  0
 19 20  1  0
 20 21  1  0
 21 22  1  0
 23 24  2  0
 24 25  1  0
 25 26  2  0
M  END
$$$$
