
     RDKit          3D

 26 29  0  0  0  0  0  0  0  0999 V2000
   95.9585   10.3900   44.4248 C   0  0  0  0  0  0  0  0  0  0  0  0
   95.0404    9.6872   43.6614 C   0  0  0  0  0  0  0  0  0  0  0  0
   93.6741    9.8629   43.8101 C   0  0  0  0  0  0  0  0  0  0  0  0
   93.2494   10.7660   44.7484 C   0  0  0  0  0  0  0  0  0  0  0  0
   94.1084   11.4987   45.5417 C   0  0  0  0  0  0  0  0  0  0  0  0
   95.4680   11.2862   45.3543 C   0  0  0  0  0  0  0  0  0  0  0  0
   92.7794    9.0816   42.9648 C   0  0  0  0  0  0  0  0  0  0  0  0
   93.5532   12.6486   46.7361 S   0  0  2  0  0  6  0  0  0  0  0  0
   94.3197   14.1678   46.4957 N   0  0  0  0  0  0  0  0  0  0  0  0
   93.8515   12.1132   48.1028 O   0  0  0  0  0  0  0  0  0  0  0  0
   92.0859   12.8311   46.5571 O   0  0  0  0  0  0  0  0  0  0  0  0
   92.8660    8.9535   41.5815 C   0  0  0  0  0  0  0  0  0  0  0  0
   91.8919    8.1744   41.1743 O   0  0  0  0  0  0  0  0  0  0  0  0
   91.1685    7.7788   42.1888 N   0  0  0  0  0  0  0  0  0  0  0  0
   91.6839    8.3177   43.3143 C   0  0  0  0  0  0  0  0  0  0  0  0
   91.2073    8.1594   44.7187 C   0  0  0  0  0  0  0  0  0  0  0  0
   93.9177    9.6184   40.7527 C   0  0  0  0  0  0  0  0  0  0  0  0
   94.1422   14.7078   45.2028 C   0  0  1  0  0  0  0  0  0  0  0  0
   92.7734   15.2034   44.8858 C   0  0  0  0  0  0  0  0  0  0  0  0
   92.9781   15.9568   43.5880 C   0  0  0  0  0  0  0  0  0  0  0  0
   94.4449   16.3170   43.5245 C   0  0  0  0  0  0  0  0  0  0  0  0
   95.0163   15.8919   44.8843 C   0  0  0  0  0  0  0  0  0  0  0  0
   97.2883   10.2115   44.2724 N   0  0  0  0  0  0  0  0  0  0  0  0
   98.1269   10.9234   45.0432 C   0  0  0  0  0  0  0  0  0  0  0  0
   97.6818   11.8300   45.9847 C   0  0  0  0  0  0  0  0  0  0  0  0
   96.3264   12.0235   46.1523 C   0  0  0  0  0  0  0  0  0  0  0  0
  1  2  2  0
  1  6  1  0
  1 23  1  0
  2  3  1  0
  3  4  2  0
  3  7  1  0
  4  5  1  0
  5  6  2  0
  5  8  1  0
  6 26  1  0
  7 12  2  0
  7 15  1  0
  8  9  1  6
  8 10  2  0
  8 11  2  0
 18  9  1  1
 12 13  1  0
 12 17  1  0
 13 14  1  0
 14 15  2  0
 15 16  1  0
 18 19  1  0
 18 22  1  0
 19 20  1  0
 20 21  1  0
 21 22  1  0
 23 24  2  0
 24 25  1  0
 25 26  2  0
M  END
$$$$
