
     RDKit          3D

 26 29  0  0  0  0  0  0  0  0999 V2000
   94.2682   12.8597   43.9414 C   0  0  0  0  0  0  0  0  0  0  0  0
   93.7107   11.7285   43.4032 C   0  0  0  0  0  0  0  0  0  0  0  0
   93.1800   10.7497   44.2070 C   0  0  0  0  0  0  0  0  0  0  0  0
   93.2329   10.9525   45.5728 C   0  0  0  0  0  0  0  0  0  0  0  0
   93.7779   12.0624   46.1942 C   0  0  0  0  0  0  0  0  0  0  0  0
   94.2989   13.0216   45.3280 C   0  0  0  0  0  0  0  0  0  0  0  0
   92.5874    9.5492   43.6301 C   0  0  0  0  0  0  0  0  0  0  0  0
   93.8061   12.0995   47.8941 S   0  0  2  0  0  6  0  0  0  0  0  0
   94.5402   13.5518   48.4722 N   0  0  0  0  0  0  0  0  0  0  0  0
   94.7016   10.9934   48.3941 O   0  0  0  0  0  0  0  0  0  0  0  0
   92.5605   11.9431   48.6482 O   0  0  0  0  0  0  0  0  0  0  0  0
   91.4657    8.8993   44.0714 C   0  0  0  0  0  0  0  0  0  0  0  0
   91.2629    7.8524   43.2728 O   0  0  0  0  0  0  0  0  0  0  0  0
   92.1754    7.7966   42.3614 N   0  0  0  0  0  0  0  0  0  0  0  0
   93.0363    8.8451   42.5422 C   0  0  0  0  0  0  0  0  0  0  0  0
   94.2189    9.1433   41.7111 C   0  0  0  0  0  0  0  0  0  0  0  0
   90.6030    9.2398   45.2051 C   0  0  0  0  0  0  0  0  0  0  0  0
   93.6028   14.6028   48.6521 C   0  0  1  0  0  0  0  0  0  0  0  0
   93.9264   15.5132   49.8131 C   0  0  0  0  0  0  0  0  0  0  0  0
   94.9952   16.4107   49.1844 C   0  0  0  0  0  0  0  0  0  0  0  0
   94.3131   16.8038   47.8965 C   0  0  0  0  0  0  0  0  0  0  0  0
   93.5552   15.5799   47.5015 C   0  0  0  0  0  0  0  0  0  0  0  0
   94.7849   13.8431   43.1762 N   0  0  0  0  0  0  0  0  0  0  0  0
   95.3205   14.9613   43.7053 C   0  0  0  0  0  0  0  0  0  0  0  0
   95.3626   15.1488   45.0641 C   0  0  0  0  0  0  0  0  0  0  0  0
   94.8370   14.1516   45.8950 C   0  0  0  0  0  0  0  0  0  0  0  0
  1  2  2  0
  1  6  1  0
  1 23  1  0
  2  3  1  0
  3  4  2  0
  3  7  1  0
  4  5  1  0
  5  6  2  0
  5  8  1  0
  6 26  1  0
  7 12  2  0
  7 15  1  0
  8  9  1  6
  8 10  2  0
  8 11  2  0
 18  9  1  6
 12 13  1  0
 17 12  1  6
 13 14  1  0
 14 15  2  0
 16 15  1  6
 19 18  1  1
 18 22  1  0
 20 19  1  1
 21 20  1  1
 22 21  1  6
 23 24  2  0
 24 25  1  0
 25 26  2  0
M  END
$$$$
