
     RDKit          3D

 26 29  0  0  0  0  0  0  0  0999 V2000
   95.9152   10.5152   44.5582 C   0  0  0  0  0  0  0  0  0  0  0  0
   95.0056    9.8104   43.7865 C   0  0  0  0  0  0  0  0  0  0  0  0
   93.6403   10.0274   43.8792 C   0  0  0  0  0  0  0  0  0  0  0  0
   93.2078   10.9740   44.7699 C   0  0  0  0  0  0  0  0  0  0  0  0
   94.0582   11.7113   45.5682 C   0  0  0  0  0  0  0  0  0  0  0  0
   95.4172   11.4564   45.4378 C   0  0  0  0  0  0  0  0  0  0  0  0
   92.7547    9.2407   43.0293 C   0  0  0  0  0  0  0  0  0  0  0  0
   93.4931   12.9170   46.7014 S   0  0  2  0  0  6  0  0  0  0  0  0
   94.2797   14.4170   46.4105 N   0  0  0  0  0  0  0  0  0  0  0  0
   93.7605   12.4382   48.0952 O   0  0  0  0  0  0  0  0  0  0  0  0
   92.0313   13.1058   46.4871 O   0  0  0  0  0  0  0  0  0  0  0  0
   91.6550    8.5022   43.4564 C   0  0  0  0  0  0  0  0  0  0  0  0
   91.1060    7.9311   42.4105 O   0  0  0  0  0  0  0  0  0  0  0  0
   91.7639    8.2392   41.3236 N   0  0  0  0  0  0  0  0  0  0  0  0
   92.7908    9.0474   41.6628 C   0  0  0  0  0  0  0  0  0  0  0  0
   93.8196    9.6596   40.7734 C   0  0  0  0  0  0  0  0  0  0  0  0
   91.2213    8.4136   44.8844 C   0  0  0  0  0  0  0  0  0  0  0  0
   93.9354   15.0226   45.1820 C   0  0  1  0  0  0  0  0  0  0  0  0
   92.6689   15.8072   45.1745 C   0  0  0  0  0  0  0  0  0  0  0  0
   92.7324   16.5403   43.8507 C   0  0  0  0  0  0  0  0  0  0  0  0
   94.1894   16.5827   43.4501 C   0  0  0  0  0  0  0  0  0  0  0  0
   94.9478   16.0036   44.6524 C   0  0  0  0  0  0  0  0  0  0  0  0
   97.2441   10.2962   44.4604 N   0  0  0  0  0  0  0  0  0  0  0  0
   98.0743   11.0124   45.2364 C   0  0  0  0  0  0  0  0  0  0  0  0
   97.6214   11.9632   46.1294 C   0  0  0  0  0  0  0  0  0  0  0  0
   96.2668   12.1984   46.2407 C   0  0  0  0  0  0  0  0  0  0  0  0
  1  2  2  0
  1  6  1  0
  1 23  1  0
  2  3  1  0
  3  4  2  0
  3  7  1  0
  4  5  1  0
  5  6  2  0
  5  8  1  0
  6 26  1  0
  7 12  2  0
  7 15  1  0
  8  9  1  6
  8 10  2  0
  8 11  2  0
 18  9  1  1
 12 13  1  0
 12 17  1  0
 13 14  1  0
 14 15  2  0
 15 16  1  0
 18 19  1  0
 18 22  1  0
 19 20  1  0
 20 21  1  0
 21 22  1  0
 23 24  2  0
 24 25  1  0
 25 26  2  0
M  END
$$$$
