
     RDKit          3D

 26 29  0  0  0  0  0  0  0  0999 V2000
   96.3072    9.8629   44.6481 C   0  0  0  0  0  0  0  0  0  0  0  0
   95.1869    9.4010   43.9763 C   0  0  0  0  0  0  0  0  0  0  0  0
   94.0645   10.1916   43.7901 C   0  0  0  0  0  0  0  0  0  0  0  0
   94.0939   11.4638   44.2971 C   0  0  0  0  0  0  0  0  0  0  0  0
   95.1755   11.9869   44.9757 C   0  0  0  0  0  0  0  0  0  0  0  0
   96.2757   11.1547   45.1360 C   0  0  0  0  0  0  0  0  0  0  0  0
   92.9298    9.6249   43.0712 C   0  0  0  0  0  0  0  0  0  0  0  0
   95.2002   13.6128   45.6180 S   0  0  2  0  0  6  0  0  0  0  0  0
   93.8133   14.4789   45.0892 N   0  0  0  0  0  0  0  0  0  0  0  0
   96.4559   14.2947   45.1687 O   0  0  0  0  0  0  0  0  0  0  0  0
   95.1586   13.5250   47.1043 O   0  0  0  0  0  0  0  0  0  0  0  0
   91.7588    9.1383   43.6452 C   0  0  0  0  0  0  0  0  0  0  0  0
   90.9720    8.7110   42.6861 O   0  0  0  0  0  0  0  0  0  0  0  0
   91.5388    8.8804   41.5203 N   0  0  0  0  0  0  0  0  0  0  0  0
   92.7507    9.4429   41.7145 C   0  0  0  0  0  0  0  0  0  0  0  0
   93.7675    9.8265   40.6930 C   0  0  0  0  0  0  0  0  0  0  0  0
   91.4996    9.1308   45.1176 C   0  0  0  0  0  0  0  0  0  0  0  0
   92.6484   14.2245   45.8461 C   0  0  1  0  0  0  0  0  0  0  0  0
   91.5674   15.2442   45.7412 C   0  0  0  0  0  0  0  0  0  0  0  0
   90.3917   14.5614   46.4086 C   0  0  0  0  0  0  0  0  0  0  0  0
   90.6691   13.0763   46.3577 C   0  0  0  0  0  0  0  0  0  0  0  0
   91.9398   12.9396   45.5075 C   0  0  0  0  0  0  0  0  0  0  0  0
   97.3964    9.0844   44.8245 N   0  0  0  0  0  0  0  0  0  0  0  0
   98.4509    9.5908   45.4847 C   0  0  0  0  0  0  0  0  0  0  0  0
   98.4638   10.8760   45.9895 C   0  0  0  0  0  0  0  0  0  0  0  0
   97.3588   11.6834   45.8174 C   0  0  0  0  0  0  0  0  0  0  0  0
  1  2  2  0
  1  6  1  0
  1 23  1  0
  2  3  1  0
  3  4  2  0
  3  7  1  0
  4  5  1  0
  5  6  2  0
  5  8  1  0
  6 26  1  0
  7 12  2  0
  7 15  1  0
  8  9  1  6
  8 10  2  0
  8 11  2  0
 18  9  1  6
 12 13  1  0
 12 17  1  0
 13 14  1  0
 14 15  2  0
 15 16  1  0
 18 19  1  0
 18 22  1  0
 19 20  1  0
 20 21  1  0
 21 22  1  0
 23 24  2  0
 24 25  1  0
 25 26  2  0
M  END
$$$$
