
     RDKit          3D

 26 29  0  0  0  0  0  0  0  0999 V2000
   95.6740   10.5052   44.8151 C   0  0  0  0  0  0  0  0  0  0  0  0
   94.7861    9.7933   44.0249 C   0  0  0  0  0  0  0  0  0  0  0  0
   93.4145    9.9579   44.1303 C   0  0  0  0  0  0  0  0  0  0  0  0
   92.9531   10.8590   45.0530 C   0  0  0  0  0  0  0  0  0  0  0  0
   93.7807   11.6005   45.8713 C   0  0  0  0  0  0  0  0  0  0  0  0
   95.1472   11.3991   45.7269 C   0  0  0  0  0  0  0  0  0  0  0  0
   92.5531    9.1675   43.2591 C   0  0  0  0  0  0  0  0  0  0  0  0
   93.1789   12.7478   47.0453 S   0  0  2  0  0  6  0  0  0  0  0  0
   93.9827   14.2559   46.8646 N   0  0  0  0  0  0  0  0  0  0  0  0
   93.3912   12.1938   48.4206 O   0  0  0  0  0  0  0  0  0  0  0  0
   91.7271   12.9574   46.7868 O   0  0  0  0  0  0  0  0  0  0  0  0
   91.4252    8.4537   43.6538 C   0  0  0  0  0  0  0  0  0  0  0  0
   90.9117    7.8701   42.5967 O   0  0  0  0  0  0  0  0  0  0  0  0
   91.6191    8.1470   41.5328 N   0  0  0  0  0  0  0  0  0  0  0  0
   92.6432    8.9468   41.8994 C   0  0  0  0  0  0  0  0  0  0  0  0
   93.7176    9.5262   41.0425 C   0  0  0  0  0  0  0  0  0  0  0  0
   90.9311    8.3997   45.0637 C   0  0  0  0  0  0  0  0  0  0  0  0
   93.5218   15.0312   45.7778 C   0  0  1  0  0  0  0  0  0  0  0  0
   93.9671   16.4527   45.7561 C   0  0  0  0  0  0  0  0  0  0  0  0
   93.5635   16.9130   44.3708 C   0  0  0  0  0  0  0  0  0  0  0  0
   93.4336   15.6682   43.5230 C   0  0  0  0  0  0  0  0  0  0  0  0
   93.9293   14.5249   44.4193 C   0  0  0  0  0  0  0  0  0  0  0  0
   97.0094   10.3377   44.7047 N   0  0  0  0  0  0  0  0  0  0  0  0
   97.8175   11.0580   45.4999 C   0  0  0  0  0  0  0  0  0  0  0  0
   97.3356   11.9625   46.4251 C   0  0  0  0  0  0  0  0  0  0  0  0
   95.9740   12.1449   46.5498 C   0  0  0  0  0  0  0  0  0  0  0  0
  1  2  2  0
  1  6  1  0
  1 23  1  0
  2  3  1  0
  3  4  2  0
  3  7  1  0
  4  5  1  0
  5  6  2  0
  5  8  1  0
  6 26  1  0
  7 12  2  0
  7 15  1  0
  8  9  1  1
  8 10  2  0
  8 11  2  0
 18  9  1  1
 12 13  1  0
 12 17  1  0
 13 14  1  0
 14 15  2  0
 15 16  1  0
 18 19  1  0
 18 22  1  0
 19 20  1  0
 20 21  1  0
 21 22  1  0
 23 24  2  0
 24 25  1  0
 25 26  2  0
M  END
$$$$
