
     RDKit          3D

 26 29  0  0  0  0  0  0  0  0999 V2000
   95.9602   10.5000   44.4610 C   0  0  0  0  0  0  0  0  0  0  0  0
   94.9431    9.8355   43.8251 C   0  0  0  0  0  0  0  0  0  0  0  0
   93.6313   10.0574   44.1653 C   0  0  0  0  0  0  0  0  0  0  0  0
   93.3825   10.9726   45.1702 C   0  0  0  0  0  0  0  0  0  0  0  0
   94.3494   11.6824   45.8604 C   0  0  0  0  0  0  0  0  0  0  0  0
   95.6607   11.4167   45.4707 C   0  0  0  0  0  0  0  0  0  0  0  0
   92.5533    9.3494   43.4858 C   0  0  0  0  0  0  0  0  0  0  0  0
   93.8465   12.7193   47.1109 S   0  0  2  0  0  6  0  0  0  0  0  0
   92.1263   12.8696   47.1398 N   0  0  0  0  0  0  0  0  0  0  0  0
   94.3472   14.1130   46.8238 O   0  0  0  0  0  0  0  0  0  0  0  0
   94.2563   12.4507   48.4909 O   0  0  0  0  0  0  0  0  0  0  0  0
   91.4096    8.8599   44.0582 C   0  0  0  0  0  0  0  0  0  0  0  0
   90.6892    8.2841   43.0969 O   0  0  0  0  0  0  0  0  0  0  0  0
   91.2965    8.3758   41.9614 N   0  0  0  0  0  0  0  0  0  0  0  0
   92.4781    9.0397   42.1518 C   0  0  0  0  0  0  0  0  0  0  0  0
   93.4700    9.3528   41.1048 C   0  0  0  0  0  0  0  0  0  0  0  0
   90.9945    8.9241   45.4615 C   0  0  0  0  0  0  0  0  0  0  0  0
   91.6903   14.1967   46.8864 C   0  0  1  0  0  0  0  0  0  0  0  0
   91.6277   14.5455   45.4181 C   0  0  0  0  0  0  0  0  0  0  0  0
   90.2941   13.9034   45.0276 C   0  0  0  0  0  0  0  0  0  0  0  0
   89.3944   14.4344   46.1170 C   0  0  0  0  0  0  0  0  0  0  0  0
   90.2704   14.4656   47.3253 C   0  0  0  0  0  0  0  0  0  0  0  0
   97.2565   10.3117   44.1389 N   0  0  0  0  0  0  0  0  0  0  0  0
   98.2552   10.9754   44.7547 C   0  0  0  0  0  0  0  0  0  0  0  0
   97.9910   11.8836   45.7490 C   0  0  0  0  0  0  0  0  0  0  0  0
   96.6580   12.1087   46.1144 C   0  0  0  0  0  0  0  0  0  0  0  0
  1  2  2  0
  1  6  1  0
  1 23  1  0
  2  3  1  0
  3  4  2  0
  3  7  1  0
  4  5  1  0
  5  6  2  0
  5  8  1  0
  6 26  1  0
  7 12  2  0
  7 15  1  0
  8  9  1  1
  8 10  2  0
  8 11  2  0
 18  9  1  6
 12 13  1  0
 17 12  1  6
 13 14  1  0
 14 15  2  0
 16 15  1  6
 19 18  1  1
 18 22  1  0
 20 19  1  1
 21 20  1  1
 22 21  1  6
 23 24  2  0
 24 25  1  0
 25 26  2  0
M  END
$$$$
