
     RDKit          3D

 26 29  0  0  0  0  0  0  0  0999 V2000
   95.9764   10.6231   44.3832 C   0  0  0  0  0  0  0  0  0  0  0  0
   95.0280    9.9255   43.6529 C   0  0  0  0  0  0  0  0  0  0  0  0
   93.6778    9.9829   43.9585 C   0  0  0  0  0  0  0  0  0  0  0  0
   93.3006   10.7616   45.0205 C   0  0  0  0  0  0  0  0  0  0  0  0
   94.1918   11.4817   45.7894 C   0  0  0  0  0  0  0  0  0  0  0  0
   95.5335   11.3909   45.4425 C   0  0  0  0  0  0  0  0  0  0  0  0
   92.7486    9.2165   43.1370 C   0  0  0  0  0  0  0  0  0  0  0  0
   93.6972   12.4722   47.1427 S   0  0  2  0  0  6  0  0  0  0  0  0
   94.1633   14.1056   46.8818 N   0  0  0  0  0  0  0  0  0  0  0  0
   94.3218   11.9345   48.3934 O   0  0  0  0  0  0  0  0  0  0  0  0
   92.2118   12.4189   47.2379 O   0  0  0  0  0  0  0  0  0  0  0  0
   92.9650    8.8056   41.8248 C   0  0  0  0  0  0  0  0  0  0  0  0
   91.9092    8.1413   41.4178 O   0  0  0  0  0  0  0  0  0  0  0  0
   91.0115    8.0839   42.3664 N   0  0  0  0  0  0  0  0  0  0  0  0
   91.4917    8.7367   43.4462 C   0  0  0  0  0  0  0  0  0  0  0  0
   90.8367    8.9426   44.7703 C   0  0  0  0  0  0  0  0  0  0  0  0
   94.2143    9.1030   41.0595 C   0  0  0  0  0  0  0  0  0  0  0  0
   93.8497   14.5990   45.5962 C   0  0  1  0  0  0  0  0  0  0  0  0
   92.4118   14.8977   45.3457 C   0  0  0  0  0  0  0  0  0  0  0  0
   92.4465   15.6549   44.0345 C   0  0  0  0  0  0  0  0  0  0  0  0
   93.8448   16.2122   43.8946 C   0  0  0  0  0  0  0  0  0  0  0  0
   94.5356   15.8876   45.2264 C   0  0  0  0  0  0  0  0  0  0  0  0
   97.2902   10.5606   44.0774 N   0  0  0  0  0  0  0  0  0  0  0  0
   98.1601   11.2605   44.8241 C   0  0  0  0  0  0  0  0  0  0  0  0
   97.7627   12.0409   45.8917 C   0  0  0  0  0  0  0  0  0  0  0  0
   96.4243   12.1150   46.2166 C   0  0  0  0  0  0  0  0  0  0  0  0
  1  2  2  0
  1  6  1  0
  1 23  1  0
  2  3  1  0
  3  4  2  0
  3  7  1  0
  4  5  1  0
  5  6  2  0
  5  8  1  0
  6 26  1  0
  7 12  2  0
  7 15  1  0
  8  9  1  6
  8 10  2  0
  8 11  2  0
 18  9  1  1
 12 13  1  0
 12 17  1  0
 13 14  1  0
 14 15  2  0
 15 16  1  0
 18 19  1  0
 18 22  1  0
 19 20  1  0
 20 21  1  0
 21 22  1  0
 23 24  2  0
 24 25  1  0
 25 26  2  0
M  END
$$$$
