
     RDKit          3D

 26 29  0  0  0  0  0  0  0  0999 V2000
   95.6917   10.5231   44.6725 C   0  0  0  0  0  0  0  0  0  0  0  0
   94.8145    9.7381   43.9692 C   0  0  0  0  0  0  0  0  0  0  0  0
   93.5024   10.1105   43.8103 C   0  0  0  0  0  0  0  0  0  0  0  0
   93.1066   11.3022   44.3870 C   0  0  0  0  0  0  0  0  0  0  0  0
   93.9270   12.1492   45.1115 C   0  0  0  0  0  0  0  0  0  0  0  0
   95.2467   11.7200   45.2375 C   0  0  0  0  0  0  0  0  0  0  0  0
   92.5737    9.2732   43.0609 C   0  0  0  0  0  0  0  0  0  0  0  0
   93.2372   13.5436   45.7983 S   0  0  2  0  0  6  0  0  0  0  0  0
   92.1827   13.1369   47.1041 N   0  0  0  0  0  0  0  0  0  0  0  0
   92.3441   14.2031   44.7771 O   0  0  0  0  0  0  0  0  0  0  0  0
   94.1012   14.6186   46.2906 O   0  0  0  0  0  0  0  0  0  0  0  0
   91.4316    8.6891   43.5401 C   0  0  0  0  0  0  0  0  0  0  0  0
   90.8725    8.0102   42.5394 O   0  0  0  0  0  0  0  0  0  0  0  0
   91.5798    8.1248   41.4657 N   0  0  0  0  0  0  0  0  0  0  0  0
   92.6650    8.9121   41.7409 C   0  0  0  0  0  0  0  0  0  0  0  0
   93.7223    9.2892   40.7827 C   0  0  0  0  0  0  0  0  0  0  0  0
   90.8720    8.7583   44.8920 C   0  0  0  0  0  0  0  0  0  0  0  0
   92.8415   13.1498   48.3617 C   0  0  1  0  0  0  0  0  0  0  0  0
   92.1691   14.0279   49.3906 C   0  0  0  0  0  0  0  0  0  0  0  0
   91.0373   13.1085   49.8563 C   0  0  0  0  0  0  0  0  0  0  0  0
   91.7998   11.8333   50.1228 C   0  0  0  0  0  0  0  0  0  0  0  0
   92.8476   11.8106   49.0598 C   0  0  0  0  0  0  0  0  0  0  0  0
   96.9886   10.1890   44.8335 N   0  0  0  0  0  0  0  0  0  0  0  0
   97.8539   10.9678   45.5132 C   0  0  0  0  0  0  0  0  0  0  0  0
   97.4456   12.1503   46.0775 C   0  0  0  0  0  0  0  0  0  0  0  0
   96.1066   12.5344   45.9341 C   0  0  0  0  0  0  0  0  0  0  0  0
  1  2  2  0
  1  6  1  0
  1 23  1  0
  2  3  1  0
  3  4  2  0
  3  7  1  0
  4  5  1  0
  5  6  2  0
  5  8  1  0
  6 26  1  0
  7 12  2  0
  7 15  1  0
  8  9  1  1
  8 10  2  0
  8 11  2  0
 18  9  1  6
 12 13  1  0
 17 12  1  6
 13 14  1  0
 14 15  2  0
 16 15  1  6
 19 18  1  1
 18 22  1  0
 20 19  1  1
 21 20  1  1
 22 21  1  6
 23 24  2  0
 24 25  1  0
 25 26  2  0
M  END
$$$$
