
     RDKit          3D

 26 29  0  0  0  0  0  0  0  0999 V2000
   94.1842   13.1672   43.6429 C   0  0  0  0  0  0  0  0  0  0  0  0
   93.6352   12.0079   43.1582 C   0  0  0  0  0  0  0  0  0  0  0  0
   93.5909   10.8706   43.9265 C   0  0  0  0  0  0  0  0  0  0  0  0
   94.1210   10.9444   45.2005 C   0  0  0  0  0  0  0  0  0  0  0  0
   94.6927   12.0723   45.7627 C   0  0  0  0  0  0  0  0  0  0  0  0
   94.7076   13.1948   44.9371 C   0  0  0  0  0  0  0  0  0  0  0  0
   93.0052    9.6407   43.4073 C   0  0  0  0  0  0  0  0  0  0  0  0
   95.3490   11.9467   47.3265 S   0  0  2  0  0  6  0  0  0  0  0  0
   94.2274   12.4995   48.5177 N   0  0  0  0  0  0  0  0  0  0  0  0
   96.5236   12.8860   47.4424 O   0  0  0  0  0  0  0  0  0  0  0  0
   95.8515   10.6573   47.8056 O   0  0  0  0  0  0  0  0  0  0  0  0
   93.3770    8.9762   42.2692 C   0  0  0  0  0  0  0  0  0  0  0  0
   92.5961    7.9031   42.1526 O   0  0  0  0  0  0  0  0  0  0  0  0
   91.7603    7.8444   43.1346 N   0  0  0  0  0  0  0  0  0  0  0  0
   91.9765    8.9180   43.9555 C   0  0  0  0  0  0  0  0  0  0  0  0
   91.2314    9.2217   45.1927 C   0  0  0  0  0  0  0  0  0  0  0  0
   94.4298    9.3268   41.3131 C   0  0  0  0  0  0  0  0  0  0  0  0
   93.2978   13.4382   47.9978 C   0  0  1  0  0  0  0  0  0  0  0  0
   91.9981   12.8175   47.5426 C   0  0  0  0  0  0  0  0  0  0  0  0
   91.2727   12.6573   48.8810 C   0  0  0  0  0  0  0  0  0  0  0  0
   91.4537   14.0361   49.4679 C   0  0  0  0  0  0  0  0  0  0  0  0
   92.8158   14.4453   49.0148 C   0  0  0  0  0  0  0  0  0  0  0  0
   94.2296   14.3024   42.9157 N   0  0  0  0  0  0  0  0  0  0  0  0
   94.7569   15.4457   43.3975 C   0  0  0  0  0  0  0  0  0  0  0  0
   95.2768   15.5032   44.6664 C   0  0  0  0  0  0  0  0  0  0  0  0
   95.2498   14.3462   45.4549 C   0  0  0  0  0  0  0  0  0  0  0  0
  1  2  2  0
  1  6  1  0
  1 23  1  0
  2  3  1  0
  3  4  2  0
  3  7  1  0
  4  5  1  0
  5  6  2  0
  5  8  1  0
  6 26  1  0
  7 12  2  0
  7 15  1  0
  8  9  1  1
  8 10  2  0
  8 11  2  0
 18  9  1  1
 12 13  1  0
 17 12  1  6
 13 14  1  0
 14 15  2  0
 16 15  1  6
 19 18  1  1
 18 22  1  0
 20 19  1  1
 21 20  1  1
 22 21  1  6
 23 24  2  0
 24 25  1  0
 25 26  2  0
M  END
$$$$
