
     RDKit          3D

 26 29  0  0  0  0  0  0  0  0999 V2000
   95.6426   10.2518   44.7917 C   0  0  0  0  0  0  0  0  0  0  0  0
   94.6876    9.5555   44.0687 C   0  0  0  0  0  0  0  0  0  0  0  0
   93.4790   10.1280   43.7068 C   0  0  0  0  0  0  0  0  0  0  0  0
   93.2509   11.4232   44.0901 C   0  0  0  0  0  0  0  0  0  0  0  0
   94.1575   12.1736   44.8105 C   0  0  0  0  0  0  0  0  0  0  0  0
   95.3537   11.5544   45.1488 C   0  0  0  0  0  0  0  0  0  0  0  0
   92.5315    9.3226   42.9458 C   0  0  0  0  0  0  0  0  0  0  0  0
   93.8540   13.8263   45.2936 S   0  0  2  0  0  6  0  0  0  0  0  0
   92.3076   13.9521   46.0327 N   0  0  0  0  0  0  0  0  0  0  0  0
   93.9399   14.7098   44.0872 O   0  0  0  0  0  0  0  0  0  0  0  0
   94.8849   14.2130   46.2967 O   0  0  0  0  0  0  0  0  0  0  0  0
   91.3387    8.7909   43.4275 C   0  0  0  0  0  0  0  0  0  0  0  0
   90.7570    8.1276   42.4563 O   0  0  0  0  0  0  0  0  0  0  0  0
   91.4796    8.1829   41.3682 N   0  0  0  0  0  0  0  0  0  0  0  0
   92.5852    8.9126   41.6287 C   0  0  0  0  0  0  0  0  0  0  0  0
   93.7064    9.2553   40.7068 C   0  0  0  0  0  0  0  0  0  0  0  0
   90.8547    8.9794   44.8294 C   0  0  0  0  0  0  0  0  0  0  0  0
   92.1806   13.2256   47.2371 C   0  0  1  0  0  0  0  0  0  0  0  0
   91.2321   13.7865   48.2397 C   0  0  0  0  0  0  0  0  0  0  0  0
   91.1076   12.6667   49.2518 C   0  0  0  0  0  0  0  0  0  0  0  0
   91.5113   11.3952   48.5408 C   0  0  0  0  0  0  0  0  0  0  0  0
   91.7055   11.8058   47.0745 C   0  0  0  0  0  0  0  0  0  0  0  0
   96.8178    9.6848   45.1397 N   0  0  0  0  0  0  0  0  0  0  0  0
   97.7023   10.4128   45.8411 C   0  0  0  0  0  0  0  0  0  0  0  0
   97.4562   11.7178   46.2195 C   0  0  0  0  0  0  0  0  0  0  0  0
   96.2605   12.3109   45.8716 C   0  0  0  0  0  0  0  0  0  0  0  0
  1  2  2  0
  1  6  1  0
  1 23  1  0
  2  3  1  0
  3  4  2  0
  3  7  1  0
  4  5  1  0
  5  6  2  0
  5  8  1  0
  6 26  1  0
  7 12  2  0
  7 15  1  0
  8  9  1  1
  8 10  2  0
  8 11  2  0
 18  9  1  6
 12 13  1  0
 12 17  1  0
 13 14  1  0
 14 15  2  0
 15 16  1  0
 18 19  1  0
 18 22  1  0
 19 20  1  0
 20 21  1  0
 21 22  1  0
 23 24  2  0
 24 25  1  0
 25 26  2  0
M  END
$$$$
