
     RDKit          3D

 26 29  0  0  0  0  0  0  0  0999 V2000
   95.6292   10.5927   44.6638 C   0  0  0  0  0  0  0  0  0  0  0  0
   94.7438    9.9131   43.8431 C   0  0  0  0  0  0  0  0  0  0  0  0
   93.3794   10.1512   43.8783 C   0  0  0  0  0  0  0  0  0  0  0  0
   92.9228   11.0929   44.7620 C   0  0  0  0  0  0  0  0  0  0  0  0
   93.7483   11.8057   45.6073 C   0  0  0  0  0  0  0  0  0  0  0  0
   95.1076   11.5303   45.5336 C   0  0  0  0  0  0  0  0  0  0  0  0
   92.5202    9.3903   42.9792 C   0  0  0  0  0  0  0  0  0  0  0  0
   93.1525   13.0054   46.7310 S   0  0  2  0  0  6  0  0  0  0  0  0
   93.9535   14.5043   46.4757 N   0  0  0  0  0  0  0  0  0  0  0  0
   93.3743   12.5156   48.1290 O   0  0  0  0  0  0  0  0  0  0  0  0
   91.6989   13.2016   46.4724 O   0  0  0  0  0  0  0  0  0  0  0  0
   91.3782    8.6827   43.3437 C   0  0  0  0  0  0  0  0  0  0  0  0
   90.8719    8.1280   42.2679 O   0  0  0  0  0  0  0  0  0  0  0  0
   91.5969    8.4181   41.2195 N   0  0  0  0  0  0  0  0  0  0  0  0
   92.6258    9.1969   41.6164 C   0  0  0  0  0  0  0  0  0  0  0  0
   93.7189    9.7805   40.7863 C   0  0  0  0  0  0  0  0  0  0  0  0
   90.8644    8.6054   44.7455 C   0  0  0  0  0  0  0  0  0  0  0  0
   93.7016   15.0880   45.2146 C   0  0  1  0  0  0  0  0  0  0  0  0
   92.3336   15.6431   45.0148 C   0  0  0  0  0  0  0  0  0  0  0  0
   92.4706   16.4259   43.7256 C   0  0  0  0  0  0  0  0  0  0  0  0
   93.9415   16.7331   43.5612 C   0  0  0  0  0  0  0  0  0  0  0  0
   94.5955   16.2477   44.8623 C   0  0  0  0  0  0  0  0  0  0  0  0
   96.9576   10.3533   44.6220 N   0  0  0  0  0  0  0  0  0  0  0  0
   97.7637   11.0456   45.4437 C   0  0  0  0  0  0  0  0  0  0  0  0
   97.2866   11.9919   46.3288 C   0  0  0  0  0  0  0  0  0  0  0  0
   95.9323   12.2477   46.3834 C   0  0  0  0  0  0  0  0  0  0  0  0
  1  2  2  0
  1  6  1  0
  1 23  1  0
  2  3  1  0
  3  4  2  0
  3  7  1  0
  4  5  1  0
  5  6  2  0
  5  8  1  0
  6 26  1  0
  7 12  2  0
  7 15  1  0
  8  9  1  1
  8 10  2  0
  8 11  2  0
 18  9  1  1
 12 13  1  0
 12 17  1  0
 13 14  1  0
 14 15  2  0
 15 16  1  0
 18 19  1  0
 18 22  1  0
 19 20  1  0
 20 21  1  0
 21 22  1  0
 23 24  2  0
 24 25  1  0
 25 26  2  0
M  END
$$$$
