
     RDKit          3D

 26 29  0  0  0  0  0  0  0  0999 V2000
   95.7032   10.7529   44.7736 C   0  0  0  0  0  0  0  0  0  0  0  0
   94.8872    9.8499   44.1419 C   0  0  0  0  0  0  0  0  0  0  0  0
   93.5402   10.0828   44.0126 C   0  0  0  0  0  0  0  0  0  0  0  0
   93.0456   11.2586   44.5441 C   0  0  0  0  0  0  0  0  0  0  0  0
   93.7995   12.2188   45.1959 C   0  0  0  0  0  0  0  0  0  0  0  0
   95.1588   11.9283   45.2949 C   0  0  0  0  0  0  0  0  0  0  0  0
   92.6768    9.1203   43.3393 C   0  0  0  0  0  0  0  0  0  0  0  0
   92.9957   13.5728   45.8380 S   0  0  2  0  0  6  0  0  0  0  0  0
   91.5408   13.1078   46.6439 N   0  0  0  0  0  0  0  0  0  0  0  0
   92.5386   14.4557   44.7034 O   0  0  0  0  0  0  0  0  0  0  0  0
   93.6998   14.4733   46.7533 O   0  0  0  0  0  0  0  0  0  0  0  0
   91.4286    8.7235   43.7389 C   0  0  0  0  0  0  0  0  0  0  0  0
   90.9819    7.8354   42.8520 O   0  0  0  0  0  0  0  0  0  0  0  0
   91.8584    7.6447   41.9237 N   0  0  0  0  0  0  0  0  0  0  0  0
   92.9472    8.4320   42.1842 C   0  0  0  0  0  0  0  0  0  0  0  0
   94.1712    8.5104   41.3634 C   0  0  0  0  0  0  0  0  0  0  0  0
   90.6683    9.1566   44.9136 C   0  0  0  0  0  0  0  0  0  0  0  0
   91.7768   12.6134   47.9537 C   0  0  1  0  0  0  0  0  0  0  0  0
   93.0641   11.8343   48.0860 C   0  0  0  0  0  0  0  0  0  0  0  0
   94.0786   12.9746   48.2026 C   0  0  0  0  0  0  0  0  0  0  0  0
   93.4283   13.8244   49.2673 C   0  0  0  0  0  0  0  0  0  0  0  0
   91.9674   13.6968   48.9885 C   0  0  0  0  0  0  0  0  0  0  0  0
   97.0313   10.5566   44.9037 N   0  0  0  0  0  0  0  0  0  0  0  0
   97.8353   11.4511   45.5126 C   0  0  0  0  0  0  0  0  0  0  0  0
   97.3288   12.6158   46.0326 C   0  0  0  0  0  0  0  0  0  0  0  0
   95.9543   12.8586   45.9192 C   0  0  0  0  0  0  0  0  0  0  0  0
  1  2  2  0
  1  6  1  0
  1 23  1  0
  2  3  1  0
  3  4  2  0
  3  7  1  0
  4  5  1  0
  5  6  2  0
  5  8  1  0
  6 26  1  0
  7 12  2  0
  7 15  1  0
  8  9  1  1
  8 10  2  0
  8 11  2  0
 18  9  1  6
 12 13  1  0
 17 12  1  6
 13 14  1  0
 14 15  2  0
 16 15  1  6
 19 18  1  1
 18 22  1  0
 20 19  1  1
 21 20  1  1
 22 21  1  6
 23 24  2  0
 24 25  1  0
 25 26  2  0
M  END
$$$$
