
     RDKit          3D

 26 29  0  0  0  0  0  0  0  0999 V2000
   95.6714   10.4099   44.6538 C   0  0  0  0  0  0  0  0  0  0  0  0
   94.6924    9.6873   43.9913 C   0  0  0  0  0  0  0  0  0  0  0  0
   93.4103   10.1810   43.8117 C   0  0  0  0  0  0  0  0  0  0  0  0
   93.1332   11.4241   44.3159 C   0  0  0  0  0  0  0  0  0  0  0  0
   94.0600   12.1968   44.9854 C   0  0  0  0  0  0  0  0  0  0  0  0
   95.3305   11.6572   45.1393 C   0  0  0  0  0  0  0  0  0  0  0  0
   92.4424    9.3530   43.1025 C   0  0  0  0  0  0  0  0  0  0  0  0
   93.6934   13.7825   45.6242 S   0  0  2  0  0  6  0  0  0  0  0  0
   93.7800   13.7634   47.3405 N   0  0  0  0  0  0  0  0  0  0  0  0
   92.3265   14.1880   45.1655 O   0  0  0  0  0  0  0  0  0  0  0  0
   94.7179   14.7359   45.1146 O   0  0  0  0  0  0  0  0  0  0  0  0
   92.5460    8.9229   41.7827 C   0  0  0  0  0  0  0  0  0  0  0  0
   91.4888    8.2002   41.4968 O   0  0  0  0  0  0  0  0  0  0  0  0
   90.6948    8.1221   42.5324 N   0  0  0  0  0  0  0  0  0  0  0  0
   91.2480    8.8215   43.5461 C   0  0  0  0  0  0  0  0  0  0  0  0
   90.7198    9.0263   44.9258 C   0  0  0  0  0  0  0  0  0  0  0  0
   93.6960    9.2614   40.8895 C   0  0  0  0  0  0  0  0  0  0  0  0
   92.8535   12.8940   47.9573 C   0  0  1  0  0  0  0  0  0  0  0  0
   93.1231   12.5603   49.3840 C   0  0  0  0  0  0  0  0  0  0  0  0
   91.8439   11.8762   49.8194 C   0  0  0  0  0  0  0  0  0  0  0  0
   90.7655   12.3264   48.8605 C   0  0  0  0  0  0  0  0  0  0  0  0
   91.4342   13.3965   47.9864 C   0  0  0  0  0  0  0  0  0  0  0  0
   96.9182    9.9199   44.8237 N   0  0  0  0  0  0  0  0  0  0  0  0
   97.8225   10.6697   45.4750 C   0  0  0  0  0  0  0  0  0  0  0  0
   97.5264   11.9214   45.9771 C   0  0  0  0  0  0  0  0  0  0  0  0
   96.2572   12.4358   45.8116 C   0  0  0  0  0  0  0  0  0  0  0  0
  1  2  2  0
  1  6  1  0
  1 23  1  0
  2  3  1  0
  3  4  2  0
  3  7  1  0
  4  5  1  0
  5  6  2  0
  5  8  1  0
  6 26  1  0
  7 12  2  0
  7 15  1  0
  8  9  1  1
  8 10  2  0
  8 11  2  0
 18  9  1  1
 12 13  1  0
 12 17  1  0
 13 14  1  0
 14 15  2  0
 15 16  1  0
 18 19  1  0
 18 22  1  0
 19 20  1  0
 20 21  1  0
 21 22  1  0
 23 24  2  0
 24 25  1  0
 25 26  2  0
M  END
$$$$
