
     RDKit          3D

 26 29  0  0  0  0  0  0  0  0999 V2000
   95.5879   11.5087   44.1929 C   0  0  0  0  0  0  0  0  0  0  0  0
   94.7844   10.5079   43.7104 C   0  0  0  0  0  0  0  0  0  0  0  0
   93.4706   10.4067   44.0970 C   0  0  0  0  0  0  0  0  0  0  0  0
   92.9969   11.3503   44.9884 C   0  0  0  0  0  0  0  0  0  0  0  0
   93.7409   12.3881   45.5219 C   0  0  0  0  0  0  0  0  0  0  0  0
   95.0653   12.4406   45.0919 C   0  0  0  0  0  0  0  0  0  0  0  0
   92.6199    9.3415   43.5805 C   0  0  0  0  0  0  0  0  0  0  0  0
   92.9946   13.4123   46.6559 S   0  0  2  0  0  6  0  0  0  0  0  0
   93.7437   13.2743   48.2058 N   0  0  0  0  0  0  0  0  0  0  0  0
   91.5754   12.9504   46.8748 O   0  0  0  0  0  0  0  0  0  0  0  0
   92.8838   14.8466   46.3819 O   0  0  0  0  0  0  0  0  0  0  0  0
   91.4658    8.8706   44.1476 C   0  0  0  0  0  0  0  0  0  0  0  0
   90.9958    7.9002   43.3650 O   0  0  0  0  0  0  0  0  0  0  0  0
   91.7703    7.7266   42.3470 N   0  0  0  0  0  0  0  0  0  0  0  0
   92.8107    8.6115   42.4351 C   0  0  0  0  0  0  0  0  0  0  0  0
   93.9186    8.7394   41.4685 C   0  0  0  0  0  0  0  0  0  0  0  0
   90.8145    9.3089   45.3842 C   0  0  0  0  0  0  0  0  0  0  0  0
   94.8728   14.1238   48.3437 C   0  0  1  0  0  0  0  0  0  0  0  0
   95.1172   14.5839   49.7615 C   0  0  0  0  0  0  0  0  0  0  0  0
   95.8186   13.3547   50.3448 C   0  0  0  0  0  0  0  0  0  0  0  0
   96.8668   13.0992   49.2891 C   0  0  0  0  0  0  0  0  0  0  0  0
   96.1840   13.4529   48.0097 C   0  0  0  0  0  0  0  0  0  0  0  0
   96.8778   11.6403   43.8208 N   0  0  0  0  0  0  0  0  0  0  0  0
   97.6636   12.6325   44.2848 C   0  0  0  0  0  0  0  0  0  0  0  0
   97.1769   13.5638   45.1675 C   0  0  0  0  0  0  0  0  0  0  0  0
   95.8424   13.4633   45.5800 C   0  0  0  0  0  0  0  0  0  0  0  0
  1  2  2  0
  1  6  1  0
  1 23  1  0
  2  3  1  0
  3  4  2  0
  3  7  1  0
  4  5  1  0
  5  6  2  0
  5  8  1  0
  6 26  1  0
  7 12  2  0
  7 15  1  0
  8  9  1  1
  8 10  2  0
  8 11  2  0
 18  9  1  1
 12 13  1  0
 17 12  1  6
 13 14  1  0
 14 15  2  0
 16 15  1  6
 19 18  1  1
 18 22  1  0
 20 19  1  1
 21 20  1  1
 22 21  1  6
 23 24  2  0
 24 25  1  0
 25 26  2  0
M  END
$$$$
