
     RDKit          3D

 26 29  0  0  0  0  0  0  0  0999 V2000
   95.7754   10.3228   44.7519 C   0  0  0  0  0  0  0  0  0  0  0  0
   94.8591    9.5577   44.0484 C   0  0  0  0  0  0  0  0  0  0  0  0
   93.5522    9.9736   43.8522 C   0  0  0  0  0  0  0  0  0  0  0  0
   93.1851   11.1824   44.3819 C   0  0  0  0  0  0  0  0  0  0  0  0
   94.0459   11.9938   45.0925 C   0  0  0  0  0  0  0  0  0  0  0  0
   95.3447   11.5321   45.2616 C   0  0  0  0  0  0  0  0  0  0  0  0
   92.6548    9.1055   43.0995 C   0  0  0  0  0  0  0  0  0  0  0  0
   93.5647   13.5348   45.7636 S   0  0  2  0  0  6  0  0  0  0  0  0
   93.5496   13.4538   47.4802 N   0  0  0  0  0  0  0  0  0  0  0  0
   92.2093   13.8935   45.2365 O   0  0  0  0  0  0  0  0  0  0  0  0
   94.5698   14.5540   45.3521 O   0  0  0  0  0  0  0  0  0  0  0  0
   91.4616    8.5614   43.5661 C   0  0  0  0  0  0  0  0  0  0  0  0
   90.9329    7.8363   42.6089 O   0  0  0  0  0  0  0  0  0  0  0  0
   91.6908    7.8623   41.5440 N   0  0  0  0  0  0  0  0  0  0  0  0
   92.7657    8.6361   41.8060 C   0  0  0  0  0  0  0  0  0  0  0  0
   93.9080    8.9687   40.9065 C   0  0  0  0  0  0  0  0  0  0  0  0
   90.9242    8.8007   44.9406 C   0  0  0  0  0  0  0  0  0  0  0  0
   92.8001   12.3766   48.0024 C   0  0  1  0  0  0  0  0  0  0  0  0
   92.7550   12.2738   49.4880 C   0  0  0  0  0  0  0  0  0  0  0  0
   91.6774   11.2357   49.7231 C   0  0  0  0  0  0  0  0  0  0  0  0
   90.8208   11.2129   48.4777 C   0  0  0  0  0  0  0  0  0  0  0  0
   91.3449   12.3695   47.6152 C   0  0  0  0  0  0  0  0  0  0  0  0
   97.0471    9.9085   44.9377 N   0  0  0  0  0  0  0  0  0  0  0  0
   97.8873   10.6963   45.6290 C   0  0  0  0  0  0  0  0  0  0  0  0
   97.5007   11.9124   46.1565 C   0  0  0  0  0  0  0  0  0  0  0  0
   96.2050   12.3493   45.9751 C   0  0  0  0  0  0  0  0  0  0  0  0
  1  2  2  0
  1  6  1  0
  1 23  1  0
  2  3  1  0
  3  4  2  0
  3  7  1  0
  4  5  1  0
  5  6  2  0
  5  8  1  0
  6 26  1  0
  7 12  2  0
  7 15  1  0
  8  9  1  1
  8 10  2  0
  8 11  2  0
 18  9  1  1
 12 13  1  0
 12 17  1  0
 13 14  1  0
 14 15  2  0
 15 16  1  0
 18 19  1  0
 18 22  1  0
 19 20  1  0
 20 21  1  0
 21 22  1  0
 23 24  2  0
 24 25  1  0
 25 26  2  0
M  END
$$$$
