
     RDKit          3D

 26 29  0  0  0  0  0  0  0  0999 V2000
   96.1285   10.3652   44.8495 C   0  0  0  0  0  0  0  0  0  0  0  0
   95.1339    9.7116   44.1402 C   0  0  0  0  0  0  0  0  0  0  0  0
   93.8876   10.2793   43.9304 C   0  0  0  0  0  0  0  0  0  0  0  0
   93.6625   11.5255   44.4524 C   0  0  0  0  0  0  0  0  0  0  0  0
   94.6075   12.2319   45.1681 C   0  0  0  0  0  0  0  0  0  0  0  0
   95.8406   11.6196   45.3509 C   0  0  0  0  0  0  0  0  0  0  0  0
   92.8998    9.5207   43.1725 C   0  0  0  0  0  0  0  0  0  0  0  0
   94.3074   13.8224   45.8293 S   0  0  2  0  0  6  0  0  0  0  0  0
   92.6277   14.1807   45.7695 N   0  0  0  0  0  0  0  0  0  0  0  0
   95.0940   14.8303   45.0490 O   0  0  0  0  0  0  0  0  0  0  0  0
   94.7349   13.8196   47.2561 O   0  0  0  0  0  0  0  0  0  0  0  0
   91.7341    8.9571   43.6832 C   0  0  0  0  0  0  0  0  0  0  0  0
   91.1005    8.3544   42.7050 O   0  0  0  0  0  0  0  0  0  0  0  0
   91.7636    8.4794   41.5853 N   0  0  0  0  0  0  0  0  0  0  0  0
   92.8824    9.1940   41.8313 C   0  0  0  0  0  0  0  0  0  0  0  0
   93.9529    9.5963   40.8738 C   0  0  0  0  0  0  0  0  0  0  0  0
   91.3263    9.0563   45.1181 C   0  0  0  0  0  0  0  0  0  0  0  0
   91.8795   13.6273   46.8319 C   0  0  1  0  0  0  0  0  0  0  0  0
   90.4432   14.0188   46.8906 C   0  0  0  0  0  0  0  0  0  0  0  0
   89.8747   13.0675   47.9229 C   0  0  0  0  0  0  0  0  0  0  0  0
   90.8144   11.8849   47.9840 C   0  0  0  0  0  0  0  0  0  0  0  0
   91.8244   12.1226   46.8527 C   0  0  0  0  0  0  0  0  0  0  0  0
   97.3402    9.8034   45.0486 N   0  0  0  0  0  0  0  0  0  0  0  0
   98.2621   10.4886   45.7449 C   0  0  0  0  0  0  0  0  0  0  0  0
   98.0186   11.7445   46.2644 C   0  0  0  0  0  0  0  0  0  0  0  0
   96.7858   12.3318   46.0695 C   0  0  0  0  0  0  0  0  0  0  0  0
  1  2  2  0
  1  6  1  0
  1 23  1  0
  2  3  1  0
  3  4  2  0
  3  7  1  0
  4  5  1  0
  5  6  2  0
  5  8  1  0
  6 26  1  0
  7 12  2  0
  7 15  1  0
  8  9  1  1
  8 10  2  0
  8 11  2  0
 18  9  1  6
 12 13  1  0
 12 17  1  0
 13 14  1  0
 14 15  2  0
 15 16  1  0
 18 19  1  0
 18 22  1  0
 19 20  1  0
 20 21  1  0
 21 22  1  0
 23 24  2  0
 24 25  1  0
 25 26  2  0
M  END
$$$$
