
     RDKit          3D

 26 29  0  0  0  0  0  0  0  0999 V2000
   95.7751   10.5610   44.6880 C   0  0  0  0  0  0  0  0  0  0  0  0
   94.8960    9.8890   43.8542 C   0  0  0  0  0  0  0  0  0  0  0  0
   93.5238   10.0577   43.9448 C   0  0  0  0  0  0  0  0  0  0  0  0
   93.0528   10.9218   44.8976 C   0  0  0  0  0  0  0  0  0  0  0  0
   93.8714   11.6225   45.7596 C   0  0  0  0  0  0  0  0  0  0  0  0
   95.2389   11.4187   45.6285 C   0  0  0  0  0  0  0  0  0  0  0  0
   92.6721    9.3106   43.0272 C   0  0  0  0  0  0  0  0  0  0  0  0
   93.2573   12.7228   46.9717 S   0  0  2  0  0  6  0  0  0  0  0  0
   93.8682   14.3056   46.6978 N   0  0  0  0  0  0  0  0  0  0  0  0
   93.6566   12.2262   48.3271 O   0  0  0  0  0  0  0  0  0  0  0  0
   91.7735   12.7663   46.8494 O   0  0  0  0  0  0  0  0  0  0  0  0
   91.5373    8.5830   43.3740 C   0  0  0  0  0  0  0  0  0  0  0  0
   91.0364    8.0498   42.2848 O   0  0  0  0  0  0  0  0  0  0  0  0
   91.7585    8.3728   41.2440 N   0  0  0  0  0  0  0  0  0  0  0  0
   92.7796    9.1518   41.6601 C   0  0  0  0  0  0  0  0  0  0  0  0
   93.8667    9.7664   40.8447 C   0  0  0  0  0  0  0  0  0  0  0  0
   91.0244    8.4662   44.7734 C   0  0  0  0  0  0  0  0  0  0  0  0
   93.3551   14.9321   45.5407 C   0  0  1  0  0  0  0  0  0  0  0  0
   93.3324   16.4216   45.5618 C   0  0  0  0  0  0  0  0  0  0  0  0
   93.0158   16.7759   44.1237 C   0  0  0  0  0  0  0  0  0  0  0  0
   93.4084   15.5792   43.2877 C   0  0  0  0  0  0  0  0  0  0  0  0
   94.0973   14.6199   44.2681 C   0  0  0  0  0  0  0  0  0  0  0  0
   97.1111   10.3897   44.5918 N   0  0  0  0  0  0  0  0  0  0  0  0
   97.9105   11.0704   45.4296 C   0  0  0  0  0  0  0  0  0  0  0  0
   97.4188   11.9379   46.3847 C   0  0  0  0  0  0  0  0  0  0  0  0
   96.0565   12.1236   46.4954 C   0  0  0  0  0  0  0  0  0  0  0  0
  1  2  2  0
  1  6  1  0
  1 23  1  0
  2  3  1  0
  3  4  2  0
  3  7  1  0
  4  5  1  0
  5  6  2  0
  5  8  1  0
  6 26  1  0
  7 12  2  0
  7 15  1  0
  8  9  1  6
  8 10  2  0
  8 11  2  0
 18  9  1  1
 12 13  1  0
 12 17  1  0
 13 14  1  0
 14 15  2  0
 15 16  1  0
 18 19  1  0
 18 22  1  0
 19 20  1  0
 20 21  1  0
 21 22  1  0
 23 24  2  0
 24 25  1  0
 25 26  2  0
M  END
$$$$
