
     RDKit          3D

 26 29  0  0  0  0  0  0  0  0999 V2000
   95.9987   10.7369   44.7164 C   0  0  0  0  0  0  0  0  0  0  0  0
   95.1264    9.9662   43.9916 C   0  0  0  0  0  0  0  0  0  0  0  0
   93.7701   10.0622   44.1830 C   0  0  0  0  0  0  0  0  0  0  0  0
   93.3253   10.9625   45.1322 C   0  0  0  0  0  0  0  0  0  0  0  0
   94.1376   11.7741   45.9046 C   0  0  0  0  0  0  0  0  0  0  0  0
   95.5032   11.6338   45.6649 C   0  0  0  0  0  0  0  0  0  0  0  0
   92.8465    9.2415   43.4093 C   0  0  0  0  0  0  0  0  0  0  0  0
   93.4029   12.7739   47.0675 S   0  0  2  0  0  6  0  0  0  0  0  0
   92.9504   14.2939   46.3838 N   0  0  0  0  0  0  0  0  0  0  0  0
   94.4174   13.1192   48.1291 O   0  0  0  0  0  0  0  0  0  0  0  0
   92.2338   12.2948   47.8080 O   0  0  0  0  0  0  0  0  0  0  0  0
   91.7027    8.6449   43.8687 C   0  0  0  0  0  0  0  0  0  0  0  0
   91.1498    7.9889   42.8495 O   0  0  0  0  0  0  0  0  0  0  0  0
   91.8626    8.1295   41.7824 N   0  0  0  0  0  0  0  0  0  0  0  0
   92.9452    8.9116   42.0817 C   0  0  0  0  0  0  0  0  0  0  0  0
   94.0069    9.3123   41.1382 C   0  0  0  0  0  0  0  0  0  0  0  0
   91.1360    8.6816   45.2189 C   0  0  0  0  0  0  0  0  0  0  0  0
   93.8569   14.7339   45.3838 C   0  0  1  0  0  0  0  0  0  0  0  0
   93.1804   15.2704   44.1443 C   0  0  0  0  0  0  0  0  0  0  0  0
   92.8146   16.6832   44.6062 C   0  0  0  0  0  0  0  0  0  0  0  0
   94.1321   17.1429   45.1818 C   0  0  0  0  0  0  0  0  0  0  0  0
   94.7029   15.9121   45.8044 C   0  0  0  0  0  0  0  0  0  0  0  0
   97.3346   10.6732   44.5405 N   0  0  0  0  0  0  0  0  0  0  0  0
   98.1910   11.4410   45.2435 C   0  0  0  0  0  0  0  0  0  0  0  0
   97.7329   12.3327   46.1807 C   0  0  0  0  0  0  0  0  0  0  0  0
   96.3524   12.4301   46.3948 C   0  0  0  0  0  0  0  0  0  0  0  0
  1  2  2  0
  1  6  1  0
  1 23  1  0
  2  3  1  0
  3  4  2  0
  3  7  1  0
  4  5  1  0
  5  6  2  0
  5  8  1  0
  6 26  1  0
  7 12  2  0
  7 15  1  0
  8  9  1  6
  8 10  2  0
  8 11  2  0
 18  9  1  1
 12 13  1  0
 17 12  1  6
 13 14  1  0
 14 15  2  0
 16 15  1  6
 19 18  1  1
 18 22  1  0
 20 19  1  1
 21 20  1  1
 22 21  1  6
 23 24  2  0
 24 25  1  0
 25 26  2  0
M  END
$$$$
