
     RDKit          3D

 26 29  0  0  0  0  0  0  0  0999 V2000
   96.1187   10.6151   44.6419 C   0  0  0  0  0  0  0  0  0  0  0  0
   95.1957    9.9576   43.8697 C   0  0  0  0  0  0  0  0  0  0  0  0
   93.8493   10.1492   44.0593 C   0  0  0  0  0  0  0  0  0  0  0  0
   93.4673   11.0266   45.0561 C   0  0  0  0  0  0  0  0  0  0  0  0
   94.3332   11.7268   45.8778 C   0  0  0  0  0  0  0  0  0  0  0  0
   95.6859   11.4932   45.6375 C   0  0  0  0  0  0  0  0  0  0  0  0
   92.8717    9.4488   43.2352 C   0  0  0  0  0  0  0  0  0  0  0  0
   93.6679   12.7139   47.0921 S   0  0  2  0  0  6  0  0  0  0  0  0
   93.0255   14.1718   46.4255 N   0  0  0  0  0  0  0  0  0  0  0  0
   94.7718   13.1691   48.0139 O   0  0  0  0  0  0  0  0  0  0  0  0
   92.6335   12.1806   47.9809 O   0  0  0  0  0  0  0  0  0  0  0  0
   92.9661    9.1971   41.8925 C   0  0  0  0  0  0  0  0  0  0  0  0
   91.8691    8.5364   41.5255 O   0  0  0  0  0  0  0  0  0  0  0  0
   91.0916    8.3541   42.5397 N   0  0  0  0  0  0  0  0  0  0  0  0
   91.6780    8.9111   43.6438 C   0  0  0  0  0  0  0  0  0  0  0  0
   91.1144    8.9202   45.0078 C   0  0  0  0  0  0  0  0  0  0  0  0
   94.0463    9.5600   40.9720 C   0  0  0  0  0  0  0  0  0  0  0  0
   94.0305   15.0079   45.8718 C   0  0  1  0  0  0  0  0  0  0  0  0
   94.2675   14.7782   44.3978 C   0  0  0  0  0  0  0  0  0  0  0  0
   93.1051   15.5700   43.7938 C   0  0  0  0  0  0  0  0  0  0  0  0
   93.2400   16.8792   44.5329 C   0  0  0  0  0  0  0  0  0  0  0  0
   93.6839   16.4775   45.9003 C   0  0  0  0  0  0  0  0  0  0  0  0
   97.4471   10.4564   44.4695 N   0  0  0  0  0  0  0  0  0  0  0  0
   98.3542   11.1134   45.2196 C   0  0  0  0  0  0  0  0  0  0  0  0
   97.9584   11.9840   46.2038 C   0  0  0  0  0  0  0  0  0  0  0  0
   96.5878   12.1775   46.4161 C   0  0  0  0  0  0  0  0  0  0  0  0
  1  2  2  0
  1  6  1  0
  1 23  1  0
  2  3  1  0
  3  4  2  0
  3  7  1  0
  4  5  1  0
  5  6  2  0
  5  8  1  0
  6 26  1  0
  7 12  2  0
  7 15  1  0
  8  9  1  6
  8 10  2  0
  8 11  2  0
 18  9  1  6
 12 13  1  0
 17 12  1  6
 13 14  1  0
 14 15  2  0
 16 15  1  6
 19 18  1  1
 18 22  1  0
 20 19  1  1
 21 20  1  1
 22 21  1  6
 23 24  2  0
 24 25  1  0
 25 26  2  0
M  END
$$$$
